AV-unprocessed.smi:1716|AV-procd|sdf|6916|dock5
  -GOLD-   22720 8123D 1   1.00000     0.00000
 Structure written by MMmdl.
 40 41  0  0  0  0  0  0  0  0  1 V2000
  148.9377  141.0027  156.4101 C   0  0  0  0  0  0  0  0  0  0  0  0
  148.5939  141.3038  154.9495 C   0  0  0  0  0  0  0  0  0  0  0  0
  149.3838  141.9887  154.2991 O   0  0  0  0  0  0  0  0  0  0  0  0
  147.4466  140.8110  154.4233 N   0  0  0  0  0  0  0  0  0  0  0  0
  147.0757  140.9943  153.0151 C   0  0  0  0  0  0  0  0  0  0  0  0
  147.1766  139.6397  152.2907 C   0  0  0  0  0  0  0  0  0  0  0  0
  146.3105  138.5643  152.9861 C   0  0  0  0  0  0  0  0  0  0  0  0
  146.5617  137.2468  152.4093 N   0  0  0  0  0  0  0  0  0  0  0  0
  145.6260  136.3162  152.1691 C   0  0  0  0  0  0  0  0  0  0  0  0
  144.4296  136.4789  152.4117 O   0  0  0  0  0  0  0  0  0  0  0  0
  146.1698  135.2074  151.6364 N   0  0  0  0  0  0  0  0  0  0  0  0
  145.5218  134.0012  151.2462 C   0  0  0  0  0  0  0  0  0  0  0  0
  144.3583  133.9877  150.5478 N   0  0  0  0  0  0  0  0  0  0  0  0
  143.7978  132.8084  150.2107 C   0  0  0  0  0  0  0  0  0  0  0  0
  144.3618  131.5663  150.5485 C   0  0  0  0  0  0  0  0  0  0  0  0
  145.5669  131.5616  151.2715 C   0  0  0  0  0  0  0  0  0  0  0  0
  146.1607  132.7910  151.6286 C   0  0  0  0  0  0  0  0  0  0  0  0
  147.4646  132.7875  152.4103 C   0  0  0  0  0  0  0  0  0  0  0  0
  146.5777  138.5255  154.5060 C   0  0  0  0  0  0  0  0  0  0  0  0
  146.4987  139.9337  155.1221 C   0  0  0  0  0  0  0  0  0  0  0  0
  149.0030  139.9273  156.5790 H   0  0  0  0  0  0  0  0  0  0  0  0
  148.1858  141.4230  157.0785 H   0  0  0  0  0  0  0  0  0  0  0  0
  149.9007  141.4396  156.6757 H   0  0  0  0  0  0  0  0  0  0  0  0
  146.0552  141.3754  152.9566 H   0  0  0  0  0  0  0  0  0  0  0  0
  147.6969  141.7326  152.5065 H   0  0  0  0  0  0  0  0  0  0  0  0
  146.8720  139.7543  151.2498 H   0  0  0  0  0  0  0  0  0  0  0  0
  148.2200  139.3213  152.2740 H   0  0  0  0  0  0  0  0  0  0  0  0
  145.2595  138.8231  152.8431 H   0  0  0  0  0  0  0  0  0  0  0  0
  147.5196  137.0291  152.1767 H   0  0  0  0  0  0  0  0  0  0  0  0
  147.1684  135.2252  151.4928 H   0  0  0  0  0  0  0  0  0  0  0  0
  142.8725  132.8574  149.6561 H   0  0  0  0  0  0  0  0  0  0  0  0
  143.8822  130.6426  150.2605 H   0  0  0  0  0  0  0  0  0  0  0  0
  146.0269  130.6239  151.5468 H   0  0  0  0  0  0  0  0  0  0  0  0
  147.8023  131.7711  152.6150 H   0  0  0  0  0  0  0  0  0  0  0  0
  147.3386  133.2973  153.3657 H   0  0  0  0  0  0  0  0  0  0  0  0
  148.2489  133.2941  151.8474 H   0  0  0  0  0  0  0  0  0  0  0  0
  145.8606  137.8651  154.9949 H   0  0  0  0  0  0  0  0  0  0  0  0
  147.5666  138.1064  154.6995 H   0  0  0  0  0  0  0  0  0  0  0  0
  146.6653  139.8771  156.1966 H   0  0  0  0  0  0  0  0  0  0  0  0
  145.4904  140.3337  155.0064 H   0  0  0  0  0  0  0  0  0  0  0  0
  1  2  1  0  0  0  0
  1 21  1  0  0  0  0
  1 22  1  0  0  0  0
  1 23  1  0  0  0  0
  2  3  2  0  0  0  0
  2  4  1  0  0  0  0
  4 20  1  0  0  0  0
  4  5  1  0  0  0  0
  5  6  1  0  0  0  0
  5 24  1  0  0  0  0
  5 25  1  0  0  0  0
  6  7  1  0  0  0  0
  6 26  1  0  0  0  0
  6 27  1  0  0  0  0
  7  8  1  0  0  0  0
  7 19  1  0  0  0  0
  7 28  1  0  0  0  0
  8  9  1  0  0  0  0
  8 29  1  0  0  0  0
  9 10  2  0  0  0  0
  9 11  1  0  0  0  0
 11 12  1  0  0  0  0
 11 30  1  0  0  0  0
 12 17  1  0  0  0  0
 12 13  2  0  0  0  0
 13 14  1  0  0  0  0
 14 15  2  0  0  0  0
 14 31  1  0  0  0  0
 15 16  1  0  0  0  0
 15 32  1  0  0  0  0
 16 17  2  0  0  0  0
 16 33  1  0  0  0  0
 17 18  1  0  0  0  0
 18 34  1  0  0  0  0
 18 35  1  0  0  0  0
 18 36  1  0  0  0  0
 19 20  1  0  0  0  0
 19 37  1  0  0  0  0
 19 38  1  0  0  0  0
 20 39  1  0  0  0  0
 20 40  1  0  0  0  0
M  END
> <s_m_source_file>
AV-unprocessed.smi

> <i_m_source_file_index>
1716

> <i_lp_mmshare_version>
43012

> <i_f3d_flags>
0

> <s_epik_input>
W0NIM11DKD1PKU4xW0NIMl1bQ0gyXVtDSF0oW0NIMl1bQ0gyXTEpW05IXUMoPU8pW05IXWMybltjSF1bY0hdW2NIXWMyW0NIM10=

> <s_epik_cmdline>
J2VwaWtfcHl0aG9uJywgJy1waCcsICc3LjAnLCAnLXRuJywgJzgnLCAnLW1hJywgJzIwMCcsICctbWV0YWxfYmluZGluZycsICctaW1hZScsICc8aW5maWxlLm1hZT4nLCAnLW9tYWUnLCAnPG91dGZpbGUubWFlPic=

> <r_lp_tautomer_probability>
1

> <r_epik_Ionization_Penalty>
5.94044e-05

> <r_epik_Ionization_Penalty_Charging>
0

> <r_epik_Ionization_Penalty_Neutral>
5.94044e-05

> <r_epik_State_Penalty>
-0

> <r_epik_Charging_Adjusted_Penalty>
0

> <i_epik_Tot_Q>
0

> <i_epik_Tot_abs_Q>
0

> <r_epik_Metal_State_Penalty>
-0

> <b_epik_Metal_Only>
0

> <s_lp_Force_Field>
OPLS_2005

> <r_lp_Energy>
26.4914

> <b_lp_Chiralities_Consistent>
1

> <s_lp_Variant>
AV-unprocessed.smi:1716-1

> <Gold.Version>
5.8.1

> <Gold.Id.Protein>
6NUR|6NUR_protein|mol2

> <Gold.PLP.Fitness>
39.1977

> <Gold.PLP.PLP>
-30.5623

> <Gold.PLP.part.hbond>
-3.9900

> <Gold.PLP.part.metal>
0.0000

> <Gold.PLP.part.buried>
-1.1994

> <Gold.PLP.part.nonpolar>
-26.4414

> <Gold.PLP.part.repulsive>
0.9842

> <Gold.PLP.ligand.clash>
0.0000

> <Gold.PLP.ligand.torsion>
0.6816

> <Gold.PLP.Chemscore.Hbond>
2.3280

> <Gold.PLP.Chemscore.CHOScore>
1.0000

> <Gold.PLP.Chemscore.Metal>
0.0000

> <Gold.Chemscore.Hbonds>
donor molecule, donor type, donor heavy atom, donor atom, acceptor molecule, acceptor atom, score
      L1  H     8    29       P1  7948  1.00
      L1  H    11    30       P1  7948  0.95
      P1  H  8011  8017       L1     3  0.35
      L1  C    14    31       P1 10186  1.00

> <Gold.PLP.Chemscore.Internal.Correction>
0.0146

> <Gold.Rescore>
     Score         DG    S(hbond)    S(metal)    S(lipo)     H(rot)  DE(clash)    DE(int)     intcor
     16.50     -18.77       2.16        0.00      73.81       1.00       1.79       0.49       ----

> <Gold.Chemscore.Fitness>
16.4990

> <Gold.Chemscore.DG>
-18.7738

> <Gold.Chemscore.ZeroCoef>
-5.4800

> <Gold.Chemscore.Hbond>
2.1611

> <Gold.Chemscore.Metal>
0.0000

> <Gold.Chemscore.Lipo>
73.8094

> <Gold.Chemscore.Internal_Hbond>
0.0000

> <Gold.Chemscore.DEClash>
1.7863

> <Gold.Chemscore.DEInternal>
0.4885

> <Gold.Chemscore.Rot>
1.0000

> <Gold.Chemscore.Internal.Correction>
   9.000000E+99

> <Gold.Chemscore.Hbonds>
donor molecule, donor type, donor heavy atom, donor atom, acceptor molecule, acceptor atom, score
      L1  H     8    29       P1  7948  1.00
      L1  H    11    30       P1  7948  0.77
      P1  H  8011  8017       L1     3  0.33

> <Gold.Chemscore.Hbond.Weighted>
-7.2181

> <Gold.Chemscore.Metal.Weighted>
-0.0000

> <Gold.Chemscore.Lipo.Weighted>
-8.6357

> <Gold.Chemscore.Internal_Hbond.Weighted>
0.0000

> <Gold.Chemscore.DEClash.Weighted>
1.7863

> <Gold.Chemscore.DEInternal.Weighted>
0.4885

> <Gold.Chemscore.Rot.Weighted>
2.5600

> <Gold.Chemscore.Internal.Correction.Weighted>
   9.000000E+99

> <Gold.Protein.RotatedTorsions>
[ 6907 6896 6895 6894 ] final   87.17 input  -60.11 | X-H torsion
[ 7974 7965 7964 7962 ] final    8.17 input  175.53 | X-H torsion
[ 8008 7997 7996 7995 ] final  -63.67 input   59.86 | X-H torsion
[ 10167 10162 10161 10158 ] final    9.66 input  -65.29 | X-H torsion
[ 10718 10713 10712 10709 ] final   89.66 input   66.30 | X-H torsion
[ 10763 10752 10751 10750 ] final   54.36 input  -60.55 | X-H torsion
[ 11005 11000 10999 10996 ] final -157.28 input  -57.11 | X-H torsion

> <Gold.Protein.ActiveResidues>
 VAL166  LYS551  ARG553  GLY616  TRP617  ASP618  TYR619  PRO620  LYS621  CYS622 
 ASP623  PHE694  ASN695  SER759  ASP760  ASP761  ALA762  ILE779  LEU786  VAL792 
 PHE793  MET794  SER795  GLU796  ALA797  LYS798  CYS799  TRP800  GLU811  SER814 

> <Gold.Protein.RotatedAtoms>
  152.5407  134.2318  159.8827 H   0  0  0  0  0  0  0  0  0  0  0  0  # atno 6907 bound_to 6896
  151.2290  133.4454  159.2610 H   0  0  0  0  0  0  0  0  0  0  0  0  # atno 6908 bound_to 6896
  151.0734  134.9826  159.8376 H   0  0  0  0  0  0  0  0  0  0  0  0  # atno 6909 bound_to 6896
  146.2419  139.9973  142.8419 H   0  0  0  0  0  0  0  0  0  0  0  0  # atno 7974 bound_to 7965
  154.4568  140.0970  156.6779 H   0  0  0  0  0  0  0  0  0  0  0  0  # atno 8008 bound_to 7997
  155.5115  140.3476  155.4371 H   0  0  0  0  0  0  0  0  0  0  0  0  # atno 8009 bound_to 7997
  156.0792  140.1369  156.9722 H   0  0  0  0  0  0  0  0  0  0  0  0  # atno 8010 bound_to 7997
  140.6242  143.8138  150.7212 H   0  0  0  0  0  0  0  0  0  0  0  0  # atno 10167 bound_to 10162
  157.6956  131.0341  150.3459 H   0  0  0  0  0  0  0  0  0  0  0  0  # atno 10718 bound_to 10713
  152.9804  135.5747  154.4892 H   0  0  0  0  0  0  0  0  0  0  0  0  # atno 10763 bound_to 10752
  154.4429  135.2776  155.1837 H   0  0  0  0  0  0  0  0  0  0  0  0  # atno 10764 bound_to 10752
  154.3498  135.6211  153.5690 H   0  0  0  0  0  0  0  0  0  0  0  0  # atno 10765 bound_to 10752
  140.6663  134.4295  157.5233 H   0  0  0  0  0  0  0  0  0  0  0  0  # atno 11005 bound_to 11000
  145.1448  140.9591  143.4467 LP  0  0  0  0  0  0  0  0  0  0  0  0  # atno 17320 bound_to 7965
  145.0261  139.3381  143.6048 LP  0  0  0  0  0  0  0  0  0  0  0  0  # atno 17321 bound_to 7965
  140.1735  143.4174  152.1984 LP  0  0  0  0  0  0  0  0  0  0  0  0  # atno 17342 bound_to 10162
  139.5465  144.7302  151.4568 LP  0  0  0  0  0  0  0  0  0  0  0  0  # atno 17343 bound_to 10162
  156.3913  130.3898  149.7027 LP  0  0  0  0  0  0  0  0  0  0  0  0  # atno 17370 bound_to 10713
  156.4376  130.7845  151.2866 LP  0  0  0  0  0  0  0  0  0  0  0  0  # atno 17371 bound_to 10713
  139.8996  134.8587  156.1953 LP  0  0  0  0  0  0  0  0  0  0  0  0  # atno 17394 bound_to 11000
  141.0426  133.6930  156.1626 LP  0  0  0  0  0  0  0  0  0  0  0  0  # atno 17395 bound_to 11000

$$$$
