AV-unprocessed.smi:2889|AV-procd|sdf|11114|dock2
  -GOLD-   2272015583D 1   1.00000     0.00000
 Structure written by MMmdl.
 35 36  0  0  0  0  0  0  0  0  2 V2000
  152.5092  138.5032  154.9788 C   0  0  0  0  0  0  0  0  0  0  0  0
  151.2300  137.3763  154.3553 S   0  0  0  0  0  0  0  0  0  0  0  0
  149.7076  138.3355  154.6643 C   0  0  2  0  0  0  0  0  0  0  0  0
  150.0136  139.8585  154.6676 C   0  0  0  0  0  0  0  0  0  0  0  0
  148.7485  140.7234  154.8480 C   0  0  0  0  0  0  0  0  0  0  0  0
  147.9880  140.2779  156.1134 C   0  0  0  0  0  0  0  0  0  0  0  0
  147.6813  138.7577  156.1231 C   0  0  0  0  0  0  0  0  0  0  0  0
  148.9300  137.8587  155.9284 C   0  0  2  0  0  0  0  0  0  0  0  0
  149.7773  137.9201  157.1133 N   0  5  0  0  0  0  0  0  0  0  0  0
  149.6270  136.8000  158.2752 S   0  0  0  0  0  0  0  0  0  0  0  0
  149.4034  135.4466  157.7396 O   0  0  0  0  0  0  0  0  0  0  0  0
  150.6547  136.9456  159.3190 O   0  0  0  0  0  0  0  0  0  0  0  0
  148.0386  137.3278  159.0561 C   0  0  0  0  0  0  0  0  0  0  0  0
  147.8253  136.6128  160.3622 C   0  0  0  0  0  0  0  0  0  0  0  0
  147.7766  135.2118  160.6049 C   0  0  0  0  0  0  0  0  0  0  0  0
  147.5613  135.1281  161.9499 C   0  0  0  0  0  0  0  0  0  0  0  0
  147.4940  136.3668  162.4989 O   0  0  0  0  0  0  0  0  0  0  0  0
  147.6695  137.3083  161.4786 N   0  0  0  0  0  0  0  0  0  0  0  0
  153.4890  138.0324  154.9021 H   0  0  0  0  0  0  0  0  0  0  0  0
  152.3258  138.7479  156.0249 H   0  0  0  0  0  0  0  0  0  0  0  0
  152.5297  139.4272  154.4012 H   0  0  0  0  0  0  0  0  0  0  0  0
  149.0646  138.1564  153.8017 H   0  0  0  0  0  0  0  0  0  0  0  0
  150.7329  140.1000  155.4529 H   0  0  0  0  0  0  0  0  0  0  0  0
  150.4984  140.1324  153.7302 H   0  0  0  0  0  0  0  0  0  0  0  0
  149.0153  141.7784  154.9158 H   0  0  0  0  0  0  0  0  0  0  0  0
  148.1035  140.6166  153.9752 H   0  0  0  0  0  0  0  0  0  0  0  0
  148.5656  140.5504  156.9991 H   0  0  0  0  0  0  0  0  0  0  0  0
  147.0541  140.8354  156.1884 H   0  0  0  0  0  0  0  0  0  0  0  0
  147.1619  138.4929  157.0447 H   0  0  0  0  0  0  0  0  0  0  0  0
  146.9758  138.5458  155.3189 H   0  0  0  0  0  0  0  0  0  0  0  0
  148.5884  136.8390  155.7468 H   0  0  0  0  0  0  0  0  0  0  0  0
  148.0966  138.4026  159.2236 H   0  0  0  0  0  0  0  0  0  0  0  0
  147.2257  137.1504  158.3516 H   0  0  0  0  0  0  0  0  0  0  0  0
  147.8743  134.3996  159.9003 H   0  0  0  0  0  0  0  0  0  0  0  0
  147.4415  134.2993  162.6316 H   0  0  0  0  0  0  0  0  0  0  0  0
  1  2  1  0  0  0  0
  1 19  1  0  0  0  0
  1 20  1  0  0  0  0
  1 21  1  0  0  0  0
  2  3  1  0  0  0  0
  3  8  1  0  0  0  0
  3  4  1  0  0  0  0
  3 22  1  0  0  0  0
  4  5  1  0  0  0  0
  4 23  1  0  0  0  0
  4 24  1  0  0  0  0
  5  6  1  0  0  0  0
  5 25  1  0  0  0  0
  5 26  1  0  0  0  0
  6  7  1  0  0  0  0
  6 27  1  0  0  0  0
  6 28  1  0  0  0  0
  7  8  1  0  0  0  0
  7 29  1  0  0  0  0
  7 30  1  0  0  0  0
  8  9  1  0  0  0  0
  8 31  1  0  0  0  0
  9 10  1  0  0  0  0
 10 11  2  0  0  0  0
 10 12  2  0  0  0  0
 10 13  1  0  0  0  0
 13 14  1  0  0  0  0
 13 32  1  0  0  0  0
 13 33  1  0  0  0  0
 14 18  2  0  0  0  0
 14 15  1  0  0  0  0
 15 16  2  0  0  0  0
 15 34  1  0  0  0  0
 16 17  1  0  0  0  0
 16 35  1  0  0  0  0
 17 18  1  0  0  0  0
M  CHG  1   9  -1
M  END
> <s_m_source_file>
AV-unprocessed.smi

> <i_m_source_file_index>
2889

> <i_lp_mmshare_version>
43012

> <i_f3d_flags>
0

> <s_epik_input>
W0NIM11TW0NAQEhdMVtDSDJdW0NIMl1bQ0gyXVtDSDJdW0NASF0xW05IXVMoPU8pKD1PKVtDSDJdYzJbY0hdW2NIXW9uMg==

> <s_epik_cmdline>
J2VwaWtfcHl0aG9uJywgJy1waCcsICc3LjAnLCAnLXRuJywgJzgnLCAnLW1hJywgJzIwMCcsICctbWV0YWxfYmluZGluZycsICctaW1hZScsICc8aW5maWxlLm1hZT4nLCAnLW9tYWUnLCAnPG91dGZpbGUubWFlPic=

> <r_lp_tautomer_probability>
1

> <r_epik_Ionization_Penalty>
4.65467

> <r_epik_Ionization_Penalty_Charging>
4.65467

> <r_epik_Ionization_Penalty_Neutral>
2.71476e-10

> <r_epik_State_Penalty>
4.65444

> <r_epik_Charging_Adjusted_Penalty>
9.30911

> <i_epik_Tot_Q>
-1

> <i_epik_Tot_abs_Q>
1

> <r_epik_Metal_State_Penalty>
0.901484

> <b_epik_Metal_Only>
1

> <s_lp_Force_Field>
OPLS_2005

> <r_lp_Energy>
12.0464

> <b_lp_Chiralities_Consistent>
1

> <s_lp_Variant>
AV-unprocessed.smi:2889-7

> <Gold.Version>
5.8.1

> <Gold.Id.Protein>
6NUR|6NUR_protein|mol2

> <Gold.PLP.Fitness>
34.1601

> <Gold.PLP.PLP>
-27.7497

> <Gold.PLP.part.hbond>
-3.6277

> <Gold.PLP.part.metal>
0.0000

> <Gold.PLP.part.buried>
-3.6543

> <Gold.PLP.part.nonpolar>
-20.2827

> <Gold.PLP.part.repulsive>
0.0000

> <Gold.PLP.ligand.clash>
0.0000

> <Gold.PLP.ligand.torsion>
1.5637

> <Gold.PLP.Chemscore.Hbond>
2.8160

> <Gold.PLP.Chemscore.CHOScore>
0.0000

> <Gold.PLP.Chemscore.Metal>
0.0000

> <Gold.Chemscore.Hbonds>
donor molecule, donor type, donor heavy atom, donor atom, acceptor molecule, acceptor atom, score
      P1  H  6896  6909       L1    12  1.00
      P1  H  6931  6943       L1    18  0.93
      P1  H  6934  6947       L1    18  0.77

> <Gold.PLP.Chemscore.Internal.Correction>
1.0899

> <Gold.Rescore>
     Score         DG    S(hbond)    S(metal)    S(lipo)     H(rot)  DE(clash)    DE(int)     intcor
     14.45     -16.14       2.18        0.00      62.40       1.53       0.10       1.58       ----

> <Gold.Chemscore.Fitness>
14.4530

> <Gold.Chemscore.DG>
-16.1364

> <Gold.Chemscore.ZeroCoef>
-5.4800

> <Gold.Chemscore.Hbond>
2.1783

> <Gold.Chemscore.Metal>
0.0000

> <Gold.Chemscore.Lipo>
62.4045

> <Gold.Chemscore.Internal_Hbond>
0.0000

> <Gold.Chemscore.DEClash>
0.0998

> <Gold.Chemscore.DEInternal>
1.5835

> <Gold.Chemscore.Rot>
1.5314

> <Gold.Chemscore.Internal.Correction>
   9.000000E+99

> <Gold.Chemscore.Hbonds>
donor molecule, donor type, donor heavy atom, donor atom, acceptor molecule, acceptor atom, score
      P1  H  6896  6909       L1    12  0.53
      P1  H  6931  6943       L1    18  0.48
      P1  H  6934  6947       L1    18  0.42

> <Gold.Chemscore.Hbond.Weighted>
-7.2755

> <Gold.Chemscore.Metal.Weighted>
-0.0000

> <Gold.Chemscore.Lipo.Weighted>
-7.3013

> <Gold.Chemscore.Internal_Hbond.Weighted>
0.0000

> <Gold.Chemscore.DEClash.Weighted>
0.0998

> <Gold.Chemscore.DEInternal.Weighted>
1.5835

> <Gold.Chemscore.Rot.Weighted>
3.9205

> <Gold.Chemscore.Internal.Correction.Weighted>
   9.000000E+99

> <Gold.Protein.RotatedTorsions>
[ 6907 6896 6895 6894 ] final   93.56 input  -60.11 | X-H torsion
[ 7974 7965 7964 7962 ] final -168.57 input  175.53 | X-H torsion
[ 8008 7997 7996 7995 ] final  -46.22 input   59.86 | X-H torsion
[ 10167 10162 10161 10158 ] final  -30.20 input  -65.29 | X-H torsion
[ 10718 10713 10712 10709 ] final -105.45 input   66.30 | X-H torsion
[ 10763 10752 10751 10750 ] final   -5.55 input  -60.55 | X-H torsion
[ 11005 11000 10999 10996 ] final -143.96 input  -57.11 | X-H torsion

> <Gold.Protein.ActiveResidues>
 VAL166  LYS551  ARG553  GLY616  TRP617  ASP618  TYR619  PRO620  LYS621  CYS622 
 ASP623  PHE694  ASN695  SER759  ASP760  ASP761  ALA762  ILE779  LEU786  VAL792 
 PHE793  MET794  SER795  GLU796  ALA797  LYS798  CYS799  TRP800  GLU811  SER814 

> <Gold.Protein.RotatedAtoms>
  152.5452  134.1329  159.8446 H   0  0  0  0  0  0  0  0  0  0  0  0  # atno 6907 bound_to 6896
  151.1373  133.4988  159.2605 H   0  0  0  0  0  0  0  0  0  0  0  0  # atno 6908 bound_to 6896
  151.1611  135.0284  159.8765 H   0  0  0  0  0  0  0  0  0  0  0  0  # atno 6909 bound_to 6896
  144.7201  140.2351  143.6299 H   0  0  0  0  0  0  0  0  0  0  0  0  # atno 7974 bound_to 7965
  154.4006  140.1377  156.3975 H   0  0  0  0  0  0  0  0  0  0  0  0  # atno 8008 bound_to 7997
  155.7855  140.3480  155.5300 H   0  0  0  0  0  0  0  0  0  0  0  0  # atno 8009 bound_to 7997
  155.8631  140.0959  157.1590 H   0  0  0  0  0  0  0  0  0  0  0  0  # atno 8010 bound_to 7997
  140.7252  143.3868  151.1501 H   0  0  0  0  0  0  0  0  0  0  0  0  # atno 10167 bound_to 10162
  156.0346  130.5564  150.7540 H   0  0  0  0  0  0  0  0  0  0  0  0  # atno 10718 bound_to 10713
  153.4001  135.7004  153.6432 H   0  0  0  0  0  0  0  0  0  0  0  0  # atno 10763 bound_to 10752
  153.4969  135.3660  155.2521 H   0  0  0  0  0  0  0  0  0  0  0  0  # atno 10764 bound_to 10752
  154.8710  135.4102  154.3334 H   0  0  0  0  0  0  0  0  0  0  0  0  # atno 10765 bound_to 10752
  140.8072  134.2787  157.4955 H   0  0  0  0  0  0  0  0  0  0  0  0  # atno 11005 bound_to 11000
  145.8374  139.2114  143.1847 LP  0  0  0  0  0  0  0  0  0  0  0  0  # atno 17320 bound_to 7965
  146.0377  140.8196  142.9844 LP  0  0  0  0  0  0  0  0  0  0  0  0  # atno 17321 bound_to 7965
  139.7466  143.8842  152.3065 LP  0  0  0  0  0  0  0  0  0  0  0  0  # atno 17342 bound_to 10162
  139.8682  144.7082  150.9019 LP  0  0  0  0  0  0  0  0  0  0  0  0  # atno 17343 bound_to 10162
  157.5077  131.0923  151.0236 LP  0  0  0  0  0  0  0  0  0  0  0  0  # atno 17370 bound_to 10713
  157.0600  130.5822  149.5384 LP  0  0  0  0  0  0  0  0  0  0  0  0  # atno 17371 bound_to 10713
  139.8717  134.9463  156.3934 LP  0  0  0  0  0  0  0  0  0  0  0  0  # atno 17394 bound_to 11000
  140.9234  133.7629  155.9935 LP  0  0  0  0  0  0  0  0  0  0  0  0  # atno 17395 bound_to 11000

$$$$
