AV-unprocessed.smi:3032|AV-procd|sdf|11563|dock7
  -GOLD-   2272016533D 1   1.00000     0.00000
 Structure written by MMmdl.
 37 38  0  0  0  0  0  0  0  0  1 V2000
  153.7778  141.9857  160.7211 C   0  0  0  0  0  0  0  0  0  0  0  0
  152.9620  142.7352  159.6583 C   0  0  2  0  0  0  0  0  0  0  0  0
  152.2786  143.9834  160.2499 C   0  0  0  0  0  0  0  0  0  0  0  0
  151.4553  144.7322  159.1899 C   0  0  0  0  0  0  0  0  0  0  0  0
  150.4231  143.8051  158.5300 C   0  0  0  0  0  0  0  0  0  0  0  0
  151.1005  142.5610  157.9198 C   0  0  2  0  0  0  0  0  0  0  0  0
  150.0591  141.6379  157.2739 C   0  0  0  0  0  0  0  0  0  0  0  0
  149.9537  140.4663  157.6383 O   0  0  0  0  0  0  0  0  0  0  0  0
  149.2864  142.1834  156.3225 N   0  0  0  0  0  0  0  0  0  0  0  0
  148.1968  141.4999  155.6325 C   0  0  0  0  0  0  0  0  0  0  0  0
  148.6199  140.9217  154.2667 C   0  0  0  0  0  0  0  0  0  0  0  0
  149.7381  139.9315  154.3548 C   0  0  0  0  0  0  0  0  0  0  0  0
  149.5407  138.6440  154.0661 N   0  0  0  0  0  0  0  0  0  0  0  0
  150.7578  138.1104  154.3064 N   0  0  0  0  0  0  0  0  0  0  0  0
  151.5760  139.0767  154.7197 C   0  0  0  0  0  0  0  0  0  0  0  0
  150.9949  140.2671  154.7820 N   0  0  0  0  0  0  0  0  0  0  0  0
  151.9189  141.8141  158.9950 C   0  0  0  0  0  0  0  0  0  0  0  0
  153.1402  141.6246  161.5288 H   0  0  0  0  0  0  0  0  0  0  0  0
  154.5381  142.6320  161.1604 H   0  0  0  0  0  0  0  0  0  0  0  0
  154.2879  141.1244  160.2893 H   0  0  0  0  0  0  0  0  0  0  0  0
  153.6570  143.0669  158.8855 H   0  0  0  0  0  0  0  0  0  0  0  0
  151.6269  143.6909  161.0745 H   0  0  0  0  0  0  0  0  0  0  0  0
  153.0271  144.6549  160.6721 H   0  0  0  0  0  0  0  0  0  0  0  0
  150.9510  145.5846  159.6460 H   0  0  0  0  0  0  0  0  0  0  0  0
  152.1217  145.1388  158.4282 H   0  0  0  0  0  0  0  0  0  0  0  0
  149.6823  143.5050  159.2730 H   0  0  0  0  0  0  0  0  0  0  0  0
  149.8812  144.3543  157.7586 H   0  0  0  0  0  0  0  0  0  0  0  0
  151.7894  142.8969  157.1423 H   0  0  0  0  0  0  0  0  0  0  0  0
  149.4404  143.1526  156.0845 H   0  0  0  0  0  0  0  0  0  0  0  0
  147.8578  140.6899  156.2786 H   0  0  0  0  0  0  0  0  0  0  0  0
  147.3469  142.1734  155.5122 H   0  0  0  0  0  0  0  0  0  0  0  0
  147.7617  140.4476  153.7891 H   0  0  0  0  0  0  0  0  0  0  0  0
  148.9229  141.7313  153.6016 H   0  0  0  0  0  0  0  0  0  0  0  0
  152.6099  138.9073  154.9817 H   0  0  0  0  0  0  0  0  0  0  0  0
  152.4216  140.9565  158.5453 H   0  0  0  0  0  0  0  0  0  0  0  0
  151.2531  141.4128  159.7611 H   0  0  0  0  0  0  0  0  0  0  0  0
  150.9685  137.1303  154.1832 H   0  0  0  0  0  0  0  0  0  0  0  0
  1  2  1  0  0  0  0
  1 18  1  0  0  0  0
  1 19  1  0  0  0  0
  1 20  1  0  0  0  0
  2 17  1  0  0  0  0
  2  3  1  0  0  0  0
  2 21  1  0  0  0  0
  3  4  1  0  0  0  0
  3 22  1  0  0  0  0
  3 23  1  0  0  0  0
  4  5  1  0  0  0  0
  4 24  1  0  0  0  0
  4 25  1  0  0  0  0
  5  6  1  0  0  0  0
  5 26  1  0  0  0  0
  5 27  1  0  0  0  0
  6  7  1  0  0  0  0
  6 17  1  0  0  0  0
  6 28  1  0  0  0  0
  7  8  2  0  0  0  0
  7  9  1  0  0  0  0
  9 10  1  0  0  0  0
  9 29  1  0  0  0  0
 10 11  1  0  0  0  0
 10 30  1  0  0  0  0
 10 31  1  0  0  0  0
 11 32  1  0  0  0  0
 11 33  1  0  0  0  0
 11 12  1  0  0  0  0
 12 16  1  0  0  0  0
 12 13  2  0  0  0  0
 13 14  1  0  0  0  0
 14 15  1  0  0  0  0
 14 37  1  0  0  0  0
 15 16  2  0  0  0  0
 15 34  1  0  0  0  0
 17 35  1  0  0  0  0
 17 36  1  0  0  0  0
M  END
> <s_m_source_file>
AV-unprocessed.smi

> <i_m_source_file_index>
3032

> <i_lp_mmshare_version>
43012

> <i_f3d_flags>
0

> <s_epik_input>
W0NIM11bQ0BASF0xW0NIMl1bQ0gyXVtDSDJdW0NASF0oW0NIMl0xKUMoPU8pW05IXVtDSDJdW0NIMl1jMm5uW2NIXVtuSF0y

> <s_epik_cmdline>
J2VwaWtfcHl0aG9uJywgJy1waCcsICc3LjAnLCAnLXRuJywgJzgnLCAnLW1hJywgJzIwMCcsICctbWV0YWxfYmluZGluZycsICctaW1hZScsICc8aW5maWxlLm1hZT4nLCAnLW9tYWUnLCAnPG91dGZpbGUubWFlPic=

> <r_epik_Ionization_Penalty>
0.000752022

> <r_epik_Ionization_Penalty_Charging>
0

> <r_epik_Ionization_Penalty_Neutral>
0.000752022

> <r_epik_State_Penalty>
0.639926

> <r_epik_Charging_Adjusted_Penalty>
0.639926

> <i_epik_Tot_Q>
0

> <i_epik_Tot_abs_Q>
0

> <r_epik_Metal_State_Penalty>
0.76532

> <b_epik_Metal_Only>
0

> <s_lp_Force_Field>
OPLS_2005

> <r_lp_Energy>
8.90132

> <b_lp_Chiralities_Consistent>
1

> <s_lp_Variant>
AV-unprocessed.smi:3032-7

> <Gold.Version>
5.8.1

> <Gold.Id.Protein>
6NUR|6NUR_protein|mol2

> <Gold.PLP.Fitness>
43.3688

> <Gold.PLP.PLP>
-37.7812

> <Gold.PLP.part.hbond>
-2.0000

> <Gold.PLP.part.metal>
0.0000

> <Gold.PLP.part.buried>
-4.9691

> <Gold.PLP.part.nonpolar>
-31.3478

> <Gold.PLP.part.repulsive>
0.4544

> <Gold.PLP.ligand.clash>
0.0000

> <Gold.PLP.ligand.torsion>
0.2042

> <Gold.PLP.Chemscore.Hbond>
1.9920

> <Gold.PLP.Chemscore.CHOScore>
0.0000

> <Gold.PLP.Chemscore.Metal>
0.0000

> <Gold.Chemscore.Hbonds>
donor molecule, donor type, donor heavy atom, donor atom, acceptor molecule, acceptor atom, score
      L1  H     9    29       P1  8028  1.00
      P1  H  7989  7998       L1    16  0.90

> <Gold.PLP.Chemscore.Internal.Correction>
0.0199

> <Gold.Rescore>
     Score         DG    S(hbond)    S(metal)    S(lipo)     H(rot)  DE(clash)    DE(int)     intcor
     15.80     -16.48       1.94        0.00      87.78       2.25       0.10       0.58       ----

> <Gold.Chemscore.Fitness>
15.7962

> <Gold.Chemscore.DG>
-16.4782

> <Gold.Chemscore.ZeroCoef>
-5.4800

> <Gold.Chemscore.Hbond>
1.9425

> <Gold.Chemscore.Metal>
0.0000

> <Gold.Chemscore.Lipo>
87.7814

> <Gold.Chemscore.Internal_Hbond>
0.0000

> <Gold.Chemscore.DEClash>
0.1019

> <Gold.Chemscore.DEInternal>
0.5800

> <Gold.Chemscore.Rot>
2.2501

> <Gold.Chemscore.Internal.Correction>
   9.000000E+99

> <Gold.Chemscore.Hbonds>
donor molecule, donor type, donor heavy atom, donor atom, acceptor molecule, acceptor atom, score
      L1  H     9    29       P1  8028  0.96
      P1  H  7989  7998       L1    16  0.07

> <Gold.Chemscore.Hbond.Weighted>
-6.4881

> <Gold.Chemscore.Metal.Weighted>
-0.0000

> <Gold.Chemscore.Lipo.Weighted>
-10.2704

> <Gold.Chemscore.Internal_Hbond.Weighted>
0.0000

> <Gold.Chemscore.DEClash.Weighted>
0.1019

> <Gold.Chemscore.DEInternal.Weighted>
0.5800

> <Gold.Chemscore.Rot.Weighted>
5.7603

> <Gold.Chemscore.Internal.Correction.Weighted>
   9.000000E+99

> <Gold.Protein.RotatedTorsions>
[ 6907 6896 6895 6894 ] final  -95.88 input  -60.11 | X-H torsion
[ 7974 7965 7964 7962 ] final   53.86 input  175.53 | X-H torsion
[ 8008 7997 7996 7995 ] final  -51.92 input   59.86 | X-H torsion
[ 10167 10162 10161 10158 ] final  170.51 input  -65.29 | X-H torsion
[ 10718 10713 10712 10709 ] final -105.57 input   66.30 | X-H torsion
[ 10763 10752 10751 10750 ] final -127.67 input  -60.55 | X-H torsion
[ 11005 11000 10999 10996 ] final  -90.40 input  -57.11 | X-H torsion

> <Gold.Protein.ActiveResidues>
 VAL166  LYS551  ARG553  GLY616  TRP617  ASP618  TYR619  PRO620  LYS621  CYS622 
 ASP623  PHE694  ASN695  SER759  ASP760  ASP761  ALA762  ILE779  LEU786  VAL792 
 PHE793  MET794  SER795  GLU796  ALA797  LYS798  CYS799  TRP800  GLU811  SER814 

> <Gold.Protein.RotatedAtoms>
  150.6974  134.1589  159.4168 H   0  0  0  0  0  0  0  0  0  0  0  0  # atno 6907 bound_to 6896
  151.9570  135.0139  160.0554 H   0  0  0  0  0  0  0  0  0  0  0  0  # atno 6908 bound_to 6896
  152.1960  133.4772  159.5070 H   0  0  0  0  0  0  0  0  0  0  0  0  # atno 6909 bound_to 6896
  145.9668  139.4111  143.0214 H   0  0  0  0  0  0  0  0  0  0  0  0  # atno 7974 bound_to 7965
  154.4094  140.1236  156.4908 H   0  0  0  0  0  0  0  0  0  0  0  0  # atno 8008 bound_to 7997
  155.6992  140.3495  155.4906 H   0  0  0  0  0  0  0  0  0  0  0  0  # atno 8009 bound_to 7997
  155.9400  140.1085  157.1053 H   0  0  0  0  0  0  0  0  0  0  0  0  # atno 8010 bound_to 7997
  139.5020  144.3588  151.9846 H   0  0  0  0  0  0  0  0  0  0  0  0  # atno 10167 bound_to 10162
  156.0352  130.5570  150.7558 H   0  0  0  0  0  0  0  0  0  0  0  0  # atno 10718 bound_to 10713
  154.8753  135.3954  154.3631 H   0  0  0  0  0  0  0  0  0  0  0  0  # atno 10763 bound_to 10752
  153.4401  135.7026  153.6180 H   0  0  0  0  0  0  0  0  0  0  0  0  # atno 10764 bound_to 10752
  153.4764  135.3779  155.2388 H   0  0  0  0  0  0  0  0  0  0  0  0  # atno 10765 bound_to 10752
  141.1566  133.7690  156.9732 H   0  0  0  0  0  0  0  0  0  0  0  0  # atno 11005 bound_to 11000
  145.7962  140.9792  143.1023 LP  0  0  0  0  0  0  0  0  0  0  0  0  # atno 17320 bound_to 7965
  144.6827  139.9745  143.7482 LP  0  0  0  0  0  0  0  0  0  0  0  0  # atno 17321 bound_to 7965
  140.3025  144.3630  150.6056 LP  0  0  0  0  0  0  0  0  0  0  0  0  # atno 17342 bound_to 10162
  140.5862  143.2170  151.7337 LP  0  0  0  0  0  0  0  0  0  0  0  0  # atno 17343 bound_to 10162
  157.5091  131.0924  151.0221 LP  0  0  0  0  0  0  0  0  0  0  0  0  # atno 17370 bound_to 10713
  157.0581  130.5814  149.5381 LP  0  0  0  0  0  0  0  0  0  0  0  0  # atno 17371 bound_to 10713
  140.1115  134.9474  157.2072 LP  0  0  0  0  0  0  0  0  0  0  0  0  # atno 17394 bound_to 11000
  140.3188  134.2940  155.7251 LP  0  0  0  0  0  0  0  0  0  0  0  0  # atno 17395 bound_to 11000

$$$$
