AV-unprocessed.smi:1033|AV-procd|sdf|4510|dock4
  -GOLD-   22720 2513D 1   1.00000     0.00000
 Structure written by MMmdl.
 57 59  0  0  0  0  0  0  0  0  3 V2000
  153.5112  142.3514  161.4485 C   0  0  0  0  0  0  0  0  0  0  0  0
  152.8007  142.2023  160.1147 C   0  0  0  0  0  0  0  0  0  0  0  0
  153.0242  141.0396  159.3431 C   0  0  0  0  0  0  0  0  0  0  0  0
  152.3824  140.8622  158.0979 C   0  0  0  0  0  0  0  0  0  0  0  0
  152.4516  139.8199  157.1893 N   0  0  0  0  0  0  0  0  0  0  0  0
  151.6271  140.2401  156.2340 C   0  0  0  0  0  0  0  0  0  0  0  0
  151.0243  141.4303  156.4210 N   0  0  0  0  0  0  0  0  0  0  0  0
  150.0820  142.0905  155.5360 C   0  0  0  0  0  0  0  0  0  0  0  0
  149.1904  141.0831  154.7857 C   0  0  2  0  0  0  0  0  0  0  0  0
  149.7875  140.7685  153.5425 O   0  0  0  0  0  0  0  0  0  0  0  0
  147.7767  141.6415  154.5298 C   0  0  0  0  0  0  0  0  0  0  0  0
  147.2238  142.3609  155.7069 N   0  3  2  0  0  0  0  0  0  0  0  0
  147.3508  141.5758  156.9600 C   0  0  0  0  0  0  0  0  0  0  0  0
  146.8516  142.3759  158.1812 C   0  0  0  0  0  0  0  0  0  0  0  0
  145.4708  142.8937  157.9918 N   0  3  2  0  0  0  0  0  0  0  0  0
  144.3941  141.8819  158.1726 C   0  0  0  0  0  0  0  0  0  0  0  0
  144.7167  140.8765  159.2957 C   0  0  2  0  0  0  0  0  0  0  0  0
  143.5284  139.9586  159.6099 C   0  0  0  0  0  0  0  0  0  0  0  0
  145.0482  141.5866  160.4717 O   0  0  0  0  0  0  0  0  0  0  0  0
  145.3580  143.6624  156.7269 C   0  0  0  0  0  0  0  0  0  0  0  0
  145.8305  142.8401  155.5134 C   0  0  0  0  0  0  0  0  0  0  0  0
  151.5021  141.8872  157.6440 C   0  0  0  0  0  0  0  0  0  0  0  0
  151.2737  143.0501  158.4007 C   0  0  0  0  0  0  0  0  0  0  0  0
  151.9244  143.2121  159.6415 C   0  0  0  0  0  0  0  0  0  0  0  0
  151.6737  144.4723  160.4508 C   0  0  0  0  0  0  0  0  0  0  0  0
  154.1347  141.4839  161.6668 H   0  0  0  0  0  0  0  0  0  0  0  0
  152.7883  142.4549  162.2581 H   0  0  0  0  0  0  0  0  0  0  0  0
  154.1535  143.2323  161.4427 H   0  0  0  0  0  0  0  0  0  0  0  0
  153.6931  140.2715  159.7025 H   0  0  0  0  0  0  0  0  0  0  0  0
  151.4448  139.6446  155.3510 H   0  0  0  0  0  0  0  0  0  0  0  0
  149.4692  142.7618  156.1390 H   0  0  0  0  0  0  0  0  0  0  0  0
  150.6344  142.7170  154.8339 H   0  0  0  0  0  0  0  0  0  0  0  0
  149.1349  140.1691  155.3756 H   0  0  0  0  0  0  0  0  0  0  0  0
  149.2231  140.1653  153.0814 H   0  0  0  0  0  0  0  0  0  0  0  0
  147.7791  142.3102  153.6678 H   0  0  0  0  0  0  0  0  0  0  0  0
  147.1210  140.8094  154.2674 H   0  0  0  0  0  0  0  0  0  0  0  0
  146.7990  140.6400  156.8608 H   0  0  0  0  0  0  0  0  0  0  0  0
  148.3959  141.3052  157.1165 H   0  0  0  0  0  0  0  0  0  0  0  0
  146.9239  141.7720  159.0849 H   0  0  0  0  0  0  0  0  0  0  0  0
  147.5108  143.2304  158.3403 H   0  0  0  0  0  0  0  0  0  0  0  0
  143.4564  142.3823  158.4200 H   0  0  0  0  0  0  0  0  0  0  0  0
  144.2138  141.3575  157.2340 H   0  0  0  0  0  0  0  0  0  0  0  0
  145.5678  140.2534  159.0227 H   0  0  0  0  0  0  0  0  0  0  0  0
  143.2445  139.3729  158.7350 H   0  0  0  0  0  0  0  0  0  0  0  0
  142.6543  140.5296  159.9255 H   0  0  0  0  0  0  0  0  0  0  0  0
  143.7739  139.2569  160.4080 H   0  0  0  0  0  0  0  0  0  0  0  0
  144.2612  141.9695  160.8295 H   0  0  0  0  0  0  0  0  0  0  0  0
  144.3351  144.0119  156.5819 H   0  0  0  0  0  0  0  0  0  0  0  0
  145.9724  144.5596  156.8159 H   0  0  0  0  0  0  0  0  0  0  0  0
  145.7608  143.4629  154.6226 H   0  0  0  0  0  0  0  0  0  0  0  0
  145.1684  141.9880  155.3515 H   0  0  0  0  0  0  0  0  0  0  0  0
  150.6044  143.8115  158.0288 H   0  0  0  0  0  0  0  0  0  0  0  0
  150.9712  145.1365  159.9463 H   0  0  0  0  0  0  0  0  0  0  0  0
  152.6040  145.0209  160.6003 H   0  0  0  0  0  0  0  0  0  0  0  0
  151.2566  144.2244  161.4269 H   0  0  0  0  0  0  0  0  0  0  0  0
  145.3133  143.5639  158.7320 H   0  0  0  0  0  0  0  0  0  0  0  0
  147.8046  143.1794  155.8267 H   0  0  0  0  0  0  0  0  0  0  0  0
  1  2  1  0  0  0  0
  1 26  1  0  0  0  0
  1 27  1  0  0  0  0
  1 28  1  0  0  0  0
  2 24  1  0  0  0  0
  2  3  2  0  0  0  0
  3  4  1  0  0  0  0
  3 29  1  0  0  0  0
  4 22  2  0  0  0  0
  4  5  1  0  0  0  0
  5  6  2  0  0  0  0
  6  7  1  0  0  0  0
  6 30  1  0  0  0  0
  7  8  1  0  0  0  0
  7 22  1  0  0  0  0
  8  9  1  0  0  0  0
  8 31  1  0  0  0  0
  8 32  1  0  0  0  0
  9 10  1  0  0  0  0
  9 11  1  0  0  0  0
  9 33  1  0  0  0  0
 10 34  1  0  0  0  0
 11 12  1  0  0  0  0
 11 35  1  0  0  0  0
 11 36  1  0  0  0  0
 12 21  1  0  0  0  0
 12 13  1  0  0  0  0
 12 57  1  0  0  0  0
 13 14  1  0  0  0  0
 13 37  1  0  0  0  0
 13 38  1  0  0  0  0
 14 15  1  0  0  0  0
 14 39  1  0  0  0  0
 14 40  1  0  0  0  0
 15 16  1  0  0  0  0
 15 20  1  0  0  0  0
 15 56  1  0  0  0  0
 16 17  1  0  0  0  0
 16 41  1  0  0  0  0
 16 42  1  0  0  0  0
 17 18  1  0  0  0  0
 17 19  1  0  0  0  0
 17 43  1  0  0  0  0
 18 44  1  0  0  0  0
 18 45  1  0  0  0  0
 18 46  1  0  0  0  0
 19 47  1  0  0  0  0
 20 21  1  0  0  0  0
 20 48  1  0  0  0  0
 20 49  1  0  0  0  0
 21 50  1  0  0  0  0
 21 51  1  0  0  0  0
 22 23  1  0  0  0  0
 23 24  2  0  0  0  0
 23 52  1  0  0  0  0
 24 25  1  0  0  0  0
 25 53  1  0  0  0  0
 25 54  1  0  0  0  0
 25 55  1  0  0  0  0
M  CHG  1  12   1
M  CHG  1  15   1
M  END
> <s_m_source_file>
AV-unprocessed.smi

> <i_m_source_file_index>
1033

> <i_lp_mmshare_version>
43012

> <i_f3d_flags>
0

> <s_epik_input>
W0NIM11jKFtjSF0xKWMoW0NIM10pW2NIXWMoYzEyKW4oW2NIXW4yKVtDSDJdW0NASF0oW09IXSlbQ0gyXU4zW0NIMl1bQ0gyXU4oW0NIMl1bQ0gyXTMpW0NIMl1bQ0BIXShbQ0gzXSlbT0hd

> <s_epik_cmdline>
J2VwaWtfcHl0aG9uJywgJy1waCcsICc3LjAnLCAnLXRuJywgJzgnLCAnLW1hJywgJzIwMCcsICctbWV0YWxfYmluZGluZycsICctaW1hZScsICc8aW5maWxlLm1hZT4nLCAnLW9tYWUnLCAnPG91dGZpbGUubWFlPic=

> <r_epik_Ionization_Penalty>
3.16016

> <r_epik_Ionization_Penalty_Charging>
3.07679

> <r_epik_Ionization_Penalty_Neutral>
0.083365

> <r_epik_State_Penalty>
2.09701

> <r_epik_Charging_Adjusted_Penalty>
5.1738

> <i_epik_Tot_Q>
2

> <i_epik_Tot_abs_Q>
2

> <r_epik_Metal_State_Penalty>
2.02534

> <b_epik_Metal_Only>
0

> <s_lp_Force_Field>
OPLS_2005

> <r_lp_Energy>
28.3009

> <b_lp_Chiralities_Consistent>
1

> <s_lp_Variant>
AV-unprocessed.smi:1033-21

> <Gold.Version>
5.8.1

> <Gold.Id.Protein>
6NUR|6NUR_protein|mol2

> <Gold.PLP.Fitness>
60.9399

> <Gold.PLP.PLP>
-46.3249

> <Gold.PLP.part.hbond>
-5.5780

> <Gold.PLP.part.metal>
0.0000

> <Gold.PLP.part.buried>
-4.1978

> <Gold.PLP.part.nonpolar>
-35.5875

> <Gold.PLP.part.repulsive>
0.0660

> <Gold.PLP.ligand.clash>
0.0000

> <Gold.PLP.ligand.torsion>
1.1677

> <Gold.PLP.Chemscore.Hbond>
5.5840

> <Gold.PLP.Chemscore.CHOScore>
0.0000

> <Gold.PLP.Chemscore.Metal>
0.0000

> <Gold.Chemscore.Hbonds>
donor molecule, donor type, donor heavy atom, donor atom, acceptor molecule, acceptor atom, score
      L1  H    10    34       P1  7957  0.27
      L1  H    12    57       P1  8028  2.00
      P1  H  6934  6946       L1    19  0.86
      P1  H  7989  7998       L1    10  0.38
      P1  H  7997  8009       L1     5  0.95
      P1  H  8011  8017       L1    10  0.98

> <Gold.PLP.Chemscore.Internal.Correction>
0.1985

> <Gold.Rescore>
     Score         DG    S(hbond)    S(metal)    S(lipo)     H(rot)  DE(clash)    DE(int)     intcor
     14.69     -16.58       1.85        0.00     110.81       3.14       0.81       1.08       ----

> <Gold.Chemscore.Fitness>
14.6934

> <Gold.Chemscore.DG>
-16.5822

> <Gold.Chemscore.ZeroCoef>
-5.4800

> <Gold.Chemscore.Hbond>
1.8475

> <Gold.Chemscore.Metal>
0.0000

> <Gold.Chemscore.Lipo>
110.8104

> <Gold.Chemscore.Internal_Hbond>
0.0000

> <Gold.Chemscore.DEClash>
0.8078

> <Gold.Chemscore.DEInternal>
1.0810

> <Gold.Chemscore.Rot>
3.1380

> <Gold.Chemscore.Internal.Correction>
   9.000000E+99

> <Gold.Chemscore.Hbonds>
donor molecule, donor type, donor heavy atom, donor atom, acceptor molecule, acceptor atom, score
      L1  H    10    34       P1  7957  0.26
      L1  H    12    57       P1  8028  0.35
      P1  H  6934  6946       L1    19  0.16
      P1  H  7989  7998       L1    10  0.36
      P1  H  7997  8009       L1     5  0.12
      P1  H  8011  8017       L1    10  0.28

> <Gold.Chemscore.Hbond.Weighted>
-6.1705

> <Gold.Chemscore.Metal.Weighted>
-0.0000

> <Gold.Chemscore.Lipo.Weighted>
-12.9648

> <Gold.Chemscore.Internal_Hbond.Weighted>
0.0000

> <Gold.Chemscore.DEClash.Weighted>
0.8078

> <Gold.Chemscore.DEInternal.Weighted>
1.0810

> <Gold.Chemscore.Rot.Weighted>
8.0332

> <Gold.Chemscore.Internal.Correction.Weighted>
   9.000000E+99

> <Gold.Protein.RotatedTorsions>
[ 6907 6896 6895 6894 ] final   50.54 input  -60.11 | X-H torsion
[ 7974 7965 7964 7962 ] final  -88.87 input  175.53 | X-H torsion
[ 8008 7997 7996 7995 ] final -171.53 input   59.86 | X-H torsion
[ 10167 10162 10161 10158 ] final  -60.96 input  -65.29 | X-H torsion
[ 10718 10713 10712 10709 ] final -164.16 input   66.30 | X-H torsion
[ 10763 10752 10751 10750 ] final  148.14 input  -60.55 | X-H torsion
[ 11005 11000 10999 10996 ] final   32.59 input  -57.11 | X-H torsion

> <Gold.Protein.ActiveResidues>
 VAL166  LYS551  ARG553  GLY616  TRP617  ASP618  TYR619  PRO620  LYS621  CYS622 
 ASP623  PHE694  ASN695  SER759  ASP760  ASP761  ALA762  ILE779  LEU786  VAL792 
 PHE793  MET794  SER795  GLU796  ALA797  LYS798  CYS799  TRP800  GLU811  SER814 

> <Gold.Protein.RotatedAtoms>
  152.3029  134.7590  160.0353 H   0  0  0  0  0  0  0  0  0  0  0  0  # atno 6907 bound_to 6896
  151.8097  133.3375  159.3560 H   0  0  0  0  0  0  0  0  0  0  0  0  # atno 6908 bound_to 6896
  150.7282  134.5605  159.5884 H   0  0  0  0  0  0  0  0  0  0  0  0  # atno 6909 bound_to 6896
  145.4473  140.9560  143.2041 H   0  0  0  0  0  0  0  0  0  0  0  0  # atno 7974 bound_to 7965
  155.9327  140.1094  157.1119 H   0  0  0  0  0  0  0  0  0  0  0  0  # atno 8008 bound_to 7997
  154.4074  140.1234  156.4889 H   0  0  0  0  0  0  0  0  0  0  0  0  # atno 8009 bound_to 7997
  155.7060  140.3471  155.4955 H   0  0  0  0  0  0  0  0  0  0  0  0  # atno 8010 bound_to 7997
  140.6037  143.2368  151.5869 H   0  0  0  0  0  0  0  0  0  0  0  0  # atno 10167 bound_to 10162
  156.6350  130.8945  151.2985 H   0  0  0  0  0  0  0  0  0  0  0  0  # atno 10718 bound_to 10713
  154.0498  135.2882  155.3342 H   0  0  0  0  0  0  0  0  0  0  0  0  # atno 10763 bound_to 10752
  154.6876  135.5239  153.8351 H   0  0  0  0  0  0  0  0  0  0  0  0  # atno 10764 bound_to 10752
  153.0565  135.6597  154.0695 H   0  0  0  0  0  0  0  0  0  0  0  0  # atno 10765 bound_to 10752
  140.2719  134.3072  155.7825 H   0  0  0  0  0  0  0  0  0  0  0  0  # atno 11005 bound_to 11000
  144.8083  139.6009  143.7041 LP  0  0  0  0  0  0  0  0  0  0  0  0  # atno 17320 bound_to 7965
  146.2523  139.6227  142.9418 LP  0  0  0  0  0  0  0  0  0  0  0  0  # atno 17321 bound_to 7965
  139.5309  144.2918  152.1146 LP  0  0  0  0  0  0  0  0  0  0  0  0  # atno 17342 bound_to 10162
  140.2103  144.4569  150.6389 LP  0  0  0  0  0  0  0  0  0  0  0  0  # atno 17343 bound_to 10162
  157.7188  130.9532  150.1358 LP  0  0  0  0  0  0  0  0  0  0  0  0  # atno 17370 bound_to 10713
  156.2204  130.3673  149.8563 LP  0  0  0  0  0  0  0  0  0  0  0  0  # atno 17371 bound_to 10713
  141.2176  133.7472  156.9348 LP  0  0  0  0  0  0  0  0  0  0  0  0  # atno 17394 bound_to 11000
  140.1365  134.9322  157.2409 LP  0  0  0  0  0  0  0  0  0  0  0  0  # atno 17395 bound_to 11000

$$$$
