AV-unprocessed.smi:2113|AV-procd|sdf|8615|dock2
  -GOLD-   2272011353D 1   1.00000     0.00000
 Structure written by MMmdl.
 44 45  0  0  0  0  0  0  0  0  1 V2000
  143.8428  145.0072  156.5197 C   0  0  0  0  0  0  0  0  0  0  0  0
  143.2781  143.8986  155.6294 C   0  0  0  0  0  0  0  0  0  0  0  0
  144.1996  142.8140  155.6075 O   0  0  0  0  0  0  0  0  0  0  0  0
  145.5061  143.1238  155.1262 C   0  0  2  0  0  0  0  0  0  0  0  0
  145.3475  143.7882  153.7508 C   0  0  0  0  0  0  0  0  0  0  0  0
  146.3588  141.8483  155.0372 C   0  0  0  0  0  0  0  0  0  0  0  0
  145.8236  140.7397  155.0659 O   0  0  0  0  0  0  0  0  0  0  0  0
  147.6876  142.0221  154.9638 N   0  0  0  0  0  0  0  0  0  0  0  0
  148.6686  140.9430  154.9842 C   0  0  0  0  0  0  0  0  0  0  0  0
  149.6966  141.0969  156.0935 C   0  0  0  0  0  0  0  0  0  0  0  0
  151.0536  140.7794  155.8839 C   0  0  0  0  0  0  0  0  0  0  0  0
  151.9686  140.9613  156.9377 C   0  0  0  0  0  0  0  0  0  0  0  0
  151.5021  141.4554  158.1793 C   0  0  0  0  0  0  0  0  0  0  0  0
  152.4058  141.6631  159.2441 N   0  0  0  0  0  0  0  0  0  0  0  0
  153.1775  140.5164  159.7201 C   0  0  0  0  0  0  0  0  0  0  0  0
  154.2892  140.9779  160.6773 C   0  0  0  0  0  0  0  0  0  0  0  0
  153.7216  141.7346  161.7411 O   0  0  0  0  0  0  0  0  0  0  0  0
  153.0687  142.9069  161.2656 C   0  0  0  0  0  0  0  0  0  0  0  0
  151.9163  142.5177  160.3236 C   0  0  0  0  0  0  0  0  0  0  0  0
  150.1914  141.7400  158.3821 N   0  0  0  0  0  0  0  0  0  0  0  0
  149.3185  141.5659  157.3674 C   0  0  0  0  0  0  0  0  0  0  0  0
  143.1602  145.8559  156.5647 H   0  0  0  0  0  0  0  0  0  0  0  0
  144.7983  145.3663  156.1365 H   0  0  0  0  0  0  0  0  0  0  0  0
  144.0015  144.6503  157.5375 H   0  0  0  0  0  0  0  0  0  0  0  0
  142.3149  143.5655  156.0183 H   0  0  0  0  0  0  0  0  0  0  0  0
  143.1112  144.2936  154.6274 H   0  0  0  0  0  0  0  0  0  0  0  0
  145.9793  143.8396  155.8012 H   0  0  0  0  0  0  0  0  0  0  0  0
  146.3161  144.0425  153.3189 H   0  0  0  0  0  0  0  0  0  0  0  0
  144.7715  144.7102  153.8321 H   0  0  0  0  0  0  0  0  0  0  0  0
  144.8267  143.1371  153.0474 H   0  0  0  0  0  0  0  0  0  0  0  0
  148.0442  142.9665  154.9420 H   0  0  0  0  0  0  0  0  0  0  0  0
  148.1624  139.9797  155.0663 H   0  0  0  0  0  0  0  0  0  0  0  0
  149.1919  140.9371  154.0279 H   0  0  0  0  0  0  0  0  0  0  0  0
  151.3934  140.4055  154.9291 H   0  0  0  0  0  0  0  0  0  0  0  0
  153.0080  140.7122  156.7852 H   0  0  0  0  0  0  0  0  0  0  0  0
  152.5119  139.8191  160.2309 H   0  0  0  0  0  0  0  0  0  0  0  0
  153.6233  139.9854  158.8781 H   0  0  0  0  0  0  0  0  0  0  0  0
  154.8090  140.1149  161.0930 H   0  0  0  0  0  0  0  0  0  0  0  0
  155.0344  141.5747  160.1488 H   0  0  0  0  0  0  0  0  0  0  0  0
  152.6827  143.4674  162.1169 H   0  0  0  0  0  0  0  0  0  0  0  0
  153.7847  143.5540  160.7567 H   0  0  0  0  0  0  0  0  0  0  0  0
  151.4508  143.4252  159.9421 H   0  0  0  0  0  0  0  0  0  0  0  0
  151.1483  141.9770  160.8786 H   0  0  0  0  0  0  0  0  0  0  0  0
  148.2896  141.8179  157.5789 H   0  0  0  0  0  0  0  0  0  0  0  0
  1  2  1  0  0  0  0
  1 22  1  0  0  0  0
  1 23  1  0  0  0  0
  1 24  1  0  0  0  0
  2  3  1  0  0  0  0
  2 25  1  0  0  0  0
  2 26  1  0  0  0  0
  3  4  1  0  0  0  0
  4  5  1  0  0  0  0
  4  6  1  0  0  0  0
  4 27  1  0  0  0  0
  5 28  1  0  0  0  0
  5 29  1  0  0  0  0
  5 30  1  0  0  0  0
  6  7  2  0  0  0  0
  6  8  1  0  0  0  0
  8  9  1  0  0  0  0
  8 31  1  0  0  0  0
  9 10  1  0  0  0  0
  9 32  1  0  0  0  0
  9 33  1  0  0  0  0
 10 21  1  0  0  0  0
 10 11  2  0  0  0  0
 11 12  1  0  0  0  0
 11 34  1  0  0  0  0
 12 13  2  0  0  0  0
 12 35  1  0  0  0  0
 13 14  1  0  0  0  0
 13 20  1  0  0  0  0
 14 19  1  0  0  0  0
 14 15  1  0  0  0  0
 15 16  1  0  0  0  0
 15 36  1  0  0  0  0
 15 37  1  0  0  0  0
 16 17  1  0  0  0  0
 16 38  1  0  0  0  0
 16 39  1  0  0  0  0
 17 18  1  0  0  0  0
 18 19  1  0  0  0  0
 18 40  1  0  0  0  0
 18 41  1  0  0  0  0
 19 42  1  0  0  0  0
 19 43  1  0  0  0  0
 20 21  2  0  0  0  0
 21 44  1  0  0  0  0
M  END
> <s_m_source_file>
AV-unprocessed.smi

> <i_m_source_file_index>
2113

> <i_lp_mmshare_version>
43012

> <i_f3d_flags>
0

> <s_epik_input>
W0NIM11bQ0gyXU9bQ0BIXShbQ0gzXSlDKD1PKVtOSF1bQ0gyXWMxW2NIXVtjSF1jKG5bY0hdMSlOMltDSDJdW0NIMl1PW0NIMl1bQ0gyXTI=

> <s_epik_cmdline>
J2VwaWtfcHl0aG9uJywgJy1waCcsICc3LjAnLCAnLXRuJywgJzgnLCAnLW1hJywgJzIwMCcsICctbWV0YWxfYmluZGluZycsICctaW1hZScsICc8aW5maWxlLm1hZT4nLCAnLW9tYWUnLCAnPG91dGZpbGUubWFlPic=

> <r_lp_tautomer_probability>
1

> <r_epik_Ionization_Penalty>
0.00454344

> <r_epik_Ionization_Penalty_Charging>
0

> <r_epik_Ionization_Penalty_Neutral>
0.00454344

> <r_epik_State_Penalty>
0.00328127

> <r_epik_Charging_Adjusted_Penalty>
0.00328127

> <i_epik_Tot_Q>
0

> <i_epik_Tot_abs_Q>
0

> <r_epik_Metal_State_Penalty>
-0

> <b_epik_Metal_Only>
0

> <s_lp_Force_Field>
OPLS_2005

> <r_lp_Energy>
17.3889

> <b_lp_Chiralities_Consistent>
1

> <s_lp_Variant>
AV-unprocessed.smi:2113-1

> <Gold.Version>
5.8.1

> <Gold.Id.Protein>
6NUR|6NUR_protein|mol2

> <Gold.PLP.Fitness>
36.7785

> <Gold.PLP.PLP>
-35.3867

> <Gold.PLP.part.hbond>
-1.0000

> <Gold.PLP.part.metal>
0.0000

> <Gold.PLP.part.buried>
-7.6647

> <Gold.PLP.part.nonpolar>
-27.6896

> <Gold.PLP.part.repulsive>
0.4416

> <Gold.PLP.ligand.clash>
0.0000

> <Gold.PLP.ligand.torsion>
1.0174

> <Gold.PLP.Chemscore.Hbond>
1.0000

> <Gold.PLP.Chemscore.CHOScore>
0.0000

> <Gold.PLP.Chemscore.Metal>
0.0000

> <Gold.Chemscore.Hbonds>
donor molecule, donor type, donor heavy atom, donor atom, acceptor molecule, acceptor atom, score
      L1  H     8    31       P1  8028  0.98

> <Gold.PLP.Chemscore.Internal.Correction>
0.4266

> <Gold.Rescore>
     Score         DG    S(hbond)    S(metal)    S(lipo)     H(rot)  DE(clash)    DE(int)     intcor
     12.95     -14.19       0.98        0.00      87.87       1.90       0.11       1.13       ----

> <Gold.Chemscore.Fitness>
12.9520

> <Gold.Chemscore.DG>
-14.1863

> <Gold.Chemscore.ZeroCoef>
-5.4800

> <Gold.Chemscore.Hbond>
0.9813

> <Gold.Chemscore.Metal>
0.0000

> <Gold.Chemscore.Lipo>
87.8662

> <Gold.Chemscore.Internal_Hbond>
0.0000

> <Gold.Chemscore.DEClash>
0.1054

> <Gold.Chemscore.DEInternal>
1.1290

> <Gold.Chemscore.Rot>
1.8952

> <Gold.Chemscore.Internal.Correction>
   9.000000E+99

> <Gold.Chemscore.Hbonds>
donor molecule, donor type, donor heavy atom, donor atom, acceptor molecule, acceptor atom, score
      L1  H     8    31       P1  8028  0.86

> <Gold.Chemscore.Hbond.Weighted>
-3.2776

> <Gold.Chemscore.Metal.Weighted>
-0.0000

> <Gold.Chemscore.Lipo.Weighted>
-10.2803

> <Gold.Chemscore.Internal_Hbond.Weighted>
0.0000

> <Gold.Chemscore.DEClash.Weighted>
0.1054

> <Gold.Chemscore.DEInternal.Weighted>
1.1290

> <Gold.Chemscore.Rot.Weighted>
4.8516

> <Gold.Chemscore.Internal.Correction.Weighted>
   9.000000E+99

> <Gold.Protein.RotatedTorsions>
[ 6907 6896 6895 6894 ] final  -86.00 input  -60.11 | X-H torsion
[ 7974 7965 7964 7962 ] final   17.12 input  175.53 | X-H torsion
[ 8008 7997 7996 7995 ] final    2.67 input   59.86 | X-H torsion
[ 10167 10162 10161 10158 ] final   77.54 input  -65.29 | X-H torsion
[ 10718 10713 10712 10709 ] final  152.70 input   66.30 | X-H torsion
[ 10763 10752 10751 10750 ] final   60.02 input  -60.55 | X-H torsion
[ 11005 11000 10999 10996 ] final   39.75 input  -57.11 | X-H torsion

> <Gold.Protein.ActiveResidues>
 VAL166  LYS551  ARG553  GLY616  TRP617  ASP618  TYR619  PRO620  LYS621  CYS622 
 ASP623  PHE694  ASN695  SER759  ASP760  ASP761  ALA762  ILE779  LEU786  VAL792 
 PHE793  MET794  SER795  GLU796  ALA797  LYS798  CYS799  TRP800  GLU811  SER814 

> <Gold.Protein.RotatedAtoms>
  150.6868  134.3118  159.4749 H   0  0  0  0  0  0  0  0  0  0  0  0  # atno 6907 bound_to 6896
  152.1003  134.9343  160.0579 H   0  0  0  0  0  0  0  0  0  0  0  0  # atno 6908 bound_to 6896
  152.0625  133.4034  159.4461 H   0  0  0  0  0  0  0  0  0  0  0  0  # atno 6909 bound_to 6896
  146.2228  139.8649  142.8598 H   0  0  0  0  0  0  0  0  0  0  0  0  # atno 7974 bound_to 7965
  154.6943  140.2660  155.6781 H   0  0  0  0  0  0  0  0  0  0  0  0  # atno 8008 bound_to 7997
  156.2743  140.2785  156.1456 H   0  0  0  0  0  0  0  0  0  0  0  0  # atno 8009 bound_to 7997
  155.0852  140.0373  157.2642 H   0  0  0  0  0  0  0  0  0  0  0  0  # atno 8010 bound_to 7997
  139.9804  144.5830  150.7905 H   0  0  0  0  0  0  0  0  0  0  0  0  # atno 10167 bound_to 10162
  157.2543  131.0785  151.1709 H   0  0  0  0  0  0  0  0  0  0  0  0  # atno 10718 bound_to 10713
  152.9909  135.5551  154.5806 H   0  0  0  0  0  0  0  0  0  0  0  0  # atno 10763 bound_to 10752
  154.5188  135.2806  155.1282 H   0  0  0  0  0  0  0  0  0  0  0  0  # atno 10764 bound_to 10752
  154.2644  135.6375  153.5339 H   0  0  0  0  0  0  0  0  0  0  0  0  # atno 10765 bound_to 10752
  140.1998  134.3885  155.8102 H   0  0  0  0  0  0  0  0  0  0  0  0  # atno 11005 bound_to 11000
  145.2667  141.0095  143.3795 LP  0  0  0  0  0  0  0  0  0  0  0  0  # atno 17320 bound_to 7965
  144.9256  139.4359  143.6520 LP  0  0  0  0  0  0  0  0  0  0  0  0  # atno 17321 bound_to 7965
  140.7491  143.2933  151.3273 LP  0  0  0  0  0  0  0  0  0  0  0  0  # atno 17342 bound_to 10162
  139.6414  144.0533  152.2557 LP  0  0  0  0  0  0  0  0  0  0  0  0  # atno 17343 bound_to 10162
  157.3244  130.6953  149.6288 LP  0  0  0  0  0  0  0  0  0  0  0  0  # atno 17370 bound_to 10713
  155.9665  130.4326  150.4969 LP  0  0  0  0  0  0  0  0  0  0  0  0  # atno 17371 bound_to 10713
  141.2227  133.7088  156.8238 LP  0  0  0  0  0  0  0  0  0  0  0  0  # atno 17394 bound_to 11000
  140.2067  134.8857  157.3229 LP  0  0  0  0  0  0  0  0  0  0  0  0  # atno 17395 bound_to 11000

$$$$
