AV-unprocessed.smi:1997|AV-procd|sdf|8089|dock6
  -GOLD-   2272010303D 1   1.00000     0.00000
 Structure written by MMmdl.
 36 38  0  0  0  0  0  0  0  0  2 V2000
  151.1700  138.0787  156.8362 O   0  0  0  0  0  0  0  0  0  0  0  0
  151.6978  139.1891  156.7376 C   0  0  0  0  0  0  0  0  0  0  0  0
  152.8860  139.5610  157.2660 N   0  5  0  0  0  0  0  0  0  0  0  0
  153.3384  138.9677  158.3830 C   0  0  0  0  0  0  0  0  0  0  0  0
  154.4644  139.3559  158.9980 N   0  0  0  0  0  0  0  0  0  0  0  0
  154.7486  138.6123  160.1341 N   0  0  0  0  0  0  0  0  0  0  0  0
  153.8275  137.6740  160.3652 C   0  0  0  0  0  0  0  0  0  0  0  0
  153.9096  136.7408  161.5265 C   0  0  0  0  0  0  0  0  0  0  0  0
  154.9834  136.9061  162.5773 C   0  0  0  0  0  0  0  0  0  0  0  0
  155.0232  135.7230  161.6445 C   0  0  0  0  0  0  0  0  0  0  0  0
  152.5168  137.6365  159.1964 S   0  0  0  0  0  0  0  0  0  0  0  0
  151.0797  140.1660  156.0561 N   0  0  0  0  0  0  0  0  0  0  0  0
  149.7818  140.0649  155.3829 C   0  0  1  0  0  0  0  0  0  0  0  0
  149.4035  141.4782  154.8832 C   0  0  0  0  0  0  0  0  0  0  0  0
  147.8945  141.6724  154.6528 C   0  0  0  0  0  0  0  0  0  0  0  0
  147.2913  140.8092  153.5342 C   0  0  0  0  0  0  0  0  0  0  0  0
  147.3907  139.2970  153.7975 C   0  0  0  0  0  0  0  0  0  0  0  0
  148.7267  138.7820  153.5288 N   0  0  0  0  0  0  0  0  0  0  0  0
  149.8584  139.1026  154.1745 C   0  0  0  0  0  0  0  0  0  0  0  0
  150.9365  138.6400  153.8022 O   0  0  0  0  0  0  0  0  0  0  0  0
  152.9147  136.4466  161.8545 H   0  0  0  0  0  0  0  0  0  0  0  0
  155.7220  137.6907  162.4251 H   0  0  0  0  0  0  0  0  0  0  0  0
  154.7042  136.7217  163.6127 H   0  0  0  0  0  0  0  0  0  0  0  0
  154.7698  134.7488  162.0570 H   0  0  0  0  0  0  0  0  0  0  0  0
  155.7997  135.7182  160.8824 H   0  0  0  0  0  0  0  0  0  0  0  0
  151.5543  141.0546  155.9937 H   0  0  0  0  0  0  0  0  0  0  0  0
  149.0384  139.7101  156.0987 H   0  0  0  0  0  0  0  0  0  0  0  0
  149.7075  142.2117  155.6317 H   0  0  0  0  0  0  0  0  0  0  0  0
  149.9604  141.7361  153.9806 H   0  0  0  0  0  0  0  0  0  0  0  0
  147.3601  141.4828  155.5846 H   0  0  0  0  0  0  0  0  0  0  0  0
  147.7124  142.7209  154.4158 H   0  0  0  0  0  0  0  0  0  0  0  0
  146.2379  141.0730  153.4350 H   0  0  0  0  0  0  0  0  0  0  0  0
  147.7525  141.0561  152.5770 H   0  0  0  0  0  0  0  0  0  0  0  0
  147.0814  139.0502  154.8142 H   0  0  0  0  0  0  0  0  0  0  0  0
  146.7050  138.7716  153.1325 H   0  0  0  0  0  0  0  0  0  0  0  0
  148.8101  138.1408  152.7534 H   0  0  0  0  0  0  0  0  0  0  0  0
  1  2  2  0  0  0  0
  2  3  1  0  0  0  0
  2 12  1  0  0  0  0
  3  4  1  0  0  0  0
  4 11  1  0  0  0  0
  4  5  2  0  0  0  0
  5  6  1  0  0  0  0
  6  7  2  0  0  0  0
  7  8  1  0  0  0  0
  7 11  1  0  0  0  0
  8 10  1  0  0  0  0
  8  9  1  0  0  0  0
  8 21  1  0  0  0  0
  9 10  1  0  0  0  0
  9 22  1  0  0  0  0
  9 23  1  0  0  0  0
 10 24  1  0  0  0  0
 10 25  1  0  0  0  0
 12 13  1  0  0  0  0
 12 26  1  0  0  0  0
 13 19  1  0  0  0  0
 13 14  1  0  0  0  0
 13 27  1  0  0  0  0
 14 15  1  0  0  0  0
 14 28  1  0  0  0  0
 14 29  1  0  0  0  0
 15 16  1  0  0  0  0
 15 30  1  0  0  0  0
 15 31  1  0  0  0  0
 16 17  1  0  0  0  0
 16 32  1  0  0  0  0
 16 33  1  0  0  0  0
 17 18  1  0  0  0  0
 17 34  1  0  0  0  0
 17 35  1  0  0  0  0
 18 19  1  0  0  0  0
 18 36  1  0  0  0  0
 19 20  2  0  0  0  0
M  CHG  1   3  -1
M  END
> <s_m_source_file>
AV-unprocessed.smi

> <i_m_source_file_index>
1997

> <i_lp_mmshare_version>
43012

> <i_f3d_flags>
0

> <s_epik_input>
W0NIMl0xW0NIMl1bQ0hdMWMoczIpbm5jMltOSF1DKD1PKVtOSF1bQ0BASF0zW0NIMl1bQ0gyXVtDSDJdW0NIMl1bTkhdQzM9Tw==

> <s_epik_cmdline>
J2VwaWtfcHl0aG9uJywgJy1waCcsICc3LjAnLCAnLXRuJywgJzgnLCAnLW1hJywgJzIwMCcsICctbWV0YWxfYmluZGluZycsICctaW1hZScsICc8aW5maWxlLm1hZT4nLCAnLW9tYWUnLCAnPG91dGZpbGUubWFlPic=

> <r_lp_tautomer_probability>
1

> <r_epik_Ionization_Penalty>
4.47229

> <r_epik_Ionization_Penalty_Charging>
4.32584

> <r_epik_Ionization_Penalty_Neutral>
0.146443

> <r_epik_State_Penalty>
4.32544

> <r_epik_Charging_Adjusted_Penalty>
8.65129

> <i_epik_Tot_Q>
-1

> <i_epik_Tot_abs_Q>
1

> <r_epik_Metal_State_Penalty>
0.738743

> <b_epik_Metal_Only>
1

> <s_lp_Force_Field>
OPLS_2005

> <r_lp_Energy>
7.41149

> <b_lp_Chiralities_Consistent>
1

> <s_lp_Variant>
AV-unprocessed.smi:1997-4

> <Gold.Version>
5.8.1

> <Gold.Id.Protein>
6NUR|6NUR_protein|mol2

> <Gold.PLP.Fitness>
39.6959

> <Gold.PLP.PLP>
-31.1330

> <Gold.PLP.part.hbond>
-3.9735

> <Gold.PLP.part.metal>
0.0000

> <Gold.PLP.part.buried>
-2.3323

> <Gold.PLP.part.nonpolar>
-25.0605

> <Gold.PLP.part.repulsive>
0.3898

> <Gold.PLP.ligand.clash>
0.0000

> <Gold.PLP.ligand.torsion>
0.2839

> <Gold.PLP.Chemscore.Hbond>
3.0000

> <Gold.PLP.Chemscore.CHOScore>
0.0000

> <Gold.PLP.Chemscore.Metal>
0.0000

> <Gold.Chemscore.Hbonds>
donor molecule, donor type, donor heavy atom, donor atom, acceptor molecule, acceptor atom, score
      L1  H    18    36       P1  7948  0.88
      P1  H  7989  7998       L1    20  0.08
      P1  H  7997  8008       L1     3  1.90

> <Gold.PLP.Chemscore.Internal.Correction>
0.1307

> <Gold.Rescore>
     Score         DG    S(hbond)    S(metal)    S(lipo)     H(rot)  DE(clash)    DE(int)     intcor
     14.59     -16.45       1.93        0.00      66.49       1.27       0.06       1.80       ----

> <Gold.Chemscore.Fitness>
14.5937

> <Gold.Chemscore.DG>
-16.4468

> <Gold.Chemscore.ZeroCoef>
-5.4800

> <Gold.Chemscore.Hbond>
1.9307

> <Gold.Chemscore.Metal>
0.0000

> <Gold.Chemscore.Lipo>
66.4892

> <Gold.Chemscore.Internal_Hbond>
0.0000

> <Gold.Chemscore.DEClash>
0.0574

> <Gold.Chemscore.DEInternal>
1.7957

> <Gold.Chemscore.Rot>
1.2738

> <Gold.Chemscore.Internal.Correction>
   9.000000E+99

> <Gold.Chemscore.Hbonds>
donor molecule, donor type, donor heavy atom, donor atom, acceptor molecule, acceptor atom, score
      L1  H    18    36       P1  7948  0.83
      P1  H  7997  8008       L1     3  0.22

> <Gold.Chemscore.Hbond.Weighted>
-6.4485

> <Gold.Chemscore.Metal.Weighted>
-0.0000

> <Gold.Chemscore.Lipo.Weighted>
-7.7792

> <Gold.Chemscore.Internal_Hbond.Weighted>
0.0000

> <Gold.Chemscore.DEClash.Weighted>
0.0574

> <Gold.Chemscore.DEInternal.Weighted>
1.7957

> <Gold.Chemscore.Rot.Weighted>
3.2610

> <Gold.Chemscore.Internal.Correction.Weighted>
   9.000000E+99

> <Gold.Protein.RotatedTorsions>
[ 6907 6896 6895 6894 ] final  -58.99 input  -60.11 | X-H torsion
[ 7974 7965 7964 7962 ] final  141.29 input  175.53 | X-H torsion
[ 8008 7997 7996 7995 ] final  -58.90 input   59.86 | X-H torsion
[ 10167 10162 10161 10158 ] final  -69.79 input  -65.29 | X-H torsion
[ 10718 10713 10712 10709 ] final  106.47 input   66.30 | X-H torsion
[ 10763 10752 10751 10750 ] final   14.96 input  -60.55 | X-H torsion
[ 11005 11000 10999 10996 ] final -125.91 input  -57.11 | X-H torsion

> <Gold.Protein.ActiveResidues>
 VAL166  LYS551  ARG553  GLY616  TRP617  ASP618  TYR619  PRO620  LYS621  CYS622 
 ASP623  PHE694  ASN695  SER759  ASP760  ASP761  ALA762  ILE779  LEU786  VAL792 
 PHE793  MET794  SER795  GLU796  ALA797  LYS798  CYS799  TRP800  GLU811  SER814 

> <Gold.Protein.RotatedAtoms>
  150.7964  134.7027  159.6558 H   0  0  0  0  0  0  0  0  0  0  0  0  # atno 6907 bound_to 6896
  152.4077  134.6175  160.0052 H   0  0  0  0  0  0  0  0  0  0  0  0  # atno 6908 bound_to 6896
  151.6428  133.3288  159.3170 H   0  0  0  0  0  0  0  0  0  0  0  0  # atno 6909 bound_to 6896
  144.9109  139.5294  143.5709 H   0  0  0  0  0  0  0  0  0  0  0  0  # atno 7974 bound_to 7965
  154.4329  140.1073  156.6031 H   0  0  0  0  0  0  0  0  0  0  0  0  # atno 8008 bound_to 7997
  155.5890  140.3492  155.4542 H   0  0  0  0  0  0  0  0  0  0  0  0  # atno 8009 bound_to 7997
  156.0261  140.1250  157.0296 H   0  0  0  0  0  0  0  0  0  0  0  0  # atno 8010 bound_to 7997
  140.5403  143.2315  151.7102 H   0  0  0  0  0  0  0  0  0  0  0  0  # atno 10167 bound_to 10162
  157.6667  131.0851  150.6011 H   0  0  0  0  0  0  0  0  0  0  0  0  # atno 10718 bound_to 10713
  153.1572  135.6789  153.8796 H   0  0  0  0  0  0  0  0  0  0  0  0  # atno 10763 bound_to 10752
  153.8203  135.3131  155.3411 H   0  0  0  0  0  0  0  0  0  0  0  0  # atno 10764 bound_to 10752
  154.7906  135.4837  154.0132 H   0  0  0  0  0  0  0  0  0  0  0  0  # atno 10765 bound_to 10752
  140.9724  134.0787  157.3855 H   0  0  0  0  0  0  0  0  0  0  0  0  # atno 11005 bound_to 11000
  146.3158  139.7915  142.8984 LP  0  0  0  0  0  0  0  0  0  0  0  0  # atno 17320 bound_to 7965
  145.3455  141.0297  143.3368 LP  0  0  0  0  0  0  0  0  0  0  0  0  # atno 17321 bound_to 7965
  139.4986  144.3979  152.0212 LP  0  0  0  0  0  0  0  0  0  0  0  0  # atno 17342 bound_to 10162
  140.3088  144.3562  150.6039 LP  0  0  0  0  0  0  0  0  0  0  0  0  # atno 17343 bound_to 10162
  156.6312  130.4432  149.5786 LP  0  0  0  0  0  0  0  0  0  0  0  0  # atno 17370 bound_to 10713
  156.2281  130.6777  151.1436 LP  0  0  0  0  0  0  0  0  0  0  0  0  # atno 17371 bound_to 10713
  139.8917  135.0120  156.6808 LP  0  0  0  0  0  0  0  0  0  0  0  0  # atno 17394 bound_to 11000
  140.7309  133.9060  155.8210 LP  0  0  0  0  0  0  0  0  0  0  0  0  # atno 17395 bound_to 11000

$$$$
