AV-unprocessed.smi:1413|AV-procd|sdf|5759|dock7
  -GOLD-   22720 5393D 1   1.00000     0.00000
 Structure written by MMmdl.
 53 55  0  0  0  0  0  0  0  0  1 V2000
  152.0022  144.4158  157.5896 C   0  0  0  0  0  0  0  0  0  0  0  0
  151.1964  143.6025  158.6185 C   0  0  1  0  0  0  0  0  0  0  0  0
  150.2798  142.5413  157.9783 C   0  0  0  0  0  0  0  0  0  0  0  0
  151.0524  141.3926  157.5146 N   0  0  0  0  0  0  0  0  0  0  0  0
  150.3652  140.5052  156.6598 C   0  0  0  0  0  0  0  0  0  0  0  0
  149.3071  139.7142  157.1645 C   0  0  0  0  0  0  0  0  0  0  0  0
  148.6343  138.8340  156.2964 C   0  0  0  0  0  0  0  0  0  0  0  0
  149.0357  138.7549  154.9490 C   0  0  0  0  0  0  0  0  0  0  0  0
  148.3260  137.8736  154.0898 N   0  0  0  0  0  0  0  0  0  0  0  0
  147.0491  137.4656  154.1828 C   0  0  0  0  0  0  0  0  0  0  0  0
  146.2453  137.8363  155.0379 O   0  0  0  0  0  0  0  0  0  0  0  0
  146.7473  136.6031  153.2015 N   0  0  0  0  0  0  0  0  0  0  0  0
  145.4450  135.9771  152.9780 C   0  0  1  0  0  0  0  0  0  0  0  0
  144.3771  137.0778  152.9016 C   0  0  0  0  0  0  0  0  0  0  0  0
  145.4695  135.1164  151.6981 C   0  0  1  0  0  0  0  0  0  0  0  0
  146.4461  133.9403  151.7220 C   0  0  0  0  0  0  0  0  0  0  0  0
  145.8720  132.9891  150.6858 C   0  0  0  0  0  0  0  0  0  0  0  0
  144.4141  133.4355  150.5400 C   0  0  0  0  0  0  0  0  0  0  0  0
  144.2277  134.4545  151.5137 O   0  0  0  0  0  0  0  0  0  0  0  0
  150.0936  139.5956  154.5293 C   0  0  0  0  0  0  0  0  0  0  0  0
  150.7387  140.4437  155.3581 N   0  0  0  0  0  0  0  0  0  0  0  0
  151.9126  140.8244  158.5484 C   0  0  0  0  0  0  0  0  0  0  0  0
  152.8268  141.9114  159.1410 C   0  0  2  0  0  0  0  0  0  0  0  0
  153.6519  141.3835  160.3195 C   0  0  0  0  0  0  0  0  0  0  0  0
  152.0337  143.0016  159.6093 O   0  0  0  0  0  0  0  0  0  0  0  0
  151.3352  144.9662  156.9260 H   0  0  0  0  0  0  0  0  0  0  0  0
  152.6310  143.7843  156.9625 H   0  0  0  0  0  0  0  0  0  0  0  0
  152.6454  145.1426  158.0860 H   0  0  0  0  0  0  0  0  0  0  0  0
  150.5601  144.3112  159.1493 H   0  0  0  0  0  0  0  0  0  0  0  0
  149.5599  142.1885  158.7179 H   0  0  0  0  0  0  0  0  0  0  0  0
  149.7019  142.9970  157.1750 H   0  0  0  0  0  0  0  0  0  0  0  0
  148.9973  139.7851  158.1965 H   0  0  0  0  0  0  0  0  0  0  0  0
  147.8204  138.2272  156.6655 H   0  0  0  0  0  0  0  0  0  0  0  0
  148.8371  137.5524  153.2809 H   0  0  0  0  0  0  0  0  0  0  0  0
  147.4776  136.3621  152.5477 H   0  0  0  0  0  0  0  0  0  0  0  0
  145.1937  135.3341  153.8236 H   0  0  0  0  0  0  0  0  0  0  0  0
  143.3817  136.6532  152.7691 H   0  0  0  0  0  0  0  0  0  0  0  0
  144.5626  137.7550  152.0671 H   0  0  0  0  0  0  0  0  0  0  0  0
  144.3597  137.6715  153.8160 H   0  0  0  0  0  0  0  0  0  0  0  0
  145.6673  135.7412  150.8245 H   0  0  0  0  0  0  0  0  0  0  0  0
  147.4732  134.2349  151.5047 H   0  0  0  0  0  0  0  0  0  0  0  0
  146.4330  133.4618  152.7025 H   0  0  0  0  0  0  0  0  0  0  0  0
  146.3938  133.0863  149.7330 H   0  0  0  0  0  0  0  0  0  0  0  0
  145.9545  131.9514  151.0103 H   0  0  0  0  0  0  0  0  0  0  0  0
  144.2375  133.8489  149.5462 H   0  0  0  0  0  0  0  0  0  0  0  0
  143.7098  132.6185  150.6980 H   0  0  0  0  0  0  0  0  0  0  0  0
  150.4315  139.6218  153.5053 H   0  0  0  0  0  0  0  0  0  0  0  0
  151.2910  140.3850  159.3300 H   0  0  0  0  0  0  0  0  0  0  0  0
  152.5259  140.0251  158.1304 H   0  0  0  0  0  0  0  0  0  0  0  0
  153.5191  142.2633  158.3761 H   0  0  0  0  0  0  0  0  0  0  0  0
  154.2851  140.5506  160.0131 H   0  0  0  0  0  0  0  0  0  0  0  0
  153.0084  141.0349  161.1277 H   0  0  0  0  0  0  0  0  0  0  0  0
  154.2996  142.1629  160.7217 H   0  0  0  0  0  0  0  0  0  0  0  0
  1  2  1  0  0  0  0
  1 26  1  0  0  0  0
  1 27  1  0  0  0  0
  1 28  1  0  0  0  0
  2 25  1  0  0  0  0
  2  3  1  0  0  0  0
  2 29  1  0  0  0  0
  3  4  1  0  0  0  0
  3 30  1  0  0  0  0
  3 31  1  0  0  0  0
  4  5  1  0  0  0  0
  4 22  1  0  0  0  0
  5 21  1  0  0  0  0
  5  6  2  0  0  0  0
  6  7  1  0  0  0  0
  6 32  1  0  0  0  0
  7  8  2  0  0  0  0
  7 33  1  0  0  0  0
  8  9  1  0  0  0  0
  8 20  1  0  0  0  0
  9 10  1  0  0  0  0
  9 34  1  0  0  0  0
 10 11  2  0  0  0  0
 10 12  1  0  0  0  0
 12 13  1  0  0  0  0
 12 35  1  0  0  0  0
 13 14  1  0  0  0  0
 13 15  1  0  0  0  0
 13 36  1  0  0  0  0
 14 37  1  0  0  0  0
 14 38  1  0  0  0  0
 14 39  1  0  0  0  0
 15 19  1  0  0  0  0
 15 16  1  0  0  0  0
 15 40  1  0  0  0  0
 16 17  1  0  0  0  0
 16 41  1  0  0  0  0
 16 42  1  0  0  0  0
 17 18  1  0  0  0  0
 17 43  1  0  0  0  0
 17 44  1  0  0  0  0
 18 19  1  0  0  0  0
 18 45  1  0  0  0  0
 18 46  1  0  0  0  0
 20 21  2  0  0  0  0
 20 47  1  0  0  0  0
 22 23  1  0  0  0  0
 22 48  1  0  0  0  0
 22 49  1  0  0  0  0
 23 24  1  0  0  0  0
 23 25  1  0  0  0  0
 23 50  1  0  0  0  0
 24 51  1  0  0  0  0
 24 52  1  0  0  0  0
 24 53  1  0  0  0  0
M  END
> <s_m_source_file>
AV-unprocessed.smi

> <i_m_source_file_index>
1413

> <i_lp_mmshare_version>
43012

> <i_f3d_flags>
0

> <s_epik_input>
W0NIM11bQ0BASF0xW0NIMl1OKFtDSDJdW0NASF0oTzEpW0NIM10pYzJbY0hdW2NIXWMoW2NIXW4yKVtOSF1DKD1PKVtOSF1bQ0BIXShbQ0gzXSlbQ0BASF0zW0NIMl1bQ0gyXVtDSDJdTzM=

> <s_epik_cmdline>
J2VwaWtfcHl0aG9uJywgJy1waCcsICc3LjAnLCAnLXRuJywgJzgnLCAnLW1hJywgJzIwMCcsICctbWV0YWxfYmluZGluZycsICctaW1hZScsICc8aW5maWxlLm1hZT4nLCAnLW9tYWUnLCAnPG91dGZpbGUubWFlPic=

> <r_lp_tautomer_probability>
1

> <r_epik_Ionization_Penalty>
0.00271172

> <r_epik_Ionization_Penalty_Charging>
0

> <r_epik_Ionization_Penalty_Neutral>
0.00271172

> <r_epik_State_Penalty>
0.00186503

> <r_epik_Charging_Adjusted_Penalty>
0.00186503

> <i_epik_Tot_Q>
0

> <i_epik_Tot_abs_Q>
0

> <r_epik_Metal_State_Penalty>
-0

> <b_epik_Metal_Only>
0

> <s_lp_Force_Field>
OPLS_2005

> <r_lp_Energy>
37.0854

> <b_lp_Chiralities_Consistent>
1

> <s_lp_Variant>
AV-unprocessed.smi:1413-12

> <Gold.Version>
5.8.1

> <Gold.Id.Protein>
6NUR|6NUR_protein|mol2

> <Gold.PLP.Fitness>
48.3113

> <Gold.PLP.PLP>
-40.0094

> <Gold.PLP.part.hbond>
-2.9520

> <Gold.PLP.part.metal>
0.0000

> <Gold.PLP.part.buried>
-5.9952

> <Gold.PLP.part.nonpolar>
-31.7340

> <Gold.PLP.part.repulsive>
0.3182

> <Gold.PLP.ligand.clash>
0.0000

> <Gold.PLP.ligand.torsion>
0.3685

> <Gold.PLP.Chemscore.Hbond>
1.8960

> <Gold.PLP.Chemscore.CHOScore>
1.0000

> <Gold.PLP.Chemscore.Metal>
0.0000

> <Gold.Chemscore.Hbonds>
donor molecule, donor type, donor heavy atom, donor atom, acceptor molecule, acceptor atom, score
      L1  H     9    34       P1  7948  0.96
      L1  H    12    35       P1  7948  1.00
      L1  C    20    47       P1  7957  1.00

> <Gold.PLP.Chemscore.Internal.Correction>
0.3509

> <Gold.Rescore>
     Score         DG    S(hbond)    S(metal)    S(lipo)     H(rot)  DE(clash)    DE(int)     intcor
     18.54     -20.59       1.92        0.00     103.82       1.35       0.39       1.67       ----

> <Gold.Chemscore.Fitness>
18.5354

> <Gold.Chemscore.DG>
-20.5904

> <Gold.Chemscore.ZeroCoef>
-5.4800

> <Gold.Chemscore.Hbond>
1.9199

> <Gold.Chemscore.Metal>
0.0000

> <Gold.Chemscore.Lipo>
103.8168

> <Gold.Chemscore.Internal_Hbond>
0.0000

> <Gold.Chemscore.DEClash>
0.3869

> <Gold.Chemscore.DEInternal>
1.6680

> <Gold.Chemscore.Rot>
1.3471

> <Gold.Chemscore.Internal.Correction>
   9.000000E+99

> <Gold.Chemscore.Hbonds>
donor molecule, donor type, donor heavy atom, donor atom, acceptor molecule, acceptor atom, score
      L1  H     9    34       P1  7948  0.92
      L1  H    12    35       P1  7948  0.99

> <Gold.Chemscore.Hbond.Weighted>
-6.4123

> <Gold.Chemscore.Metal.Weighted>
-0.0000

> <Gold.Chemscore.Lipo.Weighted>
-12.1466

> <Gold.Chemscore.Internal_Hbond.Weighted>
0.0000

> <Gold.Chemscore.DEClash.Weighted>
0.3869

> <Gold.Chemscore.DEInternal.Weighted>
1.6680

> <Gold.Chemscore.Rot.Weighted>
3.4485

> <Gold.Chemscore.Internal.Correction.Weighted>
   9.000000E+99

> <Gold.Protein.RotatedTorsions>
[ 6907 6896 6895 6894 ] final   10.38 input  -60.11 | X-H torsion
[ 7974 7965 7964 7962 ] final  -97.27 input  175.53 | X-H torsion
[ 8008 7997 7996 7995 ] final   73.14 input   59.86 | X-H torsion
[ 10167 10162 10161 10158 ] final   81.83 input  -65.29 | X-H torsion
[ 10718 10713 10712 10709 ] final   89.97 input   66.30 | X-H torsion
[ 10763 10752 10751 10750 ] final   24.44 input  -60.55 | X-H torsion
[ 11005 11000 10999 10996 ] final   45.47 input  -57.11 | X-H torsion

> <Gold.Protein.ActiveResidues>
 VAL166  LYS551  ARG553  GLY616  TRP617  ASP618  TYR619  PRO620  LYS621  CYS622 
 ASP623  PHE694  ASN695  SER759  ASP760  ASP761  ALA762  ILE779  LEU786  VAL792 
 PHE793  MET794  SER795  GLU796  ALA797  LYS798  CYS799  TRP800  GLU811  SER814 

> <Gold.Protein.RotatedAtoms>
  151.7373  135.0862  160.0309 H   0  0  0  0  0  0  0  0  0  0  0  0  # atno 6907 bound_to 6896
  152.3502  133.6167  159.5948 H   0  0  0  0  0  0  0  0  0  0  0  0  # atno 6908 bound_to 6896
  150.7535  133.9501  159.3525 H   0  0  0  0  0  0  0  0  0  0  0  0  # atno 6909 bound_to 6896
  145.3359  140.9450  143.2635 H   0  0  0  0  0  0  0  0  0  0  0  0  # atno 7974 bound_to 7965
  155.7792  140.3482  155.5288 H   0  0  0  0  0  0  0  0  0  0  0  0  # atno 8008 bound_to 7997
  155.8745  140.0992  157.1548 H   0  0  0  0  0  0  0  0  0  0  0  0  # atno 8009 bound_to 7997
  154.4020  140.1334  156.4107 H   0  0  0  0  0  0  0  0  0  0  0  0  # atno 8010 bound_to 7997
  139.9352  144.6126  150.8306 H   0  0  0  0  0  0  0  0  0  0  0  0  # atno 10167 bound_to 10162
  157.6957  131.0353  150.3506 H   0  0  0  0  0  0  0  0  0  0  0  0  # atno 10718 bound_to 10713
  153.0764  135.6605  154.0138 H   0  0  0  0  0  0  0  0  0  0  0  0  # atno 10763 bound_to 10752
  153.9771  135.2959  155.3424 H   0  0  0  0  0  0  0  0  0  0  0  0  # atno 10764 bound_to 10752
  154.7153  135.5188  153.8798 H   0  0  0  0  0  0  0  0  0  0  0  0  # atno 10765 bound_to 10752
  140.1456  134.4526  155.8418 H   0  0  0  0  0  0  0  0  0  0  0  0  # atno 11005 bound_to 11000
  144.8828  139.4881  143.6715 LP  0  0  0  0  0  0  0  0  0  0  0  0  # atno 17320 bound_to 7965
  146.3027  139.7478  142.9079 LP  0  0  0  0  0  0  0  0  0  0  0  0  # atno 17321 bound_to 7965
  140.7626  143.3203  151.2637 LP  0  0  0  0  0  0  0  0  0  0  0  0  # atno 17342 bound_to 10162
  139.6750  143.9954  152.2775 LP  0  0  0  0  0  0  0  0  0  0  0  0  # atno 17343 bound_to 10162
  156.3955  130.3906  149.6998 LP  0  0  0  0  0  0  0  0  0  0  0  0  # atno 17370 bound_to 10713
  156.4333  130.7826  151.2846 LP  0  0  0  0  0  0  0  0  0  0  0  0  # atno 17371 bound_to 10713
  141.2192  133.6851  156.7328 LP  0  0  0  0  0  0  0  0  0  0  0  0  # atno 17394 bound_to 11000
  140.2667  134.8424  157.3809 LP  0  0  0  0  0  0  0  0  0  0  0  0  # atno 17395 bound_to 11000

$$$$
