AV-unprocessed.smi:767|AV-procd|sdf|3672|dock3
  -GOLD-   22720 1 83D 1   1.00000     0.00000
 Structure written by MMmdl.
 48 50  0  0  0  0  0  0  0  0  2 V2000
  151.3979  143.6902  158.4924 C   0  0  0  0  0  0  0  0  0  0  0  0
  151.2530  142.5480  157.5101 C   0  0  0  0  0  0  0  0  0  0  0  0
  151.9648  141.3386  157.6548 C   0  0  0  0  0  0  0  0  0  0  0  0
  151.7640  140.3052  156.7170 C   0  0  0  0  0  0  0  0  0  0  0  0
  150.8603  140.5032  155.6497 C   0  0  0  0  0  0  0  0  0  0  0  0
  150.5852  139.3926  154.6494 C   0  0  0  0  0  0  0  0  0  0  0  0
  151.4839  138.1519  154.8299 C   0  0  0  0  0  0  0  0  0  0  0  0
  150.8576  136.9272  154.3346 N   0  0  0  0  0  0  0  0  0  0  0  0
  150.1632  136.0558  155.0813 C   0  0  0  0  0  0  0  0  0  0  0  0
  149.9536  136.1926  156.2870 O   0  0  0  0  0  0  0  0  0  0  0  0
  149.7479  135.0020  154.3675 N   0  0  0  0  0  0  0  0  0  0  0  0
  149.0455  133.8603  154.9411 C   0  0  1  0  0  0  0  0  0  0  0  0
  149.4895  132.5277  154.3404 C   0  0  2  0  0  0  0  0  0  0  0  0
  148.8342  131.4896  153.5011 C   0  0  0  0  0  0  0  0  0  0  0  0
  149.2873  130.2448  154.3101 C   0  0  0  0  0  0  0  0  0  0  0  0
  149.8506  130.7554  155.5432 O   0  0  0  0  0  0  0  0  0  0  0  0
  149.1905  131.9904  155.7281 C   0  0  1  0  0  0  0  0  0  0  0  0
  149.6847  133.3404  156.2846 C   0  0  0  0  0  0  0  0  0  0  0  0
  151.1995  133.5001  156.5255 C   0  0  0  0  0  0  0  0  0  0  0  0
  148.9946  133.8269  157.5595 C   0  0  0  0  0  0  0  0  0  0  0  0
  150.1936  141.7430  155.5434 C   0  0  0  0  0  0  0  0  0  0  0  0
  150.4066  142.7045  156.4679 N   0  3  0  0  0  0  0  0  0  0  0  0
  151.7975  143.3365  159.4435 H   0  0  0  0  0  0  0  0  0  0  0  0
  150.4315  144.1570  158.6856 H   0  0  0  0  0  0  0  0  0  0  0  0
  152.0750  144.4467  158.0952 H   0  0  0  0  0  0  0  0  0  0  0  0
  152.6458  141.1966  158.4812 H   0  0  0  0  0  0  0  0  0  0  0  0
  152.2885  139.3674  156.8279 H   0  0  0  0  0  0  0  0  0  0  0  0
  149.5382  139.1007  154.7354 H   0  0  0  0  0  0  0  0  0  0  0  0
  150.7070  139.7837  153.6383 H   0  0  0  0  0  0  0  0  0  0  0  0
  152.4461  138.3114  154.3402 H   0  0  0  0  0  0  0  0  0  0  0  0
  151.7061  138.0157  155.8883 H   0  0  0  0  0  0  0  0  0  0  0  0
  150.9723  136.7236  153.3524 H   0  0  0  0  0  0  0  0  0  0  0  0
  149.9565  134.9695  153.3803 H   0  0  0  0  0  0  0  0  0  0  0  0
  147.9577  133.9729  154.9733 H   0  0  0  0  0  0  0  0  0  0  0  0
  150.5565  132.5550  154.1077 H   0  0  0  0  0  0  0  0  0  0  0  0
  147.7486  131.5977  153.4910 H   0  0  0  0  0  0  0  0  0  0  0  0
  149.2016  131.4789  152.4744 H   0  0  0  0  0  0  0  0  0  0  0  0
  148.4415  129.5890  154.5200 H   0  0  0  0  0  0  0  0  0  0  0  0
  150.0418  129.6650  153.7777 H   0  0  0  0  0  0  0  0  0  0  0  0
  148.1233  131.8328  155.9226 H   0  0  0  0  0  0  0  0  0  0  0  0
  151.5058  133.0063  157.4482 H   0  0  0  0  0  0  0  0  0  0  0  0
  151.4767  134.5493  156.6148 H   0  0  0  0  0  0  0  0  0  0  0  0
  151.8163  133.0761  155.7354 H   0  0  0  0  0  0  0  0  0  0  0  0
  149.2738  133.2230  158.4232 H   0  0  0  0  0  0  0  0  0  0  0  0
  147.9090  133.7788  157.4703 H   0  0  0  0  0  0  0  0  0  0  0  0
  149.2516  134.8628  157.7821 H   0  0  0  0  0  0  0  0  0  0  0  0
  149.4808  141.9827  154.7677 H   0  0  0  0  0  0  0  0  0  0  0  0
  149.8996  143.5854  156.3796 H   0  0  0  0  0  0  0  0  0  0  0  0
  1  2  1  0  0  0  0
  1 23  1  0  0  0  0
  1 24  1  0  0  0  0
  1 25  1  0  0  0  0
  2 22  1  0  0  0  0
  2  3  2  0  0  0  0
  3  4  1  0  0  0  0
  3 26  1  0  0  0  0
  4  5  2  0  0  0  0
  4 27  1  0  0  0  0
  5  6  1  0  0  0  0
  5 21  1  0  0  0  0
  6  7  1  0  0  0  0
  6 28  1  0  0  0  0
  6 29  1  0  0  0  0
  7  8  1  0  0  0  0
  7 30  1  0  0  0  0
  7 31  1  0  0  0  0
  8  9  1  0  0  0  0
  8 32  1  0  0  0  0
  9 10  2  0  0  0  0
  9 11  1  0  0  0  0
 11 12  1  0  0  0  0
 11 33  1  0  0  0  0
 12 18  1  0  0  0  0
 12 13  1  0  0  0  0
 12 34  1  0  0  0  0
 13 17  1  0  0  0  0
 13 14  1  0  0  0  0
 13 35  1  0  0  0  0
 14 15  1  0  0  0  0
 14 36  1  0  0  0  0
 14 37  1  0  0  0  0
 15 16  1  0  0  0  0
 15 38  1  0  0  0  0
 15 39  1  0  0  0  0
 16 17  1  0  0  0  0
 17 18  1  0  0  0  0
 17 40  1  0  0  0  0
 18 19  1  0  0  0  0
 18 20  1  0  0  0  0
 19 41  1  0  0  0  0
 19 42  1  0  0  0  0
 19 43  1  0  0  0  0
 20 44  1  0  0  0  0
 20 45  1  0  0  0  0
 20 46  1  0  0  0  0
 21 22  2  0  0  0  0
 21 47  1  0  0  0  0
 22 48  1  0  0  0  0
M  CHG  1  22   1
M  END
> <s_m_source_file>
AV-unprocessed.smi

> <i_m_source_file_index>
767

> <i_lp_mmshare_version>
43012

> <i_f3d_flags>
0

> <s_epik_input>
W0NIM11jMVtjSF1bY0hdYyhbY0hdbjEpW0NIMl1bQ0gyXVtOSF1DKD1PKVtOSF1bQ0BIXTJDKFtDSDNdKShbQ0gzXSlbQ0BIXShbQ0BASF0yMylPW0NIMl1bQ0gyXTM=

> <s_epik_cmdline>
J2VwaWtfcHl0aG9uJywgJy1waCcsICc3LjAnLCAnLXRuJywgJzgnLCAnLW1hJywgJzIwMCcsICctbWV0YWxfYmluZGluZycsICctaW1hZScsICc8aW5maWxlLm1hZT4nLCAnLW9tYWUnLCAnPG91dGZpbGUubWFlPic=

> <r_epik_Ionization_Penalty>
1.41853

> <r_epik_Ionization_Penalty_Charging>
1.41848

> <r_epik_Ionization_Penalty_Neutral>
5.17407e-05

> <r_epik_State_Penalty>
1.50205

> <r_epik_Charging_Adjusted_Penalty>
2.92053

> <i_epik_Tot_Q>
1

> <i_epik_Tot_abs_Q>
1

> <r_epik_Metal_State_Penalty>
1.5544

> <b_epik_Metal_Only>
0

> <s_lp_Force_Field>
OPLS_2005

> <r_lp_Energy>
61.237

> <b_lp_Chiralities_Consistent>
1

> <s_lp_Variant>
AV-unprocessed.smi:767-16

> <Gold.Version>
5.8.1

> <Gold.Id.Protein>
6NUR|6NUR_protein|mol2

> <Gold.PLP.Fitness>
47.2723

> <Gold.PLP.PLP>
-39.1980

> <Gold.PLP.part.hbond>
-3.5744

> <Gold.PLP.part.metal>
0.0000

> <Gold.PLP.part.buried>
-4.2498

> <Gold.PLP.part.nonpolar>
-31.6097

> <Gold.PLP.part.repulsive>
0.2245

> <Gold.PLP.ligand.clash>
0.0000

> <Gold.PLP.ligand.torsion>
0.6006

> <Gold.PLP.Chemscore.Hbond>
3.0000

> <Gold.PLP.Chemscore.CHOScore>
0.0000

> <Gold.PLP.Chemscore.Metal>
0.0000

> <Gold.Chemscore.Hbonds>
donor molecule, donor type, donor heavy atom, donor atom, acceptor molecule, acceptor atom, score
      L1  H     8    32       P1  7949  0.95
      L1  H    22    48       P1  8028  2.00

> <Gold.PLP.Chemscore.Internal.Correction>
0.2755

> <Gold.Rescore>
     Score         DG    S(hbond)    S(metal)    S(lipo)     H(rot)  DE(clash)    DE(int)     intcor
     14.41     -18.94       1.64        0.00     101.66       1.52       0.20       4.33       ----

> <Gold.Chemscore.Fitness>
14.4087

> <Gold.Chemscore.DG>
-18.9359

> <Gold.Chemscore.ZeroCoef>
-5.4800

> <Gold.Chemscore.Hbond>
1.6352

> <Gold.Chemscore.Metal>
0.0000

> <Gold.Chemscore.Lipo>
101.6565

> <Gold.Chemscore.Internal_Hbond>
0.0000

> <Gold.Chemscore.DEClash>
0.1986

> <Gold.Chemscore.DEInternal>
4.3285

> <Gold.Chemscore.Rot>
1.5233

> <Gold.Chemscore.Internal.Correction>
   9.000000E+99

> <Gold.Chemscore.Hbonds>
donor molecule, donor type, donor heavy atom, donor atom, acceptor molecule, acceptor atom, score
      L1  H     8    32       P1  7949  0.21
      L1  H    22    48       P1  8028  0.99

> <Gold.Chemscore.Hbond.Weighted>
-5.4616

> <Gold.Chemscore.Metal.Weighted>
-0.0000

> <Gold.Chemscore.Lipo.Weighted>
-11.8938

> <Gold.Chemscore.Internal_Hbond.Weighted>
0.0000

> <Gold.Chemscore.DEClash.Weighted>
0.1986

> <Gold.Chemscore.DEInternal.Weighted>
4.3285

> <Gold.Chemscore.Rot.Weighted>
3.8995

> <Gold.Chemscore.Internal.Correction.Weighted>
   9.000000E+99

> <Gold.Protein.RotatedTorsions>
[ 6907 6896 6895 6894 ] final -178.21 input  -60.11 | X-H torsion
[ 7974 7965 7964 7962 ] final   69.97 input  175.53 | X-H torsion
[ 8008 7997 7996 7995 ] final   82.66 input   59.86 | X-H torsion
[ 10167 10162 10161 10158 ] final   69.51 input  -65.29 | X-H torsion
[ 10718 10713 10712 10709 ] final    3.86 input   66.30 | X-H torsion
[ 10763 10752 10751 10750 ] final  -69.89 input  -60.55 | X-H torsion
[ 11005 11000 10999 10996 ] final -107.19 input  -57.11 | X-H torsion

> <Gold.Protein.ActiveResidues>
 VAL166  LYS551  ARG553  GLY616  TRP617  ASP618  TYR619  PRO620  LYS621  CYS622 
 ASP623  PHE694  ASN695  SER759  ASP760  ASP761  ALA762  ILE779  LEU786  VAL792 
 PHE793  MET794  SER795  GLU796  ALA797  LYS798  CYS799  TRP800  GLU811  SER814 

> <Gold.Protein.RotatedAtoms>
  151.6335  133.3330  159.3113 H   0  0  0  0  0  0  0  0  0  0  0  0  # atno 6907 bound_to 6896
  150.8044  134.7163  159.6642 H   0  0  0  0  0  0  0  0  0  0  0  0  # atno 6908 bound_to 6896
  152.4139  134.6081  160.0070 H   0  0  0  0  0  0  0  0  0  0  0  0  # atno 6909 bound_to 6896
  145.7839  139.2901  143.1250 H   0  0  0  0  0  0  0  0  0  0  0  0  # atno 7974 bound_to 7965
  155.9136  140.3426  155.6118 H   0  0  0  0  0  0  0  0  0  0  0  0  # atno 8008 bound_to 7997
  155.7358  140.0801  157.2287 H   0  0  0  0  0  0  0  0  0  0  0  0  # atno 8009 bound_to 7997
  154.4059  140.1580  156.2547 H   0  0  0  0  0  0  0  0  0  0  0  0  # atno 8010 bound_to 7997
  140.0671  144.5184  150.7253 H   0  0  0  0  0  0  0  0  0  0  0  0  # atno 10167 bound_to 10162
  156.8841  130.5664  149.5652 H   0  0  0  0  0  0  0  0  0  0  0  0  # atno 10718 bound_to 10713
  154.4098  135.6011  153.5946 H   0  0  0  0  0  0  0  0  0  0  0  0  # atno 10763 bound_to 10752
  152.9790  135.5926  154.4084 H   0  0  0  0  0  0  0  0  0  0  0  0  # atno 10764 bound_to 10752
  154.3894  135.2842  155.2142 H   0  0  0  0  0  0  0  0  0  0  0  0  # atno 10765 bound_to 10752
  141.0966  133.8959  157.1947 H   0  0  0  0  0  0  0  0  0  0  0  0  # atno 11005 bound_to 11000
  146.0046  140.8490  143.0001 LP  0  0  0  0  0  0  0  0  0  0  0  0  # atno 17320 bound_to 7965
  144.6792  140.2402  143.7344 LP  0  0  0  0  0  0  0  0  0  0  0  0  # atno 17321 bound_to 7965
  140.7144  143.2532  151.4481 LP  0  0  0  0  0  0  0  0  0  0  0  0  # atno 17342 bound_to 10162
  139.5858  144.1607  152.2027 LP  0  0  0  0  0  0  0  0  0  0  0  0  # atno 17343 bound_to 10162
  156.0662  130.5705  150.9293 LP  0  0  0  0  0  0  0  0  0  0  0  0  # atno 17370 bound_to 10713
  157.6122  131.0935  150.8774 LP  0  0  0  0  0  0  0  0  0  0  0  0  # atno 17371 bound_to 10713
  139.9805  135.0100  156.9737 LP  0  0  0  0  0  0  0  0  0  0  0  0  # atno 17394 bound_to 11000
  140.5124  134.0988  155.7273 LP  0  0  0  0  0  0  0  0  0  0  0  0  # atno 17395 bound_to 11000

$$$$
