AV-unprocessed.smi:229|AV-procd|sdf|1757|dock5
  -GOLD-   2262020283D 1   1.00000     0.00000
 Structure written by MMmdl.
 58 62  0  0  0  0  0  0  0  0  1 V2000
  141.7583  141.8420  157.9418 C   0  0  0  0  0  0  0  0  0  0  0  0
  141.5312  141.9988  156.4331 C   0  0  0  0  0  0  0  0  0  0  0  0
  142.6578  142.7759  155.7363 C   0  0  2  0  0  0  0  0  0  0  0  0
  144.0154  142.0664  155.8757 C   0  0  0  0  0  0  0  0  0  0  0  0
  145.0655  142.8896  155.2871 N   0  0  0  0  0  0  0  0  0  0  0  0
  146.2702  142.3184  155.0369 C   0  0  0  0  0  0  0  0  0  0  0  0
  146.5993  141.9502  153.7696 N   0  0  0  0  0  0  0  0  0  0  0  0
  147.7816  141.3801  153.5178 C   0  0  0  0  0  0  0  0  0  0  0  0
  148.7687  141.0934  154.3689 N   0  0  0  0  0  0  0  0  0  0  0  0
  148.4480  141.4687  155.6399 C   0  0  0  0  0  0  0  0  0  0  0  0
  147.2329  142.0808  156.0583 C   0  0  0  0  0  0  0  0  0  0  0  0
  147.2751  142.3279  157.4260 N   0  0  0  0  0  0  0  0  0  0  0  0
  148.4442  141.8804  157.7953 C   0  0  0  0  0  0  0  0  0  0  0  0
  149.2142  141.3501  156.7853 N   0  0  0  0  0  0  0  0  0  0  0  0
  150.5495  140.7920  156.9072 C   0  0  0  0  0  0  0  0  0  0  0  0
  151.1880  141.0915  158.2778 C   0  0  1  0  0  0  0  0  0  0  0  0
  151.9603  139.9777  158.6858 O   0  0  0  0  0  0  0  0  0  0  0  0
  152.0940  142.3361  158.2414 C   0  0  2  0  0  0  0  0  0  0  0  0
  152.4946  142.8703  159.6181 C   0  0  0  0  0  0  0  0  0  0  0  0
  152.7660  144.3464  159.3703 C   0  0  0  0  0  0  0  0  0  0  0  0
  152.1615  144.6099  157.9888 C   0  0  0  0  0  0  0  0  0  0  0  0
  151.4034  143.4466  157.6903 O   0  0  0  0  0  0  0  0  0  0  0  0
  145.1229  144.2318  155.8544 C   0  0  0  0  0  0  0  0  0  0  0  0
  143.7457  144.9263  155.7650 C   0  0  2  0  0  0  0  0  0  0  0  0
  143.3751  145.3657  154.3438 C   0  0  0  0  0  0  0  0  0  0  0  0
  143.6309  146.8660  154.3493 C   0  0  0  0  0  0  0  0  0  0  0  0
  143.2244  147.2340  155.6538 O   0  0  0  0  0  0  0  0  0  0  0  0
  143.7425  146.2556  156.5441 C   0  0  0  0  0  0  0  0  0  0  0  0
  142.7459  144.0726  156.3299 O   0  0  0  0  0  0  0  0  0  0  0  0
  140.9330  141.3003  158.4043 H   0  0  0  0  0  0  0  0  0  0  0  0
  141.8356  142.8129  158.4317 H   0  0  0  0  0  0  0  0  0  0  0  0
  142.6748  141.2886  158.1485 H   0  0  0  0  0  0  0  0  0  0  0  0
  141.4248  141.0141  155.9763 H   0  0  0  0  0  0  0  0  0  0  0  0
  140.5840  142.5154  156.2733 H   0  0  0  0  0  0  0  0  0  0  0  0
  142.4118  142.8683  154.6775 H   0  0  0  0  0  0  0  0  0  0  0  0
  144.2426  141.8871  156.9278 H   0  0  0  0  0  0  0  0  0  0  0  0
  143.9751  141.0957  155.3795 H   0  0  0  0  0  0  0  0  0  0  0  0
  147.9625  141.1153  152.4865 H   0  0  0  0  0  0  0  0  0  0  0  0
  148.7816  141.9317  158.8204 H   0  0  0  0  0  0  0  0  0  0  0  0
  150.4961  139.7158  156.7365 H   0  0  0  0  0  0  0  0  0  0  0  0
  151.1628  141.2043  156.1050 H   0  0  0  0  0  0  0  0  0  0  0  0
  150.3991  141.2411  159.0165 H   0  0  0  0  0  0  0  0  0  0  0  0
  151.5097  139.5439  159.3941 H   0  0  0  0  0  0  0  0  0  0  0  0
  152.9860  142.1436  157.6417 H   0  0  0  0  0  0  0  0  0  0  0  0
  151.6655  142.7667  160.3198 H   0  0  0  0  0  0  0  0  0  0  0  0
  153.3543  142.3461  160.0369 H   0  0  0  0  0  0  0  0  0  0  0  0
  152.2963  144.9610  160.1391 H   0  0  0  0  0  0  0  0  0  0  0  0
  153.8344  144.5647  159.3718 H   0  0  0  0  0  0  0  0  0  0  0  0
  151.5373  145.5034  157.9668 H   0  0  0  0  0  0  0  0  0  0  0  0
  152.9487  144.7262  157.2424 H   0  0  0  0  0  0  0  0  0  0  0  0
  145.4247  144.1448  156.8991 H   0  0  0  0  0  0  0  0  0  0  0  0
  145.8774  144.8460  155.3639 H   0  0  0  0  0  0  0  0  0  0  0  0
  143.9340  144.8474  153.5636 H   0  0  0  0  0  0  0  0  0  0  0  0
  142.3135  145.1941  154.1609 H   0  0  0  0  0  0  0  0  0  0  0  0
  144.6908  147.0862  154.2129 H   0  0  0  0  0  0  0  0  0  0  0  0
  143.0631  147.3951  153.5838 H   0  0  0  0  0  0  0  0  0  0  0  0
  143.1476  146.2100  157.4568 H   0  0  0  0  0  0  0  0  0  0  0  0
  144.7543  146.5510  156.8266 H   0  0  0  0  0  0  0  0  0  0  0  0
  1  2  1  0  0  0  0
  1 30  1  0  0  0  0
  1 31  1  0  0  0  0
  1 32  1  0  0  0  0
  2  3  1  0  0  0  0
  2 33  1  0  0  0  0
  2 34  1  0  0  0  0
  3 29  1  0  0  0  0
  3  4  1  0  0  0  0
  3 35  1  0  0  0  0
  4  5  1  0  0  0  0
  4 36  1  0  0  0  0
  4 37  1  0  0  0  0
  5  6  1  0  0  0  0
  5 23  1  0  0  0  0
  6 11  1  0  0  0  0
  6  7  2  0  0  0  0
  7  8  1  0  0  0  0
  8  9  2  0  0  0  0
  8 38  1  0  0  0  0
  9 10  1  0  0  0  0
 10 14  1  0  0  0  0
 10 11  2  0  0  0  0
 11 12  1  0  0  0  0
 12 13  2  0  0  0  0
 13 14  1  0  0  0  0
 13 39  1  0  0  0  0
 14 15  1  0  0  0  0
 15 16  1  0  0  0  0
 15 40  1  0  0  0  0
 15 41  1  0  0  0  0
 16 17  1  0  0  0  0
 16 18  1  0  0  0  0
 16 42  1  0  0  0  0
 17 43  1  0  0  0  0
 18 22  1  0  0  0  0
 18 19  1  0  0  0  0
 18 44  1  0  0  0  0
 19 20  1  0  0  0  0
 19 45  1  0  0  0  0
 19 46  1  0  0  0  0
 20 21  1  0  0  0  0
 20 47  1  0  0  0  0
 20 48  1  0  0  0  0
 21 22  1  0  0  0  0
 21 49  1  0  0  0  0
 21 50  1  0  0  0  0
 23 24  1  0  0  0  0
 23 51  1  0  0  0  0
 23 52  1  0  0  0  0
 24 28  1  0  0  0  0
 24 25  1  0  0  0  0
 24 29  1  0  0  0  0
 25 26  1  0  0  0  0
 25 53  1  0  0  0  0
 25 54  1  0  0  0  0
 26 27  1  0  0  0  0
 26 55  1  0  0  0  0
 26 56  1  0  0  0  0
 27 28  1  0  0  0  0
 28 57  1  0  0  0  0
 28 58  1  0  0  0  0
M  END
> <s_m_source_file>
AV-unprocessed.smi

> <i_m_source_file_index>
229

> <i_lp_mmshare_version>
43012

> <i_f3d_flags>
0

> <s_epik_input>
W0NIMl0xT1tDSDJdW0NIMl1bQ0BdMTJbQ0gyXU4oW0NIMl1bQ0BIXShPMilbQ0gyXVtDSDNdKWMobltjSF1uMyljKGMzNCluW2NIXW40W0NIMl1bQ0BIXShbT0hdKVtDQEBIXTVbQ0gyXVtDSDJdW0NIMl1PNQ==

> <s_epik_cmdline>
J2VwaWtfcHl0aG9uJywgJy1waCcsICc3LjAnLCAnLXRuJywgJzgnLCAnLW1hJywgJzIwMCcsICctbWV0YWxfYmluZGluZycsICctaW1hZScsICc8aW5maWxlLm1hZT4nLCAnLW9tYWUnLCAnPG91dGZpbGUubWFlPic=

> <r_lp_tautomer_probability>
1

> <r_epik_Ionization_Penalty>
0.00318402

> <r_epik_Ionization_Penalty_Charging>
0

> <r_epik_Ionization_Penalty_Neutral>
0.00318402

> <r_epik_State_Penalty>
0.00215642

> <r_epik_Charging_Adjusted_Penalty>
0.00215642

> <i_epik_Tot_Q>
0

> <i_epik_Tot_abs_Q>
0

> <r_epik_Metal_State_Penalty>
-0

> <b_epik_Metal_Only>
0

> <s_lp_Force_Field>
OPLS_2005

> <r_lp_Energy>
53.2063

> <b_lp_Chiralities_Consistent>
1

> <s_lp_Variant>
AV-unprocessed.smi:229-11

> <Gold.Version>
5.8.1

> <Gold.Id.Protein>
6NUR|6NUR_protein|mol2

> <Gold.PLP.Fitness>
41.0031

> <Gold.PLP.PLP>
-39.5819

> <Gold.PLP.part.hbond>
0.0000

> <Gold.PLP.part.metal>
0.0000

> <Gold.PLP.part.buried>
-7.6556

> <Gold.PLP.part.nonpolar>
-32.4181

> <Gold.PLP.part.repulsive>
0.8032

> <Gold.PLP.ligand.clash>
0.0000

> <Gold.PLP.ligand.torsion>
0.9693

> <Gold.PLP.Chemscore.Hbond>
0.0000

> <Gold.PLP.Chemscore.CHOScore>
1.0000

> <Gold.PLP.Chemscore.Metal>
0.0000

> <Gold.Chemscore.Hbonds>
donor molecule, donor type, donor heavy atom, donor atom, acceptor molecule, acceptor atom, score
      L1  C     8    38       P1  7957  1.00

> <Gold.PLP.Chemscore.Internal.Correction>
0.3596

> <Gold.Rescore>
     Score         DG    S(hbond)    S(metal)    S(lipo)     H(rot)  DE(clash)    DE(int)     intcor
      9.31     -10.35       0.00        0.00      95.42       2.46       0.14       0.89       ----

> <Gold.Chemscore.Fitness>
9.3137

> <Gold.Chemscore.DG>
-10.3485

> <Gold.Chemscore.ZeroCoef>
-5.4800

> <Gold.Chemscore.Hbond>
0.0000

> <Gold.Chemscore.Metal>
0.0000

> <Gold.Chemscore.Lipo>
95.4176

> <Gold.Chemscore.Internal_Hbond>
0.0000

> <Gold.Chemscore.DEClash>
0.1415

> <Gold.Chemscore.DEInternal>
0.8933

> <Gold.Chemscore.Rot>
2.4591

> <Gold.Chemscore.Internal.Correction>
   9.000000E+99

> <Gold.Chemscore.Hbond.Weighted>
-0.0000

> <Gold.Chemscore.Metal.Weighted>
-0.0000

> <Gold.Chemscore.Lipo.Weighted>
-11.1639

> <Gold.Chemscore.Internal_Hbond.Weighted>
0.0000

> <Gold.Chemscore.DEClash.Weighted>
0.1415

> <Gold.Chemscore.DEInternal.Weighted>
0.8933

> <Gold.Chemscore.Rot.Weighted>
6.2953

> <Gold.Chemscore.Internal.Correction.Weighted>
   9.000000E+99

> <Gold.Protein.RotatedTorsions>
[ 6907 6896 6895 6894 ] final  -92.72 input  -60.11 | X-H torsion
[ 7974 7965 7964 7962 ] final  102.81 input  175.53 | X-H torsion
[ 8008 7997 7996 7995 ] final   95.09 input   59.86 | X-H torsion
[ 10167 10162 10161 10158 ] final  -29.72 input  -65.29 | X-H torsion
[ 10718 10713 10712 10709 ] final  -91.76 input   66.30 | X-H torsion
[ 10763 10752 10751 10750 ] final  -49.83 input  -60.55 | X-H torsion
[ 11005 11000 10999 10996 ] final   24.36 input  -57.11 | X-H torsion

> <Gold.Protein.ActiveResidues>
 VAL166  LYS551  ARG553  GLY616  TRP617  ASP618  TYR619  PRO620  LYS621  CYS622 
 ASP623  PHE694  ASN695  SER759  ASP760  ASP761  ALA762  ILE779  LEU786  VAL792 
 PHE793  MET794  SER795  GLU796  ALA797  LYS798  CYS799  TRP800  GLU811  SER814 

> <Gold.Protein.RotatedAtoms>
  150.6910  134.2079  159.4347 H   0  0  0  0  0  0  0  0  0  0  0  0  # atno 6907 bound_to 6896
  152.0042  134.9909  160.0575 H   0  0  0  0  0  0  0  0  0  0  0  0  # atno 6908 bound_to 6896
  152.1550  133.4510  159.4869 H   0  0  0  0  0  0  0  0  0  0  0  0  # atno 6909 bound_to 6896
  145.3542  139.2432  143.3541 H   0  0  0  0  0  0  0  0  0  0  0  0  # atno 7974 bound_to 7965
  156.0651  140.3291  155.7508 H   0  0  0  0  0  0  0  0  0  0  0  0  # atno 8008 bound_to 7997
  155.5394  140.0600  157.2890 H   0  0  0  0  0  0  0  0  0  0  0  0  # atno 8009 bound_to 7997
  154.4501  140.1913  156.0563 H   0  0  0  0  0  0  0  0  0  0  0  0  # atno 8010 bound_to 7997
  140.7257  143.3906  151.1436 H   0  0  0  0  0  0  0  0  0  0  0  0  # atno 10167 bound_to 10162
  155.9996  130.4960  150.5523 H   0  0  0  0  0  0  0  0  0  0  0  0  # atno 10718 bound_to 10713
  154.1005  135.6564  153.4867 H   0  0  0  0  0  0  0  0  0  0  0  0  # atno 10763 bound_to 10752
  153.0290  135.5224  154.7291 H   0  0  0  0  0  0  0  0  0  0  0  0  # atno 10764 bound_to 10752
  154.6442  135.2992  155.0036 H   0  0  0  0  0  0  0  0  0  0  0  0  # atno 10765 bound_to 10752
  140.3595  134.2141  155.7673 H   0  0  0  0  0  0  0  0  0  0  0  0  # atno 11005 bound_to 11000
  146.2955  140.4164  142.8723 LP  0  0  0  0  0  0  0  0  0  0  0  0  # atno 17320 bound_to 7965
  144.8695  140.7252  143.6056 LP  0  0  0  0  0  0  0  0  0  0  0  0  # atno 17321 bound_to 7965
  139.7511  143.8778  152.3077 LP  0  0  0  0  0  0  0  0  0  0  0  0  # atno 17342 bound_to 10162
  139.8632  144.7107  150.9075 LP  0  0  0  0  0  0  0  0  0  0  0  0  # atno 17343 bound_to 10162
  157.3444  131.0722  151.1762 LP  0  0  0  0  0  0  0  0  0  0  0  0  # atno 17370 bound_to 10713
  157.2600  130.6654  149.5970 LP  0  0  0  0  0  0  0  0  0  0  0  0  # atno 17371 bound_to 10713
  141.1988  133.8026  157.0565 LP  0  0  0  0  0  0  0  0  0  0  0  0  # atno 17394 bound_to 11000
  140.0638  134.9740  157.1350 LP  0  0  0  0  0  0  0  0  0  0  0  0  # atno 17395 bound_to 11000

$$$$
