AV-unprocessed.smi:3140|AV-procd|sdf|11960|dock1
  -GOLD-   2272017363D 1   1.00000     0.00000
 Structure written by MMmdl.
 37 38  0  0  0  0  0  0  0  0  1 V2000
  151.0265  139.4322  154.6225 C   0  0  0  0  0  0  0  0  0  0  0  0
  150.5772  140.3687  155.7556 C   0  0  2  0  0  0  0  0  0  0  0  0
  149.9504  141.6871  155.2317 C   0  0  0  0  0  0  0  0  0  0  0  0
  148.6698  141.5111  154.5641 N   0  0  0  0  0  0  0  0  0  0  0  0
  147.5201  142.2611  154.6989 C   0  0  0  0  0  0  0  0  0  0  0  0
  146.5809  141.7201  153.8686 C   0  0  0  0  0  0  0  0  0  0  0  0
  147.2604  140.6321  153.2532 C   0  0  0  0  0  0  0  0  0  0  0  0
  148.5107  140.5130  153.6674 N   0  0  0  0  0  0  0  0  0  0  0  0
  151.7360  140.6134  156.6065 N   0  0  0  0  0  0  0  0  0  0  0  0
  151.4639  141.5726  157.6678 C   0  0  0  0  0  0  0  0  0  0  0  0
  152.7180  141.7469  158.5411 C   0  0  0  0  0  0  0  0  0  0  0  0
  152.5029  142.7162  159.6152 N   0  0  0  0  0  0  0  0  0  0  0  0
  152.7441  142.3506  161.0010 C   0  0  0  0  0  0  0  0  0  0  0  0
  152.4152  143.6069  161.8215 C   0  0  0  0  0  0  0  0  0  0  0  0
  151.9989  144.6843  160.8136 C   0  0  0  0  0  0  0  0  0  0  0  0
  152.0859  143.9794  159.4713 C   0  0  0  0  0  0  0  0  0  0  0  0
  151.8047  144.5332  158.4095 O   0  0  0  0  0  0  0  0  0  0  0  0
  150.2014  139.2192  153.9422 H   0  0  0  0  0  0  0  0  0  0  0  0
  151.3776  138.4787  155.0181 H   0  0  0  0  0  0  0  0  0  0  0  0
  151.8390  139.8626  154.0360 H   0  0  0  0  0  0  0  0  0  0  0  0
  149.8278  139.8361  156.3428 H   0  0  0  0  0  0  0  0  0  0  0  0
  149.7948  142.3666  156.0705 H   0  0  0  0  0  0  0  0  0  0  0  0
  150.6270  142.2119  154.5574 H   0  0  0  0  0  0  0  0  0  0  0  0
  147.4665  143.1056  155.3701 H   0  0  0  0  0  0  0  0  0  0  0  0
  145.5638  142.0519  153.7217 H   0  0  0  0  0  0  0  0  0  0  0  0
  146.8862  139.9318  152.5211 H   0  0  0  0  0  0  0  0  0  0  0  0
  152.0445  139.7449  157.0196 H   0  0  0  0  0  0  0  0  0  0  0  0
  151.1558  142.5366  157.2654 H   0  0  0  0  0  0  0  0  0  0  0  0
  150.6376  141.2006  158.2743 H   0  0  0  0  0  0  0  0  0  0  0  0
  152.9849  140.7875  158.9867 H   0  0  0  0  0  0  0  0  0  0  0  0
  153.5724  142.0446  157.9316 H   0  0  0  0  0  0  0  0  0  0  0  0
  152.1095  141.5114  161.2880 H   0  0  0  0  0  0  0  0  0  0  0  0
  153.7850  142.0535  161.1359 H   0  0  0  0  0  0  0  0  0  0  0  0
  151.6086  143.4066  162.5277 H   0  0  0  0  0  0  0  0  0  0  0  0
  153.2818  143.9293  162.4000 H   0  0  0  0  0  0  0  0  0  0  0  0
  150.9830  145.0367  160.9939 H   0  0  0  0  0  0  0  0  0  0  0  0
  152.6759  145.5391  160.8341 H   0  0  0  0  0  0  0  0  0  0  0  0
  1  2  1  0  0  0  0
  1 18  1  0  0  0  0
  1 19  1  0  0  0  0
  1 20  1  0  0  0  0
  2  3  1  0  0  0  0
  2  9  1  0  0  0  0
  2 21  1  0  0  0  0
  3  4  1  0  0  0  0
  3 22  1  0  0  0  0
  3 23  1  0  0  0  0
  4  8  1  0  0  0  0
  4  5  1  0  0  0  0
  5  6  2  0  0  0  0
  5 24  1  0  0  0  0
  6  7  1  0  0  0  0
  6 25  1  0  0  0  0
  7  8  2  0  0  0  0
  7 26  1  0  0  0  0
  9 10  1  0  0  0  0
  9 27  1  0  0  0  0
 10 11  1  0  0  0  0
 10 28  1  0  0  0  0
 10 29  1  0  0  0  0
 11 12  1  0  0  0  0
 11 30  1  0  0  0  0
 11 31  1  0  0  0  0
 12 16  1  0  0  0  0
 12 13  1  0  0  0  0
 13 14  1  0  0  0  0
 13 32  1  0  0  0  0
 13 33  1  0  0  0  0
 14 15  1  0  0  0  0
 14 34  1  0  0  0  0
 14 35  1  0  0  0  0
 15 16  1  0  0  0  0
 15 36  1  0  0  0  0
 15 37  1  0  0  0  0
 16 17  2  0  0  0  0
M  END
> <s_m_source_file>
AV-unprocessed.smi

> <i_m_source_file_index>
3140

> <i_lp_mmshare_version>
43012

> <i_f3d_flags>
0

> <s_epik_input>
bjFbY0hdW2NIXVtjSF1uMVtDSDJdW0NAQEhdKFtDSDNdKVtOSF1bQ0gyXVtDSDJdTjJbQ0gyXVtDSDJdW0NIMl1DMj1P

> <s_epik_cmdline>
J2VwaWtfcHl0aG9uJywgJy1waCcsICc3LjAnLCAnLXRuJywgJzgnLCAnLW1hJywgJzIwMCcsICctbWV0YWxfYmluZGluZycsICctaW1hZScsICc8aW5maWxlLm1hZT4nLCAnLW9tYWUnLCAnPG91dGZpbGUubWFlPic=

> <r_lp_tautomer_probability>
1

> <r_epik_Ionization_Penalty>
2.53587

> <r_epik_Ionization_Penalty_Charging>
0

> <r_epik_Ionization_Penalty_Neutral>
2.53587

> <r_epik_State_Penalty>
2.70334

> <r_epik_Charging_Adjusted_Penalty>
2.70334

> <i_epik_Tot_Q>
0

> <i_epik_Tot_abs_Q>
0

> <r_epik_Metal_State_Penalty>
2.7033

> <b_epik_Metal_Only>
0

> <s_lp_Force_Field>
OPLS_2005

> <r_lp_Energy>
23.3858

> <b_lp_Chiralities_Consistent>
1

> <s_lp_Variant>
AV-unprocessed.smi:3140-3

> <Gold.Version>
5.8.1

> <Gold.Id.Protein>
6NUR|6NUR_protein|mol2

> <Gold.PLP.Fitness>
44.1678

> <Gold.PLP.PLP>
-41.6663

> <Gold.PLP.part.hbond>
0.0000

> <Gold.PLP.part.metal>
0.0000

> <Gold.PLP.part.buried>
-5.0292

> <Gold.PLP.part.nonpolar>
-37.5080

> <Gold.PLP.part.repulsive>
1.5097

> <Gold.PLP.ligand.clash>
0.0000

> <Gold.PLP.ligand.torsion>
0.2828

> <Gold.PLP.Chemscore.Hbond>
0.0000

> <Gold.PLP.Chemscore.CHOScore>
1.0000

> <Gold.PLP.Chemscore.Metal>
0.0000

> <Gold.Chemscore.Hbonds>
donor molecule, donor type, donor heavy atom, donor atom, acceptor molecule, acceptor atom, score
      L1  C     5    24       P1  8028  0.97

> <Gold.PLP.Chemscore.Internal.Correction>
0.0672

> <Gold.Rescore>
     Score         DG    S(hbond)    S(metal)    S(lipo)     H(rot)  DE(clash)    DE(int)     intcor
     10.87     -11.07       0.00        0.00      90.91       1.97       0.03       0.17       ----

> <Gold.Chemscore.Fitness>
10.8669

> <Gold.Chemscore.DG>
-11.0679

> <Gold.Chemscore.ZeroCoef>
-5.4800

> <Gold.Chemscore.Hbond>
0.0000

> <Gold.Chemscore.Metal>
0.0000

> <Gold.Chemscore.Lipo>
90.9111

> <Gold.Chemscore.Internal_Hbond>
0.0000

> <Gold.Chemscore.DEClash>
0.0342

> <Gold.Chemscore.DEInternal>
0.1667

> <Gold.Chemscore.Rot>
1.9722

> <Gold.Chemscore.Internal.Correction>
   9.000000E+99

> <Gold.Chemscore.Hbond.Weighted>
-0.0000

> <Gold.Chemscore.Metal.Weighted>
-0.0000

> <Gold.Chemscore.Lipo.Weighted>
-10.6366

> <Gold.Chemscore.Internal_Hbond.Weighted>
0.0000

> <Gold.Chemscore.DEClash.Weighted>
0.0342

> <Gold.Chemscore.DEInternal.Weighted>
0.1667

> <Gold.Chemscore.Rot.Weighted>
5.0487

> <Gold.Chemscore.Internal.Correction.Weighted>
   9.000000E+99

> <Gold.Protein.RotatedTorsions>
[ 6907 6896 6895 6894 ] final   38.93 input  -60.11 | X-H torsion
[ 7974 7965 7964 7962 ] final   58.38 input  175.53 | X-H torsion
[ 8008 7997 7996 7995 ] final  -64.00 input   59.86 | X-H torsion
[ 10167 10162 10161 10158 ] final   79.36 input  -65.29 | X-H torsion
[ 10718 10713 10712 10709 ] final  169.36 input   66.30 | X-H torsion
[ 10763 10752 10751 10750 ] final -158.25 input  -60.55 | X-H torsion
[ 11005 11000 10999 10996 ] final -156.89 input  -57.11 | X-H torsion

> <Gold.Protein.ActiveResidues>
 VAL166  LYS551  ARG553  GLY616  TRP617  ASP618  TYR619  PRO620  LYS621  CYS622 
 ASP623  PHE694  ASN695  SER759  ASP760  ASP761  ALA762  ILE779  LEU786  VAL792 
 PHE793  MET794  SER795  GLU796  ALA797  LYS798  CYS799  TRP800  GLU811  SER814 

> <Gold.Protein.RotatedAtoms>
  152.1630  134.8897  160.0539 H   0  0  0  0  0  0  0  0  0  0  0  0  # atno 6907 bound_to 6896
  151.9886  133.3778  159.4143 H   0  0  0  0  0  0  0  0  0  0  0  0  # atno 6908 bound_to 6896
  150.6890  134.3884  159.5109 H   0  0  0  0  0  0  0  0  0  0  0  0  # atno 6909 bound_to 6896
  145.9188  139.3713  143.0491 H   0  0  0  0  0  0  0  0  0  0  0  0  # atno 7974 bound_to 7965
  154.4586  140.0963  156.6829 H   0  0  0  0  0  0  0  0  0  0  0  0  # atno 8008 bound_to 7997
  155.5062  140.3475  155.4361 H   0  0  0  0  0  0  0  0  0  0  0  0  # atno 8009 bound_to 7997
  156.0827  140.1377  156.9681 H   0  0  0  0  0  0  0  0  0  0  0  0  # atno 8010 bound_to 7997
  139.9612  144.5960  150.8071 H   0  0  0  0  0  0  0  0  0  0  0  0  # atno 10167 bound_to 10162
  157.0237  131.0239  151.2766 H   0  0  0  0  0  0  0  0  0  0  0  0  # atno 10718 bound_to 10713
  154.7572  135.3108  154.8448 H   0  0  0  0  0  0  0  0  0  0  0  0  # atno 10763 bound_to 10752
  153.9219  135.6794  153.4751 H   0  0  0  0  0  0  0  0  0  0  0  0  # atno 10764 bound_to 10752
  153.1170  135.4840  154.9061 H   0  0  0  0  0  0  0  0  0  0  0  0  # atno 10765 bound_to 10752
  140.6706  134.4251  157.5231 H   0  0  0  0  0  0  0  0  0  0  0  0  # atno 11005 bound_to 11000
  145.8577  140.9493  143.0716 LP  0  0  0  0  0  0  0  0  0  0  0  0  # atno 17320 bound_to 7965
  144.6750  140.0489  143.7479 LP  0  0  0  0  0  0  0  0  0  0  0  0  # atno 17321 bound_to 7965
  140.7552  143.3043  151.3002 LP  0  0  0  0  0  0  0  0  0  0  0  0  # atno 17342 bound_to 10162
  139.6553  144.0288  152.2655 LP  0  0  0  0  0  0  0  0  0  0  0  0  # atno 17343 bound_to 10162
  157.5230  130.8010  149.7830 LP  0  0  0  0  0  0  0  0  0  0  0  0  # atno 17370 bound_to 10713
  156.0093  130.3840  150.2320 LP  0  0  0  0  0  0  0  0  0  0  0  0  # atno 17371 bound_to 10713
  139.8983  134.8617  156.2008 LP  0  0  0  0  0  0  0  0  0  0  0  0  # atno 17394 bound_to 11000
  141.0395  133.6945  156.1572 LP  0  0  0  0  0  0  0  0  0  0  0  0  # atno 17395 bound_to 11000

$$$$
