AV-unprocessed.smi:1535|AV-procd|sdf|6176|dock3
  -GOLD-   22720 6333D 1   1.00000     0.00000
 Structure written by MMmdl.
 47 48  0  0  0  0  0  0  0  0  2 V2000
  152.2701  142.2455  159.7379 C   0  0  0  0  0  0  0  0  0  0  0  0
  151.8955  141.5734  158.4280 C   0  0  0  0  0  0  0  0  0  0  0  0
  150.9395  142.1999  157.5971 C   0  0  0  0  0  0  0  0  0  0  0  0
  150.6178  141.5603  156.4057 C   0  0  0  0  0  0  0  0  0  0  0  0
  149.7271  141.9142  155.3902 N   0  3  0  0  0  0  0  0  0  0  0  0
  149.7532  140.9672  154.4122 C   0  0  0  0  0  0  0  0  0  0  0  0
  150.6489  140.0141  154.7870 N   0  0  0  0  0  0  0  0  0  0  0  0
  151.0545  138.7841  154.0924 C   0  0  0  0  0  0  0  0  0  0  0  0
  150.9311  137.5320  154.9841 C   0  0  2  0  0  0  0  0  0  0  0  0
  151.3440  136.3750  154.2846 O   0  0  0  0  0  0  0  0  0  0  0  0
  149.5391  137.2657  155.6017 C   0  0  0  0  0  0  0  0  0  0  0  0
  149.3553  135.9422  156.2078 N   0  0  0  0  0  0  0  0  0  0  0  0
  148.4320  136.0247  157.3357 C   0  0  0  0  0  0  0  0  0  0  0  0
  148.8810  134.9504  155.2372 C   0  0  0  0  0  0  0  0  0  0  0  0
  149.0592  133.4854  155.6754 C   0  0  1  0  0  0  0  0  0  0  0  0
  149.1194  132.5475  154.4638 C   0  0  0  0  0  0  0  0  0  0  0  0
  150.2587  133.3253  156.5141 C   0  0  0  0  0  0  0  0  0  0  0  0
  151.2005  133.2003  157.1750 N   0  0  0  0  0  0  0  0  0  0  0  0
  151.2113  140.3403  156.0274 C   0  0  0  0  0  0  0  0  0  0  0  0
  152.1524  139.7084  156.8373 C   0  0  0  0  0  0  0  0  0  0  0  0
  152.4941  140.3429  158.0525 C   0  0  0  0  0  0  0  0  0  0  0  0
  153.5208  139.6766  158.9523 C   0  0  0  0  0  0  0  0  0  0  0  0
  151.7236  143.1785  159.8785 H   0  0  0  0  0  0  0  0  0  0  0  0
  153.3354  142.4768  159.7586 H   0  0  0  0  0  0  0  0  0  0  0  0
  152.0397  141.5947  160.5813 H   0  0  0  0  0  0  0  0  0  0  0  0
  150.4785  143.1358  157.8769 H   0  0  0  0  0  0  0  0  0  0  0  0
  149.1685  140.9714  153.5035 H   0  0  0  0  0  0  0  0  0  0  0  0
  150.4091  138.6840  153.2190 H   0  0  0  0  0  0  0  0  0  0  0  0
  152.0695  138.9127  153.7190 H   0  0  0  0  0  0  0  0  0  0  0  0
  151.6300  137.6498  155.8130 H   0  0  0  0  0  0  0  0  0  0  0  0
  151.0661  136.4572  153.3849 H   0  0  0  0  0  0  0  0  0  0  0  0
  149.3856  138.0377  156.3578 H   0  0  0  0  0  0  0  0  0  0  0  0
  148.7610  137.4429  154.8573 H   0  0  0  0  0  0  0  0  0  0  0  0
  148.3272  135.0632  157.8366 H   0  0  0  0  0  0  0  0  0  0  0  0
  147.4427  136.3520  157.0131 H   0  0  0  0  0  0  0  0  0  0  0  0
  148.7952  136.7331  158.0812 H   0  0  0  0  0  0  0  0  0  0  0  0
  147.8298  135.1386  155.0134 H   0  0  0  0  0  0  0  0  0  0  0  0
  149.3932  135.0720  154.2861 H   0  0  0  0  0  0  0  0  0  0  0  0
  148.2134  133.1788  156.2895 H   0  0  0  0  0  0  0  0  0  0  0  0
  149.2214  131.5085  154.7789 H   0  0  0  0  0  0  0  0  0  0  0  0
  149.9689  132.7852  153.8226 H   0  0  0  0  0  0  0  0  0  0  0  0
  148.2135  132.6235  153.8621 H   0  0  0  0  0  0  0  0  0  0  0  0
  152.6057  138.7694  156.5583 H   0  0  0  0  0  0  0  0  0  0  0  0
  153.8752  138.7372  158.5265 H   0  0  0  0  0  0  0  0  0  0  0  0
  153.0900  139.4572  159.9293 H   0  0  0  0  0  0  0  0  0  0  0  0
  154.3855  140.3258  159.0919 H   0  0  0  0  0  0  0  0  0  0  0  0
  149.1424  142.7397  155.3646 H   0  0  0  0  0  0  0  0  0  0  0  0
  1  2  1  0  0  0  0
  1 23  1  0  0  0  0
  1 24  1  0  0  0  0
  1 25  1  0  0  0  0
  2 21  1  0  0  0  0
  2  3  2  0  0  0  0
  3  4  1  0  0  0  0
  3 26  1  0  0  0  0
  4 19  2  0  0  0  0
  4  5  1  0  0  0  0
  5  6  2  0  0  0  0
  5 47  1  0  0  0  0
  6  7  1  0  0  0  0
  6 27  1  0  0  0  0
  7  8  1  0  0  0  0
  7 19  1  0  0  0  0
  8  9  1  0  0  0  0
  8 28  1  0  0  0  0
  8 29  1  0  0  0  0
  9 10  1  0  0  0  0
  9 11  1  0  0  0  0
  9 30  1  0  0  0  0
 10 31  1  0  0  0  0
 11 12  1  0  0  0  0
 11 32  1  0  0  0  0
 11 33  1  0  0  0  0
 12 13  1  0  0  0  0
 12 14  1  0  0  0  0
 13 34  1  0  0  0  0
 13 35  1  0  0  0  0
 13 36  1  0  0  0  0
 14 15  1  0  0  0  0
 14 37  1  0  0  0  0
 14 38  1  0  0  0  0
 15 16  1  0  0  0  0
 15 17  1  0  0  0  0
 15 39  1  0  0  0  0
 16 40  1  0  0  0  0
 16 41  1  0  0  0  0
 16 42  1  0  0  0  0
 17 18  3  0  0  0  0
 19 20  1  0  0  0  0
 20 21  2  0  0  0  0
 20 43  1  0  0  0  0
 21 22  1  0  0  0  0
 22 44  1  0  0  0  0
 22 45  1  0  0  0  0
 22 46  1  0  0  0  0
M  CHG  1   5   1
M  END
> <s_m_source_file>
AV-unprocessed.smi

> <i_m_source_file_index>
1535

> <i_lp_mmshare_version>
43012

> <i_f3d_flags>
0

> <s_epik_input>
W0NIM11jKFtjSF0xKWMoW0NIM10pW2NIXWMoYzEyKW4oW2NIXW4yKVtDSDJdW0NASF0oW09IXSlbQ0gyXU4oW0NIM10pW0NIMl1bQ0BIXShbQ0gzXSlDI04=

> <s_epik_cmdline>
J2VwaWtfcHl0aG9uJywgJy1waCcsICc3LjAnLCAnLXRuJywgJzgnLCAnLW1hJywgJzIwMCcsICctbWV0YWxfYmluZGluZycsICctaW1hZScsICc8aW5maWxlLm1hZT4nLCAnLW9tYWUnLCAnPG91dGZpbGUubWFlPic=

> <r_epik_Ionization_Penalty>
1.22846

> <r_epik_Ionization_Penalty_Charging>
1.21333

> <r_epik_Ionization_Penalty_Neutral>
0.0151341

> <r_epik_State_Penalty>
1.27012

> <r_epik_Charging_Adjusted_Penalty>
2.48344

> <i_epik_Tot_Q>
1

> <i_epik_Tot_abs_Q>
1

> <r_epik_Metal_State_Penalty>
5.28751

> <b_epik_Metal_Only>
0

> <s_lp_Force_Field>
OPLS_2005

> <r_lp_Energy>
31.5295

> <b_lp_Chiralities_Consistent>
1

> <s_lp_Variant>
AV-unprocessed.smi:1535-7

> <Gold.Version>
5.8.1

> <Gold.Id.Protein>
6NUR|6NUR_protein|mol2

> <Gold.PLP.Fitness>
50.8236

> <Gold.PLP.PLP>
-35.1898

> <Gold.PLP.part.hbond>
-4.0000

> <Gold.PLP.part.metal>
0.0000

> <Gold.PLP.part.buried>
1.3170

> <Gold.PLP.part.nonpolar>
-31.5324

> <Gold.PLP.part.repulsive>
0.2127

> <Gold.PLP.ligand.clash>
0.0000

> <Gold.PLP.ligand.torsion>
0.9655

> <Gold.PLP.Chemscore.Hbond>
4.8320

> <Gold.PLP.Chemscore.CHOScore>
0.9966

> <Gold.PLP.Chemscore.Metal>
0.0000

> <Gold.Chemscore.Hbonds>
donor molecule, donor type, donor heavy atom, donor atom, acceptor molecule, acceptor atom, score
      L1  H     5    47       P1  8028  2.00
      L1  H    10    31       P1  7949  1.00
      P1  H  6896  6907       L1    18  0.81
      P1  H 10752 10765       L1    10  1.00
      L1  C     6    27       P1  7957  0.94

> <Gold.PLP.Chemscore.Internal.Correction>
0.0790

> <Gold.Rescore>
     Score         DG    S(hbond)    S(metal)    S(lipo)     H(rot)  DE(clash)    DE(int)     intcor
     15.53     -16.63       2.39        0.00      83.74       2.59       0.07       1.04       ----

> <Gold.Chemscore.Fitness>
15.5257

> <Gold.Chemscore.DG>
-16.6330

> <Gold.Chemscore.ZeroCoef>
-5.4800

> <Gold.Chemscore.Hbond>
2.3923

> <Gold.Chemscore.Metal>
0.0000

> <Gold.Chemscore.Lipo>
83.7412

> <Gold.Chemscore.Internal_Hbond>
0.0000

> <Gold.Chemscore.DEClash>
0.0712

> <Gold.Chemscore.DEInternal>
1.0361

> <Gold.Chemscore.Rot>
2.5918

> <Gold.Chemscore.Internal.Correction>
   9.000000E+99

> <Gold.Chemscore.Hbonds>
donor molecule, donor type, donor heavy atom, donor atom, acceptor molecule, acceptor atom, score
      L1  H     5    47       P1  8028  0.91
      L1  H    10    31       P1  7949  0.29
      P1  H  6896  6907       L1    18  0.75
      P1  H 10752 10765       L1    10  0.40

> <Gold.Chemscore.Hbond.Weighted>
-7.9903

> <Gold.Chemscore.Metal.Weighted>
-0.0000

> <Gold.Chemscore.Lipo.Weighted>
-9.7977

> <Gold.Chemscore.Internal_Hbond.Weighted>
0.0000

> <Gold.Chemscore.DEClash.Weighted>
0.0712

> <Gold.Chemscore.DEInternal.Weighted>
1.0361

> <Gold.Chemscore.Rot.Weighted>
6.6351

> <Gold.Chemscore.Internal.Correction.Weighted>
   9.000000E+99

> <Gold.Protein.RotatedTorsions>
[ 6907 6896 6895 6894 ] final -150.39 input  -60.11 | X-H torsion
[ 7974 7965 7964 7962 ] final   48.80 input  175.53 | X-H torsion
[ 8008 7997 7996 7995 ] final   21.03 input   59.86 | X-H torsion
[ 10167 10162 10161 10158 ] final  137.80 input  -65.29 | X-H torsion
[ 10718 10713 10712 10709 ] final  107.74 input   66.30 | X-H torsion
[ 10763 10752 10751 10750 ] final  152.57 input  -60.55 | X-H torsion
[ 11005 11000 10999 10996 ] final -148.20 input  -57.11 | X-H torsion

> <Gold.Protein.ActiveResidues>
 VAL166  LYS551  ARG553  GLY616  TRP617  ASP618  TYR619  PRO620  LYS621  CYS622 
 ASP623  PHE694  ASN695  SER759  ASP760  ASP761  ALA762  ILE779  LEU786  VAL792 
 PHE793  MET794  SER795  GLU796  ALA797  LYS798  CYS799  TRP800  GLU811  SER814 

> <Gold.Protein.RotatedAtoms>
  151.1979  133.4628  159.2595 H   0  0  0  0  0  0  0  0  0  0  0  0  # atno 6907 bound_to 6896
  151.1099  135.0020  159.8499 H   0  0  0  0  0  0  0  0  0  0  0  0  # atno 6908 bound_to 6896
  152.5449  134.1899  159.8722 H   0  0  0  0  0  0  0  0  0  0  0  0  # atno 6909 bound_to 6896
  146.0170  139.4608  142.9921 H   0  0  0  0  0  0  0  0  0  0  0  0  # atno 7974 bound_to 7965
  154.9445  140.3057  155.5105 H   0  0  0  0  0  0  0  0  0  0  0  0  # atno 8008 bound_to 7997
  156.2993  140.2330  156.4454 H   0  0  0  0  0  0  0  0  0  0  0  0  # atno 8009 bound_to 7997
  154.8114  140.0428  157.1334 H   0  0  0  0  0  0  0  0  0  0  0  0  # atno 8010 bound_to 7997
  139.5132  144.6390  151.5621 H   0  0  0  0  0  0  0  0  0  0  0  0  # atno 10167 bound_to 10162
  157.6615  131.0879  150.6202 H   0  0  0  0  0  0  0  0  0  0  0  0  # atno 10718 bound_to 10713
  154.1222  135.2832  155.3206 H   0  0  0  0  0  0  0  0  0  0  0  0  # atno 10763 bound_to 10752
  154.6415  135.5401  153.7798 H   0  0  0  0  0  0  0  0  0  0  0  0  # atno 10764 bound_to 10752
  153.0309  135.6487  154.1375 H   0  0  0  0  0  0  0  0  0  0  0  0  # atno 10765 bound_to 10752
  140.7638  134.3268  157.5094 H   0  0  0  0  0  0  0  0  0  0  0  0  # atno 11005 bound_to 11000
  145.7253  141.0061  143.1381 LP  0  0  0  0  0  0  0  0  0  0  0  0  # atno 17320 bound_to 7965
  144.6975  139.8919  143.7453 LP  0  0  0  0  0  0  0  0  0  0  0  0  # atno 17321 bound_to 7965
  140.6149  143.9367  150.6481 LP  0  0  0  0  0  0  0  0  0  0  0  0  # atno 17342 bound_to 10162
  140.2622  143.3516  152.1313 LP  0  0  0  0  0  0  0  0  0  0  0  0  # atno 17343 bound_to 10162
  156.6504  130.4483  149.5721 LP  0  0  0  0  0  0  0  0  0  0  0  0  # atno 17370 bound_to 10713
  156.2142  130.6697  151.1301 LP  0  0  0  0  0  0  0  0  0  0  0  0  # atno 17371 bound_to 10713
  139.8766  134.9218  156.3285 LP  0  0  0  0  0  0  0  0  0  0  0  0  # atno 17394 bound_to 11000
  140.9638  133.7371  156.0439 LP  0  0  0  0  0  0  0  0  0  0  0  0  # atno 17395 bound_to 11000

$$$$
