AV-unprocessed.smi:34|AV-procd|sdf|215|dock2
  -GOLD-   2262015523D 1   1.00000     0.00000
 Structure written by MMmdl.
 55 59  0  0  0  0  0  0  0  0  1 V2000
  142.4946  134.2901  158.4795 O   0  0  0  0  0  0  0  0  0  0  0  0
  143.4483  133.5630  158.1999 C   0  0  0  0  0  0  0  0  0  0  0  0
  144.6976  134.0914  157.6815 N   0  0  0  0  0  0  0  0  0  0  0  0
  145.0310  135.3840  157.4579 C   0  0  0  0  0  0  0  0  0  0  0  0
  144.4506  136.4143  158.1272 N   0  0  0  0  0  0  0  0  0  0  0  0
  144.8022  137.6741  157.8564 C   0  0  0  0  0  0  0  0  0  0  0  0
  145.6937  138.1173  156.9679 N   0  0  0  0  0  0  0  0  0  0  0  0
  146.2884  137.0900  156.2961 C   0  0  0  0  0  0  0  0  0  0  0  0
  146.0149  135.7065  156.4877 C   0  0  0  0  0  0  0  0  0  0  0  0
  146.8067  134.9471  155.6372 N   0  0  0  0  0  0  0  0  0  0  0  0
  147.5015  135.8347  154.9786 C   0  0  0  0  0  0  0  0  0  0  0  0
  147.2458  137.1491  155.3019 N   0  0  0  0  0  0  0  0  0  0  0  0
  147.8787  138.3625  154.6966 C   0  0  2  0  0  0  0  0  0  0  0  0
  149.1990  138.4548  155.1531 O   0  0  0  0  0  0  0  0  0  0  0  0
  149.3786  139.6644  155.8887 C   0  0  1  0  0  0  0  0  0  0  0  0
  150.8221  140.1711  155.7748 C   0  0  0  0  0  0  0  0  0  0  0  0
  151.0181  141.2261  156.7025 O   0  0  0  0  0  0  0  0  0  0  0  0
  151.9735  141.1287  157.6466 C   0  0  0  0  0  0  0  0  0  0  0  0
  152.7043  140.1449  157.7786 O   0  0  0  0  0  0  0  0  0  0  0  0
  152.0567  142.3397  158.5137 C   0  0  0  0  0  0  0  0  0  0  0  0
  151.6982  143.6000  157.9810 C   0  0  0  0  0  0  0  0  0  0  0  0
  151.7649  144.7608  158.7762 C   0  0  0  0  0  0  0  0  0  0  0  0
  152.1913  144.6755  160.1143 C   0  0  0  0  0  0  0  0  0  0  0  0
  152.5501  143.4276  160.6566 C   0  0  0  0  0  0  0  0  0  0  0  0
  152.4836  142.2657  159.8630 C   0  0  0  0  0  0  0  0  0  0  0  0
  148.3161  140.5981  155.3106 C   0  0  1  0  0  0  0  0  0  0  0  0
  148.7371  141.0612  154.1292 F   0  0  0  0  0  0  0  0  0  0  0  0
  147.1497  139.6426  155.1291 C   0  0  1  0  0  0  0  0  0  0  0  0
  146.2473  140.1398  154.1616 O   0  0  0  0  0  0  0  0  0  0  0  0
  143.3565  132.0678  158.2978 C   0  0  0  0  0  0  0  0  0  0  0  0
  144.4742  131.2686  157.9677 C   0  0  0  0  0  0  0  0  0  0  0  0
  144.3961  129.8645  158.0481 C   0  0  0  0  0  0  0  0  0  0  0  0
  143.1972  129.2471  158.4514 C   0  0  0  0  0  0  0  0  0  0  0  0
  142.0748  130.0348  158.7700 C   0  0  0  0  0  0  0  0  0  0  0  0
  142.1517  131.4391  158.6901 C   0  0  0  0  0  0  0  0  0  0  0  0
  145.4035  133.4078  157.4503 H   0  0  0  0  0  0  0  0  0  0  0  0
  144.2949  138.4346  158.4316 H   0  0  0  0  0  0  0  0  0  0  0  0
  148.2199  135.5512  154.2231 H   0  0  0  0  0  0  0  0  0  0  0  0
  147.8716  138.1902  153.6194 H   0  0  0  0  0  0  0  0  0  0  0  0
  149.1529  139.4719  156.9369 H   0  0  0  0  0  0  0  0  0  0  0  0
  151.5203  139.3623  155.9938 H   0  0  0  0  0  0  0  0  0  0  0  0
  151.0277  140.5137  154.7596 H   0  0  0  0  0  0  0  0  0  0  0  0
  151.3672  143.6905  156.9562 H   0  0  0  0  0  0  0  0  0  0  0  0
  151.4879  145.7174  158.3585 H   0  0  0  0  0  0  0  0  0  0  0  0
  152.2425  145.5658  160.7237 H   0  0  0  0  0  0  0  0  0  0  0  0
  152.8764  143.3602  161.6840 H   0  0  0  0  0  0  0  0  0  0  0  0
  152.7655  141.3241  160.3111 H   0  0  0  0  0  0  0  0  0  0  0  0
  148.0892  141.4519  155.9498 H   0  0  0  0  0  0  0  0  0  0  0  0
  146.6400  139.4865  156.0807 H   0  0  0  0  0  0  0  0  0  0  0  0
  146.1738  139.5032  153.4669 H   0  0  0  0  0  0  0  0  0  0  0  0
  145.4023  131.7274  157.6573 H   0  0  0  0  0  0  0  0  0  0  0  0
  145.2573  129.2611  157.8007 H   0  0  0  0  0  0  0  0  0  0  0  0
  143.1375  128.1706  158.5138 H   0  0  0  0  0  0  0  0  0  0  0  0
  141.1534  129.5610  159.0749 H   0  0  0  0  0  0  0  0  0  0  0  0
  141.2763  132.0241  158.9325 H   0  0  0  0  0  0  0  0  0  0  0  0
  1  2  2  0  0  0  0
  2  3  1  0  0  0  0
  2 30  1  0  0  0  0
  3  4  1  0  0  0  0
  3 36  1  0  0  0  0
  4  9  1  0  0  0  0
  4  5  2  0  0  0  0
  5  6  1  0  0  0  0
  6  7  2  0  0  0  0
  6 37  1  0  0  0  0
  7  8  1  0  0  0  0
  8 12  1  0  0  0  0
  8  9  2  0  0  0  0
  9 10  1  0  0  0  0
 10 11  2  0  0  0  0
 11 12  1  0  0  0  0
 11 38  1  0  0  0  0
 12 13  1  0  0  0  0
 13 28  1  0  0  0  0
 13 14  1  0  0  0  0
 13 39  1  0  0  0  0
 14 15  1  0  0  0  0
 15 16  1  0  0  0  0
 15 26  1  0  0  0  0
 15 40  1  0  0  0  0
 16 17  1  0  0  0  0
 16 41  1  0  0  0  0
 16 42  1  0  0  0  0
 17 18  1  0  0  0  0
 18 19  2  0  0  0  0
 18 20  1  0  0  0  0
 20 25  1  0  0  0  0
 20 21  2  0  0  0  0
 21 22  1  0  0  0  0
 21 43  1  0  0  0  0
 22 23  2  0  0  0  0
 22 44  1  0  0  0  0
 23 24  1  0  0  0  0
 23 45  1  0  0  0  0
 24 25  2  0  0  0  0
 24 46  1  0  0  0  0
 25 47  1  0  0  0  0
 26 27  1  0  0  0  0
 26 28  1  0  0  0  0
 26 48  1  0  0  0  0
 28 29  1  0  0  0  0
 28 49  1  0  0  0  0
 29 50  1  0  0  0  0
 30 35  1  0  0  0  0
 30 31  2  0  0  0  0
 31 32  1  0  0  0  0
 31 51  1  0  0  0  0
 32 33  2  0  0  0  0
 32 52  1  0  0  0  0
 33 34  1  0  0  0  0
 33 53  1  0  0  0  0
 34 35  2  0  0  0  0
 34 54  1  0  0  0  0
 35 55  1  0  0  0  0
M  END
> <s_m_source_file>
AV-unprocessed.smi

> <i_m_source_file_index>
34

> <i_lp_mmshare_version>
43012

> <i_f3d_flags>
0

> <s_epik_input>
W2NIXTFbY0hdW2NIXVtjSF1bY0hdYzFDKD1PKVtOSF1jKG5bY0hdbjIpYyhjMjMpbltjSF1uM1tDQEBIXTRPW0NASF0oW0NAQEhdKEYpW0NASF00W09IXSlbQ0gyXU9DKD1PKWM1W2NIXVtjSF1bY0hdW2NIXVtjSF01

> <s_epik_cmdline>
J2VwaWtfcHl0aG9uJywgJy1waCcsICc3LjAnLCAnLXRuJywgJzgnLCAnLW1hJywgJzIwMCcsICctbWV0YWxfYmluZGluZycsICctaW1hZScsICc8aW5maWxlLm1hZT4nLCAnLW9tYWUnLCAnPG91dGZpbGUubWFlPic=

> <r_lp_tautomer_probability>
1

> <r_epik_Ionization_Penalty>
0.00257489

> <r_epik_Ionization_Penalty_Charging>
0

> <r_epik_Ionization_Penalty_Neutral>
0.00257489

> <r_epik_State_Penalty>
0.00519398

> <r_epik_Charging_Adjusted_Penalty>
0.00519398

> <i_epik_Tot_Q>
0

> <i_epik_Tot_abs_Q>
0

> <r_epik_Metal_State_Penalty>
0.335891

> <b_epik_Metal_Only>
0

> <s_epik_Chemistry_Notes>
This compound has an ester and may undergo hydrolysis at high or low pH. This compound contains an acetal/aminal-like group ( X-CH(R)-Y where X, Y are N, S, or O) that may be acid/base labile, releasing an aldehyde.

> <s_lp_Force_Field>
OPLS_2005

> <r_lp_Energy>
46.7099

> <b_lp_Chiralities_Consistent>
1

> <s_lp_Variant>
AV-unprocessed.smi:34-1

> <Gold.Version>
5.8.1

> <Gold.Id.Protein>
6NUR|6NUR_protein|mol2

> <Gold.PLP.Fitness>
51.5158

> <Gold.PLP.PLP>
-44.5744

> <Gold.PLP.part.hbond>
-3.0000

> <Gold.PLP.part.metal>
0.0000

> <Gold.PLP.part.buried>
-6.9183

> <Gold.PLP.part.nonpolar>
-34.7712

> <Gold.PLP.part.repulsive>
0.1961

> <Gold.PLP.ligand.clash>
0.0000

> <Gold.PLP.ligand.torsion>
1.1975

> <Gold.PLP.Chemscore.Hbond>
2.0000

> <Gold.PLP.Chemscore.CHOScore>
1.0000

> <Gold.PLP.Chemscore.Metal>
0.0000

> <Gold.Chemscore.Hbonds>
donor molecule, donor type, donor heavy atom, donor atom, acceptor molecule, acceptor atom, score
      P1  H  7997  8008       L1    19  1.00
      P1  H 11000 11005       L1     1  1.00
      L1  C    11    38       P1  7948  0.95

> <Gold.PLP.Chemscore.Internal.Correction>
0.3365

> <Gold.Rescore>
     Score         DG    S(hbond)    S(metal)    S(lipo)     H(rot)  DE(clash)    DE(int)     intcor
     13.81     -17.38       1.92        0.00     106.40       2.72       0.02       3.55       ----

> <Gold.Chemscore.Fitness>
13.8088

> <Gold.Chemscore.DG>
-17.3761

> <Gold.Chemscore.ZeroCoef>
-5.4800

> <Gold.Chemscore.Hbond>
1.9206

> <Gold.Chemscore.Metal>
0.0000

> <Gold.Chemscore.Lipo>
106.3961

> <Gold.Chemscore.Internal_Hbond>
0.0000

> <Gold.Chemscore.DEClash>
0.0168

> <Gold.Chemscore.DEInternal>
3.5504

> <Gold.Chemscore.Rot>
2.7215

> <Gold.Chemscore.Internal.Correction>
   9.000000E+99

> <Gold.Chemscore.Hbonds>
donor molecule, donor type, donor heavy atom, donor atom, acceptor molecule, acceptor atom, score
      P1  H  7997  8008       L1    19  0.88
      P1  H 11000 11005       L1     1  0.94

> <Gold.Chemscore.Hbond.Weighted>
-6.4148

> <Gold.Chemscore.Metal.Weighted>
-0.0000

> <Gold.Chemscore.Lipo.Weighted>
-12.4483

> <Gold.Chemscore.Internal_Hbond.Weighted>
0.0000

> <Gold.Chemscore.DEClash.Weighted>
0.0168

> <Gold.Chemscore.DEInternal.Weighted>
3.5504

> <Gold.Chemscore.Rot.Weighted>
6.9670

> <Gold.Chemscore.Internal.Correction.Weighted>
   9.000000E+99

> <Gold.Protein.RotatedTorsions>
[ 6907 6896 6895 6894 ] final -169.71 input  -60.11 | X-H torsion
[ 7974 7965 7964 7962 ] final  -17.98 input  175.53 | X-H torsion
[ 8008 7997 7996 7995 ] final  -66.85 input   59.86 | X-H torsion
[ 10167 10162 10161 10158 ] final   88.07 input  -65.29 | X-H torsion
[ 10718 10713 10712 10709 ] final   45.18 input   66.30 | X-H torsion
[ 10763 10752 10751 10750 ] final  120.27 input  -60.55 | X-H torsion
[ 11005 11000 10999 10996 ] final -130.42 input  -57.11 | X-H torsion

> <Gold.Protein.ActiveResidues>
 VAL166  LYS551  ARG553  GLY616  TRP617  ASP618  TYR619  PRO620  LYS621  CYS622 
 ASP623  PHE694  ASN695  SER759  ASP760  ASP761  ALA762  ILE779  LEU786  VAL792 
 PHE793  MET794  SER795  GLU796  ALA797  LYS798  CYS799  TRP800  GLU811  SER814 

> <Gold.Protein.RotatedAtoms>
  151.4960  133.3514  159.2860 H   0  0  0  0  0  0  0  0  0  0  0  0  # atno 6907 bound_to 6896
  150.8804  134.8196  159.7231 H   0  0  0  0  0  0  0  0  0  0  0  0  # atno 6908 bound_to 6896
  152.4759  134.4856  159.9731 H   0  0  0  0  0  0  0  0  0  0  0  0  # atno 6909 bound_to 6896
  146.1915  140.3856  142.8456 H   0  0  0  0  0  0  0  0  0  0  0  0  # atno 7974 bound_to 7965
  154.4761  140.0904  156.7265 H   0  0  0  0  0  0  0  0  0  0  0  0  # atno 8008 bound_to 7997
  155.4593  140.3460  155.4292 H   0  0  0  0  0  0  0  0  0  0  0  0  # atno 8009 bound_to 7997
  156.1118  140.1450  156.9316 H   0  0  0  0  0  0  0  0  0  0  0  0  # atno 8010 bound_to 7997
  139.8709  144.6493  150.8950 H   0  0  0  0  0  0  0  0  0  0  0  0  # atno 10167 bound_to 10162
  157.4348  130.8046  149.7637 H   0  0  0  0  0  0  0  0  0  0  0  0  # atno 10718 bound_to 10713
  153.5958  135.3457  155.2927 H   0  0  0  0  0  0  0  0  0  0  0  0  # atno 10763 bound_to 10752
  154.8644  135.4216  154.2466 H   0  0  0  0  0  0  0  0  0  0  0  0  # atno 10764 bound_to 10752
  153.3284  135.7042  153.7041 H   0  0  0  0  0  0  0  0  0  0  0  0  # atno 10765 bound_to 10752
  140.9347  134.1272  157.4204 H   0  0  0  0  0  0  0  0  0  0  0  0  # atno 11005 bound_to 11000
  144.8496  140.6980  143.6177 LP  0  0  0  0  0  0  0  0  0  0  0  0  # atno 17320 bound_to 7965
  145.3778  139.1644  143.4297 LP  0  0  0  0  0  0  0  0  0  0  0  0  # atno 17321 bound_to 7965
  140.7761  143.3664  151.1730 LP  0  0  0  0  0  0  0  0  0  0  0  0  # atno 17342 bound_to 10162
  139.7284  143.9111  152.3011 LP  0  0  0  0  0  0  0  0  0  0  0  0  # atno 17343 bound_to 10162
  155.9926  130.3929  150.2934 LP  0  0  0  0  0  0  0  0  0  0  0  0  # atno 17370 bound_to 10713
  157.1094  131.0217  151.3054 LP  0  0  0  0  0  0  0  0  0  0  0  0  # atno 17371 bound_to 10713
  139.8805  135.0017  156.6082 LP  0  0  0  0  0  0  0  0  0  0  0  0  # atno 17394 bound_to 11000
  140.7815  133.8656  155.8571 LP  0  0  0  0  0  0  0  0  0  0  0  0  # atno 17395 bound_to 11000

$$$$
