AV-unprocessed.smi:281|AV-procd|sdf|2105|dock8
  -GOLD-   2262021393D 1   1.00000     0.00000
 Structure written by MMmdl.
 55 59  0  0  0  0  0  0  0  0  1 V2000
  148.0152  135.3882  160.7754 C   0  0  0  0  0  0  0  0  0  0  0  0
  148.3850  135.9367  159.3938 C   0  0  2  0  0  0  0  0  0  0  0  0
  148.3979  134.8367  158.3212 C   0  0  0  0  0  0  0  0  0  0  0  0
  148.8369  135.3814  157.0387 N   0  0  0  0  0  0  0  0  0  0  0  0
  148.6874  134.5956  155.9388 C   0  0  0  0  0  0  0  0  0  0  0  0
  149.7802  134.2299  155.2144 N   0  0  0  0  0  0  0  0  0  0  0  0
  149.6505  133.4660  154.1263 C   0  0  0  0  0  0  0  0  0  0  0  0
  148.5392  132.9581  153.5921 N   0  0  0  0  0  0  0  0  0  0  0  0
  147.4383  133.3098  154.3156 C   0  0  0  0  0  0  0  0  0  0  0  0
  147.4220  134.1196  155.4876 C   0  0  0  0  0  0  0  0  0  0  0  0
  146.1166  134.2534  155.9445 N   0  0  0  0  0  0  0  0  0  0  0  0
  145.4034  133.5736  155.0899 C   0  0  0  0  0  0  0  0  0  0  0  0
  146.1179  132.9638  154.0841 N   0  0  0  0  0  0  0  0  0  0  0  0
  145.5807  132.1464  153.0063 C   0  0  0  0  0  0  0  0  0  0  0  0
  145.6902  132.8071  151.6107 C   0  0  1  0  0  0  0  0  0  0  0  0
  147.0586  133.0113  151.3083 O   0  0  0  0  0  0  0  0  0  0  0  0
  145.0587  131.9523  150.5095 C   0  0  0  0  0  0  0  0  0  0  0  0
  143.7982  132.7232  150.1360 C   0  0  0  0  0  0  0  0  0  0  0  0
  144.2047  134.0712  150.2870 O   0  0  0  0  0  0  0  0  0  0  0  0
  144.9404  134.1502  151.4992 C   0  0  0  0  0  0  0  0  0  0  0  0
  150.1138  136.0873  157.1174 C   0  0  0  0  0  0  0  0  0  0  0  0
  150.1337  137.1290  158.2699 C   0  0  1  0  0  0  0  0  0  0  0  0
  151.5597  137.6017  158.5263 C   0  0  0  0  0  0  0  0  0  0  0  0
  151.6815  138.8212  157.6280 C   0  0  0  0  0  0  0  0  0  0  0  0
  150.4297  139.4637  157.7887 O   0  0  0  0  0  0  0  0  0  0  0  0
  149.4151  138.4856  158.0075 C   0  0  1  0  0  0  0  0  0  0  0  0
  148.4064  138.5499  156.8502 C   0  0  0  0  0  0  0  0  0  0  0  0
  149.6861  136.5113  159.4786 O   0  0  0  0  0  0  0  0  0  0  0  0
  147.0191  134.9452  160.7681 H   0  0  0  0  0  0  0  0  0  0  0  0
  148.0198  136.1820  161.5227 H   0  0  0  0  0  0  0  0  0  0  0  0
  148.7208  134.6223  161.0986 H   0  0  0  0  0  0  0  0  0  0  0  0
  147.6581  136.7040  159.1258 H   0  0  0  0  0  0  0  0  0  0  0  0
  149.0672  134.0291  158.6220 H   0  0  0  0  0  0  0  0  0  0  0  0
  147.3975  134.4131  158.2231 H   0  0  0  0  0  0  0  0  0  0  0  0
  150.5689  133.2283  153.6098 H   0  0  0  0  0  0  0  0  0  0  0  0
  144.3294  133.4922  155.1750 H   0  0  0  0  0  0  0  0  0  0  0  0
  146.1019  131.1879  153.0135 H   0  0  0  0  0  0  0  0  0  0  0  0
  144.5365  131.9253  153.2316 H   0  0  0  0  0  0  0  0  0  0  0  0
  147.3919  132.2300  150.8934 H   0  0  0  0  0  0  0  0  0  0  0  0
  145.7099  131.8942  149.6354 H   0  0  0  0  0  0  0  0  0  0  0  0
  144.8410  130.9303  150.8219 H   0  0  0  0  0  0  0  0  0  0  0  0
  143.4598  132.5135  149.1212 H   0  0  0  0  0  0  0  0  0  0  0  0
  142.9828  132.5033  150.8270 H   0  0  0  0  0  0  0  0  0  0  0  0
  144.2217  134.2696  152.3102 H   0  0  0  0  0  0  0  0  0  0  0  0
  145.5972  135.0211  151.5113 H   0  0  0  0  0  0  0  0  0  0  0  0
  150.8848  135.3359  157.2934 H   0  0  0  0  0  0  0  0  0  0  0  0
  150.3712  136.5688  156.1756 H   0  0  0  0  0  0  0  0  0  0  0  0
  151.6737  137.9138  159.5656 H   0  0  0  0  0  0  0  0  0  0  0  0
  152.3191  136.8457  158.3243 H   0  0  0  0  0  0  0  0  0  0  0  0
  152.5072  139.4748  157.9096 H   0  0  0  0  0  0  0  0  0  0  0  0
  151.8114  138.5291  156.5851 H   0  0  0  0  0  0  0  0  0  0  0  0
  148.9030  138.7941  158.9198 H   0  0  0  0  0  0  0  0  0  0  0  0
  147.6034  137.8234  156.9704 H   0  0  0  0  0  0  0  0  0  0  0  0
  148.8902  138.3731  155.8911 H   0  0  0  0  0  0  0  0  0  0  0  0
  147.9457  139.5364  156.8005 H   0  0  0  0  0  0  0  0  0  0  0  0
  1  2  1  0  0  0  0
  1 29  1  0  0  0  0
  1 30  1  0  0  0  0
  1 31  1  0  0  0  0
  2 28  1  0  0  0  0
  2  3  1  0  0  0  0
  2 32  1  0  0  0  0
  3  4  1  0  0  0  0
  3 33  1  0  0  0  0
  3 34  1  0  0  0  0
  4  5  1  0  0  0  0
  4 21  1  0  0  0  0
  5 10  1  0  0  0  0
  5  6  2  0  0  0  0
  6  7  1  0  0  0  0
  7  8  2  0  0  0  0
  7 35  1  0  0  0  0
  8  9  1  0  0  0  0
  9 13  1  0  0  0  0
  9 10  2  0  0  0  0
 10 11  1  0  0  0  0
 11 12  2  0  0  0  0
 12 13  1  0  0  0  0
 12 36  1  0  0  0  0
 13 14  1  0  0  0  0
 14 15  1  0  0  0  0
 14 37  1  0  0  0  0
 14 38  1  0  0  0  0
 15 20  1  0  0  0  0
 15 16  1  0  0  0  0
 15 17  1  0  0  0  0
 16 39  1  0  0  0  0
 17 18  1  0  0  0  0
 17 40  1  0  0  0  0
 17 41  1  0  0  0  0
 18 19  1  0  0  0  0
 18 42  1  0  0  0  0
 18 43  1  0  0  0  0
 19 20  1  0  0  0  0
 20 44  1  0  0  0  0
 20 45  1  0  0  0  0
 21 22  1  0  0  0  0
 21 46  1  0  0  0  0
 21 47  1  0  0  0  0
 22 26  1  0  0  0  0
 22 23  1  0  0  0  0
 22 28  1  0  0  0  0
 23 24  1  0  0  0  0
 23 48  1  0  0  0  0
 23 49  1  0  0  0  0
 24 25  1  0  0  0  0
 24 50  1  0  0  0  0
 24 51  1  0  0  0  0
 25 26  1  0  0  0  0
 26 27  1  0  0  0  0
 26 52  1  0  0  0  0
 27 53  1  0  0  0  0
 27 54  1  0  0  0  0
 27 55  1  0  0  0  0
M  END
> <s_m_source_file>
AV-unprocessed.smi

> <i_m_source_file_index>
281

> <i_lp_mmshare_version>
43012

> <i_f3d_flags>
0

> <s_epik_input>
W0NIM11bQ0BASF0xT1tDSDJdW0NIMl1bQ0BAXTEyW0NIMl1OKFtDSDJdW0NASF0oTzIpW0NIM10pYyhuW2NIXW4zKWMoYzM0KW5bY0hdbjRbQ0gyXVtDQEBdNShbT0hdKVtDSDJdW0NIMl1PW0NIMl01

> <s_epik_cmdline>
J2VwaWtfcHl0aG9uJywgJy1waCcsICc3LjAnLCAnLXRuJywgJzgnLCAnLW1hJywgJzIwMCcsICctbWV0YWxfYmluZGluZycsICctaW1hZScsICc8aW5maWxlLm1hZT4nLCAnLW9tYWUnLCAnPG91dGZpbGUubWFlPic=

> <r_lp_tautomer_probability>
1

> <r_epik_Ionization_Penalty>
0.00571331

> <r_epik_Ionization_Penalty_Charging>
0

> <r_epik_Ionization_Penalty_Neutral>
0.00571331

> <r_epik_State_Penalty>
0.00399586

> <r_epik_Charging_Adjusted_Penalty>
0.00399586

> <i_epik_Tot_Q>
0

> <i_epik_Tot_abs_Q>
0

> <r_epik_Metal_State_Penalty>
-0

> <b_epik_Metal_Only>
0

> <s_lp_Force_Field>
OPLS_2005

> <r_lp_Energy>
53.3416

> <b_lp_Chiralities_Consistent>
1

> <s_lp_Variant>
AV-unprocessed.smi:281-5

> <Gold.Version>
5.8.1

> <Gold.Id.Protein>
6NUR|6NUR_protein|mol2

> <Gold.PLP.Fitness>
39.2976

> <Gold.PLP.PLP>
-30.6413

> <Gold.PLP.part.hbond>
-1.9804

> <Gold.PLP.part.metal>
0.0000

> <Gold.PLP.part.buried>
-8.6527

> <Gold.PLP.part.nonpolar>
-21.2257

> <Gold.PLP.part.repulsive>
1.2853

> <Gold.PLP.ligand.clash>
0.0000

> <Gold.PLP.ligand.torsion>
0.3072

> <Gold.PLP.Chemscore.Hbond>
2.0000

> <Gold.PLP.Chemscore.CHOScore>
0.9951

> <Gold.PLP.Chemscore.Metal>
0.0000

> <Gold.Chemscore.Hbonds>
donor molecule, donor type, donor heavy atom, donor atom, acceptor molecule, acceptor atom, score
      L1  H    16    39       P1 10747  0.62
      P1  H  6896  6907       L1    28  1.00
      L1  C    12    36       P1 10957  1.00

> <Gold.PLP.Chemscore.Internal.Correction>
0.2854

> <Gold.Rescore>
     Score         DG    S(hbond)    S(metal)    S(lipo)     H(rot)  DE(clash)    DE(int)     intcor
     12.11     -13.02       1.35        0.00      71.79       2.09       0.44       0.47       ----

> <Gold.Chemscore.Fitness>
12.1077

> <Gold.Chemscore.DG>
-13.0198

> <Gold.Chemscore.ZeroCoef>
-5.4800

> <Gold.Chemscore.Hbond>
1.3468

> <Gold.Chemscore.Metal>
0.0000

> <Gold.Chemscore.Lipo>
71.7857

> <Gold.Chemscore.Internal_Hbond>
0.0000

> <Gold.Chemscore.DEClash>
0.4424

> <Gold.Chemscore.DEInternal>
0.4697

> <Gold.Chemscore.Rot>
2.0927

> <Gold.Chemscore.Internal.Correction>
   9.000000E+99

> <Gold.Chemscore.Hbonds>
donor molecule, donor type, donor heavy atom, donor atom, acceptor molecule, acceptor atom, score
      L1  H    16    39       P1 10747  0.61
      P1  H  6896  6907       L1    28  0.19

> <Gold.Chemscore.Hbond.Weighted>
-4.4982

> <Gold.Chemscore.Metal.Weighted>
-0.0000

> <Gold.Chemscore.Lipo.Weighted>
-8.3989

> <Gold.Chemscore.Internal_Hbond.Weighted>
0.0000

> <Gold.Chemscore.DEClash.Weighted>
0.4424

> <Gold.Chemscore.DEInternal.Weighted>
0.4697

> <Gold.Chemscore.Rot.Weighted>
5.3573

> <Gold.Chemscore.Internal.Correction.Weighted>
   9.000000E+99

> <Gold.Protein.RotatedTorsions>
[ 6907 6896 6895 6894 ] final  -45.22 input  -60.11 | X-H torsion
[ 7974 7965 7964 7962 ] final   64.41 input  175.53 | X-H torsion
[ 8008 7997 7996 7995 ] final   89.88 input   59.86 | X-H torsion
[ 10167 10162 10161 10158 ] final   53.92 input  -65.29 | X-H torsion
[ 10718 10713 10712 10709 ] final    1.06 input   66.30 | X-H torsion
[ 10763 10752 10751 10750 ] final   33.57 input  -60.55 | X-H torsion
[ 11005 11000 10999 10996 ] final -109.38 input  -57.11 | X-H torsion

> <Gold.Protein.ActiveResidues>
 VAL166  LYS551  ARG553  GLY616  TRP617  ASP618  TYR619  PRO620  LYS621  CYS622 
 ASP623  PHE694  ASN695  SER759  ASP760  ASP761  ALA762  ILE779  LEU786  VAL792 
 PHE793  MET794  SER795  GLU796  ALA797  LYS798  CYS799  TRP800  GLU811  SER814 

> <Gold.Protein.RotatedAtoms>
  150.9242  134.8659  159.7508 H   0  0  0  0  0  0  0  0  0  0  0  0  # atno 6907 bound_to 6896
  152.5007  134.4173  159.9478 H   0  0  0  0  0  0  0  0  0  0  0  0  # atno 6908 bound_to 6896
  151.4204  133.3660  159.2790 H   0  0  0  0  0  0  0  0  0  0  0  0  # atno 6909 bound_to 6896
  145.8505  139.3251  143.0878 H   0  0  0  0  0  0  0  0  0  0  0  0  # atno 7974 bound_to 7965
  156.0053  140.3356  155.6886 H   0  0  0  0  0  0  0  0  0  0  0  0  # atno 8008 bound_to 7997
  155.6234  140.0677  157.2689 H   0  0  0  0  0  0  0  0  0  0  0  0  # atno 8009 bound_to 7997
  154.4263  140.1772  156.1383 H   0  0  0  0  0  0  0  0  0  0  0  0  # atno 8010 bound_to 7997
  140.2356  144.3639  150.6398 H   0  0  0  0  0  0  0  0  0  0  0  0  # atno 10167 bound_to 10162
  156.8426  130.5526  149.5676 H   0  0  0  0  0  0  0  0  0  0  0  0  # atno 10718 bound_to 10713
  153.0205  135.6383  154.1532 H   0  0  0  0  0  0  0  0  0  0  0  0  # atno 10763 bound_to 10752
  154.1267  135.2843  155.3197 H   0  0  0  0  0  0  0  0  0  0  0  0  # atno 10764 bound_to 10752
  154.6224  135.5520  153.7652 H   0  0  0  0  0  0  0  0  0  0  0  0  # atno 10765 bound_to 10752
  141.0850  133.9154  157.2205 H   0  0  0  0  0  0  0  0  0  0  0  0  # atno 11005 bound_to 11000
  145.9363  140.9012  143.0330 LP  0  0  0  0  0  0  0  0  0  0  0  0  # atno 17320 bound_to 7965
  144.6729  140.1487  143.7431 LP  0  0  0  0  0  0  0  0  0  0  0  0  # atno 17321 bound_to 7965
  140.6152  143.2172  151.6806 LP  0  0  0  0  0  0  0  0  0  0  0  0  # atno 17342 bound_to 10162
  139.5095  144.3576  152.0593 LP  0  0  0  0  0  0  0  0  0  0  0  0  # atno 17343 bound_to 10162
  156.0872  130.5867  150.9669 LP  0  0  0  0  0  0  0  0  0  0  0  0  # atno 17370 bound_to 10713
  157.6347  131.0917  150.8371 LP  0  0  0  0  0  0  0  0  0  0  0  0  # atno 17371 bound_to 10713
  139.9668  135.0140  156.9407 LP  0  0  0  0  0  0  0  0  0  0  0  0  # atno 17394 bound_to 11000
  140.5383  134.0745  155.7334 LP  0  0  0  0  0  0  0  0  0  0  0  0  # atno 17395 bound_to 11000

$$$$
