AV-unprocessed.smi:2032|AV-procd|sdf|8249|dock7
  -GOLD-   2272010523D 1   1.00000     0.00000
 Structure written by MMmdl.
 41 42  0  0  0  0  0  0  0  0  2 V2000
  148.6878  140.3268  153.9484 C   0  0  0  0  0  0  0  0  0  0  0  0
  149.5585  139.9720  155.1585 C   0  0  1  0  0  0  0  0  0  0  0  0
  149.5148  138.4675  155.4813 C   0  0  0  0  0  0  0  0  0  0  0  0
  150.4057  138.0953  156.5841 N   0  0  0  0  0  0  0  0  0  0  0  0
  150.3400  136.6500  156.9065 C   0  0  2  0  0  0  0  0  0  0  0  0
  150.8255  135.7536  155.7384 C   0  0  0  0  0  0  0  0  0  0  0  0
  148.9206  136.1826  157.3453 C   0  0  0  0  0  0  0  0  0  0  0  0
  148.6105  136.4741  158.7433 N   0  0  0  0  0  0  0  0  0  0  0  0
  147.6703  137.3236  159.1810 C   0  0  0  0  0  0  0  0  0  0  0  0
  146.9663  137.9328  158.3721 O   0  0  0  0  0  0  0  0  0  0  0  0
  147.6086  137.4178  160.5288 N   0  5  0  0  0  0  0  0  0  0  0  0
  147.1777  136.3752  161.2574 C   0  0  0  0  0  0  0  0  0  0  0  0
  146.6895  135.2555  160.7114 N   0  0  0  0  0  0  0  0  0  0  0  0
  146.3115  134.2975  161.6538 C   0  0  0  0  0  0  0  0  0  0  0  0
  146.5255  134.6933  162.9476 C   0  0  0  0  0  0  0  0  0  0  0  0
  147.2108  136.2915  163.0213 S   0  0  0  0  0  0  0  0  0  0  0  0
  151.7606  138.5384  156.2360 C   0  0  0  0  0  0  0  0  0  0  0  0
  151.8465  140.0353  155.8772 C   0  0  2  0  0  0  0  0  0  0  0  0
  151.7212  140.9620  157.0991 C   0  0  0  0  0  0  0  0  0  0  0  0
  150.8965  140.3588  154.8646 O   0  0  0  0  0  0  0  0  0  0  0  0
  147.6446  140.0627  154.1236 H   0  0  0  0  0  0  0  0  0  0  0  0
  149.0212  139.7996  153.0540 H   0  0  0  0  0  0  0  0  0  0  0  0
  148.7287  141.3959  153.7394 H   0  0  0  0  0  0  0  0  0  0  0  0
  149.1959  140.5382  156.0166 H   0  0  0  0  0  0  0  0  0  0  0  0
  148.4817  138.2275  155.7246 H   0  0  0  0  0  0  0  0  0  0  0  0
  149.7720  137.8924  154.5903 H   0  0  0  0  0  0  0  0  0  0  0  0
  151.0127  136.4662  157.7455 H   0  0  0  0  0  0  0  0  0  0  0  0
  150.7226  134.6912  155.9562 H   0  0  0  0  0  0  0  0  0  0  0  0
  151.8837  135.8925  155.5222 H   0  0  0  0  0  0  0  0  0  0  0  0
  150.2631  135.9560  154.8264 H   0  0  0  0  0  0  0  0  0  0  0  0
  148.1348  136.6480  156.7521 H   0  0  0  0  0  0  0  0  0  0  0  0
  148.8229  135.1070  157.1969 H   0  0  0  0  0  0  0  0  0  0  0  0
  149.1605  135.9945  159.4406 H   0  0  0  0  0  0  0  0  0  0  0  0
  145.9003  133.3586  161.3138 H   0  0  0  0  0  0  0  0  0  0  0  0
  146.3252  134.1458  163.8563 H   0  0  0  0  0  0  0  0  0  0  0  0
  152.4519  138.3682  157.0583 H   0  0  0  0  0  0  0  0  0  0  0  0
  152.1274  137.9499  155.3933 H   0  0  0  0  0  0  0  0  0  0  0  0
  152.8290  140.2180  155.4417 H   0  0  0  0  0  0  0  0  0  0  0  0
  152.5304  140.7804  157.8068 H   0  0  0  0  0  0  0  0  0  0  0  0
  150.7838  140.8122  157.6345 H   0  0  0  0  0  0  0  0  0  0  0  0
  151.7722  142.0092  156.8003 H   0  0  0  0  0  0  0  0  0  0  0  0
  1  2  1  0  0  0  0
  1 21  1  0  0  0  0
  1 22  1  0  0  0  0
  1 23  1  0  0  0  0
  2 20  1  0  0  0  0
  2  3  1  0  0  0  0
  2 24  1  0  0  0  0
  3  4  1  0  0  0  0
  3 25  1  0  0  0  0
  3 26  1  0  0  0  0
  4  5  1  0  0  0  0
  4 17  1  0  0  0  0
  5  6  1  0  0  0  0
  5  7  1  0  0  0  0
  5 27  1  0  0  0  0
  6 28  1  0  0  0  0
  6 29  1  0  0  0  0
  6 30  1  0  0  0  0
  7  8  1  0  0  0  0
  7 31  1  0  0  0  0
  7 32  1  0  0  0  0
  8  9  1  0  0  0  0
  8 33  1  0  0  0  0
  9 10  2  0  0  0  0
  9 11  1  0  0  0  0
 11 12  1  0  0  0  0
 12 16  1  0  0  0  0
 12 13  2  0  0  0  0
 13 14  1  0  0  0  0
 14 15  2  0  0  0  0
 14 34  1  0  0  0  0
 15 16  1  0  0  0  0
 15 35  1  0  0  0  0
 17 18  1  0  0  0  0
 17 36  1  0  0  0  0
 17 37  1  0  0  0  0
 18 19  1  0  0  0  0
 18 20  1  0  0  0  0
 18 38  1  0  0  0  0
 19 39  1  0  0  0  0
 19 40  1  0  0  0  0
 19 41  1  0  0  0  0
M  CHG  1  11  -1
M  END
> <s_m_source_file>
AV-unprocessed.smi

> <i_m_source_file_index>
2032

> <i_lp_mmshare_version>
43012

> <i_f3d_flags>
0

> <s_epik_input>
W0NIM11bQ0BASF0xW0NIMl1OKFtDSDJdW0NASF0oTzEpW0NIM10pW0NASF0oW0NIM10pW0NIMl1bTkhdQyg9TylbTkhdYzJuW2NIXVtjSF1zMg==

> <s_epik_cmdline>
J2VwaWtfcHl0aG9uJywgJy1waCcsICc3LjAnLCAnLXRuJywgJzgnLCAnLW1hJywgJzIwMCcsICctbWV0YWxfYmluZGluZycsICctaW1hZScsICc8aW5maWxlLm1hZT4nLCAnLW9tYWUnLCAnPG91dGZpbGUubWFlPic=

> <r_lp_tautomer_probability>
0.999

> <r_epik_Ionization_Penalty>
7.22375

> <r_epik_Ionization_Penalty_Charging>
5.82415

> <r_epik_Ionization_Penalty_Neutral>
1.39959

> <r_epik_State_Penalty>
6.03347

> <r_epik_Charging_Adjusted_Penalty>
11.8576

> <i_epik_Tot_Q>
-1

> <i_epik_Tot_abs_Q>
1

> <r_epik_Metal_State_Penalty>
2.01024

> <b_epik_Metal_Only>
1

> <s_lp_Force_Field>
OPLS_2005

> <r_lp_Energy>
25.9518

> <b_lp_Chiralities_Consistent>
1

> <s_lp_Variant>
AV-unprocessed.smi:2032-19

> <Gold.Version>
5.8.1

> <Gold.Id.Protein>
6NUR|6NUR_protein|mol2

> <Gold.PLP.Fitness>
40.6050

> <Gold.PLP.PLP>
-29.8082

> <Gold.PLP.part.hbond>
-3.0000

> <Gold.PLP.part.metal>
0.0000

> <Gold.PLP.part.buried>
-1.3246

> <Gold.PLP.part.nonpolar>
-25.4876

> <Gold.PLP.part.repulsive>
0.2068

> <Gold.PLP.ligand.clash>
0.0000

> <Gold.PLP.ligand.torsion>
0.9379

> <Gold.PLP.Chemscore.Hbond>
4.2000

> <Gold.PLP.Chemscore.CHOScore>
0.0000

> <Gold.PLP.Chemscore.Metal>
0.0000

> <Gold.Chemscore.Hbonds>
donor molecule, donor type, donor heavy atom, donor atom, acceptor molecule, acceptor atom, score
      P1  H  6931  6943       L1    11  0.96
      P1  H  6934  6947       L1    11  1.86
      P1  H  7989  7998       L1    20  1.00

> <Gold.PLP.Chemscore.Internal.Correction>
0.0725

> <Gold.Rescore>
     Score         DG    S(hbond)    S(metal)    S(lipo)     H(rot)  DE(clash)    DE(int)     intcor
     13.01     -15.50       1.73        0.00      69.97       1.54       1.37       1.12       ----

> <Gold.Chemscore.Fitness>
13.0106

> <Gold.Chemscore.DG>
-15.4998

> <Gold.Chemscore.ZeroCoef>
-5.4800

> <Gold.Chemscore.Hbond>
1.7316

> <Gold.Chemscore.Metal>
0.0000

> <Gold.Chemscore.Lipo>
69.9697

> <Gold.Chemscore.Internal_Hbond>
0.0000

> <Gold.Chemscore.DEClash>
1.3671

> <Gold.Chemscore.DEInternal>
1.1221

> <Gold.Chemscore.Rot>
1.5431

> <Gold.Chemscore.Internal.Correction>
   9.000000E+99

> <Gold.Chemscore.Hbonds>
donor molecule, donor type, donor heavy atom, donor atom, acceptor molecule, acceptor atom, score
      P1  H  6931  6943       L1    11  0.12
      P1  H  6934  6947       L1    11  0.59
      P1  H  7989  7998       L1    20  0.77

> <Gold.Chemscore.Hbond.Weighted>
-5.7836

> <Gold.Chemscore.Metal.Weighted>
-0.0000

> <Gold.Chemscore.Lipo.Weighted>
-8.1865

> <Gold.Chemscore.Internal_Hbond.Weighted>
0.0000

> <Gold.Chemscore.DEClash.Weighted>
1.3671

> <Gold.Chemscore.DEInternal.Weighted>
1.1221

> <Gold.Chemscore.Rot.Weighted>
3.9503

> <Gold.Chemscore.Internal.Correction.Weighted>
   9.000000E+99

> <Gold.Protein.RotatedTorsions>
[ 6907 6896 6895 6894 ] final -167.94 input  -60.11 | X-H torsion
[ 7974 7965 7964 7962 ] final  -19.21 input  175.53 | X-H torsion
[ 8008 7997 7996 7995 ] final   18.69 input   59.86 | X-H torsion
[ 10167 10162 10161 10158 ] final   77.70 input  -65.29 | X-H torsion
[ 10718 10713 10712 10709 ] final -142.49 input   66.30 | X-H torsion
[ 10763 10752 10751 10750 ] final   98.63 input  -60.55 | X-H torsion
[ 11005 11000 10999 10996 ] final  -46.29 input  -57.11 | X-H torsion

> <Gold.Protein.ActiveResidues>
 VAL166  LYS551  ARG553  GLY616  TRP617  ASP618  TYR619  PRO620  LYS621  CYS622 
 ASP623  PHE694  ASN695  SER759  ASP760  ASP761  ALA762  ILE779  LEU786  VAL792 
 PHE793  MET794  SER795  GLU796  ALA797  LYS798  CYS799  TRP800  GLU811  SER814 

> <Gold.Protein.RotatedAtoms>
  151.4675  133.3577  159.2818 H   0  0  0  0  0  0  0  0  0  0  0  0  # atno 6907 bound_to 6896
  150.8983  134.8395  159.7353 H   0  0  0  0  0  0  0  0  0  0  0  0  # atno 6908 bound_to 6896
  152.4864  134.4593  159.9652 H   0  0  0  0  0  0  0  0  0  0  0  0  # atno 6909 bound_to 6896
  146.1853  140.4030  142.8479 H   0  0  0  0  0  0  0  0  0  0  0  0  # atno 7974 bound_to 7965
  154.9097  140.3012  155.5273 H   0  0  0  0  0  0  0  0  0  0  0  0  # atno 8008 bound_to 7997
  156.3015  140.2391  156.4070 H   0  0  0  0  0  0  0  0  0  0  0  0  # atno 8009 bound_to 7997
  154.8438  140.0412  157.1548 H   0  0  0  0  0  0  0  0  0  0  0  0  # atno 8010 bound_to 7997
  139.9787  144.5842  150.7919 H   0  0  0  0  0  0  0  0  0  0  0  0  # atno 10167 bound_to 10162
  156.3465  130.7665  151.1811 H   0  0  0  0  0  0  0  0  0  0  0  0  # atno 10718 bound_to 10713
  153.2914  135.4141  155.1170 H   0  0  0  0  0  0  0  0  0  0  0  0  # atno 10763 bound_to 10752
  154.8521  135.3519  154.5976 H   0  0  0  0  0  0  0  0  0  0  0  0  # atno 10764 bound_to 10752
  153.6399  135.7057  153.5303 H   0  0  0  0  0  0  0  0  0  0  0  0  # atno 10765 bound_to 10752
  141.0570  133.6722  156.3134 H   0  0  0  0  0  0  0  0  0  0  0  0  # atno 11005 bound_to 11000
  144.8386  140.6821  143.6244 LP  0  0  0  0  0  0  0  0  0  0  0  0  # atno 17320 bound_to 7965
  145.3957  139.1607  143.4205 LP  0  0  0  0  0  0  0  0  0  0  0  0  # atno 17321 bound_to 7965
  140.7496  143.2942  151.3249 LP  0  0  0  0  0  0  0  0  0  0  0  0  # atno 17342 bound_to 10162
  139.6426  144.0511  152.2566 LP  0  0  0  0  0  0  0  0  0  0  0  0  # atno 17343 bound_to 10162
  157.7455  131.0440  150.4770 LP  0  0  0  0  0  0  0  0  0  0  0  0  # atno 17370 bound_to 10713
  156.4958  130.4106  149.6381 LP  0  0  0  0  0  0  0  0  0  0  0  0  # atno 17371 bound_to 10713
  140.5945  134.5617  157.5506 LP  0  0  0  0  0  0  0  0  0  0  0  0  # atno 17394 bound_to 11000
  139.9398  134.7807  156.0706 LP  0  0  0  0  0  0  0  0  0  0  0  0  # atno 17395 bound_to 11000

$$$$
