AV-unprocessed.smi:12|AV-procd|sdf|62|dock1
  -GOLD-   2262015183D 1   1.00000     0.00000
 Structure written by MMmdl.
 41 44  0  0  0  0  0  0  0  0  1 V2000
  144.8893  143.5065  156.0130 C   0  0  0  0  0  0  0  0  0  0  0  0
  145.5597  142.2628  155.4575 C   0  0  0  0  0  0  0  0  0  0  0  0
  146.7988  142.3043  154.9132 C   0  0  0  0  0  0  0  0  0  0  0  0
  147.3592  141.1538  154.4327 N   0  0  0  0  0  0  0  0  0  0  0  0
  146.6382  139.9447  154.4988 C   0  0  0  0  0  0  0  0  0  0  0  0
  145.4505  139.8210  155.0044 N   0  0  0  0  0  0  0  0  0  0  0  0
  144.8275  140.9729  155.5220 C   0  0  0  0  0  0  0  0  0  0  0  0
  143.7017  140.9064  156.0135 O   0  0  0  0  0  0  0  0  0  0  0  0
  147.3914  138.9573  153.9441 O   0  0  0  0  0  0  0  0  0  0  0  0
  148.6179  139.4977  153.4215 C   0  0  2  0  0  0  0  0  0  0  0  0
  149.8446  138.9450  154.1345 C   0  0  2  0  0  0  0  0  0  0  0  0
  149.7278  137.5618  154.4004 O   0  0  0  0  0  0  0  0  0  0  0  0
  149.9481  139.8372  155.3712 C   0  0  1  0  0  0  0  0  0  0  0  0
  151.3370  139.8691  156.0215 C   0  0  0  0  0  0  0  0  0  0  0  0
  151.3808  140.9009  156.9939 O   0  0  0  0  0  0  0  0  0  0  0  0
  152.2528  140.8287  158.0180 C   0  0  0  0  0  0  0  0  0  0  0  0
  152.9991  139.8670  158.2122 O   0  0  0  0  0  0  0  0  0  0  0  0
  152.2197  142.0362  158.8934 C   0  0  0  0  0  0  0  0  0  0  0  0
  151.7991  143.2734  158.3515 C   0  0  0  0  0  0  0  0  0  0  0  0
  151.7576  144.4307  159.1530 C   0  0  0  0  0  0  0  0  0  0  0  0
  152.1368  144.3652  160.5063 C   0  0  0  0  0  0  0  0  0  0  0  0
  152.5574  143.1408  161.0573 C   0  0  0  0  0  0  0  0  0  0  0  0
  152.5993  141.9820  160.2575 C   0  0  0  0  0  0  0  0  0  0  0  0
  149.6485  141.1163  154.8192 O   0  0  0  0  0  0  0  0  0  0  0  0
  148.6786  140.9899  153.8174 C   0  0  2  0  0  0  0  0  0  0  0  0
  145.5272  144.3840  155.9039 H   0  0  0  0  0  0  0  0  0  0  0  0
  144.6696  143.3786  157.0734 H   0  0  0  0  0  0  0  0  0  0  0  0
  143.9541  143.7026  155.4879 H   0  0  0  0  0  0  0  0  0  0  0  0
  147.3524  143.2303  154.8578 H   0  0  0  0  0  0  0  0  0  0  0  0
  148.6635  139.3778  152.3385 H   0  0  0  0  0  0  0  0  0  0  0  0
  150.7213  139.1028  153.5042 H   0  0  0  0  0  0  0  0  0  0  0  0
  149.5904  137.1089  153.5821 H   0  0  0  0  0  0  0  0  0  0  0  0
  149.1836  139.5798  156.1066 H   0  0  0  0  0  0  0  0  0  0  0  0
  151.5647  138.9055  156.4795 H   0  0  0  0  0  0  0  0  0  0  0  0
  152.0969  140.0594  155.2623 H   0  0  0  0  0  0  0  0  0  0  0  0
  151.5030  143.3485  157.3151 H   0  0  0  0  0  0  0  0  0  0  0  0
  151.4341  145.3696  158.7285 H   0  0  0  0  0  0  0  0  0  0  0  0
  152.1051  145.2531  161.1205 H   0  0  0  0  0  0  0  0  0  0  0  0
  152.8488  143.0895  162.0960 H   0  0  0  0  0  0  0  0  0  0  0  0
  152.9273  141.0589  160.7129 H   0  0  0  0  0  0  0  0  0  0  0  0
  148.7354  141.7155  153.0055 H   0  0  0  0  0  0  0  0  0  0  0  0
  1  2  1  0  0  0  0
  1 26  1  0  0  0  0
  1 27  1  0  0  0  0
  1 28  1  0  0  0  0
  2  7  1  0  0  0  0
  2  3  2  0  0  0  0
  3  4  1  0  0  0  0
  3 29  1  0  0  0  0
  4 25  1  0  0  0  0
  4  5  1  0  0  0  0
  5  6  2  0  0  0  0
  5  9  1  0  0  0  0
  6  7  1  0  0  0  0
  7  8  2  0  0  0  0
  9 10  1  0  0  0  0
 10 25  1  0  0  0  0
 10 11  1  0  0  0  0
 10 30  1  0  0  0  0
 11 12  1  0  0  0  0
 11 13  1  0  0  0  0
 11 31  1  0  0  0  0
 12 32  1  0  0  0  0
 13 14  1  0  0  0  0
 13 24  1  0  0  0  0
 13 33  1  0  0  0  0
 14 15  1  0  0  0  0
 14 34  1  0  0  0  0
 14 35  1  0  0  0  0
 15 16  1  0  0  0  0
 16 17  2  0  0  0  0
 16 18  1  0  0  0  0
 18 23  1  0  0  0  0
 18 19  2  0  0  0  0
 19 20  1  0  0  0  0
 19 36  1  0  0  0  0
 20 21  2  0  0  0  0
 20 37  1  0  0  0  0
 21 22  1  0  0  0  0
 21 38  1  0  0  0  0
 22 23  2  0  0  0  0
 22 39  1  0  0  0  0
 23 40  1  0  0  0  0
 24 25  1  0  0  0  0
 25 41  1  0  0  0  0
M  END
> <s_m_source_file>
AV-unprocessed.smi

> <i_m_source_file_index>
12

> <i_lp_mmshare_version>
43012

> <i_f3d_flags>
0

> <s_epik_input>
W0NIM11jKFtjSF0xKWMoPU8pbmMobjEyKU9bQ0BIXTNbQ0BASF0yT1tDQEBIXShbQ0BASF0zW09IXSlbQ0gyXU9DKD1PKWM0W2NIXVtjSF1bY0hdW2NIXVtjSF00

> <s_epik_cmdline>
J2VwaWtfcHl0aG9uJywgJy1waCcsICc3LjAnLCAnLXRuJywgJzgnLCAnLW1hJywgJzIwMCcsICctbWV0YWxfYmluZGluZycsICctaW1hZScsICc8aW5maWxlLm1hZT4nLCAnLW9tYWUnLCAnPG91dGZpbGUubWFlPic=

> <r_lp_tautomer_probability>
0.933681

> <r_epik_Ionization_Penalty>
0.00399549

> <r_epik_Ionization_Penalty_Charging>
3.09373e-09

> <r_epik_Ionization_Penalty_Neutral>
0.00399549

> <r_epik_State_Penalty>
0.00284953

> <r_epik_Charging_Adjusted_Penalty>
0.00284953

> <i_epik_Tot_Q>
0

> <i_epik_Tot_abs_Q>
0

> <r_epik_Metal_State_Penalty>
-0

> <b_epik_Metal_Only>
0

> <s_epik_Chemistry_Notes>
This compound has an ester and may undergo hydrolysis at high or low pH. This compound contains an acetal/aminal-like group ( X-CH(R)-Y where X, Y are N, S, or O) that may be acid/base labile, releasing an aldehyde.

> <s_lp_Force_Field>
OPLS_2005

> <r_lp_Energy>
46.3609

> <b_lp_Chiralities_Consistent>
1

> <s_lp_Variant>
AV-unprocessed.smi:12-2

> <Gold.Version>
5.8.1

> <Gold.Id.Protein>
6NUR|6NUR_protein|mol2

> <Gold.PLP.Fitness>
50.3987

> <Gold.PLP.PLP>
-42.3305

> <Gold.PLP.part.hbond>
-2.7888

> <Gold.PLP.part.metal>
0.0000

> <Gold.PLP.part.buried>
0.4049

> <Gold.PLP.part.nonpolar>
-41.0263

> <Gold.PLP.part.repulsive>
0.5192

> <Gold.PLP.ligand.clash>
0.0000

> <Gold.PLP.ligand.torsion>
0.4770

> <Gold.PLP.Chemscore.Hbond>
2.0324

> <Gold.PLP.Chemscore.CHOScore>
0.9649

> <Gold.PLP.Chemscore.Metal>
0.0000

> <Gold.Chemscore.Hbonds>
donor molecule, donor type, donor heavy atom, donor atom, acceptor molecule, acceptor atom, score
      L1  H    12    32       P1  7948  1.00
      P1  H  7989  7998       L1    24  0.03
      P1  H  7997  8009       L1    17  1.00
      L1  C     3    29       P1  8028  0.95

> <Gold.PLP.Chemscore.Internal.Correction>
0.0302

> <Gold.Rescore>
     Score         DG    S(hbond)    S(metal)    S(lipo)     H(rot)  DE(clash)    DE(int)     intcor
     16.53     -18.49       1.91        0.00     104.23       2.18       1.59       0.37       ----

> <Gold.Chemscore.Fitness>
16.5278

> <Gold.Chemscore.DG>
-18.4897

> <Gold.Chemscore.ZeroCoef>
-5.4800

> <Gold.Chemscore.Hbond>
1.9147

> <Gold.Chemscore.Metal>
0.0000

> <Gold.Chemscore.Lipo>
104.2331

> <Gold.Chemscore.Internal_Hbond>
0.0000

> <Gold.Chemscore.DEClash>
1.5930

> <Gold.Chemscore.DEInternal>
0.3689

> <Gold.Chemscore.Rot>
2.1800

> <Gold.Chemscore.Internal.Correction>
   9.000000E+99

> <Gold.Chemscore.Hbonds>
donor molecule, donor type, donor heavy atom, donor atom, acceptor molecule, acceptor atom, score
      L1  H    12    32       P1  7948  0.79
      P1  H  7997  8009       L1    17  0.67

> <Gold.Chemscore.Hbond.Weighted>
-6.3952

> <Gold.Chemscore.Metal.Weighted>
-0.0000

> <Gold.Chemscore.Lipo.Weighted>
-12.1953

> <Gold.Chemscore.Internal_Hbond.Weighted>
0.0000

> <Gold.Chemscore.DEClash.Weighted>
1.5930

> <Gold.Chemscore.DEInternal.Weighted>
0.3689

> <Gold.Chemscore.Rot.Weighted>
5.5807

> <Gold.Chemscore.Internal.Correction.Weighted>
   9.000000E+99

> <Gold.Protein.RotatedTorsions>
[ 6907 6896 6895 6894 ] final -167.45 input  -60.11 | X-H torsion
[ 7974 7965 7964 7962 ] final  -70.67 input  175.53 | X-H torsion
[ 8008 7997 7996 7995 ] final  153.60 input   59.86 | X-H torsion
[ 10167 10162 10161 10158 ] final  -95.28 input  -65.29 | X-H torsion
[ 10718 10713 10712 10709 ] final  179.80 input   66.30 | X-H torsion
[ 10763 10752 10751 10750 ] final  101.17 input  -60.55 | X-H torsion
[ 11005 11000 10999 10996 ] final -149.63 input  -57.11 | X-H torsion

> <Gold.Protein.ActiveResidues>
 VAL166  LYS551  ARG553  GLY616  TRP617  ASP618  TYR619  PRO620  LYS621  CYS622 
 ASP623  PHE694  ASN695  SER759  ASP760  ASP761  ALA762  ILE779  LEU786  VAL792 
 PHE793  MET794  SER795  GLU796  ALA797  LYS798  CYS799  TRP800  GLU811  SER814 

> <Gold.Protein.RotatedAtoms>
  151.4597  133.3596  159.2807 H   0  0  0  0  0  0  0  0  0  0  0  0  # atno 6907 bound_to 6896
  150.9034  134.8449  159.7386 H   0  0  0  0  0  0  0  0  0  0  0  0  # atno 6908 bound_to 6896
  152.4892  134.4520  159.9629 H   0  0  0  0  0  0  0  0  0  0  0  0  # atno 6909 bound_to 6896
  145.6880  140.9163  143.0797 H   0  0  0  0  0  0  0  0  0  0  0  0  # atno 7974 bound_to 7965
  156.2573  140.1989  156.6516 H   0  0  0  0  0  0  0  0  0  0  0  0  # atno 8008 bound_to 7997
  154.6533  140.0569  157.0005 H   0  0  0  0  0  0  0  0  0  0  0  0  # atno 8009 bound_to 7997
  155.1386  140.3240  155.4460 H   0  0  0  0  0  0  0  0  0  0  0  0  # atno 8010 bound_to 7997
  140.3058  143.3135  152.0201 H   0  0  0  0  0  0  0  0  0  0  0  0  # atno 10167 bound_to 10162
  156.8703  130.9781  151.3074 H   0  0  0  0  0  0  0  0  0  0  0  0  # atno 10718 bound_to 10713
  153.3233  135.4054  155.1435 H   0  0  0  0  0  0  0  0  0  0  0  0  # atno 10763 bound_to 10752
  154.8605  135.3592  154.5568 H   0  0  0  0  0  0  0  0  0  0  0  0  # atno 10764 bound_to 10752
  153.6002  135.7071  153.5446 H   0  0  0  0  0  0  0  0  0  0  0  0  # atno 10765 bound_to 10752
  140.7487  134.3431  157.5131 H   0  0  0  0  0  0  0  0  0  0  0  0  # atno 11005 bound_to 11000
  144.7005  139.8784  143.7445 LP  0  0  0  0  0  0  0  0  0  0  0  0  # atno 17320 bound_to 7965
  146.0906  139.3896  143.0408 LP  0  0  0  0  0  0  0  0  0  0  0  0  # atno 17321 bound_to 7965
  139.4904  144.6422  151.6853 LP  0  0  0  0  0  0  0  0  0  0  0  0  # atno 17342 bound_to 10162
  140.5611  144.0266  150.6170 LP  0  0  0  0  0  0  0  0  0  0  0  0  # atno 17343 bound_to 10162
  157.6199  130.8647  149.9091 LP  0  0  0  0  0  0  0  0  0  0  0  0  # atno 17370 bound_to 10713
  156.0730  130.3682  150.0737 LP  0  0  0  0  0  0  0  0  0  0  0  0  # atno 17371 bound_to 10713
  139.8791  134.9128  156.3069 LP  0  0  0  0  0  0  0  0  0  0  0  0  # atno 17394 bound_to 11000
  140.9770  133.7291  156.0617 LP  0  0  0  0  0  0  0  0  0  0  0  0  # atno 17395 bound_to 11000

$$$$
