AV-unprocessed.smi:72|AV-procd|sdf|758|dock7
  -GOLD-   2262017 93D 1   1.00000     0.00000
 Structure written by MMmdl.
 29 30  0  0  0  0  0  0  0  0  1 V2000
  142.9516  138.4320  153.8841 N   0  0  0  0  0  0  0  0  0  0  0  0
  143.2719  137.1672  153.4363 C   0  0  0  0  0  0  0  0  0  0  0  0
  142.8326  136.0959  154.2266 N   0  0  0  0  0  0  0  0  0  0  0  0
  143.1398  134.9072  153.8135 C   0  0  0  0  0  0  0  0  0  0  0  0
  143.9054  134.7055  152.5970 N   0  0  0  0  0  0  0  0  0  0  0  0
  144.2484  133.3142  152.1136 C   0  0  1  0  0  0  0  0  0  0  0  0
  143.5204  133.0471  150.9510 O   0  0  0  0  0  0  0  0  0  0  0  0
  144.3643  132.4179  149.9926 C   0  0  1  0  0  0  0  0  0  0  0  0
  143.8180  132.6568  148.5763 C   0  0  0  0  0  0  0  0  0  0  0  0
  142.5297  132.0933  148.4518 O   0  0  0  0  0  0  0  0  0  0  0  0
  145.7111  133.0942  150.2539 C   0  0  2  0  0  0  0  0  0  0  0  0
  146.8066  132.3736  149.7212 O   0  0  0  0  0  0  0  0  0  0  0  0
  145.7442  133.2071  151.7756 C   0  0  2  0  0  0  0  0  0  0  0  0
  146.3198  132.0693  152.3905 O   0  0  0  0  0  0  0  0  0  0  0  0
  144.2979  135.8367  151.8297 C   0  0  0  0  0  0  0  0  0  0  0  0
  144.9128  135.6906  150.7735 O   0  0  0  0  0  0  0  0  0  0  0  0
  143.9474  137.0987  152.3251 N   0  0  0  0  0  0  0  0  0  0  0  0
  143.9228  132.6172  152.8869 H   0  0  0  0  0  0  0  0  0  0  0  0
  144.4380  131.3517  150.2173 H   0  0  0  0  0  0  0  0  0  0  0  0
  145.7053  134.0960  149.8222 H   0  0  0  0  0  0  0  0  0  0  0  0
  146.2898  134.0928  152.1044 H   0  0  0  0  0  0  0  0  0  0  0  0
  143.2136  139.2766  153.3971 H   0  0  0  0  0  0  0  0  0  0  0  0
  142.4294  138.6074  154.7304 H   0  0  0  0  0  0  0  0  0  0  0  0
  142.8472  133.9970  154.3387 H   0  0  0  0  0  0  0  0  0  0  0  0
  143.7947  133.7197  148.3334 H   0  0  0  0  0  0  0  0  0  0  0  0
  144.4580  132.1703  147.8400 H   0  0  0  0  0  0  0  0  0  0  0  0
  141.8951  132.7933  148.4369 H   0  0  0  0  0  0  0  0  0  0  0  0
  147.2972  132.0018  150.4381 H   0  0  0  0  0  0  0  0  0  0  0  0
  146.8394  131.6127  151.7466 H   0  0  0  0  0  0  0  0  0  0  0  0
  1  2  1  0  0  0  0
  1 22  1  0  0  0  0
  1 23  1  0  0  0  0
  2 17  2  0  0  0  0
  2  3  1  0  0  0  0
  3  4  2  0  0  0  0
  4  5  1  0  0  0  0
  4 24  1  0  0  0  0
  5  6  1  0  0  0  0
  5 15  1  0  0  0  0
  6 18  1  0  0  0  0
  6 13  1  0  0  0  0
  6  7  1  0  0  0  0
  7  8  1  0  0  0  0
  8 19  1  0  0  0  0
  8  9  1  0  0  0  0
  8 11  1  0  0  0  0
  9 10  1  0  0  0  0
  9 25  1  0  0  0  0
  9 26  1  0  0  0  0
 10 27  1  0  0  0  0
 11 20  1  0  0  0  0
 11 12  1  0  0  0  0
 11 13  1  0  0  0  0
 12 28  1  0  0  0  0
 13 21  1  0  0  0  0
 13 14  1  0  0  0  0
 14 29  1  0  0  0  0
 15 16  2  0  0  0  0
 15 17  1  0  0  0  0
M  END
> <s_m_source_file>
AV-unprocessed.smi

> <i_m_source_file_index>
72

> <i_lp_mmshare_version>
43012

> <i_f3d_flags>
0

> <s_epik_input>
W05IMl1jMW5bY0hdbihjKD1PKW4xKVtDQEBIXTJPW0NASF0oW0NIMl1bT0hdKVtDQEBIXShbT0hdKVtDQEhdMltPSF0=

> <s_epik_cmdline>
J2VwaWtfcHl0aG9uJywgJy1waCcsICc3LjAnLCAnLXRuJywgJzgnLCAnLW1hJywgJzIwMCcsICctbWV0YWxfYmluZGluZycsICctaW1hZScsICc8aW5maWxlLm1hZT4nLCAnLW9tYWUnLCAnPG91dGZpbGUubWFlPic=

> <r_lp_tautomer_probability>
4.77166e-05

> <r_epik_Ionization_Penalty>
1.3546

> <r_epik_Ionization_Penalty_Charging>
1.46833e-10

> <r_epik_Ionization_Penalty_Neutral>
1.3546

> <r_epik_State_Penalty>
3.51908

> <r_epik_Charging_Adjusted_Penalty>
3.51908

> <i_epik_Tot_Q>
0

> <i_epik_Tot_abs_Q>
0

> <r_epik_Metal_State_Penalty>
3.44088

> <b_epik_Metal_Only>
1

> <s_epik_Chemistry_Notes>
This compound contains an acetal/aminal-like group ( X-CH(R)-Y where X, Y are N, S, or O) that may be acid/base labile, releasing an aldehyde.

> <s_lp_Force_Field>
OPLS_2005

> <r_lp_Energy>
31.7119

> <b_lp_Chiralities_Consistent>
1

> <s_lp_Variant>
AV-unprocessed.smi:72-96

> <Gold.Version>
5.8.1

> <Gold.Id.Protein>
6NUR|6NUR_protein|mol2

> <Gold.PLP.Fitness>
39.5803

> <Gold.PLP.PLP>
-28.3504

> <Gold.PLP.part.hbond>
-6.1888

> <Gold.PLP.part.metal>
0.0000

> <Gold.PLP.part.buried>
-6.3152

> <Gold.PLP.part.nonpolar>
-18.1137

> <Gold.PLP.part.repulsive>
2.0267

> <Gold.PLP.ligand.clash>
0.0000

> <Gold.PLP.ligand.torsion>
0.1687

> <Gold.PLP.Chemscore.Hbond>
2.8506

> <Gold.PLP.Chemscore.CHOScore>
1.0000

> <Gold.PLP.Chemscore.Metal>
0.0000

> <Gold.Chemscore.Hbonds>
donor molecule, donor type, donor heavy atom, donor atom, acceptor molecule, acceptor atom, score
      L1  H     1    22       P1 10175  1.00
      L1  H    10    27       P1 10186  0.71
      L1  H    12    28       P1 10747  0.49
      P1  H 10785 10796       L1    10  0.62
      L1  C     4    24       P1 10957  1.00

> <Gold.PLP.Chemscore.Internal.Correction>
0.0157

> <Gold.Rescore>
     Score         DG    S(hbond)    S(metal)    S(lipo)     H(rot)  DE(clash)    DE(int)     intcor
      5.46      -8.94       2.88        0.00      36.20       4.06       0.06       3.42       ----

> <Gold.Chemscore.Fitness>
5.4564

> <Gold.Chemscore.DG>
-8.9372

> <Gold.Chemscore.ZeroCoef>
-5.4800

> <Gold.Chemscore.Hbond>
2.8788

> <Gold.Chemscore.Metal>
0.0000

> <Gold.Chemscore.Lipo>
36.2026

> <Gold.Chemscore.Internal_Hbond>
0.0000

> <Gold.Chemscore.DEClash>
0.0559

> <Gold.Chemscore.DEInternal>
3.4250

> <Gold.Chemscore.Rot>
4.0600

> <Gold.Chemscore.Internal.Correction>
   9.000000E+99

> <Gold.Chemscore.Hbonds>
donor molecule, donor type, donor heavy atom, donor atom, acceptor molecule, acceptor atom, score
      L1  H     1    22       P1 10175  0.93
      L1  H    10    27       P1 10186  0.66
      L1  H    12    28       P1 10747  0.46
      P1  H 10785 10796       L1    10  0.07

> <Gold.Chemscore.Hbond.Weighted>
-9.6151

> <Gold.Chemscore.Metal.Weighted>
-0.0000

> <Gold.Chemscore.Lipo.Weighted>
-4.2357

> <Gold.Chemscore.Internal_Hbond.Weighted>
0.0000

> <Gold.Chemscore.DEClash.Weighted>
0.0559

> <Gold.Chemscore.DEInternal.Weighted>
3.4250

> <Gold.Chemscore.Rot.Weighted>
10.3936

> <Gold.Chemscore.Internal.Correction.Weighted>
   9.000000E+99

> <Gold.Protein.RotatedTorsions>
[ 6907 6896 6895 6894 ] final  -37.93 input  -60.11 | X-H torsion
[ 7974 7965 7964 7962 ] final  -24.15 input  175.53 | X-H torsion
[ 8008 7997 7996 7995 ] final  166.23 input   59.86 | X-H torsion
[ 10167 10162 10161 10158 ] final -134.82 input  -65.29 | X-H torsion
[ 10718 10713 10712 10709 ] final  -15.82 input   66.30 | X-H torsion
[ 10763 10752 10751 10750 ] final  116.49 input  -60.55 | X-H torsion
[ 11005 11000 10999 10996 ] final  -37.88 input  -57.11 | X-H torsion

> <Gold.Protein.ActiveResidues>
 VAL166  LYS551  ARG553  GLY616  TRP617  ASP618  TYR619  PRO620  LYS621  CYS622 
 ASP623  PHE694  ASN695  SER759  ASP760  ASP761  ALA762  ILE779  LEU786  VAL792 
 PHE793  MET794  SER795  GLU796  ALA797  LYS798  CYS799  TRP800  GLU811  SER814 

> <Gold.Protein.RotatedAtoms>
  151.0087  134.9380  159.7994 H   0  0  0  0  0  0  0  0  0  0  0  0  # atno 6907 bound_to 6896
  152.5297  134.3057  159.9105 H   0  0  0  0  0  0  0  0  0  0  0  0  # atno 6908 bound_to 6896
  151.3063  133.4058  159.2677 H   0  0  0  0  0  0  0  0  0  0  0  0  # atno 6909 bound_to 6896
  146.1572  140.4712  142.8586 H   0  0  0  0  0  0  0  0  0  0  0  0  # atno 7974 bound_to 7965
  156.1736  140.1649  156.8403 H   0  0  0  0  0  0  0  0  0  0  0  0  # atno 8008 bound_to 7997
  154.5283  140.0762  156.8332 H   0  0  0  0  0  0  0  0  0  0  0  0  # atno 8009 bound_to 7997
  155.3461  140.3387  155.4241 H   0  0  0  0  0  0  0  0  0  0  0  0  # atno 8010 bound_to 7997
  139.8841  143.6803  152.2622 H   0  0  0  0  0  0  0  0  0  0  0  0  # atno 10167 bound_to 10162
  156.5963  130.4812  149.6258 H   0  0  0  0  0  0  0  0  0  0  0  0  # atno 10718 bound_to 10713
  153.5381  135.3564  155.2706 H   0  0  0  0  0  0  0  0  0  0  0  0  # atno 10763 bound_to 10752
  154.8720  135.4084  154.3075 H   0  0  0  0  0  0  0  0  0  0  0  0  # atno 10764 bound_to 10752
  153.3777  135.7067  153.6657 H   0  0  0  0  0  0  0  0  0  0  0  0  # atno 10765 bound_to 10752
  140.9985  133.6967  156.1979 H   0  0  0  0  0  0  0  0  0  0  0  0  # atno 11005 bound_to 11000
  144.7979  140.6158  143.6497 LP  0  0  0  0  0  0  0  0  0  0  0  0  # atno 17320 bound_to 7965
  145.4678  139.1506  143.3831 LP  0  0  0  0  0  0  0  0  0  0  0  0  # atno 17321 bound_to 7965
  139.7169  144.7610  151.1019 LP  0  0  0  0  0  0  0  0  0  0  0  0  # atno 17342 bound_to 10162
  140.7739  143.5258  150.9482 LP  0  0  0  0  0  0  0  0  0  0  0  0  # atno 17343 bound_to 10162
  156.2507  130.6905  151.1642 LP  0  0  0  0  0  0  0  0  0  0  0  0  # atno 17370 bound_to 10713
  157.7291  131.0627  150.5790 LP  0  0  0  0  0  0  0  0  0  0  0  0  # atno 17371 bound_to 10713
  140.6926  134.4649  157.5588 LP  0  0  0  0  0  0  0  0  0  0  0  0  # atno 17394 bound_to 11000
  139.9027  134.8519  156.1830 LP  0  0  0  0  0  0  0  0  0  0  0  0  # atno 17395 bound_to 11000

$$$$
