AV-unprocessed.smi:151|AV-procd|sdf|1244|dock6
  -GOLD-   2262018463D 1   1.00000     0.00000
 Structure written by MMmdl.
 56 59  0  0  0  0  0  0  0  0  1 V2000
  151.5097  138.2535  155.1522 C   0  0  0  0  0  0  0  0  0  0  0  0
  150.0076  137.9300  155.2192 C   0  0  0  0  0  0  0  0  0  0  0  0
  149.0674  139.0446  154.6895 C   0  0  2  0  0  0  0  0  0  0  0  0
  149.6096  140.4460  155.0458 C   0  0  0  0  0  0  0  0  0  0  0  0
  148.7265  141.4677  154.5910 O   0  0  0  0  0  0  0  0  0  0  0  0
  147.3903  141.3799  155.0911 C   0  0  0  0  0  0  0  0  0  0  0  0
  147.3335  141.6238  156.6147 C   0  0  0  0  0  0  0  0  0  0  0  0
  146.6083  142.4894  154.3710 C   0  0  0  0  0  0  0  0  0  0  0  0
  146.8144  140.0023  154.7078 C   0  0  0  0  0  0  0  0  0  0  0  0
  147.6802  138.9145  155.1516 N   0  0  0  0  0  0  0  0  0  0  0  0
  147.0565  137.7262  154.9719 C   0  0  0  0  0  0  0  0  0  0  0  0
  147.0060  136.8140  155.9786 N   0  0  0  0  0  0  0  0  0  0  0  0
  146.4069  135.6360  155.7813 C   0  0  0  0  0  0  0  0  0  0  0  0
  145.8173  135.1740  154.6767 N   0  0  0  0  0  0  0  0  0  0  0  0
  145.8804  136.0813  153.6594 C   0  0  0  0  0  0  0  0  0  0  0  0
  146.4800  137.3699  153.7243 C   0  0  0  0  0  0  0  0  0  0  0  0
  146.3591  138.0170  152.5018 N   0  0  0  0  0  0  0  0  0  0  0  0
  145.7206  137.1591  151.7540 C   0  0  0  0  0  0  0  0  0  0  0  0
  145.3938  135.9688  152.3663 N   0  0  0  0  0  0  0  0  0  0  0  0
  144.6896  134.8691  151.7673 C   0  0  0  0  0  0  0  0  0  0  0  0
  144.4620  133.5628  152.5343 C   0  0  0  0  0  0  0  0  0  0  0  0
  144.6677  132.7555  151.2307 C   0  0  0  0  0  0  0  0  0  0  0  0
  145.5751  131.5147  151.3326 C   0  0  0  0  0  0  0  0  0  0  0  0
  146.7954  131.7786  151.9956 O   0  0  0  0  0  0  0  0  0  0  0  0
  143.3866  132.2577  150.5292 C   0  0  0  0  0  0  0  0  0  0  0  0
  143.5904  131.8910  149.1794 O   0  0  0  0  0  0  0  0  0  0  0  0
  145.3135  134.0334  150.6440 C   0  0  0  0  0  0  0  0  0  0  0  0
  152.0946  137.4346  155.5713 H   0  0  0  0  0  0  0  0  0  0  0  0
  151.7528  139.1517  155.7201 H   0  0  0  0  0  0  0  0  0  0  0  0
  151.8493  138.4010  154.1278 H   0  0  0  0  0  0  0  0  0  0  0  0
  149.8209  137.0151  154.6562 H   0  0  0  0  0  0  0  0  0  0  0  0
  149.7524  137.6830  156.2492 H   0  0  0  0  0  0  0  0  0  0  0  0
  149.0531  138.9767  153.6006 H   0  0  0  0  0  0  0  0  0  0  0  0
  149.7780  140.5562  156.1157 H   0  0  0  0  0  0  0  0  0  0  0  0
  150.5788  140.5998  154.5708 H   0  0  0  0  0  0  0  0  0  0  0  0
  146.3011  141.6684  156.9626 H   0  0  0  0  0  0  0  0  0  0  0  0
  147.8125  142.5665  156.8805 H   0  0  0  0  0  0  0  0  0  0  0  0
  147.8215  140.8323  157.1832 H   0  0  0  0  0  0  0  0  0  0  0  0
  145.5575  142.4881  154.6625 H   0  0  0  0  0  0  0  0  0  0  0  0
  146.6508  142.3646  153.2884 H   0  0  0  0  0  0  0  0  0  0  0  0
  147.0160  143.4738  154.6036 H   0  0  0  0  0  0  0  0  0  0  0  0
  145.8150  139.8905  155.1321 H   0  0  0  0  0  0  0  0  0  0  0  0
  146.7047  139.9361  153.6239 H   0  0  0  0  0  0  0  0  0  0  0  0
  146.3998  134.9673  156.6292 H   0  0  0  0  0  0  0  0  0  0  0  0
  145.4682  137.3756  150.7259 H   0  0  0  0  0  0  0  0  0  0  0  0
  143.7312  135.2694  151.4339 H   0  0  0  0  0  0  0  0  0  0  0  0
  145.2288  133.3806  153.2878 H   0  0  0  0  0  0  0  0  0  0  0  0
  143.4679  133.4738  152.9734 H   0  0  0  0  0  0  0  0  0  0  0  0
  145.0722  130.7109  151.8717 H   0  0  0  0  0  0  0  0  0  0  0  0
  145.8138  131.1264  150.3417 H   0  0  0  0  0  0  0  0  0  0  0  0
  147.5021  131.6834  151.3755 H   0  0  0  0  0  0  0  0  0  0  0  0
  142.9759  131.3900  151.0467 H   0  0  0  0  0  0  0  0  0  0  0  0
  142.6132  133.0264  150.5481 H   0  0  0  0  0  0  0  0  0  0  0  0
  143.7970  132.6691  148.6843 H   0  0  0  0  0  0  0  0  0  0  0  0
  144.9645  134.3020  149.6466 H   0  0  0  0  0  0  0  0  0  0  0  0
  146.4030  134.0273  150.6758 H   0  0  0  0  0  0  0  0  0  0  0  0
  1  2  1  0  0  0  0
  1 28  1  0  0  0  0
  1 29  1  0  0  0  0
  1 30  1  0  0  0  0
  2  3  1  0  0  0  0
  2 31  1  0  0  0  0
  2 32  1  0  0  0  0
  3 10  1  0  0  0  0
  3  4  1  0  0  0  0
  3 33  1  0  0  0  0
  4  5  1  0  0  0  0
  4 34  1  0  0  0  0
  4 35  1  0  0  0  0
  5  6  1  0  0  0  0
  6  7  1  0  0  0  0
  6  8  1  0  0  0  0
  6  9  1  0  0  0  0
  7 36  1  0  0  0  0
  7 37  1  0  0  0  0
  7 38  1  0  0  0  0
  8 39  1  0  0  0  0
  8 40  1  0  0  0  0
  8 41  1  0  0  0  0
  9 10  1  0  0  0  0
  9 42  1  0  0  0  0
  9 43  1  0  0  0  0
 10 11  1  0  0  0  0
 11 16  1  0  0  0  0
 11 12  2  0  0  0  0
 12 13  1  0  0  0  0
 13 14  2  0  0  0  0
 13 44  1  0  0  0  0
 14 15  1  0  0  0  0
 15 19  1  0  0  0  0
 15 16  2  0  0  0  0
 16 17  1  0  0  0  0
 17 18  2  0  0  0  0
 18 19  1  0  0  0  0
 18 45  1  0  0  0  0
 19 20  1  0  0  0  0
 20 27  1  0  0  0  0
 20 21  1  0  0  0  0
 20 46  1  0  0  0  0
 21 22  1  0  0  0  0
 21 47  1  0  0  0  0
 21 48  1  0  0  0  0
 22 23  1  0  0  0  0
 22 25  1  0  0  0  0
 22 27  1  0  0  0  0
 23 24  1  0  0  0  0
 23 49  1  0  0  0  0
 23 50  1  0  0  0  0
 24 51  1  0  0  0  0
 25 26  1  0  0  0  0
 25 52  1  0  0  0  0
 25 53  1  0  0  0  0
 26 54  1  0  0  0  0
 27 55  1  0  0  0  0
 27 56  1  0  0  0  0
M  END
> <s_m_source_file>
AV-unprocessed.smi

> <i_m_source_file_index>
151

> <i_lp_mmshare_version>
43012

> <i_f3d_flags>
0

> <s_epik_input>
W0NIM11DMShbQ0gzXSlPW0NIMl1bQ0BASF0oW0NIMl1bQ0gzXSlOKFtDSDJdMSljKG5bY0hdbjIpYyhjMjMpbltjSF1uM1tDSF0oW0NIMl00KVtDSDJdQzQoW0NIMl1bT0hdKVtDSDJdW09IXQ==

> <s_epik_cmdline>
J2VwaWtfcHl0aG9uJywgJy1waCcsICc3LjAnLCAnLXRuJywgJzgnLCAnLW1hJywgJzIwMCcsICctbWV0YWxfYmluZGluZycsICctaW1hZScsICc8aW5maWxlLm1hZT4nLCAnLW9tYWUnLCAnPG91dGZpbGUubWFlPic=

> <r_lp_tautomer_probability>
1

> <r_epik_Ionization_Penalty>
0.000102837

> <r_epik_Ionization_Penalty_Charging>
0

> <r_epik_Ionization_Penalty_Neutral>
0.000102837

> <r_epik_State_Penalty>
-0

> <r_epik_Charging_Adjusted_Penalty>
0

> <i_epik_Tot_Q>
0

> <i_epik_Tot_abs_Q>
0

> <r_epik_Metal_State_Penalty>
-0

> <b_epik_Metal_Only>
0

> <s_lp_Force_Field>
OPLS_2005

> <r_lp_Energy>
52.7657

> <b_lp_Chiralities_Consistent>
1

> <s_lp_Variant>
AV-unprocessed.smi:151-1

> <Gold.Version>
5.8.1

> <Gold.Id.Protein>
6NUR|6NUR_protein|mol2

> <Gold.PLP.Fitness>
48.2948

> <Gold.PLP.PLP>
-38.7663

> <Gold.PLP.part.hbond>
-3.8814

> <Gold.PLP.part.metal>
0.0000

> <Gold.PLP.part.buried>
-0.0774

> <Gold.PLP.part.nonpolar>
-34.9441

> <Gold.PLP.part.repulsive>
0.7982

> <Gold.PLP.ligand.clash>
0.0000

> <Gold.PLP.ligand.torsion>
0.8273

> <Gold.PLP.Chemscore.Hbond>
2.5528

> <Gold.PLP.Chemscore.CHOScore>
1.0000

> <Gold.PLP.Chemscore.Metal>
0.0000

> <Gold.Chemscore.Hbonds>
donor molecule, donor type, donor heavy atom, donor atom, acceptor molecule, acceptor atom, score
      L1  H    24    51       P1 10747  1.00
      P1  H 10785 10796       L1    26  0.90
      L1  C    18    45       P1 10171  1.00

> <Gold.PLP.Chemscore.Internal.Correction>
0.5246

> <Gold.Rescore>
     Score         DG    S(hbond)    S(metal)    S(lipo)     H(rot)  DE(clash)    DE(int)     intcor
     11.39     -13.64       1.87        0.00      87.58       3.26       0.32       1.93       ----

> <Gold.Chemscore.Fitness>
11.3894

> <Gold.Chemscore.DG>
-13.6413

> <Gold.Chemscore.ZeroCoef>
-5.4800

> <Gold.Chemscore.Hbond>
1.8741

> <Gold.Chemscore.Metal>
0.0000

> <Gold.Chemscore.Lipo>
87.5765

> <Gold.Chemscore.Internal_Hbond>
0.0000

> <Gold.Chemscore.DEClash>
0.3188

> <Gold.Chemscore.DEInternal>
1.9330

> <Gold.Chemscore.Rot>
3.2596

> <Gold.Chemscore.Internal.Correction>
   9.000000E+99

> <Gold.Chemscore.Hbonds>
donor molecule, donor type, donor heavy atom, donor atom, acceptor molecule, acceptor atom, score
      L1  H    24    51       P1 10747  0.94
      P1  H 10785 10796       L1    26  0.83

> <Gold.Chemscore.Hbond.Weighted>
-6.2595

> <Gold.Chemscore.Metal.Weighted>
-0.0000

> <Gold.Chemscore.Lipo.Weighted>
-10.2465

> <Gold.Chemscore.Internal_Hbond.Weighted>
0.0000

> <Gold.Chemscore.DEClash.Weighted>
0.3188

> <Gold.Chemscore.DEInternal.Weighted>
1.9330

> <Gold.Chemscore.Rot.Weighted>
8.3447

> <Gold.Chemscore.Internal.Correction.Weighted>
   9.000000E+99

> <Gold.Protein.RotatedTorsions>
[ 6907 6896 6895 6894 ] final   50.54 input  -60.11 | X-H torsion
[ 7974 7965 7964 7962 ] final  144.41 input  175.53 | X-H torsion
[ 8008 7997 7996 7995 ] final  -16.97 input   59.86 | X-H torsion
[ 10167 10162 10161 10158 ] final  -76.75 input  -65.29 | X-H torsion
[ 10718 10713 10712 10709 ] final -165.66 input   66.30 | X-H torsion
[ 10763 10752 10751 10750 ] final  147.80 input  -60.55 | X-H torsion
[ 11005 11000 10999 10996 ] final -136.00 input  -57.11 | X-H torsion

> <Gold.Protein.ActiveResidues>
 VAL166  LYS551  ARG553  GLY616  TRP617  ASP618  TYR619  PRO620  LYS621  CYS622 
 ASP623  PHE694  ASN695  SER759  ASP760  ASP761  ALA762  ILE779  LEU786  VAL792 
 PHE793  MET794  SER795  GLU796  ALA797  LYS798  CYS799  TRP800  GLU811  SER814 

> <Gold.Protein.RotatedAtoms>
  152.3029  134.7589  160.0353 H   0  0  0  0  0  0  0  0  0  0  0  0  # atno 6907 bound_to 6896
  151.8096  133.3375  159.3559 H   0  0  0  0  0  0  0  0  0  0  0  0  # atno 6908 bound_to 6896
  150.7282  134.5606  159.5885 H   0  0  0  0  0  0  0  0  0  0  0  0  # atno 6909 bound_to 6896
  144.8838  139.5660  143.5830 H   0  0  0  0  0  0  0  0  0  0  0  0  # atno 7974 bound_to 7965
  154.5013  140.2155  155.9340 H   0  0  0  0  0  0  0  0  0  0  0  0  # atno 8008 bound_to 7997
  156.1437  140.3174  155.8504 H   0  0  0  0  0  0  0  0  0  0  0  0  # atno 8009 bound_to 7997
  155.4071  140.0488  157.3024 H   0  0  0  0  0  0  0  0  0  0  0  0  # atno 8010 bound_to 7997
  140.4830  143.2398  151.8028 H   0  0  0  0  0  0  0  0  0  0  0  0  # atno 10167 bound_to 10162
  156.6566  130.9029  151.3022 H   0  0  0  0  0  0  0  0  0  0  0  0  # atno 10718 bound_to 10713
  154.0443  135.2887  155.3350 H   0  0  0  0  0  0  0  0  0  0  0  0  # atno 10763 bound_to 10752
  154.6909  135.5227  153.8394 H   0  0  0  0  0  0  0  0  0  0  0  0  # atno 10764 bound_to 10752
  153.0587  135.6605  154.0645 H   0  0  0  0  0  0  0  0  0  0  0  0  # atno 10765 bound_to 10752
  140.8846  134.1888  157.4568 H   0  0  0  0  0  0  0  0  0  0  0  0  # atno 11005 bound_to 11000
  146.3011  139.7430  142.9090 LP  0  0  0  0  0  0  0  0  0  0  0  0  # atno 17320 bound_to 7965
  145.3906  141.0372  143.3126 LP  0  0  0  0  0  0  0  0  0  0  0  0  # atno 17321 bound_to 7965
  139.4837  144.4748  151.9380 LP  0  0  0  0  0  0  0  0  0  0  0  0  # atno 17342 bound_to 10162
  140.3834  144.2707  150.5906 LP  0  0  0  0  0  0  0  0  0  0  0  0  # atno 17343 bound_to 10162
  157.7123  130.9455  150.1133 LP  0  0  0  0  0  0  0  0  0  0  0  0  # atno 17370 bound_to 10713
  156.2043  130.3662  149.8749 LP  0  0  0  0  0  0  0  0  0  0  0  0  # atno 17371 bound_to 10713
  139.8723  134.9832  156.5189 LP  0  0  0  0  0  0  0  0  0  0  0  0  # atno 17394 bound_to 11000
  140.8420  133.8198  155.9084 LP  0  0  0  0  0  0  0  0  0  0  0  0  # atno 17395 bound_to 11000

$$$$
