AV-unprocessed.smi:101|AV-procd|sdf|932|dock1
  -GOLD-   2262017443D 1   1.00000     0.00000
 Structure written by MMmdl.
 43 45  0  0  0  0  0  0  0  0  2 V2000
  144.7746  141.6219  158.4098 C   0  0  0  0  0  0  0  0  0  0  0  0
  145.0228  142.2149  157.0338 C   0  0  0  0  0  0  0  0  0  0  0  0
  146.0380  141.8018  156.2427 C   0  0  0  0  0  0  0  0  0  0  0  0
  146.2591  142.3457  154.9885 N   0  0  0  0  0  0  0  0  0  0  0  0
  147.4017  141.8760  154.1067 C   0  0  1  0  0  0  0  0  0  0  0  0
  148.5623  141.7376  154.8772 O   0  0  0  0  0  0  0  0  0  0  0  0
  148.8907  140.3605  155.0211 C   0  0  2  0  0  0  0  0  0  0  0  0
  150.3905  140.2258  155.3113 C   0  0  0  0  0  0  0  0  0  0  0  0
  150.7763  141.1822  156.2847 O   0  0  0  0  0  0  0  0  0  0  0  0
  151.7685  140.9015  157.1507 C   0  0  0  0  0  0  0  0  0  0  0  0
  152.4443  139.8717  157.1030 O   0  0  0  0  0  0  0  0  0  0  0  0
  151.9643  141.9687  158.1743 C   0  0  0  0  0  0  0  0  0  0  0  0
  152.6215  141.6540  159.3868 C   0  0  0  0  0  0  0  0  0  0  0  0
  152.8184  142.6399  160.3731 C   0  0  0  0  0  0  0  0  0  0  0  0
  152.3590  143.9525  160.1599 C   0  0  0  0  0  0  0  0  0  0  0  0
  151.7028  144.2783  158.9586 C   0  0  0  0  0  0  0  0  0  0  0  0
  151.5062  143.2939  157.9702 C   0  0  0  0  0  0  0  0  0  0  0  0
  148.4437  139.7762  153.6822 C   0  0  1  0  0  0  0  0  0  0  0  0
  148.3031  138.3679  153.6974 O   0  0  0  0  0  0  0  0  0  0  0  0
  147.1291  140.5082  153.4333 C   0  0  1  0  0  0  0  0  0  0  0  0
  146.0238  139.8115  153.9912 O   0  0  0  0  0  0  0  0  0  0  0  0
  145.3965  143.3632  154.5043 C   0  0  0  0  0  0  0  0  0  0  0  0
  145.6097  143.8101  153.3769 O   0  0  0  0  0  0  0  0  0  0  0  0
  144.3718  143.7887  155.2963 N   0  5  0  0  0  0  0  0  0  0  0  0
  144.1345  143.2722  156.5362 C   0  0  0  0  0  0  0  0  0  0  0  0
  143.2046  143.6644  157.2405 O   0  0  0  0  0  0  0  0  0  0  0  0
  145.5147  140.8588  158.6525 H   0  0  0  0  0  0  0  0  0  0  0  0
  143.7874  141.1608  158.4532 H   0  0  0  0  0  0  0  0  0  0  0  0
  144.8263  142.3981  159.1740 H   0  0  0  0  0  0  0  0  0  0  0  0
  146.6876  141.0230  156.6105 H   0  0  0  0  0  0  0  0  0  0  0  0
  147.5763  142.6835  153.3937 H   0  0  0  0  0  0  0  0  0  0  0  0
  148.3011  139.9430  155.8393 H   0  0  0  0  0  0  0  0  0  0  0  0
  150.6214  139.2166  155.6554 H   0  0  0  0  0  0  0  0  0  0  0  0
  150.9602  140.3985  154.3971 H   0  0  0  0  0  0  0  0  0  0  0  0
  152.9826  140.6527  159.5732 H   0  0  0  0  0  0  0  0  0  0  0  0
  153.3225  142.3880  161.2946 H   0  0  0  0  0  0  0  0  0  0  0  0
  152.5093  144.7082  160.9170 H   0  0  0  0  0  0  0  0  0  0  0  0
  151.3483  145.2851  158.7942 H   0  0  0  0  0  0  0  0  0  0  0  0
  150.9965  143.5771  157.0606 H   0  0  0  0  0  0  0  0  0  0  0  0
  149.1619  140.0522  152.9087 H   0  0  0  0  0  0  0  0  0  0  0  0
  148.6303  138.0321  152.8764 H   0  0  0  0  0  0  0  0  0  0  0  0
  146.9448  140.6541  152.3684 H   0  0  0  0  0  0  0  0  0  0  0  0
  145.2319  140.1626  153.6117 H   0  0  0  0  0  0  0  0  0  0  0  0
  1  2  1  0  0  0  0
  1 27  1  0  0  0  0
  1 28  1  0  0  0  0
  1 29  1  0  0  0  0
  2 25  1  0  0  0  0
  2  3  2  0  0  0  0
  3  4  1  0  0  0  0
  3 30  1  0  0  0  0
  4  5  1  0  0  0  0
  4 22  1  0  0  0  0
  5 20  1  0  0  0  0
  5  6  1  0  0  0  0
  5 31  1  0  0  0  0
  6  7  1  0  0  0  0
  7  8  1  0  0  0  0
  7 18  1  0  0  0  0
  7 32  1  0  0  0  0
  8  9  1  0  0  0  0
  8 33  1  0  0  0  0
  8 34  1  0  0  0  0
  9 10  1  0  0  0  0
 10 11  2  0  0  0  0
 10 12  1  0  0  0  0
 12 17  1  0  0  0  0
 12 13  2  0  0  0  0
 13 14  1  0  0  0  0
 13 35  1  0  0  0  0
 14 15  2  0  0  0  0
 14 36  1  0  0  0  0
 15 16  1  0  0  0  0
 15 37  1  0  0  0  0
 16 17  2  0  0  0  0
 16 38  1  0  0  0  0
 17 39  1  0  0  0  0
 18 19  1  0  0  0  0
 18 20  1  0  0  0  0
 18 40  1  0  0  0  0
 19 41  1  0  0  0  0
 20 21  1  0  0  0  0
 20 42  1  0  0  0  0
 21 43  1  0  0  0  0
 22 23  2  0  0  0  0
 22 24  1  0  0  0  0
 24 25  1  0  0  0  0
 25 26  2  0  0  0  0
M  CHG  1  24  -1
M  END
> <s_m_source_file>
AV-unprocessed.smi

> <i_m_source_file_index>
101

> <i_lp_mmshare_version>
43012

> <i_f3d_flags>
0

> <s_epik_input>
Tz1jMVtuSF1jKD1PKW4oW2NIXWMxW0NIM10pW0NAQEhdMk9bQ0BIXShbQ0BASF0oW09IXSlbQ0BIXTJbT0hdKVtDSDJdT0MoPU8pYzNbY0hdW2NIXVtjSF1bY0hdW2NIXTM=

> <s_epik_cmdline>
J2VwaWtfcHl0aG9uJywgJy1waCcsICc3LjAnLCAnLXRuJywgJzgnLCAnLW1hJywgJzIwMCcsICctbWV0YWxfYmluZGluZycsICctaW1hZScsICc8aW5maWxlLm1hZT4nLCAnLW9tYWUnLCAnPG91dGZpbGUubWFlPic=

> <r_lp_tautomer_probability>
0.999537

> <r_epik_Ionization_Penalty>
3.21006

> <r_epik_Ionization_Penalty_Charging>
5.75142e-08

> <r_epik_Ionization_Penalty_Neutral>
3.21006

> <r_epik_State_Penalty>
3.20925

> <r_epik_Charging_Adjusted_Penalty>
3.20925

> <i_epik_Tot_Q>
-1

> <i_epik_Tot_abs_Q>
1

> <r_epik_Metal_State_Penalty>
0.119957

> <b_epik_Metal_Only>
1

> <s_epik_Chemistry_Notes>
This compound has an ester and may undergo hydrolysis at high or low pH. This compound contains an acetal/aminal-like group ( X-CH(R)-Y where X, Y are N, S, or O) that may be acid/base labile, releasing an aldehyde.

> <s_lp_Force_Field>
OPLS_2005

> <r_lp_Energy>
48.7646

> <b_lp_Chiralities_Consistent>
1

> <s_lp_Variant>
AV-unprocessed.smi:101-20

> <Gold.Version>
5.8.1

> <Gold.Id.Protein>
6NUR|6NUR_protein|mol2

> <Gold.PLP.Fitness>
52.4050

> <Gold.PLP.PLP>
-45.0706

> <Gold.PLP.part.hbond>
-3.4010

> <Gold.PLP.part.metal>
0.0000

> <Gold.PLP.part.buried>
-5.3896

> <Gold.PLP.part.nonpolar>
-37.4393

> <Gold.PLP.part.repulsive>
0.6867

> <Gold.PLP.ligand.clash>
0.0000

> <Gold.PLP.ligand.torsion>
1.0168

> <Gold.PLP.Chemscore.Hbond>
2.9672

> <Gold.PLP.Chemscore.CHOScore>
0.0000

> <Gold.PLP.Chemscore.Metal>
0.0000

> <Gold.Chemscore.Hbonds>
donor molecule, donor type, donor heavy atom, donor atom, acceptor molecule, acceptor atom, score
      L1  H    19    41       P1  7948  0.77
      L1  H    21    43       P1 10175  1.00
      P1  H  7997  8008       L1    11  1.00

> <Gold.PLP.Chemscore.Internal.Correction>
0.4663

> <Gold.Rescore>
     Score         DG    S(hbond)    S(metal)    S(lipo)     H(rot)  DE(clash)    DE(int)     intcor
     15.01     -18.32       2.92        0.00      97.83       3.27       1.33       1.97       ----

> <Gold.Chemscore.Fitness>
15.0127

> <Gold.Chemscore.DG>
-18.3174

> <Gold.Chemscore.ZeroCoef>
-5.4800

> <Gold.Chemscore.Hbond>
2.9195

> <Gold.Chemscore.Metal>
0.0000

> <Gold.Chemscore.Lipo>
97.8289

> <Gold.Chemscore.Internal_Hbond>
0.0000

> <Gold.Chemscore.DEClash>
1.3318

> <Gold.Chemscore.DEInternal>
1.9730

> <Gold.Chemscore.Rot>
3.2656

> <Gold.Chemscore.Internal.Correction>
   9.000000E+99

> <Gold.Chemscore.Hbonds>
donor molecule, donor type, donor heavy atom, donor atom, acceptor molecule, acceptor atom, score
      L1  H    19    41       P1  7948  0.74
      L1  H    21    43       P1 10175  0.99
      P1  H  7997  8008       L1    11  0.89

> <Gold.Chemscore.Hbond.Weighted>
-9.7513

> <Gold.Chemscore.Metal.Weighted>
-0.0000

> <Gold.Chemscore.Lipo.Weighted>
-11.4460

> <Gold.Chemscore.Internal_Hbond.Weighted>
0.0000

> <Gold.Chemscore.DEClash.Weighted>
1.3318

> <Gold.Chemscore.DEInternal.Weighted>
1.9730

> <Gold.Chemscore.Rot.Weighted>
8.3598

> <Gold.Chemscore.Internal.Correction.Weighted>
   9.000000E+99

> <Gold.Protein.RotatedTorsions>
[ 6907 6896 6895 6894 ] final   11.74 input  -60.11 | X-H torsion
[ 7974 7965 7964 7962 ] final  122.61 input  175.53 | X-H torsion
[ 8008 7997 7996 7995 ] final  -53.61 input   59.86 | X-H torsion
[ 10167 10162 10161 10158 ] final  121.74 input  -65.29 | X-H torsion
[ 10718 10713 10712 10709 ] final   -1.17 input   66.30 | X-H torsion
[ 10763 10752 10751 10750 ] final  -48.35 input  -60.55 | X-H torsion
[ 11005 11000 10999 10996 ] final  -66.83 input  -57.11 | X-H torsion

> <Gold.Protein.ActiveResidues>
 VAL166  LYS551  ARG553  GLY616  TRP617  ASP618  TYR619  PRO620  LYS621  CYS622 
 ASP623  PHE694  ASN695  SER759  ASP760  ASP761  ALA762  ILE779  LEU786  VAL792 
 PHE793  MET794  SER795  GLU796  ALA797  LYS798  CYS799  TRP800  GLU811  SER814 

> <Gold.Protein.RotatedAtoms>
  151.7592  135.0814  160.0342 H   0  0  0  0  0  0  0  0  0  0  0  0  # atno 6907 bound_to 6896
  152.3364  133.6012  159.5854 H   0  0  0  0  0  0  0  0  0  0  0  0  # atno 6908 bound_to 6896
  150.7453  133.9705  159.3586 H   0  0  0  0  0  0  0  0  0  0  0  0  # atno 6909 bound_to 6896
  145.1055  139.3489  143.4790 H   0  0  0  0  0  0  0  0  0  0  0  0  # atno 7974 bound_to 7965
  154.4138  140.1196  156.5181 H   0  0  0  0  0  0  0  0  0  0  0  0  # atno 8008 bound_to 7997
  155.6730  140.3496  155.4806 H   0  0  0  0  0  0  0  0  0  0  0  0  # atno 8009 bound_to 7997
  155.9616  140.1124  157.0880 H   0  0  0  0  0  0  0  0  0  0  0  0  # atno 8010 bound_to 7997
  139.5901  144.7022  151.3311 H   0  0  0  0  0  0  0  0  0  0  0  0  # atno 10167 bound_to 10162
  156.8096  130.5420  149.5710 H   0  0  0  0  0  0  0  0  0  0  0  0  # atno 10718 bound_to 10713
  154.0764  135.6597  153.4831 H   0  0  0  0  0  0  0  0  0  0  0  0  # atno 10763 bound_to 10752
  153.0372  135.5169  154.7517 H   0  0  0  0  0  0  0  0  0  0  0  0  # atno 10764 bound_to 10752
  154.6598  135.3013  154.9848 H   0  0  0  0  0  0  0  0  0  0  0  0  # atno 10765 bound_to 10752
  141.1492  133.6707  156.6200 H   0  0  0  0  0  0  0  0  0  0  0  0  # atno 11005 bound_to 11000
  146.3528  140.0951  142.8610 LP  0  0  0  0  0  0  0  0  0  0  0  0  # atno 17320 bound_to 7965
  145.0906  140.9282  143.4771 LP  0  0  0  0  0  0  0  0  0  0  0  0  # atno 17321 bound_to 7965
  140.7166  143.7250  150.7666 LP  0  0  0  0  0  0  0  0  0  0  0  0  # atno 17342 bound_to 10162
  140.0804  143.4974  152.2533 LP  0  0  0  0  0  0  0  0  0  0  0  0  # atno 17343 bound_to 10162
  156.1052  130.5999  150.9960 LP  0  0  0  0  0  0  0  0  0  0  0  0  # atno 17370 bound_to 10713
  157.6513  131.0896  150.8045 LP  0  0  0  0  0  0  0  0  0  0  0  0  # atno 17371 bound_to 10713
  140.3548  134.7738  157.4492 LP  0  0  0  0  0  0  0  0  0  0  0  0  # atno 17394 bound_to 11000
  140.0832  134.5702  155.8519 LP  0  0  0  0  0  0  0  0  0  0  0  0  # atno 17395 bound_to 11000

$$$$
