AV-unprocessed.smi:1224|AV-procd|sdf|5130|dock9
  -GOLD-   22720 4193D 1   1.00000     0.00000
 Structure written by MMmdl.
 45 47  0  0  0  0  0  0  0  0  3 V2000
  152.5865  143.7741  160.6946 C   0  0  0  0  0  0  0  0  0  0  0  0
  152.2579  142.8812  159.5101 C   0  0  0  0  0  0  0  0  0  0  0  0
  151.2949  143.3272  158.5768 C   0  0  0  0  0  0  0  0  0  0  0  0
  151.0153  142.4887  157.5044 C   0  0  0  0  0  0  0  0  0  0  0  0
  150.1300  142.6354  156.4343 N   0  3  0  0  0  0  0  0  0  0  0  0
  150.2045  141.5399  155.6290 C   0  0  0  0  0  0  0  0  0  0  0  0
  151.1295  140.6982  156.1666 N   0  0  0  0  0  0  0  0  0  0  0  0
  151.5917  139.3833  155.7017 C   0  0  0  0  0  0  0  0  0  0  0  0
  150.4472  138.3637  155.5315 C   0  0  2  0  0  0  0  0  0  0  0  0
  150.1135  137.8217  156.7950 O   0  0  0  0  0  0  0  0  0  0  0  0
  150.8451  137.2132  154.5926 C   0  0  0  0  0  0  0  0  0  0  0  0
  149.9340  136.0575  154.7388 N   0  3  0  0  0  0  0  0  0  0  0  0
  150.4972  134.9088  155.4783 C   0  0  0  0  0  0  0  0  0  0  0  0
  150.0523  133.5962  154.9192 C   0  0  0  0  0  0  0  0  0  0  0  0
  150.3647  132.3395  155.3736 C   0  0  0  0  0  0  0  0  0  0  0  0
  149.7558  131.3000  154.6108 C   0  0  0  0  0  0  0  0  0  0  0  0
  148.9867  131.7771  153.5831 C   0  0  0  0  0  0  0  0  0  0  0  0
  148.9955  133.5185  153.5316 S   0  0  0  0  0  0  0  0  0  0  0  0
  151.6573  141.2460  157.3405 C   0  0  0  0  0  0  0  0  0  0  0  0
  152.6075  140.7902  158.2509 C   0  0  0  0  0  0  0  0  0  0  0  0
  152.9047  141.6281  159.3498 C   0  0  0  0  0  0  0  0  0  0  0  0
  153.9354  141.1576  160.3621 C   0  0  0  0  0  0  0  0  0  0  0  0
  152.0342  144.7134  160.6513 H   0  0  0  0  0  0  0  0  0  0  0  0
  153.6496  144.0147  160.7111 H   0  0  0  0  0  0  0  0  0  0  0  0
  152.3283  143.2782  161.6304 H   0  0  0  0  0  0  0  0  0  0  0  0
  150.7968  144.2788  158.6936 H   0  0  0  0  0  0  0  0  0  0  0  0
  149.6344  141.3708  154.7265 H   0  0  0  0  0  0  0  0  0  0  0  0
  152.1375  139.5193  154.7671 H   0  0  0  0  0  0  0  0  0  0  0  0
  152.3161  139.0189  156.4319 H   0  0  0  0  0  0  0  0  0  0  0  0
  149.5672  138.8718  155.1348 H   0  0  0  0  0  0  0  0  0  0  0  0
  150.8588  137.3408  157.1221 H   0  0  0  0  0  0  0  0  0  0  0  0
  150.8066  137.5522  153.5564 H   0  0  0  0  0  0  0  0  0  0  0  0
  151.8744  136.9112  154.7904 H   0  0  0  0  0  0  0  0  0  0  0  0
  149.0997  136.3674  155.2171 H   0  0  0  0  0  0  0  0  0  0  0  0
  151.5844  134.9735  155.4296 H   0  0  0  0  0  0  0  0  0  0  0  0
  150.2297  134.9861  156.5328 H   0  0  0  0  0  0  0  0  0  0  0  0
  151.0009  132.1310  156.2212 H   0  0  0  0  0  0  0  0  0  0  0  0
  149.9010  130.2544  154.8393 H   0  0  0  0  0  0  0  0  0  0  0  0
  148.4188  131.2146  152.8565 H   0  0  0  0  0  0  0  0  0  0  0  0
  153.0987  139.8362  158.1297 H   0  0  0  0  0  0  0  0  0  0  0  0
  154.3189  140.1681  160.1116 H   0  0  0  0  0  0  0  0  0  0  0  0
  153.4962  141.1015  161.3584 H   0  0  0  0  0  0  0  0  0  0  0  0
  154.7815  141.8445  160.3942 H   0  0  0  0  0  0  0  0  0  0  0  0
  149.6754  135.7423  153.8150 H   0  0  0  0  0  0  0  0  0  0  0  0
  149.5162  143.4227  156.2656 H   0  0  0  0  0  0  0  0  0  0  0  0
  1  2  1  0  0  0  0
  1 23  1  0  0  0  0
  1 24  1  0  0  0  0
  1 25  1  0  0  0  0
  2 21  1  0  0  0  0
  2  3  2  0  0  0  0
  3  4  1  0  0  0  0
  3 26  1  0  0  0  0
  4 19  2  0  0  0  0
  4  5  1  0  0  0  0
  5  6  2  0  0  0  0
  5 45  1  0  0  0  0
  6  7  1  0  0  0  0
  6 27  1  0  0  0  0
  7  8  1  0  0  0  0
  7 19  1  0  0  0  0
  8  9  1  0  0  0  0
  8 28  1  0  0  0  0
  8 29  1  0  0  0  0
  9 10  1  0  0  0  0
  9 11  1  0  0  0  0
  9 30  1  0  0  0  0
 10 31  1  0  0  0  0
 11 12  1  0  0  0  0
 11 32  1  0  0  0  0
 11 33  1  0  0  0  0
 12 13  1  0  0  0  0
 12 34  1  0  0  0  0
 12 44  1  0  0  0  0
 13 14  1  0  0  0  0
 13 35  1  0  0  0  0
 13 36  1  0  0  0  0
 14 18  1  0  0  0  0
 14 15  2  0  0  0  0
 15 16  1  0  0  0  0
 15 37  1  0  0  0  0
 16 17  2  0  0  0  0
 16 38  1  0  0  0  0
 17 18  1  0  0  0  0
 17 39  1  0  0  0  0
 19 20  1  0  0  0  0
 20 21  2  0  0  0  0
 20 40  1  0  0  0  0
 21 22  1  0  0  0  0
 22 41  1  0  0  0  0
 22 42  1  0  0  0  0
 22 43  1  0  0  0  0
M  CHG  1   5   1
M  CHG  1  12   1
M  END
> <s_m_source_file>
AV-unprocessed.smi

> <i_m_source_file_index>
1224

> <i_lp_mmshare_version>
43012

> <i_f3d_flags>
0

> <s_epik_input>
W0NIM11jKFtjSF0xKWMoW0NIM10pW2NIXWMoYzEyKW4oW2NIXW4yKVtDSDJdW0NASF0oW09IXSlbQ0gyXVtOSF1bQ0gyXWMzW2NIXVtjSF1bY0hdczM=

> <s_epik_cmdline>
J2VwaWtfcHl0aG9uJywgJy1waCcsICc3LjAnLCAnLXRuJywgJzgnLCAnLW1hJywgJzIwMCcsICctbWV0YWxfYmluZGluZycsICctaW1hZScsICc8aW5maWxlLm1hZT4nLCAnLW9tYWUnLCAnPG91dGZpbGUubWFlPic=

> <r_epik_Ionization_Penalty>
1.2222

> <r_epik_Ionization_Penalty_Charging>
1.2222

> <r_epik_Ionization_Penalty_Neutral>
3.40394e-06

> <r_epik_State_Penalty>
1.23781

> <r_epik_Charging_Adjusted_Penalty>
2.46001

> <i_epik_Tot_Q>
2

> <i_epik_Tot_abs_Q>
2

> <r_epik_Metal_State_Penalty>
5.24642

> <b_epik_Metal_Only>
0

> <s_lp_Force_Field>
OPLS_2005

> <r_lp_Energy>
16.8702

> <b_lp_Chiralities_Consistent>
1

> <s_lp_Variant>
AV-unprocessed.smi:1224-3

> <Gold.Version>
5.8.1

> <Gold.Id.Protein>
6NUR|6NUR_protein|mol2

> <Gold.PLP.Fitness>
60.7882

> <Gold.PLP.PLP>
-47.8248

> <Gold.PLP.part.hbond>
-2.0000

> <Gold.PLP.part.metal>
0.0000

> <Gold.PLP.part.buried>
-4.4180

> <Gold.PLP.part.nonpolar>
-41.7275

> <Gold.PLP.part.repulsive>
0.1264

> <Gold.PLP.ligand.clash>
0.0000

> <Gold.PLP.ligand.torsion>
0.9290

> <Gold.PLP.Chemscore.Hbond>
4.0000

> <Gold.PLP.Chemscore.CHOScore>
0.9296

> <Gold.PLP.Chemscore.Metal>
0.0000

> <Gold.Chemscore.Hbonds>
donor molecule, donor type, donor heavy atom, donor atom, acceptor molecule, acceptor atom, score
      L1  H     5    45       P1  8028  2.00
      L1  H    12    44       P1  7948  1.54
      L1  C    17    39       P1 10747  0.67

> <Gold.PLP.Chemscore.Internal.Correction>
0.0326

> <Gold.Rescore>
     Score         DG    S(hbond)    S(metal)    S(lipo)     H(rot)  DE(clash)    DE(int)     intcor
     17.00     -18.05       1.15        0.00     129.32       2.50       0.05       1.00       ----

> <Gold.Chemscore.Fitness>
16.9974

> <Gold.Chemscore.DG>
-18.0484

> <Gold.Chemscore.ZeroCoef>
-5.4800

> <Gold.Chemscore.Hbond>
1.1524

> <Gold.Chemscore.Metal>
0.0000

> <Gold.Chemscore.Lipo>
129.3185

> <Gold.Chemscore.Internal_Hbond>
0.0000

> <Gold.Chemscore.DEClash>
0.0479

> <Gold.Chemscore.DEInternal>
1.0030

> <Gold.Chemscore.Rot>
2.5042

> <Gold.Chemscore.Internal.Correction>
   9.000000E+99

> <Gold.Chemscore.Hbonds>
donor molecule, donor type, donor heavy atom, donor atom, acceptor molecule, acceptor atom, score
      L1  H     5    45       P1  8028  0.97
      L1  H    12    44       P1  7948  0.16

> <Gold.Chemscore.Hbond.Weighted>
-3.8489

> <Gold.Chemscore.Metal.Weighted>
-0.0000

> <Gold.Chemscore.Lipo.Weighted>
-15.1303

> <Gold.Chemscore.Internal_Hbond.Weighted>
0.0000

> <Gold.Chemscore.DEClash.Weighted>
0.0479

> <Gold.Chemscore.DEInternal.Weighted>
1.0030

> <Gold.Chemscore.Rot.Weighted>
6.4108

> <Gold.Chemscore.Internal.Correction.Weighted>
   9.000000E+99

> <Gold.Protein.RotatedTorsions>
[ 6907 6896 6895 6894 ] final   91.42 input  -60.11 | X-H torsion
[ 7974 7965 7964 7962 ] final -109.72 input  175.53 | X-H torsion
[ 8008 7997 7996 7995 ] final -156.93 input   59.86 | X-H torsion
[ 10167 10162 10161 10158 ] final -110.20 input  -65.29 | X-H torsion
[ 10718 10713 10712 10709 ] final   92.98 input   66.30 | X-H torsion
[ 10763 10752 10751 10750 ] final  -91.86 input  -60.55 | X-H torsion
[ 11005 11000 10999 10996 ] final  116.81 input  -57.11 | X-H torsion

> <Gold.Protein.ActiveResidues>
 VAL166  LYS551  ARG553  GLY616  TRP617  ASP618  TYR619  PRO620  LYS621  CYS622 
 ASP623  PHE694  ASN695  SER759  ASP760  ASP761  ALA762  ILE779  LEU786  VAL792 
 PHE793  MET794  SER795  GLU796  ALA797  LYS798  CYS799  TRP800  GLU811  SER814 

> <Gold.Protein.RotatedAtoms>
  152.5450  134.1660  159.8576 H   0  0  0  0  0  0  0  0  0  0  0  0  # atno 6907 bound_to 6896
  151.1674  133.4799  159.2601 H   0  0  0  0  0  0  0  0  0  0  0  0  # atno 6908 bound_to 6896
  151.1310  135.0141  159.8637 H   0  0  0  0  0  0  0  0  0  0  0  0  # atno 6909 bound_to 6896
  145.1771  140.8953  143.3501 H   0  0  0  0  0  0  0  0  0  0  0  0  # atno 7974 bound_to 7965
  155.7247  140.0794  157.2315 H   0  0  0  0  0  0  0  0  0  0  0  0  # atno 8008 bound_to 7997
  154.4040  140.1606  156.2496 H   0  0  0  0  0  0  0  0  0  0  0  0  # atno 8009 bound_to 7997
  155.9164  140.3400  155.6141 H   0  0  0  0  0  0  0  0  0  0  0  0  # atno 8010 bound_to 7997
  140.1470  143.4231  152.1522 H   0  0  0  0  0  0  0  0  0  0  0  0  # atno 10167 bound_to 10162
  157.6956  131.0462  150.3965 H   0  0  0  0  0  0  0  0  0  0  0  0  # atno 10718 bound_to 10713
  154.6803  135.5252  153.8254 H   0  0  0  0  0  0  0  0  0  0  0  0  # atno 10763 bound_to 10752
  153.0560  135.6550  154.0586 H   0  0  0  0  0  0  0  0  0  0  0  0  # atno 10764 bound_to 10752
  154.0474  135.2972  155.3325 H   0  0  0  0  0  0  0  0  0  0  0  0  # atno 10765 bound_to 10752
  139.9053  134.9603  156.7255 H   0  0  0  0  0  0  0  0  0  0  0  0  # atno 11005 bound_to 11000
  145.0174  139.3455  143.6090 LP  0  0  0  0  0  0  0  0  0  0  0  0  # atno 17320 bound_to 7965
  146.3459  139.9460  142.8735 LP  0  0  0  0  0  0  0  0  0  0  0  0  # atno 17321 bound_to 7965
  139.5444  144.7285  151.4630 LP  0  0  0  0  0  0  0  0  0  0  0  0  # atno 17342 bound_to 10162
  140.6726  143.8261  150.7018 LP  0  0  0  0  0  0  0  0  0  0  0  0  # atno 17343 bound_to 10162
  156.4363  130.3982  149.6727 LP  0  0  0  0  0  0  0  0  0  0  0  0  # atno 17370 bound_to 10713
  156.3926  130.7635  151.2637 LP  0  0  0  0  0  0  0  0  0  0  0  0  # atno 17371 bound_to 10713
  140.6966  133.9343  155.7999 LP  0  0  0  0  0  0  0  0  0  0  0  0  # atno 17394 bound_to 11000
  141.0402  134.0632  157.3911 LP  0  0  0  0  0  0  0  0  0  0  0  0  # atno 17395 bound_to 11000

$$$$
