AV-unprocessed.smi:2909|AV-procd|sdf|11174|dock1
  -GOLD-   2272016 63D 1   1.00000     0.00000
 Structure written by MMmdl.
 44 45  0  0  0  0  0  0  0  0  1 V2000
  149.0643  141.7923  154.1494 C   0  0  0  0  0  0  0  0  0  0  0  0
  149.4208  140.3429  153.9980 C   0  0  0  0  0  0  0  0  0  0  0  0
  150.5309  139.6461  154.5588 C   0  0  0  0  0  0  0  0  0  0  0  0
  150.3858  138.3624  154.1115 C   0  0  0  0  0  0  0  0  0  0  0  0
  151.2175  137.1365  154.3294 C   0  0  0  0  0  0  0  0  0  0  0  0
  150.4551  136.0471  155.0905 C   0  0  0  0  0  0  0  0  0  0  0  0
  150.7971  135.7473  156.2340 O   0  0  0  0  0  0  0  0  0  0  0  0
  149.4124  135.4812  154.4612 N   0  0  0  0  0  0  0  0  0  0  0  0
  148.5359  134.4506  155.0129 C   0  0  2  0  0  0  0  0  0  0  0  0
  148.6514  133.1584  154.1888 C   0  0  0  0  0  0  0  0  0  0  0  0
  148.0538  133.3078  152.7785 C   0  0  0  0  0  0  0  0  0  0  0  0
  146.5800  133.7846  152.8002 C   0  0  2  0  0  0  0  0  0  0  0  0
  145.9966  133.9587  151.3669 C   0  0  0  0  0  0  0  0  0  0  0  0
  144.5773  134.5589  151.3684 C   0  0  0  0  0  0  0  0  0  0  0  0
  145.9754  132.6402  150.5692 C   0  0  0  0  0  0  0  0  0  0  0  0
  146.4743  135.0813  153.6410 C   0  0  0  0  0  0  0  0  0  0  0  0
  147.0725  134.9252  155.0503 C   0  0  0  0  0  0  0  0  0  0  0  0
  149.2426  138.3517  153.3445 N   0  0  0  0  0  0  0  0  0  0  0  0
  148.6465  139.5555  153.2661 N   0  0  0  0  0  0  0  0  0  0  0  0
  148.8625  137.5414  152.8758 H   0  0  0  0  0  0  0  0  0  0  0  0
  149.8715  142.3490  154.6255 H   0  0  0  0  0  0  0  0  0  0  0  0
  148.1712  141.9131  154.7626 H   0  0  0  0  0  0  0  0  0  0  0  0
  148.8699  142.2544  153.1811 H   0  0  0  0  0  0  0  0  0  0  0  0
  151.3177  140.0317  155.1905 H   0  0  0  0  0  0  0  0  0  0  0  0
  152.1208  137.3850  154.8874 H   0  0  0  0  0  0  0  0  0  0  0  0
  151.5455  136.7415  153.3671 H   0  0  0  0  0  0  0  0  0  0  0  0
  149.2069  135.7906  153.5223 H   0  0  0  0  0  0  0  0  0  0  0  0
  148.8600  134.2292  156.0316 H   0  0  0  0  0  0  0  0  0  0  0  0
  149.6951  132.8491  154.1198 H   0  0  0  0  0  0  0  0  0  0  0  0
  148.1321  132.3538  154.7109 H   0  0  0  0  0  0  0  0  0  0  0  0
  148.6577  134.0041  152.1952 H   0  0  0  0  0  0  0  0  0  0  0  0
  148.1372  132.3417  152.2830 H   0  0  0  0  0  0  0  0  0  0  0  0
  145.9929  133.0170  153.3069 H   0  0  0  0  0  0  0  0  0  0  0  0
  146.6383  134.6534  150.8229 H   0  0  0  0  0  0  0  0  0  0  0  0
  143.8971  133.9679  151.9824 H   0  0  0  0  0  0  0  0  0  0  0  0
  144.1644  134.5947  150.3598 H   0  0  0  0  0  0  0  0  0  0  0  0
  144.5663  135.5830  151.7398 H   0  0  0  0  0  0  0  0  0  0  0  0
  145.4326  131.8612  151.1053 H   0  0  0  0  0  0  0  0  0  0  0  0
  146.9789  132.2711  150.3603 H   0  0  0  0  0  0  0  0  0  0  0  0
  145.4902  132.7729  149.6018 H   0  0  0  0  0  0  0  0  0  0  0  0
  146.9714  135.9003  153.1196 H   0  0  0  0  0  0  0  0  0  0  0  0
  145.4334  135.3795  153.7581 H   0  0  0  0  0  0  0  0  0  0  0  0
  146.4776  134.2028  155.6104 H   0  0  0  0  0  0  0  0  0  0  0  0
  146.9927  135.8665  155.5953 H   0  0  0  0  0  0  0  0  0  0  0  0
  1 21  1  0  0  0  0
  1 22  1  0  0  0  0
  1 23  1  0  0  0  0
  1  2  1  0  0  0  0
  2 19  2  0  0  0  0
  2  3  1  0  0  0  0
  3  4  2  0  0  0  0
  3 24  1  0  0  0  0
  4 18  1  0  0  0  0
  4  5  1  0  0  0  0
  5  6  1  0  0  0  0
  5 25  1  0  0  0  0
  5 26  1  0  0  0  0
  6  7  2  0  0  0  0
  6  8  1  0  0  0  0
  8  9  1  0  0  0  0
  8 27  1  0  0  0  0
  9 17  1  0  0  0  0
  9 10  1  0  0  0  0
  9 28  1  0  0  0  0
 10 11  1  0  0  0  0
 10 29  1  0  0  0  0
 10 30  1  0  0  0  0
 11 12  1  0  0  0  0
 11 31  1  0  0  0  0
 11 32  1  0  0  0  0
 12 13  1  0  0  0  0
 12 16  1  0  0  0  0
 12 33  1  0  0  0  0
 13 14  1  0  0  0  0
 13 15  1  0  0  0  0
 13 34  1  0  0  0  0
 14 35  1  0  0  0  0
 14 36  1  0  0  0  0
 14 37  1  0  0  0  0
 15 38  1  0  0  0  0
 15 39  1  0  0  0  0
 15 40  1  0  0  0  0
 16 17  1  0  0  0  0
 16 41  1  0  0  0  0
 16 42  1  0  0  0  0
 17 43  1  0  0  0  0
 17 44  1  0  0  0  0
 18 19  1  0  0  0  0
 18 20  1  0  0  0  0
M  END
> <s_m_source_file>
AV-unprocessed.smi

> <i_m_source_file_index>
2909

> <i_lp_mmshare_version>
43012

> <i_f3d_flags>
0

> <s_epik_input>
W0NIM11jMVtjSF1jKG5bbkhdMSlbQ0gyXUMoPU8pW05IXVtDQEBIXTJbQ0gyXVtDSDJdW0NAQEhdKFtDSF0oW0NIM10pW0NIM10pW0NIMl1bQ0gyXTI=

> <s_epik_cmdline>
J2VwaWtfcHl0aG9uJywgJy1waCcsICc3LjAnLCAnLXRuJywgJzgnLCAnLW1hJywgJzIwMCcsICctbWV0YWxfYmluZGluZycsICctaW1hZScsICc8aW5maWxlLm1hZT4nLCAnLW9tYWUnLCAnPG91dGZpbGUubWFlPic=

> <r_lp_tautomer_probability>
0.5

> <r_epik_Ionization_Penalty>
0.00013296

> <r_epik_Ionization_Penalty_Charging>
0

> <r_epik_Ionization_Penalty_Neutral>
0.00013296

> <r_epik_State_Penalty>
0.41068

> <r_epik_Charging_Adjusted_Penalty>
0.41068

> <i_epik_Tot_Q>
0

> <i_epik_Tot_abs_Q>
0

> <r_epik_Metal_State_Penalty>
0.41066

> <b_epik_Metal_Only>
0

> <s_lp_Force_Field>
OPLS_2005

> <r_lp_Energy>
9.99393

> <b_lp_Chiralities_Consistent>
1

> <s_lp_Variant>
AV-unprocessed.smi:2909-4

> <Gold.Version>
5.8.1

> <Gold.Id.Protein>
6NUR|6NUR_protein|mol2

> <Gold.PLP.Fitness>
39.1826

> <Gold.PLP.PLP>
-33.3643

> <Gold.PLP.part.hbond>
-3.0000

> <Gold.PLP.part.metal>
0.0000

> <Gold.PLP.part.buried>
-2.2916

> <Gold.PLP.part.nonpolar>
-29.0714

> <Gold.PLP.part.repulsive>
1.8467

> <Gold.PLP.ligand.clash>
0.0000

> <Gold.PLP.ligand.torsion>
0.1093

> <Gold.PLP.Chemscore.Hbond>
1.9920

> <Gold.PLP.Chemscore.CHOScore>
0.0000

> <Gold.PLP.Chemscore.Metal>
0.0000

> <Gold.Chemscore.Hbonds>
donor molecule, donor type, donor heavy atom, donor atom, acceptor molecule, acceptor atom, score
      L1  H     8    27       P1  7948  1.00
      L1  H    18    20       P1  7948  1.00

> <Gold.PLP.Chemscore.Internal.Correction>
0.0610

> <Gold.Rescore>
     Score         DG    S(hbond)    S(metal)    S(lipo)     H(rot)  DE(clash)    DE(int)     intcor
     15.98     -16.67       1.66        0.00      81.09       1.50       0.20       0.50       ----

> <Gold.Chemscore.Fitness>
15.9758

> <Gold.Chemscore.DG>
-16.6679

> <Gold.Chemscore.ZeroCoef>
-5.4800

> <Gold.Chemscore.Hbond>
1.6596

> <Gold.Chemscore.Metal>
0.0000

> <Gold.Chemscore.Lipo>
81.0914

> <Gold.Chemscore.Internal_Hbond>
0.0000

> <Gold.Chemscore.DEClash>
0.1952

> <Gold.Chemscore.DEInternal>
0.4969

> <Gold.Chemscore.Rot>
1.5011

> <Gold.Chemscore.Internal.Correction>
   9.000000E+99

> <Gold.Chemscore.Hbonds>
donor molecule, donor type, donor heavy atom, donor atom, acceptor molecule, acceptor atom, score
      L1  H     8    27       P1  7948  0.70
      L1  H    18    20       P1  7948  0.96

> <Gold.Chemscore.Hbond.Weighted>
-5.5431

> <Gold.Chemscore.Metal.Weighted>
-0.0000

> <Gold.Chemscore.Lipo.Weighted>
-9.4877

> <Gold.Chemscore.Internal_Hbond.Weighted>
0.0000

> <Gold.Chemscore.DEClash.Weighted>
0.1952

> <Gold.Chemscore.DEInternal.Weighted>
0.4969

> <Gold.Chemscore.Rot.Weighted>
3.8429

> <Gold.Chemscore.Internal.Correction.Weighted>
   9.000000E+99

> <Gold.Protein.RotatedTorsions>
[ 6907 6896 6895 6894 ] final  124.30 input  -60.11 | X-H torsion
[ 7974 7965 7964 7962 ] final  165.25 input  175.53 | X-H torsion
[ 8008 7997 7996 7995 ] final   37.20 input   59.86 | X-H torsion
[ 10167 10162 10161 10158 ] final    0.41 input  -65.29 | X-H torsion
[ 10718 10713 10712 10709 ] final  -56.82 input   66.30 | X-H torsion
[ 10763 10752 10751 10750 ] final  -33.11 input  -60.55 | X-H torsion
[ 11005 11000 10999 10996 ] final   69.80 input  -57.11 | X-H torsion

> <Gold.Protein.ActiveResidues>
 VAL166  LYS551  ARG553  GLY616  TRP617  ASP618  TYR619  PRO620  LYS621  CYS622 
 ASP623  PHE694  ASN695  SER759  ASP760  ASP761  ALA762  ILE779  LEU786  VAL792 
 PHE793  MET794  SER795  GLU796  ALA797  LYS798  CYS799  TRP800  GLU811  SER814 

> <Gold.Protein.RotatedAtoms>
  152.4090  133.6933  159.6380 H   0  0  0  0  0  0  0  0  0  0  0  0  # atno 6907 bound_to 6896
  150.7972  133.8658  159.3253 H   0  0  0  0  0  0  0  0  0  0  0  0  # atno 6908 bound_to 6896
  151.6405  135.1015  160.0192 H   0  0  0  0  0  0  0  0  0  0  0  0  # atno 6909 bound_to 6896
  144.7510  139.8443  143.6366 H   0  0  0  0  0  0  0  0  0  0  0  0  # atno 7974 bound_to 7965
  155.1999  140.3315  155.4345 H   0  0  0  0  0  0  0  0  0  0  0  0  # atno 8008 bound_to 7997
  156.2410  140.1895  156.7037 H   0  0  0  0  0  0  0  0  0  0  0  0  # atno 8009 bound_to 7997
  154.6148  140.0604  156.9526 H   0  0  0  0  0  0  0  0  0  0  0  0  # atno 8010 bound_to 7997
  140.6730  143.6996  150.7962 H   0  0  0  0  0  0  0  0  0  0  0  0  # atno 10167 bound_to 10162
  156.1259  130.4162  150.0356 H   0  0  0  0  0  0  0  0  0  0  0  0  # atno 10718 bound_to 10713
  153.8248  135.6871  153.4822 H   0  0  0  0  0  0  0  0  0  0  0  0  # atno 10763 bound_to 10752
  153.1547  135.4604  154.9685 H   0  0  0  0  0  0  0  0  0  0  0  0  # atno 10764 bound_to 10752
  154.7912  135.3302  154.7717 H   0  0  0  0  0  0  0  0  0  0  0  0  # atno 10765 bound_to 10752
  139.9633  134.7023  156.0599 H   0  0  0  0  0  0  0  0  0  0  0  0  # atno 11005 bound_to 11000
  146.1461  139.4530  143.0078 LP  0  0  0  0  0  0  0  0  0  0  0  0  # atno 17320 bound_to 7965
  145.6943  141.0155  143.1538 LP  0  0  0  0  0  0  0  0  0  0  0  0  # atno 17321 bound_to 7965
  140.0685  143.5085  152.2592 LP  0  0  0  0  0  0  0  0  0  0  0  0  # atno 17342 bound_to 10162
  139.6007  144.7581  151.3178 LP  0  0  0  0  0  0  0  0  0  0  0  0  # atno 17343 bound_to 10162
  156.8282  130.9383  151.3638 LP  0  0  0  0  0  0  0  0  0  0  0  0  # atno 17370 bound_to 10713
  157.6440  130.8829  149.9503 LP  0  0  0  0  0  0  0  0  0  0  0  0  # atno 17371 bound_to 10713
  141.1312  133.6586  156.3469 LP  0  0  0  0  0  0  0  0  0  0  0  0  # atno 17394 bound_to 11000
  140.5452  134.6082  157.5391 LP  0  0  0  0  0  0  0  0  0  0  0  0  # atno 17395 bound_to 11000

$$$$
