AV-unprocessed.smi:29|AV-procd|sdf|191|dock8
  -GOLD-   2262015463D 1   1.00000     0.00000
 Structure written by MMmdl.
 56 59  0  0  0  0  0  0  0  0  1 V2000
  147.7333  132.1531  156.1166 O   0  0  0  0  0  0  0  0  0  0  0  0
  147.6397  133.1534  155.4053 C   0  0  0  0  0  0  0  0  0  0  0  0
  147.9207  134.5452  155.9920 C   0  0  0  0  0  0  0  0  0  0  0  0
  147.0562  134.8714  157.1463 N   0  0  0  0  0  0  0  0  0  0  0  0
  145.6497  134.8825  156.9711 C   0  0  0  0  0  0  0  0  0  0  0  0
  145.1403  134.6438  155.8754 O   0  0  0  0  0  0  0  0  0  0  0  0
  144.8685  135.1810  158.1662 C   0  0  0  0  0  0  0  0  0  0  0  0
  143.5267  135.2028  158.0959 F   0  0  0  0  0  0  0  0  0  0  0  0
  145.4721  135.4312  159.3462 C   0  0  0  0  0  0  0  0  0  0  0  0
  146.8463  135.4239  159.5005 N   0  0  0  0  0  0  0  0  0  0  0  0
  147.4908  135.6955  160.8415 C   0  0  2  0  0  0  0  0  0  0  0  0
  147.0770  134.6225  161.8550 C   0  0  0  0  0  0  0  0  0  0  0  0
  145.8878  135.2729  162.5278 C   0  0  0  0  0  0  0  0  0  0  0  0
  146.3020  136.7401  162.5309 C   0  0  0  0  0  0  0  0  0  0  0  0
  147.0392  136.9281  161.3253 O   0  0  0  0  0  0  0  0  0  0  0  0
  147.6717  135.1260  158.3951 C   0  0  0  0  0  0  0  0  0  0  0  0
  148.8978  135.0791  158.5190 O   0  0  0  0  0  0  0  0  0  0  0  0
  147.2610  133.1454  154.1147 N   0  0  0  0  0  0  0  0  0  0  0  0
  146.9122  132.0479  153.2740 C   0  0  0  0  0  0  0  0  0  0  0  0
  147.4726  130.7550  153.4224 C   0  0  0  0  0  0  0  0  0  0  0  0
  147.1073  129.7025  152.5579 C   0  0  0  0  0  0  0  0  0  0  0  0
  147.7281  128.3269  152.7509 C   0  0  0  0  0  0  0  0  0  0  0  0
  148.8699  128.3868  153.4376 F   0  0  0  0  0  0  0  0  0  0  0  0
  146.8803  127.5402  153.4137 F   0  0  0  0  0  0  0  0  0  0  0  0
  147.9770  127.7836  151.5597 F   0  0  0  0  0  0  0  0  0  0  0  0
  146.1724  129.9437  151.5305 C   0  0  0  0  0  0  0  0  0  0  0  0
  145.6236  131.2274  151.3619 C   0  0  0  0  0  0  0  0  0  0  0  0
  145.9925  132.2867  152.2216 C   0  0  0  0  0  0  0  0  0  0  0  0
  145.4554  133.5719  152.0365 N   0  0  0  0  0  0  0  0  0  0  0  0
  145.9001  134.2263  150.8129 C   0  0  0  0  0  0  0  0  0  0  0  0
  145.3922  135.6781  150.7817 C   0  0  0  0  0  0  0  0  0  0  0  0
  143.9746  135.6914  150.9271 O   0  0  0  0  0  0  0  0  0  0  0  0
  143.5569  135.1173  152.1631 C   0  0  0  0  0  0  0  0  0  0  0  0
  144.0136  133.6495  152.2307 C   0  0  0  0  0  0  0  0  0  0  0  0
  148.9729  134.6176  156.2740 H   0  0  0  0  0  0  0  0  0  0  0  0
  147.8131  135.2771  155.1901 H   0  0  0  0  0  0  0  0  0  0  0  0
  144.8424  135.6384  160.1984 H   0  0  0  0  0  0  0  0  0  0  0  0
  148.5655  135.7444  160.6591 H   0  0  0  0  0  0  0  0  0  0  0  0
  146.8538  133.6647  161.3828 H   0  0  0  0  0  0  0  0  0  0  0  0
  147.8914  134.4848  162.5675 H   0  0  0  0  0  0  0  0  0  0  0  0
  144.9898  135.1330  161.9248 H   0  0  0  0  0  0  0  0  0  0  0  0
  145.6938  134.8820  163.5268 H   0  0  0  0  0  0  0  0  0  0  0  0
  145.4500  137.4177  162.5889 H   0  0  0  0  0  0  0  0  0  0  0  0
  146.9591  136.9462  163.3768 H   0  0  0  0  0  0  0  0  0  0  0  0
  147.1482  134.0543  153.6891 H   0  0  0  0  0  0  0  0  0  0  0  0
  148.2021  130.5436  154.1878 H   0  0  0  0  0  0  0  0  0  0  0  0
  145.8749  129.1520  150.8593 H   0  0  0  0  0  0  0  0  0  0  0  0
  144.9175  131.3952  150.5616 H   0  0  0  0  0  0  0  0  0  0  0  0
  146.9894  134.2094  150.7584 H   0  0  0  0  0  0  0  0  0  0  0  0
  145.5234  133.6850  149.9441 H   0  0  0  0  0  0  0  0  0  0  0  0
  145.8552  136.2690  151.5737 H   0  0  0  0  0  0  0  0  0  0  0  0
  145.6579  136.1495  149.8354 H   0  0  0  0  0  0  0  0  0  0  0  0
  143.9647  135.6901  152.9978 H   0  0  0  0  0  0  0  0  0  0  0  0
  142.4710  135.1775  152.2351 H   0  0  0  0  0  0  0  0  0  0  0  0
  143.5031  133.0683  151.4619 H   0  0  0  0  0  0  0  0  0  0  0  0
  143.7461  133.2175  153.1958 H   0  0  0  0  0  0  0  0  0  0  0  0
  1  2  2  0  0  0  0
  2  3  1  0  0  0  0
  2 18  1  0  0  0  0
  3  4  1  0  0  0  0
  3 35  1  0  0  0  0
  3 36  1  0  0  0  0
  4 16  1  0  0  0  0
  4  5  1  0  0  0  0
  5  6  2  0  0  0  0
  5  7  1  0  0  0  0
  7  8  1  0  0  0  0
  7  9  2  0  0  0  0
  9 10  1  0  0  0  0
  9 37  1  0  0  0  0
 10 11  1  0  0  0  0
 10 16  1  0  0  0  0
 11 15  1  0  0  0  0
 11 12  1  0  0  0  0
 11 38  1  0  0  0  0
 12 13  1  0  0  0  0
 12 39  1  0  0  0  0
 12 40  1  0  0  0  0
 13 14  1  0  0  0  0
 13 41  1  0  0  0  0
 13 42  1  0  0  0  0
 14 15  1  0  0  0  0
 14 43  1  0  0  0  0
 14 44  1  0  0  0  0
 16 17  2  0  0  0  0
 18 19  1  0  0  0  0
 18 45  1  0  0  0  0
 19 28  1  0  0  0  0
 19 20  2  0  0  0  0
 20 21  1  0  0  0  0
 20 46  1  0  0  0  0
 21 22  1  0  0  0  0
 21 26  2  0  0  0  0
 22 23  1  0  0  0  0
 22 24  1  0  0  0  0
 22 25  1  0  0  0  0
 26 27  1  0  0  0  0
 26 47  1  0  0  0  0
 27 28  2  0  0  0  0
 27 48  1  0  0  0  0
 28 29  1  0  0  0  0
 29 34  1  0  0  0  0
 29 30  1  0  0  0  0
 30 31  1  0  0  0  0
 30 49  1  0  0  0  0
 30 50  1  0  0  0  0
 31 32  1  0  0  0  0
 31 51  1  0  0  0  0
 31 52  1  0  0  0  0
 32 33  1  0  0  0  0
 33 34  1  0  0  0  0
 33 53  1  0  0  0  0
 33 54  1  0  0  0  0
 34 55  1  0  0  0  0
 34 56  1  0  0  0  0
M  END
> <s_m_source_file>
AV-unprocessed.smi

> <i_m_source_file_index>
29

> <i_lp_mmshare_version>
43012

> <i_f3d_flags>
0

> <s_epik_input>
TzFbQ0gyXVtDSDJdW0NIMl1bQ0BIXTFuKGMyPU8pW2NIXWMoRiljKD1PKW4yW0NIMl1DKD1PKVtOSF1jM1tjSF1jKEMoRikoRilGKVtjSF1bY0hdYzNONFtDSDJdW0NIMl1PW0NIMl1bQ0gyXTQ=

> <s_epik_cmdline>
J2VwaWtfcHl0aG9uJywgJy1waCcsICc3LjAnLCAnLXRuJywgJzgnLCAnLW1hJywgJzIwMCcsICctbWV0YWxfYmluZGluZycsICctaW1hZScsICc8aW5maWxlLm1hZT4nLCAnLW9tYWUnLCAnPG91dGZpbGUubWFlPic=

> <r_lp_tautomer_probability>
1

> <r_epik_Ionization_Penalty>
3.5967e-06

> <r_epik_Ionization_Penalty_Charging>
3.88729e-08

> <r_epik_Ionization_Penalty_Neutral>
3.55783e-06

> <r_epik_State_Penalty>
-0

> <r_epik_Charging_Adjusted_Penalty>
3.88729e-08

> <i_epik_Tot_Q>
0

> <i_epik_Tot_abs_Q>
0

> <r_epik_Metal_State_Penalty>
-0

> <b_epik_Metal_Only>
0

> <s_epik_Chemistry_Notes>
This compound contains an acetal/aminal-like group ( X-CH(R)-Y where X, Y are N, S, or O) that may be acid/base labile, releasing an aldehyde.

> <s_lp_Force_Field>
OPLS_2005

> <r_lp_Energy>
49.5757

> <b_lp_Chiralities_Consistent>
1

> <s_lp_Variant>
AV-unprocessed.smi:29-1

> <Gold.Version>
5.8.1

> <Gold.Id.Protein>
6NUR|6NUR_protein|mol2

> <Gold.PLP.Fitness>
53.1618

> <Gold.PLP.PLP>
-46.8415

> <Gold.PLP.part.hbond>
-3.0000

> <Gold.PLP.part.metal>
0.0000

> <Gold.PLP.part.buried>
-6.5433

> <Gold.PLP.part.nonpolar>
-37.7238

> <Gold.PLP.part.repulsive>
0.8434

> <Gold.PLP.ligand.clash>
0.0076

> <Gold.PLP.ligand.torsion>
1.1930

> <Gold.PLP.Chemscore.Hbond>
2.8240

> <Gold.PLP.Chemscore.CHOScore>
0.0000

> <Gold.PLP.Chemscore.Metal>
0.0000

> <Gold.Chemscore.Hbonds>
donor molecule, donor type, donor heavy atom, donor atom, acceptor molecule, acceptor atom, score
      P1  H  6896  6907       L1    17  0.68
      P1  H  6934  6947       L1    15  0.75

> <Gold.PLP.Chemscore.Internal.Correction>
0.2420

> <Gold.Rescore>
     Score         DG    S(hbond)    S(metal)    S(lipo)     H(rot)  DE(clash)    DE(int)     intcor
     16.86     -18.51       2.16        0.00      92.70       1.96       0.11       1.54       ----

> <Gold.Chemscore.Fitness>
16.8632

> <Gold.Chemscore.DG>
-18.5126

> <Gold.Chemscore.ZeroCoef>
-5.4800

> <Gold.Chemscore.Hbond>
2.1602

> <Gold.Chemscore.Metal>
0.0000

> <Gold.Chemscore.Lipo>
92.6966

> <Gold.Chemscore.Internal_Hbond>
0.0000

> <Gold.Chemscore.DEClash>
0.1055

> <Gold.Chemscore.DEInternal>
1.5438

> <Gold.Chemscore.Rot>
1.9641

> <Gold.Chemscore.Internal.Correction>
   9.000000E+99

> <Gold.Chemscore.Hbonds>
donor molecule, donor type, donor heavy atom, donor atom, acceptor molecule, acceptor atom, score
      P1  H  6896  6907       L1    17  0.67
      P1  H  6931  6943       L1    15  0.01
      P1  H  6934  6947       L1    15  0.47

> <Gold.Chemscore.Hbond.Weighted>
-7.2151

> <Gold.Chemscore.Metal.Weighted>
-0.0000

> <Gold.Chemscore.Lipo.Weighted>
-10.8455

> <Gold.Chemscore.Internal_Hbond.Weighted>
0.0000

> <Gold.Chemscore.DEClash.Weighted>
0.1055

> <Gold.Chemscore.DEInternal.Weighted>
1.5438

> <Gold.Chemscore.Rot.Weighted>
5.0280

> <Gold.Chemscore.Internal.Correction.Weighted>
   9.000000E+99

> <Gold.Protein.RotatedTorsions>
[ 6907 6896 6895 6894 ] final  -97.84 input  -60.11 | X-H torsion
[ 7974 7965 7964 7962 ] final  -49.56 input  175.53 | X-H torsion
[ 8008 7997 7996 7995 ] final   52.92 input   59.86 | X-H torsion
[ 10167 10162 10161 10158 ] final  -86.63 input  -65.29 | X-H torsion
[ 10718 10713 10712 10709 ] final  133.89 input   66.30 | X-H torsion
[ 10763 10752 10751 10750 ] final  135.73 input  -60.55 | X-H torsion
[ 11005 11000 10999 10996 ] final  114.39 input  -57.11 | X-H torsion

> <Gold.Protein.ActiveResidues>
 VAL166  LYS551  ARG553  GLY616  TRP617  ASP618  TYR619  PRO620  LYS621  CYS622 
 ASP623  PHE694  ASN695  SER759  ASP760  ASP761  ALA762  ILE779  LEU786  VAL792 
 PHE793  MET794  SER795  GLU796  ALA797  LYS798  CYS799  TRP800  GLU811  SER814 

> <Gold.Protein.RotatedAtoms>
  150.7028  134.1287  159.4061 H   0  0  0  0  0  0  0  0  0  0  0  0  # atno 6907 bound_to 6896
  151.9273  135.0270  160.0536 H   0  0  0  0  0  0  0  0  0  0  0  0  # atno 6908 bound_to 6896
  152.2205  133.4945  159.5197 H   0  0  0  0  0  0  0  0  0  0  0  0  # atno 6909 bound_to 6896
  145.9393  140.7677  142.9560 H   0  0  0  0  0  0  0  0  0  0  0  0  # atno 7974 bound_to 7965
  155.4598  140.3461  155.4311 H   0  0  0  0  0  0  0  0  0  0  0  0  # atno 8008 bound_to 7997
  156.1168  140.1476  156.9290 H   0  0  0  0  0  0  0  0  0  0  0  0  # atno 8009 bound_to 7997
  154.4795  140.0874  156.7322 H   0  0  0  0  0  0  0  0  0  0  0  0  # atno 8010 bound_to 7997
  140.3923  143.2699  151.9249 H   0  0  0  0  0  0  0  0  0  0  0  0  # atno 10167 bound_to 10162
  157.4728  131.1081  150.9781 H   0  0  0  0  0  0  0  0  0  0  0  0  # atno 10718 bound_to 10713
  153.8449  135.3086  155.3428 H   0  0  0  0  0  0  0  0  0  0  0  0  # atno 10763 bound_to 10752
  154.7916  135.4779  154.0069 H   0  0  0  0  0  0  0  0  0  0  0  0  # atno 10764 bound_to 10752
  153.1553  135.6851  153.8914 H   0  0  0  0  0  0  0  0  0  0  0  0  # atno 10765 bound_to 10752
  139.8979  134.9567  156.6885 H   0  0  0  0  0  0  0  0  0  0  0  0  # atno 11005 bound_to 11000
  144.6776  140.2253  143.7361 LP  0  0  0  0  0  0  0  0  0  0  0  0  # atno 17320 bound_to 7965
  145.8322  139.2091  143.1876 LP  0  0  0  0  0  0  0  0  0  0  0  0  # atno 17321 bound_to 7965
  139.4788  144.5716  151.8079 LP  0  0  0  0  0  0  0  0  0  0  0  0  # atno 17342 bound_to 10162
  140.4827  144.1426  150.5935 LP  0  0  0  0  0  0  0  0  0  0  0  0  # atno 17343 bound_to 10162
  157.0540  130.5799  149.5375 LP  0  0  0  0  0  0  0  0  0  0  0  0  # atno 17370 bound_to 10713
  156.0082  130.5171  150.7900 LP  0  0  0  0  0  0  0  0  0  0  0  0  # atno 17371 bound_to 10713
  140.7244  133.9113  155.8168 LP  0  0  0  0  0  0  0  0  0  0  0  0  # atno 17394 bound_to 11000
  141.0202  134.0899  157.4128 LP  0  0  0  0  0  0  0  0  0  0  0  0  # atno 17395 bound_to 11000

$$$$
