AV-unprocessed.smi:2146|AV-procd|sdf|8739|dock2
  -GOLD-   2272011513D 1   1.00000     0.00000
 Structure written by MMmdl.
 44 45  0  0  0  0  0  0  0  0  1 V2000
  147.0159  141.9049  154.3179 C   0  0  0  0  0  0  0  0  0  0  0  0
  147.8882  140.6554  154.0301 C   0  0  1  0  0  0  0  0  0  0  0  0
  149.3685  140.9640  154.3970 C   0  0  0  0  0  0  0  0  0  0  0  0
  149.7559  140.4466  155.7074 N   0  0  0  0  0  0  0  0  0  0  0  0
  151.0054  140.1366  156.0869 C   0  0  0  0  0  0  0  0  0  0  0  0
  151.9888  140.2860  155.3605 O   0  0  0  0  0  0  0  0  0  0  0  0
  151.1531  139.5687  157.5053 C   0  0  0  0  0  0  0  0  0  0  0  0
  151.8703  140.4792  158.4126 N   0  0  0  0  0  0  0  0  0  0  0  0
  151.4364  141.8191  158.4332 C   0  0  0  0  0  0  0  0  0  0  0  0
  151.9926  142.7588  159.2208 C   0  0  0  0  0  0  0  0  0  0  0  0
  151.4525  144.1794  159.2683 C   0  0  0  0  0  0  0  0  0  0  0  0
  152.0843  144.9043  160.1917 F   0  0  0  0  0  0  0  0  0  0  0  0
  151.6253  144.7695  158.0864 F   0  0  0  0  0  0  0  0  0  0  0  0
  150.1488  144.1877  159.5489 F   0  0  0  0  0  0  0  0  0  0  0  0
  153.0665  142.3181  160.0896 C   0  0  0  0  0  0  0  0  0  0  0  0
  153.4843  141.0370  160.0926 C   0  0  0  0  0  0  0  0  0  0  0  0
  152.8772  140.0294  159.2199 C   0  0  0  0  0  0  0  0  0  0  0  0
  153.2488  138.8558  159.2181 O   0  0  0  0  0  0  0  0  0  0  0  0
  147.3700  139.4325  154.6887 N   0  0  0  0  0  0  0  0  0  0  0  0
  145.9582  139.1770  154.3779 C   0  0  0  0  0  0  0  0  0  0  0  0
  145.4220  137.8947  155.0376 C   0  0  0  0  0  0  0  0  0  0  0  0
  146.2163  136.7851  154.6430 O   0  0  0  0  0  0  0  0  0  0  0  0
  147.5806  136.9552  155.0004 C   0  0  0  0  0  0  0  0  0  0  0  0
  148.1349  138.2295  154.3399 C   0  0  0  0  0  0  0  0  0  0  0  0
  147.4015  142.8012  153.8342 H   0  0  0  0  0  0  0  0  0  0  0  0
  146.9586  142.1076  155.3877 H   0  0  0  0  0  0  0  0  0  0  0  0
  146.0006  141.8029  153.9383 H   0  0  0  0  0  0  0  0  0  0  0  0
  147.8577  140.4928  152.9514 H   0  0  0  0  0  0  0  0  0  0  0  0
  150.0328  140.6005  153.6113 H   0  0  0  0  0  0  0  0  0  0  0  0
  149.5384  142.0369  154.4674 H   0  0  0  0  0  0  0  0  0  0  0  0
  149.0107  140.2959  156.3720 H   0  0  0  0  0  0  0  0  0  0  0  0
  150.1607  139.3232  157.8864 H   0  0  0  0  0  0  0  0  0  0  0  0
  151.6825  138.6153  157.4568 H   0  0  0  0  0  0  0  0  0  0  0  0
  150.6068  142.0301  157.7736 H   0  0  0  0  0  0  0  0  0  0  0  0
  153.5462  143.0270  160.7482 H   0  0  0  0  0  0  0  0  0  0  0  0
  154.2868  140.7439  160.7536 H   0  0  0  0  0  0  0  0  0  0  0  0
  145.3324  139.9958  154.7276 H   0  0  0  0  0  0  0  0  0  0  0  0
  145.8227  139.1122  153.2972 H   0  0  0  0  0  0  0  0  0  0  0  0
  145.4267  137.9885  156.1247 H   0  0  0  0  0  0  0  0  0  0  0  0
  144.3894  137.7173  154.7367 H   0  0  0  0  0  0  0  0  0  0  0  0
  147.6769  137.0090  156.0860 H   0  0  0  0  0  0  0  0  0  0  0  0
  148.1454  136.0827  154.6723 H   0  0  0  0  0  0  0  0  0  0  0  0
  148.1476  138.0999  153.2567 H   0  0  0  0  0  0  0  0  0  0  0  0
  149.1701  138.3247  154.6613 H   0  0  0  0  0  0  0  0  0  0  0  0
  1  2  1  0  0  0  0
  1 25  1  0  0  0  0
  1 26  1  0  0  0  0
  1 27  1  0  0  0  0
  2  3  1  0  0  0  0
  2 19  1  0  0  0  0
  2 28  1  0  0  0  0
  3  4  1  0  0  0  0
  3 29  1  0  0  0  0
  3 30  1  0  0  0  0
  4  5  1  0  0  0  0
  4 31  1  0  0  0  0
  5  6  2  0  0  0  0
  5  7  1  0  0  0  0
  7  8  1  0  0  0  0
  7 32  1  0  0  0  0
  7 33  1  0  0  0  0
  8 17  1  0  0  0  0
  8  9  1  0  0  0  0
  9 10  2  0  0  0  0
  9 34  1  0  0  0  0
 10 11  1  0  0  0  0
 10 15  1  0  0  0  0
 11 12  1  0  0  0  0
 11 13  1  0  0  0  0
 11 14  1  0  0  0  0
 15 16  2  0  0  0  0
 15 35  1  0  0  0  0
 16 17  1  0  0  0  0
 16 36  1  0  0  0  0
 17 18  2  0  0  0  0
 19 24  1  0  0  0  0
 19 20  1  0  0  0  0
 20 21  1  0  0  0  0
 20 37  1  0  0  0  0
 20 38  1  0  0  0  0
 21 22  1  0  0  0  0
 21 39  1  0  0  0  0
 21 40  1  0  0  0  0
 22 23  1  0  0  0  0
 23 24  1  0  0  0  0
 23 41  1  0  0  0  0
 23 42  1  0  0  0  0
 24 43  1  0  0  0  0
 24 44  1  0  0  0  0
M  END
> <s_m_source_file>
AV-unprocessed.smi

> <i_m_source_file_index>
2146

> <i_lp_mmshare_version>
43012

> <i_f3d_flags>
0

> <s_epik_input>
W0NIMl0xW0NIMl1PW0NIMl1bQ0gyXU4xW0NASF0oW0NIM10pW0NIMl1bTkhdQyg9TylbQ0gyXW4yW2NIXWMoQyhGKShGKUYpW2NIXVtjSF1jMj1P

> <s_epik_cmdline>
J2VwaWtfcHl0aG9uJywgJy1waCcsICc3LjAnLCAnLXRuJywgJzgnLCAnLW1hJywgJzIwMCcsICctbWV0YWxfYmluZGluZycsICctaW1hZScsICc8aW5maWxlLm1hZT4nLCAnLW9tYWUnLCAnPG91dGZpbGUubWFlPic=

> <r_lp_tautomer_probability>
1

> <r_epik_Ionization_Penalty>
0.237382

> <r_epik_Ionization_Penalty_Charging>
1.80451e-08

> <r_epik_Ionization_Penalty_Neutral>
0.237382

> <r_epik_State_Penalty>
0.228245

> <r_epik_Charging_Adjusted_Penalty>
0.228245

> <i_epik_Tot_Q>
0

> <i_epik_Tot_abs_Q>
0

> <r_epik_Metal_State_Penalty>
0.22822

> <b_epik_Metal_Only>
0

> <s_lp_Force_Field>
OPLS_2005

> <r_lp_Energy>
40.9895

> <b_lp_Chiralities_Consistent>
1

> <s_lp_Variant>
AV-unprocessed.smi:2146-2

> <Gold.Version>
5.8.1

> <Gold.Id.Protein>
6NUR|6NUR_protein|mol2

> <Gold.PLP.Fitness>
45.1646

> <Gold.PLP.PLP>
-44.5440

> <Gold.PLP.part.hbond>
-1.0000

> <Gold.PLP.part.metal>
0.0000

> <Gold.PLP.part.buried>
-5.6387

> <Gold.PLP.part.nonpolar>
-38.2482

> <Gold.PLP.part.repulsive>
0.2133

> <Gold.PLP.ligand.clash>
0.0000

> <Gold.PLP.ligand.torsion>
0.9157

> <Gold.PLP.Chemscore.Hbond>
0.7840

> <Gold.PLP.Chemscore.CHOScore>
0.0000

> <Gold.PLP.Chemscore.Metal>
0.0000

> <Gold.Chemscore.Hbonds>
donor molecule, donor type, donor heavy atom, donor atom, acceptor molecule, acceptor atom, score
      P1  H  7989  7998       L1     6  0.74

> <Gold.PLP.Chemscore.Internal.Correction>
0.1000

> <Gold.Rescore>
     Score         DG    S(hbond)    S(metal)    S(lipo)     H(rot)  DE(clash)    DE(int)     intcor
     11.70     -12.61       0.82        0.00      83.59       2.10       0.12       0.78       ----

> <Gold.Chemscore.Fitness>
11.7038

> <Gold.Chemscore.DG>
-12.6067

> <Gold.Chemscore.ZeroCoef>
-5.4800

> <Gold.Chemscore.Hbond>
0.8182

> <Gold.Chemscore.Metal>
0.0000

> <Gold.Chemscore.Lipo>
83.5875

> <Gold.Chemscore.Internal_Hbond>
0.0000

> <Gold.Chemscore.DEClash>
0.1229

> <Gold.Chemscore.DEInternal>
0.7800

> <Gold.Chemscore.Rot>
2.1039

> <Gold.Chemscore.Internal.Correction>
   9.000000E+99

> <Gold.Chemscore.Hbonds>
donor molecule, donor type, donor heavy atom, donor atom, acceptor molecule, acceptor atom, score
      P1  H  7989  7998       L1     6  0.70

> <Gold.Chemscore.Hbond.Weighted>
-2.7329

> <Gold.Chemscore.Metal.Weighted>
-0.0000

> <Gold.Chemscore.Lipo.Weighted>
-9.7797

> <Gold.Chemscore.Internal_Hbond.Weighted>
0.0000

> <Gold.Chemscore.DEClash.Weighted>
0.1229

> <Gold.Chemscore.DEInternal.Weighted>
0.7800

> <Gold.Chemscore.Rot.Weighted>
5.3860

> <Gold.Chemscore.Internal.Correction.Weighted>
   9.000000E+99

> <Gold.Protein.RotatedTorsions>
[ 6907 6896 6895 6894 ] final -176.96 input  -60.11 | X-H torsion
[ 7974 7965 7964 7962 ] final   34.43 input  175.53 | X-H torsion
[ 8008 7997 7996 7995 ] final -113.44 input   59.86 | X-H torsion
[ 10167 10162 10161 10158 ] final  -79.72 input  -65.29 | X-H torsion
[ 10718 10713 10712 10709 ] final   55.70 input   66.30 | X-H torsion
[ 10763 10752 10751 10750 ] final  -47.99 input  -60.55 | X-H torsion
[ 11005 11000 10999 10996 ] final   -4.75 input  -57.11 | X-H torsion

> <Gold.Protein.ActiveResidues>
 VAL166  LYS551  ARG553  GLY616  TRP617  ASP618  TYR619  PRO620  LYS621  CYS622 
 ASP623  PHE694  ASN695  SER759  ASP760  ASP761  ALA762  ILE779  LEU786  VAL792 
 PHE793  MET794  SER795  GLU796  ALA797  LYS798  CYS799  TRP800  GLU811  SER814 

> <Gold.Protein.RotatedAtoms>
  151.6132  133.3345  159.3071 H   0  0  0  0  0  0  0  0  0  0  0  0  # atno 6907 bound_to 6896
  150.8145  134.7323  159.6729 H   0  0  0  0  0  0  0  0  0  0  0  0  # atno 6908 bound_to 6896
  152.4241  134.5905  160.0024 H   0  0  0  0  0  0  0  0  0  0  0  0  # atno 6909 bound_to 6896
  146.1353  139.6270  142.9199 H   0  0  0  0  0  0  0  0  0  0  0  0  # atno 7974 bound_to 7965
  155.0208  140.0393  157.2436 H   0  0  0  0  0  0  0  0  0  0  0  0  # atno 8008 bound_to 7997
  154.7379  140.2743  155.6375 H   0  0  0  0  0  0  0  0  0  0  0  0  # atno 8009 bound_to 7997
  156.2857  140.2671  156.2098 H   0  0  0  0  0  0  0  0  0  0  0  0  # atno 8010 bound_to 7997
  140.4568  143.2466  151.8408 H   0  0  0  0  0  0  0  0  0  0  0  0  # atno 10167 bound_to 10162
  157.5368  130.8669  149.8765 H   0  0  0  0  0  0  0  0  0  0  0  0  # atno 10718 bound_to 10713
  154.0704  135.6605  153.4823 H   0  0  0  0  0  0  0  0  0  0  0  0  # atno 10763 bound_to 10752
  153.0393  135.5156  154.7572 H   0  0  0  0  0  0  0  0  0  0  0  0  # atno 10764 bound_to 10752
  154.6636  135.3018  154.9802 H   0  0  0  0  0  0  0  0  0  0  0  0  # atno 10765 bound_to 10752
  140.6836  133.9132  155.8571 H   0  0  0  0  0  0  0  0  0  0  0  0  # atno 11005 bound_to 11000
  145.5170  141.0433  143.2456 LP  0  0  0  0  0  0  0  0  0  0  0  0  # atno 17320 bound_to 7965
  144.7733  139.6685  143.7185 LP  0  0  0  0  0  0  0  0  0  0  0  0  # atno 17321 bound_to 7965
  139.4802  144.5055  151.9003 LP  0  0  0  0  0  0  0  0  0  0  0  0  # atno 17342 bound_to 10162
  140.4141  144.2330  150.5888 LP  0  0  0  0  0  0  0  0  0  0  0  0  # atno 17343 bound_to 10162
  156.0465  130.3727  150.1305 LP  0  0  0  0  0  0  0  0  0  0  0  0  # atno 17370 bound_to 10713
  156.9487  130.9768  151.3502 LP  0  0  0  0  0  0  0  0  0  0  0  0  # atno 17371 bound_to 10713
  141.0297  134.0773  157.4028 LP  0  0  0  0  0  0  0  0  0  0  0  0  # atno 17394 bound_to 11000
  139.8944  135.0136  156.6949 LP  0  0  0  0  0  0  0  0  0  0  0  0  # atno 17395 bound_to 11000

$$$$
