AV-unprocessed.smi:47|AV-procd|sdf|428|dock1
  -GOLD-   2262016303D 1   1.00000     0.00000
 Structure written by MMmdl.
 31 33  0  0  0  0  0  0  0  0  3 V2000
  145.9143  140.2731  153.8879 O   0  0  0  0  0  0  0  0  0  0  0  0
  147.1671  139.7893  153.4518 C   0  0  2  0  0  0  0  0  0  0  0  0
  147.4218  138.3476  153.9016 C   0  0  0  0  0  0  0  0  0  0  0  0
  148.8843  138.2213  154.0565 N   0  3  0  0  0  0  0  0  0  0  0  0
  149.4888  139.5632  153.9375 C   0  0  2  0  0  0  0  0  0  0  0  0
  150.5845  139.7718  154.9608 C   0  0  0  0  0  0  0  0  0  0  0  0
  151.8169  139.2364  154.8731 N   0  0  0  0  0  0  0  0  0  0  0  0
  152.4749  139.6602  155.9351 N   0  5  0  0  0  0  0  0  0  0  0  0
  151.6507  140.4495  156.6408 C   0  0  0  0  0  0  0  0  0  0  0  0
  152.0634  141.0960  157.9034 C   0  0  0  0  0  0  0  0  0  0  0  0
  151.6420  142.4121  158.2047 C   0  0  0  0  0  0  0  0  0  0  0  0
  152.0229  143.0399  159.4066 C   0  0  0  0  0  0  0  0  0  0  0  0
  152.8341  142.3571  160.3308 C   0  0  0  0  0  0  0  0  0  0  0  0
  153.2637  141.0481  160.0475 C   0  0  0  0  0  0  0  0  0  0  0  0
  152.8812  140.4252  158.8435 C   0  0  0  0  0  0  0  0  0  0  0  0
  150.4666  140.5446  156.0525 N   0  0  0  0  0  0  0  0  0  0  0  0
  148.3304  140.5548  154.0741 C   0  0  0  0  0  0  0  0  0  0  0  0
  147.2246  139.8542  152.3642 H   0  0  0  0  0  0  0  0  0  0  0  0
  149.9151  139.6428  152.9364 H   0  0  0  0  0  0  0  0  0  0  0  0
  145.3456  140.3601  153.1377 H   0  0  0  0  0  0  0  0  0  0  0  0
  146.9684  138.1612  154.8764 H   0  0  0  0  0  0  0  0  0  0  0  0
  147.0250  137.6138  153.1996 H   0  0  0  0  0  0  0  0  0  0  0  0
  149.0889  137.8582  154.9773 H   0  0  0  0  0  0  0  0  0  0  0  0
  151.0185  142.9531  157.5081 H   0  0  0  0  0  0  0  0  0  0  0  0
  151.6913  144.0455  159.6189 H   0  0  0  0  0  0  0  0  0  0  0  0
  153.1259  142.8361  161.2537 H   0  0  0  0  0  0  0  0  0  0  0  0
  153.8865  140.5191  160.7536 H   0  0  0  0  0  0  0  0  0  0  0  0
  153.2217  139.4187  158.6487 H   0  0  0  0  0  0  0  0  0  0  0  0
  148.5298  141.5150  153.5970 H   0  0  0  0  0  0  0  0  0  0  0  0
  148.1240  140.7403  155.1301 H   0  0  0  0  0  0  0  0  0  0  0  0
  149.2741  137.6088  153.3552 H   0  0  0  0  0  0  0  0  0  0  0  0
  1  2  1  0  0  0  0
  1 20  1  0  0  0  0
  2 18  1  0  0  0  0
  2 17  1  0  0  0  0
  2  3  1  0  0  0  0
  3  4  1  0  0  0  0
  3 21  1  0  0  0  0
  3 22  1  0  0  0  0
  4  5  1  0  0  0  0
  4 23  1  0  0  0  0
  4 31  1  0  0  0  0
  5 19  1  0  0  0  0
  5  6  1  0  0  0  0
  5 17  1  0  0  0  0
  6 16  1  0  0  0  0
  6  7  2  0  0  0  0
  7  8  1  0  0  0  0
  8  9  1  0  0  0  0
  9 10  1  0  0  0  0
  9 16  2  0  0  0  0
 10 15  1  0  0  0  0
 10 11  2  0  0  0  0
 11 12  1  0  0  0  0
 11 24  1  0  0  0  0
 12 13  2  0  0  0  0
 12 25  1  0  0  0  0
 13 14  1  0  0  0  0
 13 26  1  0  0  0  0
 14 15  2  0  0  0  0
 14 27  1  0  0  0  0
 15 28  1  0  0  0  0
 17 29  1  0  0  0  0
 17 30  1  0  0  0  0
M  CHG  1   4   1
M  CHG  1   8  -1
M  END
> <s_m_source_file>
AV-unprocessed.smi

> <i_m_source_file_index>
47

> <i_lp_mmshare_version>
43012

> <i_f3d_flags>
0

> <s_epik_input>
W09IXVtDQEhdMVtDSDJdW05IXVtDQEBIXShbQ0gyXTEpYzJuW25IXWMobjIpLWMzW2NIXVtjSF1bY0hdW2NIXVtjSF0z

> <s_epik_cmdline>
J2VwaWtfcHl0aG9uJywgJy1waCcsICc3LjAnLCAnLXRuJywgJzgnLCAnLW1hJywgJzIwMCcsICctbWV0YWxfYmluZGluZycsICctaW1hZScsICc8aW5maWxlLm1hZT4nLCAnLW9tYWUnLCAnPG91dGZpbGUubWFlPic=

> <r_lp_tautomer_probability>
1

> <r_epik_Ionization_Penalty>
1.09593

> <r_epik_Ionization_Penalty_Charging>
1.09593

> <r_epik_Ionization_Penalty_Neutral>
3.91329e-08

> <r_epik_State_Penalty>
0.690005

> <r_epik_Charging_Adjusted_Penalty>
1.78594

> <i_epik_Tot_Q>
0

> <i_epik_Tot_abs_Q>
2

> <r_epik_Metal_State_Penalty>
0.213596

> <b_epik_Metal_Only>
0

> <s_lp_Force_Field>
OPLS_2005

> <r_lp_Energy>
20.9677

> <b_lp_Chiralities_Consistent>
1

> <s_lp_Variant>
AV-unprocessed.smi:47-6

> <Gold.Version>
5.8.1

> <Gold.Id.Protein>
6NUR|6NUR_protein|mol2

> <Gold.PLP.Fitness>
44.8967

> <Gold.PLP.PLP>
-31.8156

> <Gold.PLP.part.hbond>
-3.9417

> <Gold.PLP.part.metal>
0.0000

> <Gold.PLP.part.buried>
-1.6074

> <Gold.PLP.part.nonpolar>
-26.7857

> <Gold.PLP.part.repulsive>
0.0780

> <Gold.PLP.ligand.clash>
0.0000

> <Gold.PLP.ligand.torsion>
0.9382

> <Gold.PLP.Chemscore.Hbond>
4.9840

> <Gold.PLP.Chemscore.CHOScore>
0.0000

> <Gold.PLP.Chemscore.Metal>
0.0000

> <Gold.Chemscore.Hbonds>
donor molecule, donor type, donor heavy atom, donor atom, acceptor molecule, acceptor atom, score
      L1  H     1    20       P1 10175  0.99
      L1  H     4    31       P1  7948  1.98
      P1  H  7997  8009       L1     8  2.00

> <Gold.PLP.Chemscore.Internal.Correction>
0.0054

> <Gold.Rescore>
     Score         DG    S(hbond)    S(metal)    S(lipo)     H(rot)  DE(clash)    DE(int)     intcor
     18.71     -19.38       2.63        0.00      76.18       1.48       0.12       0.55       ----

> <Gold.Chemscore.Fitness>
18.7085

> <Gold.Chemscore.DG>
-19.3765

> <Gold.Chemscore.ZeroCoef>
-5.4800

> <Gold.Chemscore.Hbond>
2.6266

> <Gold.Chemscore.Metal>
0.0000

> <Gold.Chemscore.Lipo>
76.1837

> <Gold.Chemscore.Internal_Hbond>
0.0000

> <Gold.Chemscore.DEClash>
0.1214

> <Gold.Chemscore.DEInternal>
0.5465

> <Gold.Chemscore.Rot>
1.4804

> <Gold.Chemscore.Internal.Correction>
   9.000000E+99

> <Gold.Chemscore.Hbonds>
donor molecule, donor type, donor heavy atom, donor atom, acceptor molecule, acceptor atom, score
      L1  H     1    20       P1 10175  0.91
      L1  H     4    31       P1  7948  0.87
      P1  H  7997  8009       L1     8  0.81

> <Gold.Chemscore.Hbond.Weighted>
-8.7729

> <Gold.Chemscore.Metal.Weighted>
-0.0000

> <Gold.Chemscore.Lipo.Weighted>
-8.9135

> <Gold.Chemscore.Internal_Hbond.Weighted>
0.0000

> <Gold.Chemscore.DEClash.Weighted>
0.1214

> <Gold.Chemscore.DEInternal.Weighted>
0.5465

> <Gold.Chemscore.Rot.Weighted>
3.7899

> <Gold.Chemscore.Internal.Correction.Weighted>
   9.000000E+99

> <Gold.Protein.RotatedTorsions>
[ 6907 6896 6895 6894 ] final -173.79 input  -60.11 | X-H torsion
[ 7974 7965 7964 7962 ] final   16.54 input  175.53 | X-H torsion
[ 8008 7997 7996 7995 ] final -154.73 input   59.86 | X-H torsion
[ 10167 10162 10161 10158 ] final -114.00 input  -65.29 | X-H torsion
[ 10718 10713 10712 10709 ] final   -8.93 input   66.30 | X-H torsion
[ 10763 10752 10751 10750 ] final   60.62 input  -60.55 | X-H torsion
[ 11005 11000 10999 10996 ] final   86.54 input  -57.11 | X-H torsion

> <Gold.Protein.ActiveResidues>
 VAL166  LYS551  ARG553  GLY616  TRP617  ASP618  TYR619  PRO620  LYS621  CYS622 
 ASP623  PHE694  ASN695  SER759  ASP760  ASP761  ALA762  ILE779  LEU786  VAL792 
 PHE793  MET794  SER795  GLU796  ALA797  LYS798  CYS799  TRP800  GLU811  SER814 

> <Gold.Protein.RotatedAtoms>
  151.5619  133.3402  159.2972 H   0  0  0  0  0  0  0  0  0  0  0  0  # atno 6907 bound_to 6896
  150.8417  134.7715  159.6949 H   0  0  0  0  0  0  0  0  0  0  0  0  # atno 6908 bound_to 6896
  152.4483  134.5454  159.9903 H   0  0  0  0  0  0  0  0  0  0  0  0  # atno 6909 bound_to 6896
  146.2246  139.8733  142.8583 H   0  0  0  0  0  0  0  0  0  0  0  0  # atno 7974 bound_to 7965
  155.6909  140.0755  157.2448 H   0  0  0  0  0  0  0  0  0  0  0  0  # atno 8008 bound_to 7997
  154.4089  140.1665  156.2138 H   0  0  0  0  0  0  0  0  0  0  0  0  # atno 8009 bound_to 7997
  155.9452  140.3381  155.6364 H   0  0  0  0  0  0  0  0  0  0  0  0  # atno 8010 bound_to 7997
  140.1057  143.4572  152.1784 H   0  0  0  0  0  0  0  0  0  0  0  0  # atno 10167 bound_to 10162
  156.6955  130.5077  149.5931 H   0  0  0  0  0  0  0  0  0  0  0  0  # atno 10718 bound_to 10713
  152.9926  135.5530  154.5903 H   0  0  0  0  0  0  0  0  0  0  0  0  # atno 10763 bound_to 10752
  154.5266  135.2811  155.1219 H   0  0  0  0  0  0  0  0  0  0  0  0  # atno 10764 bound_to 10752
  154.2551  135.6391  153.5307 H   0  0  0  0  0  0  0  0  0  0  0  0  # atno 10765 bound_to 10752
  139.8942  134.8362  156.2735 H   0  0  0  0  0  0  0  0  0  0  0  0  # atno 11005 bound_to 11000
  145.2586  141.0069  143.3840 LP  0  0  0  0  0  0  0  0  0  0  0  0  # atno 17320 bound_to 7965
  144.9317  139.4291  143.6492 LP  0  0  0  0  0  0  0  0  0  0  0  0  # atno 17321 bound_to 7965
  139.5646  144.7427  151.4057 LP  0  0  0  0  0  0  0  0  0  0  0  0  # atno 17342 bound_to 10162
  140.6953  143.7763  150.7317 LP  0  0  0  0  0  0  0  0  0  0  0  0  # atno 17343 bound_to 10162
  156.1767  130.6472  151.0902 LP  0  0  0  0  0  0  0  0  0  0  0  0  # atno 17370 bound_to 10713
  157.6993  131.0782  150.6871 LP  0  0  0  0  0  0  0  0  0  0  0  0  # atno 17371 bound_to 10713
  141.0085  133.7109  156.1074 LP  0  0  0  0  0  0  0  0  0  0  0  0  # atno 17394 bound_to 11000
  140.7400  134.4161  157.5556 LP  0  0  0  0  0  0  0  0  0  0  0  0  # atno 17395 bound_to 11000

$$$$
