AV-unprocessed.smi:1061|AV-procd|sdf|4660|dock1
  -GOLD-   22720 3173D 1   1.00000     0.00000
 Structure written by MMmdl.
 50 52  0  0  0  0  0  0  0  0  1 V2000
  146.6085  139.1126  154.3755 O   0  0  0  0  0  0  0  0  0  0  0  0
  147.3965  138.4939  153.6608 C   0  0  0  0  0  0  0  0  0  0  0  0
  147.0084  137.6758  152.6720 N   0  0  0  0  0  0  0  0  0  0  0  0
  145.6218  137.3924  152.3174 C   0  0  0  0  0  0  0  0  0  0  0  0
  145.5100  136.1500  151.4102 C   0  0  0  0  0  0  0  0  0  0  0  0
  145.7653  134.8239  152.1461 C   0  0  0  0  0  0  0  0  0  0  0  0
  146.3850  134.8230  153.2108 O   0  0  0  0  0  0  0  0  0  0  0  0
  145.2918  133.6876  151.5934 N   0  0  0  0  0  0  0  0  0  0  0  0
  144.5755  133.5895  150.3218 C   0  0  0  0  0  0  0  0  0  0  0  0
  144.4772  132.0942  150.0175 C   0  0  0  0  0  0  0  0  0  0  0  0
  144.5536  131.4298  151.3851 C   0  0  0  0  0  0  0  0  0  0  0  0
  145.4380  132.3686  152.2061 C   0  0  0  0  0  0  0  0  0  0  0  0
  148.7369  138.5530  153.7440 N   0  0  0  0  0  0  0  0  0  0  0  0
  149.5432  139.2996  154.6464 C   0  0  0  0  0  0  0  0  0  0  0  0
  150.9492  139.1862  154.7505 C   0  0  0  0  0  0  0  0  0  0  0  0
  151.6323  139.9947  155.6790 C   0  0  0  0  0  0  0  0  0  0  0  0
  150.9003  140.9028  156.4795 C   0  0  0  0  0  0  0  0  0  0  0  0
  151.5670  141.7196  157.4189 N   0  0  0  0  0  0  0  0  0  0  0  0
  151.6554  141.1826  158.7746 C   0  0  0  0  0  0  0  0  0  0  0  0
  152.6541  142.0006  159.6116 C   0  0  0  0  0  0  0  0  0  0  0  0
  152.2920  143.3770  159.5857 O   0  0  0  0  0  0  0  0  0  0  0  0
  152.3223  143.9073  158.2649 C   0  0  0  0  0  0  0  0  0  0  0  0
  151.3105  143.1582  157.3814 C   0  0  0  0  0  0  0  0  0  0  0  0
  149.5549  141.0223  156.3629 N   0  0  0  0  0  0  0  0  0  0  0  0
  148.9038  140.2446  155.4730 C   0  0  0  0  0  0  0  0  0  0  0  0
  147.7215  137.2112  152.1289 H   0  0  0  0  0  0  0  0  0  0  0  0
  145.0673  137.2326  153.2429 H   0  0  0  0  0  0  0  0  0  0  0  0
  145.1795  138.2667  151.8358 H   0  0  0  0  0  0  0  0  0  0  0  0
  144.5132  136.1149  150.9694 H   0  0  0  0  0  0  0  0  0  0  0  0
  146.2202  136.2345  150.5868 H   0  0  0  0  0  0  0  0  0  0  0  0
  143.5795  134.0191  150.4394 H   0  0  0  0  0  0  0  0  0  0  0  0
  145.0839  134.1201  149.5160 H   0  0  0  0  0  0  0  0  0  0  0  0
  143.5720  131.8326  149.4685 H   0  0  0  0  0  0  0  0  0  0  0  0
  145.3337  131.7861  149.4161 H   0  0  0  0  0  0  0  0  0  0  0  0
  143.5567  131.3871  151.8258 H   0  0  0  0  0  0  0  0  0  0  0  0
  144.9431  130.4124  151.3409 H   0  0  0  0  0  0  0  0  0  0  0  0
  146.4831  132.0619  152.1444 H   0  0  0  0  0  0  0  0  0  0  0  0
  145.1456  132.3693  153.2572 H   0  0  0  0  0  0  0  0  0  0  0  0
  149.2452  138.0356  153.0419 H   0  0  0  0  0  0  0  0  0  0  0  0
  151.5217  138.5130  154.1324 H   0  0  0  0  0  0  0  0  0  0  0  0
  152.7071  139.9216  155.7520 H   0  0  0  0  0  0  0  0  0  0  0  0
  150.6660  141.2216  159.2324 H   0  0  0  0  0  0  0  0  0  0  0  0
  151.9644  140.1384  158.7774 H   0  0  0  0  0  0  0  0  0  0  0  0
  152.6501  141.6530  160.6448 H   0  0  0  0  0  0  0  0  0  0  0  0
  153.6712  141.8729  159.2369 H   0  0  0  0  0  0  0  0  0  0  0  0
  152.0736  144.9680  158.3027 H   0  0  0  0  0  0  0  0  0  0  0  0
  153.3300  143.8305  157.8531 H   0  0  0  0  0  0  0  0  0  0  0  0
  151.3826  143.5287  156.3581 H   0  0  0  0  0  0  0  0  0  0  0  0
  150.2950  143.3531  157.7290 H   0  0  0  0  0  0  0  0  0  0  0  0
  147.8334  140.3815  155.4229 H   0  0  0  0  0  0  0  0  0  0  0  0
  1  2  2  0  0  0  0
  2  3  1  0  0  0  0
  2 13  1  0  0  0  0
  3  4  1  0  0  0  0
  3 26  1  0  0  0  0
  4  5  1  0  0  0  0
  4 27  1  0  0  0  0
  4 28  1  0  0  0  0
  5  6  1  0  0  0  0
  5 29  1  0  0  0  0
  5 30  1  0  0  0  0
  6  7  2  0  0  0  0
  6  8  1  0  0  0  0
  8 12  1  0  0  0  0
  8  9  1  0  0  0  0
  9 10  1  0  0  0  0
  9 31  1  0  0  0  0
  9 32  1  0  0  0  0
 10 11  1  0  0  0  0
 10 33  1  0  0  0  0
 10 34  1  0  0  0  0
 11 12  1  0  0  0  0
 11 35  1  0  0  0  0
 11 36  1  0  0  0  0
 12 37  1  0  0  0  0
 12 38  1  0  0  0  0
 13 14  1  0  0  0  0
 13 39  1  0  0  0  0
 14 25  1  0  0  0  0
 14 15  2  0  0  0  0
 15 16  1  0  0  0  0
 15 40  1  0  0  0  0
 16 17  2  0  0  0  0
 16 41  1  0  0  0  0
 17 18  1  0  0  0  0
 17 24  1  0  0  0  0
 18 23  1  0  0  0  0
 18 19  1  0  0  0  0
 19 20  1  0  0  0  0
 19 42  1  0  0  0  0
 19 43  1  0  0  0  0
 20 21  1  0  0  0  0
 20 44  1  0  0  0  0
 20 45  1  0  0  0  0
 21 22  1  0  0  0  0
 22 23  1  0  0  0  0
 22 46  1  0  0  0  0
 22 47  1  0  0  0  0
 23 48  1  0  0  0  0
 23 49  1  0  0  0  0
 24 25  2  0  0  0  0
 25 50  1  0  0  0  0
M  END
> <s_m_source_file>
AV-unprocessed.smi

> <i_m_source_file_index>
1061

> <i_lp_mmshare_version>
43012

> <i_f3d_flags>
0

> <s_epik_input>
W0NIMl0xW0NIMl1bQ0gyXVtDSDJdTjFDKD1PKVtDSDJdW0NIMl1bTkhdQyg9TylbTkhdYzJbY0hdW2NIXWMobltjSF0yKU4zW0NIMl1bQ0gyXU9bQ0gyXVtDSDJdMw==

> <s_epik_cmdline>
J2VwaWtfcHl0aG9uJywgJy1waCcsICc3LjAnLCAnLXRuJywgJzgnLCAnLW1hJywgJzIwMCcsICctbWV0YWxfYmluZGluZycsICctaW1hZScsICc8aW5maWxlLm1hZT4nLCAnLW9tYWUnLCAnPG91dGZpbGUubWFlPic=

> <r_lp_tautomer_probability>
1

> <r_epik_Ionization_Penalty>
0.00191188

> <r_epik_Ionization_Penalty_Charging>
0

> <r_epik_Ionization_Penalty_Neutral>
0.00191188

> <r_epik_State_Penalty>
0.00127902

> <r_epik_Charging_Adjusted_Penalty>
0.00127902

> <i_epik_Tot_Q>
0

> <i_epik_Tot_abs_Q>
0

> <r_epik_Metal_State_Penalty>
-0

> <b_epik_Metal_Only>
0

> <s_lp_Force_Field>
OPLS_2005

> <r_lp_Energy>
44.4165

> <b_lp_Chiralities_Consistent>
1

> <s_lp_Variant>
AV-unprocessed.smi:1061-1

> <Gold.Version>
5.8.1

> <Gold.Id.Protein>
6NUR|6NUR_protein|mol2

> <Gold.PLP.Fitness>
50.5236

> <Gold.PLP.PLP>
-47.4112

> <Gold.PLP.part.hbond>
-2.9430

> <Gold.PLP.part.metal>
0.0000

> <Gold.PLP.part.buried>
-5.1110

> <Gold.PLP.part.nonpolar>
-40.0809

> <Gold.PLP.part.repulsive>
0.7205

> <Gold.PLP.ligand.clash>
0.0000

> <Gold.PLP.ligand.torsion>
0.8808

> <Gold.PLP.Chemscore.Hbond>
1.4914

> <Gold.PLP.Chemscore.CHOScore>
0.0000

> <Gold.PLP.Chemscore.Metal>
0.0000

> <Gold.Chemscore.Hbonds>
donor molecule, donor type, donor heavy atom, donor atom, acceptor molecule, acceptor atom, score
      L1  H     3    26       P1  7948  1.00
      L1  H    13    39       P1  7948  0.56

> <Gold.PLP.Chemscore.Internal.Correction>
0.3998

> <Gold.Rescore>
     Score         DG    S(hbond)    S(metal)    S(lipo)     H(rot)  DE(clash)    DE(int)     intcor
     17.49     -19.72       1.71        0.00     110.53       1.71       0.11       2.12       ----

> <Gold.Chemscore.Fitness>
17.4900

> <Gold.Chemscore.DG>
-19.7228

> <Gold.Chemscore.ZeroCoef>
-5.4800

> <Gold.Chemscore.Hbond>
1.7052

> <Gold.Chemscore.Metal>
0.0000

> <Gold.Chemscore.Lipo>
110.5325

> <Gold.Chemscore.Internal_Hbond>
0.0000

> <Gold.Chemscore.DEClash>
0.1112

> <Gold.Chemscore.DEInternal>
2.1216

> <Gold.Chemscore.Rot>
1.7129

> <Gold.Chemscore.Internal.Correction>
   9.000000E+99

> <Gold.Chemscore.Hbonds>
donor molecule, donor type, donor heavy atom, donor atom, acceptor molecule, acceptor atom, score
      L1  H     3    26       P1  7948  0.97
      L1  H    13    39       P1  7948  0.54

> <Gold.Chemscore.Hbond.Weighted>
-5.6955

> <Gold.Chemscore.Metal.Weighted>
-0.0000

> <Gold.Chemscore.Lipo.Weighted>
-12.9323

> <Gold.Chemscore.Internal_Hbond.Weighted>
0.0000

> <Gold.Chemscore.DEClash.Weighted>
0.1112

> <Gold.Chemscore.DEInternal.Weighted>
2.1216

> <Gold.Chemscore.Rot.Weighted>
4.3849

> <Gold.Chemscore.Internal.Correction.Weighted>
   9.000000E+99

> <Gold.Protein.RotatedTorsions>
[ 6907 6896 6895 6894 ] final  -51.70 input  -60.11 | X-H torsion
[ 7974 7965 7964 7962 ] final   84.44 input  175.53 | X-H torsion
[ 8008 7997 7996 7995 ] final  -48.45 input   59.86 | X-H torsion
[ 10167 10162 10161 10158 ] final   98.21 input  -65.29 | X-H torsion
[ 10718 10713 10712 10709 ] final -144.19 input   66.30 | X-H torsion
[ 10763 10752 10751 10750 ] final   55.79 input  -60.55 | X-H torsion
[ 11005 11000 10999 10996 ] final   69.32 input  -57.11 | X-H torsion

> <Gold.Protein.ActiveResidues>
 VAL166  LYS551  ARG553  GLY616  TRP617  ASP618  TYR619  PRO620  LYS621  CYS622 
 ASP623  PHE694  ASN695  SER759  ASP760  ASP761  ALA762  ILE779  LEU786  VAL792 
 PHE793  MET794  SER795  GLU796  ALA797  LYS798  CYS799  TRP800  GLU811  SER814 

> <Gold.Protein.RotatedAtoms>
  150.8587  134.7933  159.7065 H   0  0  0  0  0  0  0  0  0  0  0  0  # atno 6907 bound_to 6896
  152.4631  134.5136  159.9771 H   0  0  0  0  0  0  0  0  0  0  0  0  # atno 6908 bound_to 6896
  151.5244  133.3422  159.2942 H   0  0  0  0  0  0  0  0  0  0  0  0  # atno 6909 bound_to 6896
  145.5987  139.2349  143.2258 H   0  0  0  0  0  0  0  0  0  0  0  0  # atno 7974 bound_to 7965
  154.4029  140.1321  156.4341 H   0  0  0  0  0  0  0  0  0  0  0  0  # atno 8008 bound_to 7997
  155.7523  140.3488  155.5136 H   0  0  0  0  0  0  0  0  0  0  0  0  # atno 8009 bound_to 7997
  155.8938  140.1007  157.1390 H   0  0  0  0  0  0  0  0  0  0  0  0  # atno 8010 bound_to 7997
  139.7730  144.6916  151.0130 H   0  0  0  0  0  0  0  0  0  0  0  0  # atno 10167 bound_to 10162
  156.3671  130.7768  151.1944 H   0  0  0  0  0  0  0  0  0  0  0  0  # atno 10718 bound_to 10713
  152.9822  135.5698  154.5124 H   0  0  0  0  0  0  0  0  0  0  0  0  # atno 10763 bound_to 10752
  154.4625  135.2782  155.1704 H   0  0  0  0  0  0  0  0  0  0  0  0  # atno 10764 bound_to 10752
  154.3286  135.6254  153.5594 H   0  0  0  0  0  0  0  0  0  0  0  0  # atno 10765 bound_to 10752
  139.9661  134.6979  156.0543 H   0  0  0  0  0  0  0  0  0  0  0  0  # atno 11005 bound_to 11000
  146.1592  140.6812  142.9285 LP  0  0  0  0  0  0  0  0  0  0  0  0  # atno 17320 bound_to 7965
  144.7319  140.4697  143.6931 LP  0  0  0  0  0  0  0  0  0  0  0  0  # atno 17321 bound_to 7965
  140.7815  143.4568  151.0335 LP  0  0  0  0  0  0  0  0  0  0  0  0  # atno 17342 bound_to 10162
  139.8251  143.7767  152.3178 LP  0  0  0  0  0  0  0  0  0  0  0  0  # atno 17343 bound_to 10162
  157.7480  131.0383  150.4496 LP  0  0  0  0  0  0  0  0  0  0  0  0  # atno 17370 bound_to 10713
  156.4717  130.4054  149.6514 LP  0  0  0  0  0  0  0  0  0  0  0  0  # atno 17371 bound_to 10713
  141.1340  133.6579  156.3543 LP  0  0  0  0  0  0  0  0  0  0  0  0  # atno 17394 bound_to 11000
  140.5394  134.6135  157.5375 LP  0  0  0  0  0  0  0  0  0  0  0  0  # atno 17395 bound_to 11000

$$$$
