AV-unprocessed.smi:392|AV-procd|sdf|2482|dock1
  -GOLD-   2262022423D 1   1.00000     0.00000
 Structure written by MMmdl.
 33 35  0  0  0  0  0  0  0  0  2 V2000
  150.3765  139.7811  157.9139 O   0  0  0  0  0  0  0  0  0  0  0  0
  150.6070  140.9573  157.1656 C   0  0  2  0  0  0  0  0  0  0  0  0
  151.2957  140.5559  155.8455 C   0  0  0  0  0  0  0  0  0  0  0  0
  150.3899  139.8568  154.9247 N   0  0  0  0  0  0  0  0  0  0  0  0
  150.5054  138.6298  154.3471 C   0  0  0  0  0  0  0  0  0  0  0  0
  149.4115  138.4431  153.5574 N   0  3  0  0  0  0  0  0  0  0  0  0
  148.5838  139.5656  153.6338 C   0  0  0  0  0  0  0  0  0  0  0  0
  147.3696  139.8481  153.0155 C   0  0  0  0  0  0  0  0  0  0  0  0
  146.7853  141.0979  153.3095 C   0  0  0  0  0  0  0  0  0  0  0  0
  147.4048  142.0104  154.1883 C   0  0  0  0  0  0  0  0  0  0  0  0
  148.6349  141.7129  154.8110 C   0  0  0  0  0  0  0  0  0  0  0  0
  149.2060  140.4767  154.5131 C   0  0  0  0  0  0  0  0  0  0  0  0
  151.4132  141.9917  157.9431 C   0  0  0  0  0  0  0  0  0  0  0  0
  151.2897  143.3665  157.6406 C   0  0  0  0  0  0  0  0  0  0  0  0
  152.0200  144.3247  158.3696 C   0  0  0  0  0  0  0  0  0  0  0  0
  152.8773  143.9161  159.4083 C   0  0  0  0  0  0  0  0  0  0  0  0
  153.0018  142.5488  159.7188 C   0  0  0  0  0  0  0  0  0  0  0  0
  152.2719  141.5884  158.9917 C   0  0  0  0  0  0  0  0  0  0  0  0
  152.3934  140.2781  159.3150 F   0  0  0  0  0  0  0  0  0  0  0  0
  151.1938  139.3137  157.9978 H   0  0  0  0  0  0  0  0  0  0  0  0
  149.6215  141.3678  156.9458 H   0  0  0  0  0  0  0  0  0  0  0  0
  151.6781  141.4374  155.3285 H   0  0  0  0  0  0  0  0  0  0  0  0
  152.1543  139.9093  156.0321 H   0  0  0  0  0  0  0  0  0  0  0  0
  151.3220  137.9355  154.4828 H   0  0  0  0  0  0  0  0  0  0  0  0
  146.8928  139.1514  152.3419 H   0  0  0  0  0  0  0  0  0  0  0  0
  145.8432  141.3623  152.8515 H   0  0  0  0  0  0  0  0  0  0  0  0
  146.9274  142.9587  154.3890 H   0  0  0  0  0  0  0  0  0  0  0  0
  149.1031  142.4180  155.4821 H   0  0  0  0  0  0  0  0  0  0  0  0
  150.6300  143.6928  156.8498 H   0  0  0  0  0  0  0  0  0  0  0  0
  151.9207  145.3739  158.1326 H   0  0  0  0  0  0  0  0  0  0  0  0
  153.4372  144.6511  159.9676 H   0  0  0  0  0  0  0  0  0  0  0  0
  153.6570  142.2356  160.5184 H   0  0  0  0  0  0  0  0  0  0  0  0
  149.2458  137.6106  153.0063 H   0  0  0  0  0  0  0  0  0  0  0  0
  1  2  1  0  0  0  0
  1 20  1  0  0  0  0
  2  3  1  0  0  0  0
  2 13  1  0  0  0  0
  2 21  1  0  0  0  0
  3  4  1  0  0  0  0
  3 22  1  0  0  0  0
  3 23  1  0  0  0  0
  4 12  1  0  0  0  0
  4  5  1  0  0  0  0
  5  6  2  0  0  0  0
  5 24  1  0  0  0  0
  6  7  1  0  0  0  0
  6 33  1  0  0  0  0
  7 12  2  0  0  0  0
  7  8  1  0  0  0  0
  8  9  2  0  0  0  0
  8 25  1  0  0  0  0
  9 10  1  0  0  0  0
  9 26  1  0  0  0  0
 10 11  2  0  0  0  0
 10 27  1  0  0  0  0
 11 12  1  0  0  0  0
 11 28  1  0  0  0  0
 13 18  1  0  0  0  0
 13 14  2  0  0  0  0
 14 15  1  0  0  0  0
 14 29  1  0  0  0  0
 15 16  2  0  0  0  0
 15 30  1  0  0  0  0
 16 17  1  0  0  0  0
 16 31  1  0  0  0  0
 17 18  2  0  0  0  0
 17 32  1  0  0  0  0
 18 19  1  0  0  0  0
M  CHG  1   6   1
M  END
> <s_m_source_file>
AV-unprocessed.smi

> <i_m_source_file_index>
392

> <i_lp_mmshare_version>
43012

> <i_f3d_flags>
0

> <s_epik_input>
RmMxW2NIXVtjSF1bY0hdW2NIXWMxW0NASF0oW09IXSlbQ0gyXW4oW2NIXW4yKWMoYzIzKVtjSF1bY0hdW2NIXVtjSF0z

> <s_epik_cmdline>
J2VwaWtfcHl0aG9uJywgJy1waCcsICc3LjAnLCAnLXRuJywgJzgnLCAnLW1hJywgJzIwMCcsICctbWV0YWxfYmluZGluZycsICctaW1hZScsICc8aW5maWxlLm1hZT4nLCAnLW9tYWUnLCAnPG91dGZpbGUubWFlPic=

> <r_epik_Ionization_Penalty>
1.3029

> <r_epik_Ionization_Penalty_Charging>
1.3029

> <r_epik_Ionization_Penalty_Neutral>
1.34362e-06

> <r_epik_State_Penalty>
1.377

> <r_epik_Charging_Adjusted_Penalty>
2.6799

> <i_epik_Tot_Q>
1

> <i_epik_Tot_abs_Q>
1

> <r_epik_Metal_State_Penalty>
5.40879

> <b_epik_Metal_Only>
0

> <s_lp_Force_Field>
OPLS_2005

> <r_lp_Energy>
17.8965

> <b_lp_Chiralities_Consistent>
1

> <s_lp_Variant>
AV-unprocessed.smi:392-3

> <Gold.Version>
5.8.1

> <Gold.Id.Protein>
6NUR|6NUR_protein|mol2

> <Gold.PLP.Fitness>
50.4340

> <Gold.PLP.PLP>
-45.9910

> <Gold.PLP.part.hbond>
-2.0000

> <Gold.PLP.part.metal>
0.0000

> <Gold.PLP.part.buried>
2.0141

> <Gold.PLP.part.nonpolar>
-46.0011

> <Gold.PLP.part.repulsive>
0.0681

> <Gold.PLP.ligand.clash>
0.0000

> <Gold.PLP.ligand.torsion>
0.7864

> <Gold.PLP.Chemscore.Hbond>
2.0000

> <Gold.PLP.Chemscore.CHOScore>
0.0000

> <Gold.PLP.Chemscore.Metal>
0.0000

> <Gold.Chemscore.Hbonds>
donor molecule, donor type, donor heavy atom, donor atom, acceptor molecule, acceptor atom, score
      L1  H     6    33       P1  7948  2.00

> <Gold.PLP.Chemscore.Internal.Correction>
0.0159

> <Gold.Rescore>
     Score         DG    S(hbond)    S(metal)    S(lipo)     H(rot)  DE(clash)    DE(int)     intcor
     15.43     -18.15       0.98        0.00     123.39       1.97       0.17       2.56       ----

> <Gold.Chemscore.Fitness>
15.4290

> <Gold.Chemscore.DG>
-18.1503

> <Gold.Chemscore.ZeroCoef>
-5.4800

> <Gold.Chemscore.Hbond>
0.9792

> <Gold.Chemscore.Metal>
0.0000

> <Gold.Chemscore.Lipo>
123.3935

> <Gold.Chemscore.Internal_Hbond>
0.0000

> <Gold.Chemscore.DEClash>
0.1654

> <Gold.Chemscore.DEInternal>
2.5559

> <Gold.Chemscore.Rot>
1.9677

> <Gold.Chemscore.Internal.Correction>
   9.000000E+99

> <Gold.Chemscore.Hbonds>
donor molecule, donor type, donor heavy atom, donor atom, acceptor molecule, acceptor atom, score
      L1  H     6    33       P1  7948  0.98

> <Gold.Chemscore.Hbond.Weighted>
-3.2704

> <Gold.Chemscore.Metal.Weighted>
-0.0000

> <Gold.Chemscore.Lipo.Weighted>
-14.4370

> <Gold.Chemscore.Internal_Hbond.Weighted>
0.0000

> <Gold.Chemscore.DEClash.Weighted>
0.1654

> <Gold.Chemscore.DEInternal.Weighted>
2.5559

> <Gold.Chemscore.Rot.Weighted>
5.0372

> <Gold.Chemscore.Internal.Correction.Weighted>
   9.000000E+99

> <Gold.Protein.RotatedTorsions>
[ 6907 6896 6895 6894 ] final  -32.72 input  -60.11 | X-H torsion
[ 7974 7965 7964 7962 ] final   87.68 input  175.53 | X-H torsion
[ 8008 7997 7996 7995 ] final -139.44 input   59.86 | X-H torsion
[ 10167 10162 10161 10158 ] final  128.83 input  -65.29 | X-H torsion
[ 10718 10713 10712 10709 ] final   95.28 input   66.30 | X-H torsion
[ 10763 10752 10751 10750 ] final  -38.64 input  -60.55 | X-H torsion
[ 11005 11000 10999 10996 ] final   95.56 input  -57.11 | X-H torsion

> <Gold.Protein.ActiveResidues>
 VAL166  LYS551  ARG553  GLY616  TRP617  ASP618  TYR619  PRO620  LYS621  CYS622 
 ASP623  PHE694  ASN695  SER759  ASP760  ASP761  ALA762  ILE779  LEU786  VAL792 
 PHE793  MET794  SER795  GLU796  ALA797  LYS798  CYS799  TRP800  GLU811  SER814 

> <Gold.Protein.RotatedAtoms>
  151.0750  134.9822  159.8327 H   0  0  0  0  0  0  0  0  0  0  0  0  # atno 6907 bound_to 6896
  152.5413  134.2252  159.8813 H   0  0  0  0  0  0  0  0  0  0  0  0  # atno 6908 bound_to 6896
  151.2279  133.4423  159.2636 H   0  0  0  0  0  0  0  0  0  0  0  0  # atno 6909 bound_to 6896
  145.5557  139.2299  143.2487 H   0  0  0  0  0  0  0  0  0  0  0  0  # atno 7974 bound_to 7965
  155.4449  140.0534  157.3007 H   0  0  0  0  0  0  0  0  0  0  0  0  # atno 8008 bound_to 7997
  154.4802  140.2078  155.9738 H   0  0  0  0  0  0  0  0  0  0  0  0  # atno 8009 bound_to 7997
  156.1194  140.3191  155.8191 H   0  0  0  0  0  0  0  0  0  0  0  0  # atno 8010 bound_to 7997
  139.5507  144.6811  151.4332 H   0  0  0  0  0  0  0  0  0  0  0  0  # atno 10167 bound_to 10162
  157.6940  131.0540  150.4315 H   0  0  0  0  0  0  0  0  0  0  0  0  # atno 10718 bound_to 10713
  153.9162  135.6787  153.4749 H   0  0  0  0  0  0  0  0  0  0  0  0  # atno 10763 bound_to 10752
  153.1052  135.4809  154.8936 H   0  0  0  0  0  0  0  0  0  0  0  0  # atno 10764 bound_to 10752
  154.7501  135.3182  154.8528 H   0  0  0  0  0  0  0  0  0  0  0  0  # atno 10765 bound_to 10752
  139.8788  134.8905  156.4030 H   0  0  0  0  0  0  0  0  0  0  0  0  # atno 11005 bound_to 11000
  146.1886  140.6381  142.9156 LP  0  0  0  0  0  0  0  0  0  0  0  0  # atno 17320 bound_to 7965
  144.7507  140.5184  143.6804 LP  0  0  0  0  0  0  0  0  0  0  0  0  # atno 17321 bound_to 7965
  140.6769  143.8170  150.7070 LP  0  0  0  0  0  0  0  0  0  0  0  0  # atno 17342 bound_to 10162
  140.1611  143.4275  152.2066 LP  0  0  0  0  0  0  0  0  0  0  0  0  # atno 17343 bound_to 10162
  156.4682  130.4047  149.6534 LP  0  0  0  0  0  0  0  0  0  0  0  0  # atno 17370 bound_to 10713
  156.3625  130.7489  151.2462 LP  0  0  0  0  0  0  0  0  0  0  0  0  # atno 17371 bound_to 10713
  140.9254  133.7616  155.9958 LP  0  0  0  0  0  0  0  0  0  0  0  0  # atno 17394 bound_to 11000
  140.8392  134.3087  157.5320 LP  0  0  0  0  0  0  0  0  0  0  0  0  # atno 17395 bound_to 11000

$$$$
