AV-unprocessed.smi:2892|AV-procd|sdf|11119|dock4
  -GOLD-   2272015593D 1   1.00000     0.00000
 Structure written by MMmdl.
 42 42  0  0  0  0  0  0  0  0  2 V2000
  143.9729  143.3525  156.3413 C   0  0  0  0  0  0  0  0  0  0  0  0
  144.4386  142.0039  156.9106 C   0  0  0  0  0  0  0  0  0  0  0  0
  145.9519  141.7142  156.7224 C   0  0  1  0  0  0  0  0  0  0  0  0
  146.3110  141.7042  155.2191 C   0  0  0  0  0  0  0  0  0  0  0  0
  146.8575  142.7157  157.5056 C   0  0  2  0  0  0  0  0  0  0  0  0
  148.2568  142.4872  157.1441 N   0  0  0  0  0  0  0  0  0  0  0  0
  148.9892  141.4047  157.4560 C   0  0  0  0  0  0  0  0  0  0  0  0
  148.5792  140.4899  158.1702 O   0  0  0  0  0  0  0  0  0  0  0  0
  150.4083  141.3492  156.8823 C   0  0  0  0  0  0  0  0  0  0  0  0
  151.4182  141.7754  157.9167 C   0  0  0  0  0  0  0  0  0  0  0  0
  152.4690  141.0011  158.4865 C   0  0  0  0  0  0  0  0  0  0  0  0
  153.0429  141.8432  159.3946 C   0  0  0  0  0  0  0  0  0  0  0  0
  152.3677  143.0450  159.3275 N   0  0  0  0  0  0  0  0  0  0  0  0
  152.5624  144.2482  160.1222 C   0  0  0  0  0  0  0  0  0  0  0  0
  152.3834  143.9625  161.6214 C   0  0  0  0  0  0  0  0  0  0  0  0
  151.6343  145.3703  159.6340 C   0  0  0  0  0  0  0  0  0  0  0  0
  151.3710  143.0016  158.4176 N   0  0  0  0  0  0  0  0  0  0  0  0
  146.7285  142.4956  159.0256 C   0  0  0  0  0  0  0  0  0  0  0  0
  146.0602  141.5074  159.4002 O   0  0  0  0  0  0  0  0  0  0  0  0
  147.3008  143.3112  159.7841 O   0  5  0  0  0  0  0  0  0  0  0  0
  142.8881  143.4389  156.4047 H   0  0  0  0  0  0  0  0  0  0  0  0
  144.2507  143.4542  155.2920 H   0  0  0  0  0  0  0  0  0  0  0  0
  144.3946  144.1949  156.8881 H   0  0  0  0  0  0  0  0  0  0  0  0
  144.1801  141.9447  157.9683 H   0  0  0  0  0  0  0  0  0  0  0  0
  143.8406  141.2384  156.4174 H   0  0  0  0  0  0  0  0  0  0  0  0
  146.1459  140.7111  157.1071 H   0  0  0  0  0  0  0  0  0  0  0  0
  146.1332  142.6798  154.7660 H   0  0  0  0  0  0  0  0  0  0  0  0
  145.7270  140.9696  154.6667 H   0  0  0  0  0  0  0  0  0  0  0  0
  147.3564  141.4474  155.0485 H   0  0  0  0  0  0  0  0  0  0  0  0
  146.5680  143.7388  157.2567 H   0  0  0  0  0  0  0  0  0  0  0  0
  148.6792  143.1801  156.5438 H   0  0  0  0  0  0  0  0  0  0  0  0
  150.6111  140.3318  156.5470 H   0  0  0  0  0  0  0  0  0  0  0  0
  150.4707  141.9868  155.9992 H   0  0  0  0  0  0  0  0  0  0  0  0
  152.7418  139.9777  158.2775 H   0  0  0  0  0  0  0  0  0  0  0  0
  153.8622  141.6855  160.0801 H   0  0  0  0  0  0  0  0  0  0  0  0
  153.5916  144.5809  159.9744 H   0  0  0  0  0  0  0  0  0  0  0  0
  152.6030  144.8501  162.2149 H   0  0  0  0  0  0  0  0  0  0  0  0
  153.0557  143.1705  161.9529 H   0  0  0  0  0  0  0  0  0  0  0  0
  151.3634  143.6549  161.8536 H   0  0  0  0  0  0  0  0  0  0  0  0
  151.8112  146.2938  160.1856 H   0  0  0  0  0  0  0  0  0  0  0  0
  150.5850  145.1023  159.7603 H   0  0  0  0  0  0  0  0  0  0  0  0
  151.7978  145.5813  158.5765 H   0  0  0  0  0  0  0  0  0  0  0  0
  1  2  1  0  0  0  0
  1 21  1  0  0  0  0
  1 22  1  0  0  0  0
  1 23  1  0  0  0  0
  2  3  1  0  0  0  0
  2 24  1  0  0  0  0
  2 25  1  0  0  0  0
  3  4  1  0  0  0  0
  3  5  1  0  0  0  0
  3 26  1  0  0  0  0
  4 27  1  0  0  0  0
  4 28  1  0  0  0  0
  4 29  1  0  0  0  0
  5  6  1  0  0  0  0
  5 18  1  0  0  0  0
  5 30  1  0  0  0  0
  6  7  1  0  0  0  0
  6 31  1  0  0  0  0
  7  8  2  0  0  0  0
  7  9  1  0  0  0  0
  9 10  1  0  0  0  0
  9 32  1  0  0  0  0
  9 33  1  0  0  0  0
 10 17  2  0  0  0  0
 10 11  1  0  0  0  0
 11 12  2  0  0  0  0
 11 34  1  0  0  0  0
 12 13  1  0  0  0  0
 12 35  1  0  0  0  0
 13 14  1  0  0  0  0
 13 17  1  0  0  0  0
 14 15  1  0  0  0  0
 14 16  1  0  0  0  0
 14 36  1  0  0  0  0
 15 37  1  0  0  0  0
 15 38  1  0  0  0  0
 15 39  1  0  0  0  0
 16 40  1  0  0  0  0
 16 41  1  0  0  0  0
 16 42  1  0  0  0  0
 18 19  2  0  0  0  0
 18 20  1  0  0  0  0
M  CHG  1  20  -1
M  END
> <s_m_source_file>
AV-unprocessed.smi

> <i_m_source_file_index>
2892

> <i_lp_mmshare_version>
43012

> <i_f3d_flags>
0

> <s_epik_input>
W0NIM11bQ0gyXVtDQEhdKFtDSDNdKVtDQEBIXShDKD1PKVtPSF0pW05IXUMoPU8pW0NIMl1jMVtjSF1bY0hdbihuMSlbQ0hdKFtDSDNdKVtDSDNd

> <s_epik_cmdline>
J2VwaWtfcHl0aG9uJywgJy1waCcsICc3LjAnLCAnLXRuJywgJzgnLCAnLW1hJywgJzIwMCcsICctbWV0YWxfYmluZGluZycsICctaW1hZScsICc8aW5maWxlLm1hZT4nLCAnLW9tYWUnLCAnPG91dGZpbGUubWFlPic=

> <r_lp_tautomer_probability>
1

> <r_epik_Ionization_Penalty>
0.000286846

> <r_epik_Ionization_Penalty_Charging>
0.000224481

> <r_epik_Ionization_Penalty_Neutral>
6.23655e-05

> <r_epik_State_Penalty>
-0

> <r_epik_Charging_Adjusted_Penalty>
0.000224481

> <i_epik_Tot_Q>
-1

> <i_epik_Tot_abs_Q>
1

> <r_epik_Metal_State_Penalty>
-0

> <b_epik_Metal_Only>
0

> <s_lp_Force_Field>
OPLS_2005

> <r_lp_Energy>
14.4899

> <b_lp_Chiralities_Consistent>
1

> <s_lp_Variant>
AV-unprocessed.smi:2892-2

> <Gold.Version>
5.8.1

> <Gold.Id.Protein>
6NUR|6NUR_protein|mol2

> <Gold.PLP.Fitness>
48.6987

> <Gold.PLP.PLP>
-34.7851

> <Gold.PLP.part.hbond>
-3.8320

> <Gold.PLP.part.metal>
0.0000

> <Gold.PLP.part.buried>
-3.5779

> <Gold.PLP.part.nonpolar>
-26.7539

> <Gold.PLP.part.repulsive>
0.1428

> <Gold.PLP.ligand.clash>
0.0000

> <Gold.PLP.ligand.torsion>
0.6012

> <Gold.PLP.Chemscore.Hbond>
4.9840

> <Gold.PLP.Chemscore.CHOScore>
0.0000

> <Gold.PLP.Chemscore.Metal>
0.0000

> <Gold.Chemscore.Hbonds>
donor molecule, donor type, donor heavy atom, donor atom, acceptor molecule, acceptor atom, score
      L1  H     6    31       P1  8028  1.00
      P1  H  6933  6944       L1    20  0.89
      P1  H  6934  6946       L1    19  1.86

> <Gold.PLP.Chemscore.Internal.Correction>
0.1640

> <Gold.Rescore>
     Score         DG    S(hbond)    S(metal)    S(lipo)     H(rot)  DE(clash)    DE(int)     intcor
      8.45     -12.47       1.45        0.00      70.49       2.39       0.12       3.90       ----

> <Gold.Chemscore.Fitness>
8.4486

> <Gold.Chemscore.DG>
-12.4703

> <Gold.Chemscore.ZeroCoef>
-5.4800

> <Gold.Chemscore.Hbond>
1.4529

> <Gold.Chemscore.Metal>
0.0000

> <Gold.Chemscore.Lipo>
70.4866

> <Gold.Chemscore.Internal_Hbond>
0.0000

> <Gold.Chemscore.DEClash>
0.1244

> <Gold.Chemscore.DEInternal>
3.8972

> <Gold.Chemscore.Rot>
2.3865

> <Gold.Chemscore.Internal.Correction>
   9.000000E+99

> <Gold.Chemscore.Hbonds>
donor molecule, donor type, donor heavy atom, donor atom, acceptor molecule, acceptor atom, score
      L1  H     6    31       P1  8028  0.85
      P1  H  6933  6944       L1    20  0.38
      P1  H  6934  6946       L1    19  0.50

> <Gold.Chemscore.Hbond.Weighted>
-4.8527

> <Gold.Chemscore.Metal.Weighted>
-0.0000

> <Gold.Chemscore.Lipo.Weighted>
-8.2469

> <Gold.Chemscore.Internal_Hbond.Weighted>
0.0000

> <Gold.Chemscore.DEClash.Weighted>
0.1244

> <Gold.Chemscore.DEInternal.Weighted>
3.8972

> <Gold.Chemscore.Rot.Weighted>
6.1093

> <Gold.Chemscore.Internal.Correction.Weighted>
   9.000000E+99

> <Gold.Protein.RotatedTorsions>
[ 6907 6896 6895 6894 ] final -116.91 input  -60.11 | X-H torsion
[ 7974 7965 7964 7962 ] final -177.65 input  175.53 | X-H torsion
[ 8008 7997 7996 7995 ] final  -72.41 input   59.86 | X-H torsion
[ 10167 10162 10161 10158 ] final  164.81 input  -65.29 | X-H torsion
[ 10718 10713 10712 10709 ] final  -46.86 input   66.30 | X-H torsion
[ 10763 10752 10751 10750 ] final  -69.39 input  -60.55 | X-H torsion
[ 11005 11000 10999 10996 ] final   18.89 input  -57.11 | X-H torsion

> <Gold.Protein.ActiveResidues>
 VAL166  LYS551  ARG553  GLY616  TRP617  ASP618  TYR619  PRO620  LYS621  CYS622 
 ASP623  PHE694  ASN695  SER759  ASP760  ASP761  ALA762  ILE779  LEU786  VAL792 
 PHE793  MET794  SER795  GLU796  ALA797  LYS798  CYS799  TRP800  GLU811  SER814 

> <Gold.Protein.RotatedAtoms>
  150.8094  133.8450  159.3189 H   0  0  0  0  0  0  0  0  0  0  0  0  # atno 6907 bound_to 6896
  151.6239  135.1027  160.0117 H   0  0  0  0  0  0  0  0  0  0  0  0  # atno 6908 bound_to 6896
  152.4186  133.7038  159.6496 H   0  0  0  0  0  0  0  0  0  0  0  0  # atno 6909 bound_to 6896
  144.7128  140.0988  143.6417 H   0  0  0  0  0  0  0  0  0  0  0  0  # atno 7974 bound_to 7965
  154.5164  140.0797  156.8090 H   0  0  0  0  0  0  0  0  0  0  0  0  # atno 8008 bound_to 7997
  155.3671  140.3421  155.4224 H   0  0  0  0  0  0  0  0  0  0  0  0  # atno 8009 bound_to 7997
  156.1633  140.1595  156.8563 H   0  0  0  0  0  0  0  0  0  0  0  0  # atno 8010 bound_to 7997
  139.4895  144.4196  151.9202 H   0  0  0  0  0  0  0  0  0  0  0  0  # atno 10167 bound_to 10162
  156.2141  130.4162  149.9076 H   0  0  0  0  0  0  0  0  0  0  0  0  # atno 10718 bound_to 10713
  154.4027  135.6027  153.5907 H   0  0  0  0  0  0  0  0  0  0  0  0  # atno 10763 bound_to 10752
  152.9788  135.5910  154.4164 H   0  0  0  0  0  0  0  0  0  0  0  0  # atno 10764 bound_to 10752
  154.3965  135.2842  155.2101 H   0  0  0  0  0  0  0  0  0  0  0  0  # atno 10765 bound_to 10752
  140.4197  134.1531  155.7672 H   0  0  0  0  0  0  0  0  0  0  0  0  # atno 11005 bound_to 11000
  145.9556  139.2764  143.1186 LP  0  0  0  0  0  0  0  0  0  0  0  0  # atno 17320 bound_to 7965
  145.9276  140.9071  143.0373 LP  0  0  0  0  0  0  0  0  0  0  0  0  # atno 17321 bound_to 7965
  140.3640  144.2938  150.5929 LP  0  0  0  0  0  0  0  0  0  0  0  0  # atno 17342 bound_to 10162
  140.5378  143.2230  151.8135 LP  0  0  0  0  0  0  0  0  0  0  0  0  # atno 17343 bound_to 10162
  156.6745  130.8833  151.3567 LP  0  0  0  0  0  0  0  0  0  0  0  0  # atno 17370 bound_to 10713
  157.7054  130.9379  150.0914 LP  0  0  0  0  0  0  0  0  0  0  0  0  # atno 17371 bound_to 10713
  141.1789  133.8456  157.1328 LP  0  0  0  0  0  0  0  0  0  0  0  0  # atno 17394 bound_to 11000
  140.0209  134.9946  157.0589 LP  0  0  0  0  0  0  0  0  0  0  0  0  # atno 17395 bound_to 11000

$$$$
