AV-unprocessed.smi:421|AV-procd|sdf|2534|dock2
  -GOLD-   2262022493D 1   1.00000     0.00000
 Structure written by MMmdl.
 43 45  0  0  0  0  0  0  0  0  1 V2000
  150.9629  143.1141  158.3042 C   0  0  0  0  0  0  0  0  0  0  0  0
  151.8494  142.1302  158.9133 N   0  0  0  0  0  0  0  0  0  0  0  0
  152.2909  140.9772  158.3587 C   0  0  0  0  0  0  0  0  0  0  0  0
  152.0148  140.5611  157.2336 O   0  0  0  0  0  0  0  0  0  0  0  0
  153.0863  140.3548  159.2613 N   0  0  0  0  0  0  0  0  0  0  0  0
  153.7744  139.0774  159.0786 C   0  0  0  0  0  0  0  0  0  0  0  0
  153.0091  138.1479  158.1146 C   0  0  2  0  0  0  0  0  0  0  0  0
  151.7196  137.9347  158.6541 O   0  0  0  0  0  0  0  0  0  0  0  0
  153.6841  136.7721  157.9863 C   0  0  0  0  0  0  0  0  0  0  0  0
  153.5672  136.0877  159.2225 O   0  0  0  0  0  0  0  0  0  0  0  0
  154.8194  135.8449  159.8433 C   0  0  0  0  0  0  0  0  0  0  0  0
  154.6727  135.5592  161.3263 C   0  0  0  0  0  0  0  0  0  0  0  0
  155.0033  134.2886  161.8445 C   0  0  0  0  0  0  0  0  0  0  0  0
  154.8517  134.0221  163.2192 C   0  0  0  0  0  0  0  0  0  0  0  0
  154.3611  135.0221  164.0809 C   0  0  0  0  0  0  0  0  0  0  0  0
  154.0190  136.2876  163.5664 C   0  0  0  0  0  0  0  0  0  0  0  0
  154.1717  136.5549  162.1918 C   0  0  0  0  0  0  0  0  0  0  0  0
  153.1463  141.1281  160.4303 C   0  0  0  0  0  0  0  0  0  0  0  0
  153.8179  140.9197  161.6479 C   0  0  0  0  0  0  0  0  0  0  0  0
  153.6664  141.9092  162.6477 C   0  0  0  0  0  0  0  0  0  0  0  0
  152.8659  143.0585  162.4184 C   0  0  0  0  0  0  0  0  0  0  0  0
  152.1986  143.2423  161.1847 C   0  0  0  0  0  0  0  0  0  0  0  0
  152.3672  142.2445  160.2094 C   0  0  0  0  0  0  0  0  0  0  0  0
  150.8144  142.9274  157.2398 H   0  0  0  0  0  0  0  0  0  0  0  0
  151.3776  144.1166  158.4120 H   0  0  0  0  0  0  0  0  0  0  0  0
  149.9879  143.0935  158.7918 H   0  0  0  0  0  0  0  0  0  0  0  0
  154.7628  139.2956  158.6711 H   0  0  0  0  0  0  0  0  0  0  0  0
  153.9571  138.5890  160.0367 H   0  0  0  0  0  0  0  0  0  0  0  0
  152.9309  138.6067  157.1279 H   0  0  0  0  0  0  0  0  0  0  0  0
  151.0798  138.1341  157.9880 H   0  0  0  0  0  0  0  0  0  0  0  0
  153.1769  136.1798  157.2233 H   0  0  0  0  0  0  0  0  0  0  0  0
  154.7275  136.8685  157.6795 H   0  0  0  0  0  0  0  0  0  0  0  0
  155.3101  134.9996  159.3580 H   0  0  0  0  0  0  0  0  0  0  0  0
  155.4704  136.7124  159.7246 H   0  0  0  0  0  0  0  0  0  0  0  0
  155.3746  133.5133  161.1899 H   0  0  0  0  0  0  0  0  0  0  0  0
  155.1099  133.0497  163.6118 H   0  0  0  0  0  0  0  0  0  0  0  0
  154.2439  134.8169  165.1348 H   0  0  0  0  0  0  0  0  0  0  0  0
  153.6377  137.0533  164.2259 H   0  0  0  0  0  0  0  0  0  0  0  0
  153.9041  137.5273  161.8048 H   0  0  0  0  0  0  0  0  0  0  0  0
  154.4240  140.0424  161.8194 H   0  0  0  0  0  0  0  0  0  0  0  0
  154.1663  141.7880  163.5974 H   0  0  0  0  0  0  0  0  0  0  0  0
  152.7638  143.8019  163.1955 H   0  0  0  0  0  0  0  0  0  0  0  0
  151.5863  144.1131  161.0023 H   0  0  0  0  0  0  0  0  0  0  0  0
  1  2  1  0  0  0  0
  1 24  1  0  0  0  0
  1 25  1  0  0  0  0
  1 26  1  0  0  0  0
  2 23  1  0  0  0  0
  2  3  1  0  0  0  0
  3  4  2  0  0  0  0
  3  5  1  0  0  0  0
  5  6  1  0  0  0  0
  5 18  1  0  0  0  0
  6  7  1  0  0  0  0
  6 27  1  0  0  0  0
  6 28  1  0  0  0  0
  7  8  1  0  0  0  0
  7  9  1  0  0  0  0
  7 29  1  0  0  0  0
  8 30  1  0  0  0  0
  9 10  1  0  0  0  0
  9 31  1  0  0  0  0
  9 32  1  0  0  0  0
 10 11  1  0  0  0  0
 11 12  1  0  0  0  0
 11 33  1  0  0  0  0
 11 34  1  0  0  0  0
 12 17  1  0  0  0  0
 12 13  2  0  0  0  0
 13 14  1  0  0  0  0
 13 35  1  0  0  0  0
 14 15  2  0  0  0  0
 14 36  1  0  0  0  0
 15 16  1  0  0  0  0
 15 37  1  0  0  0  0
 16 17  2  0  0  0  0
 16 38  1  0  0  0  0
 17 39  1  0  0  0  0
 18 23  2  0  0  0  0
 18 19  1  0  0  0  0
 19 20  2  0  0  0  0
 19 40  1  0  0  0  0
 20 21  1  0  0  0  0
 20 41  1  0  0  0  0
 21 22  2  0  0  0  0
 21 42  1  0  0  0  0
 22 23  1  0  0  0  0
 22 43  1  0  0  0  0
M  END
> <s_m_source_file>
AV-unprocessed.smi

> <i_m_source_file_index>
421

> <i_lp_mmshare_version>
43012

> <i_f3d_flags>
0

> <s_epik_input>
W2NIXTFbY0hdW2NIXVtjSF1jKGMxMiluKFtDSDNdKWMoPU8pbjJbQ0gyXVtDQEhdKFtPSF0pW0NIMl1PW0NIMl1jM1tjSF1bY0hdW2NIXVtjSF1bY0hdMw==

> <s_epik_cmdline>
J2VwaWtfcHl0aG9uJywgJy1waCcsICc3LjAnLCAnLXRuJywgJzgnLCAnLW1hJywgJzIwMCcsICctbWV0YWxfYmluZGluZycsICctaW1hZScsICc8aW5maWxlLm1hZT4nLCAnLW9tYWUnLCAnPG91dGZpbGUubWFlPic=

> <r_lp_tautomer_probability>
1

> <r_epik_Ionization_Penalty>
1.0795e-06

> <r_epik_Ionization_Penalty_Charging>
2.82452e-09

> <r_epik_Ionization_Penalty_Neutral>
1.07667e-06

> <r_epik_State_Penalty>
-0

> <r_epik_Charging_Adjusted_Penalty>
2.82452e-09

> <i_epik_Tot_Q>
0

> <i_epik_Tot_abs_Q>
0

> <r_epik_Metal_State_Penalty>
-0

> <b_epik_Metal_Only>
0

> <s_lp_Force_Field>
OPLS_2005

> <r_lp_Energy>
47.1421

> <b_lp_Chiralities_Consistent>
1

> <s_lp_Variant>
AV-unprocessed.smi:421-1

> <Gold.Version>
5.8.1

> <Gold.Id.Protein>
6NUR|6NUR_protein|mol2

> <Gold.PLP.Fitness>
54.1835

> <Gold.PLP.PLP>
-50.1230

> <Gold.PLP.part.hbond>
-2.0000

> <Gold.PLP.part.metal>
0.0000

> <Gold.PLP.part.buried>
-0.2069

> <Gold.PLP.part.nonpolar>
-46.0092

> <Gold.PLP.part.repulsive>
0.0000

> <Gold.PLP.ligand.clash>
0.0000

> <Gold.PLP.ligand.torsion>
0.8992

> <Gold.PLP.Chemscore.Hbond>
1.8892

> <Gold.PLP.Chemscore.CHOScore>
0.0000

> <Gold.PLP.Chemscore.Metal>
0.0000

> <Gold.Chemscore.Hbonds>
donor molecule, donor type, donor heavy atom, donor atom, acceptor molecule, acceptor atom, score
      P1  H  6896  6908       L1    10  0.83

> <Gold.PLP.Chemscore.Internal.Correction>
0.1912

> <Gold.Rescore>
     Score         DG    S(hbond)    S(metal)    S(lipo)     H(rot)  DE(clash)    DE(int)     intcor
     16.61     -19.22       1.08        0.00     135.13       2.21       0.34       2.27       ----

> <Gold.Chemscore.Fitness>
16.6094

> <Gold.Chemscore.DG>
-19.2226

> <Gold.Chemscore.ZeroCoef>
-5.4800

> <Gold.Chemscore.Hbond>
1.0762

> <Gold.Chemscore.Metal>
0.0000

> <Gold.Chemscore.Lipo>
135.1327

> <Gold.Chemscore.Internal_Hbond>
0.0000

> <Gold.Chemscore.DEClash>
0.3405

> <Gold.Chemscore.DEInternal>
2.2727

> <Gold.Chemscore.Rot>
2.2119

> <Gold.Chemscore.Internal.Correction>
   9.000000E+99

> <Gold.Chemscore.Hbonds>
donor molecule, donor type, donor heavy atom, donor atom, acceptor molecule, acceptor atom, score
      P1  H  6896  6908       L1    10  0.20

> <Gold.Chemscore.Hbond.Weighted>
-3.5944

> <Gold.Chemscore.Metal.Weighted>
-0.0000

> <Gold.Chemscore.Lipo.Weighted>
-15.8105

> <Gold.Chemscore.Internal_Hbond.Weighted>
0.0000

> <Gold.Chemscore.DEClash.Weighted>
0.3405

> <Gold.Chemscore.DEInternal.Weighted>
2.2727

> <Gold.Chemscore.Rot.Weighted>
5.6623

> <Gold.Chemscore.Internal.Correction.Weighted>
   9.000000E+99

> <Gold.Protein.RotatedTorsions>
[ 6907 6896 6895 6894 ] final  -50.51 input  -60.11 | X-H torsion
[ 7974 7965 7964 7962 ] final  176.43 input  175.53 | X-H torsion
[ 8008 7997 7996 7995 ] final  -66.90 input   59.86 | X-H torsion
[ 10167 10162 10161 10158 ] final -171.63 input  -65.29 | X-H torsion
[ 10718 10713 10712 10709 ] final -143.19 input   66.30 | X-H torsion
[ 10763 10752 10751 10750 ] final  -88.62 input  -60.55 | X-H torsion
[ 11005 11000 10999 10996 ] final  -82.89 input  -57.11 | X-H torsion

> <Gold.Protein.ActiveResidues>
 VAL166  LYS551  ARG553  GLY616  TRP617  ASP618  TYR619  PRO620  LYS621  CYS622 
 ASP623  PHE694  ASN695  SER759  ASP760  ASP761  ALA762  ILE779  LEU786  VAL792 
 PHE793  MET794  SER795  GLU796  ALA797  LYS798  CYS799  TRP800  GLU811  SER814 

> <Gold.Protein.RotatedAtoms>
  150.8700  134.8071  159.7147 H   0  0  0  0  0  0  0  0  0  0  0  0  # atno 6907 bound_to 6896
  152.4708  134.4962  159.9720 H   0  0  0  0  0  0  0  0  0  0  0  0  # atno 6908 bound_to 6896
  151.5052  133.3457  159.2911 H   0  0  0  0  0  0  0  0  0  0  0  0  # atno 6909 bound_to 6896
  144.7184  140.0095  143.6440 H   0  0  0  0  0  0  0  0  0  0  0  0  # atno 7974 bound_to 7965
  154.4764  140.0903  156.7273 H   0  0  0  0  0  0  0  0  0  0  0  0  # atno 8008 bound_to 7997
  155.4584  140.3460  155.4291 H   0  0  0  0  0  0  0  0  0  0  0  0  # atno 8009 bound_to 7997
  156.1123  140.1451  156.9309 H   0  0  0  0  0  0  0  0  0  0  0  0  # atno 8010 bound_to 7997
  139.5791  144.1464  152.1491 H   0  0  0  0  0  0  0  0  0  0  0  0  # atno 10167 bound_to 10162
  156.3549  130.7708  151.1866 H   0  0  0  0  0  0  0  0  0  0  0  0  # atno 10718 bound_to 10713
  154.6465  135.5370  153.7850 H   0  0  0  0  0  0  0  0  0  0  0  0  # atno 10763 bound_to 10752
  153.0362  135.6472  154.1081 H   0  0  0  0  0  0  0  0  0  0  0  0  # atno 10764 bound_to 10752
  154.1002  135.2934  155.3233 H   0  0  0  0  0  0  0  0  0  0  0  0  # atno 10765 bound_to 10752
  141.1661  133.7267  156.8639 H   0  0  0  0  0  0  0  0  0  0  0  0  # atno 11005 bound_to 11000
  146.0270  139.3301  143.0778 LP  0  0  0  0  0  0  0  0  0  0  0  0  # atno 17320 bound_to 7965
  145.8499  140.9534  143.0755 LP  0  0  0  0  0  0  0  0  0  0  0  0  # atno 17321 bound_to 7965
  140.1014  144.5536  150.6986 LP  0  0  0  0  0  0  0  0  0  0  0  0  # atno 17342 bound_to 10162
  140.7071  143.2476  151.4694 LP  0  0  0  0  0  0  0  0  0  0  0  0  # atno 17343 bound_to 10162
  157.7466  131.0417  150.4657 LP  0  0  0  0  0  0  0  0  0  0  0  0  # atno 17370 bound_to 10713
  156.4858  130.4084  149.6435 LP  0  0  0  0  0  0  0  0  0  0  0  0  # atno 17371 bound_to 10713
  140.1829  134.9021  157.2969 LP  0  0  0  0  0  0  0  0  0  0  0  0  # atno 17394 bound_to 11000
  140.2375  134.3835  155.7495 LP  0  0  0  0  0  0  0  0  0  0  0  0  # atno 17395 bound_to 11000

$$$$
