AV-unprocessed.smi:1053|AV-procd|sdf|4617|dock7
  -GOLD-   22720 3123D 1   1.00000     0.00000
 Structure written by MMmdl.
 38 39  0  0  0  0  0  0  0  0  2 V2000
  148.5963  133.4927  154.0518 C   0  0  0  0  0  0  0  0  0  0  0  0
  149.7413  134.4202  154.4825 C   0  0  0  0  0  0  0  0  0  0  0  0
  149.3506  135.8520  154.4725 N   0  3  1  0  0  0  0  0  0  0  0  0
  148.2312  136.1356  155.4015 C   0  0  0  0  0  0  0  0  0  0  0  0
  147.8322  137.6177  155.3266 C   0  0  0  0  0  0  0  0  0  0  0  0
  148.9672  138.4248  155.6086 O   0  0  0  0  0  0  0  0  0  0  0  0
  150.0118  138.2452  154.6576 C   0  0  1  0  0  0  0  0  0  0  0  0
  151.1550  139.2212  154.9833 C   0  0  0  0  0  0  0  0  0  0  0  0
  150.7210  140.3130  155.8452 N   0  0  0  0  0  0  0  0  0  0  0  0
  151.2137  140.5657  157.1129 C   0  0  0  0  0  0  0  0  0  0  0  0
  151.7013  139.5432  157.8246 N   0  0  0  0  0  0  0  0  0  0  0  0
  152.1753  139.8233  159.0576 C   0  0  0  0  0  0  0  0  0  0  0  0
  152.1598  141.1320  159.5783 C   0  0  0  0  0  0  0  0  0  0  0  0
  151.6228  142.1337  158.7391 C   0  0  0  0  0  0  0  0  0  0  0  0
  151.5415  143.5911  159.1683 C   0  0  0  0  0  0  0  0  0  0  0  0
  152.7654  144.0520  159.4267 F   0  0  0  0  0  0  0  0  0  0  0  0
  150.9952  144.3512  158.2186 F   0  0  0  0  0  0  0  0  0  0  0  0
  150.8002  143.6949  160.2715 F   0  0  0  0  0  0  0  0  0  0  0  0
  151.1510  141.8396  157.5048 N   0  0  0  0  0  0  0  0  0  0  0  0
  150.4818  136.7786  154.7283 C   0  0  0  0  0  0  0  0  0  0  0  0
  148.8884  132.4483  154.1642 H   0  0  0  0  0  0  0  0  0  0  0  0
  148.3209  133.6390  153.0078 H   0  0  0  0  0  0  0  0  0  0  0  0
  147.7072  133.6539  154.6621 H   0  0  0  0  0  0  0  0  0  0  0  0
  150.0344  134.1397  155.4952 H   0  0  0  0  0  0  0  0  0  0  0  0
  150.6187  134.2659  153.8529 H   0  0  0  0  0  0  0  0  0  0  0  0
  147.3719  135.5124  155.1512 H   0  0  0  0  0  0  0  0  0  0  0  0
  148.5277  135.8807  156.4202 H   0  0  0  0  0  0  0  0  0  0  0  0
  147.4255  137.8663  154.3450 H   0  0  0  0  0  0  0  0  0  0  0  0
  147.0540  137.8352  156.0582 H   0  0  0  0  0  0  0  0  0  0  0  0
  149.6377  138.4563  153.6537 H   0  0  0  0  0  0  0  0  0  0  0  0
  152.0042  138.6947  155.4205 H   0  0  0  0  0  0  0  0  0  0  0  0
  151.5192  139.6722  154.0600 H   0  0  0  0  0  0  0  0  0  0  0  0
  149.9236  140.8582  155.5509 H   0  0  0  0  0  0  0  0  0  0  0  0
  152.5684  138.9978  159.6324 H   0  0  0  0  0  0  0  0  0  0  0  0
  152.5411  141.3473  160.5655 H   0  0  0  0  0  0  0  0  0  0  0  0
  150.9107  136.5679  155.7095 H   0  0  0  0  0  0  0  0  0  0  0  0
  151.2709  136.6198  153.9940 H   0  0  0  0  0  0  0  0  0  0  0  0
  149.0064  136.0526  153.5442 H   0  0  0  0  0  0  0  0  0  0  0  0
  1  2  1  0  0  0  0
  1 21  1  0  0  0  0
  1 22  1  0  0  0  0
  1 23  1  0  0  0  0
  2  3  1  0  0  0  0
  2 24  1  0  0  0  0
  2 25  1  0  0  0  0
  3 20  1  0  0  0  0
  3  4  1  0  0  0  0
  3 38  1  0  0  0  0
  4  5  1  0  0  0  0
  4 26  1  0  0  0  0
  4 27  1  0  0  0  0
  5  6  1  0  0  0  0
  5 28  1  0  0  0  0
  5 29  1  0  0  0  0
  6  7  1  0  0  0  0
  7  8  1  0  0  0  0
  7 20  1  0  0  0  0
  7 30  1  0  0  0  0
  8  9  1  0  0  0  0
  8 31  1  0  0  0  0
  8 32  1  0  0  0  0
  9 10  1  0  0  0  0
  9 33  1  0  0  0  0
 10 19  1  0  0  0  0
 10 11  2  0  0  0  0
 11 12  1  0  0  0  0
 12 13  2  0  0  0  0
 12 34  1  0  0  0  0
 13 14  1  0  0  0  0
 13 35  1  0  0  0  0
 14 15  1  0  0  0  0
 14 19  2  0  0  0  0
 15 16  1  0  0  0  0
 15 17  1  0  0  0  0
 15 18  1  0  0  0  0
 20 36  1  0  0  0  0
 20 37  1  0  0  0  0
M  CHG  1   3   1
M  END
> <s_m_source_file>
AV-unprocessed.smi

> <i_m_source_file_index>
1053

> <i_lp_mmshare_version>
43012

> <i_f3d_flags>
0

> <s_epik_input>
W0NIM11bQ0gyXU4xW0NIMl1bQ0gyXU9bQ0BIXShbQ0gyXTEpW0NIMl1bTkhdYzJuW2NIXVtjSF1jKG4yKUMoRikoRilG

> <s_epik_cmdline>
J2VwaWtfcHl0aG9uJywgJy1waCcsICc3LjAnLCAnLXRuJywgJzgnLCAnLW1hJywgJzIwMCcsICctbWV0YWxfYmluZGluZycsICctaW1hZScsICc8aW5maWxlLm1hZT4nLCAnLW9tYWUnLCAnPG91dGZpbGUubWFlPic=

> <r_lp_tautomer_probability>
1

> <r_epik_Ionization_Penalty>
0.178506

> <r_epik_Ionization_Penalty_Charging>
0.178504

> <r_epik_Ionization_Penalty_Neutral>
2.47619e-06

> <r_epik_State_Penalty>
0.167974

> <r_epik_Charging_Adjusted_Penalty>
0.346478

> <i_epik_Tot_Q>
1

> <i_epik_Tot_abs_Q>
1

> <r_epik_Metal_State_Penalty>
0.167974

> <b_epik_Metal_Only>
0

> <s_lp_Force_Field>
OPLS_2005

> <r_lp_Energy>
10.9386

> <b_lp_Chiralities_Consistent>
1

> <s_lp_Variant>
AV-unprocessed.smi:1053-1

> <Gold.Version>
5.8.1

> <Gold.Id.Protein>
6NUR|6NUR_protein|mol2

> <Gold.PLP.Fitness>
40.1338

> <Gold.PLP.PLP>
-35.6449

> <Gold.PLP.part.hbond>
-1.0773

> <Gold.PLP.part.metal>
0.0000

> <Gold.PLP.part.buried>
-3.6057

> <Gold.PLP.part.nonpolar>
-30.6742

> <Gold.PLP.part.repulsive>
0.3021

> <Gold.PLP.ligand.clash>
0.0000

> <Gold.PLP.ligand.torsion>
0.7658

> <Gold.PLP.Chemscore.Hbond>
2.0000

> <Gold.PLP.Chemscore.CHOScore>
0.0000

> <Gold.PLP.Chemscore.Metal>
0.0000

> <Gold.Chemscore.Hbonds>
donor molecule, donor type, donor heavy atom, donor atom, acceptor molecule, acceptor atom, score
      L1  H     3    38       P1  7948  2.00

> <Gold.PLP.Chemscore.Internal.Correction>
0.0205

> <Gold.Rescore>
     Score         DG    S(hbond)    S(metal)    S(lipo)     H(rot)  DE(clash)    DE(int)     intcor
     11.67     -12.64       0.96        0.00      67.72       1.55       0.19       0.77       ----

> <Gold.Chemscore.Fitness>
11.6711

> <Gold.Chemscore.DG>
-12.6384

> <Gold.Chemscore.ZeroCoef>
-5.4800

> <Gold.Chemscore.Hbond>
0.9629

> <Gold.Chemscore.Metal>
0.0000

> <Gold.Chemscore.Lipo>
67.7177

> <Gold.Chemscore.Internal_Hbond>
0.0000

> <Gold.Chemscore.DEClash>
0.1937

> <Gold.Chemscore.DEInternal>
0.7736

> <Gold.Chemscore.Rot>
1.5549

> <Gold.Chemscore.Internal.Correction>
   9.000000E+99

> <Gold.Chemscore.Hbonds>
donor molecule, donor type, donor heavy atom, donor atom, acceptor molecule, acceptor atom, score
      L1  H     3    38       P1  7948  0.96

> <Gold.Chemscore.Hbond.Weighted>
-3.2160

> <Gold.Chemscore.Metal.Weighted>
-0.0000

> <Gold.Chemscore.Lipo.Weighted>
-7.9230

> <Gold.Chemscore.Internal_Hbond.Weighted>
0.0000

> <Gold.Chemscore.DEClash.Weighted>
0.1937

> <Gold.Chemscore.DEInternal.Weighted>
0.7736

> <Gold.Chemscore.Rot.Weighted>
3.9806

> <Gold.Chemscore.Internal.Correction.Weighted>
   9.000000E+99

> <Gold.Protein.RotatedTorsions>
[ 6907 6896 6895 6894 ] final  151.21 input  -60.11 | X-H torsion
[ 7974 7965 7964 7962 ] final -154.77 input  175.53 | X-H torsion
[ 8008 7997 7996 7995 ] final  135.68 input   59.86 | X-H torsion
[ 10167 10162 10161 10158 ] final   56.28 input  -65.29 | X-H torsion
[ 10718 10713 10712 10709 ] final    2.77 input   66.30 | X-H torsion
[ 10763 10752 10751 10750 ] final  169.45 input  -60.55 | X-H torsion
[ 11005 11000 10999 10996 ] final   46.06 input  -57.11 | X-H torsion

> <Gold.Protein.ActiveResidues>
 VAL166  LYS551  ARG553  GLY616  TRP617  ASP618  TYR619  PRO620  LYS621  CYS622 
 ASP623  PHE694  ASN695  SER759  ASP760  ASP761  ALA762  ILE779  LEU786  VAL792 
 PHE793  MET794  SER795  GLU796  ALA797  LYS798  CYS799  TRP800  GLU811  SER814 

> <Gold.Protein.RotatedAtoms>
  152.1038  133.4264  159.4599 H   0  0  0  0  0  0  0  0  0  0  0  0  # atno 6907 bound_to 6896
  150.6865  134.2729  159.4604 H   0  0  0  0  0  0  0  0  0  0  0  0  # atno 6908 bound_to 6896
  152.0592  134.9605  160.0625 H   0  0  0  0  0  0  0  0  0  0  0  0  # atno 6909 bound_to 6896
  144.7673  140.4342  143.5933 H   0  0  0  0  0  0  0  0  0  0  0  0  # atno 7974 bound_to 7965
  156.3003  140.2464  156.3621 H   0  0  0  0  0  0  0  0  0  0  0  0  # atno 8008 bound_to 7997
  154.8868  140.0410  157.1834 H   0  0  0  0  0  0  0  0  0  0  0  0  # atno 8009 bound_to 7997
  154.8639  140.2925  155.5526 H   0  0  0  0  0  0  0  0  0  0  0  0  # atno 8010 bound_to 7997
  140.2105  144.3894  150.6491 H   0  0  0  0  0  0  0  0  0  0  0  0  # atno 10167 bound_to 10162
  156.8679  130.5609  149.5659 H   0  0  0  0  0  0  0  0  0  0  0  0  # atno 10718 bound_to 10713
  154.3834  135.2753  155.2198 H   0  0  0  0  0  0  0  0  0  0  0  0  # atno 10763 bound_to 10752
  154.4295  135.5981  153.6063 H   0  0  0  0  0  0  0  0  0  0  0  0  # atno 10764 bound_to 10752
  152.9834  135.5992  154.4079 H   0  0  0  0  0  0  0  0  0  0  0  0  # atno 10765 bound_to 10752
  140.1403  134.4591  155.8454 H   0  0  0  0  0  0  0  0  0  0  0  0  # atno 11005 bound_to 11000
  145.6431  139.1553  143.2904 LP  0  0  0  0  0  0  0  0  0  0  0  0  # atno 17320 bound_to 7965
  146.1791  140.6526  142.9197 LP  0  0  0  0  0  0  0  0  0  0  0  0  # atno 17321 bound_to 7965
  140.6327  143.2190  151.6461 LP  0  0  0  0  0  0  0  0  0  0  0  0  # atno 17342 bound_to 10162
  139.5182  144.3292  152.0841 LP  0  0  0  0  0  0  0  0  0  0  0  0  # atno 17343 bound_to 10162
  156.0742  130.5768  150.9441 LP  0  0  0  0  0  0  0  0  0  0  0  0  # atno 17370 bound_to 10713
  157.6213  131.0929  150.8617 LP  0  0  0  0  0  0  0  0  0  0  0  0  # atno 17371 bound_to 10713
  141.2185  133.6830  156.7235 LP  0  0  0  0  0  0  0  0  0  0  0  0  # atno 17394 bound_to 11000
  140.2730  134.8377  157.3865 LP  0  0  0  0  0  0  0  0  0  0  0  0  # atno 17395 bound_to 11000

$$$$
