AV-unprocessed.smi:2784|AV-procd|sdf|10731|dock1
  -GOLD-   2272015173D 1   1.00000     0.00000
 Structure written by MMmdl.
 32 33  0  0  0  0  0  0  0  0  2 V2000
  152.2675  138.5400  157.4941 C   0  0  0  0  0  0  0  0  0  0  0  0
  152.7157  139.8445  157.8255 O   0  0  0  0  0  0  0  0  0  0  0  0
  152.0922  140.3934  158.9841 C   0  0  1  0  0  0  0  0  0  0  0  0
  153.1650  140.9917  159.9014 C   0  0  0  0  0  0  0  0  0  0  0  0
  153.4390  142.3698  159.3065 C   0  0  0  0  0  0  0  0  0  0  0  0
  152.0728  142.8613  158.8231 C   0  0  0  0  0  0  0  0  0  0  0  0
  151.2134  141.6033  158.5877 C   0  0  1  0  0  0  0  0  0  0  0  0
  150.7412  141.5387  157.2059 N   0  0  0  0  0  0  0  0  0  0  0  0
  149.4546  141.6020  156.8342 C   0  0  0  0  0  0  0  0  0  0  0  0
  148.5214  141.7449  157.6249 O   0  0  0  0  0  0  0  0  0  0  0  0
  149.3181  141.4824  155.5052 N   0  0  0  0  0  0  0  0  0  0  0  0
  148.0969  141.5253  154.7943 C   0  0  0  0  0  0  0  0  0  0  0  0
  147.4071  142.6415  154.5638 N   0  3  0  0  0  0  0  0  0  0  0  0
  146.2763  142.3217  153.8540 C   0  0  0  0  0  0  0  0  0  0  0  0
  146.3219  140.9603  153.6720 C   0  0  0  0  0  0  0  0  0  0  0  0
  147.4613  140.4452  154.2572 O   0  0  0  0  0  0  0  0  0  0  0  0
  152.7878  138.1936  156.6013 H   0  0  0  0  0  0  0  0  0  0  0  0
  151.1982  138.5354  157.2796 H   0  0  0  0  0  0  0  0  0  0  0  0
  152.4660  137.8266  158.2936 H   0  0  0  0  0  0  0  0  0  0  0  0
  151.4918  139.6360  159.4917 H   0  0  0  0  0  0  0  0  0  0  0  0
  152.7593  141.1069  160.9075 H   0  0  0  0  0  0  0  0  0  0  0  0
  154.0663  140.3841  159.9816 H   0  0  0  0  0  0  0  0  0  0  0  0
  153.9000  143.0516  160.0217 H   0  0  0  0  0  0  0  0  0  0  0  0
  154.1165  142.2720  158.4572 H   0  0  0  0  0  0  0  0  0  0  0  0
  151.6098  143.4781  159.5945 H   0  0  0  0  0  0  0  0  0  0  0  0
  152.1724  143.4855  157.9340 H   0  0  0  0  0  0  0  0  0  0  0  0
  150.3540  141.6556  159.2593 H   0  0  0  0  0  0  0  0  0  0  0  0
  151.4447  141.4125  156.4930 H   0  0  0  0  0  0  0  0  0  0  0  0
  147.6414  143.5850  154.8465 H   0  0  0  0  0  0  0  0  0  0  0  0
  145.5651  143.0790  153.5560 H   0  0  0  0  0  0  0  0  0  0  0  0
  145.6704  140.2499  153.1840 H   0  0  0  0  0  0  0  0  0  0  0  0
  150.1563  141.3557  154.9577 H   0  0  0  0  0  0  0  0  0  0  0  0
  1  2  1  0  0  0  0
  1 17  1  0  0  0  0
  1 18  1  0  0  0  0
  1 19  1  0  0  0  0
  2  3  1  0  0  0  0
  3  7  1  0  0  0  0
  3  4  1  0  0  0  0
  3 20  1  0  0  0  0
  4  5  1  0  0  0  0
  4 21  1  0  0  0  0
  4 22  1  0  0  0  0
  5  6  1  0  0  0  0
  5 23  1  0  0  0  0
  5 24  1  0  0  0  0
  6  7  1  0  0  0  0
  6 25  1  0  0  0  0
  6 26  1  0  0  0  0
  7  8  1  0  0  0  0
  7 27  1  0  0  0  0
  8 28  1  0  0  0  0
  8  9  1  0  0  0  0
  9 11  1  0  0  0  0
  9 10  2  0  0  0  0
 11 12  1  0  0  0  0
 11 32  1  0  0  0  0
 12 16  1  0  0  0  0
 12 13  2  0  0  0  0
 13 29  1  0  0  0  0
 13 14  1  0  0  0  0
 14 30  1  0  0  0  0
 14 15  2  0  0  0  0
 15 31  1  0  0  0  0
 15 16  1  0  0  0  0
M  CHG  1  13   1
M  END
> <s_m_source_file>
AV-unprocessed.smi

> <i_m_source_file_index>
2784

> <i_lp_mmshare_version>
43012

> <i_f3d_flags>
0

> <s_epik_input>
W0NIM11PW0NAQEhdMVtDSDJdW0NIMl1bQ0gyXVtDQEhdMVtOSF1DKD1PKVtOSF1jMm5bY0hdW2NIXW8y

> <s_epik_cmdline>
J2VwaWtfcHl0aG9uJywgJy1waCcsICc3LjAnLCAnLXRuJywgJzgnLCAnLW1hJywgJzIwMCcsICctbWV0YWxfYmluZGluZycsICctaW1hZScsICc8aW5maWxlLm1hZT4nLCAnLW9tYWUnLCAnPG91dGZpbGUubWFlPic=

> <r_epik_Ionization_Penalty>
6.73843

> <r_epik_Ionization_Penalty_Charging>
6.66704

> <r_epik_Ionization_Penalty_Neutral>
0.0713889

> <r_epik_State_Penalty>
1.94951

> <r_epik_Charging_Adjusted_Penalty>
8.61656

> <i_epik_Tot_Q>
1

> <i_epik_Tot_abs_Q>
1

> <r_epik_Metal_State_Penalty>
1.97013

> <b_epik_Metal_Only>
0

> <s_lp_Force_Field>
OPLS_2005

> <r_lp_Energy>
28.3285

> <b_lp_Chiralities_Consistent>
1

> <s_lp_Variant>
AV-unprocessed.smi:2784-6

> <Gold.Version>
5.8.1

> <Gold.Id.Protein>
6NUR|6NUR_protein|mol2

> <Gold.PLP.Fitness>
36.7188

> <Gold.PLP.PLP>
-28.0507

> <Gold.PLP.part.hbond>
-2.1309

> <Gold.PLP.part.metal>
0.0000

> <Gold.PLP.part.buried>
-5.1820

> <Gold.PLP.part.nonpolar>
-21.5863

> <Gold.PLP.part.repulsive>
0.6058

> <Gold.PLP.ligand.clash>
0.0000

> <Gold.PLP.ligand.torsion>
1.4157

> <Gold.PLP.Chemscore.Hbond>
3.0000

> <Gold.PLP.Chemscore.CHOScore>
0.8292

> <Gold.PLP.Chemscore.Metal>
0.0000

> <Gold.Chemscore.Hbonds>
donor molecule, donor type, donor heavy atom, donor atom, acceptor molecule, acceptor atom, score
      L1  H    13    29       P1  8028  1.88
      P1  H  7997  8008       L1     2  0.86
      L1  C    15    31       P1 10175  1.00

> <Gold.PLP.Chemscore.Internal.Correction>
0.0120

> <Gold.Rescore>
     Score         DG    S(hbond)    S(metal)    S(lipo)     H(rot)  DE(clash)    DE(int)     intcor
     14.20     -15.50       1.93        0.00      59.72       1.34       0.00       1.30       ----

> <Gold.Chemscore.Fitness>
14.1994

> <Gold.Chemscore.DG>
-15.5016

> <Gold.Chemscore.ZeroCoef>
-5.4800

> <Gold.Chemscore.Hbond>
1.9316

> <Gold.Chemscore.Metal>
0.0000

> <Gold.Chemscore.Lipo>
59.7244

> <Gold.Chemscore.Internal_Hbond>
0.0000

> <Gold.Chemscore.DEClash>
0.0000

> <Gold.Chemscore.DEInternal>
1.3022

> <Gold.Chemscore.Rot>
1.3351

> <Gold.Chemscore.Internal.Correction>
   9.000000E+99

> <Gold.Chemscore.Hbonds>
donor molecule, donor type, donor heavy atom, donor atom, acceptor molecule, acceptor atom, score
      L1  H    13    29       P1  8028  0.20
      P1  H  7997  8008       L1     2  0.48

> <Gold.Chemscore.Hbond.Weighted>
-6.4516

> <Gold.Chemscore.Metal.Weighted>
-0.0000

> <Gold.Chemscore.Lipo.Weighted>
-6.9878

> <Gold.Chemscore.Internal_Hbond.Weighted>
0.0000

> <Gold.Chemscore.DEClash.Weighted>
0.0000

> <Gold.Chemscore.DEInternal.Weighted>
1.3022

> <Gold.Chemscore.Rot.Weighted>
3.4177

> <Gold.Chemscore.Internal.Correction.Weighted>
   9.000000E+99

> <Gold.Protein.RotatedTorsions>
[ 6907 6896 6895 6894 ] final  -24.87 input  -60.11 | X-H torsion
[ 7974 7965 7964 7962 ] final  -53.00 input  175.53 | X-H torsion
[ 8008 7997 7996 7995 ] final  -90.88 input   59.86 | X-H torsion
[ 10167 10162 10161 10158 ] final -109.07 input  -65.29 | X-H torsion
[ 10718 10713 10712 10709 ] final -119.91 input   66.30 | X-H torsion
[ 10763 10752 10751 10750 ] final  142.84 input  -60.55 | X-H torsion
[ 11005 11000 10999 10996 ] final  -76.14 input  -57.11 | X-H torsion

> <Gold.Protein.ActiveResidues>
 VAL166  LYS551  ARG553  GLY616  TRP617  ASP618  TYR619  PRO620  LYS621  CYS622 
 ASP623  PHE694  ASN695  SER759  ASP760  ASP761  ALA762  ILE779  LEU786  VAL792 
 PHE793  MET794  SER795  GLU796  ALA797  LYS798  CYS799  TRP800  GLU811  SER814 

> <Gold.Protein.RotatedAtoms>
  151.1833  135.0370  159.8801 H   0  0  0  0  0  0  0  0  0  0  0  0  # atno 6907 bound_to 6896
  152.5443  134.1039  159.8339 H   0  0  0  0  0  0  0  0  0  0  0  0  # atno 6908 bound_to 6896
  151.1158  133.5093  159.2636 H   0  0  0  0  0  0  0  0  0  0  0  0  # atno 6909 bound_to 6896
  145.9017  140.7988  142.9739 H   0  0  0  0  0  0  0  0  0  0  0  0  # atno 7974 bound_to 7965
  154.7039  140.0525  157.0485 H   0  0  0  0  0  0  0  0  0  0  0  0  # atno 8008 bound_to 7997
  155.0647  140.3193  155.4630 H   0  0  0  0  0  0  0  0  0  0  0  0  # atno 8009 bound_to 7997
  156.2768  140.2092  156.5774 H   0  0  0  0  0  0  0  0  0  0  0  0  # atno 8010 bound_to 7997
  140.1592  143.4134  152.1438 H   0  0  0  0  0  0  0  0  0  0  0  0  # atno 10167 bound_to 10162
  156.1217  130.6328  150.9475 H   0  0  0  0  0  0  0  0  0  0  0  0  # atno 10718 bound_to 10713
  153.9625  135.2959  155.3432 H   0  0  0  0  0  0  0  0  0  0  0  0  # atno 10763 bound_to 10752
  154.7367  135.5043  153.9056 H   0  0  0  0  0  0  0  0  0  0  0  0  # atno 10764 bound_to 10752
  153.0939  135.6715  153.9910 H   0  0  0  0  0  0  0  0  0  0  0  0  # atno 10765 bound_to 10752
  141.1651  133.6972  156.7623 H   0  0  0  0  0  0  0  0  0  0  0  0  # atno 11005 bound_to 11000
  144.6736  140.1688  143.7416 LP  0  0  0  0  0  0  0  0  0  0  0  0  # atno 17320 bound_to 7965
  145.8782  139.2308  143.1621 LP  0  0  0  0  0  0  0  0  0  0  0  0  # atno 17321 bound_to 7965
  139.5389  144.7237  151.4800 LP  0  0  0  0  0  0  0  0  0  0  0  0  # atno 17342 bound_to 10162
  140.6653  143.8410  150.6935 LP  0  0  0  0  0  0  0  0  0  0  0  0  # atno 17343 bound_to 10162
  157.6401  131.0911  150.8269 LP  0  0  0  0  0  0  0  0  0  0  0  0  # atno 17370 bound_to 10713
  156.8365  130.5033  149.5326 LP  0  0  0  0  0  0  0  0  0  0  0  0  # atno 17371 bound_to 10713
  140.2524  134.8530  157.3680 LP  0  0  0  0  0  0  0  0  0  0  0  0  # atno 17394 bound_to 11000
  140.1689  134.4633  155.7844 LP  0  0  0  0  0  0  0  0  0  0  0  0  # atno 17395 bound_to 11000

$$$$
