AV-unprocessed.smi:287|AV-procd|sdf|2207|dock7
  -GOLD-   2262022 33D 1   1.00000     0.00000
 Structure written by MMmdl.
 55 58  0  0  0  0  0  0  0  0  1 V2000
  147.3581  136.1098  162.3361 C   0  0  0  0  0  0  0  0  0  0  0  0
  146.1666  136.4827  161.5226 C   0  0  0  0  0  0  0  0  0  0  0  0
  145.1394  135.7730  160.9725 C   0  0  0  0  0  0  0  0  0  0  0  0
  144.3002  136.7004  160.2850 C   0  0  0  0  0  0  0  0  0  0  0  0
  143.0269  136.3682  159.5188 C   0  0  1  0  0  0  0  0  0  0  0  0
  142.7836  134.8507  159.5536 C   0  0  0  0  0  0  0  0  0  0  0  0
  141.8745  136.9505  160.0972 O   0  0  0  0  0  0  0  0  0  0  0  0
  143.0674  136.8657  158.0555 C   0  0  0  0  0  0  0  0  0  0  0  0
  144.2386  136.3913  157.3286 N   0  0  0  0  0  0  0  0  0  0  0  0
  144.1507  136.0718  156.0207 C   0  0  0  0  0  0  0  0  0  0  0  0
  142.9009  136.0817  155.4996 N   0  0  0  0  0  0  0  0  0  0  0  0
  142.7098  135.7947  154.2096 C   0  0  0  0  0  0  0  0  0  0  0  0
  143.6155  135.4778  153.2833 N   0  0  0  0  0  0  0  0  0  0  0  0
  144.8781  135.4553  153.8005 C   0  0  0  0  0  0  0  0  0  0  0  0
  145.2313  135.7340  155.1527 C   0  0  0  0  0  0  0  0  0  0  0  0
  146.6074  135.6001  155.3041 N   0  0  0  0  0  0  0  0  0  0  0  0
  147.0343  135.2745  154.1148 C   0  0  0  0  0  0  0  0  0  0  0  0
  146.0613  135.1732  153.1477 N   0  0  0  0  0  0  0  0  0  0  0  0
  146.2486  134.8351  151.7038 C   0  0  1  0  0  0  0  0  0  0  0  0
  146.5317  133.4727  151.6060 O   0  0  0  0  0  0  0  0  0  0  0  0
  145.8075  132.9094  150.5179 C   0  0  1  0  0  0  0  0  0  0  0  0
  145.6208  131.4010  150.7440 C   0  0  0  0  0  0  0  0  0  0  0  0
  146.7728  130.8542  151.3493 O   0  0  0  0  0  0  0  0  0  0  0  0
  144.4988  133.7011  150.5507 C   0  0  2  0  0  0  0  0  0  0  0  0
  143.7780  133.6410  149.3332 O   0  0  0  0  0  0  0  0  0  0  0  0
  144.9619  135.1109  150.9091 C   0  0  2  0  0  0  0  0  0  0  0  0
  145.2402  135.8916  149.7610 O   0  0  0  0  0  0  0  0  0  0  0  0
  144.8860  137.9253  160.4962 C   0  0  0  0  0  0  0  0  0  0  0  0
  144.5403  139.3212  160.0945 C   0  0  0  0  0  0  0  0  0  0  0  0
  146.0216  137.8014  161.2387 O   0  0  0  0  0  0  0  0  0  0  0  0
  147.1021  135.4350  151.3840 H   0  0  0  0  0  0  0  0  0  0  0  0
  146.3376  133.1124  149.5849 H   0  0  0  0  0  0  0  0  0  0  0  0
  143.8602  133.3199  151.3477 H   0  0  0  0  0  0  0  0  0  0  0  0
  144.2223  135.6338  151.5174 H   0  0  0  0  0  0  0  0  0  0  0  0
  147.3476  135.0468  162.5771 H   0  0  0  0  0  0  0  0  0  0  0  0
  147.3783  136.6687  163.2718 H   0  0  0  0  0  0  0  0  0  0  0  0
  148.2786  136.3237  161.7928 H   0  0  0  0  0  0  0  0  0  0  0  0
  145.0083  134.7035  161.0469 H   0  0  0  0  0  0  0  0  0  0  0  0
  143.6110  134.3086  159.0941 H   0  0  0  0  0  0  0  0  0  0  0  0
  141.8750  134.5774  159.0154 H   0  0  0  0  0  0  0  0  0  0  0  0
  142.6833  134.4883  160.5775 H   0  0  0  0  0  0  0  0  0  0  0  0
  141.3843  136.2724  160.5366 H   0  0  0  0  0  0  0  0  0  0  0  0
  142.1832  136.4846  157.5431 H   0  0  0  0  0  0  0  0  0  0  0  0
  143.0138  137.9542  158.0119 H   0  0  0  0  0  0  0  0  0  0  0  0
  145.0273  136.1329  157.9043 H   0  0  0  0  0  0  0  0  0  0  0  0
  141.6851  135.8266  153.8702 H   0  0  0  0  0  0  0  0  0  0  0  0
  148.0810  135.1051  153.9075 H   0  0  0  0  0  0  0  0  0  0  0  0
  144.7376  131.1967  151.3504 H   0  0  0  0  0  0  0  0  0  0  0  0
  145.4826  130.8920  149.7899 H   0  0  0  0  0  0  0  0  0  0  0  0
  147.5018  130.9572  150.7568 H   0  0  0  0  0  0  0  0  0  0  0  0
  142.8666  133.8106  149.5158 H   0  0  0  0  0  0  0  0  0  0  0  0
  145.4130  135.3051  149.0398 H   0  0  0  0  0  0  0  0  0  0  0  0
  143.5032  139.5485  160.3412 H   0  0  0  0  0  0  0  0  0  0  0  0
  144.6716  139.4573  159.0211 H   0  0  0  0  0  0  0  0  0  0  0  0
  145.1727  140.0476  160.6057 H   0  0  0  0  0  0  0  0  0  0  0  0
  1  2  1  0  0  0  0
  1 35  1  0  0  0  0
  1 36  1  0  0  0  0
  1 37  1  0  0  0  0
  2 30  1  0  0  0  0
  2  3  2  0  0  0  0
  3  4  1  0  0  0  0
  3 38  1  0  0  0  0
  4  5  1  0  0  0  0
  4 28  2  0  0  0  0
  5  6  1  0  0  0  0
  5  7  1  0  0  0  0
  5  8  1  0  0  0  0
  6 39  1  0  0  0  0
  6 40  1  0  0  0  0
  6 41  1  0  0  0  0
  7 42  1  0  0  0  0
  8  9  1  0  0  0  0
  8 43  1  0  0  0  0
  8 44  1  0  0  0  0
  9 10  1  0  0  0  0
  9 45  1  0  0  0  0
 10 15  1  0  0  0  0
 10 11  2  0  0  0  0
 11 12  1  0  0  0  0
 12 13  2  0  0  0  0
 12 46  1  0  0  0  0
 13 14  1  0  0  0  0
 14 18  1  0  0  0  0
 14 15  2  0  0  0  0
 15 16  1  0  0  0  0
 16 17  2  0  0  0  0
 17 18  1  0  0  0  0
 17 47  1  0  0  0  0
 18 19  1  0  0  0  0
 19 31  1  0  0  0  0
 19 26  1  0  0  0  0
 19 20  1  0  0  0  0
 20 21  1  0  0  0  0
 21 32  1  0  0  0  0
 21 22  1  0  0  0  0
 21 24  1  0  0  0  0
 22 23  1  0  0  0  0
 22 48  1  0  0  0  0
 22 49  1  0  0  0  0
 23 50  1  0  0  0  0
 24 33  1  0  0  0  0
 24 25  1  0  0  0  0
 24 26  1  0  0  0  0
 25 51  1  0  0  0  0
 26 34  1  0  0  0  0
 26 27  1  0  0  0  0
 27 52  1  0  0  0  0
 28 29  1  0  0  0  0
 28 30  1  0  0  0  0
 29 53  1  0  0  0  0
 29 54  1  0  0  0  0
 29 55  1  0  0  0  0
M  END
> <s_m_source_file>
AV-unprocessed.smi

> <i_m_source_file_index>
287

> <i_lp_mmshare_version>
43012

> <i_f3d_flags>
0

> <s_epik_input>
W0NIM11jMVtjSF1jKGMobzEpW0NIM10pW0NAQF0oW0NIM10pKFtPSF0pW0NIMl1bTkhdYyhuW2NIXW4yKWMoYzIzKW5bY0hdbjNbQ0BASF00T1tDQEhdKFtDSDJdW09IXSlbQ0BASF0oW09IXSlbQ0BIXTRbT0hd

> <s_epik_cmdline>
J2VwaWtfcHl0aG9uJywgJy1waCcsICc3LjAnLCAnLXRuJywgJzgnLCAnLW1hJywgJzIwMCcsICctbWV0YWxfYmluZGluZycsICctaW1hZScsICc8aW5maWxlLm1hZT4nLCAnLW9tYWUnLCAnPG91dGZpbGUubWFlPic=

> <r_lp_tautomer_probability>
1

> <r_epik_Ionization_Penalty>
0.000992612

> <r_epik_Ionization_Penalty_Charging>
0

> <r_epik_Ionization_Penalty_Neutral>
0.000992612

> <r_epik_State_Penalty>
-0

> <r_epik_Charging_Adjusted_Penalty>
0

> <i_epik_Tot_Q>
0

> <i_epik_Tot_abs_Q>
0

> <r_epik_Metal_State_Penalty>
-0

> <b_epik_Metal_Only>
0

> <s_epik_Chemistry_Notes>
This compound contains an acetal/aminal-like group ( X-CH(R)-Y where X, Y are N, S, or O) that may be acid/base labile, releasing an aldehyde.

> <s_lp_Force_Field>
OPLS_2005

> <r_lp_Energy>
44.3809

> <b_lp_Chiralities_Consistent>
1

> <s_lp_Variant>
AV-unprocessed.smi:287-31

> <Gold.Version>
5.8.1

> <Gold.Id.Protein>
6NUR|6NUR_protein|mol2

> <Gold.PLP.Fitness>
45.9616

> <Gold.PLP.PLP>
-33.0499

> <Gold.PLP.part.hbond>
-5.6937

> <Gold.PLP.part.metal>
0.0000

> <Gold.PLP.part.buried>
-7.8583

> <Gold.PLP.part.nonpolar>
-19.5377

> <Gold.PLP.part.repulsive>
0.3428

> <Gold.PLP.ligand.clash>
0.0000

> <Gold.PLP.ligand.torsion>
0.8198

> <Gold.PLP.Chemscore.Hbond>
3.9040

> <Gold.PLP.Chemscore.CHOScore>
0.9172

> <Gold.PLP.Chemscore.Metal>
0.0000

> <Gold.Chemscore.Hbonds>
donor molecule, donor type, donor heavy atom, donor atom, acceptor molecule, acceptor atom, score
      L1  H    23    50       P1 10747  1.00
      L1  H    25    51       P1 10186  1.00
      L1  H    27    52       P1  7921  1.00
      P1  H  6934  6947       L1    30  1.00
      L1  C    17    47       P1  7948  0.72

> <Gold.PLP.Chemscore.Internal.Correction>
0.0877

> <Gold.Rescore>
     Score         DG    S(hbond)    S(metal)    S(lipo)     H(rot)  DE(clash)    DE(int)     intcor
      9.66     -12.31       3.97        0.00      60.20       5.27       0.01       2.64       ----

> <Gold.Chemscore.Fitness>
9.6602

> <Gold.Chemscore.DG>
-12.3066

> <Gold.Chemscore.ZeroCoef>
-5.4800

> <Gold.Chemscore.Hbond>
3.9720

> <Gold.Chemscore.Metal>
0.0000

> <Gold.Chemscore.Lipo>
60.2041

> <Gold.Chemscore.Internal_Hbond>
0.0000

> <Gold.Chemscore.DEClash>
0.0073

> <Gold.Chemscore.DEInternal>
2.6391

> <Gold.Chemscore.Rot>
5.2672

> <Gold.Chemscore.Internal.Correction>
   9.000000E+99

> <Gold.Chemscore.Hbonds>
donor molecule, donor type, donor heavy atom, donor atom, acceptor molecule, acceptor atom, score
      L1  H    23    50       P1 10747  0.94
      L1  H    25    51       P1 10186  0.99
      L1  H    27    52       P1  7921  0.98
      P1  H  6934  6947       L1    30  0.81

> <Gold.Chemscore.Hbond.Weighted>
-13.2666

> <Gold.Chemscore.Metal.Weighted>
-0.0000

> <Gold.Chemscore.Lipo.Weighted>
-7.0439

> <Gold.Chemscore.Internal_Hbond.Weighted>
0.0000

> <Gold.Chemscore.DEClash.Weighted>
0.0073

> <Gold.Chemscore.DEInternal.Weighted>
2.6391

> <Gold.Chemscore.Rot.Weighted>
13.4839

> <Gold.Chemscore.Internal.Correction.Weighted>
   9.000000E+99

> <Gold.Protein.RotatedTorsions>
[ 6907 6896 6895 6894 ] final   31.35 input  -60.11 | X-H torsion
[ 7974 7965 7964 7962 ] final   93.51 input  175.53 | X-H torsion
[ 8008 7997 7996 7995 ] final -117.26 input   59.86 | X-H torsion
[ 10167 10162 10161 10158 ] final  103.49 input  -65.29 | X-H torsion
[ 10718 10713 10712 10709 ] final   84.73 input   66.30 | X-H torsion
[ 10763 10752 10751 10750 ] final   12.06 input  -60.55 | X-H torsion
[ 11005 11000 10999 10996 ] final  143.21 input  -57.11 | X-H torsion

> <Gold.Protein.ActiveResidues>
 VAL166  LYS551  ARG553  GLY616  TRP617  ASP618  TYR619  PRO620  LYS621  CYS622 
 ASP623  PHE694  ASN695  SER759  ASP760  ASP761  ALA762  ILE779  LEU786  VAL792 
 PHE793  MET794  SER795  GLU796  ALA797  LYS798  CYS799  TRP800  GLU811  SER814 

> <Gold.Protein.RotatedAtoms>
  152.0591  134.9606  160.0574 H   0  0  0  0  0  0  0  0  0  0  0  0  # atno 6907 bound_to 6896
  152.0976  133.4228  159.4580 H   0  0  0  0  0  0  0  0  0  0  0  0  # atno 6908 bound_to 6896
  150.6838  134.2717  159.4634 H   0  0  0  0  0  0  0  0  0  0  0  0  # atno 6909 bound_to 6896
  145.4779  139.2279  143.2899 H   0  0  0  0  0  0  0  0  0  0  0  0  # atno 7974 bound_to 7965
  155.0809  140.0394  157.2639 H   0  0  0  0  0  0  0  0  0  0  0  0  # atno 8008 bound_to 7997
  154.6907  140.2653  155.6790 H   0  0  0  0  0  0  0  0  0  0  0  0  # atno 8009 bound_to 7997
  156.2728  140.2760  156.1484 H   0  0  0  0  0  0  0  0  0  0  0  0  # atno 8010 bound_to 7997
  139.7258  144.7048  151.0800 H   0  0  0  0  0  0  0  0  0  0  0  0  # atno 10167 bound_to 10162
  157.6903  131.0145  150.2716 H   0  0  0  0  0  0  0  0  0  0  0  0  # atno 10718 bound_to 10713
  153.1861  135.6835  153.8413 H   0  0  0  0  0  0  0  0  0  0  0  0  # atno 10763 bound_to 10752
  153.7728  135.3193  155.3355 H   0  0  0  0  0  0  0  0  0  0  0  0  # atno 10764 bound_to 10752
  154.8089  135.4730  154.0562 H   0  0  0  0  0  0  0  0  0  0  0  0  # atno 10765 bound_to 10752
  140.0536  134.9242  157.1061 H   0  0  0  0  0  0  0  0  0  0  0  0  # atno 11005 bound_to 11000
  146.2358  140.5563  142.8955 LP  0  0  0  0  0  0  0  0  0  0  0  0  # atno 17320 bound_to 7965
  144.7906  140.6024  143.6544 LP  0  0  0  0  0  0  0  0  0  0  0  0  # atno 17321 bound_to 7965
  140.7762  143.5107  150.9656 LP  0  0  0  0  0  0  0  0  0  0  0  0  # atno 17342 bound_to 10162
  139.8794  143.7091  152.3158 LP  0  0  0  0  0  0  0  0  0  0  0  0  # atno 17343 bound_to 10162
  156.3278  130.3795  149.7518 LP  0  0  0  0  0  0  0  0  0  0  0  0  # atno 17370 bound_to 10713
  156.5068  130.8154  151.3153 LP  0  0  0  0  0  0  0  0  0  0  0  0  # atno 17371 bound_to 10713
  140.3879  134.2217  155.7167 LP  0  0  0  0  0  0  0  0  0  0  0  0  # atno 17394 bound_to 11000
  141.1942  133.8134  157.0768 LP  0  0  0  0  0  0  0  0  0  0  0  0  # atno 17395 bound_to 11000

$$$$
