AV-unprocessed.smi:1053|AV-procd|sdf|4622|dock5
  -GOLD-   22720 3123D 1   1.00000     0.00000
 Structure written by MMmdl.
 37 38  0  0  0  0  0  0  0  0  1 V2000
  148.1201  141.2964  154.1878 C   0  0  0  0  0  0  0  0  0  0  0  0
  149.3809  141.4762  155.0454 C   0  0  0  0  0  0  0  0  0  0  0  0
  150.4195  140.4694  154.8339 N   0  0  0  0  0  0  0  0  0  0  0  0
  149.8677  139.1452  154.5578 C   0  0  0  0  0  0  0  0  0  0  0  0
  150.9726  138.0918  154.3739 C   0  0  0  0  0  0  0  0  0  0  0  0
  151.8068  138.0718  155.5269 O   0  0  0  0  0  0  0  0  0  0  0  0
  152.4173  139.3323  155.7937 C   0  0  2  0  0  0  0  0  0  0  0  0
  153.2928  139.1900  157.0454 C   0  0  0  0  0  0  0  0  0  0  0  0
  152.5078  139.3132  158.2642 N   0  0  0  0  0  0  0  0  0  0  0  0
  152.6664  140.3270  159.1891 C   0  0  0  0  0  0  0  0  0  0  0  0
  153.5078  140.0647  160.1918 N   0  0  0  0  0  0  0  0  0  0  0  0
  153.6851  141.0353  161.1139 C   0  0  0  0  0  0  0  0  0  0  0  0
  153.0167  142.2725  161.0288 C   0  0  0  0  0  0  0  0  0  0  0  0
  152.1505  142.4412  159.9253 C   0  0  0  0  0  0  0  0  0  0  0  0
  151.3635  143.7234  159.7018 C   0  0  0  0  0  0  0  0  0  0  0  0
  151.5157  144.5743  160.7173 F   0  0  0  0  0  0  0  0  0  0  0  0
  151.7819  144.3195  158.5850 F   0  0  0  0  0  0  0  0  0  0  0  0
  150.0665  143.4399  159.5792 F   0  0  0  0  0  0  0  0  0  0  0  0
  151.9806  141.4611  159.0080 N   0  0  0  0  0  0  0  0  0  0  0  0
  151.3047  140.3811  155.9907 C   0  0  0  0  0  0  0  0  0  0  0  0
  147.4404  142.1371  154.3261 H   0  0  0  0  0  0  0  0  0  0  0  0
  147.5722  140.3924  154.4524 H   0  0  0  0  0  0  0  0  0  0  0  0
  148.3696  141.2441  153.1277 H   0  0  0  0  0  0  0  0  0  0  0  0
  149.7935  142.4597  154.8169 H   0  0  0  0  0  0  0  0  0  0  0  0
  149.1022  141.5065  156.0996 H   0  0  0  0  0  0  0  0  0  0  0  0
  149.2114  138.8397  155.3742 H   0  0  0  0  0  0  0  0  0  0  0  0
  149.2564  139.1691  153.6563 H   0  0  0  0  0  0  0  0  0  0  0  0
  150.5355  137.1032  154.2329 H   0  0  0  0  0  0  0  0  0  0  0  0
  151.5705  138.3083  153.4871 H   0  0  0  0  0  0  0  0  0  0  0  0
  153.0412  139.6226  154.9461 H   0  0  0  0  0  0  0  0  0  0  0  0
  153.7764  138.2125  157.0448 H   0  0  0  0  0  0  0  0  0  0  0  0
  154.0841  139.9408  157.0425 H   0  0  0  0  0  0  0  0  0  0  0  0
  151.7396  138.6731  158.4042 H   0  0  0  0  0  0  0  0  0  0  0  0
  154.3655  140.8235  161.9254 H   0  0  0  0  0  0  0  0  0  0  0  0
  153.1652  143.0426  161.7710 H   0  0  0  0  0  0  0  0  0  0  0  0
  151.7588  141.3547  156.1801 H   0  0  0  0  0  0  0  0  0  0  0  0
  150.7242  140.1309  156.8804 H   0  0  0  0  0  0  0  0  0  0  0  0
  1  2  1  0  0  0  0
  1 21  1  0  0  0  0
  1 22  1  0  0  0  0
  1 23  1  0  0  0  0
  2  3  1  0  0  0  0
  2 24  1  0  0  0  0
  2 25  1  0  0  0  0
  3 20  1  0  0  0  0
  3  4  1  0  0  0  0
  4  5  1  0  0  0  0
  4 26  1  0  0  0  0
  4 27  1  0  0  0  0
  5  6  1  0  0  0  0
  5 28  1  0  0  0  0
  5 29  1  0  0  0  0
  6  7  1  0  0  0  0
  7  8  1  0  0  0  0
  7 20  1  0  0  0  0
  7 30  1  0  0  0  0
  8  9  1  0  0  0  0
  8 31  1  0  0  0  0
  8 32  1  0  0  0  0
  9 10  1  0  0  0  0
  9 33  1  0  0  0  0
 10 19  1  0  0  0  0
 10 11  2  0  0  0  0
 11 12  1  0  0  0  0
 12 13  2  0  0  0  0
 12 34  1  0  0  0  0
 13 14  1  0  0  0  0
 13 35  1  0  0  0  0
 14 15  1  0  0  0  0
 14 19  2  0  0  0  0
 15 16  1  0  0  0  0
 15 17  1  0  0  0  0
 15 18  1  0  0  0  0
 20 36  1  0  0  0  0
 20 37  1  0  0  0  0
M  END
> <s_m_source_file>
AV-unprocessed.smi

> <i_m_source_file_index>
1053

> <i_lp_mmshare_version>
43012

> <i_f3d_flags>
0

> <s_epik_input>
W0NIM11bQ0gyXU4xW0NIMl1bQ0gyXU9bQ0BIXShbQ0gyXTEpW0NIMl1bTkhdYzJuW2NIXVtjSF1jKG4yKUMoRikoRilG

> <s_epik_cmdline>
J2VwaWtfcHl0aG9uJywgJy1waCcsICc3LjAnLCAnLXRuJywgJzgnLCAnLW1hJywgJzIwMCcsICctbWV0YWxfYmluZGluZycsICctaW1hZScsICc8aW5maWxlLm1hZT4nLCAnLW9tYWUnLCAnPG91dGZpbGUubWFlPic=

> <r_lp_tautomer_probability>
1

> <r_epik_Ionization_Penalty>
0.797829

> <r_epik_Ionization_Penalty_Charging>
0

> <r_epik_Ionization_Penalty_Neutral>
0.797829

> <r_epik_State_Penalty>
0.828842

> <r_epik_Charging_Adjusted_Penalty>
0.828842

> <i_epik_Tot_Q>
0

> <i_epik_Tot_abs_Q>
0

> <r_epik_Metal_State_Penalty>
0.828842

> <b_epik_Metal_Only>
0

> <s_lp_Force_Field>
OPLS_2005

> <r_lp_Energy>
15.9196

> <b_lp_Chiralities_Consistent>
1

> <s_lp_Variant>
AV-unprocessed.smi:1053-6

> <Gold.Version>
5.8.1

> <Gold.Id.Protein>
6NUR|6NUR_protein|mol2

> <Gold.PLP.Fitness>
46.8373

> <Gold.PLP.PLP>
-46.4685

> <Gold.PLP.part.hbond>
-1.0000

> <Gold.PLP.part.metal>
0.0000

> <Gold.PLP.part.buried>
-1.5932

> <Gold.PLP.part.nonpolar>
-43.1169

> <Gold.PLP.part.repulsive>
0.1885

> <Gold.PLP.ligand.clash>
0.0000

> <Gold.PLP.ligand.torsion>
1.3314

> <Gold.PLP.Chemscore.Hbond>
1.0000

> <Gold.PLP.Chemscore.CHOScore>
0.0000

> <Gold.PLP.Chemscore.Metal>
0.0000

> <Gold.Chemscore.Hbonds>
donor molecule, donor type, donor heavy atom, donor atom, acceptor molecule, acceptor atom, score
      P1  H  7989  7998       L1     3  1.00

> <Gold.PLP.Chemscore.Internal.Correction>
0.0316

> <Gold.Rescore>
     Score         DG    S(hbond)    S(metal)    S(lipo)     H(rot)  DE(clash)    DE(int)     intcor
     10.68     -12.13       0.00        0.00      90.07       1.52       0.10       1.35       ----

> <Gold.Chemscore.Fitness>
10.6825

> <Gold.Chemscore.DG>
-12.1268

> <Gold.Chemscore.ZeroCoef>
-5.4800

> <Gold.Chemscore.Hbond>
0.0007

> <Gold.Chemscore.Metal>
0.0000

> <Gold.Chemscore.Lipo>
90.0655

> <Gold.Chemscore.Internal_Hbond>
0.0000

> <Gold.Chemscore.DEClash>
0.0993

> <Gold.Chemscore.DEInternal>
1.3450

> <Gold.Chemscore.Rot>
1.5208

> <Gold.Chemscore.Internal.Correction>
   9.000000E+99

> <Gold.Chemscore.Hbonds>
donor molecule, donor type, donor heavy atom, donor atom, acceptor molecule, acceptor atom, score
      P1  H  7989  7998       L1     3  0.16

> <Gold.Chemscore.Hbond.Weighted>
-0.0023

> <Gold.Chemscore.Metal.Weighted>
-0.0000

> <Gold.Chemscore.Lipo.Weighted>
-10.5377

> <Gold.Chemscore.Internal_Hbond.Weighted>
0.0000

> <Gold.Chemscore.DEClash.Weighted>
0.0993

> <Gold.Chemscore.DEInternal.Weighted>
1.3450

> <Gold.Chemscore.Rot.Weighted>
3.8932

> <Gold.Chemscore.Internal.Correction.Weighted>
   9.000000E+99

> <Gold.Protein.RotatedTorsions>
[ 6907 6896 6895 6894 ] final -165.49 input  -60.11 | X-H torsion
[ 7974 7965 7964 7962 ] final -171.46 input  175.53 | X-H torsion
[ 8008 7997 7996 7995 ] final   28.11 input   59.86 | X-H torsion
[ 10167 10162 10161 10158 ] final   22.83 input  -65.29 | X-H torsion
[ 10718 10713 10712 10709 ] final  172.35 input   66.30 | X-H torsion
[ 10763 10752 10751 10750 ] final   -9.05 input  -60.55 | X-H torsion
[ 11005 11000 10999 10996 ] final   19.69 input  -57.11 | X-H torsion

> <Gold.Protein.ActiveResidues>
 VAL166  LYS551  ARG553  GLY616  TRP617  ASP618  TYR619  PRO620  LYS621  CYS622 
 ASP623  PHE694  ASN695  SER759  ASP760  ASP761  ALA762  ILE779  LEU786  VAL792 
 PHE793  MET794  SER795  GLU796  ALA797  LYS798  CYS799  TRP800  GLU811  SER814 

> <Gold.Protein.RotatedAtoms>
  151.4285  133.3677  159.2765 H   0  0  0  0  0  0  0  0  0  0  0  0  # atno 6907 bound_to 6896
  150.9242  134.8660  159.7519 H   0  0  0  0  0  0  0  0  0  0  0  0  # atno 6908 bound_to 6896
  152.4997  134.4225  159.9537 H   0  0  0  0  0  0  0  0  0  0  0  0  # atno 6909 bound_to 6896
  144.7157  140.1918  143.6347 H   0  0  0  0  0  0  0  0  0  0  0  0  # atno 7974 bound_to 7965
  155.0534  140.3182  155.4684 H   0  0  0  0  0  0  0  0  0  0  0  0  # atno 8008 bound_to 7997
  156.2829  140.2142  156.5604 H   0  0  0  0  0  0  0  0  0  0  0  0  # atno 8009 bound_to 7997
  154.7191  140.0491  157.0610 H   0  0  0  0  0  0  0  0  0  0  0  0  # atno 8010 bound_to 7997
  140.5317  143.9830  150.6469 H   0  0  0  0  0  0  0  0  0  0  0  0  # atno 10167 bound_to 10162
  156.9802  131.0116  151.2883 H   0  0  0  0  0  0  0  0  0  0  0  0  # atno 10718 bound_to 10713
  153.4493  135.7015  153.6119 H   0  0  0  0  0  0  0  0  0  0  0  0  # atno 10763 bound_to 10752
  153.4461  135.3769  155.2257 H   0  0  0  0  0  0  0  0  0  0  0  0  # atno 10764 bound_to 10752
  154.8728  135.3985  154.3903 H   0  0  0  0  0  0  0  0  0  0  0  0  # atno 10765 bound_to 10752
  140.4109  134.1619  155.7667 H   0  0  0  0  0  0  0  0  0  0  0  0  # atno 11005 bound_to 11000
  145.8761  139.2298  143.1632 LP  0  0  0  0  0  0  0  0  0  0  0  0  # atno 17320 bound_to 7965
  146.0039  140.8496  143.0005 LP  0  0  0  0  0  0  0  0  0  0  0  0  # atno 17321 bound_to 7965
  140.3206  143.3139  152.0787 LP  0  0  0  0  0  0  0  0  0  0  0  0  # atno 17342 bound_to 10162
  139.4956  144.6576  151.6538 LP  0  0  0  0  0  0  0  0  0  0  0  0  # atno 17343 bound_to 10162
  157.5532  130.8196  149.8171 LP  0  0  0  0  0  0  0  0  0  0  0  0  # atno 17370 bound_to 10713
  156.0247  130.3783  150.1856 LP  0  0  0  0  0  0  0  0  0  0  0  0  # atno 17371 bound_to 10713
  141.1821  133.8391  157.1219 LP  0  0  0  0  0  0  0  0  0  0  0  0  # atno 17394 bound_to 11000
  140.0268  134.9920  157.0702 LP  0  0  0  0  0  0  0  0  0  0  0  0  # atno 17395 bound_to 11000

$$$$
