AV-unprocessed.smi:653|AV-procd|sdf|3208|dock8
  -GOLD-   22720 0143D 1   1.00000     0.00000
 Structure written by MMmdl.
 45 46  0  0  0  0  0  0  0  0  2 V2000
  151.7739  143.2383  157.3534 C   0  0  0  0  0  0  0  0  0  0  0  0
  151.4192  141.9716  156.6034 C   0  0  0  0  0  0  0  0  0  0  0  0
  152.1434  140.7717  156.7691 C   0  0  0  0  0  0  0  0  0  0  0  0
  151.7559  139.6272  156.0418 C   0  0  0  0  0  0  0  0  0  0  0  0
  150.6527  139.7044  155.1628 C   0  0  0  0  0  0  0  0  0  0  0  0
  150.2089  138.4886  154.3681 C   0  0  0  0  0  0  0  0  0  0  0  0
  150.0313  137.2776  155.2869 C   0  0  0  0  0  0  0  0  0  0  0  0
  150.1969  137.3945  156.5014 O   0  0  0  0  0  0  0  0  0  0  0  0
  149.6924  136.1212  154.6967 N   0  0  0  0  0  0  0  0  0  0  0  0
  149.4767  134.8587  155.3951 C   0  0  0  0  0  0  0  0  0  0  0  0
  149.3653  133.6699  154.4199 C   0  0  2  0  0  0  0  0  0  0  0  0
  148.0492  133.5984  153.6691 C   0  0  0  0  0  0  0  0  0  0  0  0
  148.0362  132.1476  153.2002 C   0  0  0  0  0  0  0  0  0  0  0  0
  148.7040  131.4091  154.2182 O   0  0  0  0  0  0  0  0  0  0  0  0
  149.3876  132.2949  155.1036 C   0  0  1  0  0  0  0  0  0  0  0  0
  150.7826  131.7442  155.4805 C   0  0  0  0  0  0  0  0  0  0  0  0
  150.7931  130.2274  155.7448 C   0  0  0  0  0  0  0  0  0  0  0  0
  151.3634  132.5054  156.6826 C   0  0  0  0  0  0  0  0  0  0  0  0
  149.9665  140.9320  155.0380 C   0  0  0  0  0  0  0  0  0  0  0  0
  150.3681  142.0053  155.7538 N   0  3  0  0  0  0  0  0  0  0  0  0
  152.8170  143.2224  157.6707 H   0  0  0  0  0  0  0  0  0  0  0  0
  151.1472  143.3399  158.2396 H   0  0  0  0  0  0  0  0  0  0  0  0
  151.6256  144.1161  156.7237 H   0  0  0  0  0  0  0  0  0  0  0  0
  152.9846  140.7253  157.4456 H   0  0  0  0  0  0  0  0  0  0  0  0
  152.2981  138.7005  156.1619 H   0  0  0  0  0  0  0  0  0  0  0  0
  149.2792  138.7157  153.8436 H   0  0  0  0  0  0  0  0  0  0  0  0
  150.9510  138.2500  153.6051 H   0  0  0  0  0  0  0  0  0  0  0  0
  149.5806  136.1122  153.6931 H   0  0  0  0  0  0  0  0  0  0  0  0
  150.2850  134.6905  156.1085 H   0  0  0  0  0  0  0  0  0  0  0  0
  148.5638  134.9493  155.9843 H   0  0  0  0  0  0  0  0  0  0  0  0
  150.1655  133.7291  153.6829 H   0  0  0  0  0  0  0  0  0  0  0  0
  147.2122  133.7802  154.3447 H   0  0  0  0  0  0  0  0  0  0  0  0
  147.9848  134.3094  152.8447 H   0  0  0  0  0  0  0  0  0  0  0  0
  147.0268  131.7723  153.0310 H   0  0  0  0  0  0  0  0  0  0  0  0
  148.5976  132.0429  152.2707 H   0  0  0  0  0  0  0  0  0  0  0  0
  148.7757  132.3588  156.0051 H   0  0  0  0  0  0  0  0  0  0  0  0
  151.4499  131.9318  154.6388 H   0  0  0  0  0  0  0  0  0  0  0  0
  150.1195  129.9600  156.5593 H   0  0  0  0  0  0  0  0  0  0  0  0
  151.7916  129.8881  156.0211 H   0  0  0  0  0  0  0  0  0  0  0  0
  150.4978  129.6561  154.8658 H   0  0  0  0  0  0  0  0  0  0  0  0
  150.7499  132.3679  157.5734 H   0  0  0  0  0  0  0  0  0  0  0  0
  151.4223  133.5754  156.4810 H   0  0  0  0  0  0  0  0  0  0  0  0
  152.3713  132.1618  156.9168 H   0  0  0  0  0  0  0  0  0  0  0  0
  149.1121  141.0865  154.3953 H   0  0  0  0  0  0  0  0  0  0  0  0
  149.8545  142.8806  155.6492 H   0  0  0  0  0  0  0  0  0  0  0  0
  1  2  1  0  0  0  0
  1 21  1  0  0  0  0
  1 22  1  0  0  0  0
  1 23  1  0  0  0  0
  2 20  1  0  0  0  0
  2  3  2  0  0  0  0
  3  4  1  0  0  0  0
  3 24  1  0  0  0  0
  4  5  2  0  0  0  0
  4 25  1  0  0  0  0
  5  6  1  0  0  0  0
  5 19  1  0  0  0  0
  6  7  1  0  0  0  0
  6 26  1  0  0  0  0
  6 27  1  0  0  0  0
  7  8  2  0  0  0  0
  7  9  1  0  0  0  0
  9 10  1  0  0  0  0
  9 28  1  0  0  0  0
 10 11  1  0  0  0  0
 10 29  1  0  0  0  0
 10 30  1  0  0  0  0
 11 15  1  0  0  0  0
 11 12  1  0  0  0  0
 11 31  1  0  0  0  0
 12 13  1  0  0  0  0
 12 32  1  0  0  0  0
 12 33  1  0  0  0  0
 13 14  1  0  0  0  0
 13 34  1  0  0  0  0
 13 35  1  0  0  0  0
 14 15  1  0  0  0  0
 15 16  1  0  0  0  0
 15 36  1  0  0  0  0
 16 17  1  0  0  0  0
 16 18  1  0  0  0  0
 16 37  1  0  0  0  0
 17 38  1  0  0  0  0
 17 39  1  0  0  0  0
 17 40  1  0  0  0  0
 18 41  1  0  0  0  0
 18 42  1  0  0  0  0
 18 43  1  0  0  0  0
 19 20  2  0  0  0  0
 19 44  1  0  0  0  0
 20 45  1  0  0  0  0
M  CHG  1  20   1
M  END
> <s_m_source_file>
AV-unprocessed.smi

> <i_m_source_file_index>
653

> <i_lp_mmshare_version>
43012

> <i_f3d_flags>
0

> <s_epik_input>
W0NIM11jMVtjSF1bY0hdYyhbY0hdbjEpW0NIMl1DKD1PKVtOSF1bQ0gyXVtDQEBIXTJbQ0gyXVtDSDJdT1tDQEhdMltDSF0oW0NIM10pW0NIM10=

> <s_epik_cmdline>
J2VwaWtfcHl0aG9uJywgJy1waCcsICc3LjAnLCAnLXRuJywgJzgnLCAnLW1hJywgJzIwMCcsICctbWV0YWxfYmluZGluZycsICctaW1hZScsICc8aW5maWxlLm1hZT4nLCAnLW9tYWUnLCAnPG91dGZpbGUubWFlPic=

> <r_epik_Ionization_Penalty>
2.12486

> <r_epik_Ionization_Penalty_Charging>
2.12486

> <r_epik_Ionization_Penalty_Neutral>
9.0873e-08

> <r_epik_State_Penalty>
2.26279

> <r_epik_Charging_Adjusted_Penalty>
4.38765

> <i_epik_Tot_Q>
1

> <i_epik_Tot_abs_Q>
1

> <r_epik_Metal_State_Penalty>
2.27914

> <b_epik_Metal_Only>
0

> <s_lp_Force_Field>
OPLS_2005

> <r_lp_Energy>
26.2023

> <b_lp_Chiralities_Consistent>
1

> <s_lp_Variant>
AV-unprocessed.smi:653-5

> <Gold.Version>
5.8.1

> <Gold.Id.Protein>
6NUR|6NUR_protein|mol2

> <Gold.PLP.Fitness>
44.4482

> <Gold.PLP.PLP>
-36.3657

> <Gold.PLP.part.hbond>
-2.0000

> <Gold.PLP.part.metal>
0.0000

> <Gold.PLP.part.buried>
-2.3427

> <Gold.PLP.part.nonpolar>
-31.6335

> <Gold.PLP.part.repulsive>
0.2470

> <Gold.PLP.ligand.clash>
0.0000

> <Gold.PLP.ligand.torsion>
0.4704

> <Gold.PLP.Chemscore.Hbond>
3.0000

> <Gold.PLP.Chemscore.CHOScore>
0.0000

> <Gold.PLP.Chemscore.Metal>
0.0000

> <Gold.Chemscore.Hbonds>
donor molecule, donor type, donor heavy atom, donor atom, acceptor molecule, acceptor atom, score
      L1  H     9    28       P1  7948  1.00
      L1  H    20    45       P1  8028  1.76

> <Gold.PLP.Chemscore.Internal.Correction>
0.0232

> <Gold.Rescore>
     Score         DG    S(hbond)    S(metal)    S(lipo)     H(rot)  DE(clash)    DE(int)     intcor
     16.66     -19.04       1.94        0.00      94.86       1.57       0.35       2.03       ----

> <Gold.Chemscore.Fitness>
16.6596

> <Gold.Chemscore.DG>
-19.0424

> <Gold.Chemscore.ZeroCoef>
-5.4800

> <Gold.Chemscore.Hbond>
1.9413

> <Gold.Chemscore.Metal>
0.0000

> <Gold.Chemscore.Lipo>
94.8557

> <Gold.Chemscore.Internal_Hbond>
0.0000

> <Gold.Chemscore.DEClash>
0.3507

> <Gold.Chemscore.DEInternal>
2.0321

> <Gold.Chemscore.Rot>
1.5701

> <Gold.Chemscore.Internal.Correction>
   9.000000E+99

> <Gold.Chemscore.Hbonds>
donor molecule, donor type, donor heavy atom, donor atom, acceptor molecule, acceptor atom, score
      L1  H     9    28       P1  7948  0.45
      L1  H    20    45       P1  8028  0.86

> <Gold.Chemscore.Hbond.Weighted>
-6.4839

> <Gold.Chemscore.Metal.Weighted>
-0.0000

> <Gold.Chemscore.Lipo.Weighted>
-11.0981

> <Gold.Chemscore.Internal_Hbond.Weighted>
0.0000

> <Gold.Chemscore.DEClash.Weighted>
0.3507

> <Gold.Chemscore.DEInternal.Weighted>
2.0321

> <Gold.Chemscore.Rot.Weighted>
4.0196

> <Gold.Chemscore.Internal.Correction.Weighted>
   9.000000E+99

> <Gold.Protein.RotatedTorsions>
[ 6907 6896 6895 6894 ] final  136.95 input  -60.11 | X-H torsion
[ 7974 7965 7964 7962 ] final   -1.10 input  175.53 | X-H torsion
[ 8008 7997 7996 7995 ] final -136.24 input   59.86 | X-H torsion
[ 10167 10162 10161 10158 ] final  131.01 input  -65.29 | X-H torsion
[ 10718 10713 10712 10709 ] final   37.28 input   66.30 | X-H torsion
[ 10763 10752 10751 10750 ] final -139.30 input  -60.55 | X-H torsion
[ 11005 11000 10999 10996 ] final  -20.01 input  -57.11 | X-H torsion

> <Gold.Protein.ActiveResidues>
 VAL166  LYS551  ARG553  GLY616  TRP617  ASP618  TYR619  PRO620  LYS621  CYS622 
 ASP623  PHE694  ASN695  SER759  ASP760  ASP761  ALA762  ILE779  LEU786  VAL792 
 PHE793  MET794  SER795  GLU796  ALA797  LYS798  CYS799  TRP800  GLU811  SER814 

> <Gold.Protein.RotatedAtoms>
  152.2836  133.5493  159.5512 H   0  0  0  0  0  0  0  0  0  0  0  0  # atno 6907 bound_to 6896
  150.7206  134.0529  159.3813 H   0  0  0  0  0  0  0  0  0  0  0  0  # atno 6908 bound_to 6896
  151.8439  135.0581  160.0502 H   0  0  0  0  0  0  0  0  0  0  0  0  # atno 6909 bound_to 6896
  146.2420  140.1370  142.8336 H   0  0  0  0  0  0  0  0  0  0  0  0  # atno 7974 bound_to 7965
  155.3919  140.0500  157.3040 H   0  0  0  0  0  0  0  0  0  0  0  0  # atno 8008 bound_to 7997
  154.5032  140.2164  155.9265 H   0  0  0  0  0  0  0  0  0  0  0  0  # atno 8009 bound_to 7997
  156.1493  140.3139  155.8627 H   0  0  0  0  0  0  0  0  0  0  0  0  # atno 8010 bound_to 7997
  139.5403  144.6724  151.4646 H   0  0  0  0  0  0  0  0  0  0  0  0  # atno 10167 bound_to 10162
  157.3450  130.7568  149.6938 H   0  0  0  0  0  0  0  0  0  0  0  0  # atno 10718 bound_to 10713
  154.8613  135.3586  154.5525 H   0  0  0  0  0  0  0  0  0  0  0  0  # atno 10763 bound_to 10752
  153.6143  135.7008  153.5340 H   0  0  0  0  0  0  0  0  0  0  0  0  # atno 10764 bound_to 10752
  153.3183  135.4158  155.1355 H   0  0  0  0  0  0  0  0  0  0  0  0  # atno 10765 bound_to 10752
  140.8423  133.7917  155.9874 H   0  0  0  0  0  0  0  0  0  0  0  0  # atno 11005 bound_to 11000
  145.0279  140.8847  143.5127 LP  0  0  0  0  0  0  0  0  0  0  0  0  # atno 17320 bound_to 7965
  145.1429  139.2561  143.5481 LP  0  0  0  0  0  0  0  0  0  0  0  0  # atno 17321 bound_to 7965
  140.6630  143.8458  150.6909 LP  0  0  0  0  0  0  0  0  0  0  0  0  # atno 17342 bound_to 10162
  140.1858  143.4077  152.1899 LP  0  0  0  0  0  0  0  0  0  0  0  0  # atno 17343 bound_to 10162
  155.9713  130.4157  150.4193 LP  0  0  0  0  0  0  0  0  0  0  0  0  # atno 17370 bound_to 10713
  157.2247  131.0490  151.2527 LP  0  0  0  0  0  0  0  0  0  0  0  0  # atno 17371 bound_to 10713
  140.8882  134.2528  157.5109 LP  0  0  0  0  0  0  0  0  0  0  0  0  # atno 17394 bound_to 11000
  139.8703  134.9648  156.4508 LP  0  0  0  0  0  0  0  0  0  0  0  0  # atno 17395 bound_to 11000

$$$$
