AV-unprocessed.smi:3141|AV-procd|sdf|11963|dock4
  -GOLD-   2272017363D 1   1.00000     0.00000
 Structure written by MMmdl.
 36 38  0  0  0  0  0  0  0  0  2 V2000
  150.1521  142.0267  158.9166 O   0  0  0  0  0  0  0  0  0  0  0  0
  149.8623  142.8430  158.0416 C   0  0  0  0  0  0  0  0  0  0  0  0
  150.6897  143.7972  157.5965 N   0  0  0  0  0  0  0  0  0  0  0  0
  152.0244  144.0118  158.0536 C   0  0  0  0  0  0  0  0  0  0  0  0
  152.2888  143.8845  159.5380 C   0  0  0  0  0  0  0  0  0  0  0  0
  152.2887  145.2428  158.8930 C   0  0  0  0  0  0  0  0  0  0  0  0
  148.6841  142.8694  157.4018 N   0  0  0  0  0  0  0  0  0  0  0  0
  147.5591  141.9650  157.6517 C   0  0  1  0  0  0  0  0  0  0  0  0
  146.3514  142.7709  158.1745 C   0  0  0  0  0  0  0  0  0  0  0  0
  145.2742  142.7320  157.0786 C   0  0  0  0  0  0  0  0  0  0  0  0
  145.9798  142.2284  155.8200 C   0  0  0  0  0  0  0  0  0  0  0  0
  147.0399  141.2719  156.3719 C   0  0  1  0  0  0  0  0  0  0  0  0
  148.0747  140.8505  155.4094 N   0  0  0  0  0  0  0  0  0  0  0  0
  149.1480  140.0154  155.6087 C   0  0  0  0  0  0  0  0  0  0  0  0
  149.7842  139.8971  154.4002 C   0  0  0  0  0  0  0  0  0  0  0  0
  149.0714  140.6544  153.5112 N   0  3  0  0  0  0  0  0  0  0  0  0
  148.0324  141.2290  154.1246 C   0  0  0  0  0  0  0  0  0  0  0  0
  150.3540  144.4185  156.8749 H   0  0  0  0  0  0  0  0  0  0  0  0
  152.8346  143.6995  157.3962 H   0  0  0  0  0  0  0  0  0  0  0  0
  151.4502  143.6367  160.1861 H   0  0  0  0  0  0  0  0  0  0  0  0
  153.2490  143.4727  159.8422 H   0  0  0  0  0  0  0  0  0  0  0  0
  153.2490  145.7387  158.7671 H   0  0  0  0  0  0  0  0  0  0  0  0
  151.4501  145.9013  159.1112 H   0  0  0  0  0  0  0  0  0  0  0  0
  148.5457  143.5781  156.6960 H   0  0  0  0  0  0  0  0  0  0  0  0
  147.8505  141.2166  158.3912 H   0  0  0  0  0  0  0  0  0  0  0  0
  145.9638  142.3363  159.0968 H   0  0  0  0  0  0  0  0  0  0  0  0
  146.6249  143.8020  158.4059 H   0  0  0  0  0  0  0  0  0  0  0  0
  144.4911  142.0278  157.3633 H   0  0  0  0  0  0  0  0  0  0  0  0
  144.8010  143.7025  156.9261 H   0  0  0  0  0  0  0  0  0  0  0  0
  145.2962  141.7448  155.1217 H   0  0  0  0  0  0  0  0  0  0  0  0
  146.4410  143.0747  155.3105 H   0  0  0  0  0  0  0  0  0  0  0  0
  146.5173  140.3630  156.6772 H   0  0  0  0  0  0  0  0  0  0  0  0
  149.3771  139.5701  156.5654 H   0  0  0  0  0  0  0  0  0  0  0  0
  150.6635  139.3394  154.1121 H   0  0  0  0  0  0  0  0  0  0  0  0
  147.2952  141.8655  153.6684 H   0  0  0  0  0  0  0  0  0  0  0  0
  149.2905  140.7587  152.5284 H   0  0  0  0  0  0  0  0  0  0  0  0
  1  2  2  0  0  0  0
  2  3  1  0  0  0  0
  2  7  1  0  0  0  0
  3  4  1  0  0  0  0
  3 18  1  0  0  0  0
  4  6  1  0  0  0  0
  4  5  1  0  0  0  0
  4 19  1  0  0  0  0
  5  6  1  0  0  0  0
  5 20  1  0  0  0  0
  5 21  1  0  0  0  0
  6 22  1  0  0  0  0
  6 23  1  0  0  0  0
  7  8  1  0  0  0  0
  7 24  1  0  0  0  0
  8 12  1  0  0  0  0
  8  9  1  0  0  0  0
  8 25  1  0  0  0  0
  9 10  1  0  0  0  0
  9 26  1  0  0  0  0
  9 27  1  0  0  0  0
 10 11  1  0  0  0  0
 10 28  1  0  0  0  0
 10 29  1  0  0  0  0
 11 12  1  0  0  0  0
 11 30  1  0  0  0  0
 11 31  1  0  0  0  0
 12 13  1  0  0  0  0
 12 32  1  0  0  0  0
 13 17  1  0  0  0  0
 13 14  1  0  0  0  0
 14 15  2  0  0  0  0
 14 33  1  0  0  0  0
 15 16  1  0  0  0  0
 15 34  1  0  0  0  0
 16 17  2  0  0  0  0
 16 36  1  0  0  0  0
 17 35  1  0  0  0  0
M  CHG  1  16   1
M  END
> <s_m_source_file>
AV-unprocessed.smi

> <i_m_source_file_index>
3141

> <i_lp_mmshare_version>
43012

> <i_f3d_flags>
0

> <s_epik_input>
W0NIMl0xW0NIMl1bQ0hdMVtOSF1DKD1PKVtOSF1bQ0BASF0yW0NIMl1bQ0gyXVtDSDJdW0NASF0ybjNbY0hdW2NIXW5bY0hdMw==

> <s_epik_cmdline>
J2VwaWtfcHl0aG9uJywgJy1waCcsICc3LjAnLCAnLXRuJywgJzgnLCAnLW1hJywgJzIwMCcsICctbWV0YWxfYmluZGluZycsICctaW1hZScsICc8aW5maWxlLm1hZT4nLCAnLW9tYWUnLCAnPG91dGZpbGUubWFlPic=

> <r_lp_tautomer_probability>
1

> <r_epik_Ionization_Penalty>
0.205063

> <r_epik_Ionization_Penalty_Charging>
0

> <r_epik_Ionization_Penalty_Neutral>
0.205063

> <r_epik_State_Penalty>
0.194948

> <r_epik_Charging_Adjusted_Penalty>
0.194948

> <i_epik_Tot_Q>
1

> <i_epik_Tot_abs_Q>
1

> <r_epik_Metal_State_Penalty>
0.500882

> <b_epik_Metal_Only>
0

> <s_lp_Force_Field>
OPLS_2005

> <r_lp_Energy>
36.92

> <b_lp_Chiralities_Consistent>
1

> <s_lp_Variant>
AV-unprocessed.smi:3141-2

> <Gold.Version>
5.8.1

> <Gold.Id.Protein>
6NUR|6NUR_protein|mol2

> <Gold.PLP.Fitness>
39.5650

> <Gold.PLP.PLP>
-31.4382

> <Gold.PLP.part.hbond>
-4.4241

> <Gold.PLP.part.metal>
0.0000

> <Gold.PLP.part.buried>
-2.9822

> <Gold.PLP.part.nonpolar>
-24.1976

> <Gold.PLP.part.repulsive>
0.2743

> <Gold.PLP.ligand.clash>
0.0000

> <Gold.PLP.ligand.torsion>
0.2499

> <Gold.PLP.Chemscore.Hbond>
2.8560

> <Gold.PLP.Chemscore.CHOScore>
0.0000

> <Gold.PLP.Chemscore.Metal>
0.0000

> <Gold.Chemscore.Hbonds>
donor molecule, donor type, donor heavy atom, donor atom, acceptor molecule, acceptor atom, score
      L1  H     3    18       P1  8028  0.90
      L1  H     7    24       P1  8028  1.00
      L1  H    16    36       P1  7957  0.96

> <Gold.PLP.Chemscore.Internal.Correction>
0.0586

> <Gold.Rescore>
     Score         DG    S(hbond)    S(metal)    S(lipo)     H(rot)  DE(clash)    DE(int)     intcor
     15.73     -17.03       2.65        0.00      58.33       1.61       0.00       1.30       ----

> <Gold.Chemscore.Fitness>
15.7328

> <Gold.Chemscore.DG>
-17.0319

> <Gold.Chemscore.ZeroCoef>
-5.4800

> <Gold.Chemscore.Hbond>
2.6485

> <Gold.Chemscore.Metal>
0.0000

> <Gold.Chemscore.Lipo>
58.3309

> <Gold.Chemscore.Internal_Hbond>
0.0000

> <Gold.Chemscore.DEClash>
0.0038

> <Gold.Chemscore.DEInternal>
1.2954

> <Gold.Chemscore.Rot>
1.6088

> <Gold.Chemscore.Internal.Correction>
   9.000000E+99

> <Gold.Chemscore.Hbonds>
donor molecule, donor type, donor heavy atom, donor atom, acceptor molecule, acceptor atom, score
      L1  H     3    18       P1  8028  0.78
      L1  H     7    24       P1  8028  0.29
      L1  H    16    36       P1  7957  0.89

> <Gold.Chemscore.Hbond.Weighted>
-8.8458

> <Gold.Chemscore.Metal.Weighted>
-0.0000

> <Gold.Chemscore.Lipo.Weighted>
-6.8247

> <Gold.Chemscore.Internal_Hbond.Weighted>
0.0000

> <Gold.Chemscore.DEClash.Weighted>
0.0038

> <Gold.Chemscore.DEInternal.Weighted>
1.2954

> <Gold.Chemscore.Rot.Weighted>
4.1186

> <Gold.Chemscore.Internal.Correction.Weighted>
   9.000000E+99

> <Gold.Protein.RotatedTorsions>
[ 6907 6896 6895 6894 ] final -107.04 input  -60.11 | X-H torsion
[ 7974 7965 7964 7962 ] final  -77.55 input  175.53 | X-H torsion
[ 8008 7997 7996 7995 ] final -145.34 input   59.86 | X-H torsion
[ 10167 10162 10161 10158 ] final -168.18 input  -65.29 | X-H torsion
[ 10718 10713 10712 10709 ] final  169.20 input   66.30 | X-H torsion
[ 10763 10752 10751 10750 ] final -143.78 input  -60.55 | X-H torsion
[ 11005 11000 10999 10996 ] final -168.90 input  -57.11 | X-H torsion

> <Gold.Protein.ActiveResidues>
 VAL166  LYS551  ARG553  GLY616  TRP617  ASP618  TYR619  PRO620  LYS621  CYS622 
 ASP623  PHE694  ASN695  SER759  ASP760  ASP761  ALA762  ILE779  LEU786  VAL792 
 PHE793  MET794  SER795  GLU796  ALA797  LYS798  CYS799  TRP800  GLU811  SER814 

> <Gold.Protein.RotatedAtoms>
  150.7422  133.9886  159.3599 H   0  0  0  0  0  0  0  0  0  0  0  0  # atno 6907 bound_to 6896
  151.7833  135.0754  160.0386 H   0  0  0  0  0  0  0  0  0  0  0  0  # atno 6908 bound_to 6896
  152.3259  133.5868  159.5812 H   0  0  0  0  0  0  0  0  0  0  0  0  # atno 6909 bound_to 6896
  145.5982  140.9414  143.1255 H   0  0  0  0  0  0  0  0  0  0  0  0  # atno 7974 bound_to 7965
  155.5416  140.0608  157.2869 H   0  0  0  0  0  0  0  0  0  0  0  0  # atno 8008 bound_to 7997
  154.4450  140.1918  156.0640 H   0  0  0  0  0  0  0  0  0  0  0  0  # atno 8009 bound_to 7997
  156.0581  140.3276  155.7433 H   0  0  0  0  0  0  0  0  0  0  0  0  # atno 8010 bound_to 7997
  139.6001  144.1028  152.1734 H   0  0  0  0  0  0  0  0  0  0  0  0  # atno 10167 bound_to 10162
  157.0260  131.0246  151.2759 H   0  0  0  0  0  0  0  0  0  0  0  0  # atno 10718 bound_to 10713
  154.8456  135.3458  154.6242 H   0  0  0  0  0  0  0  0  0  0  0  0  # atno 10763 bound_to 10752
  153.6851  135.6978  153.5111 H   0  0  0  0  0  0  0  0  0  0  0  0  # atno 10764 bound_to 10752
  153.2638  135.4314  155.0876 H   0  0  0  0  0  0  0  0  0  0  0  0  # atno 10765 bound_to 10752
  140.5368  134.5562  157.5089 H   0  0  0  0  0  0  0  0  0  0  0  0  # atno 11005 bound_to 11000
  144.7321  139.7694  143.7343 LP  0  0  0  0  0  0  0  0  0  0  0  0  # atno 17320 bound_to 7965
  146.1596  139.4705  142.9997 LP  0  0  0  0  0  0  0  0  0  0  0  0  # atno 17321 bound_to 7965
  140.0622  144.5847  150.7254 LP  0  0  0  0  0  0  0  0  0  0  0  0  # atno 17342 bound_to 10162
  140.7243  143.2620  151.4173 LP  0  0  0  0  0  0  0  0  0  0  0  0  # atno 17343 bound_to 10162
  157.5213  130.8000  149.7813 LP  0  0  0  0  0  0  0  0  0  0  0  0  # atno 17370 bound_to 10713
  156.0086  130.3844  150.2344 LP  0  0  0  0  0  0  0  0  0  0  0  0  # atno 17371 bound_to 10713
  139.9525  134.7592  156.0416 LP  0  0  0  0  0  0  0  0  0  0  0  0  # atno 17394 bound_to 11000
  141.1250  133.6602  156.3313 LP  0  0  0  0  0  0  0  0  0  0  0  0  # atno 17395 bound_to 11000

$$$$
