AV-unprocessed.smi:2252|AV-procd|sdf|9110|dock3
  -GOLD-   2272012313D 1   1.00000     0.00000
 Structure written by MMmdl.
 45 47  0  0  0  0  0  0  0  0  4 V2000
  153.0305  142.6814  160.1491 C   0  0  0  0  0  0  0  0  0  0  0  0
  152.1907  143.5160  159.2888 N   0  0  0  0  0  0  0  0  0  0  0  0
  152.0073  144.8704  159.4023 C   0  0  0  0  0  0  0  0  0  0  0  0
  151.1650  145.2399  158.3871 C   0  0  0  0  0  0  0  0  0  0  0  0
  150.8696  144.0972  157.6960 N   0  3  0  0  0  0  0  0  0  0  0  0
  151.4847  143.0407  158.2471 C   0  0  0  0  0  0  0  0  0  0  0  0
  151.3967  141.6177  157.7585 C   0  0  0  0  0  0  0  0  0  0  0  0
  150.5402  141.4098  156.4897 C   0  0  0  0  0  0  0  0  0  0  0  0
  150.1026  140.0197  156.3600 N   0  5  0  0  0  0  0  0  0  0  0  0
  149.7655  139.4356  155.1738 C   0  0  0  0  0  0  0  0  0  0  0  0
  150.1916  139.6476  154.0346 O   0  0  0  0  0  0  0  0  0  0  0  0
  148.6703  138.3636  155.3509 C   0  0  1  0  0  0  0  0  0  0  0  0
  147.3700  138.8057  154.6405 C   0  0  0  0  0  0  0  0  0  0  0  0
  147.3351  139.0015  153.1397 C   0  0  0  0  0  0  0  0  0  0  0  0
  147.2311  140.1943  154.0526 C   0  0  0  0  0  0  0  0  0  0  0  0
  149.1192  137.0123  154.9038 N   0  3  0  0  0  0  0  0  0  0  0  0
  150.4564  136.5956  155.3765 C   0  0  0  0  0  0  0  0  0  0  0  0
  150.5065  135.0937  155.1179 C   0  0  0  0  0  0  0  0  0  0  0  0
  149.0678  134.6284  155.3434 C   0  0  0  0  0  0  0  0  0  0  0  0
  148.2048  135.8937  155.2302 C   0  0  0  0  0  0  0  0  0  0  0  0
  153.3443  143.2544  161.0219 H   0  0  0  0  0  0  0  0  0  0  0  0
  153.9089  142.3599  159.5889 H   0  0  0  0  0  0  0  0  0  0  0  0
  152.4642  141.8106  160.4756 H   0  0  0  0  0  0  0  0  0  0  0  0
  152.4807  145.4573  160.1760 H   0  0  0  0  0  0  0  0  0  0  0  0
  150.7657  146.2047  158.1103 H   0  0  0  0  0  0  0  0  0  0  0  0
  152.4226  141.3051  157.5620 H   0  0  0  0  0  0  0  0  0  0  0  0
  151.0386  140.9937  158.5771 H   0  0  0  0  0  0  0  0  0  0  0  0
  149.6835  142.0826  156.5337 H   0  0  0  0  0  0  0  0  0  0  0  0
  151.1138  141.7361  155.6216 H   0  0  0  0  0  0  0  0  0  0  0  0
  148.4617  138.2924  156.4202 H   0  0  0  0  0  0  0  0  0  0  0  0
  146.4667  138.3792  155.0739 H   0  0  0  0  0  0  0  0  0  0  0  0
  148.2649  138.8686  152.5897 H   0  0  0  0  0  0  0  0  0  0  0  0
  146.4337  138.6971  152.6119 H   0  0  0  0  0  0  0  0  0  0  0  0
  146.2612  140.6797  154.1386 H   0  0  0  0  0  0  0  0  0  0  0  0
  148.0908  140.8599  154.0998 H   0  0  0  0  0  0  0  0  0  0  0  0
  151.2610  137.1240  154.8642 H   0  0  0  0  0  0  0  0  0  0  0  0
  150.5470  136.7930  156.4459 H   0  0  0  0  0  0  0  0  0  0  0  0
  150.7923  134.9110  154.0809 H   0  0  0  0  0  0  0  0  0  0  0  0
  151.2244  134.5793  155.7572 H   0  0  0  0  0  0  0  0  0  0  0  0
  148.7774  133.8702  154.6155 H   0  0  0  0  0  0  0  0  0  0  0  0
  148.9592  134.1906  156.3365 H   0  0  0  0  0  0  0  0  0  0  0  0
  147.7138  136.0746  156.1871 H   0  0  0  0  0  0  0  0  0  0  0  0
  147.4308  135.7954  154.4686 H   0  0  0  0  0  0  0  0  0  0  0  0
  149.1816  137.0514  153.8961 H   0  0  0  0  0  0  0  0  0  0  0  0
  150.2630  144.0486  156.8871 H   0  0  0  0  0  0  0  0  0  0  0  0
  1  2  1  0  0  0  0
  1 21  1  0  0  0  0
  1 22  1  0  0  0  0
  1 23  1  0  0  0  0
  2  6  1  0  0  0  0
  2  3  1  0  0  0  0
  3  4  2  0  0  0  0
  3 24  1  0  0  0  0
  4  5  1  0  0  0  0
  4 25  1  0  0  0  0
  5  6  2  0  0  0  0
  5 45  1  0  0  0  0
  6  7  1  0  0  0  0
  7  8  1  0  0  0  0
  7 26  1  0  0  0  0
  7 27  1  0  0  0  0
  8  9  1  0  0  0  0
  8 28  1  0  0  0  0
  8 29  1  0  0  0  0
  9 10  1  0  0  0  0
 10 11  2  0  0  0  0
 10 12  1  0  0  0  0
 12 13  1  0  0  0  0
 12 16  1  0  0  0  0
 12 30  1  0  0  0  0
 13 15  1  0  0  0  0
 13 14  1  0  0  0  0
 13 31  1  0  0  0  0
 14 15  1  0  0  0  0
 14 32  1  0  0  0  0
 14 33  1  0  0  0  0
 15 34  1  0  0  0  0
 15 35  1  0  0  0  0
 16 20  1  0  0  0  0
 16 17  1  0  0  0  0
 16 44  1  0  0  0  0
 17 18  1  0  0  0  0
 17 36  1  0  0  0  0
 17 37  1  0  0  0  0
 18 19  1  0  0  0  0
 18 38  1  0  0  0  0
 18 39  1  0  0  0  0
 19 20  1  0  0  0  0
 19 40  1  0  0  0  0
 19 41  1  0  0  0  0
 20 42  1  0  0  0  0
 20 43  1  0  0  0  0
M  CHG  1   5   1
M  CHG  1   9  -1
M  CHG  1  16   1
M  END
> <s_m_source_file>
AV-unprocessed.smi

> <i_m_source_file_index>
2252

> <i_lp_mmshare_version>
43012

> <i_f3d_flags>
0

> <s_epik_input>
W0NIM11uMVtjSF1bY0hdbmMxW0NIMl1bQ0gyXVtOSF1DKD1PKVtDQEhdKFtDSF0yW0NIMl1bQ0gyXTIpTjNbQ0gyXVtDSDJdW0NIMl1bQ0gyXTM=

> <s_epik_cmdline>
J2VwaWtfcHl0aG9uJywgJy1waCcsICc3LjAnLCAnLXRuJywgJzgnLCAnLW1hJywgJzIwMCcsICctbWV0YWxfYmluZGluZycsICctaW1hZScsICc8aW5maWxlLm1hZT4nLCAnLW9tYWUnLCAnPG91dGZpbGUubWFlPic=

> <r_lp_tautomer_probability>
1

> <r_epik_Ionization_Penalty>
5.88052

> <r_epik_Ionization_Penalty_Charging>
5.85424

> <r_epik_Ionization_Penalty_Neutral>
0.026272

> <r_epik_State_Penalty>
5.94961

> <r_epik_Charging_Adjusted_Penalty>
11.8039

> <i_epik_Tot_Q>
1

> <i_epik_Tot_abs_Q>
3

> <r_epik_Metal_State_Penalty>
2.20001

> <b_epik_Metal_Only>
1

> <s_lp_Force_Field>
OPLS_2005

> <r_lp_Energy>
30.4817

> <b_lp_Chiralities_Consistent>
1

> <s_lp_Variant>
AV-unprocessed.smi:2252-8

> <Gold.Version>
5.8.1

> <Gold.Id.Protein>
6NUR|6NUR_protein|mol2

> <Gold.PLP.Fitness>
50.3798

> <Gold.PLP.PLP>
-36.7035

> <Gold.PLP.part.hbond>
-3.0000

> <Gold.PLP.part.metal>
0.0000

> <Gold.PLP.part.buried>
-5.2473

> <Gold.PLP.part.nonpolar>
-30.5283

> <Gold.PLP.part.repulsive>
2.2142

> <Gold.PLP.ligand.clash>
0.0000

> <Gold.PLP.ligand.torsion>
1.2967

> <Gold.PLP.Chemscore.Hbond>
4.9760

> <Gold.PLP.Chemscore.CHOScore>
0.0000

> <Gold.PLP.Chemscore.Metal>
0.0000

> <Gold.Chemscore.Hbonds>
donor molecule, donor type, donor heavy atom, donor atom, acceptor molecule, acceptor atom, score
      L1  H     5    45       P1  8028  2.00
      L1  H    16    44       P1  7948  1.24
      P1  H  7989  7998       L1    11  1.00

> <Gold.PLP.Chemscore.Internal.Correction>
1.3417

> <Gold.Rescore>
     Score         DG    S(hbond)    S(metal)    S(lipo)     H(rot)  DE(clash)    DE(int)     intcor
     15.54     -19.41       2.74        0.00      84.04       1.98       1.46       2.40       ----

> <Gold.Chemscore.Fitness>
15.5434

> <Gold.Chemscore.DG>
-19.4072

> <Gold.Chemscore.ZeroCoef>
-5.4800

> <Gold.Chemscore.Hbond>
2.7441

> <Gold.Chemscore.Metal>
0.0000

> <Gold.Chemscore.Lipo>
84.0427

> <Gold.Chemscore.Internal_Hbond>
0.0000

> <Gold.Chemscore.DEClash>
1.4646

> <Gold.Chemscore.DEInternal>
2.3992

> <Gold.Chemscore.Rot>
1.9809

> <Gold.Chemscore.Internal.Correction>
   9.000000E+99

> <Gold.Chemscore.Hbonds>
donor molecule, donor type, donor heavy atom, donor atom, acceptor molecule, acceptor atom, score
      L1  H     5    45       P1  8028  0.95
      L1  H    16    44       P1  7948  0.59
      P1  H  7989  7998       L1    11  0.96

> <Gold.Chemscore.Hbond.Weighted>
-9.1653

> <Gold.Chemscore.Metal.Weighted>
-0.0000

> <Gold.Chemscore.Lipo.Weighted>
-9.8330

> <Gold.Chemscore.Internal_Hbond.Weighted>
0.0000

> <Gold.Chemscore.DEClash.Weighted>
1.4646

> <Gold.Chemscore.DEInternal.Weighted>
2.3992

> <Gold.Chemscore.Rot.Weighted>
5.0711

> <Gold.Chemscore.Internal.Correction.Weighted>
   9.000000E+99

> <Gold.Protein.RotatedTorsions>
[ 6907 6896 6895 6894 ] final  -54.00 input  -60.11 | X-H torsion
[ 7974 7965 7964 7962 ] final   80.96 input  175.53 | X-H torsion
[ 8008 7997 7996 7995 ] final   14.02 input   59.86 | X-H torsion
[ 10167 10162 10161 10158 ] final   -2.05 input  -65.29 | X-H torsion
[ 10718 10713 10712 10709 ] final  101.46 input   66.30 | X-H torsion
[ 10763 10752 10751 10750 ] final  -91.78 input  -60.55 | X-H torsion
[ 11005 11000 10999 10996 ] final -171.90 input  -57.11 | X-H torsion

> <Gold.Protein.ActiveResidues>
 VAL166  LYS551  ARG553  GLY616  TRP617  ASP618  TYR619  PRO620  LYS621  CYS622 
 ASP623  PHE694  ASN695  SER759  ASP760  ASP761  ALA762  ILE779  LEU786  VAL792 
 PHE793  MET794  SER795  GLU796  ALA797  LYS798  CYS799  TRP800  GLU811  SER814 

> <Gold.Protein.RotatedAtoms>
  150.8377  134.7656  159.6905 H   0  0  0  0  0  0  0  0  0  0  0  0  # atno 6907 bound_to 6896
  152.4470  134.5470  159.9865 H   0  0  0  0  0  0  0  0  0  0  0  0  # atno 6908 bound_to 6896
  151.5617  133.3364  159.3008 H   0  0  0  0  0  0  0  0  0  0  0  0  # atno 6909 bound_to 6896
  145.6444  139.2433  143.2012 H   0  0  0  0  0  0  0  0  0  0  0  0  # atno 7974 bound_to 7965
  154.8426  140.2917  155.5649 H   0  0  0  0  0  0  0  0  0  0  0  0  # atno 8008 bound_to 7997
  156.3012  140.2511  156.3303 H   0  0  0  0  0  0  0  0  0  0  0  0  # atno 8009 bound_to 7997
  154.9108  140.0388  157.1934 H   0  0  0  0  0  0  0  0  0  0  0  0  # atno 8010 bound_to 7997
  140.6835  143.6703  150.8191 H   0  0  0  0  0  0  0  0  0  0  0  0  # atno 10167 bound_to 10162
  157.6828  131.0727  150.5256 H   0  0  0  0  0  0  0  0  0  0  0  0  # atno 10718 bound_to 10713
  154.6795  135.5255  153.8244 H   0  0  0  0  0  0  0  0  0  0  0  0  # atno 10763 bound_to 10752
  153.0555  135.6549  154.0597 H   0  0  0  0  0  0  0  0  0  0  0  0  # atno 10764 bound_to 10752
  154.0486  135.2971  155.3324 H   0  0  0  0  0  0  0  0  0  0  0  0  # atno 10765 bound_to 10752
  140.5030  134.5875  157.4994 H   0  0  0  0  0  0  0  0  0  0  0  0  # atno 11005 bound_to 11000
  146.1254  140.7255  142.9437 LP  0  0  0  0  0  0  0  0  0  0  0  0  # atno 17320 bound_to 7965
  144.7145  140.4161  143.7055 LP  0  0  0  0  0  0  0  0  0  0  0  0  # atno 17321 bound_to 7965
  140.0406  143.5349  152.2719 LP  0  0  0  0  0  0  0  0  0  0  0  0  # atno 17342 bound_to 10162
  139.6175  144.7622  151.2813 LP  0  0  0  0  0  0  0  0  0  0  0  0  # atno 17343 bound_to 10162
  156.5567  130.4245  149.6082 LP  0  0  0  0  0  0  0  0  0  0  0  0  # atno 17370 bound_to 10713
  156.2856  130.7095  151.1931 LP  0  0  0  0  0  0  0  0  0  0  0  0  # atno 17371 bound_to 10713
  139.9702  134.7305  156.0056 LP  0  0  0  0  0  0  0  0  0  0  0  0  # atno 17394 bound_to 11000
  141.1426  133.6562  156.3773 LP  0  0  0  0  0  0  0  0  0  0  0  0  # atno 17395 bound_to 11000

$$$$
