AV-unprocessed.smi:2732|AV-procd|sdf|10534|dock4
  -GOLD-   2272014583D 1   1.00000     0.00000
 Structure written by MMmdl.
 35 36  0  0  0  0  0  0  0  0  2 V2000
  152.3950  140.2446  157.9305 C   0  0  0  0  0  0  0  0  0  0  0  0
  151.6858  141.5514  157.5471 C   0  0  2  0  0  0  0  0  0  0  0  0
  151.4508  142.2770  158.7502 O   0  0  0  0  0  0  0  0  0  0  0  0
  152.5856  142.9405  159.2985 C   0  0  0  0  0  0  0  0  0  0  0  0
  152.4202  144.4479  159.2357 C   0  0  0  0  0  0  0  0  0  0  0  0
  151.5425  145.1831  160.2280 C   0  0  0  0  0  0  0  0  0  0  0  0
  151.1111  145.0665  158.7910 C   0  0  0  0  0  0  0  0  0  0  0  0
  150.3564  141.2723  156.8279 C   0  0  0  0  0  0  0  0  0  0  0  0
  149.3035  141.6876  157.3115 O   0  0  0  0  0  0  0  0  0  0  0  0
  150.4453  140.5668  155.6851 N   0  0  0  0  0  0  0  0  0  0  0  0
  149.4021  140.1859  154.7986 C   0  0  0  0  0  0  0  0  0  0  0  0
  148.2496  141.0001  154.7471 C   0  0  0  0  0  0  0  0  0  0  0  0
  147.1809  140.6474  153.8972 C   0  0  0  0  0  0  0  0  0  0  0  0
  147.2799  139.4762  153.1188 C   0  0  0  0  0  0  0  0  0  0  0  0
  146.2603  139.0695  152.2607 N   0  0  0  0  0  0  0  0  0  0  0  0
  148.3902  138.7119  153.2015 N   0  3  0  0  0  0  0  0  0  0  0  0
  149.4366  139.0154  154.0007 C   0  0  0  0  0  0  0  0  0  0  0  0
  152.6015  139.6326  157.0519 H   0  0  0  0  0  0  0  0  0  0  0  0
  151.7965  139.6492  158.6213 H   0  0  0  0  0  0  0  0  0  0  0  0
  153.3479  140.4519  158.4176 H   0  0  0  0  0  0  0  0  0  0  0  0
  152.3503  142.1269  156.8996 H   0  0  0  0  0  0  0  0  0  0  0  0
  152.7204  142.6484  160.3408 H   0  0  0  0  0  0  0  0  0  0  0  0
  153.4960  142.6748  158.7605 H   0  0  0  0  0  0  0  0  0  0  0  0
  153.3210  144.9712  158.9208 H   0  0  0  0  0  0  0  0  0  0  0  0
  150.9963  144.5972  160.9644 H   0  0  0  0  0  0  0  0  0  0  0  0
  151.8837  146.1573  160.5722 H   0  0  0  0  0  0  0  0  0  0  0  0
  151.1643  145.9624  158.1759 H   0  0  0  0  0  0  0  0  0  0  0  0
  150.2791  144.4010  158.5694 H   0  0  0  0  0  0  0  0  0  0  0  0
  151.3646  140.2199  155.4519 H   0  0  0  0  0  0  0  0  0  0  0  0
  148.1830  141.8934  155.3511 H   0  0  0  0  0  0  0  0  0  0  0  0
  146.2987  141.2693  153.8486 H   0  0  0  0  0  0  0  0  0  0  0  0
  145.4074  139.6022  152.1643 H   0  0  0  0  0  0  0  0  0  0  0  0
  146.3387  138.2300  151.7045 H   0  0  0  0  0  0  0  0  0  0  0  0
  150.2470  138.3025  153.9779 H   0  0  0  0  0  0  0  0  0  0  0  0
  148.4431  137.8627  152.6383 H   0  0  0  0  0  0  0  0  0  0  0  0
  1  2  1  0  0  0  0
  1 18  1  0  0  0  0
  1 19  1  0  0  0  0
  1 20  1  0  0  0  0
  2  3  1  0  0  0  0
  2  8  1  0  0  0  0
  2 21  1  0  0  0  0
  3  4  1  0  0  0  0
  4  5  1  0  0  0  0
  4 22  1  0  0  0  0
  4 23  1  0  0  0  0
  5  7  1  0  0  0  0
  5  6  1  0  0  0  0
  5 24  1  0  0  0  0
  6  7  1  0  0  0  0
  6 25  1  0  0  0  0
  6 26  1  0  0  0  0
  7 27  1  0  0  0  0
  7 28  1  0  0  0  0
  8  9  2  0  0  0  0
  8 10  1  0  0  0  0
 10 11  1  0  0  0  0
 10 29  1  0  0  0  0
 11 17  1  0  0  0  0
 11 12  2  0  0  0  0
 12 13  1  0  0  0  0
 12 30  1  0  0  0  0
 13 14  2  0  0  0  0
 13 31  1  0  0  0  0
 14 15  1  0  0  0  0
 14 16  1  0  0  0  0
 15 32  1  0  0  0  0
 15 33  1  0  0  0  0
 16 17  2  0  0  0  0
 16 35  1  0  0  0  0
 17 34  1  0  0  0  0
M  CHG  1  16   1
M  END
> <s_m_source_file>
AV-unprocessed.smi

> <i_m_source_file_index>
2732

> <i_lp_mmshare_version>
43012

> <i_f3d_flags>
0

> <s_epik_input>
W0NIMl0xW0NIMl1bQ0hdMVtDSDJdT1tDQEBIXShbQ0gzXSlDKD1PKVtOSF1jMltjSF1bY0hdYyhbTkgyXSluW2NIXTI=

> <s_epik_cmdline>
J2VwaWtfcHl0aG9uJywgJy1waCcsICc3LjAnLCAnLXRuJywgJzgnLCAnLW1hJywgJzIwMCcsICctbWV0YWxfYmluZGluZycsICctaW1hZScsICc8aW5maWxlLm1hZT4nLCAnLW9tYWUnLCAnPG91dGZpbGUubWFlPic=

> <r_lp_tautomer_probability>
0.999994

> <r_epik_Ionization_Penalty>
1.25173

> <r_epik_Ionization_Penalty_Charging>
1.25172

> <r_epik_Ionization_Penalty_Neutral>
2.35798e-06

> <r_epik_State_Penalty>
1.32157

> <r_epik_Charging_Adjusted_Penalty>
2.5733

> <i_epik_Tot_Q>
1

> <i_epik_Tot_abs_Q>
1

> <r_epik_Metal_State_Penalty>
1.39188

> <b_epik_Metal_Only>
0

> <s_lp_Force_Field>
OPLS_2005

> <r_lp_Energy>
25.4145

> <b_lp_Chiralities_Consistent>
1

> <s_lp_Variant>
AV-unprocessed.smi:2732-3

> <Gold.Version>
5.8.1

> <Gold.Id.Protein>
6NUR|6NUR_protein|mol2

> <Gold.PLP.Fitness>
48.6075

> <Gold.PLP.PLP>
-38.2935

> <Gold.PLP.part.hbond>
-3.0000

> <Gold.PLP.part.metal>
0.0000

> <Gold.PLP.part.buried>
-4.5753

> <Gold.PLP.part.nonpolar>
-31.3236

> <Gold.PLP.part.repulsive>
0.3430

> <Gold.PLP.ligand.clash>
0.0000

> <Gold.PLP.ligand.torsion>
1.1149

> <Gold.PLP.Chemscore.Hbond>
3.9840

> <Gold.PLP.Chemscore.CHOScore>
0.0000

> <Gold.PLP.Chemscore.Metal>
0.0000

> <Gold.Chemscore.Hbonds>
donor molecule, donor type, donor heavy atom, donor atom, acceptor molecule, acceptor atom, score
      L1  H    15    32       P1 10175  2.00
      L1  H    16    35       P1  7948  2.00

> <Gold.PLP.Chemscore.Internal.Correction>
0.5917

> <Gold.Rescore>
     Score         DG    S(hbond)    S(metal)    S(lipo)     H(rot)  DE(clash)    DE(int)     intcor
     15.63     -18.08       1.99        0.00      89.28       1.76       0.07       2.39       ----

> <Gold.Chemscore.Fitness>
15.6284

> <Gold.Chemscore.DG>
-18.0806

> <Gold.Chemscore.ZeroCoef>
-5.4800

> <Gold.Chemscore.Hbond>
1.9943

> <Gold.Chemscore.Metal>
0.0000

> <Gold.Chemscore.Lipo>
89.2847

> <Gold.Chemscore.Internal_Hbond>
0.0000

> <Gold.Chemscore.DEClash>
0.0660

> <Gold.Chemscore.DEInternal>
2.3863

> <Gold.Chemscore.Rot>
1.7604

> <Gold.Chemscore.Internal.Correction>
   9.000000E+99

> <Gold.Chemscore.Hbonds>
donor molecule, donor type, donor heavy atom, donor atom, acceptor molecule, acceptor atom, score
      L1  H    15    32       P1 10175  0.96
      L1  H    16    35       P1  7948  1.00

> <Gold.Chemscore.Hbond.Weighted>
-6.6609

> <Gold.Chemscore.Metal.Weighted>
-0.0000

> <Gold.Chemscore.Lipo.Weighted>
-10.4463

> <Gold.Chemscore.Internal_Hbond.Weighted>
0.0000

> <Gold.Chemscore.DEClash.Weighted>
0.0660

> <Gold.Chemscore.DEInternal.Weighted>
2.3863

> <Gold.Chemscore.Rot.Weighted>
4.5065

> <Gold.Chemscore.Internal.Correction.Weighted>
   9.000000E+99

> <Gold.Protein.RotatedTorsions>
[ 6907 6896 6895 6894 ] final  -78.19 input  -60.11 | X-H torsion
[ 7974 7965 7964 7962 ] final  154.95 input  175.53 | X-H torsion
[ 8008 7997 7996 7995 ] final -165.35 input   59.86 | X-H torsion
[ 10167 10162 10161 10158 ] final -142.23 input  -65.29 | X-H torsion
[ 10718 10713 10712 10709 ] final  -87.54 input   66.30 | X-H torsion
[ 10763 10752 10751 10750 ] final -165.86 input  -60.55 | X-H torsion
[ 11005 11000 10999 10996 ] final  -73.66 input  -57.11 | X-H torsion

> <Gold.Protein.ActiveResidues>
 VAL166  LYS551  ARG553  GLY616  TRP617  ASP618  TYR619  PRO620  LYS621  CYS622 
 ASP623  PHE694  ASN695  SER759  ASP760  ASP761  ALA762  ILE779  LEU786  VAL792 
 PHE793  MET794  SER795  GLU796  ALA797  LYS798  CYS799  TRP800  GLU811  SER814 

> <Gold.Protein.RotatedAtoms>
  150.6979  134.4310  159.5247 H   0  0  0  0  0  0  0  0  0  0  0  0  # atno 6907 bound_to 6896
  152.2036  134.8562  160.0514 H   0  0  0  0  0  0  0  0  0  0  0  0  # atno 6908 bound_to 6896
  151.9473  133.3620  159.4024 H   0  0  0  0  0  0  0  0  0  0  0  0  # atno 6909 bound_to 6896
  144.8056  139.7003  143.6163 H   0  0  0  0  0  0  0  0  0  0  0  0  # atno 7974 bound_to 7965
  155.8486  140.0959  157.1689 H   0  0  0  0  0  0  0  0  0  0  0  0  # atno 8008 bound_to 7997
  154.3984  140.1387  156.3878 H   0  0  0  0  0  0  0  0  0  0  0  0  # atno 8009 bound_to 7997
  155.7986  140.3453  155.5392 H   0  0  0  0  0  0  0  0  0  0  0  0  # atno 8010 bound_to 7997
  139.8109  143.7704  152.2663 H   0  0  0  0  0  0  0  0  0  0  0  0  # atno 10167 bound_to 10162
  155.9985  130.4803  150.4883 H   0  0  0  0  0  0  0  0  0  0  0  0  # atno 10718 bound_to 10713
  154.6890  135.2967  154.9506 H   0  0  0  0  0  0  0  0  0  0  0  0  # atno 10763 bound_to 10752
  154.0475  135.6649  153.4800 H   0  0  0  0  0  0  0  0  0  0  0  0  # atno 10764 bound_to 10752
  153.0599  135.5122  154.7973 H   0  0  0  0  0  0  0  0  0  0  0  0  # atno 10765 bound_to 10752
  141.1625  133.6885  156.7246 H   0  0  0  0  0  0  0  0  0  0  0  0  # atno 11005 bound_to 11000
  146.2346  139.5880  142.9532 LP  0  0  0  0  0  0  0  0  0  0  0  0  # atno 17320 bound_to 7965
  145.5447  141.0418  143.2311 LP  0  0  0  0  0  0  0  0  0  0  0  0  # atno 17321 bound_to 7965
  139.7853  144.7430  151.0031 LP  0  0  0  0  0  0  0  0  0  0  0  0  # atno 17342 bound_to 10162
  140.7818  143.4499  151.0428 LP  0  0  0  0  0  0  0  0  0  0  0  0  # atno 17343 bound_to 10162
  157.2881  131.0620  151.2153 LP  0  0  0  0  0  0  0  0  0  0  0  0  # atno 17370 bound_to 10713
  157.3175  130.6920  149.6250 LP  0  0  0  0  0  0  0  0  0  0  0  0  # atno 17371 bound_to 10713
  140.2790  134.8332  157.3916 LP  0  0  0  0  0  0  0  0  0  0  0  0  # atno 17394 bound_to 11000
  140.1450  134.4922  155.8003 LP  0  0  0  0  0  0  0  0  0  0  0  0  # atno 17395 bound_to 11000

$$$$
