AV-unprocessed.smi:837|AV-procd|sdf|3894|dock1
  -GOLD-   22720 1353D 1   1.00000     0.00000
 Structure written by MMmdl.
 49 51  0  0  0  0  0  0  0  0  1 V2000
  137.2871  140.1835  153.6656 C   0  0  0  0  0  0  0  0  0  0  0  0
  138.5428  139.3086  153.4643 C   0  0  2  0  0  0  0  0  0  0  0  0
  138.3002  137.8776  153.9913 C   0  0  0  0  0  0  0  0  0  0  0  0
  139.5023  136.9598  153.7192 C   0  0  0  0  0  0  0  0  0  0  0  0
  140.7953  137.5353  154.3136 C   0  0  0  0  0  0  0  0  0  0  0  0
  141.0578  138.9620  153.7993 C   0  0  0  0  0  0  0  0  0  0  0  0
  139.8632  139.9212  154.0313 C   0  0  1  0  0  0  0  0  0  0  0  0
  140.1465  141.2098  153.4230 N   0  0  0  0  0  0  0  0  0  0  0  0
  140.2038  142.2119  154.3087 C   0  0  0  0  0  0  0  0  0  0  0  0
  140.4159  143.3915  154.0318 O   0  0  0  0  0  0  0  0  0  0  0  0
  139.9805  141.7053  155.5338 N   0  0  0  0  0  0  0  0  0  0  0  0
  139.9115  142.5078  156.7621 C   0  0  0  0  0  0  0  0  0  0  0  0
  141.1735  143.3466  157.0136 C   0  0  0  0  0  0  0  0  0  0  0  0
  142.1427  142.8760  157.6120 O   0  0  0  0  0  0  0  0  0  0  0  0
  141.1394  144.6053  156.5515 N   0  0  0  0  0  0  0  0  0  0  0  0
  142.2197  145.5752  156.6859 C   0  0  0  0  0  0  0  0  0  0  0  0
  142.7403  146.0327  155.3138 C   0  0  0  0  0  0  0  0  0  0  0  0
  143.7635  145.0709  154.7427 C   0  0  0  0  0  0  0  0  0  0  0  0
  144.3620  145.3131  153.4892 C   0  0  0  0  0  0  0  0  0  0  0  0
  145.3105  144.3934  153.0019 C   0  0  0  0  0  0  0  0  0  0  0  0
  145.6215  143.2685  153.7918 C   0  0  0  0  0  0  0  0  0  0  0  0
  145.0549  143.0268  154.9936 N   0  0  0  0  0  0  0  0  0  0  0  0
  144.1456  143.9133  155.4534 C   0  0  0  0  0  0  0  0  0  0  0  0
  139.7683  140.3831  155.4870 C   0  0  0  0  0  0  0  0  0  0  0  0
  139.5212  139.6454  156.4414 O   0  0  0  0  0  0  0  0  0  0  0  0
  137.0340  140.2935  154.7205 H   0  0  0  0  0  0  0  0  0  0  0  0
  136.4231  139.7408  153.1696 H   0  0  0  0  0  0  0  0  0  0  0  0
  137.4194  141.1820  153.2490 H   0  0  0  0  0  0  0  0  0  0  0  0
  138.6777  139.2238  152.3846 H   0  0  0  0  0  0  0  0  0  0  0  0
  138.0866  137.8966  155.0601 H   0  0  0  0  0  0  0  0  0  0  0  0
  137.4144  137.4548  153.5159 H   0  0  0  0  0  0  0  0  0  0  0  0
  139.3134  135.9685  154.1319 H   0  0  0  0  0  0  0  0  0  0  0  0
  139.6233  136.8277  152.6432 H   0  0  0  0  0  0  0  0  0  0  0  0
  140.7338  137.5307  155.4019 H   0  0  0  0  0  0  0  0  0  0  0  0
  141.6367  136.8914  154.0563 H   0  0  0  0  0  0  0  0  0  0  0  0
  141.9603  139.3538  154.2715 H   0  0  0  0  0  0  0  0  0  0  0  0
  141.2781  138.9151  152.7318 H   0  0  0  0  0  0  0  0  0  0  0  0
  140.2731  141.3259  152.4281 H   0  0  0  0  0  0  0  0  0  0  0  0
  139.0464  143.1722  156.7219 H   0  0  0  0  0  0  0  0  0  0  0  0
  139.7473  141.8597  157.6246 H   0  0  0  0  0  0  0  0  0  0  0  0
  140.3054  144.9137  156.0726 H   0  0  0  0  0  0  0  0  0  0  0  0
  141.8831  146.4317  157.2730 H   0  0  0  0  0  0  0  0  0  0  0  0
  143.0252  145.1077  157.2530 H   0  0  0  0  0  0  0  0  0  0  0  0
  141.9115  146.1274  154.6109 H   0  0  0  0  0  0  0  0  0  0  0  0
  143.1928  147.0225  155.3903 H   0  0  0  0  0  0  0  0  0  0  0  0
  144.1016  146.1878  152.9113 H   0  0  0  0  0  0  0  0  0  0  0  0
  145.7890  144.5469  152.0460 H   0  0  0  0  0  0  0  0  0  0  0  0
  146.3451  142.5438  153.4492 H   0  0  0  0  0  0  0  0  0  0  0  0
  143.7128  143.6931  156.4181 H   0  0  0  0  0  0  0  0  0  0  0  0
  1  2  1  0  0  0  0
  1 26  1  0  0  0  0
  1 27  1  0  0  0  0
  1 28  1  0  0  0  0
  2  7  1  0  0  0  0
  2  3  1  0  0  0  0
  2 29  1  0  0  0  0
  3  4  1  0  0  0  0
  3 30  1  0  0  0  0
  3 31  1  0  0  0  0
  4  5  1  0  0  0  0
  4 32  1  0  0  0  0
  4 33  1  0  0  0  0
  5  6  1  0  0  0  0
  5 34  1  0  0  0  0
  5 35  1  0  0  0  0
  6  7  1  0  0  0  0
  6 36  1  0  0  0  0
  6 37  1  0  0  0  0
  7 24  1  0  0  0  0
  7  8  1  0  0  0  0
  8  9  1  0  0  0  0
  8 38  1  0  0  0  0
  9 10  2  0  0  0  0
  9 11  1  0  0  0  0
 11 12  1  0  0  0  0
 11 24  1  0  0  0  0
 12 13  1  0  0  0  0
 12 39  1  0  0  0  0
 12 40  1  0  0  0  0
 13 14  2  0  0  0  0
 13 15  1  0  0  0  0
 15 16  1  0  0  0  0
 15 41  1  0  0  0  0
 16 17  1  0  0  0  0
 16 42  1  0  0  0  0
 16 43  1  0  0  0  0
 17 18  1  0  0  0  0
 17 44  1  0  0  0  0
 17 45  1  0  0  0  0
 18 23  1  0  0  0  0
 18 19  2  0  0  0  0
 19 20  1  0  0  0  0
 19 46  1  0  0  0  0
 20 21  2  0  0  0  0
 20 47  1  0  0  0  0
 21 22  1  0  0  0  0
 21 48  1  0  0  0  0
 22 23  2  0  0  0  0
 23 49  1  0  0  0  0
 24 25  2  0  0  0  0
M  END
> <s_m_source_file>
AV-unprocessed.smi

> <i_m_source_file_index>
837

> <i_lp_mmshare_version>
43012

> <i_f3d_flags>
0

> <s_epik_input>
W0NIMl0xW0NIMl1bQ0gyXVtDSDJdW0NAQEhdKFtDSDNdKVtDQEBdMTJbTkhdQyg9TylOKEMyPU8pW0NIMl1DKD1PKVtOSF1bQ0gyXVtDSDJdYzNbY0hdW2NIXVtjSF1uW2NIXTM=

> <s_epik_cmdline>
J2VwaWtfcHl0aG9uJywgJy1waCcsICc3LjAnLCAnLXRuJywgJzgnLCAnLW1hJywgJzIwMCcsICctbWV0YWxfYmluZGluZycsICctaW1hZScsICc8aW5maWxlLm1hZT4nLCAnLW9tYWUnLCAnPG91dGZpbGUubWFlPic=

> <r_lp_tautomer_probability>
1

> <r_epik_Ionization_Penalty>
0.0127837

> <r_epik_Ionization_Penalty_Charging>
0

> <r_epik_Ionization_Penalty_Neutral>
0.0127837

> <r_epik_State_Penalty>
0.00987657

> <r_epik_Charging_Adjusted_Penalty>
0.00987657

> <i_epik_Tot_Q>
0

> <i_epik_Tot_abs_Q>
0

> <r_epik_Metal_State_Penalty>
0.0309865

> <b_epik_Metal_Only>
0

> <s_lp_Force_Field>
OPLS_2005

> <r_lp_Energy>
17.4759

> <b_lp_Chiralities_Consistent>
1

> <s_lp_Variant>
AV-unprocessed.smi:837-3

> <Gold.Version>
5.8.1

> <Gold.Id.Protein>
6NUR|6NUR_protein|mol2

> <Gold.PLP.Fitness>
42.5279

> <Gold.PLP.PLP>
-37.6408

> <Gold.PLP.part.hbond>
-3.1485

> <Gold.PLP.part.metal>
0.0000

> <Gold.PLP.part.buried>
-5.4627

> <Gold.PLP.part.nonpolar>
-31.7647

> <Gold.PLP.part.repulsive>
0.8947

> <Gold.PLP.ligand.clash>
0.0000

> <Gold.PLP.ligand.torsion>
0.5175

> <Gold.PLP.Chemscore.Hbond>
1.9600

> <Gold.PLP.Chemscore.CHOScore>
0.0000

> <Gold.PLP.Chemscore.Metal>
0.0000

> <Gold.Chemscore.Hbonds>
donor molecule, donor type, donor heavy atom, donor atom, acceptor molecule, acceptor atom, score
      L1  H     8    38       P1 10160  0.96
      P1  H 10162 10167       L1    10  1.00

> <Gold.PLP.Chemscore.Internal.Correction>
0.0420

> <Gold.Rescore>
     Score         DG    S(hbond)    S(metal)    S(lipo)     H(rot)  DE(clash)    DE(int)     intcor
     17.42     -18.10       1.95        0.00      92.86       1.86       0.17       0.52       ----

> <Gold.Chemscore.Fitness>
17.4180

> <Gold.Chemscore.DG>
-18.1016

> <Gold.Chemscore.ZeroCoef>
-5.4800

> <Gold.Chemscore.Hbond>
1.9481

> <Gold.Chemscore.Metal>
0.0000

> <Gold.Chemscore.Lipo>
92.8594

> <Gold.Chemscore.Internal_Hbond>
0.0000

> <Gold.Chemscore.DEClash>
0.1678

> <Gold.Chemscore.DEInternal>
0.5158

> <Gold.Chemscore.Rot>
1.8553

> <Gold.Chemscore.Internal.Correction>
   9.000000E+99

> <Gold.Chemscore.Hbonds>
donor molecule, donor type, donor heavy atom, donor atom, acceptor molecule, acceptor atom, score
      L1  H     8    38       P1 10160  0.81
      P1  H 10162 10167       L1    10  0.50

> <Gold.Chemscore.Hbond.Weighted>
-6.5068

> <Gold.Chemscore.Metal.Weighted>
-0.0000

> <Gold.Chemscore.Lipo.Weighted>
-10.8646

> <Gold.Chemscore.Internal_Hbond.Weighted>
0.0000

> <Gold.Chemscore.DEClash.Weighted>
0.1678

> <Gold.Chemscore.DEInternal.Weighted>
0.5158

> <Gold.Chemscore.Rot.Weighted>
4.7497

> <Gold.Chemscore.Internal.Correction.Weighted>
   9.000000E+99

> <Gold.Protein.RotatedTorsions>
[ 6907 6896 6895 6894 ] final   65.59 input  -60.11 | X-H torsion
[ 7974 7965 7964 7962 ] final -171.45 input  175.53 | X-H torsion
[ 8008 7997 7996 7995 ] final   -7.64 input   59.86 | X-H torsion
[ 10167 10162 10161 10158 ] final -122.68 input  -65.29 | X-H torsion
[ 10718 10713 10712 10709 ] final -115.35 input   66.30 | X-H torsion
[ 10763 10752 10751 10750 ] final   -7.77 input  -60.55 | X-H torsion
[ 11005 11000 10999 10996 ] final -143.69 input  -57.11 | X-H torsion

> <Gold.Protein.ActiveResidues>
 VAL166  LYS551  ARG553  GLY616  TRP617  ASP618  TYR619  PRO620  LYS621  CYS622 
 ASP623  PHE694  ASN695  SER759  ASP760  ASP761  ALA762  ILE779  LEU786  VAL792 
 PHE793  MET794  SER795  GLU796  ALA797  LYS798  CYS799  TRP800  GLU811  SER814 

> <Gold.Protein.RotatedAtoms>
  152.4419  134.5574  159.9883 H   0  0  0  0  0  0  0  0  0  0  0  0  # atno 6907 bound_to 6896
  151.5669  133.3389  159.2990 H   0  0  0  0  0  0  0  0  0  0  0  0  # atno 6908 bound_to 6896
  150.8327  134.7620  159.6931 H   0  0  0  0  0  0  0  0  0  0  0  0  # atno 6909 bound_to 6896
  144.7157  140.1920  143.6347 H   0  0  0  0  0  0  0  0  0  0  0  0  # atno 7974 bound_to 7965
  154.5818  140.2402  155.8042 H   0  0  0  0  0  0  0  0  0  0  0  0  # atno 8008 bound_to 7997
  156.2185  140.3005  155.9851 H   0  0  0  0  0  0  0  0  0  0  0  0  # atno 8009 bound_to 7997
  155.2527  140.0411  157.2979 H   0  0  0  0  0  0  0  0  0  0  0  0  # atno 8010 bound_to 7997
  140.0116  143.5436  152.2260 H   0  0  0  0  0  0  0  0  0  0  0  0  # atno 10167 bound_to 10162
  156.0890  130.6076  150.8894 H   0  0  0  0  0  0  0  0  0  0  0  0  # atno 10718 bound_to 10713
  153.4311  135.7012  153.6230 H   0  0  0  0  0  0  0  0  0  0  0  0  # atno 10763 bound_to 10752
  153.4645  135.3729  155.2357 H   0  0  0  0  0  0  0  0  0  0  0  0  # atno 10764 bound_to 10752
  154.8725  135.4028  154.3695 H   0  0  0  0  0  0  0  0  0  0  0  0  # atno 10765 bound_to 10752
  140.8100  134.2756  157.4945 H   0  0  0  0  0  0  0  0  0  0  0  0  # atno 11005 bound_to 11000
  145.8760  139.2297  143.1633 LP  0  0  0  0  0  0  0  0  0  0  0  0  # atno 17320 bound_to 7965
  146.0040  140.8495  143.0004 LP  0  0  0  0  0  0  0  0  0  0  0  0  # atno 17321 bound_to 7965
  139.6201  144.7627  151.2759 LP  0  0  0  0  0  0  0  0  0  0  0  0  # atno 17342 bound_to 10162
  140.7379  143.6664  150.8119 LP  0  0  0  0  0  0  0  0  0  0  0  0  # atno 17343 bound_to 10162
  157.6033  131.0940  150.8922 LP  0  0  0  0  0  0  0  0  0  0  0  0  # atno 17370 bound_to 10713
  156.9075  130.5269  149.5281 LP  0  0  0  0  0  0  0  0  0  0  0  0  # atno 17371 bound_to 10713
  139.8715  134.9477  156.3976 LP  0  0  0  0  0  0  0  0  0  0  0  0  # atno 17394 bound_to 11000
  140.9208  133.7646  155.9904 LP  0  0  0  0  0  0  0  0  0  0  0  0  # atno 17395 bound_to 11000

$$$$
