AV-unprocessed.smi:304|AV-procd|sdf|2277|dock6
  -GOLD-   2262022173D 1   1.00000     0.00000
 Structure written by MMmdl.
 36 38  0  0  0  0  0  0  0  0  1 V2000
  153.8035  138.9760  155.0692 O   0  0  0  0  0  0  0  0  0  0  0  0
  152.5253  138.8189  155.6535 C   0  0  1  0  0  0  0  0  0  0  0  0
  151.6041  138.1396  154.6282 C   0  0  0  0  0  0  0  0  0  0  0  0
  150.6910  139.0981  154.1206 O   0  0  0  0  0  0  0  0  0  0  0  0
  149.3373  138.7099  154.2925 C   0  0  0  0  0  0  0  0  0  0  0  0
  148.4870  139.9293  154.1292 C   0  0  0  0  0  0  0  0  0  0  0  0
  147.2531  139.9998  153.5340 C   0  0  0  0  0  0  0  0  0  0  0  0
  146.6903  141.3099  153.5555 C   0  0  0  0  0  0  0  0  0  0  0  0
  147.4988  142.2247  154.1756 C   0  0  0  0  0  0  0  0  0  0  0  0
  148.9716  141.4916  154.7484 S   0  0  0  0  0  0  0  0  0  0  0  0
  152.6610  137.9862  156.9431 C   0  0  0  0  0  0  0  0  0  0  0  0
  153.0977  138.7809  158.0777 N   0  0  0  0  0  0  0  0  0  0  0  0
  153.9515  138.4033  159.0483 C   0  0  0  0  0  0  0  0  0  0  0  0
  154.2218  139.2904  160.0015 N   0  0  0  0  0  0  0  0  0  0  0  0
  153.4530  140.3708  159.6040 C   0  0  0  0  0  0  0  0  0  0  0  0
  153.2909  141.6457  160.1914 C   0  0  0  0  0  0  0  0  0  0  0  0
  152.4403  142.6025  159.5995 C   0  0  0  0  0  0  0  0  0  0  0  0
  152.2966  143.8196  160.1755 F   0  0  0  0  0  0  0  0  0  0  0  0
  151.7395  142.2990  158.4134 C   0  0  0  0  0  0  0  0  0  0  0  0
  150.9240  143.2233  157.8527 F   0  0  0  0  0  0  0  0  0  0  0  0
  151.8855  141.0353  157.8097 C   0  0  0  0  0  0  0  0  0  0  0  0
  152.7363  140.0842  158.4028 C   0  0  0  0  0  0  0  0  0  0  0  0
  154.3149  138.2043  155.2606 H   0  0  0  0  0  0  0  0  0  0  0  0
  152.1285  139.8030  155.9069 H   0  0  0  0  0  0  0  0  0  0  0  0
  152.1810  137.6733  153.8274 H   0  0  0  0  0  0  0  0  0  0  0  0
  151.0311  137.3491  155.1157 H   0  0  0  0  0  0  0  0  0  0  0  0
  149.0627  137.9549  153.5542 H   0  0  0  0  0  0  0  0  0  0  0  0
  149.1853  138.2815  155.2840 H   0  0  0  0  0  0  0  0  0  0  0  0
  146.7388  139.1624  153.0858 H   0  0  0  0  0  0  0  0  0  0  0  0
  145.7253  141.5311  153.1241 H   0  0  0  0  0  0  0  0  0  0  0  0
  147.3192  143.2780  154.3331 H   0  0  0  0  0  0  0  0  0  0  0  0
  151.7033  137.5306  157.1988 H   0  0  0  0  0  0  0  0  0  0  0  0
  153.3651  137.1660  156.7971 H   0  0  0  0  0  0  0  0  0  0  0  0
  154.3998  137.4204  159.0549 H   0  0  0  0  0  0  0  0  0  0  0  0
  153.8213  141.8887  161.1000 H   0  0  0  0  0  0  0  0  0  0  0  0
  151.3478  140.7996  156.9035 H   0  0  0  0  0  0  0  0  0  0  0  0
  1  2  1  0  0  0  0
  1 23  1  0  0  0  0
  2  3  1  0  0  0  0
  2 11  1  0  0  0  0
  2 24  1  0  0  0  0
  3  4  1  0  0  0  0
  3 25  1  0  0  0  0
  3 26  1  0  0  0  0
  4  5  1  0  0  0  0
  5  6  1  0  0  0  0
  5 27  1  0  0  0  0
  5 28  1  0  0  0  0
  6 10  1  0  0  0  0
  6  7  2  0  0  0  0
  7  8  1  0  0  0  0
  7 29  1  0  0  0  0
  8  9  2  0  0  0  0
  8 30  1  0  0  0  0
  9 10  1  0  0  0  0
  9 31  1  0  0  0  0
 11 12  1  0  0  0  0
 11 32  1  0  0  0  0
 11 33  1  0  0  0  0
 12 22  1  0  0  0  0
 12 13  1  0  0  0  0
 13 14  2  0  0  0  0
 13 34  1  0  0  0  0
 14 15  1  0  0  0  0
 15 22  2  0  0  0  0
 15 16  1  0  0  0  0
 16 17  2  0  0  0  0
 16 35  1  0  0  0  0
 17 18  1  0  0  0  0
 17 19  1  0  0  0  0
 19 20  1  0  0  0  0
 19 21  2  0  0  0  0
 21 22  1  0  0  0  0
 21 36  1  0  0  0  0
M  END
> <s_m_source_file>
AV-unprocessed.smi

> <i_m_source_file_index>
304

> <i_lp_mmshare_version>
43012

> <i_f3d_flags>
0

> <s_epik_input>
W2NIXTFjKEYpYyhGKVtjSF1jKGMxMiluKFtjSF1uMilbQ0gyXVtDQEhdKFtPSF0pW0NIMl1PW0NIMl1jM1tjSF1bY0hdW2NIXXMz

> <s_epik_cmdline>
J2VwaWtfcHl0aG9uJywgJy1waCcsICc3LjAnLCAnLXRuJywgJzgnLCAnLW1hJywgJzIwMCcsICctbWV0YWxfYmluZGluZycsICctaW1hZScsICc8aW5maWxlLm1hZT4nLCAnLW9tYWUnLCAnPG91dGZpbGUubWFlPic=

> <r_epik_Ionization_Penalty>
0.0152118

> <r_epik_Ionization_Penalty_Charging>
0

> <r_epik_Ionization_Penalty_Neutral>
0.0152118

> <r_epik_State_Penalty>
0.0119413

> <r_epik_Charging_Adjusted_Penalty>
0.0119413

> <i_epik_Tot_Q>
0

> <i_epik_Tot_abs_Q>
0

> <r_epik_Metal_State_Penalty>
1.20623e-05

> <b_epik_Metal_Only>
0

> <s_lp_Force_Field>
OPLS_2005

> <r_lp_Energy>
8.44111

> <b_lp_Chiralities_Consistent>
1

> <s_lp_Variant>
AV-unprocessed.smi:304-2

> <Gold.Version>
5.8.1

> <Gold.Id.Protein>
6NUR|6NUR_protein|mol2

> <Gold.PLP.Fitness>
50.2706

> <Gold.PLP.PLP>
-45.6145

> <Gold.PLP.part.hbond>
-1.8247

> <Gold.PLP.part.metal>
0.0000

> <Gold.PLP.part.buried>
-1.1866

> <Gold.PLP.part.nonpolar>
-41.3232

> <Gold.PLP.part.repulsive>
0.1983

> <Gold.PLP.ligand.clash>
0.0000

> <Gold.PLP.ligand.torsion>
1.9346

> <Gold.PLP.Chemscore.Hbond>
1.9033

> <Gold.PLP.Chemscore.CHOScore>
0.8833

> <Gold.PLP.Chemscore.Metal>
0.0000

> <Gold.Chemscore.Hbonds>
donor molecule, donor type, donor heavy atom, donor atom, acceptor molecule, acceptor atom, score
      P1  H  7989  7998       L1     4  0.84
      P1  H  7997  8008       L1     1  0.93
      L1  C     9    31       P1  8028  0.88

> <Gold.PLP.Chemscore.Internal.Correction>
0.1656

> <Gold.Rescore>
     Score         DG    S(hbond)    S(metal)    S(lipo)     H(rot)  DE(clash)    DE(int)     intcor
     13.53     -15.45       0.94        0.00     116.19       2.64       0.29       1.63       ----

> <Gold.Chemscore.Fitness>
13.5343

> <Gold.Chemscore.DG>
-15.4506

> <Gold.Chemscore.ZeroCoef>
-5.4800

> <Gold.Chemscore.Hbond>
0.9387

> <Gold.Chemscore.Metal>
0.0000

> <Gold.Chemscore.Lipo>
116.1929

> <Gold.Chemscore.Internal_Hbond>
0.0000

> <Gold.Chemscore.DEClash>
0.2873

> <Gold.Chemscore.DEInternal>
1.6290

> <Gold.Chemscore.Rot>
2.6403

> <Gold.Chemscore.Internal.Correction>
   9.000000E+99

> <Gold.Chemscore.Hbonds>
donor molecule, donor type, donor heavy atom, donor atom, acceptor molecule, acceptor atom, score
      P1  H  7989  7998       L1     4  0.71
      P1  H  7997  8008       L1     1  0.32

> <Gold.Chemscore.Hbond.Weighted>
-3.1352

> <Gold.Chemscore.Metal.Weighted>
-0.0000

> <Gold.Chemscore.Lipo.Weighted>
-13.5946

> <Gold.Chemscore.Internal_Hbond.Weighted>
0.0000

> <Gold.Chemscore.DEClash.Weighted>
0.2873

> <Gold.Chemscore.DEInternal.Weighted>
1.6290

> <Gold.Chemscore.Rot.Weighted>
6.7592

> <Gold.Chemscore.Internal.Correction.Weighted>
   9.000000E+99

> <Gold.Protein.RotatedTorsions>
[ 6907 6896 6895 6894 ] final  -44.35 input  -60.11 | X-H torsion
[ 7974 7965 7964 7962 ] final  -82.91 input  175.53 | X-H torsion
[ 8008 7997 7996 7995 ] final   -9.82 input   59.86 | X-H torsion
[ 10167 10162 10161 10158 ] final   30.96 input  -65.29 | X-H torsion
[ 10718 10713 10712 10709 ] final  156.05 input   66.30 | X-H torsion
[ 10763 10752 10751 10750 ] final   74.25 input  -60.55 | X-H torsion
[ 11005 11000 10999 10996 ] final  -24.92 input  -57.11 | X-H torsion

> <Gold.Protein.ActiveResidues>
 VAL166  LYS551  ARG553  GLY616  TRP617  ASP618  TYR619  PRO620  LYS621  CYS622 
 ASP623  PHE694  ASN695  SER759  ASP760  ASP761  ALA762  ILE779  LEU786  VAL792 
 PHE793  MET794  SER795  GLU796  ALA797  LYS798  CYS799  TRP800  GLU811  SER814 

> <Gold.Protein.RotatedAtoms>
  150.9338  134.8752  159.7568 H   0  0  0  0  0  0  0  0  0  0  0  0  # atno 6907 bound_to 6896
  152.5050  134.4040  159.9436 H   0  0  0  0  0  0  0  0  0  0  0  0  # atno 6908 bound_to 6896
  151.4065  133.3701  159.2773 H   0  0  0  0  0  0  0  0  0  0  0  0  # atno 6909 bound_to 6896
  145.5270  140.9525  143.1624 H   0  0  0  0  0  0  0  0  0  0  0  0  # atno 7974 bound_to 7965
  154.5611  140.2345  155.8334 H   0  0  0  0  0  0  0  0  0  0  0  0  # atno 8008 bound_to 7997
  156.2030  140.3047  155.9526 H   0  0  0  0  0  0  0  0  0  0  0  0  # atno 8009 bound_to 7997
  155.2887  140.0425  157.3012 H   0  0  0  0  0  0  0  0  0  0  0  0  # atno 8010 bound_to 7997
  140.4631  144.0876  150.6218 H   0  0  0  0  0  0  0  0  0  0  0  0  # atno 10167 bound_to 10162
  157.2102  131.0696  151.1974 H   0  0  0  0  0  0  0  0  0  0  0  0  # atno 10718 bound_to 10713
  153.0575  135.5032  154.8015 H   0  0  0  0  0  0  0  0  0  0  0  0  # atno 10763 bound_to 10752
  154.6830  135.2971  154.9589 H   0  0  0  0  0  0  0  0  0  0  0  0  # atno 10764 bound_to 10752
  154.0369  135.6722  153.4839 H   0  0  0  0  0  0  0  0  0  0  0  0  # atno 10765 bound_to 10752
  140.8890  133.7601  156.0397 H   0  0  0  0  0  0  0  0  0  0  0  0  # atno 11005 bound_to 11000
  144.7645  139.6877  143.7220 LP  0  0  0  0  0  0  0  0  0  0  0  0  # atno 17320 bound_to 7965
  146.2069  139.5399  142.9707 LP  0  0  0  0  0  0  0  0  0  0  0  0  # atno 17321 bound_to 7965
  140.4069  143.2676  151.9880 LP  0  0  0  0  0  0  0  0  0  0  0  0  # atno 17342 bound_to 10162
  139.4808  144.5949  151.7707 LP  0  0  0  0  0  0  0  0  0  0  0  0  # atno 17343 bound_to 10162
  157.3680  130.7166  149.6546 LP  0  0  0  0  0  0  0  0  0  0  0  0  # atno 17370 bound_to 10713
  155.9691  130.4207  150.4433 LP  0  0  0  0  0  0  0  0  0  0  0  0  # atno 17371 bound_to 10713
  140.8370  134.3112  157.5328 LP  0  0  0  0  0  0  0  0  0  0  0  0  # atno 17394 bound_to 11000
  139.8727  134.9395  156.3743 LP  0  0  0  0  0  0  0  0  0  0  0  0  # atno 17395 bound_to 11000

$$$$
