AV-unprocessed.smi:2090|AV-procd|sdf|8537|dock3
  -GOLD-   2272011253D 1   1.00000     0.00000
 Structure written by MMmdl.
 41 42  0  0  0  0  0  0  0  0  3 V2000
  152.0228  145.4997  159.7814 C   0  0  0  0  0  0  0  0  0  0  0  0
  151.8168  144.2649  158.9727 C   0  0  0  0  0  0  0  0  0  0  0  0
  151.2907  144.0450  157.7312 C   0  0  0  0  0  0  0  0  0  0  0  0
  151.3971  142.6364  157.5818 C   0  0  0  0  0  0  0  0  0  0  0  0
  150.9481  141.9986  156.3951 N   0  0  0  0  0  0  0  0  0  0  0  0
  151.2834  140.7892  155.9098 C   0  0  0  0  0  0  0  0  0  0  0  0
  152.0834  140.0700  156.5203 O   0  0  0  0  0  0  0  0  0  0  0  0
  150.6545  140.5130  154.7335 N   0  5  0  0  0  0  0  0  0  0  0  0
  149.7895  139.3572  154.5022 C   0  0  0  0  0  0  0  0  0  0  0  0
  150.5734  138.0478  154.7274 C   0  0  0  0  0  0  0  0  0  0  0  0
  149.6970  136.8522  154.6123 N   0  3  2  0  0  0  0  0  0  0  0  0
  148.3744  137.0200  155.2765 C   0  0  0  0  0  0  0  0  0  0  0  0
  147.4542  135.8197  154.9920 C   0  0  0  0  0  0  0  0  0  0  0  0
  148.0984  134.4827  155.4025 C   0  0  2  0  0  0  0  0  0  0  0  0
  148.1234  134.2771  156.9273 C   0  0  0  0  0  0  0  0  0  0  0  0
  149.4946  134.3685  154.7636 C   0  0  0  0  0  0  0  0  0  0  0  0
  150.3705  135.6017  155.0493 C   0  0  0  0  0  0  0  0  0  0  0  0
  151.9414  142.0502  158.6380 N   0  0  0  0  0  0  0  0  0  0  0  0
  152.2119  143.0905  159.5348 O   0  0  0  0  0  0  0  0  0  0  0  0
  152.1488  146.3692  159.1362 H   0  0  0  0  0  0  0  0  0  0  0  0
  152.9115  145.4127  160.4068 H   0  0  0  0  0  0  0  0  0  0  0  0
  151.1670  145.6815  160.4318 H   0  0  0  0  0  0  0  0  0  0  0  0
  150.8928  144.7753  157.0424 H   0  0  0  0  0  0  0  0  0  0  0  0
  150.2861  142.5231  155.8428 H   0  0  0  0  0  0  0  0  0  0  0  0
  148.9112  139.3670  155.1488 H   0  0  0  0  0  0  0  0  0  0  0  0
  149.3974  139.3586  153.4850 H   0  0  0  0  0  0  0  0  0  0  0  0
  151.3688  137.9994  153.9817 H   0  0  0  0  0  0  0  0  0  0  0  0
  151.0739  138.0477  155.6972 H   0  0  0  0  0  0  0  0  0  0  0  0
  148.5165  137.1456  156.3507 H   0  0  0  0  0  0  0  0  0  0  0  0
  147.8897  137.9298  154.9213 H   0  0  0  0  0  0  0  0  0  0  0  0
  146.4985  135.9522  155.5005 H   0  0  0  0  0  0  0  0  0  0  0  0
  147.2274  135.7944  153.9252 H   0  0  0  0  0  0  0  0  0  0  0  0
  147.4824  133.6807  154.9939 H   0  0  0  0  0  0  0  0  0  0  0  0
  148.7197  135.0342  157.4360 H   0  0  0  0  0  0  0  0  0  0  0  0
  148.5416  133.3030  157.1825 H   0  0  0  0  0  0  0  0  0  0  0  0
  147.1160  134.3178  157.3425 H   0  0  0  0  0  0  0  0  0  0  0  0
  149.9962  133.4642  155.1098 H   0  0  0  0  0  0  0  0  0  0  0  0
  149.3845  134.2576  153.6838 H   0  0  0  0  0  0  0  0  0  0  0  0
  151.3165  135.4915  154.5179 H   0  0  0  0  0  0  0  0  0  0  0  0
  150.6120  135.6666  156.1111 H   0  0  0  0  0  0  0  0  0  0  0  0
  149.5177  136.7414  153.6245 H   0  0  0  0  0  0  0  0  0  0  0  0
  1  2  1  0  0  0  0
  1 20  1  0  0  0  0
  1 21  1  0  0  0  0
  1 22  1  0  0  0  0
  2 19  1  0  0  0  0
  2  3  2  0  0  0  0
  3  4  1  0  0  0  0
  3 23  1  0  0  0  0
  4  5  1  0  0  0  0
  4 18  2  0  0  0  0
  5  6  1  0  0  0  0
  5 24  1  0  0  0  0
  6  7  2  0  0  0  0
  6  8  1  0  0  0  0
  8  9  1  0  0  0  0
  9 10  1  0  0  0  0
  9 25  1  0  0  0  0
  9 26  1  0  0  0  0
 10 11  1  0  0  0  0
 10 27  1  0  0  0  0
 10 28  1  0  0  0  0
 11 17  1  0  0  0  0
 11 12  1  0  0  0  0
 11 41  1  0  0  0  0
 12 13  1  0  0  0  0
 12 29  1  0  0  0  0
 12 30  1  0  0  0  0
 13 14  1  0  0  0  0
 13 31  1  0  0  0  0
 13 32  1  0  0  0  0
 14 15  1  0  0  0  0
 14 16  1  0  0  0  0
 14 33  1  0  0  0  0
 15 34  1  0  0  0  0
 15 35  1  0  0  0  0
 15 36  1  0  0  0  0
 16 17  1  0  0  0  0
 16 37  1  0  0  0  0
 16 38  1  0  0  0  0
 17 39  1  0  0  0  0
 17 40  1  0  0  0  0
 18 19  1  0  0  0  0
M  CHG  1   8  -1
M  CHG  1  11   1
M  END
> <s_m_source_file>
AV-unprocessed.smi

> <i_m_source_file_index>
2090

> <i_lp_mmshare_version>
43012

> <i_f3d_flags>
0

> <s_epik_input>
W0NIM11jMVtjSF1jKG5vMSlbTkhdQyg9TylbTkhdW0NIMl1bQ0gyXU4yW0NIMl1bQ0gyXVtDSF0oW0NIM10pW0NIMl1bQ0gyXTI=

> <s_epik_cmdline>
J2VwaWtfcHl0aG9uJywgJy1waCcsICc3LjAnLCAnLXRuJywgJzgnLCAnLW1hJywgJzIwMCcsICctbWV0YWxfYmluZGluZycsICctaW1hZScsICc8aW5maWxlLm1hZT4nLCAnLW9tYWUnLCAnPG91dGZpbGUubWFlPic=

> <r_epik_Ionization_Penalty>
6.7721

> <r_epik_Ionization_Penalty_Charging>
6.7721

> <r_epik_Ionization_Penalty_Neutral>
5.78572e-06

> <r_epik_State_Penalty>
6.79704

> <r_epik_Charging_Adjusted_Penalty>
13.5691

> <i_epik_Tot_Q>
0

> <i_epik_Tot_abs_Q>
2

> <r_epik_Metal_State_Penalty>
2.73105

> <b_epik_Metal_Only>
1

> <s_lp_Force_Field>
OPLS_2005

> <r_lp_Energy>
13.6419

> <b_lp_Chiralities_Consistent>
1

> <s_lp_Variant>
AV-unprocessed.smi:2090-6

> <Gold.Version>
5.8.1

> <Gold.Id.Protein>
6NUR|6NUR_protein|mol2

> <Gold.PLP.Fitness>
43.1845

> <Gold.PLP.PLP>
-33.1638

> <Gold.PLP.part.hbond>
-2.8084

> <Gold.PLP.part.metal>
0.0000

> <Gold.PLP.part.buried>
-3.5844

> <Gold.PLP.part.nonpolar>
-25.6549

> <Gold.PLP.part.repulsive>
0.2396

> <Gold.PLP.ligand.clash>
0.0000

> <Gold.PLP.ligand.torsion>
0.7346

> <Gold.PLP.Chemscore.Hbond>
3.7963

> <Gold.PLP.Chemscore.CHOScore>
0.0000

> <Gold.PLP.Chemscore.Metal>
0.0000

> <Gold.Chemscore.Hbonds>
donor molecule, donor type, donor heavy atom, donor atom, acceptor molecule, acceptor atom, score
      L1  H    11    41       P1  7948  2.00
      P1  H  7989  7998       L1     8  1.00
      P1  H  7997  8008       L1     7  0.44

> <Gold.PLP.Chemscore.Internal.Correction>
0.1012

> <Gold.Rescore>
     Score         DG    S(hbond)    S(metal)    S(lipo)     H(rot)  DE(clash)    DE(int)     intcor
     15.04     -17.03       2.12        0.00      71.90       1.54       0.07       1.93       ----

> <Gold.Chemscore.Fitness>
15.0353

> <Gold.Chemscore.DG>
-17.0340

> <Gold.Chemscore.ZeroCoef>
-5.4800

> <Gold.Chemscore.Hbond>
2.1217

> <Gold.Chemscore.Metal>
0.0000

> <Gold.Chemscore.Lipo>
71.8971

> <Gold.Chemscore.Internal_Hbond>
0.0000

> <Gold.Chemscore.DEClash>
0.0724

> <Gold.Chemscore.DEInternal>
1.9263

> <Gold.Chemscore.Rot>
1.5409

> <Gold.Chemscore.Internal.Correction>
   9.000000E+99

> <Gold.Chemscore.Hbonds>
donor molecule, donor type, donor heavy atom, donor atom, acceptor molecule, acceptor atom, score
      L1  H    11    41       P1  7948  0.82
      P1  H  7989  7998       L1     8  0.64
      P1  H  7997  8008       L1     7  0.43

> <Gold.Chemscore.Hbond.Weighted>
-7.0866

> <Gold.Chemscore.Metal.Weighted>
-0.0000

> <Gold.Chemscore.Lipo.Weighted>
-8.4120

> <Gold.Chemscore.Internal_Hbond.Weighted>
0.0000

> <Gold.Chemscore.DEClash.Weighted>
0.0724

> <Gold.Chemscore.DEInternal.Weighted>
1.9263

> <Gold.Chemscore.Rot.Weighted>
3.9446

> <Gold.Chemscore.Internal.Correction.Weighted>
   9.000000E+99

> <Gold.Protein.RotatedTorsions>
[ 6907 6896 6895 6894 ] final  -30.56 input  -60.11 | X-H torsion
[ 7974 7965 7964 7962 ] final  136.72 input  175.53 | X-H torsion
[ 8008 7997 7996 7995 ] final  -43.41 input   59.86 | X-H torsion
[ 10167 10162 10161 10158 ] final   51.41 input  -65.29 | X-H torsion
[ 10718 10713 10712 10709 ] final   33.26 input   66.30 | X-H torsion
[ 10763 10752 10751 10750 ] final  146.60 input  -60.55 | X-H torsion
[ 11005 11000 10999 10996 ] final   18.76 input  -57.11 | X-H torsion

> <Gold.Protein.ActiveResidues>
 VAL166  LYS551  ARG553  GLY616  TRP617  ASP618  TYR619  PRO620  LYS621  CYS622 
 ASP623  PHE694  ASN695  SER759  ASP760  ASP761  ALA762  ILE779  LEU786  VAL792 
 PHE793  MET794  SER795  GLU796  ALA797  LYS798  CYS799  TRP800  GLU811  SER814 

> <Gold.Protein.RotatedAtoms>
  151.1039  134.9988  159.8461 H   0  0  0  0  0  0  0  0  0  0  0  0  # atno 6907 bound_to 6896
  152.5439  134.1917  159.8686 H   0  0  0  0  0  0  0  0  0  0  0  0  # atno 6908 bound_to 6896
  151.1962  133.4593  159.2629 H   0  0  0  0  0  0  0  0  0  0  0  0  # atno 6909 bound_to 6896
  144.9537  139.4789  143.5513 H   0  0  0  0  0  0  0  0  0  0  0  0  # atno 7974 bound_to 7965
  154.3997  140.1448  156.3514 H   0  0  0  0  0  0  0  0  0  0  0  0  # atno 8008 bound_to 7997
  155.8265  140.3467  155.5525 H   0  0  0  0  0  0  0  0  0  0  0  0  # atno 8009 bound_to 7997
  155.8233  140.0901  157.1827 H   0  0  0  0  0  0  0  0  0  0  0  0  # atno 8010 bound_to 7997
  140.2622  144.3360  150.6315 H   0  0  0  0  0  0  0  0  0  0  0  0  # atno 10167 bound_to 10162
  157.2957  130.7325  149.6636 H   0  0  0  0  0  0  0  0  0  0  0  0  # atno 10718 bound_to 10713
  154.0245  135.2903  155.3376 H   0  0  0  0  0  0  0  0  0  0  0  0  # atno 10763 bound_to 10752
  154.7026  135.5182  153.8551 H   0  0  0  0  0  0  0  0  0  0  0  0  # atno 10764 bound_to 10752
  153.0667  135.6633  154.0464 H   0  0  0  0  0  0  0  0  0  0  0  0  # atno 10765 bound_to 10752
  140.4212  134.1517  155.7673 H   0  0  0  0  0  0  0  0  0  0  0  0  # atno 11005 bound_to 11000
  146.3330  139.8640  142.8851 LP  0  0  0  0  0  0  0  0  0  0  0  0  # atno 17320 bound_to 7965
  145.2805  141.0137  143.3720 LP  0  0  0  0  0  0  0  0  0  0  0  0  # atno 17321 bound_to 7965
  140.5957  143.2167  151.7169 LP  0  0  0  0  0  0  0  0  0  0  0  0  # atno 17342 bound_to 10162
  139.5013  144.3871  152.0318 LP  0  0  0  0  0  0  0  0  0  0  0  0  # atno 17343 bound_to 10162
  155.9669  130.4295  150.4836 LP  0  0  0  0  0  0  0  0  0  0  0  0  # atno 17370 bound_to 10713
  157.2807  131.0606  151.2199 LP  0  0  0  0  0  0  0  0  0  0  0  0  # atno 17371 bound_to 10713
  141.1783  133.8467  157.1345 LP  0  0  0  0  0  0  0  0  0  0  0  0  # atno 17394 bound_to 11000
  140.0199  134.9950  157.0570 LP  0  0  0  0  0  0  0  0  0  0  0  0  # atno 17395 bound_to 11000

$$$$
