AV-unprocessed.smi:2633|AV-procd|sdf|10252|dock3
  -GOLD-   2272014263D 1   1.00000     0.00000
 Structure written by MMmdl.
 35 37  0  0  0  0  0  0  0  0  1 V2000
  152.1637  137.0756  153.8200 O   0  0  0  0  0  0  0  0  0  0  0  0
  151.9586  138.3693  154.3478 C   0  0  0  0  0  0  0  0  0  0  0  0
  150.7672  138.3968  155.3204 C   0  0  0  0  0  0  0  0  0  0  0  0
  150.1204  139.7015  155.3735 N   0  0  0  0  0  0  0  0  0  0  0  0
  150.4653  140.7955  156.1022 C   0  0  0  0  0  0  0  0  0  0  0  0
  151.6555  140.8077  157.0230 C   0  0  0  0  0  0  0  0  0  0  0  0
  151.7787  142.0821  157.8413 C   0  0  0  0  0  0  0  0  0  0  0  0
  152.0779  142.0095  159.2182 C   0  0  0  0  0  0  0  0  0  0  0  0
  152.1979  143.1886  159.9791 C   0  0  0  0  0  0  0  0  0  0  0  0
  152.0193  144.4439  159.3664 C   0  0  0  0  0  0  0  0  0  0  0  0
  151.7202  144.5201  157.9922 C   0  0  0  0  0  0  0  0  0  0  0  0
  151.5997  143.3413  157.2305 C   0  0  0  0  0  0  0  0  0  0  0  0
  149.6646  141.8549  155.9598 N   0  0  0  0  0  0  0  0  0  0  0  0
  148.7294  141.4155  155.0453 C   0  0  0  0  0  0  0  0  0  0  0  0
  147.6182  142.0786  154.4771 C   0  0  0  0  0  0  0  0  0  0  0  0
  146.7901  141.4151  153.5483 C   0  0  0  0  0  0  0  0  0  0  0  0
  147.0600  140.0821  153.1762 C   0  0  0  0  0  0  0  0  0  0  0  0
  148.1615  139.4033  153.7321 C   0  0  0  0  0  0  0  0  0  0  0  0
  148.9857  140.0709  154.6579 C   0  0  0  0  0  0  0  0  0  0  0  0
  151.7967  137.0442  152.9497 H   0  0  0  0  0  0  0  0  0  0  0  0
  152.8698  138.6927  154.8519 H   0  0  0  0  0  0  0  0  0  0  0  0
  151.7860  139.0613  153.5233 H   0  0  0  0  0  0  0  0  0  0  0  0
  150.0241  137.6642  155.0039 H   0  0  0  0  0  0  0  0  0  0  0  0
  151.0728  138.0918  156.3209 H   0  0  0  0  0  0  0  0  0  0  0  0
  151.5897  139.9453  157.6870 H   0  0  0  0  0  0  0  0  0  0  0  0
  152.5783  140.6939  156.4562 H   0  0  0  0  0  0  0  0  0  0  0  0
  152.2195  141.0490  159.6922 H   0  0  0  0  0  0  0  0  0  0  0  0
  152.4288  143.1300  161.0326 H   0  0  0  0  0  0  0  0  0  0  0  0
  152.1130  145.3481  159.9498 H   0  0  0  0  0  0  0  0  0  0  0  0
  151.5851  145.4826  157.5214 H   0  0  0  0  0  0  0  0  0  0  0  0
  151.3750  143.4070  156.1761 H   0  0  0  0  0  0  0  0  0  0  0  0
  147.4037  143.0996  154.7562 H   0  0  0  0  0  0  0  0  0  0  0  0
  145.9439  141.9318  153.1194 H   0  0  0  0  0  0  0  0  0  0  0  0
  146.4208  139.5813  152.4639 H   0  0  0  0  0  0  0  0  0  0  0  0
  148.3714  138.3825  153.4495 H   0  0  0  0  0  0  0  0  0  0  0  0
  1  2  1  0  0  0  0
  1 20  1  0  0  0  0
  2  3  1  0  0  0  0
  2 21  1  0  0  0  0
  2 22  1  0  0  0  0
  3  4  1  0  0  0  0
  3 23  1  0  0  0  0
  3 24  1  0  0  0  0
  4 19  1  0  0  0  0
  4  5  1  0  0  0  0
  5  6  1  0  0  0  0
  5 13  2  0  0  0  0
  6  7  1  0  0  0  0
  6 25  1  0  0  0  0
  6 26  1  0  0  0  0
  7 12  1  0  0  0  0
  7  8  2  0  0  0  0
  8  9  1  0  0  0  0
  8 27  1  0  0  0  0
  9 10  2  0  0  0  0
  9 28  1  0  0  0  0
 10 11  1  0  0  0  0
 10 29  1  0  0  0  0
 11 12  2  0  0  0  0
 11 30  1  0  0  0  0
 12 31  1  0  0  0  0
 13 14  1  0  0  0  0
 14 19  2  0  0  0  0
 14 15  1  0  0  0  0
 15 16  2  0  0  0  0
 15 32  1  0  0  0  0
 16 17  1  0  0  0  0
 16 33  1  0  0  0  0
 17 18  2  0  0  0  0
 17 34  1  0  0  0  0
 18 19  1  0  0  0  0
 18 35  1  0  0  0  0
M  END
> <s_m_source_file>
AV-unprocessed.smi

> <i_m_source_file_index>
2633

> <i_lp_mmshare_version>
43012

> <i_f3d_flags>
0

> <s_epik_input>
W2NIXTFbY0hdW2NIXVtjSF1jKGMxMiluKFtDSDJdW0NIMl1bT0hdKWMobjIpW0NIMl1jM1tjSF1bY0hdW2NIXVtjSF1bY0hdMw==

> <s_epik_cmdline>
J2VwaWtfcHl0aG9uJywgJy1waCcsICc3LjAnLCAnLXRuJywgJzgnLCAnLW1hJywgJzIwMCcsICctbWV0YWxfYmluZGluZycsICctaW1hZScsICc8aW5maWxlLm1hZT4nLCAnLW9tYWUnLCAnPG91dGZpbGUubWFlPic=

> <r_epik_Ionization_Penalty>
0.0631471

> <r_epik_Ionization_Penalty_Charging>
0

> <r_epik_Ionization_Penalty_Neutral>
0.0631471

> <r_epik_State_Penalty>
0.0549237

> <r_epik_Charging_Adjusted_Penalty>
0.0549237

> <i_epik_Tot_Q>
0

> <i_epik_Tot_abs_Q>
0

> <r_epik_Metal_State_Penalty>
5.75471e-05

> <b_epik_Metal_Only>
0

> <s_lp_Force_Field>
OPLS_2005

> <r_lp_Energy>
13.1063

> <b_lp_Chiralities_Consistent>
1

> <s_lp_Variant>
AV-unprocessed.smi:2633-1

> <Gold.Version>
5.8.1

> <Gold.Id.Protein>
6NUR|6NUR_protein|mol2

> <Gold.PLP.Fitness>
48.9109

> <Gold.PLP.PLP>
-44.3263

> <Gold.PLP.part.hbond>
-1.9326

> <Gold.PLP.part.metal>
0.0000

> <Gold.PLP.part.buried>
-4.7119

> <Gold.PLP.part.nonpolar>
-38.4462

> <Gold.PLP.part.repulsive>
0.9432

> <Gold.PLP.ligand.clash>
0.0000

> <Gold.PLP.ligand.torsion>
0.7176

> <Gold.PLP.Chemscore.Hbond>
2.0000

> <Gold.PLP.Chemscore.CHOScore>
0.0000

> <Gold.PLP.Chemscore.Metal>
0.0000

> <Gold.Chemscore.Hbonds>
donor molecule, donor type, donor heavy atom, donor atom, acceptor molecule, acceptor atom, score
      L1  H     1    20       P1  7949  0.96
      P1  H 10752 10765       L1     1  1.00

> <Gold.PLP.Chemscore.Internal.Correction>
0.0198

> <Gold.Rescore>
     Score         DG    S(hbond)    S(metal)    S(lipo)     H(rot)  DE(clash)    DE(int)     intcor
     18.10     -21.06       1.76        0.00     125.91       1.96       0.63       2.33       ----

> <Gold.Chemscore.Fitness>
18.1050

> <Gold.Chemscore.DG>
-21.0615

> <Gold.Chemscore.ZeroCoef>
-5.4800

> <Gold.Chemscore.Hbond>
1.7564

> <Gold.Chemscore.Metal>
0.0000

> <Gold.Chemscore.Lipo>
125.9074

> <Gold.Chemscore.Internal_Hbond>
0.0000

> <Gold.Chemscore.DEClash>
0.6301

> <Gold.Chemscore.DEInternal>
2.3264

> <Gold.Chemscore.Rot>
1.9594

> <Gold.Chemscore.Internal.Correction>
   9.000000E+99

> <Gold.Chemscore.Hbonds>
donor molecule, donor type, donor heavy atom, donor atom, acceptor molecule, acceptor atom, score
      L1  H     1    20       P1  7949  0.92
      P1  H 10752 10765       L1     1  0.58

> <Gold.Chemscore.Hbond.Weighted>
-5.8663

> <Gold.Chemscore.Metal.Weighted>
-0.0000

> <Gold.Chemscore.Lipo.Weighted>
-14.7312

> <Gold.Chemscore.Internal_Hbond.Weighted>
0.0000

> <Gold.Chemscore.DEClash.Weighted>
0.6301

> <Gold.Chemscore.DEInternal.Weighted>
2.3264

> <Gold.Chemscore.Rot.Weighted>
5.0160

> <Gold.Chemscore.Internal.Correction.Weighted>
   9.000000E+99

> <Gold.Protein.RotatedTorsions>
[ 6907 6896 6895 6894 ] final   60.72 input  -60.11 | X-H torsion
[ 7974 7965 7964 7962 ] final  -48.68 input  175.53 | X-H torsion
[ 8008 7997 7996 7995 ] final   82.72 input   59.86 | X-H torsion
[ 10167 10162 10161 10158 ] final  146.21 input  -65.29 | X-H torsion
[ 10718 10713 10712 10709 ] final   62.54 input   66.30 | X-H torsion
[ 10763 10752 10751 10750 ] final  145.31 input  -60.55 | X-H torsion
[ 11005 11000 10999 10996 ] final  114.10 input  -57.11 | X-H torsion

> <Gold.Protein.ActiveResidues>
 VAL166  LYS551  ARG553  GLY616  TRP617  ASP618  TYR619  PRO620  LYS621  CYS622 
 ASP623  PHE694  ASN695  SER759  ASP760  ASP761  ALA762  ILE779  LEU786  VAL792 
 PHE793  MET794  SER795  GLU796  ALA797  LYS798  CYS799  TRP800  GLU811  SER814 

> <Gold.Protein.RotatedAtoms>
  152.4027  134.6258  160.0062 H   0  0  0  0  0  0  0  0  0  0  0  0  # atno 6907 bound_to 6896
  151.6459  133.3318  159.3149 H   0  0  0  0  0  0  0  0  0  0  0  0  # atno 6908 bound_to 6896
  150.7926  134.7003  159.6591 H   0  0  0  0  0  0  0  0  0  0  0  0  # atno 6909 bound_to 6896
  145.9486  140.7594  142.9516 H   0  0  0  0  0  0  0  0  0  0  0  0  # atno 7974 bound_to 7965
  155.9144  140.3425  155.6123 H   0  0  0  0  0  0  0  0  0  0  0  0  # atno 8008 bound_to 7997
  155.7349  140.0800  157.2291 H   0  0  0  0  0  0  0  0  0  0  0  0  # atno 8009 bound_to 7997
  154.4060  140.1581  156.2538 H   0  0  0  0  0  0  0  0  0  0  0  0  # atno 8010 bound_to 7997
  139.4911  144.5846  151.6804 H   0  0  0  0  0  0  0  0  0  0  0  0  # atno 10167 bound_to 10162
  157.5908  130.9056  149.9601 H   0  0  0  0  0  0  0  0  0  0  0  0  # atno 10718 bound_to 10713
  154.0033  135.2921  155.3400 H   0  0  0  0  0  0  0  0  0  0  0  0  # atno 10763 bound_to 10752
  154.7146  135.5135  153.8722 H   0  0  0  0  0  0  0  0  0  0  0  0  # atno 10764 bound_to 10752
  153.0756  135.6662  154.0272 H   0  0  0  0  0  0  0  0  0  0  0  0  # atno 10765 bound_to 10752
  139.8971  134.9562  156.6841 H   0  0  0  0  0  0  0  0  0  0  0  0  # atno 11005 bound_to 11000
  144.6791  140.2398  143.7345 LP  0  0  0  0  0  0  0  0  0  0  0  0  # atno 17320 bound_to 7965
  145.8202  139.2040  143.1942 LP  0  0  0  0  0  0  0  0  0  0  0  0  # atno 17321 bound_to 7965
  140.5459  144.0504  150.6107 LP  0  0  0  0  0  0  0  0  0  0  0  0  # atno 17342 bound_to 10162
  140.3542  143.2945  152.0454 LP  0  0  0  0  0  0  0  0  0  0  0  0  # atno 17343 bound_to 10162
  156.0962  130.3659  150.0301 LP  0  0  0  0  0  0  0  0  0  0  0  0  # atno 17370 bound_to 10713
  156.8424  130.9430  151.3631 LP  0  0  0  0  0  0  0  0  0  0  0  0  # atno 17371 bound_to 10713
  140.7276  133.9086  155.8189 LP  0  0  0  0  0  0  0  0  0  0  0  0  # atno 17394 bound_to 11000
  141.0178  134.0931  157.4153 LP  0  0  0  0  0  0  0  0  0  0  0  0  # atno 17395 bound_to 11000

$$$$
