AV-unprocessed.smi:916|AV-procd|sdf|4159|dock4
  -GOLD-   22720 2 63D 1   1.00000     0.00000
 Structure written by MMmdl.
 43 44  0  0  0  0  0  0  0  0  1 V2000
  145.9224  131.7994  149.5200 C   0  0  0  0  0  0  0  0  0  0  0  0
  144.5038  132.0352  150.0504 C   0  0  0  0  0  0  0  0  0  0  0  0
  144.4229  133.2345  150.9455 C   0  0  0  0  0  0  0  0  0  0  0  0
  143.3080  133.7050  151.5955 C   0  0  0  0  0  0  0  0  0  0  0  0
  143.6522  135.1313  152.5370 S   0  0  0  0  0  0  0  0  0  0  0  0
  145.3219  135.0349  152.0002 C   0  0  0  0  0  0  0  0  0  0  0  0
  146.2994  135.9778  152.4125 N   0  0  0  0  0  0  0  0  0  0  0  0
  146.1629  136.9835  153.2945 C   0  0  0  0  0  0  0  0  0  0  0  0
  145.1356  137.2493  153.9194 O   0  0  0  0  0  0  0  0  0  0  0  0
  147.3017  137.6779  153.4195 N   0  0  0  0  0  0  0  0  0  0  0  0
  147.4693  138.8331  154.2926 C   0  0  0  0  0  0  0  0  0  0  0  0
  148.1307  140.0138  153.5451 C   0  0  1  0  0  0  0  0  0  0  0  0
  147.1400  141.1218  153.2118 C   0  0  0  0  0  0  0  0  0  0  0  0
  147.1531  142.0025  154.4635 C   0  0  0  0  0  0  0  0  0  0  0  0
  148.3141  141.6269  155.1988 O   0  0  0  0  0  0  0  0  0  0  0  0
  149.1455  140.8120  154.3825 C   0  0  1  0  0  0  0  0  0  0  0  0
  150.1604  140.0108  155.2297 C   0  0  0  0  0  0  0  0  0  0  0  0
  151.1093  140.9524  155.9890 C   0  0  0  0  0  0  0  0  0  0  0  0
  150.9748  139.0306  154.3682 C   0  0  0  0  0  0  0  0  0  0  0  0
  145.5666  134.0020  151.1862 N   0  0  0  0  0  0  0  0  0  0  0  0
  145.9530  130.9261  148.8684 H   0  0  0  0  0  0  0  0  0  0  0  0
  146.6251  131.6298  150.3364 H   0  0  0  0  0  0  0  0  0  0  0  0
  146.2759  132.6566  148.9463 H   0  0  0  0  0  0  0  0  0  0  0  0
  143.8215  132.1511  149.2076 H   0  0  0  0  0  0  0  0  0  0  0  0
  144.1675  131.1470  150.5864 H   0  0  0  0  0  0  0  0  0  0  0  0
  142.3073  133.2994  151.5774 H   0  0  0  0  0  0  0  0  0  0  0  0
  147.2085  135.8738  151.9866 H   0  0  0  0  0  0  0  0  0  0  0  0
  148.1015  137.3952  152.8727 H   0  0  0  0  0  0  0  0  0  0  0  0
  146.5009  139.1334  154.6968 H   0  0  0  0  0  0  0  0  0  0  0  0
  148.0832  138.5218  155.1377 H   0  0  0  0  0  0  0  0  0  0  0  0
  148.6007  139.6361  152.6360 H   0  0  0  0  0  0  0  0  0  0  0  0
  147.5095  141.6955  152.3607 H   0  0  0  0  0  0  0  0  0  0  0  0
  146.1404  140.7694  152.9565 H   0  0  0  0  0  0  0  0  0  0  0  0
  147.1849  143.0610  154.2044 H   0  0  0  0  0  0  0  0  0  0  0  0
  146.2711  141.8297  155.0806 H   0  0  0  0  0  0  0  0  0  0  0  0
  149.6967  141.4783  153.7154 H   0  0  0  0  0  0  0  0  0  0  0  0
  149.6175  139.4350  155.9794 H   0  0  0  0  0  0  0  0  0  0  0  0
  151.6838  141.5753  155.3028 H   0  0  0  0  0  0  0  0  0  0  0  0
  151.8165  140.3896  156.5990 H   0  0  0  0  0  0  0  0  0  0  0  0
  150.5598  141.6145  156.6586 H   0  0  0  0  0  0  0  0  0  0  0  0
  151.5438  139.5579  153.6018 H   0  0  0  0  0  0  0  0  0  0  0  0
  150.3351  138.3060  153.8650 H   0  0  0  0  0  0  0  0  0  0  0  0
  151.6823  138.4679  154.9775 H   0  0  0  0  0  0  0  0  0  0  0  0
  1  2  1  0  0  0  0
  1 21  1  0  0  0  0
  1 22  1  0  0  0  0
  1 23  1  0  0  0  0
  2  3  1  0  0  0  0
  2 24  1  0  0  0  0
  2 25  1  0  0  0  0
  3 20  1  0  0  0  0
  3  4  2  0  0  0  0
  4  5  1  0  0  0  0
  4 26  1  0  0  0  0
  5  6  1  0  0  0  0
  6  7  1  0  0  0  0
  6 20  2  0  0  0  0
  7  8  1  0  0  0  0
  7 27  1  0  0  0  0
  8  9  2  0  0  0  0
  8 10  1  0  0  0  0
 10 11  1  0  0  0  0
 10 28  1  0  0  0  0
 11 12  1  0  0  0  0
 11 29  1  0  0  0  0
 11 30  1  0  0  0  0
 12 16  1  0  0  0  0
 12 13  1  0  0  0  0
 12 31  1  0  0  0  0
 13 14  1  0  0  0  0
 13 32  1  0  0  0  0
 13 33  1  0  0  0  0
 14 15  1  0  0  0  0
 14 34  1  0  0  0  0
 14 35  1  0  0  0  0
 15 16  1  0  0  0  0
 16 17  1  0  0  0  0
 16 36  1  0  0  0  0
 17 18  1  0  0  0  0
 17 19  1  0  0  0  0
 17 37  1  0  0  0  0
 18 38  1  0  0  0  0
 18 39  1  0  0  0  0
 18 40  1  0  0  0  0
 19 41  1  0  0  0  0
 19 42  1  0  0  0  0
 19 43  1  0  0  0  0
M  END
> <s_m_source_file>
AV-unprocessed.smi

> <i_m_source_file_index>
916

> <i_lp_mmshare_version>
43012

> <i_f3d_flags>
0

> <s_epik_input>
W0NIM11bQ0gyXWMxW2NIXXNjKG4xKVtOSF1DKD1PKVtOSF1bQ0gyXVtDQEBIXTJbQ0gyXVtDSDJdT1tDQEhdMltDSF0oW0NIM10pW0NIM10=

> <s_epik_cmdline>
J2VwaWtfcHl0aG9uJywgJy1waCcsICc3LjAnLCAnLXRuJywgJzgnLCAnLW1hJywgJzIwMCcsICctbWV0YWxfYmluZGluZycsICctaW1hZScsICc8aW5maWxlLm1hZT4nLCAnLW9tYWUnLCAnPG91dGZpbGUubWFlPic=

> <r_lp_tautomer_probability>
0.999

> <r_epik_Ionization_Penalty>
0.000518907

> <r_epik_Ionization_Penalty_Charging>
0

> <r_epik_Ionization_Penalty_Neutral>
0.000518907

> <r_epik_State_Penalty>
0.000177984

> <r_epik_Charging_Adjusted_Penalty>
0.000177984

> <i_epik_Tot_Q>
0

> <i_epik_Tot_abs_Q>
0

> <r_epik_Metal_State_Penalty>
-0

> <b_epik_Metal_Only>
0

> <s_lp_Force_Field>
OPLS_2005

> <r_lp_Energy>
19.5432

> <b_lp_Chiralities_Consistent>
1

> <s_lp_Variant>
AV-unprocessed.smi:916-2

> <Gold.Version>
5.8.1

> <Gold.Id.Protein>
6NUR|6NUR_protein|mol2

> <Gold.PLP.Fitness>
43.0137

> <Gold.PLP.PLP>
-36.4702

> <Gold.PLP.part.hbond>
-2.0000

> <Gold.PLP.part.metal>
0.0000

> <Gold.PLP.part.buried>
-1.5238

> <Gold.PLP.part.nonpolar>
-32.5739

> <Gold.PLP.part.repulsive>
0.4274

> <Gold.PLP.ligand.clash>
0.0000

> <Gold.PLP.ligand.torsion>
0.6721

> <Gold.PLP.Chemscore.Hbond>
2.0000

> <Gold.PLP.Chemscore.CHOScore>
0.6063

> <Gold.PLP.Chemscore.Metal>
0.0000

> <Gold.Chemscore.Hbonds>
donor molecule, donor type, donor heavy atom, donor atom, acceptor molecule, acceptor atom, score
      L1  H     7    27       P1  7948  1.00
      L1  H    10    28       P1  7948  1.00
      L1  C     4    26       P1 10186  0.41

> <Gold.PLP.Chemscore.Internal.Correction>
0.0689

> <Gold.Rescore>
     Score         DG    S(hbond)    S(metal)    S(lipo)     H(rot)  DE(clash)    DE(int)     intcor
     16.63     -18.83       1.96        0.00      91.56       1.52       0.27       1.93       ----

> <Gold.Chemscore.Fitness>
16.6307

> <Gold.Chemscore.DG>
-18.8327

> <Gold.Chemscore.ZeroCoef>
-5.4800

> <Gold.Chemscore.Hbond>
1.9583

> <Gold.Chemscore.Metal>
0.0000

> <Gold.Chemscore.Lipo>
91.5628

> <Gold.Chemscore.Internal_Hbond>
0.0000

> <Gold.Chemscore.DEClash>
0.2731

> <Gold.Chemscore.DEInternal>
1.9289

> <Gold.Chemscore.Rot>
1.5238

> <Gold.Chemscore.Internal.Correction>
   9.000000E+99

> <Gold.Chemscore.Hbonds>
donor molecule, donor type, donor heavy atom, donor atom, acceptor molecule, acceptor atom, score
      L1  H     7    27       P1  7948  0.98
      L1  H    10    28       P1  7948  0.96

> <Gold.Chemscore.Hbond.Weighted>
-6.5407

> <Gold.Chemscore.Metal.Weighted>
-0.0000

> <Gold.Chemscore.Lipo.Weighted>
-10.7128

> <Gold.Chemscore.Internal_Hbond.Weighted>
0.0000

> <Gold.Chemscore.DEClash.Weighted>
0.2731

> <Gold.Chemscore.DEInternal.Weighted>
1.9289

> <Gold.Chemscore.Rot.Weighted>
3.9008

> <Gold.Chemscore.Internal.Correction.Weighted>
   9.000000E+99

> <Gold.Protein.RotatedTorsions>
[ 6907 6896 6895 6894 ] final  -59.66 input  -60.11 | X-H torsion
[ 7974 7965 7964 7962 ] final -169.77 input  175.53 | X-H torsion
[ 8008 7997 7996 7995 ] final  105.60 input   59.86 | X-H torsion
[ 10167 10162 10161 10158 ] final  103.69 input  -65.29 | X-H torsion
[ 10718 10713 10712 10709 ] final -126.13 input   66.30 | X-H torsion
[ 10763 10752 10751 10750 ] final  -21.74 input  -60.55 | X-H torsion
[ 11005 11000 10999 10996 ] final -160.45 input  -57.11 | X-H torsion

> <Gold.Protein.ActiveResidues>
 VAL166  LYS551  ARG553  GLY616  TRP617  ASP618  TYR619  PRO620  LYS621  CYS622 
 ASP623  PHE694  ASN695  SER759  ASP760  ASP761  ALA762  ILE779  LEU786  VAL792 
 PHE793  MET794  SER795  GLU796  ALA797  LYS798  CYS799  TRP800  GLU811  SER814 

> <Gold.Protein.RotatedAtoms>
  150.7914  134.6940  159.6512 H   0  0  0  0  0  0  0  0  0  0  0  0  # atno 6907 bound_to 6896
  152.4020  134.6268  160.0075 H   0  0  0  0  0  0  0  0  0  0  0  0  # atno 6908 bound_to 6896
  151.6536  133.3283  159.3194 H   0  0  0  0  0  0  0  0  0  0  0  0  # atno 6909 bound_to 6896
  144.7180  140.2172  143.6320 H   0  0  0  0  0  0  0  0  0  0  0  0  # atno 7974 bound_to 7965
  156.1673  140.3127  155.8911 H   0  0  0  0  0  0  0  0  0  0  0  0  # atno 8008 bound_to 7997
  155.3660  140.0479  157.3063 H   0  0  0  0  0  0  0  0  0  0  0  0  # atno 8009 bound_to 7997
  154.5205  140.2196  155.8995 H   0  0  0  0  0  0  0  0  0  0  0  0  # atno 8010 bound_to 7997
  139.7241  144.7051  151.0825 H   0  0  0  0  0  0  0  0  0  0  0  0  # atno 10167 bound_to 10162
  156.1737  130.6685  151.0214 H   0  0  0  0  0  0  0  0  0  0  0  0  # atno 10718 bound_to 10713
  153.6409  135.6985  153.5242 H   0  0  0  0  0  0  0  0  0  0  0  0  # atno 10763 bound_to 10752
  153.2783  135.4193  155.1054 H   0  0  0  0  0  0  0  0  0  0  0  0  # atno 10764 bound_to 10752
  154.8500  135.3595  154.5953 H   0  0  0  0  0  0  0  0  0  0  0  0  # atno 10765 bound_to 10752
  140.6314  134.4647  157.5229 H   0  0  0  0  0  0  0  0  0  0  0  0  # atno 11005 bound_to 11000
  145.8535  139.2187  143.1758 LP  0  0  0  0  0  0  0  0  0  0  0  0  # atno 17320 bound_to 7965
  146.0239  140.8322  142.9910 LP  0  0  0  0  0  0  0  0  0  0  0  0  # atno 17321 bound_to 7965
  140.7759  143.5127  150.9632 LP  0  0  0  0  0  0  0  0  0  0  0  0  # atno 17342 bound_to 10162
  139.8815  143.7066  152.3156 LP  0  0  0  0  0  0  0  0  0  0  0  0  # atno 17343 bound_to 10162
  157.6821  131.0835  150.7343 LP  0  0  0  0  0  0  0  0  0  0  0  0  # atno 17370 bound_to 10713
  156.7401  130.4736  149.5479 LP  0  0  0  0  0  0  0  0  0  0  0  0  # atno 17371 bound_to 10713
  139.9114  134.8336  156.1514 LP  0  0  0  0  0  0  0  0  0  0  0  0  # atno 17394 bound_to 11000
  141.0672  133.6813  156.2069 LP  0  0  0  0  0  0  0  0  0  0  0  0  # atno 17395 bound_to 11000

$$$$
