AV-unprocessed.smi:3311|AV-procd|sdf|12725|dock7
  -GOLD-   2272019 63D 1   1.00000     0.00000
 Structure written by MMmdl.
 43 44  0  0  0  0  0  0  0  0  1 V2000
  147.1944  140.9837  156.6801 C   0  0  0  0  0  0  0  0  0  0  0  0
  148.6699  140.6063  156.4171 C   0  0  2  0  0  0  0  0  0  0  0  0
  149.5667  141.7155  156.7639 N   0  0  0  0  0  0  0  0  0  0  0  0
  149.2883  142.3881  158.0352 C   0  0  0  0  0  0  0  0  0  0  0  0
  150.4685  143.2675  158.5066 C   0  0  0  0  0  0  0  0  0  0  0  0
  151.0428  143.8496  157.3496 O   0  0  0  0  0  0  0  0  0  0  0  0
  150.0249  144.3799  159.4912 C   0  0  0  0  0  0  0  0  0  0  0  0
  151.2083  145.1680  160.0813 C   0  0  0  0  0  0  0  0  0  0  0  0
  152.2308  144.2342  160.7427 C   0  0  0  0  0  0  0  0  0  0  0  0
  152.7228  143.1716  159.7508 C   0  0  0  0  0  0  0  0  0  0  0  0
  151.5469  142.3715  159.1618 C   0  0  0  0  0  0  0  0  0  0  0  0
  148.9309  140.1686  154.9505 C   0  0  1  0  0  0  0  0  0  0  0  0
  149.0198  141.3641  153.9833 C   0  0  0  0  0  0  0  0  0  0  0  0
  150.1332  139.3530  154.8251 N   0  0  0  0  0  0  0  0  0  0  0  0
  150.2518  138.0551  154.3683 C   0  0  0  0  0  0  0  0  0  0  0  0
  151.5728  137.7165  154.4357 C   0  0  0  0  0  0  0  0  0  0  0  0
  152.1941  138.8856  154.9563 C   0  0  0  0  0  0  0  0  0  0  0  0
  151.3313  139.8613  155.1894 N   0  0  0  0  0  0  0  0  0  0  0  0
  146.5159  140.1651  156.4423 H   0  0  0  0  0  0  0  0  0  0  0  0
  146.8953  141.8438  156.0802 H   0  0  0  0  0  0  0  0  0  0  0  0
  147.0139  141.2266  157.7265 H   0  0  0  0  0  0  0  0  0  0  0  0
  148.9067  139.7549  157.0567 H   0  0  0  0  0  0  0  0  0  0  0  0
  150.5266  141.3845  156.7680 H   0  0  0  0  0  0  0  0  0  0  0  0
  148.4048  143.0177  157.9346 H   0  0  0  0  0  0  0  0  0  0  0  0
  149.0558  141.6496  158.8038 H   0  0  0  0  0  0  0  0  0  0  0  0
  150.3476  144.2131  156.8228 H   0  0  0  0  0  0  0  0  0  0  0  0
  149.3421  145.0768  159.0039 H   0  0  0  0  0  0  0  0  0  0  0  0
  149.4619  143.9281  160.3091 H   0  0  0  0  0  0  0  0  0  0  0  0
  151.6950  145.7467  159.2954 H   0  0  0  0  0  0  0  0  0  0  0  0
  150.8424  145.8909  160.8109 H   0  0  0  0  0  0  0  0  0  0  0  0
  153.0752  144.8127  161.1191 H   0  0  0  0  0  0  0  0  0  0  0  0
  151.7782  143.7473  161.6074 H   0  0  0  0  0  0  0  0  0  0  0  0
  153.2855  143.6503  158.9486 H   0  0  0  0  0  0  0  0  0  0  0  0
  153.4173  142.4948  160.2491 H   0  0  0  0  0  0  0  0  0  0  0  0
  151.0900  141.7901  159.9640 H   0  0  0  0  0  0  0  0  0  0  0  0
  151.9234  141.6434  158.4418 H   0  0  0  0  0  0  0  0  0  0  0  0
  148.0873  139.5526  154.6319 H   0  0  0  0  0  0  0  0  0  0  0  0
  148.0894  141.9316  153.9593 H   0  0  0  0  0  0  0  0  0  0  0  0
  149.2182  141.0282  152.9650 H   0  0  0  0  0  0  0  0  0  0  0  0
  149.8181  142.0499  154.2686 H   0  0  0  0  0  0  0  0  0  0  0  0
  149.3950  137.4881  154.0347 H   0  0  0  0  0  0  0  0  0  0  0  0
  152.0263  136.7771  154.1563 H   0  0  0  0  0  0  0  0  0  0  0  0
  153.2393  139.0532  155.1704 H   0  0  0  0  0  0  0  0  0  0  0  0
  1  2  1  0  0  0  0
  1 19  1  0  0  0  0
  1 20  1  0  0  0  0
  1 21  1  0  0  0  0
  2  3  1  0  0  0  0
  2 12  1  0  0  0  0
  2 22  1  0  0  0  0
  3  4  1  0  0  0  0
  3 23  1  0  0  0  0
  4  5  1  0  0  0  0
  4 24  1  0  0  0  0
  4 25  1  0  0  0  0
  5 11  1  0  0  0  0
  5  6  1  0  0  0  0
  5  7  1  0  0  0  0
  6 26  1  0  0  0  0
  7  8  1  0  0  0  0
  7 27  1  0  0  0  0
  7 28  1  0  0  0  0
  8  9  1  0  0  0  0
  8 29  1  0  0  0  0
  8 30  1  0  0  0  0
  9 10  1  0  0  0  0
  9 31  1  0  0  0  0
  9 32  1  0  0  0  0
 10 11  1  0  0  0  0
 10 33  1  0  0  0  0
 10 34  1  0  0  0  0
 11 35  1  0  0  0  0
 11 36  1  0  0  0  0
 12 13  1  0  0  0  0
 12 14  1  0  0  0  0
 12 37  1  0  0  0  0
 13 38  1  0  0  0  0
 13 39  1  0  0  0  0
 13 40  1  0  0  0  0
 14 18  1  0  0  0  0
 14 15  1  0  0  0  0
 15 16  2  0  0  0  0
 15 41  1  0  0  0  0
 16 17  1  0  0  0  0
 16 42  1  0  0  0  0
 17 18  2  0  0  0  0
 17 43  1  0  0  0  0
M  END
> <s_m_source_file>
AV-unprocessed.smi

> <i_m_source_file_index>
3311

> <i_lp_mmshare_version>
43012

> <i_f3d_flags>
0

> <s_epik_input>
bjFbY0hdW2NIXVtjSF1uMVtDQEBIXShbQ0gzXSlbQ0BIXShbQ0gzXSlbTkhdW0NIMl1DMihbT0hdKVtDSDJdW0NIMl1bQ0gyXVtDSDJdW0NIMl0y

> <s_epik_cmdline>
J2VwaWtfcHl0aG9uJywgJy1waCcsICc3LjAnLCAnLXRuJywgJzgnLCAnLW1hJywgJzIwMCcsICctbWV0YWxfYmluZGluZycsICctaW1hZScsICc8aW5maWxlLm1hZT4nLCAnLW9tYWUnLCAnPG91dGZpbGUubWFlPic=

> <r_lp_tautomer_probability>
1

> <r_epik_Ionization_Penalty>
2.222

> <r_epik_Ionization_Penalty_Charging>
0

> <r_epik_Ionization_Penalty_Neutral>
2.222

> <r_epik_State_Penalty>
2.36562

> <r_epik_Charging_Adjusted_Penalty>
2.36562

> <i_epik_Tot_Q>
0

> <i_epik_Tot_abs_Q>
0

> <r_epik_Metal_State_Penalty>
2.36435

> <b_epik_Metal_Only>
0

> <s_lp_Force_Field>
OPLS_2005

> <r_lp_Energy>
27.677

> <b_lp_Chiralities_Consistent>
1

> <s_lp_Variant>
AV-unprocessed.smi:3311-7

> <Gold.Version>
5.8.1

> <Gold.Id.Protein>
6NUR|6NUR_protein|mol2

> <Gold.PLP.Fitness>
44.4203

> <Gold.PLP.PLP>
-38.0562

> <Gold.PLP.part.hbond>
-2.2350

> <Gold.PLP.part.metal>
0.0000

> <Gold.PLP.part.buried>
-4.8687

> <Gold.PLP.part.nonpolar>
-31.8636

> <Gold.PLP.part.repulsive>
0.0339

> <Gold.PLP.ligand.clash>
0.0000

> <Gold.PLP.ligand.torsion>
0.8040

> <Gold.PLP.Chemscore.Hbond>
1.6300

> <Gold.PLP.Chemscore.CHOScore>
0.9965

> <Gold.PLP.Chemscore.Metal>
0.0000

> <Gold.Chemscore.Hbonds>
donor molecule, donor type, donor heavy atom, donor atom, acceptor molecule, acceptor atom, score
      L1  H     6    26       P1  8028  1.00
      P1  H  7989  7998       L1    18  0.68
      L1  C    15    41       P1  7948  1.00

> <Gold.PLP.Chemscore.Internal.Correction>
0.0926

> <Gold.Rescore>
     Score         DG    S(hbond)    S(metal)    S(lipo)     H(rot)  DE(clash)    DE(int)     intcor
     15.72     -16.86       1.27        0.00     106.32       2.07       0.21       0.93       ----

> <Gold.Chemscore.Fitness>
15.7249

> <Gold.Chemscore.DG>
-16.8607

> <Gold.Chemscore.ZeroCoef>
-5.4800

> <Gold.Chemscore.Hbond>
1.2685

> <Gold.Chemscore.Metal>
0.0000

> <Gold.Chemscore.Lipo>
106.3226

> <Gold.Chemscore.Internal_Hbond>
0.0000

> <Gold.Chemscore.DEClash>
0.2066

> <Gold.Chemscore.DEInternal>
0.9292

> <Gold.Chemscore.Rot>
2.0686

> <Gold.Chemscore.Internal.Correction>
   9.000000E+99

> <Gold.Chemscore.Hbonds>
donor molecule, donor type, donor heavy atom, donor atom, acceptor molecule, acceptor atom, score
      L1  H     6    26       P1  8028  0.98
      P1  H  7989  7998       L1    18  0.02

> <Gold.Chemscore.Hbond.Weighted>
-4.2367

> <Gold.Chemscore.Metal.Weighted>
-0.0000

> <Gold.Chemscore.Lipo.Weighted>
-12.4397

> <Gold.Chemscore.Internal_Hbond.Weighted>
0.0000

> <Gold.Chemscore.DEClash.Weighted>
0.2066

> <Gold.Chemscore.DEInternal.Weighted>
0.9292

> <Gold.Chemscore.Rot.Weighted>
5.2957

> <Gold.Chemscore.Internal.Correction.Weighted>
   9.000000E+99

> <Gold.Protein.RotatedTorsions>
[ 6907 6896 6895 6894 ] final   11.03 input  -60.11 | X-H torsion
[ 7974 7965 7964 7962 ] final    5.37 input  175.53 | X-H torsion
[ 8008 7997 7996 7995 ] final  -44.32 input   59.86 | X-H torsion
[ 10167 10162 10161 10158 ] final   64.83 input  -65.29 | X-H torsion
[ 10718 10713 10712 10709 ] final   92.29 input   66.30 | X-H torsion
[ 10763 10752 10751 10750 ] final    1.40 input  -60.55 | X-H torsion
[ 11005 11000 10999 10996 ] final  141.51 input  -57.11 | X-H torsion

> <Gold.Protein.ActiveResidues>
 VAL166  LYS551  ARG553  GLY616  TRP617  ASP618  TYR619  PRO620  LYS621  CYS622 
 ASP623  PHE694  ASN695  SER759  ASP760  ASP761  ALA762  ILE779  LEU786  VAL792 
 PHE793  MET794  SER795  GLU796  ALA797  LYS798  CYS799  TRP800  GLU811  SER814 

> <Gold.Protein.RotatedAtoms>
  151.7477  135.0840  160.0325 H   0  0  0  0  0  0  0  0  0  0  0  0  # atno 6907 bound_to 6896
  152.3437  133.6093  159.5903 H   0  0  0  0  0  0  0  0  0  0  0  0  # atno 6908 bound_to 6896
  150.7495  133.9598  159.3553 H   0  0  0  0  0  0  0  0  0  0  0  0  # atno 6909 bound_to 6896
  146.2441  140.0394  142.8383 H   0  0  0  0  0  0  0  0  0  0  0  0  # atno 7974 bound_to 7965
  154.3997  140.1425  156.3664 H   0  0  0  0  0  0  0  0  0  0  0  0  # atno 8008 bound_to 7997
  155.8134  140.3472  155.5450 H   0  0  0  0  0  0  0  0  0  0  0  0  # atno 8009 bound_to 7997
  155.8363  140.0920  157.1752 H   0  0  0  0  0  0  0  0  0  0  0  0  # atno 8010 bound_to 7997
  140.1179  144.4758  150.6938 H   0  0  0  0  0  0  0  0  0  0  0  0  # atno 10167 bound_to 10162
  157.6959  131.0438  150.3859 H   0  0  0  0  0  0  0  0  0  0  0  0  # atno 10718 bound_to 10713
  153.3084  135.6961  153.7138 H   0  0  0  0  0  0  0  0  0  0  0  0  # atno 10763 bound_to 10752
  153.6024  135.3459  155.2951 H   0  0  0  0  0  0  0  0  0  0  0  0  # atno 10764 bound_to 10752
  154.8569  135.4344  154.2216 H   0  0  0  0  0  0  0  0  0  0  0  0  # atno 10765 bound_to 10752
  140.0407  134.9306  157.0837 H   0  0  0  0  0  0  0  0  0  0  0  0  # atno 11005 bound_to 11000
  145.1083  140.9389  143.4672 LP  0  0  0  0  0  0  0  0  0  0  0  0  # atno 17320 bound_to 7965
  145.0602  139.3111  143.5884 LP  0  0  0  0  0  0  0  0  0  0  0  0  # atno 17321 bound_to 7965
  140.6888  143.2365  151.5186 LP  0  0  0  0  0  0  0  0  0  0  0  0  # atno 17342 bound_to 10162
  139.5584  144.2218  152.1651 LP  0  0  0  0  0  0  0  0  0  0  0  0  # atno 17343 bound_to 10162
  156.4267  130.3964  149.6788 LP  0  0  0  0  0  0  0  0  0  0  0  0  # atno 17370 bound_to 10713
  156.4019  130.7679  151.2687 LP  0  0  0  0  0  0  0  0  0  0  0  0  # atno 17371 bound_to 10713
  140.4074  134.2017  155.7163 LP  0  0  0  0  0  0  0  0  0  0  0  0  # atno 17394 bound_to 11000
  141.1881  133.8267  157.1007 LP  0  0  0  0  0  0  0  0  0  0  0  0  # atno 17395 bound_to 11000

$$$$
