AV-unprocessed.smi:1007|AV-procd|sdf|4400|dock8
  -GOLD-   22720 2333D 1   1.00000     0.00000
 Structure written by MMmdl.
 56 58  0  0  0  0  0  0  0  0  2 V2000
  156.8550  130.4960  166.7847 C   0  0  0  0  0  0  0  0  0  0  0  0
  155.8150  131.3585  166.3573 O   0  0  0  0  0  0  0  0  0  0  0  0
  156.2997  132.6130  165.9081 C   0  0  0  0  0  0  0  0  0  0  0  0
  155.1061  133.5028  165.5280 C   0  0  0  0  0  0  0  0  0  0  0  0
  155.5210  134.7708  164.8764 N   0  3  0  0  0  0  0  0  0  0  0  0
  154.4282  135.7746  164.7654 C   0  0  0  0  0  0  0  0  0  0  0  0
  154.9518  137.0740  164.1173 C   0  0  0  0  0  0  0  0  0  0  0  0
  155.5626  136.8627  162.8051 N   0  0  0  0  0  0  0  0  0  0  0  0
  154.5730  136.5468  161.7648 C   0  0  0  0  0  0  0  0  0  0  0  0
  153.7482  137.7277  161.2060 C   0  0  2  0  0  0  0  0  0  0  0  0
  152.4588  137.2903  160.8231 O   0  0  0  0  0  0  0  0  0  0  0  0
  154.4430  138.5098  160.0717 C   0  0  0  0  0  0  0  0  0  0  0  0
  153.7437  139.7369  159.7370 N   0  0  0  0  0  0  0  0  0  0  0  0
  152.9058  139.9396  158.7019 C   0  0  0  0  0  0  0  0  0  0  0  0
  152.3715  141.1512  158.5798 N   0  0  0  0  0  0  0  0  0  0  0  0
  152.9315  141.8134  159.6589 C   0  0  0  0  0  0  0  0  0  0  0  0
  152.7746  143.1457  160.0995 C   0  0  0  0  0  0  0  0  0  0  0  0
  153.4540  143.6145  161.2465 C   0  0  0  0  0  0  0  0  0  0  0  0
  153.2562  145.0548  161.6847 C   0  0  0  0  0  0  0  0  0  0  0  0
  154.3065  142.7444  161.9728 C   0  0  0  0  0  0  0  0  0  0  0  0
  155.0437  143.2250  163.2103 C   0  0  0  0  0  0  0  0  0  0  0  0
  154.4754  141.4107  161.5458 C   0  0  0  0  0  0  0  0  0  0  0  0
  153.7943  140.9564  160.4028 C   0  0  0  0  0  0  0  0  0  0  0  0
  156.6368  135.8777  162.9518 C   0  0  0  0  0  0  0  0  0  0  0  0
  156.1590  134.5418  163.5541 C   0  0  0  0  0  0  0  0  0  0  0  0
  156.4312  129.5495  167.1206 H   0  0  0  0  0  0  0  0  0  0  0  0
  157.4116  130.9296  167.6167 H   0  0  0  0  0  0  0  0  0  0  0  0
  157.5502  130.2834  165.9712 H   0  0  0  0  0  0  0  0  0  0  0  0
  156.8632  133.0916  166.7105 H   0  0  0  0  0  0  0  0  0  0  0  0
  156.9874  132.4857  165.0718 H   0  0  0  0  0  0  0  0  0  0  0  0
  154.4651  132.9376  164.8500 H   0  0  0  0  0  0  0  0  0  0  0  0
  154.5017  133.7251  166.4086 H   0  0  0  0  0  0  0  0  0  0  0  0
  153.5987  135.3609  164.1910 H   0  0  0  0  0  0  0  0  0  0  0  0
  154.0352  136.0130  165.7526 H   0  0  0  0  0  0  0  0  0  0  0  0
  154.1422  137.8003  164.0372 H   0  0  0  0  0  0  0  0  0  0  0  0
  155.6889  137.5265  164.7824 H   0  0  0  0  0  0  0  0  0  0  0  0
  155.0323  136.0021  160.9402 H   0  0  0  0  0  0  0  0  0  0  0  0
  153.8538  135.8505  162.1983 H   0  0  0  0  0  0  0  0  0  0  0  0
  153.5815  138.4158  162.0357 H   0  0  0  0  0  0  0  0  0  0  0  0
  152.0077  138.0135  160.4141 H   0  0  0  0  0  0  0  0  0  0  0  0
  155.4622  138.7667  160.3625 H   0  0  0  0  0  0  0  0  0  0  0  0
  154.5200  137.9019  159.1694 H   0  0  0  0  0  0  0  0  0  0  0  0
  152.6728  139.1521  158.0000 H   0  0  0  0  0  0  0  0  0  0  0  0
  152.1249  143.8079  159.5462 H   0  0  0  0  0  0  0  0  0  0  0  0
  154.2070  145.5880  161.6861 H   0  0  0  0  0  0  0  0  0  0  0  0
  152.8351  145.0940  162.6895 H   0  0  0  0  0  0  0  0  0  0  0  0
  152.5774  145.5852  161.0161 H   0  0  0  0  0  0  0  0  0  0  0  0
  155.6683  142.4372  163.6325 H   0  0  0  0  0  0  0  0  0  0  0  0
  154.3357  143.5381  163.9779 H   0  0  0  0  0  0  0  0  0  0  0  0
  155.6893  144.0694  162.9681 H   0  0  0  0  0  0  0  0  0  0  0  0
  155.1216  140.7376  162.0893 H   0  0  0  0  0  0  0  0  0  0  0  0
  157.1307  135.7032  161.9972 H   0  0  0  0  0  0  0  0  0  0  0  0
  157.4093  136.2947  163.5994 H   0  0  0  0  0  0  0  0  0  0  0  0
  157.0156  133.8775  163.6738 H   0  0  0  0  0  0  0  0  0  0  0  0
  155.4624  134.0373  162.8833 H   0  0  0  0  0  0  0  0  0  0  0  0
  156.2348  135.1767  165.4651 H   0  0  0  0  0  0  0  0  0  0  0  0
  1  2  1  0  0  0  0
  1 26  1  0  0  0  0
  1 27  1  0  0  0  0
  1 28  1  0  0  0  0
  2  3  1  0  0  0  0
  3  4  1  0  0  0  0
  3 29  1  0  0  0  0
  3 30  1  0  0  0  0
  4  5  1  0  0  0  0
  4 31  1  0  0  0  0
  4 32  1  0  0  0  0
  5 25  1  0  0  0  0
  5  6  1  0  0  0  0
  5 56  1  0  0  0  0
  6  7  1  0  0  0  0
  6 33  1  0  0  0  0
  6 34  1  0  0  0  0
  7  8  1  0  0  0  0
  7 35  1  0  0  0  0
  7 36  1  0  0  0  0
  8  9  1  0  0  0  0
  8 24  1  0  0  0  0
  9 10  1  0  0  0  0
  9 37  1  0  0  0  0
  9 38  1  0  0  0  0
 10 11  1  0  0  0  0
 10 12  1  0  0  0  0
 10 39  1  0  0  0  0
 11 40  1  0  0  0  0
 12 13  1  0  0  0  0
 12 41  1  0  0  0  0
 12 42  1  0  0  0  0
 13 23  1  0  0  0  0
 13 14  1  0  0  0  0
 14 15  2  0  0  0  0
 14 43  1  0  0  0  0
 15 16  1  0  0  0  0
 16 23  2  0  0  0  0
 16 17  1  0  0  0  0
 17 18  2  0  0  0  0
 17 44  1  0  0  0  0
 18 19  1  0  0  0  0
 18 20  1  0  0  0  0
 19 45  1  0  0  0  0
 19 46  1  0  0  0  0
 19 47  1  0  0  0  0
 20 21  1  0  0  0  0
 20 22  2  0  0  0  0
 21 48  1  0  0  0  0
 21 49  1  0  0  0  0
 21 50  1  0  0  0  0
 22 23  1  0  0  0  0
 22 51  1  0  0  0  0
 24 25  1  0  0  0  0
 24 52  1  0  0  0  0
 24 53  1  0  0  0  0
 25 54  1  0  0  0  0
 25 55  1  0  0  0  0
M  CHG  1   5   1
M  END
> <s_m_source_file>
AV-unprocessed.smi

> <i_m_source_file_index>
1007

> <i_lp_mmshare_version>
43012

> <i_f3d_flags>
0

> <s_epik_input>
W0NIM11PW0NIMl1bQ0gyXU4xW0NIMl1bQ0gyXU4oW0NIMl1bQ0gyXTEpW0NIMl1bQ0BIXShbT0hdKVtDSDJdbihbY0hdbjIpYyhjMjMpW2NIXWMoW0NIM10pYyhbY0hdMylbQ0gzXQ==

> <s_epik_cmdline>
J2VwaWtfcHl0aG9uJywgJy1waCcsICc3LjAnLCAnLXRuJywgJzgnLCAnLW1hJywgJzIwMCcsICctbWV0YWxfYmluZGluZycsICctaW1hZScsICc8aW5maWxlLm1hZT4nLCAnLW9tYWUnLCAnPG91dGZpbGUubWFlPic=

> <r_epik_Ionization_Penalty>
0.186009

> <r_epik_Ionization_Penalty_Charging>
0.0613973

> <r_epik_Ionization_Penalty_Neutral>
0.124612

> <r_epik_State_Penalty>
1.21927

> <r_epik_Charging_Adjusted_Penalty>
1.28067

> <i_epik_Tot_Q>
1

> <i_epik_Tot_abs_Q>
1

> <r_epik_Metal_State_Penalty>
1.13901

> <b_epik_Metal_Only>
0

> <s_lp_Force_Field>
OPLS_2005

> <r_lp_Energy>
39.6127

> <b_lp_Chiralities_Consistent>
1

> <s_lp_Variant>
AV-unprocessed.smi:1007-3

> <Gold.Version>
5.8.1

> <Gold.Id.Protein>
6NUR|6NUR_protein|mol2

> <Gold.PLP.Fitness>
49.8793

> <Gold.PLP.PLP>
-48.3010

> <Gold.PLP.part.hbond>
-1.9766

> <Gold.PLP.part.metal>
0.0000

> <Gold.PLP.part.buried>
-0.9546

> <Gold.PLP.part.nonpolar>
-45.0680

> <Gold.PLP.part.repulsive>
0.0256

> <Gold.PLP.ligand.clash>
0.0000

> <Gold.PLP.ligand.torsion>
0.8871

> <Gold.PLP.Chemscore.Hbond>
1.0000

> <Gold.PLP.Chemscore.CHOScore>
0.0000

> <Gold.PLP.Chemscore.Metal>
0.0000

> <Gold.Chemscore.Hbonds>
donor molecule, donor type, donor heavy atom, donor atom, acceptor molecule, acceptor atom, score
      P1  H  6896  6907       L1    11  0.15

> <Gold.PLP.Chemscore.Internal.Correction>
0.3525

> <Gold.Rescore>
     Score         DG    S(hbond)    S(metal)    S(lipo)     H(rot)  DE(clash)    DE(int)     intcor
     17.21     -18.46       0.97        0.00     139.38       2.56       0.02       1.23       ----

> <Gold.Chemscore.Fitness>
17.2112

> <Gold.Chemscore.DG>
-18.4600

> <Gold.Chemscore.ZeroCoef>
-5.4800

> <Gold.Chemscore.Hbond>
0.9656

> <Gold.Chemscore.Metal>
0.0000

> <Gold.Chemscore.Lipo>
139.3771

> <Gold.Chemscore.Internal_Hbond>
0.0000

> <Gold.Chemscore.DEClash>
0.0164

> <Gold.Chemscore.DEInternal>
1.2324

> <Gold.Chemscore.Rot>
2.5594

> <Gold.Chemscore.Internal.Correction>
   9.000000E+99

> <Gold.Chemscore.Hbonds>
donor molecule, donor type, donor heavy atom, donor atom, acceptor molecule, acceptor atom, score
      P1  H  6896  6907       L1    11  0.15

> <Gold.Chemscore.Hbond.Weighted>
-3.2251

> <Gold.Chemscore.Metal.Weighted>
-0.0000

> <Gold.Chemscore.Lipo.Weighted>
-16.3071

> <Gold.Chemscore.Internal_Hbond.Weighted>
0.0000

> <Gold.Chemscore.DEClash.Weighted>
0.0164

> <Gold.Chemscore.DEInternal.Weighted>
1.2324

> <Gold.Chemscore.Rot.Weighted>
6.5522

> <Gold.Chemscore.Internal.Correction.Weighted>
   9.000000E+99

> <Gold.Protein.RotatedTorsions>
[ 6907 6896 6895 6894 ] final   16.68 input  -60.11 | X-H torsion
[ 7974 7965 7964 7962 ] final  -83.94 input  175.53 | X-H torsion
[ 8008 7997 7996 7995 ] final  160.71 input   59.86 | X-H torsion
[ 10167 10162 10161 10158 ] final -123.17 input  -65.29 | X-H torsion
[ 10718 10713 10712 10709 ] final  -99.85 input   66.30 | X-H torsion
[ 10763 10752 10751 10750 ] final  158.84 input  -60.55 | X-H torsion
[ 11005 11000 10999 10996 ] final   43.27 input  -57.11 | X-H torsion

> <Gold.Protein.ActiveResidues>
 VAL166  LYS551  ARG553  GLY616  TRP617  ASP618  TYR619  PRO620  LYS621  CYS622 
 ASP623  PHE694  ASN695  SER759  ASP760  ASP761  ALA762  ILE779  LEU786  VAL792 
 PHE793  MET794  SER795  GLU796  ALA797  LYS798  CYS799  TRP800  GLU811  SER814 

> <Gold.Protein.RotatedAtoms>
  151.8376  135.0601  160.0444 H   0  0  0  0  0  0  0  0  0  0  0  0  # atno 6907 bound_to 6896
  152.2833  133.5486  159.5520 H   0  0  0  0  0  0  0  0  0  0  0  0  # atno 6908 bound_to 6896
  150.7198  134.0449  159.3820 H   0  0  0  0  0  0  0  0  0  0  0  0  # atno 6909 bound_to 6896
  145.5132  140.9538  143.1696 H   0  0  0  0  0  0  0  0  0  0  0  0  # atno 7974 bound_to 7965
  156.2154  140.1797  156.7601 H   0  0  0  0  0  0  0  0  0  0  0  0  # atno 8008 bound_to 7997
  154.5783  140.0670  156.9096 H   0  0  0  0  0  0  0  0  0  0  0  0  # atno 8009 bound_to 7997
  155.2548  140.3331  155.4281 H   0  0  0  0  0  0  0  0  0  0  0  0  # atno 8010 bound_to 7997
  140.0064  143.5487  152.2282 H   0  0  0  0  0  0  0  0  0  0  0  0  # atno 10167 bound_to 10162
  156.0146  130.5301  150.6730 H   0  0  0  0  0  0  0  0  0  0  0  0  # atno 10718 bound_to 10713
  154.2224  135.2781  155.2920 H   0  0  0  0  0  0  0  0  0  0  0  0  # atno 10763 bound_to 10752
  154.5691  135.5624  153.7081 H   0  0  0  0  0  0  0  0  0  0  0  0  # atno 10764 bound_to 10752
  153.0038  135.6317  154.2364 H   0  0  0  0  0  0  0  0  0  0  0  0  # atno 10765 bound_to 10752
  140.1661  134.4280  155.8286 H   0  0  0  0  0  0  0  0  0  0  0  0  # atno 11005 bound_to 11000
  144.7716  139.6722  143.7192 LP  0  0  0  0  0  0  0  0  0  0  0  0  # atno 17320 bound_to 7965
  146.2153  139.5538  142.9654 LP  0  0  0  0  0  0  0  0  0  0  0  0  # atno 17321 bound_to 7965
  139.6236  144.7633  151.2688 LP  0  0  0  0  0  0  0  0  0  0  0  0  # atno 17342 bound_to 10162
  140.7399  143.6605  150.8169 LP  0  0  0  0  0  0  0  0  0  0  0  0  # atno 17343 bound_to 10162
  157.4449  131.0865  151.0906 LP  0  0  0  0  0  0  0  0  0  0  0  0  # atno 17370 bound_to 10713
  157.1439  130.6155  149.5563 LP  0  0  0  0  0  0  0  0  0  0  0  0  # atno 17371 bound_to 10713
  141.2214  133.6935  156.7680 LP  0  0  0  0  0  0  0  0  0  0  0  0  # atno 17394 bound_to 11000
  140.2432  134.8597  157.3594 LP  0  0  0  0  0  0  0  0  0  0  0  0  # atno 17395 bound_to 11000

$$$$
