AV-unprocessed.smi:1512|AV-procd|sdf|6104|dock4
  -GOLD-   22720 6233D 1   1.00000     0.00000
 Structure written by MMmdl.
 44 46  0  0  0  0  0  0  0  0  3 V2000
  144.9753  136.1873  151.9540 C   0  0  0  0  0  0  0  0  0  0  0  0
  145.5478  134.7726  152.1453 C   0  0  2  0  0  0  0  0  0  0  0  0
  146.8402  134.8432  152.8174 N   0  0  0  0  0  0  0  0  0  0  0  0
  147.1583  134.2619  153.9862 C   0  0  0  0  0  0  0  0  0  0  0  0
  146.3359  133.6748  154.6877 O   0  0  0  0  0  0  0  0  0  0  0  0
  148.6300  134.3137  154.4342 C   0  0  0  0  0  0  0  0  0  0  0  0
  149.2206  132.9971  154.7447 N   0  0  0  0  0  0  0  0  0  0  0  0
  148.7994  131.9065  153.9612 C   0  0  0  0  0  0  0  0  0  0  0  0
  149.2474  130.6620  154.1803 C   0  0  0  0  0  0  0  0  0  0  0  0
  150.1749  130.4507  155.2647 C   0  0  0  0  0  0  0  0  0  0  0  0
  150.5947  131.4838  156.0305 C   0  0  0  0  0  0  0  0  0  0  0  0
  151.4962  131.1995  157.1221 N   0  3  0  0  0  0  0  0  0  0  0  0
  152.0493  130.1047  157.1620 O   0  0  0  0  0  0  0  0  0  0  0  0
  151.6912  132.0718  157.9631 O   0  5  0  0  0  0  0  0  0  0  0  0
  150.1259  132.8585  155.7639 C   0  0  0  0  0  0  0  0  0  0  0  0
  150.5078  133.8325  156.4152 O   0  0  0  0  0  0  0  0  0  0  0  0
  145.7119  134.0255  150.8002 C   0  0  2  0  0  0  0  0  0  0  0  0
  144.4134  133.8864  149.9747 C   0  0  0  0  0  0  0  0  0  0  0  0
  144.3815  132.3852  149.6301 C   0  0  2  0  0  0  0  0  0  0  0  0
  144.0103  131.5856  150.8928 C   0  0  0  0  0  0  0  0  0  0  0  0
  145.2890  131.6845  151.7443 C   0  0  0  0  0  0  0  0  0  0  0  0
  146.2117  132.5591  150.8716 C   0  0  1  0  0  0  0  0  0  0  0  0
  145.8619  132.0578  149.4747 C   0  0  0  0  0  0  0  0  0  0  0  0
  144.0036  136.1566  151.4613 H   0  0  0  0  0  0  0  0  0  0  0  0
  145.6372  136.8052  151.3458 H   0  0  0  0  0  0  0  0  0  0  0  0
  144.8376  136.6907  152.9113 H   0  0  0  0  0  0  0  0  0  0  0  0
  144.8570  134.2101  152.7756 H   0  0  0  0  0  0  0  0  0  0  0  0
  147.5785  135.3145  152.3152 H   0  0  0  0  0  0  0  0  0  0  0  0
  149.1990  134.8167  153.6514 H   0  0  0  0  0  0  0  0  0  0  0  0
  148.7072  134.9688  155.3037 H   0  0  0  0  0  0  0  0  0  0  0  0
  148.0935  132.1443  153.1785 H   0  0  0  0  0  0  0  0  0  0  0  0
  148.9134  129.8369  153.5686 H   0  0  0  0  0  0  0  0  0  0  0  0
  150.5137  129.4459  155.4714 H   0  0  0  0  0  0  0  0  0  0  0  0
  146.4372  134.5790  150.2006 H   0  0  0  0  0  0  0  0  0  0  0  0
  143.5220  134.1927  150.5239 H   0  0  0  0  0  0  0  0  0  0  0  0
  144.4686  134.4946  149.0711 H   0  0  0  0  0  0  0  0  0  0  0  0
  143.7619  132.1479  148.7647 H   0  0  0  0  0  0  0  0  0  0  0  0
  143.1386  131.9980  151.4024 H   0  0  0  0  0  0  0  0  0  0  0  0
  143.7932  130.5453  150.6471 H   0  0  0  0  0  0  0  0  0  0  0  0
  145.1071  132.1014  152.7346 H   0  0  0  0  0  0  0  0  0  0  0  0
  145.7269  130.6956  151.8863 H   0  0  0  0  0  0  0  0  0  0  0  0
  147.2676  132.4680  151.1269 H   0  0  0  0  0  0  0  0  0  0  0  0
  146.0589  130.9934  149.3339 H   0  0  0  0  0  0  0  0  0  0  0  0
  146.3487  132.6202  148.6757 H   0  0  0  0  0  0  0  0  0  0  0  0
  1  2  1  0  0  0  0
  1 24  1  0  0  0  0
  1 25  1  0  0  0  0
  1 26  1  0  0  0  0
  2  3  1  0  0  0  0
  2 17  1  0  0  0  0
  2 27  1  0  0  0  0
  3  4  1  0  0  0  0
  3 28  1  0  0  0  0
  4  5  2  0  0  0  0
  4  6  1  0  0  0  0
  6  7  1  0  0  0  0
  6 29  1  0  0  0  0
  6 30  1  0  0  0  0
  7 15  1  0  0  0  0
  7  8  1  0  0  0  0
  8  9  2  0  0  0  0
  8 31  1  0  0  0  0
  9 10  1  0  0  0  0
  9 32  1  0  0  0  0
 10 11  2  0  0  0  0
 10 33  1  0  0  0  0
 11 12  1  0  0  0  0
 11 15  1  0  0  0  0
 12 13  2  0  0  0  0
 12 14  1  0  0  0  0
 15 16  2  0  0  0  0
 17 22  1  0  0  0  0
 17 18  1  0  0  0  0
 17 34  1  0  0  0  0
 18 19  1  0  0  0  0
 18 35  1  0  0  0  0
 18 36  1  0  0  0  0
 19 23  1  0  0  0  0
 19 20  1  0  0  0  0
 19 37  1  0  0  0  0
 20 21  1  0  0  0  0
 20 38  1  0  0  0  0
 20 39  1  0  0  0  0
 21 22  1  0  0  0  0
 21 40  1  0  0  0  0
 21 41  1  0  0  0  0
 22 23  1  0  0  0  0
 22 42  1  0  0  0  0
 23 43  1  0  0  0  0
 23 44  1  0  0  0  0
M  CHG  1  12   1
M  CHG  1  14  -1
M  END
> <s_m_source_file>
AV-unprocessed.smi

> <i_m_source_file_index>
1512

> <i_lp_mmshare_version>
43012

> <i_f3d_flags>
0

> <s_epik_input>
W0NIMl0xW0NIMl1bQ0BIXShbQ0gyXTIpW0NAQEhdKFtDSDJdW0NAQEhdMTIpW0NASF0oW0NIM10pW05IXUMoPU8pW0NIMl1uM1tjSF1bY0hdW2NIXWMoW04rXSg9TylbTy1dKWMzPU8=

> <s_epik_cmdline>
J2VwaWtfcHl0aG9uJywgJy1waCcsICc3LjAnLCAnLXRuJywgJzgnLCAnLW1hJywgJzIwMCcsICctbWV0YWxfYmluZGluZycsICctaW1hZScsICc8aW5maWxlLm1hZT4nLCAnLW9tYWUnLCAnPG91dGZpbGUubWFlPic=

> <r_lp_tautomer_probability>
1

> <r_epik_Ionization_Penalty>
2.17697e-08

> <r_epik_Ionization_Penalty_Charging>
1.42735e-10

> <r_epik_Ionization_Penalty_Neutral>
2.16269e-08

> <r_epik_State_Penalty>
-0

> <r_epik_Charging_Adjusted_Penalty>
1.42735e-10

> <i_epik_Tot_Q>
0

> <i_epik_Tot_abs_Q>
2

> <r_epik_Metal_State_Penalty>
-0

> <b_epik_Metal_Only>
0

> <s_lp_Force_Field>
OPLS_2005

> <r_lp_Energy>
63.3532

> <b_lp_Chiralities_Consistent>
1

> <s_lp_Variant>
AV-unprocessed.smi:1512-5

> <Gold.Version>
5.8.1

> <Gold.Id.Protein>
6NUR|6NUR_protein|mol2

> <Gold.PLP.Fitness>
47.6784

> <Gold.PLP.PLP>
-42.5973

> <Gold.PLP.part.hbond>
-2.0000

> <Gold.PLP.part.metal>
0.0000

> <Gold.PLP.part.buried>
-2.8263

> <Gold.PLP.part.nonpolar>
-37.3165

> <Gold.PLP.part.repulsive>
0.0603

> <Gold.PLP.ligand.clash>
0.0000

> <Gold.PLP.ligand.torsion>
0.4798

> <Gold.PLP.Chemscore.Hbond>
2.0000

> <Gold.PLP.Chemscore.CHOScore>
0.0000

> <Gold.PLP.Chemscore.Metal>
0.0000

> <Gold.Chemscore.Hbonds>
donor molecule, donor type, donor heavy atom, donor atom, acceptor molecule, acceptor atom, score
      L1  H     3    28       P1  7948  1.00
      P1  H  6896  6909       L1    14  1.00

> <Gold.PLP.Chemscore.Internal.Correction>
0.0408

> <Gold.Rescore>
     Score         DG    S(hbond)    S(metal)    S(lipo)     H(rot)  DE(clash)    DE(int)     intcor
     17.09     -19.17       1.99        0.00      98.31       1.75       0.16       1.91       ----

> <Gold.Chemscore.Fitness>
17.0950

> <Gold.Chemscore.DG>
-19.1680

> <Gold.Chemscore.ZeroCoef>
-5.4800

> <Gold.Chemscore.Hbond>
1.9936

> <Gold.Chemscore.Metal>
0.0000

> <Gold.Chemscore.Lipo>
98.3138

> <Gold.Chemscore.Internal_Hbond>
0.0000

> <Gold.Chemscore.DEClash>
0.1603

> <Gold.Chemscore.DEInternal>
1.9128

> <Gold.Chemscore.Rot>
1.7474

> <Gold.Chemscore.Internal.Correction>
   9.000000E+99

> <Gold.Chemscore.Hbonds>
donor molecule, donor type, donor heavy atom, donor atom, acceptor molecule, acceptor atom, score
      L1  H     3    28       P1  7948  1.00
      P1  H  6896  6909       L1    14  1.00

> <Gold.Chemscore.Hbond.Weighted>
-6.6586

> <Gold.Chemscore.Metal.Weighted>
-0.0000

> <Gold.Chemscore.Lipo.Weighted>
-11.5027

> <Gold.Chemscore.Internal_Hbond.Weighted>
0.0000

> <Gold.Chemscore.DEClash.Weighted>
0.1603

> <Gold.Chemscore.DEInternal.Weighted>
1.9128

> <Gold.Chemscore.Rot.Weighted>
4.4733

> <Gold.Chemscore.Internal.Correction.Weighted>
   9.000000E+99

> <Gold.Protein.RotatedTorsions>
[ 6907 6896 6895 6894 ] final  -57.18 input  -60.11 | X-H torsion
[ 7974 7965 7964 7962 ] final -167.04 input  175.53 | X-H torsion
[ 8008 7997 7996 7995 ] final -144.36 input   59.86 | X-H torsion
[ 10167 10162 10161 10158 ] final   87.54 input  -65.29 | X-H torsion
[ 10718 10713 10712 10709 ] final   91.42 input   66.30 | X-H torsion
[ 10763 10752 10751 10750 ] final   32.99 input  -60.55 | X-H torsion
[ 11005 11000 10999 10996 ] final  -87.81 input  -57.11 | X-H torsion

> <Gold.Protein.ActiveResidues>
 VAL166  LYS551  ARG553  GLY616  TRP617  ASP618  TYR619  PRO620  LYS621  CYS622 
 ASP623  PHE694  ASN695  SER759  ASP760  ASP761  ALA762  ILE779  LEU786  VAL792 
 PHE793  MET794  SER795  GLU796  ALA797  LYS798  CYS799  TRP800  GLU811  SER814 

> <Gold.Protein.RotatedAtoms>
  150.8107  134.7259  159.6684 H   0  0  0  0  0  0  0  0  0  0  0  0  # atno 6907 bound_to 6896
  152.4226  134.5923  159.9987 H   0  0  0  0  0  0  0  0  0  0  0  0  # atno 6908 bound_to 6896
  151.6134  133.3308  159.3108 H   0  0  0  0  0  0  0  0  0  0  0  0  # atno 6909 bound_to 6896
  144.7232  140.2578  143.6269 H   0  0  0  0  0  0  0  0  0  0  0  0  # atno 7974 bound_to 7965
  155.5256  140.0595  157.2898 H   0  0  0  0  0  0  0  0  0  0  0  0  # atno 8008 bound_to 7997
  154.4502  140.1945  156.0487 H   0  0  0  0  0  0  0  0  0  0  0  0  # atno 8009 bound_to 7997
  156.0688  140.3263  155.7555 H   0  0  0  0  0  0  0  0  0  0  0  0  # atno 8010 bound_to 7997
  139.8763  144.6465  150.8893 H   0  0  0  0  0  0  0  0  0  0  0  0  # atno 10167 bound_to 10162
  157.6960  131.0406  150.3727 H   0  0  0  0  0  0  0  0  0  0  0  0  # atno 10718 bound_to 10713
  153.0234  135.6399  154.1441 H   0  0  0  0  0  0  0  0  0  0  0  0  # atno 10763 bound_to 10752
  154.1173  135.2849  155.3218 H   0  0  0  0  0  0  0  0  0  0  0  0  # atno 10764 bound_to 10752
  154.6289  135.5499  153.7720 H   0  0  0  0  0  0  0  0  0  0  0  0  # atno 10765 bound_to 10752
  141.1611  133.7533  156.9360 H   0  0  0  0  0  0  0  0  0  0  0  0  # atno 11005 bound_to 11000
  145.8165  139.2025  143.1962 LP  0  0  0  0  0  0  0  0  0  0  0  0  # atno 17320 bound_to 7965
  146.0551  140.8030  142.9762 LP  0  0  0  0  0  0  0  0  0  0  0  0  # atno 17321 bound_to 7965
  140.7752  143.3622  151.1806 LP  0  0  0  0  0  0  0  0  0  0  0  0  # atno 17342 bound_to 10162
  139.7237  143.9182  152.2995 LP  0  0  0  0  0  0  0  0  0  0  0  0  # atno 17343 bound_to 10162
  156.4150  130.3941  149.6865 LP  0  0  0  0  0  0  0  0  0  0  0  0  # atno 17370 bound_to 10713
  156.4136  130.7734  151.2748 LP  0  0  0  0  0  0  0  0  0  0  0  0  # atno 17371 bound_to 10713
  140.1354  134.9329  157.2394 LP  0  0  0  0  0  0  0  0  0  0  0  0  # atno 17394 bound_to 11000
  140.2902  134.3249  155.7317 LP  0  0  0  0  0  0  0  0  0  0  0  0  # atno 17395 bound_to 11000

$$$$
