AV-unprocessed.smi:702|AV-procd|sdf|3416|dock3
  -GOLD-   22720 0403D 1   1.00000     0.00000
 Structure written by MMmdl.
 50 52  0  0  0  0  0  0  0  0  2 V2000
  148.0792  139.0071  155.7966 C   0  0  0  0  0  0  0  0  0  0  0  0
  148.0958  140.2585  154.8894 C   0  0  2  0  0  0  0  0  0  0  0  0
  148.7144  141.3584  155.6365 N   0  0  0  0  0  0  0  0  0  0  0  0
  149.8110  141.2899  156.4060 C   0  0  0  0  0  0  0  0  0  0  0  0
  150.4573  140.2574  156.5729 O   0  0  0  0  0  0  0  0  0  0  0  0
  150.0926  142.4880  156.9475 N   0  0  0  0  0  0  0  0  0  0  0  0
  151.1683  142.8719  157.7968 C   0  0  0  0  0  0  0  0  0  0  0  0
  151.7867  141.8542  158.5528 C   0  0  0  0  0  0  0  0  0  0  0  0
  152.8508  142.1931  159.4120 C   0  0  0  0  0  0  0  0  0  0  0  0
  153.3143  143.4517  159.5562 N   0  0  0  0  0  0  0  0  0  0  0  0
  152.7201  144.4264  158.8367 C   0  0  0  0  0  0  0  0  0  0  0  0
  151.6488  144.1959  157.9501 C   0  0  0  0  0  0  0  0  0  0  0  0
  146.7098  140.6991  154.2801 C   0  0  0  0  0  0  0  0  0  0  0  0
  146.1442  139.5821  153.4276 N   0  3  0  0  0  0  0  0  0  0  0  0
  147.0178  139.1274  152.3047 C   0  0  0  0  0  0  0  0  0  0  0  0
  146.2485  138.1709  151.3797 C   0  0  0  0  0  0  0  0  0  0  0  0
  145.8059  137.0472  152.1266 O   0  0  0  0  0  0  0  0  0  0  0  0
  144.9215  137.4265  153.1709 C   0  0  0  0  0  0  0  0  0  0  0  0
  145.6392  138.3742  154.1477 C   0  0  0  0  0  0  0  0  0  0  0  0
  145.6927  141.1157  155.3839 C   0  0  0  0  0  0  0  0  0  0  0  0
  145.6043  142.6425  155.3509 C   0  0  0  0  0  0  0  0  0  0  0  0
  145.8290  142.9866  153.8836 C   0  0  0  0  0  0  0  0  0  0  0  0
  146.9205  142.0077  153.4503 C   0  0  0  0  0  0  0  0  0  0  0  0
  147.6923  138.1304  155.2791 H   0  0  0  0  0  0  0  0  0  0  0  0
  147.4944  139.1388  156.7054 H   0  0  0  0  0  0  0  0  0  0  0  0
  149.0927  138.7563  156.1117 H   0  0  0  0  0  0  0  0  0  0  0  0
  148.7658  139.9631  154.0852 H   0  0  0  0  0  0  0  0  0  0  0  0
  148.2521  142.2536  155.5685 H   0  0  0  0  0  0  0  0  0  0  0  0
  149.4394  143.2274  156.7342 H   0  0  0  0  0  0  0  0  0  0  0  0
  151.4569  140.8280  158.4788 H   0  0  0  0  0  0  0  0  0  0  0  0
  153.3417  141.4318  160.0000 H   0  0  0  0  0  0  0  0  0  0  0  0
  153.1089  145.4247  158.9737 H   0  0  0  0  0  0  0  0  0  0  0  0
  151.2291  145.0360  157.4213 H   0  0  0  0  0  0  0  0  0  0  0  0
  147.3829  139.9490  151.6963 H   0  0  0  0  0  0  0  0  0  0  0  0
  147.9010  138.6174  152.6900 H   0  0  0  0  0  0  0  0  0  0  0  0
  145.4012  138.6749  150.9117 H   0  0  0  0  0  0  0  0  0  0  0  0
  146.8970  137.8243  150.5748 H   0  0  0  0  0  0  0  0  0  0  0  0
  144.0289  137.8980  152.7560 H   0  0  0  0  0  0  0  0  0  0  0  0
  144.5919  136.5288  153.6942 H   0  0  0  0  0  0  0  0  0  0  0  0
  146.4636  137.8454  154.6261 H   0  0  0  0  0  0  0  0  0  0  0  0
  144.9292  138.6136  154.9344 H   0  0  0  0  0  0  0  0  0  0  0  0
  144.6937  140.7370  155.1740 H   0  0  0  0  0  0  0  0  0  0  0  0
  145.9493  140.7359  156.3729 H   0  0  0  0  0  0  0  0  0  0  0  0
  144.6511  143.0149  155.7274 H   0  0  0  0  0  0  0  0  0  0  0  0
  146.3961  143.0798  155.9603 H   0  0  0  0  0  0  0  0  0  0  0  0
  144.9151  142.8094  153.3156 H   0  0  0  0  0  0  0  0  0  0  0  0
  146.1168  144.0279  153.7365 H   0  0  0  0  0  0  0  0  0  0  0  0
  147.8714  142.4797  153.6860 H   0  0  0  0  0  0  0  0  0  0  0  0
  146.9722  141.8641  152.3725 H   0  0  0  0  0  0  0  0  0  0  0  0
  145.3293  139.9873  152.9892 H   0  0  0  0  0  0  0  0  0  0  0  0
  1  2  1  0  0  0  0
  1 24  1  0  0  0  0
  1 25  1  0  0  0  0
  1 26  1  0  0  0  0
  2  3  1  0  0  0  0
  2 13  1  0  0  0  0
  2 27  1  0  0  0  0
  3  4  1  0  0  0  0
  3 28  1  0  0  0  0
  4  5  2  0  0  0  0
  4  6  1  0  0  0  0
  6  7  1  0  0  0  0
  6 29  1  0  0  0  0
  7 12  1  0  0  0  0
  7  8  2  0  0  0  0
  8  9  1  0  0  0  0
  8 30  1  0  0  0  0
  9 10  2  0  0  0  0
  9 31  1  0  0  0  0
 10 11  1  0  0  0  0
 11 12  2  0  0  0  0
 11 32  1  0  0  0  0
 12 33  1  0  0  0  0
 13 23  1  0  0  0  0
 13 14  1  0  0  0  0
 13 20  1  0  0  0  0
 14 19  1  0  0  0  0
 14 15  1  0  0  0  0
 14 50  1  0  0  0  0
 15 16  1  0  0  0  0
 15 34  1  0  0  0  0
 15 35  1  0  0  0  0
 16 17  1  0  0  0  0
 16 36  1  0  0  0  0
 16 37  1  0  0  0  0
 17 18  1  0  0  0  0
 18 19  1  0  0  0  0
 18 38  1  0  0  0  0
 18 39  1  0  0  0  0
 19 40  1  0  0  0  0
 19 41  1  0  0  0  0
 20 21  1  0  0  0  0
 20 42  1  0  0  0  0
 20 43  1  0  0  0  0
 21 22  1  0  0  0  0
 21 44  1  0  0  0  0
 21 45  1  0  0  0  0
 22 23  1  0  0  0  0
 22 46  1  0  0  0  0
 22 47  1  0  0  0  0
 23 48  1  0  0  0  0
 23 49  1  0  0  0  0
M  CHG  1  14   1
M  END
> <s_m_source_file>
AV-unprocessed.smi

> <i_m_source_file_index>
702

> <i_lp_mmshare_version>
43012

> <i_f3d_flags>
0

> <s_epik_input>
W0NIMl0xW0NIMl1PW0NIMl1bQ0gyXU4xQzIoW0NIMl1bQ0gyXVtDSDJdW0NIMl0yKVtDQEhdKFtDSDNdKVtOSF1DKD1PKVtOSF1jM1tjSF1bY0hdbltjSF1bY0hdMw==

> <s_epik_cmdline>
J2VwaWtfcHl0aG9uJywgJy1waCcsICc3LjAnLCAnLXRuJywgJzgnLCAnLW1hJywgJzIwMCcsICctbWV0YWxfYmluZGluZycsICctaW1hZScsICc8aW5maWxlLm1hZT4nLCAnLW9tYWUnLCAnPG91dGZpbGUubWFlPic=

> <r_epik_Ionization_Penalty>
0.42559

> <r_epik_Ionization_Penalty_Charging>
0.324387

> <r_epik_Ionization_Penalty_Neutral>
0.101203

> <r_epik_State_Penalty>
0.407162

> <r_epik_Charging_Adjusted_Penalty>
0.731549

> <i_epik_Tot_Q>
1

> <i_epik_Tot_abs_Q>
1

> <r_epik_Metal_State_Penalty>
0.398289

> <b_epik_Metal_Only>
0

> <s_lp_Force_Field>
OPLS_2005

> <r_lp_Energy>
61.5271

> <b_lp_Chiralities_Consistent>
1

> <s_lp_Variant>
AV-unprocessed.smi:702-1

> <Gold.Version>
5.8.1

> <Gold.Id.Protein>
6NUR|6NUR_protein|mol2

> <Gold.PLP.Fitness>
47.8799

> <Gold.PLP.PLP>
-39.4483

> <Gold.PLP.part.hbond>
-2.0000

> <Gold.PLP.part.metal>
0.0000

> <Gold.PLP.part.buried>
-3.4170

> <Gold.PLP.part.nonpolar>
-35.2915

> <Gold.PLP.part.repulsive>
0.3359

> <Gold.PLP.ligand.clash>
0.0000

> <Gold.PLP.ligand.torsion>
0.3691

> <Gold.PLP.Chemscore.Hbond>
3.0000

> <Gold.PLP.Chemscore.CHOScore>
0.0000

> <Gold.PLP.Chemscore.Metal>
0.0000

> <Gold.Chemscore.Hbonds>
donor molecule, donor type, donor heavy atom, donor atom, acceptor molecule, acceptor atom, score
      L1  H     6    29       P1  8028  1.00
      L1  H    14    50       P1 10175  2.00

> <Gold.PLP.Chemscore.Internal.Correction>
0.1698

> <Gold.Rescore>
     Score         DG    S(hbond)    S(metal)    S(lipo)     H(rot)  DE(clash)    DE(int)     intcor
     17.65     -21.12       1.99        0.00     108.55       1.45       0.17       3.29       ----

> <Gold.Chemscore.Fitness>
17.6526

> <Gold.Chemscore.DG>
-21.1156

> <Gold.Chemscore.ZeroCoef>
-5.4800

> <Gold.Chemscore.Hbond>
1.9906

> <Gold.Chemscore.Metal>
0.0000

> <Gold.Chemscore.Lipo>
108.5467

> <Gold.Chemscore.Internal_Hbond>
0.0000

> <Gold.Chemscore.DEClash>
0.1722

> <Gold.Chemscore.DEInternal>
3.2908

> <Gold.Chemscore.Rot>
1.4504

> <Gold.Chemscore.Internal.Correction>
   9.000000E+99

> <Gold.Chemscore.Hbonds>
donor molecule, donor type, donor heavy atom, donor atom, acceptor molecule, acceptor atom, score
      L1  H     6    29       P1  8028  0.95
      L1  H    14    50       P1 10175  1.00

> <Gold.Chemscore.Hbond.Weighted>
-6.6485

> <Gold.Chemscore.Metal.Weighted>
-0.0000

> <Gold.Chemscore.Lipo.Weighted>
-12.7000

> <Gold.Chemscore.Internal_Hbond.Weighted>
0.0000

> <Gold.Chemscore.DEClash.Weighted>
0.1722

> <Gold.Chemscore.DEInternal.Weighted>
3.2908

> <Gold.Chemscore.Rot.Weighted>
3.7129

> <Gold.Chemscore.Internal.Correction.Weighted>
   9.000000E+99

> <Gold.Protein.RotatedTorsions>
[ 6907 6896 6895 6894 ] final  112.96 input  -60.11 | X-H torsion
[ 7974 7965 7964 7962 ] final  -27.91 input  175.53 | X-H torsion
[ 8008 7997 7996 7995 ] final  -37.20 input   59.86 | X-H torsion
[ 10167 10162 10161 10158 ] final -162.20 input  -65.29 | X-H torsion
[ 10718 10713 10712 10709 ] final -173.45 input   66.30 | X-H torsion
[ 10763 10752 10751 10750 ] final  -34.94 input  -60.55 | X-H torsion
[ 11005 11000 10999 10996 ] final  175.72 input  -57.11 | X-H torsion

> <Gold.Protein.ActiveResidues>
 VAL166  LYS551  ARG553  GLY616  TRP617  ASP618  TYR619  PRO620  LYS621  CYS622 
 ASP623  PHE694  ASN695  SER759  ASP760  ASP761  ALA762  ILE779  LEU786  VAL792 
 PHE793  MET794  SER795  GLU796  ALA797  LYS798  CYS799  TRP800  GLU811  SER814 

> <Gold.Protein.RotatedAtoms>
  152.4887  133.8443  159.7168 H   0  0  0  0  0  0  0  0  0  0  0  0  # atno 6907 bound_to 6896
  150.8997  133.7125  159.2889 H   0  0  0  0  0  0  0  0  0  0  0  0  # atno 6908 bound_to 6896
  151.4570  135.1039  159.9766 H   0  0  0  0  0  0  0  0  0  0  0  0  # atno 6909 bound_to 6896
  146.1325  140.5214  142.8687 H   0  0  0  0  0  0  0  0  0  0  0  0  # atno 7974 bound_to 7965
  154.4058  140.1610  156.2498 H   0  0  0  0  0  0  0  0  0  0  0  0  # atno 8008 bound_to 7997
  155.9129  140.3426  155.6090 H   0  0  0  0  0  0  0  0  0  0  0  0  # atno 8009 bound_to 7997
  155.7314  140.0781  157.2277 H   0  0  0  0  0  0  0  0  0  0  0  0  # atno 8010 bound_to 7997
  139.6409  144.0261  152.2091 H   0  0  0  0  0  0  0  0  0  0  0  0  # atno 10167 bound_to 10162
  156.7705  130.9447  151.3120 H   0  0  0  0  0  0  0  0  0  0  0  0  # atno 10718 bound_to 10713
  153.8549  135.6845  153.4788 H   0  0  0  0  0  0  0  0  0  0  0  0  # atno 10763 bound_to 10752
  153.1375  135.4671  154.9443 H   0  0  0  0  0  0  0  0  0  0  0  0  # atno 10764 bound_to 10752
  154.7785  135.3261  154.7989 H   0  0  0  0  0  0  0  0  0  0  0  0  # atno 10765 bound_to 10752
  140.3653  134.7077  157.4358 H   0  0  0  0  0  0  0  0  0  0  0  0  # atno 11005 bound_to 11000
  144.7705  140.5627  143.6673 LP  0  0  0  0  0  0  0  0  0  0  0  0  # atno 17320 bound_to 7965
  145.5229  139.1476  143.3542 LP  0  0  0  0  0  0  0  0  0  0  0  0  # atno 17321 bound_to 7965
  139.9950  144.6334  150.7780 LP  0  0  0  0  0  0  0  0  0  0  0  0  # atno 17342 bound_to 10162
  140.7490  143.2932  151.3274 LP  0  0  0  0  0  0  0  0  0  0  0  0  # atno 17343 bound_to 10162
  157.6693  130.9036  150.0003 LP  0  0  0  0  0  0  0  0  0  0  0  0  # atno 17370 bound_to 10713
  156.1281  130.3644  149.9777 LP  0  0  0  0  0  0  0  0  0  0  0  0  # atno 17371 bound_to 10713
  140.0594  134.6017  155.8766 LP  0  0  0  0  0  0  0  0  0  0  0  0  # atno 17394 bound_to 11000
  141.1971  133.6595  156.5727 LP  0  0  0  0  0  0  0  0  0  0  0  0  # atno 17395 bound_to 11000

$$$$
