AV-unprocessed.smi:2875|AV-procd|sdf|11040|dock5
  -GOLD-   2272015503D 1   1.00000     0.00000
 Structure written by MMmdl.
 40 40  0  0  0  0  0  0  0  0  1 V2000
  151.7693  145.5354  159.8004 C   0  0  0  0  0  0  0  0  0  0  0  0
  151.7853  144.1379  160.4275 C   0  0  0  0  0  0  0  0  0  0  0  0
  152.7570  143.1872  159.7088 C   0  0  0  0  0  0  0  0  0  0  0  0
  152.0856  142.0512  159.1085 N   0  0  0  0  0  0  0  0  0  0  0  0
  151.1008  142.1665  158.1229 C   0  0  0  0  0  0  0  0  0  0  0  0
  150.7584  143.4401  157.6921 N   0  0  0  0  0  0  0  0  0  0  0  0
  150.4817  141.0685  157.5936 C   0  0  0  0  0  0  0  0  0  0  0  0
  149.5180  141.1848  156.5731 N   0  0  0  0  0  0  0  0  0  0  0  0
  148.1905  141.6929  156.9570 C   0  0  0  0  0  0  0  0  0  0  0  0
  147.1267  140.5833  156.9746 C   0  0  0  0  0  0  0  0  0  0  0  0
  147.3224  139.7633  158.1142 O   0  0  0  0  0  0  0  0  0  0  0  0
  146.5790  138.5594  158.0516 C   0  0  0  0  0  0  0  0  0  0  0  0
  149.7670  140.7866  155.2980 C   0  0  0  0  0  0  0  0  0  0  0  0
  148.6977  140.9957  154.2191 C   0  0  0  0  0  0  0  0  0  0  0  0
  150.8376  140.2813  154.9593 O   0  0  0  0  0  0  0  0  0  0  0  0
  150.8655  139.7160  158.0239 C   0  0  0  0  0  0  0  0  0  0  0  0
  150.3840  138.6640  157.6049 O   0  0  0  0  0  0  0  0  0  0  0  0
  151.8718  139.6701  158.9852 N   0  0  0  0  0  0  0  0  0  0  0  0
  152.5083  140.7723  159.5440 C   0  0  0  0  0  0  0  0  0  0  0  0
  153.3989  140.5967  160.3762 O   0  0  0  0  0  0  0  0  0  0  0  0
  152.1698  138.7576  159.2977 H   0  0  0  0  0  0  0  0  0  0  0  0
  151.0692  146.1878  160.3225 H   0  0  0  0  0  0  0  0  0  0  0  0
  151.4679  145.4929  158.7535 H   0  0  0  0  0  0  0  0  0  0  0  0
  152.7552  145.9987  159.8478 H   0  0  0  0  0  0  0  0  0  0  0  0
  152.0603  144.2201  161.4797 H   0  0  0  0  0  0  0  0  0  0  0  0
  150.7766  143.7241  160.4042 H   0  0  0  0  0  0  0  0  0  0  0  0
  153.3292  143.6962  158.9312 H   0  0  0  0  0  0  0  0  0  0  0  0
  153.5071  142.7890  160.3915 H   0  0  0  0  0  0  0  0  0  0  0  0
  151.1996  144.2661  158.0710 H   0  0  0  0  0  0  0  0  0  0  0  0
  150.0053  143.5956  157.0373 H   0  0  0  0  0  0  0  0  0  0  0  0
  148.2458  142.1652  157.9393 H   0  0  0  0  0  0  0  0  0  0  0  0
  147.8678  142.4809  156.2751 H   0  0  0  0  0  0  0  0  0  0  0  0
  146.1216  141.0073  156.9728 H   0  0  0  0  0  0  0  0  0  0  0  0
  147.2214  139.9742  156.0747 H   0  0  0  0  0  0  0  0  0  0  0  0
  146.7627  137.9687  158.9488 H   0  0  0  0  0  0  0  0  0  0  0  0
  146.8703  137.9611  157.1874 H   0  0  0  0  0  0  0  0  0  0  0  0
  145.5083  138.7604  157.9953 H   0  0  0  0  0  0  0  0  0  0  0  0
  147.8687  140.3018  154.3569 H   0  0  0  0  0  0  0  0  0  0  0  0
  149.1159  140.8191  153.2276 H   0  0  0  0  0  0  0  0  0  0  0  0
  148.3108  142.0151  154.2367 H   0  0  0  0  0  0  0  0  0  0  0  0
  1  2  1  0  0  0  0
  1 22  1  0  0  0  0
  1 23  1  0  0  0  0
  1 24  1  0  0  0  0
  2  3  1  0  0  0  0
  2 25  1  0  0  0  0
  2 26  1  0  0  0  0
  3  4  1  0  0  0  0
  3 27  1  0  0  0  0
  3 28  1  0  0  0  0
  4 19  1  0  0  0  0
  4  5  1  0  0  0  0
  5  6  1  0  0  0  0
  5  7  2  0  0  0  0
  6 29  1  0  0  0  0
  6 30  1  0  0  0  0
  7  8  1  0  0  0  0
  7 16  1  0  0  0  0
  8  9  1  0  0  0  0
  8 13  1  0  0  0  0
  9 10  1  0  0  0  0
  9 31  1  0  0  0  0
  9 32  1  0  0  0  0
 10 11  1  0  0  0  0
 10 33  1  0  0  0  0
 10 34  1  0  0  0  0
 11 12  1  0  0  0  0
 12 35  1  0  0  0  0
 12 36  1  0  0  0  0
 12 37  1  0  0  0  0
 13 14  1  0  0  0  0
 13 15  2  0  0  0  0
 14 38  1  0  0  0  0
 14 39  1  0  0  0  0
 14 40  1  0  0  0  0
 16 17  2  0  0  0  0
 16 18  1  0  0  0  0
 18 21  1  0  0  0  0
 18 19  1  0  0  0  0
 19 20  2  0  0  0  0
M  END
> <s_m_source_file>
AV-unprocessed.smi

> <i_m_source_file_index>
2875

> <i_lp_mmshare_version>
43012

> <i_f3d_flags>
0

> <s_epik_input>
W0NIM11bQ0gyXVtDSDJdbjFjKFtOSDJdKWMoYyg9TylbbkhdYzE9TylOKEMoPU8pW0NIM10pW0NIMl1bQ0gyXU9bQ0gzXQ==

> <s_epik_cmdline>
J2VwaWtfcHl0aG9uJywgJy1waCcsICc3LjAnLCAnLXRuJywgJzgnLCAnLW1hJywgJzIwMCcsICctbWV0YWxfYmluZGluZycsICctaW1hZScsICc8aW5maWxlLm1hZT4nLCAnLW9tYWUnLCAnPG91dGZpbGUubWFlPic=

> <r_lp_tautomer_probability>
1

> <r_epik_Ionization_Penalty>
1.36284e-05

> <r_epik_Ionization_Penalty_Charging>
6.32507e-06

> <r_epik_Ionization_Penalty_Neutral>
7.30329e-06

> <r_epik_State_Penalty>
-0

> <r_epik_Charging_Adjusted_Penalty>
6.32507e-06

> <i_epik_Tot_Q>
0

> <i_epik_Tot_abs_Q>
0

> <r_epik_Metal_State_Penalty>
0.00594323

> <b_epik_Metal_Only>
0

> <s_epik_Chemistry_Notes>
This compound has an imine and may undergo hydrolysis.

> <s_lp_Force_Field>
OPLS_2005

> <r_lp_Energy>
24.7155

> <b_lp_Chiralities_Consistent>
1

> <s_lp_Variant>
AV-unprocessed.smi:2875-1

> <Gold.Version>
5.8.1

> <Gold.Id.Protein>
6NUR|6NUR_protein|mol2

> <Gold.PLP.Fitness>
40.0826

> <Gold.PLP.PLP>
-35.6655

> <Gold.PLP.part.hbond>
-3.0000

> <Gold.PLP.part.metal>
0.0000

> <Gold.PLP.part.buried>
-5.8643

> <Gold.PLP.part.nonpolar>
-27.7868

> <Gold.PLP.part.repulsive>
0.2061

> <Gold.PLP.ligand.clash>
0.0000

> <Gold.PLP.ligand.torsion>
1.9348

> <Gold.PLP.Chemscore.Hbond>
1.9913

> <Gold.PLP.Chemscore.CHOScore>
0.0000

> <Gold.PLP.Chemscore.Metal>
0.0000

> <Gold.Chemscore.Hbonds>
donor molecule, donor type, donor heavy atom, donor atom, acceptor molecule, acceptor atom, score
      L1  H     6    30       P1  8028  0.84
      P1  H  7989  7998       L1    15  1.00

> <Gold.PLP.Chemscore.Internal.Correction>
2.3129

> <Gold.Rescore>
     Score         DG    S(hbond)    S(metal)    S(lipo)     H(rot)  DE(clash)    DE(int)     intcor
     11.15     -13.15       1.96        0.00      54.93       2.08       0.01       1.99       ----

> <Gold.Chemscore.Fitness>
11.1505

> <Gold.Chemscore.DG>
-13.1510

> <Gold.Chemscore.ZeroCoef>
-5.4800

> <Gold.Chemscore.Hbond>
1.9640

> <Gold.Chemscore.Metal>
0.0000

> <Gold.Chemscore.Lipo>
54.9260

> <Gold.Chemscore.Internal_Hbond>
0.0000

> <Gold.Chemscore.DEClash>
0.0120

> <Gold.Chemscore.DEInternal>
1.9885

> <Gold.Chemscore.Rot>
2.0763

> <Gold.Chemscore.Internal.Correction>
   9.000000E+99

> <Gold.Chemscore.Hbonds>
donor molecule, donor type, donor heavy atom, donor atom, acceptor molecule, acceptor atom, score
      L1  H     6    30       P1  8028  0.81
      P1  H  7989  7998       L1    15  0.96

> <Gold.Chemscore.Hbond.Weighted>
-6.5599

> <Gold.Chemscore.Metal.Weighted>
-0.0000

> <Gold.Chemscore.Lipo.Weighted>
-6.4263

> <Gold.Chemscore.Internal_Hbond.Weighted>
0.0000

> <Gold.Chemscore.DEClash.Weighted>
0.0120

> <Gold.Chemscore.DEInternal.Weighted>
1.9885

> <Gold.Chemscore.Rot.Weighted>
5.3153

> <Gold.Chemscore.Internal.Correction.Weighted>
   9.000000E+99

> <Gold.Protein.RotatedTorsions>
[ 6907 6896 6895 6894 ] final  -88.60 input  -60.11 | X-H torsion
[ 7974 7965 7964 7962 ] final  -67.31 input  175.53 | X-H torsion
[ 8008 7997 7996 7995 ] final   91.63 input   59.86 | X-H torsion
[ 10167 10162 10161 10158 ] final -161.66 input  -65.29 | X-H torsion
[ 10718 10713 10712 10709 ] final  -80.54 input   66.30 | X-H torsion
[ 10763 10752 10751 10750 ] final   74.97 input  -60.55 | X-H torsion
[ 11005 11000 10999 10996 ] final -131.59 input  -57.11 | X-H torsion

> <Gold.Protein.ActiveResidues>
 VAL166  LYS551  ARG553  GLY616  TRP617  ASP618  TYR619  PRO620  LYS621  CYS622 
 ASP623  PHE694  ASN695  SER759  ASP760  ASP761  ALA762  ILE779  LEU786  VAL792 
 PHE793  MET794  SER795  GLU796  ALA797  LYS798  CYS799  TRP800  GLU811  SER814 

> <Gold.Protein.RotatedAtoms>
  150.6869  134.2716  159.4590 H   0  0  0  0  0  0  0  0  0  0  0  0  # atno 6907 bound_to 6896
  152.0638  134.9575  160.0584 H   0  0  0  0  0  0  0  0  0  0  0  0  # atno 6908 bound_to 6896
  152.0991  133.4206  159.4616 H   0  0  0  0  0  0  0  0  0  0  0  0  # atno 6909 bound_to 6896
  145.7308  140.8998  143.0581 H   0  0  0  0  0  0  0  0  0  0  0  0  # atno 7974 bound_to 7965
  156.0260  140.3335  155.7089 H   0  0  0  0  0  0  0  0  0  0  0  0  # atno 8008 bound_to 7997
  155.5953  140.0650  157.2765 H   0  0  0  0  0  0  0  0  0  0  0  0  # atno 8009 bound_to 7997
  154.4334  140.1820  156.1105 H   0  0  0  0  0  0  0  0  0  0  0  0  # atno 8010 bound_to 7997
  139.6448  144.0192  152.2119 H   0  0  0  0  0  0  0  0  0  0  0  0  # atno 10167 bound_to 10162
  156.0068  130.4577  150.3816 H   0  0  0  0  0  0  0  0  0  0  0  0  # atno 10718 bound_to 10713
  153.0623  135.5006  154.8121 H   0  0  0  0  0  0  0  0  0  0  0  0  # atno 10763 bound_to 10752
  154.6901  135.2983  154.9494 H   0  0  0  0  0  0  0  0  0  0  0  0  # atno 10764 bound_to 10752
  154.0252  135.6737  153.4828 H   0  0  0  0  0  0  0  0  0  0  0  0  # atno 10765 bound_to 10752
  140.9245  134.1400  157.4286 H   0  0  0  0  0  0  0  0  0  0  0  0  # atno 11005 bound_to 11000
  144.6893  139.9328  143.7472 LP  0  0  0  0  0  0  0  0  0  0  0  0  # atno 17320 bound_to 7965
  146.0540  139.3538  143.0622 LP  0  0  0  0  0  0  0  0  0  0  0  0  # atno 17321 bound_to 7965
  139.9891  144.6374  150.7831 LP  0  0  0  0  0  0  0  0  0  0  0  0  # atno 17342 bound_to 10162
  140.7509  143.2964  151.3195 LP  0  0  0  0  0  0  0  0  0  0  0  0  # atno 17343 bound_to 10162
  157.1895  131.0412  151.2707 LP  0  0  0  0  0  0  0  0  0  0  0  0  # atno 17370 bound_to 10713
  157.4074  130.7366  149.6813 LP  0  0  0  0  0  0  0  0  0  0  0  0  # atno 17371 bound_to 10713
  139.8782  134.9983  156.5894 LP  0  0  0  0  0  0  0  0  0  0  0  0  # atno 17394 bound_to 11000
  140.7944  133.8556  155.8673 LP  0  0  0  0  0  0  0  0  0  0  0  0  # atno 17395 bound_to 11000

$$$$
