AV-unprocessed.smi:264|AV-procd|sdf|2007|dock7
  -GOLD-   2262021203D 1   1.00000     0.00000
 Structure written by MMmdl.
 52 56  0  0  0  0  0  0  0  0  1 V2000
  152.3755  135.8078  156.6088 C   0  0  0  0  0  0  0  0  0  0  0  0
  150.8752  135.5414  156.4098 C   0  0  2  0  0  0  0  0  0  0  0  0
  150.7149  134.1439  156.1781 O   0  0  0  0  0  0  0  0  0  0  0  0
  149.6046  133.9419  155.3221 C   0  0  0  0  0  0  0  0  0  0  0  0
  149.7435  135.0855  154.3292 C   0  0  0  0  0  0  0  0  0  0  0  0
  150.1905  136.2509  155.2071 C   0  0  1  0  0  0  0  0  0  0  0  0
  149.0271  136.8971  155.6970 O   0  0  0  0  0  0  0  0  0  0  0  0
  151.0409  137.3070  154.4530 C   0  0  0  0  0  0  0  0  0  0  0  0
  151.4005  138.4547  155.2727 N   0  0  0  0  0  0  0  0  0  0  0  0
  152.6276  138.7051  155.8438 C   0  0  0  0  0  0  0  0  0  0  0  0
  152.7040  139.8067  156.5393 N   0  0  0  0  0  0  0  0  0  0  0  0
  151.4366  140.3669  156.4294 C   0  0  0  0  0  0  0  0  0  0  0  0
  150.8296  141.5518  156.9339 C   0  0  0  0  0  0  0  0  0  0  0  0
  151.5019  142.4543  157.6931 N   0  0  0  0  0  0  0  0  0  0  0  0
  151.6901  143.7590  157.0708 C   0  0  0  0  0  0  0  0  0  0  0  0
  152.7401  144.5623  157.8502 C   0  0  0  0  0  0  0  0  0  0  0  0
  152.3621  144.6562  159.2227 O   0  0  0  0  0  0  0  0  0  0  0  0
  152.2036  143.3946  159.8795 C   0  0  1  0  0  0  0  0  0  0  0  0
  153.5531  142.6928  160.0772 C   0  0  0  0  0  0  0  0  0  0  0  0
  153.5373  142.2721  161.5404 C   0  0  0  0  0  0  0  0  0  0  0  0
  152.8517  143.3463  162.1551 O   0  0  0  0  0  0  0  0  0  0  0  0
  151.7414  143.6571  161.3259 C   0  0  0  0  0  0  0  0  0  0  0  0
  151.1660  142.5429  159.1120 C   0  0  0  0  0  0  0  0  0  0  0  0
  149.5214  141.7623  156.6257 N   0  0  0  0  0  0  0  0  0  0  0  0
  148.8560  140.8866  155.8673 C   0  0  0  0  0  0  0  0  0  0  0  0
  149.2960  139.7508  155.3231 N   0  0  0  0  0  0  0  0  0  0  0  0
  150.6036  139.5258  155.6379 C   0  0  0  0  0  0  0  0  0  0  0  0
  152.5711  136.8617  156.8067 H   0  0  0  0  0  0  0  0  0  0  0  0
  152.9550  135.5097  155.7346 H   0  0  0  0  0  0  0  0  0  0  0  0
  152.7554  135.2414  157.4594 H   0  0  0  0  0  0  0  0  0  0  0  0
  150.3577  135.7836  157.3398 H   0  0  0  0  0  0  0  0  0  0  0  0
  149.6365  132.9618  154.8456 H   0  0  0  0  0  0  0  0  0  0  0  0
  148.6777  134.0228  155.8917 H   0  0  0  0  0  0  0  0  0  0  0  0
  150.5283  134.8314  153.6159 H   0  0  0  0  0  0  0  0  0  0  0  0
  148.8307  135.2802  153.7644 H   0  0  0  0  0  0  0  0  0  0  0  0
  149.2603  137.7753  155.9570 H   0  0  0  0  0  0  0  0  0  0  0  0
  151.9616  136.8568  154.0797 H   0  0  0  0  0  0  0  0  0  0  0  0
  150.5039  137.6797  153.5806 H   0  0  0  0  0  0  0  0  0  0  0  0
  153.4685  138.0362  155.7318 H   0  0  0  0  0  0  0  0  0  0  0  0
  152.0022  143.6686  156.0309 H   0  0  0  0  0  0  0  0  0  0  0  0
  150.7380  144.2915  157.0701 H   0  0  0  0  0  0  0  0  0  0  0  0
  153.7250  144.1046  157.7510 H   0  0  0  0  0  0  0  0  0  0  0  0
  152.8201  145.5685  157.4390 H   0  0  0  0  0  0  0  0  0  0  0  0
  153.7147  141.8528  159.4007 H   0  0  0  0  0  0  0  0  0  0  0  0
  154.3712  143.3990  159.9291 H   0  0  0  0  0  0  0  0  0  0  0  0
  152.9777  141.3454  161.6791 H   0  0  0  0  0  0  0  0  0  0  0  0
  154.5372  142.1408  161.9540 H   0  0  0  0  0  0  0  0  0  0  0  0
  151.4087  144.6829  161.4868 H   0  0  0  0  0  0  0  0  0  0  0  0
  150.9170  142.9975  161.6019 H   0  0  0  0  0  0  0  0  0  0  0  0
  150.1773  142.9940  159.2101 H   0  0  0  0  0  0  0  0  0  0  0  0
  151.1090  141.5445  159.5488 H   0  0  0  0  0  0  0  0  0  0  0  0
  147.8235  141.1319  155.6670 H   0  0  0  0  0  0  0  0  0  0  0  0
  1  2  1  0  0  0  0
  1 28  1  0  0  0  0
  1 29  1  0  0  0  0
  1 30  1  0  0  0  0
  2  6  1  0  0  0  0
  2  3  1  0  0  0  0
  2 31  1  0  0  0  0
  3  4  1  0  0  0  0
  4  5  1  0  0  0  0
  4 32  1  0  0  0  0
  4 33  1  0  0  0  0
  5  6  1  0  0  0  0
  5 34  1  0  0  0  0
  5 35  1  0  0  0  0
  6  7  1  0  0  0  0
  6  8  1  0  0  0  0
  7 36  1  0  0  0  0
  8  9  1  0  0  0  0
  8 37  1  0  0  0  0
  8 38  1  0  0  0  0
  9 27  1  0  0  0  0
  9 10  1  0  0  0  0
 10 11  2  0  0  0  0
 10 39  1  0  0  0  0
 11 12  1  0  0  0  0
 12 27  2  0  0  0  0
 12 13  1  0  0  0  0
 13 14  1  0  0  0  0
 13 24  2  0  0  0  0
 14 23  1  0  0  0  0
 14 15  1  0  0  0  0
 15 16  1  0  0  0  0
 15 40  1  0  0  0  0
 15 41  1  0  0  0  0
 16 17  1  0  0  0  0
 16 42  1  0  0  0  0
 16 43  1  0  0  0  0
 17 18  1  0  0  0  0
 18 22  1  0  0  0  0
 18 19  1  0  0  0  0
 18 23  1  0  0  0  0
 19 20  1  0  0  0  0
 19 44  1  0  0  0  0
 19 45  1  0  0  0  0
 20 21  1  0  0  0  0
 20 46  1  0  0  0  0
 20 47  1  0  0  0  0
 21 22  1  0  0  0  0
 22 48  1  0  0  0  0
 22 49  1  0  0  0  0
 23 50  1  0  0  0  0
 23 51  1  0  0  0  0
 24 25  1  0  0  0  0
 25 26  2  0  0  0  0
 25 52  1  0  0  0  0
 26 27  1  0  0  0  0
M  END
> <s_m_source_file>
AV-unprocessed.smi

> <i_m_source_file_index>
264

> <i_lp_mmshare_version>
43012

> <i_f3d_flags>
0

> <s_epik_input>
W0NIMl0xW0NIMl1PW0NAQEhdKFtDSDNdKVtDQEBdMShbT0hdKVtDSDJdbihbY0hdbjIpYyhjMjMpbltjSF1uYzNOKFtDSDJdNClbQ0gyXVtDSDJdT1tDQF00NVtDSDJdW0NIMl1PW0NIMl01

> <s_epik_cmdline>
J2VwaWtfcHl0aG9uJywgJy1waCcsICc3LjAnLCAnLXRuJywgJzgnLCAnLW1hJywgJzIwMCcsICctbWV0YWxfYmluZGluZycsICctaW1hZScsICc8aW5maWxlLm1hZT4nLCAnLW9tYWUnLCAnPG91dGZpbGUubWFlPic=

> <r_lp_tautomer_probability>
1

> <r_epik_Ionization_Penalty>
0.00539389

> <r_epik_Ionization_Penalty_Charging>
0

> <r_epik_Ionization_Penalty_Neutral>
0.00539389

> <r_epik_State_Penalty>
0.00375441

> <r_epik_Charging_Adjusted_Penalty>
0.00375441

> <i_epik_Tot_Q>
0

> <i_epik_Tot_abs_Q>
0

> <r_epik_Metal_State_Penalty>
-0

> <b_epik_Metal_Only>
0

> <s_lp_Force_Field>
OPLS_2005

> <r_lp_Energy>
54.1721

> <b_lp_Chiralities_Consistent>
1

> <s_lp_Variant>
AV-unprocessed.smi:264-1

> <Gold.Version>
5.8.1

> <Gold.Id.Protein>
6NUR|6NUR_protein|mol2

> <Gold.PLP.Fitness>
43.4640

> <Gold.PLP.PLP>
-40.9327

> <Gold.PLP.part.hbond>
-1.0000

> <Gold.PLP.part.metal>
0.0000

> <Gold.PLP.part.buried>
-3.2715

> <Gold.PLP.part.nonpolar>
-38.5449

> <Gold.PLP.part.repulsive>
0.3649

> <Gold.PLP.ligand.clash>
0.0000

> <Gold.PLP.ligand.torsion>
0.3778

> <Gold.PLP.Chemscore.Hbond>
1.0000

> <Gold.PLP.Chemscore.CHOScore>
0.0000

> <Gold.PLP.Chemscore.Metal>
0.0000

> <Gold.Chemscore.Hbonds>
donor molecule, donor type, donor heavy atom, donor atom, acceptor molecule, acceptor atom, score
      P1  H  7997  8008       L1    11  0.95

> <Gold.PLP.Chemscore.Internal.Correction>
0.2869

> <Gold.Rescore>
     Score         DG    S(hbond)    S(metal)    S(lipo)     H(rot)  DE(clash)    DE(int)     intcor
     12.21     -14.76       0.48        0.00     111.83       2.11       0.06       2.49       ----

> <Gold.Chemscore.Fitness>
12.2138

> <Gold.Chemscore.DG>
-14.7632

> <Gold.Chemscore.ZeroCoef>
-5.4800

> <Gold.Chemscore.Hbond>
0.4765

> <Gold.Chemscore.Metal>
0.0000

> <Gold.Chemscore.Lipo>
111.8266

> <Gold.Chemscore.Internal_Hbond>
0.0000

> <Gold.Chemscore.DEClash>
0.0629

> <Gold.Chemscore.DEInternal>
2.4865

> <Gold.Chemscore.Rot>
2.1063

> <Gold.Chemscore.Internal.Correction>
   9.000000E+99

> <Gold.Chemscore.Hbonds>
donor molecule, donor type, donor heavy atom, donor atom, acceptor molecule, acceptor atom, score
      P1  H  7997  8008       L1    11  0.22

> <Gold.Chemscore.Hbond.Weighted>
-1.5916

> <Gold.Chemscore.Metal.Weighted>
-0.0000

> <Gold.Chemscore.Lipo.Weighted>
-13.0837

> <Gold.Chemscore.Internal_Hbond.Weighted>
0.0000

> <Gold.Chemscore.DEClash.Weighted>
0.0629

> <Gold.Chemscore.DEInternal.Weighted>
2.4865

> <Gold.Chemscore.Rot.Weighted>
5.3921

> <Gold.Chemscore.Internal.Correction.Weighted>
   9.000000E+99

> <Gold.Protein.RotatedTorsions>
[ 6907 6896 6895 6894 ] final -121.09 input  -60.11 | X-H torsion
[ 7974 7965 7964 7962 ] final  -40.03 input  175.53 | X-H torsion
[ 8008 7997 7996 7995 ] final  -43.34 input   59.86 | X-H torsion
[ 10167 10162 10161 10158 ] final -101.30 input  -65.29 | X-H torsion
[ 10718 10713 10712 10709 ] final -139.33 input   66.30 | X-H torsion
[ 10763 10752 10751 10750 ] final    4.37 input  -60.55 | X-H torsion
[ 11005 11000 10999 10996 ] final  150.18 input  -57.11 | X-H torsion

> <Gold.Protein.ActiveResidues>
 VAL166  LYS551  ARG553  GLY616  TRP617  ASP618  TYR619  PRO620  LYS621  CYS622 
 ASP623  PHE694  ASN695  SER759  ASP760  ASP761  ALA762  ILE779  LEU786  VAL792 
 PHE793  MET794  SER795  GLU796  ALA797  LYS798  CYS799  TRP800  GLU811  SER814 

> <Gold.Protein.RotatedAtoms>
  150.8452  133.7873  159.3045 H   0  0  0  0  0  0  0  0  0  0  0  0  # atno 6907 bound_to 6896
  151.5562  135.1065  159.9971 H   0  0  0  0  0  0  0  0  0  0  0  0  # atno 6908 bound_to 6896
  152.4507  133.7581  159.6788 H   0  0  0  0  0  0  0  0  0  0  0  0  # atno 6909 bound_to 6896
  146.0342  140.6693  142.9118 H   0  0  0  0  0  0  0  0  0  0  0  0  # atno 7974 bound_to 7965
  154.3997  140.1450  156.3504 H   0  0  0  0  0  0  0  0  0  0  0  0  # atno 8008 bound_to 7997
  155.8275  140.3467  155.5530 H   0  0  0  0  0  0  0  0  0  0  0  0  # atno 8009 bound_to 7997
  155.8224  140.0900  157.1832 H   0  0  0  0  0  0  0  0  0  0  0  0  # atno 8010 bound_to 7997
  140.2427  143.3527  152.0787 H   0  0  0  0  0  0  0  0  0  0  0  0  # atno 10167 bound_to 10162
  156.3095  130.7474  151.1546 H   0  0  0  0  0  0  0  0  0  0  0  0  # atno 10718 bound_to 10713
  153.2720  135.6933  153.7471 H   0  0  0  0  0  0  0  0  0  0  0  0  # atno 10763 bound_to 10752
  153.6490  135.3380  155.3095 H   0  0  0  0  0  0  0  0  0  0  0  0  # atno 10764 bound_to 10752
  154.8467  135.4450  154.1746 H   0  0  0  0  0  0  0  0  0  0  0  0  # atno 10765 bound_to 10752
  140.1109  134.8925  157.1934 H   0  0  0  0  0  0  0  0  0  0  0  0  # atno 11005 bound_to 11000
  144.7044  140.3790  143.7130 LP  0  0  0  0  0  0  0  0  0  0  0  0  # atno 17320 bound_to 7965
  145.6991  139.1657  143.2603 LP  0  0  0  0  0  0  0  0  0  0  0  0  # atno 17321 bound_to 7965
  139.5072  144.6827  151.5966 LP  0  0  0  0  0  0  0  0  0  0  0  0  # atno 17342 bound_to 10162
  140.6101  143.9452  150.6447 LP  0  0  0  0  0  0  0  0  0  0  0  0  # atno 17343 bound_to 10162
  157.7387  131.0537  150.5275 LP  0  0  0  0  0  0  0  0  0  0  0  0  # atno 17370 bound_to 10713
  156.5412  130.4208  149.6153 LP  0  0  0  0  0  0  0  0  0  0  0  0  # atno 17371 bound_to 10713
  140.3093  134.3042  155.7270 LP  0  0  0  0  0  0  0  0  0  0  0  0  # atno 17394 bound_to 11000
  141.2130  133.7640  156.9753 LP  0  0  0  0  0  0  0  0  0  0  0  0  # atno 17395 bound_to 11000

$$$$
