AV-unprocessed.smi:110|AV-procd|sdf|1063|dock1
  -GOLD-   2262018143D 1   1.00000     0.00000
 Structure written by MMmdl.
 46 50  0  0  0  0  0  0  0  0  1 V2000
  147.1331  143.2467  154.0664 O   0  0  0  0  0  0  0  0  0  0  0  0
  147.1144  141.9034  154.4988 C   0  0  0  0  0  0  0  0  0  0  0  0
  147.6582  140.9824  153.3883 C   0  0  1  0  0  0  0  0  0  0  0  0
  149.0860  140.9514  153.4112 O   0  0  0  0  0  0  0  0  0  0  0  0
  149.5700  139.9008  154.1977 C   0  0  1  0  0  0  0  0  0  0  0  0
  150.1734  140.4899  155.4361 N   0  0  0  0  0  0  0  0  0  0  0  0
  149.8568  141.6643  156.0852 C   0  0  0  0  0  0  0  0  0  0  0  0
  150.5747  141.9273  157.1429 N   0  0  0  0  0  0  0  0  0  0  0  0
  151.4890  140.8825  157.2071 C   0  0  0  0  0  0  0  0  0  0  0  0
  152.5579  140.5386  158.0840 C   0  0  0  0  0  0  0  0  0  0  0  0
  152.9310  141.2595  159.1672 N   0  0  0  0  0  0  0  0  0  0  0  0
  153.4263  140.5416  160.3508 C   0  0  0  0  0  0  0  0  0  0  0  0
  153.2741  141.4772  161.5648 C   0  0  0  0  0  0  0  0  0  0  0  0
  152.7503  142.7130  160.9086 C   0  0  0  0  0  0  0  0  0  0  0  0
  152.4573  143.9439  161.5208 C   0  0  0  0  0  0  0  0  0  0  0  0
  151.9910  144.9977  160.7060 C   0  0  0  0  0  0  0  0  0  0  0  0
  151.8375  144.8095  159.3128 C   0  0  0  0  0  0  0  0  0  0  0  0
  152.1394  143.5640  158.7194 C   0  0  0  0  0  0  0  0  0  0  0  0
  152.5827  142.5085  159.5428 C   0  0  0  0  0  0  0  0  0  0  0  0
  153.2179  139.3768  157.8449 N   0  0  0  0  0  0  0  0  0  0  0  0
  152.8877  138.6199  156.7951 C   0  0  0  0  0  0  0  0  0  0  0  0
  151.9334  138.8262  155.8859 N   0  0  0  0  0  0  0  0  0  0  0  0
  151.2420  139.9749  156.1389 C   0  0  0  0  0  0  0  0  0  0  0  0
  148.3679  139.0071  154.5484 C   0  0  2  0  0  0  0  0  0  0  0  0
  148.6193  137.6256  154.3715 O   0  0  0  0  0  0  0  0  0  0  0  0
  147.2818  139.5143  153.6043 C   0  0  2  0  0  0  0  0  0  0  0  0
  147.2887  138.8593  152.3474 O   0  0  0  0  0  0  0  0  0  0  0  0
  147.3013  141.3390  152.4205 H   0  0  0  0  0  0  0  0  0  0  0  0
  150.3930  139.3865  153.6994 H   0  0  0  0  0  0  0  0  0  0  0  0
  148.0628  139.1938  155.5795 H   0  0  0  0  0  0  0  0  0  0  0  0
  146.2865  139.3965  154.0343 H   0  0  0  0  0  0  0  0  0  0  0  0
  147.8838  143.6760  154.4476 H   0  0  0  0  0  0  0  0  0  0  0  0
  147.6628  141.7968  155.4339 H   0  0  0  0  0  0  0  0  0  0  0  0
  146.0758  141.6511  154.7136 H   0  0  0  0  0  0  0  0  0  0  0  0
  149.0653  142.3237  155.7592 H   0  0  0  0  0  0  0  0  0  0  0  0
  152.8669  139.6172  160.5024 H   0  0  0  0  0  0  0  0  0  0  0  0
  154.4732  140.2759  160.2009 H   0  0  0  0  0  0  0  0  0  0  0  0
  152.5564  141.0943  162.2908 H   0  0  0  0  0  0  0  0  0  0  0  0
  154.2261  141.6685  162.0604 H   0  0  0  0  0  0  0  0  0  0  0  0
  152.5887  144.0810  162.5840 H   0  0  0  0  0  0  0  0  0  0  0  0
  151.7580  145.9554  161.1474 H   0  0  0  0  0  0  0  0  0  0  0  0
  151.4902  145.6257  158.6970 H   0  0  0  0  0  0  0  0  0  0  0  0
  152.0323  143.4310  157.6531 H   0  0  0  0  0  0  0  0  0  0  0  0
  153.4694  137.7189  156.6675 H   0  0  0  0  0  0  0  0  0  0  0  0
  148.6206  137.4413  153.4440 H   0  0  0  0  0  0  0  0  0  0  0  0
  147.9490  139.2646  151.8057 H   0  0  0  0  0  0  0  0  0  0  0  0
  1  2  1  0  0  0  0
  1 32  1  0  0  0  0
  2  3  1  0  0  0  0
  2 33  1  0  0  0  0
  2 34  1  0  0  0  0
  3 28  1  0  0  0  0
  3 26  1  0  0  0  0
  3  4  1  0  0  0  0
  4  5  1  0  0  0  0
  5 29  1  0  0  0  0
  5  6  1  0  0  0  0
  5 24  1  0  0  0  0
  6 23  1  0  0  0  0
  6  7  1  0  0  0  0
  7  8  2  0  0  0  0
  7 35  1  0  0  0  0
  8  9  1  0  0  0  0
  9 23  2  0  0  0  0
  9 10  1  0  0  0  0
 10 11  1  0  0  0  0
 10 20  2  0  0  0  0
 11 19  1  0  0  0  0
 11 12  1  0  0  0  0
 12 13  1  0  0  0  0
 12 36  1  0  0  0  0
 12 37  1  0  0  0  0
 13 14  1  0  0  0  0
 13 38  1  0  0  0  0
 13 39  1  0  0  0  0
 14 19  2  0  0  0  0
 14 15  1  0  0  0  0
 15 16  2  0  0  0  0
 15 40  1  0  0  0  0
 16 17  1  0  0  0  0
 16 41  1  0  0  0  0
 17 18  2  0  0  0  0
 17 42  1  0  0  0  0
 18 19  1  0  0  0  0
 18 43  1  0  0  0  0
 20 21  1  0  0  0  0
 21 22  2  0  0  0  0
 21 44  1  0  0  0  0
 22 23  1  0  0  0  0
 24 30  1  0  0  0  0
 24 25  1  0  0  0  0
 24 26  1  0  0  0  0
 25 45  1  0  0  0  0
 26 31  1  0  0  0  0
 26 27  1  0  0  0  0
 27 46  1  0  0  0  0
M  END
> <s_m_source_file>
AV-unprocessed.smi

> <i_m_source_file_index>
110

> <i_lp_mmshare_version>
43012

> <i_f3d_flags>
0

> <s_epik_input>
W09IXVtDSDJdW0NASF0xT1tDQEhdKFtDQEhdKFtPSF0pW0NAQEhdMVtPSF0pbihbY0hdbjIpYyhjMjMpbltjSF1uYzNOKFtDSDJdW0NIMl00KWMoYzQ1KVtjSF1bY0hdW2NIXVtjSF01

> <s_epik_cmdline>
J2VwaWtfcHl0aG9uJywgJy1waCcsICc3LjAnLCAnLXRuJywgJzgnLCAnLW1hJywgJzIwMCcsICctbWV0YWxfYmluZGluZycsICctaW1hZScsICc8aW5maWxlLm1hZT4nLCAnLW9tYWUnLCAnPG91dGZpbGUubWFlPic=

> <r_lp_tautomer_probability>
1

> <r_epik_Ionization_Penalty>
0.00068475

> <r_epik_Ionization_Penalty_Charging>
0

> <r_epik_Ionization_Penalty_Neutral>
0.00068475

> <r_epik_State_Penalty>
0.000417442

> <r_epik_Charging_Adjusted_Penalty>
0.000417442

> <i_epik_Tot_Q>
0

> <i_epik_Tot_abs_Q>
0

> <r_epik_Metal_State_Penalty>
-0

> <b_epik_Metal_Only>
0

> <s_epik_Chemistry_Notes>
This compound contains an acetal/aminal-like group ( X-CH(R)-Y where X, Y are N, S, or O) that may be acid/base labile, releasing an aldehyde.

> <s_lp_Force_Field>
OPLS_2005

> <r_lp_Energy>
60.4478

> <b_lp_Chiralities_Consistent>
1

> <s_lp_Variant>
AV-unprocessed.smi:110-1

> <Gold.Version>
5.8.1

> <Gold.Id.Protein>
6NUR|6NUR_protein|mol2

> <Gold.PLP.Fitness>
70.3219

> <Gold.PLP.PLP>
-54.9929

> <Gold.PLP.part.hbond>
-7.7520

> <Gold.PLP.part.metal>
0.0000

> <Gold.PLP.part.buried>
-2.5089

> <Gold.PLP.part.nonpolar>
-48.8235

> <Gold.PLP.part.repulsive>
4.2117

> <Gold.PLP.ligand.clash>
0.0000

> <Gold.PLP.ligand.torsion>
1.1813

> <Gold.PLP.Chemscore.Hbond>
4.8432

> <Gold.PLP.Chemscore.CHOScore>
1.0000

> <Gold.PLP.Chemscore.Metal>
0.0000

> <Gold.Chemscore.Hbonds>
donor molecule, donor type, donor heavy atom, donor atom, acceptor molecule, acceptor atom, score
      L1  H     1    32       P1  8028  1.00
      L1  H    25    45       P1  7948  1.00
      L1  H    27    46       P1  7957  1.00
      P1  H  7997  8008       L1    20  0.83
      P1  H  8011  8017       L1     4  1.00
      L1  C     7    35       P1  8028  1.00

> <Gold.PLP.Chemscore.Internal.Correction>
0.1619

> <Gold.Rescore>
     Score         DG    S(hbond)    S(metal)    S(lipo)     H(rot)  DE(clash)    DE(int)     intcor
     17.27     -22.82       3.55        0.00     120.85       3.38       3.08       2.47       ----

> <Gold.Chemscore.Fitness>
17.2688

> <Gold.Chemscore.DG>
-22.8230

> <Gold.Chemscore.ZeroCoef>
-5.4800

> <Gold.Chemscore.Hbond>
3.5528

> <Gold.Chemscore.Metal>
0.0000

> <Gold.Chemscore.Lipo>
120.8450

> <Gold.Chemscore.Internal_Hbond>
0.0000

> <Gold.Chemscore.DEClash>
3.0846

> <Gold.Chemscore.DEInternal>
2.4696

> <Gold.Chemscore.Rot>
3.3837

> <Gold.Chemscore.Internal.Correction>
   9.000000E+99

> <Gold.Chemscore.Hbonds>
donor molecule, donor type, donor heavy atom, donor atom, acceptor molecule, acceptor atom, score
      L1  H     1    32       P1  8028  0.55
      L1  H    25    45       P1  7948  0.92
      L1  H    27    46       P1  7957  0.99
      P1  H  7997  8008       L1    20  0.03
      P1  H  8011  8017       L1     4  0.73

> <Gold.Chemscore.Hbond.Weighted>
-11.8663

> <Gold.Chemscore.Metal.Weighted>
-0.0000

> <Gold.Chemscore.Lipo.Weighted>
-14.1389

> <Gold.Chemscore.Internal_Hbond.Weighted>
0.0000

> <Gold.Chemscore.DEClash.Weighted>
3.0846

> <Gold.Chemscore.DEInternal.Weighted>
2.4696

> <Gold.Chemscore.Rot.Weighted>
8.6622

> <Gold.Chemscore.Internal.Correction.Weighted>
   9.000000E+99

> <Gold.Protein.RotatedTorsions>
[ 6907 6896 6895 6894 ] final   64.20 input  -60.11 | X-H torsion
[ 7974 7965 7964 7962 ] final -141.63 input  175.53 | X-H torsion
[ 8008 7997 7996 7995 ] final -101.27 input   59.86 | X-H torsion
[ 10167 10162 10161 10158 ] final   22.55 input  -65.29 | X-H torsion
[ 10718 10713 10712 10709 ] final  105.41 input   66.30 | X-H torsion
[ 10763 10752 10751 10750 ] final  138.28 input  -60.55 | X-H torsion
[ 11005 11000 10999 10996 ] final  -51.90 input  -57.11 | X-H torsion

> <Gold.Protein.ActiveResidues>
 VAL166  LYS551  ARG553  GLY616  TRP617  ASP618  TYR619  PRO620  LYS621  CYS622 
 ASP623  PHE694  ASN695  SER759  ASP760  ASP761  ALA762  ILE779  LEU786  VAL792 
 PHE793  MET794  SER795  GLU796  ALA797  LYS798  CYS799  TRP800  GLU811  SER814 

> <Gold.Protein.RotatedAtoms>
  152.4313  134.5772  159.9937 H   0  0  0  0  0  0  0  0  0  0  0  0  # atno 6907 bound_to 6896
  151.5895  133.3362  159.3032 H   0  0  0  0  0  0  0  0  0  0  0  0  # atno 6908 bound_to 6896
  150.8206  134.7447  159.6833 H   0  0  0  0  0  0  0  0  0  0  0  0  # atno 6909 bound_to 6896
  144.8505  140.6057  143.5393 H   0  0  0  0  0  0  0  0  0  0  0  0  # atno 7974 bound_to 7965
  154.8402  140.0435  157.1536 H   0  0  0  0  0  0  0  0  0  0  0  0  # atno 8008 bound_to 7997
  154.9055  140.3006  155.5274 H   0  0  0  0  0  0  0  0  0  0  0  0  # atno 8009 bound_to 7997
  156.2992  140.2368  156.4088 H   0  0  0  0  0  0  0  0  0  0  0  0  # atno 8010 bound_to 7997
  140.5339  143.9793  150.6481 H   0  0  0  0  0  0  0  0  0  0  0  0  # atno 10167 bound_to 10162
  157.6706  131.0827  150.5853 H   0  0  0  0  0  0  0  0  0  0  0  0  # atno 10718 bound_to 10713
  153.8871  135.3037  155.3446 H   0  0  0  0  0  0  0  0  0  0  0  0  # atno 10763 bound_to 10752
  154.7734  135.4874  153.9698 H   0  0  0  0  0  0  0  0  0  0  0  0  # atno 10764 bound_to 10752
  153.1319  135.6805  153.9263 H   0  0  0  0  0  0  0  0  0  0  0  0  # atno 10765 bound_to 10752
  141.0896  133.6635  156.3946 H   0  0  0  0  0  0  0  0  0  0  0  0  # atno 11005 bound_to 11000
  145.4510  139.1523  143.3918 LP  0  0  0  0  0  0  0  0  0  0  0  0  # atno 17320 bound_to 7965
  146.2781  140.4636  142.8787 LP  0  0  0  0  0  0  0  0  0  0  0  0  # atno 17321 bound_to 7965
  140.3176  143.3158  152.0817 LP  0  0  0  0  0  0  0  0  0  0  0  0  # atno 17342 bound_to 10162
  139.4964  144.6595  151.6496 LP  0  0  0  0  0  0  0  0  0  0  0  0  # atno 17343 bound_to 10162
  156.6153  130.4391  149.5843 LP  0  0  0  0  0  0  0  0  0  0  0  0  # atno 17370 bound_to 10713
  156.2398  130.6844  151.1544 LP  0  0  0  0  0  0  0  0  0  0  0  0  # atno 17371 bound_to 10713
  140.5283  134.6237  157.5341 LP  0  0  0  0  0  0  0  0  0  0  0  0  # atno 17394 bound_to 11000
  139.9719  134.7278  156.0024 LP  0  0  0  0  0  0  0  0  0  0  0  0  # atno 17395 bound_to 11000

$$$$
