AV-unprocessed.smi:1484|AV-procd|sdf|5993|dock6
  -GOLD-   22720 6 83D 1   1.00000     0.00000
 Structure written by MMmdl.
 37 38  0  0  0  0  0  0  0  0  2 V2000
  151.9848  145.5878  160.3255 C   0  0  0  0  0  0  0  0  0  0  0  0
  152.0486  144.0607  160.4693 C   0  0  2  0  0  0  0  0  0  0  0  0
  152.3165  143.6440  161.9280 C   0  0  0  0  0  0  0  0  0  0  0  0
  152.3835  142.1160  162.0762 C   0  0  0  0  0  0  0  0  0  0  0  0
  153.4396  141.5087  161.1369 C   0  0  0  0  0  0  0  0  0  0  0  0
  153.2147  141.9161  159.6681 C   0  0  1  0  0  0  0  0  0  0  0  0
  152.0282  141.2490  159.1349 N   0  0  0  0  0  0  0  0  0  0  0  0
  152.0303  140.2017  158.2964 C   0  0  0  0  0  0  0  0  0  0  0  0
  153.0643  139.6804  157.8752 O   0  0  0  0  0  0  0  0  0  0  0  0
  150.6437  139.6867  157.8788 C   0  0  0  0  0  0  0  0  0  0  0  0
  150.6745  138.4850  157.0322 N   0  0  0  0  0  0  0  0  0  0  0  0
  150.2072  137.2773  157.7078 N   0  5  0  0  0  0  0  0  0  0  0  0
  150.2063  136.0981  157.0313 C   0  0  0  0  0  0  0  0  0  0  0  0
  149.8427  135.0394  157.5382 O   0  0  0  0  0  0  0  0  0  0  0  0
  150.6528  136.1023  155.6481 C   0  0  0  0  0  0  0  0  0  0  0  0
  151.0590  137.2359  155.0433 C   0  0  0  0  0  0  0  0  0  0  0  0
  151.0820  138.5212  155.7312 C   0  0  0  0  0  0  0  0  0  0  0  0
  151.4446  139.5619  155.1823 O   0  0  0  0  0  0  0  0  0  0  0  0
  153.1097  143.4507  159.5293 C   0  0  0  0  0  0  0  0  0  0  0  0
  152.9326  146.0525  160.5992 H   0  0  0  0  0  0  0  0  0  0  0  0
  151.2097  146.0104  160.9652 H   0  0  0  0  0  0  0  0  0  0  0  0
  151.7570  145.8755  159.2987 H   0  0  0  0  0  0  0  0  0  0  0  0
  151.0731  143.6671  160.1805 H   0  0  0  0  0  0  0  0  0  0  0  0
  153.2546  144.0827  162.2711 H   0  0  0  0  0  0  0  0  0  0  0  0
  151.5354  144.0391  162.5785 H   0  0  0  0  0  0  0  0  0  0  0  0
  152.6138  141.8541  163.1092 H   0  0  0  0  0  0  0  0  0  0  0  0
  151.4051  141.6842  161.8617 H   0  0  0  0  0  0  0  0  0  0  0  0
  154.4284  141.8447  161.4520 H   0  0  0  0  0  0  0  0  0  0  0  0
  153.4453  140.4218  161.2313 H   0  0  0  0  0  0  0  0  0  0  0  0
  154.0792  141.5752  159.0955 H   0  0  0  0  0  0  0  0  0  0  0  0
  151.1334  141.6126  159.4284 H   0  0  0  0  0  0  0  0  0  0  0  0
  150.0631  139.4920  158.7826 H   0  0  0  0  0  0  0  0  0  0  0  0
  150.1148  140.4899  157.3628 H   0  0  0  0  0  0  0  0  0  0  0  0
  150.6569  135.1761  155.0926 H   0  0  0  0  0  0  0  0  0  0  0  0
  151.3812  137.1920  154.0138 H   0  0  0  0  0  0  0  0  0  0  0  0
  152.8934  143.7198  158.4945 H   0  0  0  0  0  0  0  0  0  0  0  0
  154.0818  143.8909  159.7550 H   0  0  0  0  0  0  0  0  0  0  0  0
  1  2  1  0  0  0  0
  1 20  1  0  0  0  0
  1 21  1  0  0  0  0
  1 22  1  0  0  0  0
  2 19  1  0  0  0  0
  2  3  1  0  0  0  0
  2 23  1  0  0  0  0
  3  4  1  0  0  0  0
  3 24  1  0  0  0  0
  3 25  1  0  0  0  0
  4  5  1  0  0  0  0
  4 26  1  0  0  0  0
  4 27  1  0  0  0  0
  5  6  1  0  0  0  0
  5 28  1  0  0  0  0
  5 29  1  0  0  0  0
  6  7  1  0  0  0  0
  6 19  1  0  0  0  0
  6 30  1  0  0  0  0
  7  8  1  0  0  0  0
  7 31  1  0  0  0  0
  8  9  2  0  0  0  0
  8 10  1  0  0  0  0
 10 32  1  0  0  0  0
 10 33  1  0  0  0  0
 10 11  1  0  0  0  0
 11 12  1  0  0  0  0
 11 17  1  0  0  0  0
 12 13  1  0  0  0  0
 13 14  2  0  0  0  0
 13 15  1  0  0  0  0
 15 34  1  0  0  0  0
 15 16  2  0  0  0  0
 16 35  1  0  0  0  0
 16 17  1  0  0  0  0
 17 18  2  0  0  0  0
 19 36  1  0  0  0  0
 19 37  1  0  0  0  0
M  CHG  1  12  -1
M  END
> <s_m_source_file>
AV-unprocessed.smi

> <i_m_source_file_index>
1484

> <i_lp_mmshare_version>
43012

> <i_f3d_flags>
0

> <s_epik_input>
W0NIM11bQ0BASF0xW0NIMl1bQ0gyXVtDSDJdW0NASF0oW0NIMl0xKVtOSF1DKD1PKVtDSDJdbjJbbkhdYyg9TylbY0hdW2NIXWMyPU8=

> <s_epik_cmdline>
J2VwaWtfcHl0aG9uJywgJy1waCcsICc3LjAnLCAnLXRuJywgJzgnLCAnLW1hJywgJzIwMCcsICctbWV0YWxfYmluZGluZycsICctaW1hZScsICc8aW5maWxlLm1hZT4nLCAnLW9tYWUnLCAnPG91dGZpbGUubWFlPic=

> <r_lp_tautomer_probability>
1

> <r_epik_Ionization_Penalty>
0.101352

> <r_epik_Ionization_Penalty_Charging>
0.101352

> <r_epik_Ionization_Penalty_Neutral>
1.90469e-08

> <r_epik_State_Penalty>
0.0358555

> <r_epik_Charging_Adjusted_Penalty>
0.137208

> <i_epik_Tot_Q>
-1

> <i_epik_Tot_abs_Q>
1

> <r_epik_Metal_State_Penalty>
0.0358555

> <b_epik_Metal_Only>
0

> <s_lp_Force_Field>
OPLS_2005

> <r_lp_Energy>
23.9764

> <b_lp_Chiralities_Consistent>
1

> <s_lp_Variant>
AV-unprocessed.smi:1484-1

> <Gold.Version>
5.8.1

> <Gold.Id.Protein>
6NUR|6NUR_protein|mol2

> <Gold.PLP.Fitness>
46.4938

> <Gold.PLP.PLP>
-39.1430

> <Gold.PLP.part.hbond>
-3.0000

> <Gold.PLP.part.metal>
0.0000

> <Gold.PLP.part.buried>
-4.7165

> <Gold.PLP.part.nonpolar>
-31.4472

> <Gold.PLP.part.repulsive>
0.1581

> <Gold.PLP.ligand.clash>
0.0000

> <Gold.PLP.ligand.torsion>
0.3013

> <Gold.PLP.Chemscore.Hbond>
2.6484

> <Gold.PLP.Chemscore.CHOScore>
0.0000

> <Gold.PLP.Chemscore.Metal>
0.0000

> <Gold.Chemscore.Hbonds>
donor molecule, donor type, donor heavy atom, donor atom, acceptor molecule, acceptor atom, score
      P1  H  6896  6908       L1    14  0.56
      P1  H  7989  7998       L1    18  0.73
      P1  H  7997  8008       L1     9  0.88

> <Gold.PLP.Chemscore.Internal.Correction>
0.0080

> <Gold.Rescore>
     Score         DG    S(hbond)    S(metal)    S(lipo)     H(rot)  DE(clash)    DE(int)     intcor
     21.27     -21.86       2.77        0.00      97.05       1.65       0.05       0.55       ----

> <Gold.Chemscore.Fitness>
21.2716

> <Gold.Chemscore.DG>
-21.8625

> <Gold.Chemscore.ZeroCoef>
-5.4800

> <Gold.Chemscore.Hbond>
2.7736

> <Gold.Chemscore.Metal>
0.0000

> <Gold.Chemscore.Lipo>
97.0519

> <Gold.Chemscore.Internal_Hbond>
0.0000

> <Gold.Chemscore.DEClash>
0.0459

> <Gold.Chemscore.DEInternal>
0.5451

> <Gold.Chemscore.Rot>
1.6549

> <Gold.Chemscore.Internal.Correction>
   9.000000E+99

> <Gold.Chemscore.Hbonds>
donor molecule, donor type, donor heavy atom, donor atom, acceptor molecule, acceptor atom, score
      P1  H  6896  6908       L1    14  0.55
      P1  H  7989  7998       L1    18  0.72
      P1  H  7997  8008       L1     9  0.86

> <Gold.Chemscore.Hbond.Weighted>
-9.2639

> <Gold.Chemscore.Metal.Weighted>
-0.0000

> <Gold.Chemscore.Lipo.Weighted>
-11.3551

> <Gold.Chemscore.Internal_Hbond.Weighted>
0.0000

> <Gold.Chemscore.DEClash.Weighted>
0.0459

> <Gold.Chemscore.DEInternal.Weighted>
0.5451

> <Gold.Chemscore.Rot.Weighted>
4.2364

> <Gold.Chemscore.Internal.Correction.Weighted>
   9.000000E+99

> <Gold.Protein.RotatedTorsions>
[ 6907 6896 6895 6894 ] final  145.36 input  -60.11 | X-H torsion
[ 7974 7965 7964 7962 ] final  -52.09 input  175.53 | X-H torsion
[ 8008 7997 7996 7995 ] final  -55.68 input   59.86 | X-H torsion
[ 10167 10162 10161 10158 ] final  -62.58 input  -65.29 | X-H torsion
[ 10718 10713 10712 10709 ] final   86.92 input   66.30 | X-H torsion
[ 10763 10752 10751 10750 ] final   75.94 input  -60.55 | X-H torsion
[ 11005 11000 10999 10996 ] final  -72.26 input  -57.11 | X-H torsion

> <Gold.Protein.ActiveResidues>
 VAL166  LYS551  ARG553  GLY616  TRP617  ASP618  TYR619  PRO620  LYS621  CYS622 
 ASP623  PHE694  ASN695  SER759  ASP760  ASP761  ALA762  ILE779  LEU786  VAL792 
 PHE793  MET794  SER795  GLU796  ALA797  LYS798  CYS799  TRP800  GLU811  SER814 

> <Gold.Protein.RotatedAtoms>
  152.1819  133.4713  159.4962 H   0  0  0  0  0  0  0  0  0  0  0  0  # atno 6907 bound_to 6896
  150.6936  134.1823  159.4262 H   0  0  0  0  0  0  0  0  0  0  0  0  # atno 6908 bound_to 6896
  151.9734  135.0065  160.0604 H   0  0  0  0  0  0  0  0  0  0  0  0  # atno 6909 bound_to 6896
  145.9118  140.7908  142.9691 H   0  0  0  0  0  0  0  0  0  0  0  0  # atno 7974 bound_to 7965
  154.4203  140.1147  156.5516 H   0  0  0  0  0  0  0  0  0  0  0  0  # atno 8008 bound_to 7997
  155.6404  140.3496  155.4694 H   0  0  0  0  0  0  0  0  0  0  0  0  # atno 8009 bound_to 7997
  155.9876  140.1173  157.0658 H   0  0  0  0  0  0  0  0  0  0  0  0  # atno 8010 bound_to 7997
  140.5929  143.2345  151.6100 H   0  0  0  0  0  0  0  0  0  0  0  0  # atno 10167 bound_to 10162
  157.6934  131.0235  150.3045 H   0  0  0  0  0  0  0  0  0  0  0  0  # atno 10718 bound_to 10713
  153.0690  135.4970  154.8264 H   0  0  0  0  0  0  0  0  0  0  0  0  # atno 10763 bound_to 10752
  154.6995  135.2999  154.9364 H   0  0  0  0  0  0  0  0  0  0  0  0  # atno 10764 bound_to 10752
  154.0092  135.6756  153.4817 H   0  0  0  0  0  0  0  0  0  0  0  0  # atno 10765 bound_to 10752
  141.1606  133.6842  156.7032 H   0  0  0  0  0  0  0  0  0  0  0  0  # atno 11005 bound_to 11000
  144.6744  140.1838  143.7403 LP  0  0  0  0  0  0  0  0  0  0  0  0  # atno 17320 bound_to 7965
  145.8661  139.2248  143.1688 LP  0  0  0  0  0  0  0  0  0  0  0  0  # atno 17321 bound_to 7965
  139.5239  144.3119  152.0985 LP  0  0  0  0  0  0  0  0  0  0  0  0  # atno 17342 bound_to 10162
  140.2287  144.4391  150.6310 LP  0  0  0  0  0  0  0  0  0  0  0  0  # atno 17343 bound_to 10162
  156.3556  130.3838  149.7293 LP  0  0  0  0  0  0  0  0  0  0  0  0  # atno 17370 bound_to 10713
  156.4756  130.8017  151.3033 LP  0  0  0  0  0  0  0  0  0  0  0  0  # atno 17371 bound_to 10713
  140.2943  134.8215  157.4043 LP  0  0  0  0  0  0  0  0  0  0  0  0  # atno 17394 bound_to 11000
  140.1319  134.5084  155.8099 LP  0  0  0  0  0  0  0  0  0  0  0  0  # atno 17395 bound_to 11000

$$$$
