AV-unprocessed.smi:3101|AV-procd|sdf|11809|dock1
  -GOLD-   2272017183D 1   1.00000     0.00000
 Structure written by MMmdl.
 28 29  0  0  0  0  0  0  0  0  1 V2000
  151.3561  136.6115  155.8228 C   0  0  0  0  0  0  0  0  0  0  0  0
  150.8091  137.6812  154.8614 C   0  0  1  0  0  0  0  0  0  0  0  0
  149.3814  138.1202  155.1443 C   0  0  0  0  0  0  0  0  0  0  0  0
  149.3133  139.5226  154.5305 C   0  0  0  0  0  0  0  0  0  0  0  0
  150.6478  139.8759  154.1625 O   0  0  0  0  0  0  0  0  0  0  0  0
  151.5855  139.0080  154.7909 C   0  0  1  0  0  0  0  0  0  0  0  0
  152.0194  139.6242  156.1371 C   0  0  0  0  0  0  0  0  0  0  0  0
  152.7743  139.0107  156.8926 O   0  0  0  0  0  0  0  0  0  0  0  0
  151.5034  140.8379  156.4060 N   0  0  0  0  0  0  0  0  0  0  0  0
  151.7322  141.6569  157.5428 C   0  0  0  0  0  0  0  0  0  0  0  0
  151.0347  142.8879  157.5638 C   0  0  0  0  0  0  0  0  0  0  0  0
  151.1524  143.7764  158.5756 N   0  0  0  0  0  0  0  0  0  0  0  0
  151.9804  143.4346  159.5856 C   0  0  0  0  0  0  0  0  0  0  0  0
  152.6839  142.2134  159.5818 C   0  0  0  0  0  0  0  0  0  0  0  0
  152.5612  141.3299  158.5674 N   0  0  0  0  0  0  0  0  0  0  0  0
  151.3107  136.9322  156.8635 H   0  0  0  0  0  0  0  0  0  0  0  0
  152.3944  136.3743  155.5909 H   0  0  0  0  0  0  0  0  0  0  0  0
  150.7803  135.6894  155.7413 H   0  0  0  0  0  0  0  0  0  0  0  0
  150.8257  137.2545  153.8572 H   0  0  0  0  0  0  0  0  0  0  0  0
  148.6467  137.4397  154.7130 H   0  0  0  0  0  0  0  0  0  0  0  0
  149.1937  138.1721  156.2175 H   0  0  0  0  0  0  0  0  0  0  0  0
  148.6781  139.5424  153.6445 H   0  0  0  0  0  0  0  0  0  0  0  0
  148.9158  140.2440  155.2453 H   0  0  0  0  0  0  0  0  0  0  0  0
  152.4599  138.8984  154.1473 H   0  0  0  0  0  0  0  0  0  0  0  0
  150.8767  141.2201  155.7128 H   0  0  0  0  0  0  0  0  0  0  0  0
  150.3713  143.1663  156.7578 H   0  0  0  0  0  0  0  0  0  0  0  0
  152.0829  144.1372  160.3993 H   0  0  0  0  0  0  0  0  0  0  0  0
  153.3452  141.9451  160.3923 H   0  0  0  0  0  0  0  0  0  0  0  0
  1  2  1  0  0  0  0
  1 16  1  0  0  0  0
  1 17  1  0  0  0  0
  1 18  1  0  0  0  0
  2  6  1  0  0  0  0
  2  3  1  0  0  0  0
  2 19  1  0  0  0  0
  3  4  1  0  0  0  0
  3 20  1  0  0  0  0
  3 21  1  0  0  0  0
  4  5  1  0  0  0  0
  4 22  1  0  0  0  0
  4 23  1  0  0  0  0
  5  6  1  0  0  0  0
  6  7  1  0  0  0  0
  6 24  1  0  0  0  0
  7  8  2  0  0  0  0
  7  9  1  0  0  0  0
  9 10  1  0  0  0  0
  9 25  1  0  0  0  0
 10 15  1  0  0  0  0
 10 11  2  0  0  0  0
 11 12  1  0  0  0  0
 11 26  1  0  0  0  0
 12 13  2  0  0  0  0
 13 14  1  0  0  0  0
 13 27  1  0  0  0  0
 14 15  2  0  0  0  0
 14 28  1  0  0  0  0
M  END
> <s_m_source_file>
AV-unprocessed.smi

> <i_m_source_file_index>
3101

> <i_lp_mmshare_version>
43012

> <i_f3d_flags>
0

> <s_epik_input>
W0NIM11bQ0BASF0xW0NIMl1bQ0gyXU9bQ0BIXTFDKD1PKVtOSF1jMltjSF1uW2NIXVtjSF1uMg==

> <s_epik_cmdline>
J2VwaWtfcHl0aG9uJywgJy1waCcsICc3LjAnLCAnLXRuJywgJzgnLCAnLW1hJywgJzIwMCcsICctbWV0YWxfYmluZGluZycsICctaW1hZScsICc8aW5maWxlLm1hZT4nLCAnLW9tYWUnLCAnPG91dGZpbGUubWFlPic=

> <r_lp_tautomer_probability>
1

> <r_epik_Ionization_Penalty>
2.83174e-06

> <r_epik_Ionization_Penalty_Charging>
0

> <r_epik_Ionization_Penalty_Neutral>
2.83174e-06

> <r_epik_State_Penalty>
-0

> <r_epik_Charging_Adjusted_Penalty>
0

> <i_epik_Tot_Q>
0

> <i_epik_Tot_abs_Q>
0

> <r_epik_Metal_State_Penalty>
-0

> <b_epik_Metal_Only>
0

> <s_lp_Force_Field>
OPLS_2005

> <r_lp_Energy>
27.517

> <b_lp_Chiralities_Consistent>
1

> <s_lp_Variant>
AV-unprocessed.smi:3101-2

> <Gold.Version>
5.8.1

> <Gold.Id.Protein>
6NUR|6NUR_protein|mol2

> <Gold.PLP.Fitness>
35.1317

> <Gold.PLP.PLP>
-26.2130

> <Gold.PLP.part.hbond>
-1.9652

> <Gold.PLP.part.metal>
0.0000

> <Gold.PLP.part.buried>
-2.6022

> <Gold.PLP.part.nonpolar>
-21.3223

> <Gold.PLP.part.repulsive>
0.3969

> <Gold.PLP.ligand.clash>
0.0000

> <Gold.PLP.ligand.torsion>
0.0157

> <Gold.PLP.Chemscore.Hbond>
1.9750

> <Gold.PLP.Chemscore.CHOScore>
1.0000

> <Gold.PLP.Chemscore.Metal>
0.0000

> <Gold.Chemscore.Hbonds>
donor molecule, donor type, donor heavy atom, donor atom, acceptor molecule, acceptor atom, score
      P1  H  7989  7998       L1     5  1.00
      P1  H  7997  8010       L1     8  1.00
      L1  C    11    26       P1  8028  1.00

> <Gold.PLP.Chemscore.Internal.Correction>
0.0250

> <Gold.Rescore>
     Score         DG    S(hbond)    S(metal)    S(lipo)     H(rot)  DE(clash)    DE(int)     intcor
     13.22     -15.37       1.72        0.00      57.23       1.00       0.06       2.09       ----

> <Gold.Chemscore.Fitness>
13.2202

> <Gold.Chemscore.DG>
-15.3745

> <Gold.Chemscore.ZeroCoef>
-5.4800

> <Gold.Chemscore.Hbond>
1.7241

> <Gold.Chemscore.Metal>
0.0000

> <Gold.Chemscore.Lipo>
57.2322

> <Gold.Chemscore.Internal_Hbond>
0.0000

> <Gold.Chemscore.DEClash>
0.0605

> <Gold.Chemscore.DEInternal>
2.0937

> <Gold.Chemscore.Rot>
1.0000

> <Gold.Chemscore.Internal.Correction>
   9.000000E+99

> <Gold.Chemscore.Hbonds>
donor molecule, donor type, donor heavy atom, donor atom, acceptor molecule, acceptor atom, score
      P1  H  7989  7998       L1     5  0.24
      P1  H  7997  8010       L1     8  0.49

> <Gold.Chemscore.Hbond.Weighted>
-5.7583

> <Gold.Chemscore.Metal.Weighted>
-0.0000

> <Gold.Chemscore.Lipo.Weighted>
-6.6962

> <Gold.Chemscore.Internal_Hbond.Weighted>
0.0000

> <Gold.Chemscore.DEClash.Weighted>
0.0605

> <Gold.Chemscore.DEInternal.Weighted>
2.0937

> <Gold.Chemscore.Rot.Weighted>
2.5600

> <Gold.Chemscore.Internal.Correction.Weighted>
   9.000000E+99

> <Gold.Protein.RotatedTorsions>
[ 6907 6896 6895 6894 ] final  -53.93 input  -60.11 | X-H torsion
[ 7974 7965 7964 7962 ] final -145.47 input  175.53 | X-H torsion
[ 8008 7997 7996 7995 ] final   40.66 input   59.86 | X-H torsion
[ 10167 10162 10161 10158 ] final   86.67 input  -65.29 | X-H torsion
[ 10718 10713 10712 10709 ] final  103.48 input   66.30 | X-H torsion
[ 10763 10752 10751 10750 ] final -130.36 input  -60.55 | X-H torsion
[ 11005 11000 10999 10996 ] final  -88.72 input  -57.11 | X-H torsion

> <Gold.Protein.ActiveResidues>
 VAL166  LYS551  ARG553  GLY616  TRP617  ASP618  TYR619  PRO620  LYS621  CYS622 
 ASP623  PHE694  ASN695  SER759  ASP760  ASP761  ALA762  ILE779  LEU786  VAL792 
 PHE793  MET794  SER795  GLU796  ALA797  LYS798  CYS799  TRP800  GLU811  SER814 

> <Gold.Protein.RotatedAtoms>
  150.8383  134.7665  159.6910 H   0  0  0  0  0  0  0  0  0  0  0  0  # atno 6907 bound_to 6896
  152.4475  134.5460  159.9863 H   0  0  0  0  0  0  0  0  0  0  0  0  # atno 6908 bound_to 6896
  151.5605  133.3366  159.3006 H   0  0  0  0  0  0  0  0  0  0  0  0  # atno 6909 bound_to 6896
  144.8225  140.5580  143.5568 H   0  0  0  0  0  0  0  0  0  0  0  0  # atno 7974 bound_to 7965
  155.2569  140.3356  155.4277 H   0  0  0  0  0  0  0  0  0  0  0  0  # atno 8008 bound_to 7997
  156.2192  140.1801  156.7561 H   0  0  0  0  0  0  0  0  0  0  0  0  # atno 8009 bound_to 7997
  154.5799  140.0655  156.9073 H   0  0  0  0  0  0  0  0  0  0  0  0  # atno 8010 bound_to 7997
  139.8851  144.6418  150.8800 H   0  0  0  0  0  0  0  0  0  0  0  0  # atno 10167 bound_to 10162
  157.6771  131.0780  150.5562 H   0  0  0  0  0  0  0  0  0  0  0  0  # atno 10718 bound_to 10713
  154.8755  135.3865  154.4070 H   0  0  0  0  0  0  0  0  0  0  0  0  # atno 10763 bound_to 10752
  153.4788  135.7030  153.5955 H   0  0  0  0  0  0  0  0  0  0  0  0  # atno 10764 bound_to 10752
  153.4380  135.3863  155.2178 H   0  0  0  0  0  0  0  0  0  0  0  0  # atno 10765 bound_to 10752
  141.1597  133.7587  156.9492 H   0  0  0  0  0  0  0  0  0  0  0  0  # atno 11005 bound_to 11000
  145.5072  139.1481  143.3624 LP  0  0  0  0  0  0  0  0  0  0  0  0  # atno 17320 bound_to 7965
  146.2531  140.5213  142.8885 LP  0  0  0  0  0  0  0  0  0  0  0  0  # atno 17321 bound_to 7965
  140.7737  143.3554  151.1931 LP  0  0  0  0  0  0  0  0  0  0  0  0  # atno 17342 bound_to 10162
  139.7160  143.9299  152.2967 LP  0  0  0  0  0  0  0  0  0  0  0  0  # atno 17343 bound_to 10162
  156.5865  130.4318  149.5954 LP  0  0  0  0  0  0  0  0  0  0  0  0  # atno 17370 bound_to 10713
  156.2618  130.6966  151.1737 LP  0  0  0  0  0  0  0  0  0  0  0  0  # atno 17371 bound_to 10713
  140.1269  134.9381  157.2282 LP  0  0  0  0  0  0  0  0  0  0  0  0  # atno 17394 bound_to 11000
  140.3002  134.3141  155.7292 LP  0  0  0  0  0  0  0  0  0  0  0  0  # atno 17395 bound_to 11000

$$$$
