AV-unprocessed.smi:2026|AV-procd|sdf|8206|dock3
  -GOLD-   2272010463D 1   1.00000     0.00000
 Structure written by MMmdl.
 45 47  0  0  0  0  0  0  0  0  2 V2000
  151.8317  143.5173  157.4927 C   0  0  0  0  0  0  0  0  0  0  0  0
  152.2971  143.3028  158.9222 C   0  0  0  0  0  0  0  0  0  0  0  0
  152.9287  142.0859  159.2651 C   0  0  0  0  0  0  0  0  0  0  0  0
  153.3752  141.8476  160.5835 C   0  0  0  0  0  0  0  0  0  0  0  0
  154.0087  140.7454  161.1323 N   0  0  0  0  0  0  0  0  0  0  0  0
  154.1645  141.1287  162.3964 C   0  0  0  0  0  0  0  0  0  0  0  0
  153.7035  142.3486  162.7325 N   0  0  0  0  0  0  0  0  0  0  0  0
  153.7594  142.9722  164.0429 C   0  0  0  0  0  0  0  0  0  0  0  0
  155.0800  142.6820  164.7825 C   0  0  1  0  0  0  0  0  0  0  0  0
  155.1957  143.5796  165.8703 O   0  0  0  0  0  0  0  0  0  0  0  0
  155.1166  141.2378  165.3227 C   0  0  0  0  0  0  0  0  0  0  0  0
  156.3221  140.9759  166.1167 N   0  0  0  0  0  0  0  0  0  0  0  0
  157.5865  141.0984  165.6707 C   0  0  0  0  0  0  0  0  0  0  0  0
  157.8480  141.4573  164.5231 O   0  0  0  0  0  0  0  0  0  0  0  0
  158.4766  140.7803  166.6404 N   0  5  0  0  0  0  0  0  0  0  0  0
  157.7506  140.4056  167.8376 C   0  0  0  0  0  0  0  0  0  0  0  0
  158.0638  138.9447  168.2122 C   0  0  0  0  0  0  0  0  0  0  0  0
  158.0897  141.3713  168.9888 C   0  0  0  0  0  0  0  0  0  0  0  0
  156.3091  140.5650  167.3890 C   0  0  0  0  0  0  0  0  0  0  0  0
  155.3258  140.3428  168.0974 O   0  0  0  0  0  0  0  0  0  0  0  0
  153.1694  142.8676  161.5579 C   0  0  0  0  0  0  0  0  0  0  0  0
  152.5431  144.0829  161.2286 C   0  0  0  0  0  0  0  0  0  0  0  0
  152.1039  144.3050  159.9068 C   0  0  0  0  0  0  0  0  0  0  0  0
  151.4313  145.6218  159.5617 C   0  0  0  0  0  0  0  0  0  0  0  0
  152.0879  142.6686  156.8580 H   0  0  0  0  0  0  0  0  0  0  0  0
  152.2986  144.4057  157.0669 H   0  0  0  0  0  0  0  0  0  0  0  0
  150.7495  143.6450  157.4604 H   0  0  0  0  0  0  0  0  0  0  0  0
  153.0767  141.3227  158.5154 H   0  0  0  0  0  0  0  0  0  0  0  0
  154.6419  140.4862  163.1221 H   0  0  0  0  0  0  0  0  0  0  0  0
  153.6134  144.0469  163.9275 H   0  0  0  0  0  0  0  0  0  0  0  0
  152.9144  142.6058  164.6272 H   0  0  0  0  0  0  0  0  0  0  0  0
  155.9121  142.8529  164.0981 H   0  0  0  0  0  0  0  0  0  0  0  0
  155.7919  144.2712  165.6284 H   0  0  0  0  0  0  0  0  0  0  0  0
  154.2101  141.0098  165.8860 H   0  0  0  0  0  0  0  0  0  0  0  0
  155.1121  140.5378  164.4854 H   0  0  0  0  0  0  0  0  0  0  0  0
  157.5134  138.6385  169.1026 H   0  0  0  0  0  0  0  0  0  0  0  0
  159.1256  138.8114  168.4228 H   0  0  0  0  0  0  0  0  0  0  0  0
  157.7999  138.2551  167.4088 H   0  0  0  0  0  0  0  0  0  0  0  0
  157.5497  141.1061  169.8985 H   0  0  0  0  0  0  0  0  0  0  0  0
  157.8317  142.4026  168.7422 H   0  0  0  0  0  0  0  0  0  0  0  0
  159.1547  141.3473  169.2227 H   0  0  0  0  0  0  0  0  0  0  0  0
  152.4047  144.8389  161.9873 H   0  0  0  0  0  0  0  0  0  0  0  0
  151.3273  146.2576  160.4413 H   0  0  0  0  0  0  0  0  0  0  0  0
  150.4347  145.4493  159.1548 H   0  0  0  0  0  0  0  0  0  0  0  0
  152.0186  146.1668  158.8223 H   0  0  0  0  0  0  0  0  0  0  0  0
  1  2  1  0  0  0  0
  1 25  1  0  0  0  0
  1 26  1  0  0  0  0
  1 27  1  0  0  0  0
  2 23  1  0  0  0  0
  2  3  2  0  0  0  0
  3  4  1  0  0  0  0
  3 28  1  0  0  0  0
  4 21  2  0  0  0  0
  4  5  1  0  0  0  0
  5  6  2  0  0  0  0
  6  7  1  0  0  0  0
  6 29  1  0  0  0  0
  7  8  1  0  0  0  0
  7 21  1  0  0  0  0
  8  9  1  0  0  0  0
  8 30  1  0  0  0  0
  8 31  1  0  0  0  0
  9 10  1  0  0  0  0
  9 11  1  0  0  0  0
  9 32  1  0  0  0  0
 10 33  1  0  0  0  0
 11 12  1  0  0  0  0
 11 34  1  0  0  0  0
 11 35  1  0  0  0  0
 12 19  1  0  0  0  0
 12 13  1  0  0  0  0
 13 14  2  0  0  0  0
 13 15  1  0  0  0  0
 15 16  1  0  0  0  0
 16 17  1  0  0  0  0
 16 18  1  0  0  0  0
 16 19  1  0  0  0  0
 17 36  1  0  0  0  0
 17 37  1  0  0  0  0
 17 38  1  0  0  0  0
 18 39  1  0  0  0  0
 18 40  1  0  0  0  0
 18 41  1  0  0  0  0
 19 20  2  0  0  0  0
 21 22  1  0  0  0  0
 22 23  2  0  0  0  0
 22 42  1  0  0  0  0
 23 24  1  0  0  0  0
 24 43  1  0  0  0  0
 24 44  1  0  0  0  0
 24 45  1  0  0  0  0
M  CHG  1  15  -1
M  END
> <s_m_source_file>
AV-unprocessed.smi

> <i_m_source_file_index>
2026

> <i_lp_mmshare_version>
43012

> <i_f3d_flags>
0

> <s_epik_input>
W0NIM11jKFtjSF0xKWMoW0NIM10pW2NIXWMoYzEyKW4oW2NIXW4yKVtDSDJdW0NASF0oW09IXSlbQ0gyXU4oQzM9TylDKD1PKVtOSF1DMyhbQ0gzXSlbQ0gzXQ==

> <s_epik_cmdline>
J2VwaWtfcHl0aG9uJywgJy1waCcsICc3LjAnLCAnLXRuJywgJzgnLCAnLW1hJywgJzIwMCcsICctbWV0YWxfYmluZGluZycsICctaW1hZScsICc8aW5maWxlLm1hZT4nLCAnLW9tYWUnLCAnPG91dGZpbGUubWFlPic=

> <r_lp_tautomer_probability>
1

> <r_epik_Ionization_Penalty>
5.78785

> <r_epik_Ionization_Penalty_Charging>
5.68049

> <r_epik_Ionization_Penalty_Neutral>
0.107354

> <r_epik_State_Penalty>
5.7743

> <r_epik_Charging_Adjusted_Penalty>
11.4548

> <i_epik_Tot_Q>
-1

> <i_epik_Tot_abs_Q>
1

> <r_epik_Metal_State_Penalty>
1.83778

> <b_epik_Metal_Only>
1

> <s_lp_Force_Field>
OPLS_2005

> <r_lp_Energy>
18.252

> <b_lp_Chiralities_Consistent>
1

> <s_lp_Variant>
AV-unprocessed.smi:2026-6

> <Gold.Version>
5.8.1

> <Gold.Id.Protein>
6NUR|6NUR_protein|mol2

> <Gold.PLP.Fitness>
47.2697

> <Gold.PLP.PLP>
-48.1043

> <Gold.PLP.part.hbond>
-1.6090

> <Gold.PLP.part.metal>
0.0000

> <Gold.PLP.part.buried>
-2.3274

> <Gold.PLP.part.nonpolar>
-42.3376

> <Gold.PLP.part.repulsive>
0.1062

> <Gold.PLP.ligand.clash>
0.0000

> <Gold.PLP.ligand.torsion>
0.4186

> <Gold.PLP.Chemscore.Hbond>
0.0000

> <Gold.PLP.Chemscore.CHOScore>
0.0000

> <Gold.PLP.Chemscore.Metal>
0.0000

> <Gold.PLP.Chemscore.Internal.Correction>
0.0025

> <Gold.Rescore>
     Score         DG    S(hbond)    S(metal)    S(lipo)     H(rot)  DE(clash)    DE(int)     intcor
     13.50     -14.20       0.00        0.00     126.58       2.38       0.09       0.61       ----

> <Gold.Chemscore.Fitness>
13.4963

> <Gold.Chemscore.DG>
-14.2011

> <Gold.Chemscore.ZeroCoef>
-5.4800

> <Gold.Chemscore.Hbond>
0.0000

> <Gold.Chemscore.Metal>
0.0000

> <Gold.Chemscore.Lipo>
126.5766

> <Gold.Chemscore.Internal_Hbond>
0.0000

> <Gold.Chemscore.DEClash>
0.0929

> <Gold.Chemscore.DEInternal>
0.6119

> <Gold.Chemscore.Rot>
2.3783

> <Gold.Chemscore.Internal.Correction>
   9.000000E+99

> <Gold.Chemscore.Hbond.Weighted>
-0.0000

> <Gold.Chemscore.Metal.Weighted>
-0.0000

> <Gold.Chemscore.Lipo.Weighted>
-14.8095

> <Gold.Chemscore.Internal_Hbond.Weighted>
0.0000

> <Gold.Chemscore.DEClash.Weighted>
0.0929

> <Gold.Chemscore.DEInternal.Weighted>
0.6119

> <Gold.Chemscore.Rot.Weighted>
6.0884

> <Gold.Chemscore.Internal.Correction.Weighted>
   9.000000E+99

> <Gold.Protein.RotatedTorsions>
[ 6907 6896 6895 6894 ] final   95.12 input  -60.11 | X-H torsion
[ 7974 7965 7964 7962 ] final  -23.29 input  175.53 | X-H torsion
[ 8008 7997 7996 7995 ] final -111.59 input   59.86 | X-H torsion
[ 10167 10162 10161 10158 ] final  -50.37 input  -65.29 | X-H torsion
[ 10718 10713 10712 10709 ] final   72.21 input   66.30 | X-H torsion
[ 10763 10752 10751 10750 ] final   29.38 input  -60.55 | X-H torsion
[ 11005 11000 10999 10996 ] final -170.83 input  -57.11 | X-H torsion

> <Gold.Protein.ActiveResidues>
 VAL166  LYS551  ARG553  GLY616  TRP617  ASP618  TYR619  PRO620  LYS621  CYS622 
 ASP623  PHE694  ASN695  SER759  ASP760  ASP761  ALA762  ILE779  LEU786  VAL792 
 PHE793  MET794  SER795  GLU796  ALA797  LYS798  CYS799  TRP800  GLU811  SER814 

> <Gold.Protein.RotatedAtoms>
  152.5445  134.1088  159.8349 H   0  0  0  0  0  0  0  0  0  0  0  0  # atno 6907 bound_to 6896
  151.1157  133.5133  159.2611 H   0  0  0  0  0  0  0  0  0  0  0  0  # atno 6908 bound_to 6896
  151.1834  135.0380  159.8857 H   0  0  0  0  0  0  0  0  0  0  0  0  # atno 6909 bound_to 6896
  146.1625  140.4595  142.8565 H   0  0  0  0  0  0  0  0  0  0  0  0  # atno 7974 bound_to 7965
  154.9922  140.0395  157.2324 H   0  0  0  0  0  0  0  0  0  0  0  0  # atno 8008 bound_to 7997
  154.7618  140.2786  155.6185 H   0  0  0  0  0  0  0  0  0  0  0  0  # atno 8009 bound_to 7997
  156.2905  140.2627  156.2399 H   0  0  0  0  0  0  0  0  0  0  0  0  # atno 8010 bound_to 7997
  140.6641  143.2660  151.4349 H   0  0  0  0  0  0  0  0  0  0  0  0  # atno 10167 bound_to 10162
  157.6490  130.9567  150.0897 H   0  0  0  0  0  0  0  0  0  0  0  0  # atno 10718 bound_to 10713
  153.0434  135.6490  154.0881 H   0  0  0  0  0  0  0  0  0  0  0  0  # atno 10763 bound_to 10752
  154.0584  135.2890  155.3330 H   0  0  0  0  0  0  0  0  0  0  0  0  # atno 10764 bound_to 10752
  154.6674  135.5369  153.8160 H   0  0  0  0  0  0  0  0  0  0  0  0  # atno 10765 bound_to 10752
  140.5151  134.5764  157.5031 H   0  0  0  0  0  0  0  0  0  0  0  0  # atno 11005 bound_to 11000
  144.8047  140.6277  143.6455 LP  0  0  0  0  0  0  0  0  0  0  0  0  # atno 17320 bound_to 7965
  145.4552  139.1519  143.3897 LP  0  0  0  0  0  0  0  0  0  0  0  0  # atno 17321 bound_to 7965
  139.5883  144.1554  152.2057 LP  0  0  0  0  0  0  0  0  0  0  0  0  # atno 17342 bound_to 10162
  140.0901  144.5628  150.7061 LP  0  0  0  0  0  0  0  0  0  0  0  0  # atno 17343 bound_to 10162
  156.1850  130.3652  149.8985 LP  0  0  0  0  0  0  0  0  0  0  0  0  # atno 17370 bound_to 10713
  156.6928  130.8902  151.3590 LP  0  0  0  0  0  0  0  0  0  0  0  0  # atno 17371 bound_to 10713
  139.9637  134.7409  156.0183 LP  0  0  0  0  0  0  0  0  0  0  0  0  # atno 17394 bound_to 11000
  141.1365  133.6574  156.3607 LP  0  0  0  0  0  0  0  0  0  0  0  0  # atno 17395 bound_to 11000

$$$$
