AV-unprocessed.smi:2162|AV-procd|sdf|8803|dock9
  -GOLD-   2272011583D 1   1.00000     0.00000
 Structure written by MMmdl.
 41 42  0  0  0  0  0  0  0  0  1 V2000
  149.2030  144.9836  160.7300 C   0  0  0  0  0  0  0  0  0  0  0  0
  150.2938  144.4294  159.8796 C   0  0  0  0  0  0  0  0  0  0  0  0
  150.2068  143.2639  159.2335 N   0  0  0  0  0  0  0  0  0  0  0  0
  151.3515  142.9780  158.4830 C   0  0  0  0  0  0  0  0  0  0  0  0
  151.4099  141.7314  157.6467 C   0  0  0  0  0  0  0  0  0  0  0  0
  150.5544  141.7989  156.3642 C   0  0  0  0  0  0  0  0  0  0  0  0
  150.2545  140.4736  155.8250 N   0  0  0  0  0  0  0  0  0  0  0  0
  149.7802  140.2288  154.5929 C   0  0  0  0  0  0  0  0  0  0  0  0
  149.4646  141.1177  153.8009 O   0  0  0  0  0  0  0  0  0  0  0  0
  149.6900  138.7535  154.1722 C   0  0  1  0  0  0  0  0  0  0  0  0
  151.0635  138.0564  154.2011 C   0  0  0  0  0  0  0  0  0  0  0  0
  150.9972  137.1832  155.4450 C   0  0  0  0  0  0  0  0  0  0  0  0
  151.9795  136.5964  155.8965 O   0  0  0  0  0  0  0  0  0  0  0  0
  149.7643  137.1821  155.9697 N   0  0  0  0  0  0  0  0  0  0  0  0
  149.3694  136.5456  157.2327 C   0  0  0  0  0  0  0  0  0  0  0  0
  150.1141  137.1291  158.4474 C   0  0  0  0  0  0  0  0  0  0  0  0
  149.5431  135.0216  157.1314 C   0  0  0  0  0  0  0  0  0  0  0  0
  148.8251  137.9420  155.1562 C   0  0  0  0  0  0  0  0  0  0  0  0
  152.3270  143.9375  158.5987 C   0  0  0  0  0  0  0  0  0  0  0  0
  151.8289  145.2508  159.6285 S   0  0  0  0  0  0  0  0  0  0  0  0
  148.2556  144.4922  160.5064 H   0  0  0  0  0  0  0  0  0  0  0  0
  149.0919  146.0522  160.5456 H   0  0  0  0  0  0  0  0  0  0  0  0
  149.4387  144.8315  161.7832 H   0  0  0  0  0  0  0  0  0  0  0  0
  152.4446  141.5285  157.3676 H   0  0  0  0  0  0  0  0  0  0  0  0
  151.0945  140.8725  158.2397 H   0  0  0  0  0  0  0  0  0  0  0  0
  149.6123  142.3037  156.5784 H   0  0  0  0  0  0  0  0  0  0  0  0
  151.0597  142.4107  155.6149 H   0  0  0  0  0  0  0  0  0  0  0  0
  150.4838  139.6826  156.4092 H   0  0  0  0  0  0  0  0  0  0  0  0
  149.2642  138.6954  153.1692 H   0  0  0  0  0  0  0  0  0  0  0  0
  151.2006  137.4242  153.3234 H   0  0  0  0  0  0  0  0  0  0  0  0
  151.9071  138.7465  154.2538 H   0  0  0  0  0  0  0  0  0  0  0  0
  148.3087  136.7475  157.3917 H   0  0  0  0  0  0  0  0  0  0  0  0
  149.7261  136.7097  159.3760 H   0  0  0  0  0  0  0  0  0  0  0  0
  149.9919  138.2112  158.5024 H   0  0  0  0  0  0  0  0  0  0  0  0
  151.1820  136.9106  158.4154 H   0  0  0  0  0  0  0  0  0  0  0  0
  149.2201  134.5277  158.0480 H   0  0  0  0  0  0  0  0  0  0  0  0
  150.5855  134.7535  156.9579 H   0  0  0  0  0  0  0  0  0  0  0  0
  148.9548  134.6088  156.3111 H   0  0  0  0  0  0  0  0  0  0  0  0
  148.1938  138.5750  155.7808 H   0  0  0  0  0  0  0  0  0  0  0  0
  148.1732  137.2552  154.6149 H   0  0  0  0  0  0  0  0  0  0  0  0
  153.2981  143.9600  158.1273 H   0  0  0  0  0  0  0  0  0  0  0  0
  1  2  1  0  0  0  0
  1 21  1  0  0  0  0
  1 22  1  0  0  0  0
  1 23  1  0  0  0  0
  2 20  1  0  0  0  0
  2  3  2  0  0  0  0
  3  4  1  0  0  0  0
  4  5  1  0  0  0  0
  4 19  2  0  0  0  0
  5  6  1  0  0  0  0
  5 24  1  0  0  0  0
  5 25  1  0  0  0  0
  6  7  1  0  0  0  0
  6 26  1  0  0  0  0
  6 27  1  0  0  0  0
  7  8  1  0  0  0  0
  7 28  1  0  0  0  0
  8  9  2  0  0  0  0
  8 10  1  0  0  0  0
 10 18  1  0  0  0  0
 10 11  1  0  0  0  0
 10 29  1  0  0  0  0
 11 12  1  0  0  0  0
 11 30  1  0  0  0  0
 11 31  1  0  0  0  0
 12 13  2  0  0  0  0
 12 14  1  0  0  0  0
 14 15  1  0  0  0  0
 14 18  1  0  0  0  0
 15 16  1  0  0  0  0
 15 17  1  0  0  0  0
 15 32  1  0  0  0  0
 16 33  1  0  0  0  0
 16 34  1  0  0  0  0
 16 35  1  0  0  0  0
 17 36  1  0  0  0  0
 17 37  1  0  0  0  0
 17 38  1  0  0  0  0
 18 39  1  0  0  0  0
 18 40  1  0  0  0  0
 19 20  1  0  0  0  0
 19 41  1  0  0  0  0
M  END
> <s_m_source_file>
AV-unprocessed.smi

> <i_m_source_file_index>
2162

> <i_lp_mmshare_version>
43012

> <i_f3d_flags>
0

> <s_epik_input>
W0NIM11jMW5jKFtjSF1zMSlbQ0gyXVtDSDJdW05IXUMoPU8pW0NAQEhdMltDSDJdQyg9TylOKFtDSDJdMilbQ0hdKFtDSDNdKVtDSDNd

> <s_epik_cmdline>
J2VwaWtfcHl0aG9uJywgJy1waCcsICc3LjAnLCAnLXRuJywgJzgnLCAnLW1hJywgJzIwMCcsICctbWV0YWxfYmluZGluZycsICctaW1hZScsICc8aW5maWxlLm1hZT4nLCAnLW9tYWUnLCAnPG91dGZpbGUubWFlPic=

> <r_epik_Ionization_Penalty>
0.000973993

> <r_epik_Ionization_Penalty_Charging>
0

> <r_epik_Ionization_Penalty_Neutral>
0.000973993

> <r_epik_State_Penalty>
0.000633765

> <r_epik_Charging_Adjusted_Penalty>
0.000633765

> <i_epik_Tot_Q>
0

> <i_epik_Tot_abs_Q>
0

> <r_epik_Metal_State_Penalty>
-0

> <b_epik_Metal_Only>
0

> <s_lp_Force_Field>
OPLS_2005

> <r_lp_Energy>
12.9276

> <b_lp_Chiralities_Consistent>
1

> <s_lp_Variant>
AV-unprocessed.smi:2162-2

> <Gold.Version>
5.8.1

> <Gold.Id.Protein>
6NUR|6NUR_protein|mol2

> <Gold.PLP.Fitness>
42.4946

> <Gold.PLP.PLP>
-37.4430

> <Gold.PLP.part.hbond>
-3.4088

> <Gold.PLP.part.metal>
0.0000

> <Gold.PLP.part.buried>
-5.8910

> <Gold.PLP.part.nonpolar>
-30.0594

> <Gold.PLP.part.repulsive>
2.1996

> <Gold.PLP.ligand.clash>
0.0000

> <Gold.PLP.ligand.torsion>
0.4007

> <Gold.PLP.Chemscore.Hbond>
1.9280

> <Gold.PLP.Chemscore.CHOScore>
0.0000

> <Gold.PLP.Chemscore.Metal>
0.0000

> <Gold.Chemscore.Hbonds>
donor molecule, donor type, donor heavy atom, donor atom, acceptor molecule, acceptor atom, score
      P1  H  8011  8017       L1     9  0.91
      P1  H 10752 10763       L1    13  1.00

> <Gold.PLP.Chemscore.Internal.Correction>
0.0691

> <Gold.Rescore>
     Score         DG    S(hbond)    S(metal)    S(lipo)     H(rot)  DE(clash)    DE(int)     intcor
     17.37     -17.93       1.79        0.00      91.67       1.66       0.28       0.28       ----

> <Gold.Chemscore.Fitness>
17.3718

> <Gold.Chemscore.DG>
-17.9337

> <Gold.Chemscore.ZeroCoef>
-5.4800

> <Gold.Chemscore.Hbond>
1.7888

> <Gold.Chemscore.Metal>
0.0000

> <Gold.Chemscore.Lipo>
91.6656

> <Gold.Chemscore.Internal_Hbond>
0.0000

> <Gold.Chemscore.DEClash>
0.2839

> <Gold.Chemscore.DEInternal>
0.2780

> <Gold.Chemscore.Rot>
1.6585

> <Gold.Chemscore.Internal.Correction>
   9.000000E+99

> <Gold.Chemscore.Hbonds>
donor molecule, donor type, donor heavy atom, donor atom, acceptor molecule, acceptor atom, score
      P1  H  8011  8017       L1     9  0.87
      P1  H 10752 10763       L1    13  0.98

> <Gold.Chemscore.Hbond.Weighted>
-5.9745

> <Gold.Chemscore.Metal.Weighted>
-0.0000

> <Gold.Chemscore.Lipo.Weighted>
-10.7249

> <Gold.Chemscore.Internal_Hbond.Weighted>
0.0000

> <Gold.Chemscore.DEClash.Weighted>
0.2839

> <Gold.Chemscore.DEInternal.Weighted>
0.2780

> <Gold.Chemscore.Rot.Weighted>
4.2457

> <Gold.Chemscore.Internal.Correction.Weighted>
   9.000000E+99

> <Gold.Protein.RotatedTorsions>
[ 6907 6896 6895 6894 ] final   97.68 input  -60.11 | X-H torsion
[ 7974 7965 7964 7962 ] final  150.08 input  175.53 | X-H torsion
[ 8008 7997 7996 7995 ] final  104.28 input   59.86 | X-H torsion
[ 10167 10162 10161 10158 ] final    4.95 input  -65.29 | X-H torsion
[ 10718 10713 10712 10709 ] final -142.24 input   66.30 | X-H torsion
[ 10763 10752 10751 10750 ] final   75.38 input  -60.55 | X-H torsion
[ 11005 11000 10999 10996 ] final   11.02 input  -57.11 | X-H torsion

> <Gold.Protein.ActiveResidues>
 VAL166  LYS551  ARG553  GLY616  TRP617  ASP618  TYR619  PRO620  LYS621  CYS622 
 ASP623  PHE694  ASN695  SER759  ASP760  ASP761  ALA762  ILE779  LEU786  VAL792 
 PHE793  MET794  SER795  GLU796  ALA797  LYS798  CYS799  TRP800  GLU811  SER814 

> <Gold.Protein.RotatedAtoms>
  152.5420  134.0697  159.8188 H   0  0  0  0  0  0  0  0  0  0  0  0  # atno 6907 bound_to 6896
  151.0813  133.5380  159.2628 H   0  0  0  0  0  0  0  0  0  0  0  0  # atno 6908 bound_to 6896
  151.2207  135.0526  159.9002 H   0  0  0  0  0  0  0  0  0  0  0  0  # atno 6909 bound_to 6896
  144.8390  139.6363  143.6025 H   0  0  0  0  0  0  0  0  0  0  0  0  # atno 7974 bound_to 7965
  156.1559  140.3150  155.8724 H   0  0  0  0  0  0  0  0  0  0  0  0  # atno 8008 bound_to 7997
  155.3880  140.0492  157.3058 H   0  0  0  0  0  0  0  0  0  0  0  0  # atno 8009 bound_to 7997
  154.5100  140.2161  155.9186 H   0  0  0  0  0  0  0  0  0  0  0  0  # atno 8010 bound_to 7997
  140.6508  143.7550  150.7572 H   0  0  0  0  0  0  0  0  0  0  0  0  # atno 10167 bound_to 10162
  156.3435  130.7650  151.1791 H   0  0  0  0  0  0  0  0  0  0  0  0  # atno 10718 bound_to 10713
  153.0651  135.4991  154.8180 H   0  0  0  0  0  0  0  0  0  0  0  0  # atno 10763 bound_to 10752
  154.6941  135.2989  154.9440 H   0  0  0  0  0  0  0  0  0  0  0  0  # atno 10764 bound_to 10752
  154.0185  135.6745  153.4823 H   0  0  0  0  0  0  0  0  0  0  0  0  # atno 10765 bound_to 10752
  140.5079  134.0681  155.7810 H   0  0  0  0  0  0  0  0  0  0  0  0  # atno 11005 bound_to 11000
  146.2685  139.6578  142.9312 LP  0  0  0  0  0  0  0  0  0  0  0  0  # atno 17320 bound_to 7965
  145.4734  141.0436  143.2686 LP  0  0  0  0  0  0  0  0  0  0  0  0  # atno 17321 bound_to 7965
  140.1200  143.4621  152.2319 LP  0  0  0  0  0  0  0  0  0  0  0  0  # atno 17342 bound_to 10162
  139.5723  144.7469  151.3858 LP  0  0  0  0  0  0  0  0  0  0  0  0  # atno 17343 bound_to 10162
  157.7450  131.0448  150.4810 LP  0  0  0  0  0  0  0  0  0  0  0  0  # atno 17370 bound_to 10713
  156.4993  130.4113  149.6362 LP  0  0  0  0  0  0  0  0  0  0  0  0  # atno 17371 bound_to 10713
  141.1401  133.9153  157.2345 LP  0  0  0  0  0  0  0  0  0  0  0  0  # atno 17394 bound_to 11000
  139.9675  135.0137  156.9426 LP  0  0  0  0  0  0  0  0  0  0  0  0  # atno 17395 bound_to 11000

$$$$
