AV-unprocessed.smi:2928|AV-procd|sdf|11236|dock2
  -GOLD-   2272016133D 1   1.00000     0.00000
 Structure written by MMmdl.
 56 59  0  0  0  0  0  0  0  0  3 V2000
  147.4968  141.9445  154.1253 C   0  0  0  0  0  0  0  0  0  0  0  0
  148.3925  141.8516  155.3028 N   0  3  2  0  0  0  0  0  0  0  0  0
  149.7713  141.3951  155.0030 C   0  0  1  0  0  0  0  0  0  0  0  0
  150.6890  141.7607  156.1931 C   0  0  0  0  0  0  0  0  0  0  0  0
  150.1765  141.2496  157.5549 C   0  0  0  0  0  0  0  0  0  0  0  0
  148.6537  141.4344  157.7185 C   0  0  0  0  0  0  0  0  0  0  0  0
  147.8405  141.0887  156.4487 C   0  0  2  0  0  0  0  0  0  0  0  0
  147.7505  139.5757  156.1265 C   0  0  0  0  0  0  0  0  0  0  0  0
  149.0575  138.9541  155.5832 C   0  0  1  0  0  0  0  0  0  0  0  0
  148.7478  137.6856  154.9266 N   0  0  0  0  0  0  0  0  0  0  0  0
  149.2509  136.4920  155.2748 C   0  0  0  0  0  0  0  0  0  0  0  0
  150.0558  136.3328  156.1922 O   0  0  0  0  0  0  0  0  0  0  0  0
  148.7813  135.5126  154.4842 N   0  0  0  0  0  0  0  0  0  0  0  0
  149.1031  134.1269  154.5343 C   0  0  0  0  0  0  0  0  0  0  0  0
  150.0945  133.6394  155.4243 C   0  0  0  0  0  0  0  0  0  0  0  0
  150.3435  132.2568  155.5100 C   0  0  0  0  0  0  0  0  0  0  0  0
  149.5855  131.3788  154.7168 C   0  0  0  0  0  0  0  0  0  0  0  0
  148.6414  131.8720  153.8890 N   0  3  0  0  0  0  0  0  0  0  0  0
  148.3655  133.1930  153.7500 C   0  0  0  0  0  0  0  0  0  0  0  0
  147.3582  133.5649  152.8306 N   0  0  0  0  0  0  0  0  0  0  0  0
  146.2687  134.4418  153.2438 C   0  0  0  0  0  0  0  0  0  0  0  0
  145.2221  134.3189  152.1399 C   0  0  0  0  0  0  0  0  0  0  0  0
  145.3545  132.8574  151.7227 C   0  0  0  0  0  0  0  0  0  0  0  0
  146.8472  132.5612  151.9019 C   0  0  0  0  0  0  0  0  0  0  0  0
  149.7944  139.8988  154.6013 C   0  0  0  0  0  0  0  0  0  0  0  0
  147.3094  140.9728  153.6692 H   0  0  0  0  0  0  0  0  0  0  0  0
  147.9339  142.5942  153.3664 H   0  0  0  0  0  0  0  0  0  0  0  0
  146.5363  142.3734  154.4115 H   0  0  0  0  0  0  0  0  0  0  0  0
  150.1334  141.9674  154.1477 H   0  0  0  0  0  0  0  0  0  0  0  0
  151.7038  141.4026  156.0170 H   0  0  0  0  0  0  0  0  0  0  0  0
  150.7625  142.8478  156.2447 H   0  0  0  0  0  0  0  0  0  0  0  0
  150.4506  140.2076  157.6958 H   0  0  0  0  0  0  0  0  0  0  0  0
  150.6939  141.7765  158.3572 H   0  0  0  0  0  0  0  0  0  0  0  0
  148.2958  140.8556  158.5705 H   0  0  0  0  0  0  0  0  0  0  0  0
  148.4642  142.4792  157.9686 H   0  0  0  0  0  0  0  0  0  0  0  0
  146.8243  141.4436  156.6271 H   0  0  0  0  0  0  0  0  0  0  0  0
  147.4202  139.0265  157.0090 H   0  0  0  0  0  0  0  0  0  0  0  0
  146.9584  139.4353  155.3898 H   0  0  0  0  0  0  0  0  0  0  0  0
  149.7071  138.7298  156.4259 H   0  0  0  0  0  0  0  0  0  0  0  0
  148.0932  137.7194  154.1587 H   0  0  0  0  0  0  0  0  0  0  0  0
  148.2083  135.8008  153.7045 H   0  0  0  0  0  0  0  0  0  0  0  0
  150.6545  134.3068  156.0620 H   0  0  0  0  0  0  0  0  0  0  0  0
  151.0963  131.8758  156.1848 H   0  0  0  0  0  0  0  0  0  0  0  0
  149.7012  130.3045  154.7210 H   0  0  0  0  0  0  0  0  0  0  0  0
  145.8434  134.1050  154.1903 H   0  0  0  0  0  0  0  0  0  0  0  0
  146.6099  135.4706  153.3646 H   0  0  0  0  0  0  0  0  0  0  0  0
  144.2176  134.5798  152.4746 H   0  0  0  0  0  0  0  0  0  0  0  0
  145.4822  134.9697  151.3039 H   0  0  0  0  0  0  0  0  0  0  0  0
  144.7718  132.2303  152.3988 H   0  0  0  0  0  0  0  0  0  0  0  0
  145.0047  132.6707  150.7071 H   0  0  0  0  0  0  0  0  0  0  0  0
  147.3651  132.6689  150.9486 H   0  0  0  0  0  0  0  0  0  0  0  0
  147.0082  131.5447  152.2642 H   0  0  0  0  0  0  0  0  0  0  0  0
  149.3381  139.8069  153.6148 H   0  0  0  0  0  0  0  0  0  0  0  0
  150.8252  139.5674  154.4706 H   0  0  0  0  0  0  0  0  0  0  0  0
  148.4858  142.8032  155.6292 H   0  0  0  0  0  0  0  0  0  0  0  0
  148.1077  131.2091  153.3267 H   0  0  0  0  0  0  0  0  0  0  0  0
  1  2  1  0  0  0  0
  1 26  1  0  0  0  0
  1 27  1  0  0  0  0
  1 28  1  0  0  0  0
  2  7  1  0  0  0  0
  2  3  1  0  0  0  0
  2 55  1  0  0  0  0
  3 25  1  0  0  0  0
  3  4  1  0  0  0  0
  3 29  1  0  0  0  0
  4  5  1  0  0  0  0
  4 30  1  0  0  0  0
  4 31  1  0  0  0  0
  5  6  1  0  0  0  0
  5 32  1  0  0  0  0
  5 33  1  0  0  0  0
  6  7  1  0  0  0  0
  6 34  1  0  0  0  0
  6 35  1  0  0  0  0
  7  8  1  0  0  0  0
  7 36  1  0  0  0  0
  8  9  1  0  0  0  0
  8 37  1  0  0  0  0
  8 38  1  0  0  0  0
  9 10  1  0  0  0  0
  9 25  1  0  0  0  0
  9 39  1  0  0  0  0
 10 11  1  0  0  0  0
 10 40  1  0  0  0  0
 11 12  2  0  0  0  0
 11 13  1  0  0  0  0
 13 14  1  0  0  0  0
 13 41  1  0  0  0  0
 14 19  1  0  0  0  0
 14 15  2  0  0  0  0
 15 16  1  0  0  0  0
 15 42  1  0  0  0  0
 16 17  2  0  0  0  0
 16 43  1  0  0  0  0
 17 18  1  0  0  0  0
 17 44  1  0  0  0  0
 18 19  2  0  0  0  0
 18 56  1  0  0  0  0
 19 20  1  0  0  0  0
 20 24  1  0  0  0  0
 20 21  1  0  0  0  0
 21 22  1  0  0  0  0
 21 45  1  0  0  0  0
 21 46  1  0  0  0  0
 22 23  1  0  0  0  0
 22 47  1  0  0  0  0
 22 48  1  0  0  0  0
 23 24  1  0  0  0  0
 23 49  1  0  0  0  0
 23 50  1  0  0  0  0
 24 51  1  0  0  0  0
 24 52  1  0  0  0  0
 25 53  1  0  0  0  0
 25 54  1  0  0  0  0
M  CHG  1   2   1
M  CHG  1  18   1
M  END
> <s_m_source_file>
AV-unprocessed.smi

> <i_m_source_file_index>
2928

> <i_lp_mmshare_version>
43012

> <i_f3d_flags>
0

> <s_epik_input>
W0NIMl0xW0NIMl1bQ0gyXVtDQEhdKE4oW0NIM10pW0NIXTEyKVtDSDJdW0NASF0oW0NIMl0yKVtOSF1DKD1PKVtOSF1jM1tjSF1bY0hdW2NIXW5jM040W0NIMl1bQ0gyXVtDSDJdW0NIMl00

> <s_epik_cmdline>
J2VwaWtfcHl0aG9uJywgJy1waCcsICc3LjAnLCAnLXRuJywgJzgnLCAnLW1hJywgJzIwMCcsICctbWV0YWxfYmluZGluZycsICctaW1hZScsICc8aW5maWxlLm1hZT4nLCAnLW9tYWUnLCAnPG91dGZpbGUubWFlPic=

> <r_lp_tautomer_probability>
0.999994

> <r_epik_Ionization_Penalty>
1.2404

> <r_epik_Ionization_Penalty_Charging>
1.24038

> <r_epik_Ionization_Penalty_Neutral>
1.86539e-05

> <r_epik_State_Penalty>
1.30821

> <r_epik_Charging_Adjusted_Penalty>
2.54859

> <i_epik_Tot_Q>
2

> <i_epik_Tot_abs_Q>
2

> <r_epik_Metal_State_Penalty>
1.3782

> <b_epik_Metal_Only>
0

> <s_lp_Force_Field>
OPLS_2005

> <r_lp_Energy>
72.136

> <b_lp_Chiralities_Consistent>
1

> <s_lp_Variant>
AV-unprocessed.smi:2928-6

> <Gold.Version>
5.8.1

> <Gold.Id.Protein>
6NUR|6NUR_protein|mol2

> <Gold.PLP.Fitness>
44.5159

> <Gold.PLP.PLP>
-37.1267

> <Gold.PLP.part.hbond>
-2.0393

> <Gold.PLP.part.metal>
0.0000

> <Gold.PLP.part.buried>
-3.8878

> <Gold.PLP.part.nonpolar>
-31.2318

> <Gold.PLP.part.repulsive>
0.6515

> <Gold.PLP.ligand.clash>
0.0100

> <Gold.PLP.ligand.torsion>
0.2093

> <Gold.PLP.Chemscore.Hbond>
2.4800

> <Gold.PLP.Chemscore.CHOScore>
0.0000

> <Gold.PLP.Chemscore.Metal>
0.0000

> <Gold.Chemscore.Hbonds>
donor molecule, donor type, donor heavy atom, donor atom, acceptor molecule, acceptor atom, score
      L1  H     2    55       P1  8028  2.00
      L1  H    13    41       P1  7948  0.46

> <Gold.PLP.Chemscore.Internal.Correction>
0.3777

> <Gold.Rescore>
     Score         DG    S(hbond)    S(metal)    S(lipo)     H(rot)  DE(clash)    DE(int)     intcor
     15.21     -17.21       1.53        0.00      82.61       1.19       0.30       1.69       ----

> <Gold.Chemscore.Fitness>
15.2105

> <Gold.Chemscore.DG>
-17.2062

> <Gold.Chemscore.ZeroCoef>
-5.4800

> <Gold.Chemscore.Hbond>
1.5274

> <Gold.Chemscore.Metal>
0.0000

> <Gold.Chemscore.Lipo>
82.6131

> <Gold.Chemscore.Internal_Hbond>
0.0000

> <Gold.Chemscore.DEClash>
0.3029

> <Gold.Chemscore.DEInternal>
1.6928

> <Gold.Chemscore.Rot>
1.1879

> <Gold.Chemscore.Internal.Correction>
   9.000000E+99

> <Gold.Chemscore.Hbonds>
donor molecule, donor type, donor heavy atom, donor atom, acceptor molecule, acceptor atom, score
      L1  H     2    55       P1  8028  0.98
      L1  H    13    41       P1  7948  0.43

> <Gold.Chemscore.Hbond.Weighted>
-5.1015

> <Gold.Chemscore.Metal.Weighted>
-0.0000

> <Gold.Chemscore.Lipo.Weighted>
-9.6657

> <Gold.Chemscore.Internal_Hbond.Weighted>
0.0000

> <Gold.Chemscore.DEClash.Weighted>
0.3029

> <Gold.Chemscore.DEInternal.Weighted>
1.6928

> <Gold.Chemscore.Rot.Weighted>
3.0410

> <Gold.Chemscore.Internal.Correction.Weighted>
   9.000000E+99

> <Gold.Protein.RotatedTorsions>
[ 6907 6896 6895 6894 ] final -108.45 input  -60.11 | X-H torsion
[ 7974 7965 7964 7962 ] final  135.50 input  175.53 | X-H torsion
[ 8008 7997 7996 7995 ] final   24.12 input   59.86 | X-H torsion
[ 10167 10162 10161 10158 ] final  175.18 input  -65.29 | X-H torsion
[ 10718 10713 10712 10709 ] final   31.23 input   66.30 | X-H torsion
[ 10763 10752 10751 10750 ] final  -14.24 input  -60.55 | X-H torsion
[ 11005 11000 10999 10996 ] final  -85.85 input  -57.11 | X-H torsion

> <Gold.Protein.ActiveResidues>
 VAL166  LYS551  ARG553  GLY616  TRP617  ASP618  TYR619  PRO620  LYS621  CYS622 
 ASP623  PHE694  ASN695  SER759  ASP760  ASP761  ALA762  ILE779  LEU786  VAL792 
 PHE793  MET794  SER795  GLU796  ALA797  LYS798  CYS799  TRP800  GLU811  SER814 

> <Gold.Protein.RotatedAtoms>
  150.7502  133.9676  159.3535 H   0  0  0  0  0  0  0  0  0  0  0  0  # atno 6907 bound_to 6896
  151.7607  135.0809  160.0354 H   0  0  0  0  0  0  0  0  0  0  0  0  # atno 6908 bound_to 6896
  152.3405  133.6024  159.5909 H   0  0  0  0  0  0  0  0  0  0  0  0  # atno 6909 bound_to 6896
  144.9657  139.4660  143.5457 H   0  0  0  0  0  0  0  0  0  0  0  0  # atno 7974 bound_to 7965
  154.9914  140.3114  155.4904 H   0  0  0  0  0  0  0  0  0  0  0  0  # atno 8008 bound_to 7997
  156.2939  140.2248  156.4959 H   0  0  0  0  0  0  0  0  0  0  0  0  # atno 8009 bound_to 7997
  154.7700  140.0453  157.1031 H   0  0  0  0  0  0  0  0  0  0  0  0  # atno 8010 bound_to 7997
  139.5168  144.3061  152.0334 H   0  0  0  0  0  0  0  0  0  0  0  0  # atno 10167 bound_to 10162
  157.2698  130.7202  149.6498 H   0  0  0  0  0  0  0  0  0  0  0  0  # atno 10718 bound_to 10713
  153.5253  135.7015  153.5710 H   0  0  0  0  0  0  0  0  0  0  0  0  # atno 10763 bound_to 10752
  153.3741  135.3937  155.1810 H   0  0  0  0  0  0  0  0  0  0  0  0  # atno 10764 bound_to 10752
  154.8690  135.3819  154.4746 H   0  0  0  0  0  0  0  0  0  0  0  0  # atno 10765 bound_to 10752
  141.1637  133.7422  156.9075 H   0  0  0  0  0  0  0  0  0  0  0  0  # atno 11005 bound_to 11000
  146.3367  139.8837  142.8820 LP  0  0  0  0  0  0  0  0  0  0  0  0  # atno 17320 bound_to 7965
  145.2633  141.0084  143.3814 LP  0  0  0  0  0  0  0  0  0  0  0  0  # atno 17321 bound_to 7965
  140.2507  144.4172  150.6223 LP  0  0  0  0  0  0  0  0  0  0  0  0  # atno 17342 bound_to 10162
  140.6227  143.2178  151.6661 LP  0  0  0  0  0  0  0  0  0  0  0  0  # atno 17343 bound_to 10162
  155.9663  130.4371  150.5161 LP  0  0  0  0  0  0  0  0  0  0  0  0  # atno 17370 bound_to 10713
  157.3083  131.0659  151.2019 LP  0  0  0  0  0  0  0  0  0  0  0  0  # atno 17371 bound_to 10713
  140.1539  134.9211  157.2629 LP  0  0  0  0  0  0  0  0  0  0  0  0  # atno 17394 bound_to 11000
  140.2690  134.3483  155.7380 LP  0  0  0  0  0  0  0  0  0  0  0  0  # atno 17395 bound_to 11000

$$$$
