AV-unprocessed.smi:283|AV-procd|sdf|2136|dock4
  -GOLD-   2262021453D 1   1.00000     0.00000
 Structure written by MMmdl.
 48 51  0  0  0  0  0  0  0  0  1 V2000
  145.9591  135.6998  158.0908 C   0  0  0  0  0  0  0  0  0  0  0  0
  147.0167  134.7736  158.7062 C   0  0  1  0  0  0  0  0  0  0  0  0
  148.2859  134.9417  158.0019 N   0  0  0  0  0  0  0  0  0  0  0  0
  148.4569  134.4863  156.7410 C   0  0  0  0  0  0  0  0  0  0  0  0
  149.7104  134.6086  156.2442 N   0  0  0  0  0  0  0  0  0  0  0  0
  149.9886  134.1738  155.0130 C   0  0  0  0  0  0  0  0  0  0  0  0
  149.1720  133.6013  154.1282 N   0  0  0  0  0  0  0  0  0  0  0  0
  147.9015  133.4859  154.6112 C   0  0  0  0  0  0  0  0  0  0  0  0
  147.4616  133.9044  155.9009 C   0  0  0  0  0  0  0  0  0  0  0  0
  146.1040  133.6369  156.0305 N   0  0  0  0  0  0  0  0  0  0  0  0
  145.7716  133.0839  154.8974 C   0  0  0  0  0  0  0  0  0  0  0  0
  146.7918  132.9505  153.9841 N   0  0  0  0  0  0  0  0  0  0  0  0
  146.6954  132.3492  152.6126 C   0  0  1  0  0  0  0  0  0  0  0  0
  145.3860  131.9266  152.3696 O   0  0  0  0  0  0  0  0  0  0  0  0
  144.8240  132.6451  151.2722 C   0  0  2  0  0  0  0  0  0  0  0  0
  143.7557  131.8076  150.5488 C   0  0  0  0  0  0  0  0  0  0  0  0
  143.2279  132.5365  149.4616 O   0  0  0  0  0  0  0  0  0  0  0  0
  146.0445  133.0379  150.4299 C   0  0  2  0  0  0  0  0  0  0  0  0
  146.4590  131.9691  149.5977 O   0  0  0  0  0  0  0  0  0  0  0  0
  147.0941  133.3294  151.4908 C   0  0  1  0  0  0  0  0  0  0  0  0
  147.0463  134.6923  151.8761 O   0  0  0  0  0  0  0  0  0  0  0  0
  147.0903  134.9858  160.2211 C   0  0  0  0  0  0  0  0  0  0  0  0
  147.5060  136.2346  160.7400 C   0  0  0  0  0  0  0  0  0  0  0  0
  147.5755  136.4485  162.1292 C   0  0  0  0  0  0  0  0  0  0  0  0
  147.2212  135.4176  163.0174 C   0  0  0  0  0  0  0  0  0  0  0  0
  146.7927  134.1758  162.5135 C   0  0  0  0  0  0  0  0  0  0  0  0
  146.7219  133.9559  161.1232 C   0  0  0  0  0  0  0  0  0  0  0  0
  146.1744  132.4146  160.5621 Cl  0  0  0  0  0  0  0  0  0  0  0  0
  147.3422  131.4721  152.6539 H   0  0  0  0  0  0  0  0  0  0  0  0
  144.3756  133.5667  151.6456 H   0  0  0  0  0  0  0  0  0  0  0  0
  145.8410  133.9006  149.7940 H   0  0  0  0  0  0  0  0  0  0  0  0
  148.1068  133.1089  151.1507 H   0  0  0  0  0  0  0  0  0  0  0  0
  144.9801  135.5316  158.5405 H   0  0  0  0  0  0  0  0  0  0  0  0
  145.8610  135.5271  157.0187 H   0  0  0  0  0  0  0  0  0  0  0  0
  146.2162  136.7495  158.2378 H   0  0  0  0  0  0  0  0  0  0  0  0
  146.6934  133.7537  158.5055 H   0  0  0  0  0  0  0  0  0  0  0  0
  149.0715  135.1566  158.5986 H   0  0  0  0  0  0  0  0  0  0  0  0
  151.0115  134.3020  154.6905 H   0  0  0  0  0  0  0  0  0  0  0  0
  144.7631  132.7530  154.6959 H   0  0  0  0  0  0  0  0  0  0  0  0
  144.2006  130.8972  150.1457 H   0  0  0  0  0  0  0  0  0  0  0  0
  142.9558  131.5083  151.2266 H   0  0  0  0  0  0  0  0  0  0  0  0
  142.4276  132.9540  149.7416 H   0  0  0  0  0  0  0  0  0  0  0  0
  147.1076  131.4618  150.0614 H   0  0  0  0  0  0  0  0  0  0  0  0
  147.6722  135.1727  151.3558 H   0  0  0  0  0  0  0  0  0  0  0  0
  147.7763  137.0403  160.0734 H   0  0  0  0  0  0  0  0  0  0  0  0
  147.8982  137.4053  162.5126 H   0  0  0  0  0  0  0  0  0  0  0  0
  147.2717  135.5806  164.0837 H   0  0  0  0  0  0  0  0  0  0  0  0
  146.5133  133.3888  163.1984 H   0  0  0  0  0  0  0  0  0  0  0  0
  1  2  1  0  0  0  0
  1 33  1  0  0  0  0
  1 34  1  0  0  0  0
  1 35  1  0  0  0  0
  2  3  1  0  0  0  0
  2 22  1  0  0  0  0
  2 36  1  0  0  0  0
  3  4  1  0  0  0  0
  3 37  1  0  0  0  0
  4  9  1  0  0  0  0
  4  5  2  0  0  0  0
  5  6  1  0  0  0  0
  6  7  2  0  0  0  0
  6 38  1  0  0  0  0
  7  8  1  0  0  0  0
  8 12  1  0  0  0  0
  8  9  2  0  0  0  0
  9 10  1  0  0  0  0
 10 11  2  0  0  0  0
 11 12  1  0  0  0  0
 11 39  1  0  0  0  0
 12 13  1  0  0  0  0
 13 29  1  0  0  0  0
 13 20  1  0  0  0  0
 13 14  1  0  0  0  0
 14 15  1  0  0  0  0
 15 30  1  0  0  0  0
 15 16  1  0  0  0  0
 15 18  1  0  0  0  0
 16 17  1  0  0  0  0
 16 40  1  0  0  0  0
 16 41  1  0  0  0  0
 17 42  1  0  0  0  0
 18 31  1  0  0  0  0
 18 19  1  0  0  0  0
 18 20  1  0  0  0  0
 19 43  1  0  0  0  0
 20 32  1  0  0  0  0
 20 21  1  0  0  0  0
 21 44  1  0  0  0  0
 22 27  1  0  0  0  0
 22 23  2  0  0  0  0
 23 24  1  0  0  0  0
 23 45  1  0  0  0  0
 24 25  2  0  0  0  0
 24 46  1  0  0  0  0
 25 26  1  0  0  0  0
 25 47  1  0  0  0  0
 26 27  2  0  0  0  0
 26 48  1  0  0  0  0
 27 28  1  0  0  0  0
M  END
> <s_m_source_file>
AV-unprocessed.smi

> <i_m_source_file_index>
283

> <i_lp_mmshare_version>
43012

> <i_f3d_flags>
0

> <s_epik_input>
Q2xjMVtjSF1bY0hdW2NIXVtjSF1jMVtDQEhdKFtDSDNdKVtOSF1jKG5bY0hdbjIpYyhjMjMpbltjSF1uM1tDQEBIXTRPW0NASF0oW0NIMl1bT0hdKVtDQEBIXShbT0hdKVtDQEhdNFtPSF0=

> <s_epik_cmdline>
J2VwaWtfcHl0aG9uJywgJy1waCcsICc3LjAnLCAnLXRuJywgJzgnLCAnLW1hJywgJzIwMCcsICctbWV0YWxfYmluZGluZycsICctaW1hZScsICc8aW5maWxlLm1hZT4nLCAnLW9tYWUnLCAnPG91dGZpbGUubWFlPic=

> <r_lp_tautomer_probability>
1

> <r_epik_Ionization_Penalty>
0.000266407

> <r_epik_Ionization_Penalty_Charging>
0

> <r_epik_Ionization_Penalty_Neutral>
0.000266407

> <r_epik_State_Penalty>
-0

> <r_epik_Charging_Adjusted_Penalty>
0

> <i_epik_Tot_Q>
0

> <i_epik_Tot_abs_Q>
0

> <r_epik_Metal_State_Penalty>
-0

> <b_epik_Metal_Only>
0

> <s_epik_Chemistry_Notes>
This compound contains an acetal/aminal-like group ( X-CH(R)-Y where X, Y are N, S, or O) that may be acid/base labile, releasing an aldehyde.

> <s_lp_Force_Field>
OPLS_2005

> <r_lp_Energy>
46.6605

> <b_lp_Chiralities_Consistent>
1

> <s_lp_Variant>
AV-unprocessed.smi:283-12

> <Gold.Version>
5.8.1

> <Gold.Id.Protein>
6NUR|6NUR_protein|mol2

> <Gold.PLP.Fitness>
51.7437

> <Gold.PLP.PLP>
-41.2695

> <Gold.PLP.part.hbond>
-2.7875

> <Gold.PLP.part.metal>
0.0000

> <Gold.PLP.part.buried>
-5.7700

> <Gold.PLP.part.nonpolar>
-31.9619

> <Gold.PLP.part.repulsive>
0.4380

> <Gold.PLP.ligand.clash>
0.0000

> <Gold.PLP.ligand.torsion>
0.1910

> <Gold.PLP.Chemscore.Hbond>
2.5912

> <Gold.PLP.Chemscore.CHOScore>
1.0000

> <Gold.PLP.Chemscore.Metal>
0.0000

> <Gold.Chemscore.Hbonds>
donor molecule, donor type, donor heavy atom, donor atom, acceptor molecule, acceptor atom, score
      L1  H    17    42       P1 10186  0.96
      L1  H    19    43       P1 10747  0.99
      L1  H    21    44       P1  7948  0.62
      L1  C    11    39       P1 10957  1.00

> <Gold.PLP.Chemscore.Internal.Correction>
0.0826

> <Gold.Rescore>
     Score         DG    S(hbond)    S(metal)    S(lipo)     H(rot)  DE(clash)    DE(int)     intcor
     12.05     -13.29       2.56        0.00      83.46       4.10       0.03       1.21       ----

> <Gold.Chemscore.Fitness>
12.0537

> <Gold.Chemscore.DG>
-13.2939

> <Gold.Chemscore.ZeroCoef>
-5.4800

> <Gold.Chemscore.Hbond>
2.5559

> <Gold.Chemscore.Metal>
0.0000

> <Gold.Chemscore.Lipo>
83.4624

> <Gold.Chemscore.Internal_Hbond>
0.0000

> <Gold.Chemscore.DEClash>
0.0279

> <Gold.Chemscore.DEInternal>
1.2122

> <Gold.Chemscore.Rot>
4.0968

> <Gold.Chemscore.Internal.Correction>
   9.000000E+99

> <Gold.Chemscore.Hbonds>
donor molecule, donor type, donor heavy atom, donor atom, acceptor molecule, acceptor atom, score
      L1  H    17    42       P1 10186  0.87
      L1  H    19    43       P1 10747  0.92
      L1  H    21    44       P1  7948  0.29

> <Gold.Chemscore.Hbond.Weighted>
-8.5367

> <Gold.Chemscore.Metal.Weighted>
-0.0000

> <Gold.Chemscore.Lipo.Weighted>
-9.7651

> <Gold.Chemscore.Internal_Hbond.Weighted>
0.0000

> <Gold.Chemscore.DEClash.Weighted>
0.0279

> <Gold.Chemscore.DEInternal.Weighted>
1.2122

> <Gold.Chemscore.Rot.Weighted>
10.4879

> <Gold.Chemscore.Internal.Correction.Weighted>
   9.000000E+99

> <Gold.Protein.RotatedTorsions>
[ 6907 6896 6895 6894 ] final -167.51 input  -60.11 | X-H torsion
[ 7974 7965 7964 7962 ] final   38.49 input  175.53 | X-H torsion
[ 8008 7997 7996 7995 ] final  177.37 input   59.86 | X-H torsion
[ 10167 10162 10161 10158 ] final -152.91 input  -65.29 | X-H torsion
[ 10718 10713 10712 10709 ] final   92.24 input   66.30 | X-H torsion
[ 10763 10752 10751 10750 ] final  162.00 input  -60.55 | X-H torsion
[ 11005 11000 10999 10996 ] final   60.55 input  -57.11 | X-H torsion

> <Gold.Protein.ActiveResidues>
 VAL166  LYS551  ARG553  GLY616  TRP617  ASP618  TYR619  PRO620  LYS621  CYS622 
 ASP623  PHE694  ASN695  SER759  ASP760  ASP761  ALA762  ILE779  LEU786  VAL792 
 PHE793  MET794  SER795  GLU796  ALA797  LYS798  CYS799  TRP800  GLU811  SER814 

> <Gold.Protein.RotatedAtoms>
  151.4607  133.3593  159.2808 H   0  0  0  0  0  0  0  0  0  0  0  0  # atno 6907 bound_to 6896
  150.9027  134.8442  159.7382 H   0  0  0  0  0  0  0  0  0  0  0  0  # atno 6908 bound_to 6896
  152.4888  134.4529  159.9632 H   0  0  0  0  0  0  0  0  0  0  0  0  # atno 6909 bound_to 6896
  146.1058  139.5766  142.9384 H   0  0  0  0  0  0  0  0  0  0  0  0  # atno 7974 bound_to 7965
  156.0664  140.1360  156.9881 H   0  0  0  0  0  0  0  0  0  0  0  0  # atno 8008 bound_to 7997
  154.4508  140.0981  156.6665 H   0  0  0  0  0  0  0  0  0  0  0  0  # atno 8009 bound_to 7997
  155.5297  140.3458  155.4426 H   0  0  0  0  0  0  0  0  0  0  0  0  # atno 8010 bound_to 7997
  139.7142  143.9061  152.2479 H   0  0  0  0  0  0  0  0  0  0  0  0  # atno 10167 bound_to 10162
  157.6959  131.0436  150.3852 H   0  0  0  0  0  0  0  0  0  0  0  0  # atno 10718 bound_to 10713
  154.2716  135.2765  155.2735 H   0  0  0  0  0  0  0  0  0  0  0  0  # atno 10763 bound_to 10752
  154.5296  135.5733  153.6751 H   0  0  0  0  0  0  0  0  0  0  0  0  # atno 10764 bound_to 10752
  152.9944  135.6224  154.2871 H   0  0  0  0  0  0  0  0  0  0  0  0  # atno 10765 bound_to 10752
  140.0224  134.6133  155.9621 H   0  0  0  0  0  0  0  0  0  0  0  0  # atno 11005 bound_to 11000
  145.5763  141.0388  143.2146 LP  0  0  0  0  0  0  0  0  0  0  0  0  # atno 17320 bound_to 7965
  144.7470  139.7295  143.7288 LP  0  0  0  0  0  0  0  0  0  0  0  0  # atno 17321 bound_to 7965
  139.8938  144.6950  150.8741 LP  0  0  0  0  0  0  0  0  0  0  0  0  # atno 17342 bound_to 10162
  140.7740  143.3566  151.1910 LP  0  0  0  0  0  0  0  0  0  0  0  0  # atno 17343 bound_to 10162
  156.4262  130.3963  149.6791 LP  0  0  0  0  0  0  0  0  0  0  0  0  # atno 17370 bound_to 10713
  156.4025  130.7682  151.2690 LP  0  0  0  0  0  0  0  0  0  0  0  0  # atno 17371 bound_to 10713
  141.1782  133.6543  156.4912 LP  0  0  0  0  0  0  0  0  0  0  0  0  # atno 17394 bound_to 11000
  140.4364  134.7055  157.4969 LP  0  0  0  0  0  0  0  0  0  0  0  0  # atno 17395 bound_to 11000

$$$$
