AV-unprocessed.smi:315|AV-procd|sdf|2320|dock3
  -GOLD-   2262022223D 1   1.00000     0.00000
 Structure written by MMmdl.
 47 49  0  0  0  0  0  0  0  0  2 V2000
  151.7554  138.4312  155.7406 C   0  0  0  0  0  0  0  0  0  0  0  0
  151.6599  138.2447  154.2246 C   0  0  0  0  0  0  0  0  0  0  0  0
  150.2861  138.2669  153.8519 O   0  0  0  0  0  0  0  0  0  0  0  0
  149.5491  139.4101  154.0971 C   0  0  0  0  0  0  0  0  0  0  0  0
  150.1420  140.4356  154.7577 N   0  0  0  0  0  0  0  0  0  0  0  0
  149.4176  141.5488  154.9958 C   0  0  0  0  0  0  0  0  0  0  0  0
  148.0790  141.7004  154.5882 C   0  0  0  0  0  0  0  0  0  0  0  0
  147.4621  140.6374  153.9029 C   0  0  0  0  0  0  0  0  0  0  0  0
  148.2065  139.4591  153.6581 C   0  0  0  0  0  0  0  0  0  0  0  0
  147.6929  138.3362  152.9587 N   0  0  0  0  0  0  0  0  0  0  0  0
  146.4322  138.1142  152.5431 C   0  0  0  0  0  0  0  0  0  0  0  0
  145.5216  138.9372  152.5962 O   0  0  0  0  0  0  0  0  0  0  0  0
  146.2223  136.8692  152.0773 N   0  0  0  0  0  0  0  0  0  0  0  0
  144.9808  136.2919  151.5503 C   0  0  2  0  0  0  0  0  0  0  0  0
  143.8468  136.2685  152.5927 C   0  0  0  0  0  0  0  0  0  0  0  0
  143.1400  134.9288  152.3662 C   0  0  0  0  0  0  0  0  0  0  0  0
  144.2381  134.0458  151.9580 N   0  3  1  0  0  0  0  0  0  0  0  0
  143.9088  132.7105  151.4198 C   0  0  0  0  0  0  0  0  0  0  0  0
  145.2212  131.9148  151.2562 C   0  0  0  0  0  0  0  0  0  0  0  0
  146.2773  132.6918  150.4387 C   0  0  0  0  0  0  0  0  0  0  0  0
  146.4786  134.1268  150.9723 C   0  0  0  0  0  0  0  0  0  0  0  0
  145.1094  134.8262  151.0618 C   0  0  2  0  0  0  0  0  0  0  0  0
  152.7940  138.4061  156.0709 H   0  0  0  0  0  0  0  0  0  0  0  0
  151.2170  137.6428  156.2669 H   0  0  0  0  0  0  0  0  0  0  0  0
  151.3318  139.3881  156.0443 H   0  0  0  0  0  0  0  0  0  0  0  0
  152.2063  139.0446  153.7218 H   0  0  0  0  0  0  0  0  0  0  0  0
  152.1151  137.2940  153.9431 H   0  0  0  0  0  0  0  0  0  0  0  0
  149.9224  142.3455  155.5217 H   0  0  0  0  0  0  0  0  0  0  0  0
  147.5396  142.6136  154.7915 H   0  0  0  0  0  0  0  0  0  0  0  0
  146.4424  140.7484  153.5673 H   0  0  0  0  0  0  0  0  0  0  0  0
  148.3199  137.5474  152.8996 H   0  0  0  0  0  0  0  0  0  0  0  0
  147.0104  136.2394  152.1284 H   0  0  0  0  0  0  0  0  0  0  0  0
  144.6316  136.9024  150.7153 H   0  0  0  0  0  0  0  0  0  0  0  0
  144.2597  136.2894  153.6028 H   0  0  0  0  0  0  0  0  0  0  0  0
  143.1694  137.1179  152.4976 H   0  0  0  0  0  0  0  0  0  0  0  0
  142.6317  134.5642  153.2594 H   0  0  0  0  0  0  0  0  0  0  0  0
  142.4107  135.0095  151.5582 H   0  0  0  0  0  0  0  0  0  0  0  0
  143.2380  132.1917  152.1054 H   0  0  0  0  0  0  0  0  0  0  0  0
  143.3886  132.8068  150.4656 H   0  0  0  0  0  0  0  0  0  0  0  0
  145.6300  131.6934  152.2430 H   0  0  0  0  0  0  0  0  0  0  0  0
  145.0184  130.9521  150.7862 H   0  0  0  0  0  0  0  0  0  0  0  0
  147.2256  132.1536  150.4430 H   0  0  0  0  0  0  0  0  0  0  0  0
  145.9570  132.7376  149.3977 H   0  0  0  0  0  0  0  0  0  0  0  0
  146.9566  134.0990  151.9525 H   0  0  0  0  0  0  0  0  0  0  0  0
  147.1492  134.6674  150.3050 H   0  0  0  0  0  0  0  0  0  0  0  0
  144.6615  134.8002  150.0657 H   0  0  0  0  0  0  0  0  0  0  0  0
  144.7771  133.8879  152.7977 H   0  0  0  0  0  0  0  0  0  0  0  0
  1  2  1  0  0  0  0
  1 23  1  0  0  0  0
  1 24  1  0  0  0  0
  1 25  1  0  0  0  0
  2  3  1  0  0  0  0
  2 26  1  0  0  0  0
  2 27  1  0  0  0  0
  3  4  1  0  0  0  0
  4  9  1  0  0  0  0
  4  5  2  0  0  0  0
  5  6  1  0  0  0  0
  6  7  2  0  0  0  0
  6 28  1  0  0  0  0
  7  8  1  0  0  0  0
  7 29  1  0  0  0  0
  8  9  2  0  0  0  0
  8 30  1  0  0  0  0
  9 10  1  0  0  0  0
 10 11  1  0  0  0  0
 10 31  1  0  0  0  0
 11 12  2  0  0  0  0
 11 13  1  0  0  0  0
 13 14  1  0  0  0  0
 13 32  1  0  0  0  0
 14 22  1  0  0  0  0
 14 15  1  0  0  0  0
 14 33  1  0  0  0  0
 15 16  1  0  0  0  0
 15 34  1  0  0  0  0
 15 35  1  0  0  0  0
 16 17  1  0  0  0  0
 16 36  1  0  0  0  0
 16 37  1  0  0  0  0
 17 22  1  0  0  0  0
 17 18  1  0  0  0  0
 17 47  1  0  0  0  0
 18 19  1  0  0  0  0
 18 38  1  0  0  0  0
 18 39  1  0  0  0  0
 19 20  1  0  0  0  0
 19 40  1  0  0  0  0
 19 41  1  0  0  0  0
 20 21  1  0  0  0  0
 20 42  1  0  0  0  0
 20 43  1  0  0  0  0
 21 22  1  0  0  0  0
 21 44  1  0  0  0  0
 21 45  1  0  0  0  0
 22 46  1  0  0  0  0
M  CHG  1  17   1
M  END
> <s_m_source_file>
AV-unprocessed.smi

> <i_m_source_file_index>
315

> <i_lp_mmshare_version>
43012

> <i_f3d_flags>
0

> <s_epik_input>
W0NIM11bQ0gyXU9jMW5bY0hdW2NIXVtjSF1jMVtOSF1DKD1PKVtOSF1bQ0BIXShbQ0gyXVtDSDJdMilbQ0BASF0oTjIzKVtDSDJdW0NIMl1bQ0gyXVtDSDJdMw==

> <s_epik_cmdline>
J2VwaWtfcHl0aG9uJywgJy1waCcsICc3LjAnLCAnLXRuJywgJzgnLCAnLW1hJywgJzIwMCcsICctbWV0YWxfYmluZGluZycsICctaW1hZScsICc8aW5maWxlLm1hZT4nLCAnLW9tYWUnLCAnPG91dGZpbGUubWFlPic=

> <r_lp_tautomer_probability>
1

> <r_epik_Ionization_Penalty>
0.00106455

> <r_epik_Ionization_Penalty_Charging>
0.000974069

> <r_epik_Ionization_Penalty_Neutral>
9.04821e-05

> <r_epik_State_Penalty>
0.000633842

> <r_epik_Charging_Adjusted_Penalty>
0.00160791

> <i_epik_Tot_Q>
1

> <i_epik_Tot_abs_Q>
1

> <r_epik_Metal_State_Penalty>
-0

> <b_epik_Metal_Only>
0

> <s_lp_Force_Field>
OPLS_2005

> <r_lp_Energy>
53.3213

> <b_lp_Chiralities_Consistent>
1

> <s_lp_Variant>
AV-unprocessed.smi:315-5

> <Gold.Version>
5.8.1

> <Gold.Id.Protein>
6NUR|6NUR_protein|mol2

> <Gold.PLP.Fitness>
45.1344

> <Gold.PLP.PLP>
-34.9706

> <Gold.PLP.part.hbond>
-3.7429

> <Gold.PLP.part.metal>
0.0000

> <Gold.PLP.part.buried>
-3.0432

> <Gold.PLP.part.nonpolar>
-33.9199

> <Gold.PLP.part.repulsive>
5.5506

> <Gold.PLP.ligand.clash>
0.0000

> <Gold.PLP.ligand.torsion>
0.0281

> <Gold.PLP.Chemscore.Hbond>
2.7200

> <Gold.PLP.Chemscore.CHOScore>
0.6864

> <Gold.PLP.Chemscore.Metal>
0.0000

> <Gold.Chemscore.Hbonds>
donor molecule, donor type, donor heavy atom, donor atom, acceptor molecule, acceptor atom, score
      L1  H    10    31       P1  7948  0.91
      L1  H    13    32       P1  7948  0.80
      P1  H  7989  7998       L1     5  0.98
      L1  C     6    28       P1  8028  0.69

> <Gold.PLP.Chemscore.Internal.Correction>
0.0008

> <Gold.Rescore>
     Score         DG    S(hbond)    S(metal)    S(lipo)     H(rot)  DE(clash)    DE(int)     intcor
     13.97     -18.53       1.77        0.00      91.10       1.38       2.03       2.53       ----

> <Gold.Chemscore.Fitness>
13.9704

> <Gold.Chemscore.DG>
-18.5297

> <Gold.Chemscore.ZeroCoef>
-5.4800

> <Gold.Chemscore.Hbond>
1.7714

> <Gold.Chemscore.Metal>
0.0000

> <Gold.Chemscore.Lipo>
91.0976

> <Gold.Chemscore.Internal_Hbond>
0.0000

> <Gold.Chemscore.DEClash>
2.0316

> <Gold.Chemscore.DEInternal>
2.5277

> <Gold.Chemscore.Rot>
1.3770

> <Gold.Chemscore.Internal.Correction>
   9.000000E+99

> <Gold.Chemscore.Hbonds>
donor molecule, donor type, donor heavy atom, donor atom, acceptor molecule, acceptor atom, score
      L1  H    10    31       P1  7948  0.90
      L1  H    13    32       P1  7948  0.79
      P1  H  7989  7998       L1     5  0.19

> <Gold.Chemscore.Hbond.Weighted>
-5.9165

> <Gold.Chemscore.Metal.Weighted>
-0.0000

> <Gold.Chemscore.Lipo.Weighted>
-10.6584

> <Gold.Chemscore.Internal_Hbond.Weighted>
0.0000

> <Gold.Chemscore.DEClash.Weighted>
2.0316

> <Gold.Chemscore.DEInternal.Weighted>
2.5277

> <Gold.Chemscore.Rot.Weighted>
3.5252

> <Gold.Chemscore.Internal.Correction.Weighted>
   9.000000E+99

> <Gold.Protein.RotatedTorsions>
[ 6907 6896 6895 6894 ] final   59.58 input  -60.11 | X-H torsion
[ 7974 7965 7964 7962 ] final  104.11 input  175.53 | X-H torsion
[ 8008 7997 7996 7995 ] final  107.77 input   59.86 | X-H torsion
[ 10167 10162 10161 10158 ] final  114.18 input  -65.29 | X-H torsion
[ 10718 10713 10712 10709 ] final  114.08 input   66.30 | X-H torsion
[ 10763 10752 10751 10750 ] final  -25.48 input  -60.55 | X-H torsion
[ 11005 11000 10999 10996 ] final   97.98 input  -57.11 | X-H torsion

> <Gold.Protein.ActiveResidues>
 VAL166  LYS551  ARG553  GLY616  TRP617  ASP618  TYR619  PRO620  LYS621  CYS622 
 ASP623  PHE694  ASN695  SER759  ASP760  ASP761  ALA762  ILE779  LEU786  VAL792 
 PHE793  MET794  SER795  GLU796  ALA797  LYS798  CYS799  TRP800  GLU811  SER814 

> <Gold.Protein.RotatedAtoms>
  152.3928  134.6414  160.0100 H   0  0  0  0  0  0  0  0  0  0  0  0  # atno 6907 bound_to 6896
  151.6643  133.3310  159.3189 H   0  0  0  0  0  0  0  0  0  0  0  0  # atno 6908 bound_to 6896
  150.7841  134.6854  159.6512 H   0  0  0  0  0  0  0  0  0  0  0  0  # atno 6909 bound_to 6896
  145.3371  139.2472  143.3629 H   0  0  0  0  0  0  0  0  0  0  0  0  # atno 7974 bound_to 7965
  156.1851  140.3088  155.9222 H   0  0  0  0  0  0  0  0  0  0  0  0  # atno 8008 bound_to 7997
  155.3299  140.0460  157.3059 H   0  0  0  0  0  0  0  0  0  0  0  0  # atno 8009 bound_to 7997
  154.5386  140.2254  155.8689 H   0  0  0  0  0  0  0  0  0  0  0  0  # atno 8010 bound_to 7997
  139.6407  144.7123  151.2242 H   0  0  0  0  0  0  0  0  0  0  0  0  # atno 10167 bound_to 10162
  157.6302  131.0993  150.7134 H   0  0  0  0  0  0  0  0  0  0  0  0  # atno 10718 bound_to 10713
  153.7005  135.6956  153.5064 H   0  0  0  0  0  0  0  0  0  0  0  0  # atno 10763 bound_to 10752
  153.2346  135.4326  155.0631 H   0  0  0  0  0  0  0  0  0  0  0  0  # atno 10764 bound_to 10752
  154.8345  135.3492  154.6545 H   0  0  0  0  0  0  0  0  0  0  0  0  # atno 10765 bound_to 10752
  139.8774  134.9027  156.4388 H   0  0  0  0  0  0  0  0  0  0  0  0  # atno 11005 bound_to 11000
  146.3022  140.3960  142.8700 LP  0  0  0  0  0  0  0  0  0  0  0  0  # atno 17320 bound_to 7965
  144.8819  140.7411  143.5981 LP  0  0  0  0  0  0  0  0  0  0  0  0  # atno 17321 bound_to 7965
  140.7489  143.6316  150.8417 LP  0  0  0  0  0  0  0  0  0  0  0  0  # atno 17342 bound_to 10162
  139.9953  143.5802  152.2895 LP  0  0  0  0  0  0  0  0  0  0  0  0  # atno 17343 bound_to 10162
  156.7474  130.4758  149.5464 LP  0  0  0  0  0  0  0  0  0  0  0  0  # atno 17370 bound_to 10713
  156.1500  130.6303  151.0583 LP  0  0  0  0  0  0  0  0  0  0  0  0  # atno 17371 bound_to 10713
  140.9014  133.7776  155.9685 LP  0  0  0  0  0  0  0  0  0  0  0  0  # atno 17394 bound_to 11000
  140.8646  134.2799  157.5219 LP  0  0  0  0  0  0  0  0  0  0  0  0  # atno 17395 bound_to 11000

$$$$
