AV-unprocessed.smi:1683|AV-procd|sdf|6749|dock7
  -GOLD-   22720 7503D 1   1.00000     0.00000
 Structure written by MMmdl.
 37 38  0  0  0  0  0  0  0  0  2 V2000
  150.6956  134.5713  155.7084 O   0  0  0  0  0  0  0  0  0  0  0  0
  150.0338  134.9020  154.7244 C   0  0  0  0  0  0  0  0  0  0  0  0
  149.3351  134.0348  153.9779 N   0  0  0  0  0  0  0  0  0  0  0  0
  149.2753  132.5943  154.2038 C   0  0  0  0  0  0  0  0  0  0  0  0
  147.8599  132.0247  153.9850 C   0  0  2  0  0  0  0  0  0  0  0  0
  147.8118  130.5009  153.8960 C   0  0  0  0  0  0  0  0  0  0  0  0
  146.5217  130.2010  153.1212 C   0  0  0  0  0  0  0  0  0  0  0  0
  146.1066  131.4671  152.4692 N   0  3  2  0  0  0  0  0  0  0  0  0
  145.6600  131.3430  151.0603 C   0  0  0  0  0  0  0  0  0  0  0  0
  144.8510  132.5630  150.5861 C   0  0  0  0  0  0  0  0  0  0  0  0
  144.2253  132.2553  149.4510 F   0  0  0  0  0  0  0  0  0  0  0  0
  143.9377  132.9187  151.4890 F   0  0  0  0  0  0  0  0  0  0  0  0
  145.6676  133.5916  150.3589 F   0  0  0  0  0  0  0  0  0  0  0  0
  147.1943  132.4445  152.6745 C   0  0  0  0  0  0  0  0  0  0  0  0
  149.9101  136.1569  154.2621 N   0  0  0  0  0  0  0  0  0  0  0  0
  150.5069  137.3304  154.7887 C   0  0  0  0  0  0  0  0  0  0  0  0
  150.4686  138.6074  154.1655 C   0  0  0  0  0  0  0  0  0  0  0  0
  151.1112  139.5160  154.8850 N   0  0  0  0  0  0  0  0  0  0  0  0
  151.5604  138.8315  155.9610 N   0  0  0  0  0  0  0  0  0  0  0  0
  151.2166  137.4977  155.9449 C   0  0  0  0  0  0  0  0  0  0  0  0
  152.0946  139.2833  156.6897 H   0  0  0  0  0  0  0  0  0  0  0  0
  148.8246  134.3943  153.1844 H   0  0  0  0  0  0  0  0  0  0  0  0
  149.9810  132.1180  153.5225 H   0  0  0  0  0  0  0  0  0  0  0  0
  149.6216  132.3662  155.2134 H   0  0  0  0  0  0  0  0  0  0  0  0
  147.2149  132.3316  154.8103 H   0  0  0  0  0  0  0  0  0  0  0  0
  148.6685  130.1320  153.3298 H   0  0  0  0  0  0  0  0  0  0  0  0
  147.8332  130.0234  154.8762 H   0  0  0  0  0  0  0  0  0  0  0  0
  146.6917  129.3998  152.4008 H   0  0  0  0  0  0  0  0  0  0  0  0
  145.7269  129.8781  153.7945 H   0  0  0  0  0  0  0  0  0  0  0  0
  146.5451  131.2543  150.4283 H   0  0  0  0  0  0  0  0  0  0  0  0
  145.0915  130.4215  150.9253 H   0  0  0  0  0  0  0  0  0  0  0  0
  146.8118  133.4653  152.7064 H   0  0  0  0  0  0  0  0  0  0  0  0
  147.9105  132.3763  151.8534 H   0  0  0  0  0  0  0  0  0  0  0  0
  149.3328  136.2879  153.4444 H   0  0  0  0  0  0  0  0  0  0  0  0
  150.0055  138.8991  153.2344 H   0  0  0  0  0  0  0  0  0  0  0  0
  151.5025  136.8176  156.7335 H   0  0  0  0  0  0  0  0  0  0  0  0
  145.3209  131.8156  153.0003 H   0  0  0  0  0  0  0  0  0  0  0  0
  1  2  2  0  0  0  0
  2  3  1  0  0  0  0
  2 15  1  0  0  0  0
  3  4  1  0  0  0  0
  3 22  1  0  0  0  0
  4  5  1  0  0  0  0
  4 23  1  0  0  0  0
  4 24  1  0  0  0  0
  5 14  1  0  0  0  0
  5  6  1  0  0  0  0
  5 25  1  0  0  0  0
  6  7  1  0  0  0  0
  6 26  1  0  0  0  0
  6 27  1  0  0  0  0
  7  8  1  0  0  0  0
  7 28  1  0  0  0  0
  7 29  1  0  0  0  0
  8  9  1  0  0  0  0
  8 14  1  0  0  0  0
  8 37  1  0  0  0  0
  9 10  1  0  0  0  0
  9 30  1  0  0  0  0
  9 31  1  0  0  0  0
 10 11  1  0  0  0  0
 10 12  1  0  0  0  0
 10 13  1  0  0  0  0
 14 32  1  0  0  0  0
 14 33  1  0  0  0  0
 15 16  1  0  0  0  0
 15 34  1  0  0  0  0
 16 20  2  0  0  0  0
 16 17  1  0  0  0  0
 17 18  2  0  0  0  0
 17 35  1  0  0  0  0
 18 19  1  0  0  0  0
 19 21  1  0  0  0  0
 19 20  1  0  0  0  0
 20 36  1  0  0  0  0
M  CHG  1   8   1
M  END
> <s_m_source_file>
AV-unprocessed.smi

> <i_m_source_file_index>
1683

> <i_lp_mmshare_version>
43012

> <i_f3d_flags>
0

> <s_epik_input>
W2NIXTFbbkhdbltjSF1jMVtOSF1DKD1PKVtOSF1bQ0gyXVtDQEBIXTJbQ0gyXVtDSDJdTihbQ0gyXTIpW0NIMl1DKEYpKEYpRg==

> <s_epik_cmdline>
J2VwaWtfcHl0aG9uJywgJy1waCcsICc3LjAnLCAnLXRuJywgJzgnLCAnLW1hJywgJzIwMCcsICctbWV0YWxfYmluZGluZycsICctaW1hZScsICc8aW5maWxlLm1hZT4nLCAnLW9tYWUnLCAnPG91dGZpbGUubWFlPic=

> <r_lp_tautomer_probability>
0.5

> <r_epik_Ionization_Penalty>
0.641865

> <r_epik_Ionization_Penalty_Charging>
0.64182

> <r_epik_Ionization_Penalty_Neutral>
4.50685e-05

> <r_epik_State_Penalty>
0.65957

> <r_epik_Charging_Adjusted_Penalty>
1.30139

> <i_epik_Tot_Q>
1

> <i_epik_Tot_abs_Q>
1

> <r_epik_Metal_State_Penalty>
0.659571

> <b_epik_Metal_Only>
0

> <s_lp_Force_Field>
OPLS_2005

> <r_lp_Energy>
30.3314

> <b_lp_Chiralities_Consistent>
1

> <s_lp_Variant>
AV-unprocessed.smi:1683-3

> <Gold.Version>
5.8.1

> <Gold.Id.Protein>
6NUR|6NUR_protein|mol2

> <Gold.PLP.Fitness>
44.3395

> <Gold.PLP.PLP>
-34.9523

> <Gold.PLP.part.hbond>
-3.8945

> <Gold.PLP.part.metal>
0.0000

> <Gold.PLP.part.buried>
-3.3052

> <Gold.PLP.part.nonpolar>
-28.5004

> <Gold.PLP.part.repulsive>
0.3224

> <Gold.PLP.ligand.clash>
0.0000

> <Gold.PLP.ligand.torsion>
0.4955

> <Gold.PLP.Chemscore.Hbond>
2.3030

> <Gold.PLP.Chemscore.CHOScore>
1.0000

> <Gold.PLP.Chemscore.Metal>
0.0000

> <Gold.Chemscore.Hbonds>
donor molecule, donor type, donor heavy atom, donor atom, acceptor molecule, acceptor atom, score
      L1  H     3    22       P1  7948  0.28
      L1  H    15    34       P1  7948  1.00
      P1  H  7989  7998       L1    18  1.00
      L1  C    17    35       P1  7957  1.00

> <Gold.PLP.Chemscore.Internal.Correction>
0.4691

> <Gold.Rescore>
     Score         DG    S(hbond)    S(metal)    S(lipo)     H(rot)  DE(clash)    DE(int)     intcor
      9.73     -11.45       1.00        0.00      62.13       1.81       0.02       1.70       ----

> <Gold.Chemscore.Fitness>
9.7285

> <Gold.Chemscore.DG>
-11.4500

> <Gold.Chemscore.ZeroCoef>
-5.4800

> <Gold.Chemscore.Hbond>
0.9996

> <Gold.Chemscore.Metal>
0.0000

> <Gold.Chemscore.Lipo>
62.1277

> <Gold.Chemscore.Internal_Hbond>
0.0000

> <Gold.Chemscore.DEClash>
0.0188

> <Gold.Chemscore.DEInternal>
1.7026

> <Gold.Chemscore.Rot>
1.8116

> <Gold.Chemscore.Internal.Correction>
   9.000000E+99

> <Gold.Chemscore.Hbonds>
donor molecule, donor type, donor heavy atom, donor atom, acceptor molecule, acceptor atom, score
      L1  H     3    22       P1  7948  0.04
      L1  H    15    34       P1  7948  0.79
      P1  H  7989  7998       L1    18  0.33

> <Gold.Chemscore.Hbond.Weighted>
-3.3388

> <Gold.Chemscore.Metal.Weighted>
-0.0000

> <Gold.Chemscore.Lipo.Weighted>
-7.2689

> <Gold.Chemscore.Internal_Hbond.Weighted>
0.0000

> <Gold.Chemscore.DEClash.Weighted>
0.0188

> <Gold.Chemscore.DEInternal.Weighted>
1.7026

> <Gold.Chemscore.Rot.Weighted>
4.6378

> <Gold.Chemscore.Internal.Correction.Weighted>
   9.000000E+99

> <Gold.Protein.RotatedTorsions>
[ 6907 6896 6895 6894 ] final  -27.33 input  -60.11 | X-H torsion
[ 7974 7965 7964 7962 ] final -159.68 input  175.53 | X-H torsion
[ 8008 7997 7996 7995 ] final   28.07 input   59.86 | X-H torsion
[ 10167 10162 10161 10158 ] final  171.09 input  -65.29 | X-H torsion
[ 10718 10713 10712 10709 ] final  -24.78 input   66.30 | X-H torsion
[ 10763 10752 10751 10750 ] final  162.66 input  -60.55 | X-H torsion
[ 11005 11000 10999 10996 ] final  131.18 input  -57.11 | X-H torsion

> <Gold.Protein.ActiveResidues>
 VAL166  LYS551  ARG553  GLY616  TRP617  ASP618  TYR619  PRO620  LYS621  CYS622 
 ASP623  PHE694  ASN695  SER759  ASP760  ASP761  ALA762  ILE779  LEU786  VAL792 
 PHE793  MET794  SER795  GLU796  ALA797  LYS798  CYS799  TRP800  GLU811  SER814 

> <Gold.Protein.RotatedAtoms>
  151.1484  135.0215  159.8656 H   0  0  0  0  0  0  0  0  0  0  0  0  # atno 6907 bound_to 6896
  152.5453  134.1417  159.8492 H   0  0  0  0  0  0  0  0  0  0  0  0  # atno 6908 bound_to 6896
  151.1500  133.4868  159.2628 H   0  0  0  0  0  0  0  0  0  0  0  0  # atno 6909 bound_to 6896
  144.7456  140.3650  143.6088 H   0  0  0  0  0  0  0  0  0  0  0  0  # atno 7974 bound_to 7965
  155.0529  140.3182  155.4686 H   0  0  0  0  0  0  0  0  0  0  0  0  # atno 8008 bound_to 7997
  156.2830  140.2143  156.5599 H   0  0  0  0  0  0  0  0  0  0  0  0  # atno 8009 bound_to 7997
  154.7196  140.0491  157.0614 H   0  0  0  0  0  0  0  0  0  0  0  0  # atno 8010 bound_to 7997
  139.5037  144.3524  151.9909 H   0  0  0  0  0  0  0  0  0  0  0  0  # atno 10167 bound_to 10162
  156.4730  130.4528  149.6857 H   0  0  0  0  0  0  0  0  0  0  0  0  # atno 10718 bound_to 10713
  154.2818  135.2763  155.2694 H   0  0  0  0  0  0  0  0  0  0  0  0  # atno 10763 bound_to 10752
  154.5211  135.5756  153.6685 H   0  0  0  0  0  0  0  0  0  0  0  0  # atno 10764 bound_to 10752
  152.9928  135.6205  154.2978 H   0  0  0  0  0  0  0  0  0  0  0  0  # atno 10765 bound_to 10752
  139.9715  134.9576  156.9401 H   0  0  0  0  0  0  0  0  0  0  0  0  # atno 11005 bound_to 11000
  145.7138  139.1691  143.2523 LP  0  0  0  0  0  0  0  0  0  0  0  0  # atno 17320 bound_to 7965
  146.1327  140.7163  142.9404 LP  0  0  0  0  0  0  0  0  0  0  0  0  # atno 17321 bound_to 7965
  140.2960  144.3700  150.6074 LP  0  0  0  0  0  0  0  0  0  0  0  0  # atno 17342 bound_to 10162
  140.5910  143.2168  151.7253 LP  0  0  0  0  0  0  0  0  0  0  0  0  # atno 17343 bound_to 10162
  156.3599  130.7476  151.2446 LP  0  0  0  0  0  0  0  0  0  0  0  0  # atno 17370 bound_to 10713
  157.7490  131.0353  150.4358 LP  0  0  0  0  0  0  0  0  0  0  0  0  # atno 17371 bound_to 10713
  140.5284  134.0838  155.7309 LP  0  0  0  0  0  0  0  0  0  0  0  0  # atno 17394 bound_to 11000
  141.1394  133.9164  157.2360 LP  0  0  0  0  0  0  0  0  0  0  0  0  # atno 17395 bound_to 11000

$$$$
