AV-unprocessed.smi:3006|AV-procd|sdf|11444|dock3
  -GOLD-   2272016373D 1   1.00000     0.00000
 Structure written by MMmdl.
 45 46  0  0  0  0  0  0  0  0  2 V2000
  152.8955  142.7786  161.9635 C   0  0  0  0  0  0  0  0  0  0  0  0
  152.2345  143.0175  160.6492 C   0  0  0  0  0  0  0  0  0  0  0  0
  151.8038  142.0387  159.8492 N   0  0  0  0  0  0  0  0  0  0  0  0
  151.2124  142.5219  158.6776 C   0  0  0  0  0  0  0  0  0  0  0  0
  150.6621  141.5626  157.6667 C   0  0  0  0  0  0  0  0  0  0  0  0
  150.7692  142.1080  156.2334 C   0  0  0  0  0  0  0  0  0  0  0  0
  149.5198  141.9387  155.5005 N   0  0  0  0  0  0  0  0  0  0  0  0
  149.2847  140.9885  154.5798 C   0  0  0  0  0  0  0  0  0  0  0  0
  150.1279  140.1420  154.2814 O   0  0  0  0  0  0  0  0  0  0  0  0
  148.0416  141.0179  154.0371 N   0  0  0  0  0  0  0  0  0  0  0  0
  147.2592  139.8647  153.5801 C   0  0  0  0  0  0  0  0  0  0  0  0
  146.1487  139.5755  154.6068 C   0  0  0  0  0  0  0  0  0  0  0  0
  145.2871  140.7687  154.8729 N   0  3  0  0  0  0  0  0  0  0  0  0
  144.2340  140.5178  155.9098 C   0  0  0  0  0  0  0  0  0  0  0  0
  143.3766  139.2761  155.5882 C   0  0  0  0  0  0  0  0  0  0  0  0
  143.2944  141.7267  156.1040 C   0  0  0  0  0  0  0  0  0  0  0  0
  146.0919  142.0013  155.1328 C   0  0  0  0  0  0  0  0  0  0  0  0
  147.1987  142.2115  154.0842 C   0  0  0  0  0  0  0  0  0  0  0  0
  151.2068  143.8924  158.5998 C   0  0  0  0  0  0  0  0  0  0  0  0
  151.9415  144.6258  159.9990 S   0  0  0  0  0  0  0  0  0  0  0  0
  153.0215  141.7102  162.1423 H   0  0  0  0  0  0  0  0  0  0  0  0
  152.2893  143.1979  162.7663 H   0  0  0  0  0  0  0  0  0  0  0  0
  153.8765  143.2535  161.9789 H   0  0  0  0  0  0  0  0  0  0  0  0
  151.1907  140.6110  157.7373 H   0  0  0  0  0  0  0  0  0  0  0  0
  149.6188  141.3412  157.8959 H   0  0  0  0  0  0  0  0  0  0  0  0
  151.0041  143.1725  156.2567 H   0  0  0  0  0  0  0  0  0  0  0  0
  151.5885  141.6227  155.6999 H   0  0  0  0  0  0  0  0  0  0  0  0
  148.7780  142.5905  155.7110 H   0  0  0  0  0  0  0  0  0  0  0  0
  146.8163  140.0955  152.6100 H   0  0  0  0  0  0  0  0  0  0  0  0
  147.8530  138.9653  153.4165 H   0  0  0  0  0  0  0  0  0  0  0  0
  145.5513  138.7520  154.2187 H   0  0  0  0  0  0  0  0  0  0  0  0
  146.5941  139.2359  155.5435 H   0  0  0  0  0  0  0  0  0  0  0  0
  144.7381  140.3354  156.8602 H   0  0  0  0  0  0  0  0  0  0  0  0
  142.5509  139.1761  156.2935 H   0  0  0  0  0  0  0  0  0  0  0  0
  143.9460  138.3499  155.6597 H   0  0  0  0  0  0  0  0  0  0  0  0
  142.9473  139.3374  154.5876 H   0  0  0  0  0  0  0  0  0  0  0  0
  142.4740  141.4808  156.7789 H   0  0  0  0  0  0  0  0  0  0  0  0
  142.8560  142.0471  155.1583 H   0  0  0  0  0  0  0  0  0  0  0  0
  143.8048  142.5796  156.5509 H   0  0  0  0  0  0  0  0  0  0  0  0
  145.4558  142.8850  155.1183 H   0  0  0  0  0  0  0  0  0  0  0  0
  146.5346  141.9392  156.1286 H   0  0  0  0  0  0  0  0  0  0  0  0
  147.7630  143.1168  154.3131 H   0  0  0  0  0  0  0  0  0  0  0  0
  146.7570  142.3833  153.1013 H   0  0  0  0  0  0  0  0  0  0  0  0
  150.8139  144.5129  157.8079 H   0  0  0  0  0  0  0  0  0  0  0  0
  144.7947  140.9458  154.0089 H   0  0  0  0  0  0  0  0  0  0  0  0
  1  2  1  0  0  0  0
  1 21  1  0  0  0  0
  1 22  1  0  0  0  0
  1 23  1  0  0  0  0
  2 20  1  0  0  0  0
  2  3  2  0  0  0  0
  3  4  1  0  0  0  0
  4  5  1  0  0  0  0
  4 19  2  0  0  0  0
  5  6  1  0  0  0  0
  5 24  1  0  0  0  0
  5 25  1  0  0  0  0
  6  7  1  0  0  0  0
  6 26  1  0  0  0  0
  6 27  1  0  0  0  0
  7  8  1  0  0  0  0
  7 28  1  0  0  0  0
  8  9  2  0  0  0  0
  8 10  1  0  0  0  0
 10 18  1  0  0  0  0
 10 11  1  0  0  0  0
 11 12  1  0  0  0  0
 11 29  1  0  0  0  0
 11 30  1  0  0  0  0
 12 13  1  0  0  0  0
 12 31  1  0  0  0  0
 12 32  1  0  0  0  0
 13 14  1  0  0  0  0
 13 17  1  0  0  0  0
 13 45  1  0  0  0  0
 14 15  1  0  0  0  0
 14 16  1  0  0  0  0
 14 33  1  0  0  0  0
 15 34  1  0  0  0  0
 15 35  1  0  0  0  0
 15 36  1  0  0  0  0
 16 37  1  0  0  0  0
 16 38  1  0  0  0  0
 16 39  1  0  0  0  0
 17 18  1  0  0  0  0
 17 40  1  0  0  0  0
 17 41  1  0  0  0  0
 18 42  1  0  0  0  0
 18 43  1  0  0  0  0
 19 20  1  0  0  0  0
 19 44  1  0  0  0  0
M  CHG  1  13   1
M  END
> <s_m_source_file>
AV-unprocessed.smi

> <i_m_source_file_index>
3006

> <i_lp_mmshare_version>
43012

> <i_f3d_flags>
0

> <s_epik_input>
W0NIM11jMW5jKFtjSF1zMSlbQ0gyXVtDSDJdW05IXUMoPU8pTjJbQ0gyXVtDSDJdTihbQ0hdKFtDSDNdKVtDSDNdKVtDSDJdW0NIMl0y

> <s_epik_cmdline>
J2VwaWtfcHl0aG9uJywgJy1waCcsICc3LjAnLCAnLXRuJywgJzgnLCAnLW1hJywgJzIwMCcsICctbWV0YWxfYmluZGluZycsICctaW1hZScsICc8aW5maWxlLm1hZT4nLCAnLW9tYWUnLCAnPG91dGZpbGUubWFlPic=

> <r_epik_Ionization_Penalty>
0.155723

> <r_epik_Ionization_Penalty_Charging>
0.153999

> <r_epik_Ionization_Penalty_Neutral>
0.00172372

> <r_epik_State_Penalty>
0.139716

> <r_epik_Charging_Adjusted_Penalty>
0.293715

> <i_epik_Tot_Q>
1

> <i_epik_Tot_abs_Q>
1

> <r_epik_Metal_State_Penalty>
0.138566

> <b_epik_Metal_Only>
0

> <s_lp_Force_Field>
OPLS_2005

> <r_lp_Energy>
45.5874

> <b_lp_Chiralities_Consistent>
1

> <s_lp_Variant>
AV-unprocessed.smi:3006-1

> <Gold.Version>
5.8.1

> <Gold.Id.Protein>
6NUR|6NUR_protein|mol2

> <Gold.PLP.Fitness>
51.5820

> <Gold.PLP.PLP>
-41.8031

> <Gold.PLP.part.hbond>
-3.0589

> <Gold.PLP.part.metal>
0.0000

> <Gold.PLP.part.buried>
-7.0217

> <Gold.PLP.part.nonpolar>
-31.7695

> <Gold.PLP.part.repulsive>
0.2803

> <Gold.PLP.ligand.clash>
0.6265

> <Gold.PLP.ligand.torsion>
1.1406

> <Gold.PLP.Chemscore.Hbond>
3.5920

> <Gold.PLP.Chemscore.CHOScore>
0.6008

> <Gold.PLP.Chemscore.Metal>
0.0000

> <Gold.Chemscore.Hbonds>
donor molecule, donor type, donor heavy atom, donor atom, acceptor molecule, acceptor atom, score
      L1  H     7    28       P1  8028  0.42
      L1  H    13    45       P1 10175  2.00
      P1  H  7989  7998       L1     9  1.00
      L1  C    19    44       P1  8028  0.18

> <Gold.PLP.Chemscore.Internal.Correction>
0.1083

> <Gold.Rescore>
     Score         DG    S(hbond)    S(metal)    S(lipo)     H(rot)  DE(clash)    DE(int)     intcor
     18.80     -20.46       2.28        0.00      94.10       1.42       0.53       1.13       ----

> <Gold.Chemscore.Fitness>
18.7957

> <Gold.Chemscore.DG>
-20.4620

> <Gold.Chemscore.ZeroCoef>
-5.4800

> <Gold.Chemscore.Hbond>
2.2799

> <Gold.Chemscore.Metal>
0.0000

> <Gold.Chemscore.Lipo>
94.1025

> <Gold.Chemscore.Internal_Hbond>
0.0000

> <Gold.Chemscore.DEClash>
0.5326

> <Gold.Chemscore.DEInternal>
1.1338

> <Gold.Chemscore.Rot>
1.4230

> <Gold.Chemscore.Internal.Correction>
   9.000000E+99

> <Gold.Chemscore.Hbonds>
donor molecule, donor type, donor heavy atom, donor atom, acceptor molecule, acceptor atom, score
      L1  H     7    28       P1  8028  0.42
      L1  H    13    45       P1 10175  0.89
      P1  H  7989  7998       L1     9  0.81

> <Gold.Chemscore.Hbond.Weighted>
-7.6150

> <Gold.Chemscore.Metal.Weighted>
-0.0000

> <Gold.Chemscore.Lipo.Weighted>
-11.0100

> <Gold.Chemscore.Internal_Hbond.Weighted>
0.0000

> <Gold.Chemscore.DEClash.Weighted>
0.5326

> <Gold.Chemscore.DEInternal.Weighted>
1.1338

> <Gold.Chemscore.Rot.Weighted>
3.6430

> <Gold.Chemscore.Internal.Correction.Weighted>
   9.000000E+99

> <Gold.Protein.RotatedTorsions>
[ 6907 6896 6895 6894 ] final  -50.49 input  -60.11 | X-H torsion
[ 7974 7965 7964 7962 ] final  116.45 input  175.53 | X-H torsion
[ 8008 7997 7996 7995 ] final  172.59 input   59.86 | X-H torsion
[ 10167 10162 10161 10158 ] final  127.37 input  -65.29 | X-H torsion
[ 10718 10713 10712 10709 ] final  -61.53 input   66.30 | X-H torsion
[ 10763 10752 10751 10750 ] final  -22.12 input  -60.55 | X-H torsion
[ 11005 11000 10999 10996 ] final -116.05 input  -57.11 | X-H torsion

> <Gold.Protein.ActiveResidues>
 VAL166  LYS551  ARG553  GLY616  TRP617  ASP618  TYR619  PRO620  LYS621  CYS622 
 ASP623  PHE694  ASN695  SER759  ASP760  ASP761  ALA762  ILE779  LEU786  VAL792 
 PHE793  MET794  SER795  GLU796  ALA797  LYS798  CYS799  TRP800  GLU811  SER814 

> <Gold.Protein.RotatedAtoms>
  150.8702  134.8074  159.7148 H   0  0  0  0  0  0  0  0  0  0  0  0  # atno 6907 bound_to 6896
  152.4709  134.4959  159.9719 H   0  0  0  0  0  0  0  0  0  0  0  0  # atno 6908 bound_to 6896
  151.5049  133.3458  159.2910 H   0  0  0  0  0  0  0  0  0  0  0  0  # atno 6909 bound_to 6896
  145.1795  139.3058  143.4425 H   0  0  0  0  0  0  0  0  0  0  0  0  # atno 7974 bound_to 7965
  156.1159  140.1482  156.9273 H   0  0  0  0  0  0  0  0  0  0  0  0  # atno 8008 bound_to 7997
  154.4800  140.0882  156.7398 H   0  0  0  0  0  0  0  0  0  0  0  0  # atno 8009 bound_to 7997
  155.4514  140.3435  155.4303 H   0  0  0  0  0  0  0  0  0  0  0  0  # atno 8010 bound_to 7997
  139.5582  144.6863  151.4120 H   0  0  0  0  0  0  0  0  0  0  0  0  # atno 10167 bound_to 10162
  156.0916  130.4199  150.1006 H   0  0  0  0  0  0  0  0  0  0  0  0  # atno 10718 bound_to 10713
  153.6469  135.6982  153.5222 H   0  0  0  0  0  0  0  0  0  0  0  0  # atno 10763 bound_to 10752
  153.2737  135.4207  155.1012 H   0  0  0  0  0  0  0  0  0  0  0  0  # atno 10764 bound_to 10752
  154.8486  135.3585  154.6014 H   0  0  0  0  0  0  0  0  0  0  0  0  # atno 10765 bound_to 10752
  141.0448  133.9780  157.2936 H   0  0  0  0  0  0  0  0  0  0  0  0  # atno 11005 bound_to 11000
  146.3455  140.1969  142.8589 LP  0  0  0  0  0  0  0  0  0  0  0  0  # atno 17320 bound_to 7965
  145.0151  140.8747  143.5201 LP  0  0  0  0  0  0  0  0  0  0  0  0  # atno 17321 bound_to 7965
  140.6858  143.7977  150.7184 LP  0  0  0  0  0  0  0  0  0  0  0  0  # atno 17342 bound_to 10162
  140.1444  143.4412  152.2172 LP  0  0  0  0  0  0  0  0  0  0  0  0  # atno 17343 bound_to 10162
  156.9015  130.9622  151.3575 LP  0  0  0  0  0  0  0  0  0  0  0  0  # atno 17370 bound_to 10713
  157.6066  130.8552  149.8885 LP  0  0  0  0  0  0  0  0  0  0  0  0  # atno 17371 bound_to 10713
  139.9303  135.0200  156.8377 LP  0  0  0  0  0  0  0  0  0  0  0  0  # atno 17394 bound_to 11000
  140.6168  134.0031  155.7600 LP  0  0  0  0  0  0  0  0  0  0  0  0  # atno 17395 bound_to 11000

$$$$
