AV-unprocessed.smi:742|AV-procd|sdf|3559|dock5
  -GOLD-   22720 0553D 1   1.00000     0.00000
 Structure written by MMmdl.
 24 24  0  0  0  0  0  0  0  0  3 V2000
  148.2543  138.7113  152.8434 N   0  3  0  0  0  0  0  0  0  0  0  0
  148.3692  139.1023  154.2563 C   0  0  0  0  0  0  0  0  0  0  0  0
  149.1575  140.4132  154.3970 C   0  0  0  0  0  0  0  0  0  0  0  0
  150.5535  140.1492  154.7015 N   0  5  0  0  0  0  0  0  0  0  0  0
  151.0767  140.1957  156.2384 S   0  0  0  0  0  0  0  0  0  0  0  0
  150.1641  139.5088  157.1671 O   0  0  0  0  0  0  0  0  0  0  0  0
  152.5084  139.8715  156.3438 O   0  0  0  0  0  0  0  0  0  0  0  0
  150.9435  142.0026  156.6002 C   0  0  0  0  0  0  0  0  0  0  0  0
  151.3197  142.2879  158.0287 C   0  0  0  0  0  0  0  0  0  0  0  0
  152.5766  142.0990  158.6682 C   0  0  0  0  0  0  0  0  0  0  0  0
  152.3500  142.5152  159.9482 C   0  0  0  0  0  0  0  0  0  0  0  0
  151.0635  142.9204  160.0954 O   0  0  0  0  0  0  0  0  0  0  0  0
  150.4128  142.7684  158.8658 N   0  0  0  0  0  0  0  0  0  0  0  0
  148.7274  139.3910  152.2659 H   0  0  0  0  0  0  0  0  0  0  0  0
  147.2774  138.6700  152.5901 H   0  0  0  0  0  0  0  0  0  0  0  0
  147.3662  139.2095  154.6714 H   0  0  0  0  0  0  0  0  0  0  0  0
  148.8578  138.2879  154.7901 H   0  0  0  0  0  0  0  0  0  0  0  0
  149.0413  141.0046  153.4884 H   0  0  0  0  0  0  0  0  0  0  0  0
  148.6987  141.0067  155.1887 H   0  0  0  0  0  0  0  0  0  0  0  0
  151.6139  142.5235  155.9159 H   0  0  0  0  0  0  0  0  0  0  0  0
  149.9302  142.3344  156.3746 H   0  0  0  0  0  0  0  0  0  0  0  0
  153.4984  141.7229  158.2501 H   0  0  0  0  0  0  0  0  0  0  0  0
  152.9721  142.5796  160.8286 H   0  0  0  0  0  0  0  0  0  0  0  0
  148.6747  137.8022  152.7149 H   0  0  0  0  0  0  0  0  0  0  0  0
  1  2  1  0  0  0  0
  1 14  1  0  0  0  0
  1 15  1  0  0  0  0
  1 24  1  0  0  0  0
  2  3  1  0  0  0  0
  2 16  1  0  0  0  0
  2 17  1  0  0  0  0
  3  4  1  0  0  0  0
  3 18  1  0  0  0  0
  3 19  1  0  0  0  0
  4  5  1  0  0  0  0
  5  6  2  0  0  0  0
  5  7  2  0  0  0  0
  5  8  1  0  0  0  0
  8  9  1  0  0  0  0
  8 20  1  0  0  0  0
  8 21  1  0  0  0  0
  9 13  2  0  0  0  0
  9 10  1  0  0  0  0
 10 11  2  0  0  0  0
 10 22  1  0  0  0  0
 11 12  1  0  0  0  0
 11 23  1  0  0  0  0
 12 13  1  0  0  0  0
M  CHG  1   1   1
M  CHG  1   4  -1
M  END
> <s_m_source_file>
AV-unprocessed.smi

> <i_m_source_file_index>
742

> <i_lp_mmshare_version>
43012

> <i_f3d_flags>
0

> <s_epik_input>
W05IMl1bQ0gyXVtDSDJdW05IXVMoPU8pKD1PKVtDSDJdYzFbY0hdW2NIXW9uMQ==

> <s_epik_cmdline>
J2VwaWtfcHl0aG9uJywgJy1waCcsICc3LjAnLCAnLXRuJywgJzgnLCAnLW1hJywgJzIwMCcsICctbWV0YWxfYmluZGluZycsICctaW1hZScsICc8aW5maWxlLm1hZT4nLCAnLW9tYWUnLCAnPG91dGZpbGUubWFlPic=

> <r_lp_tautomer_probability>
1

> <r_epik_Ionization_Penalty>
3.53052

> <r_epik_Ionization_Penalty_Charging>
3.53052

> <r_epik_Ionization_Penalty_Neutral>
1.92474e-10

> <r_epik_State_Penalty>
3.52863

> <r_epik_Charging_Adjusted_Penalty>
7.05915

> <i_epik_Tot_Q>
0

> <i_epik_Tot_abs_Q>
2

> <r_epik_Metal_State_Penalty>
0.514327

> <b_epik_Metal_Only>
1

> <s_lp_Force_Field>
OPLS_2005

> <r_lp_Energy>
-11.204

> <b_lp_Chiralities_Consistent>
1

> <s_lp_Variant>
AV-unprocessed.smi:742-2

> <Gold.Version>
5.8.1

> <Gold.Id.Protein>
6NUR|6NUR_protein|mol2

> <Gold.PLP.Fitness>
38.6915

> <Gold.PLP.PLP>
-24.6319

> <Gold.PLP.part.hbond>
-4.9969

> <Gold.PLP.part.metal>
0.0000

> <Gold.PLP.part.buried>
-4.0560

> <Gold.PLP.part.nonpolar>
-15.5686

> <Gold.PLP.part.repulsive>
0.2661

> <Gold.PLP.ligand.clash>
0.0000

> <Gold.PLP.ligand.torsion>
0.9645

> <Gold.PLP.Chemscore.Hbond>
4.9913

> <Gold.PLP.Chemscore.CHOScore>
0.0000

> <Gold.PLP.Chemscore.Metal>
0.0000

> <Gold.Chemscore.Hbonds>
donor molecule, donor type, donor heavy atom, donor atom, acceptor molecule, acceptor atom, score
      L1  H     1    14       P1  7957  1.00
      L1  H     1    24       P1  7948  2.00
      P1  H  7989  7998       L1     4  1.00
      P1  H  7997  8008       L1     7  1.00

> <Gold.PLP.Chemscore.Internal.Correction>
1.0149

> <Gold.Rescore>
     Score         DG    S(hbond)    S(metal)    S(lipo)     H(rot)  DE(clash)    DE(int)     intcor
     17.25     -18.27       3.79        0.00      49.85       2.23       0.04       0.98       ----

> <Gold.Chemscore.Fitness>
17.2547

> <Gold.Chemscore.DG>
-18.2715

> <Gold.Chemscore.ZeroCoef>
-5.4800

> <Gold.Chemscore.Hbond>
3.7929

> <Gold.Chemscore.Metal>
0.0000

> <Gold.Chemscore.Lipo>
49.8527

> <Gold.Chemscore.Internal_Hbond>
0.0000

> <Gold.Chemscore.DEClash>
0.0392

> <Gold.Chemscore.DEInternal>
0.9777

> <Gold.Chemscore.Rot>
2.2303

> <Gold.Chemscore.Internal.Correction>
   9.000000E+99

> <Gold.Chemscore.Hbonds>
donor molecule, donor type, donor heavy atom, donor atom, acceptor molecule, acceptor atom, score
      L1  H     1    14       P1  7957  0.94
      L1  H     1    24       P1  7948  0.98
      P1  H  7989  7998       L1     4  0.73
      P1  H  7997  8008       L1     7  1.00

> <Gold.Chemscore.Hbond.Weighted>
-12.6682

> <Gold.Chemscore.Metal.Weighted>
-0.0000

> <Gold.Chemscore.Lipo.Weighted>
-5.8328

> <Gold.Chemscore.Internal_Hbond.Weighted>
0.0000

> <Gold.Chemscore.DEClash.Weighted>
0.0392

> <Gold.Chemscore.DEInternal.Weighted>
0.9777

> <Gold.Chemscore.Rot.Weighted>
5.7094

> <Gold.Chemscore.Internal.Correction.Weighted>
   9.000000E+99

> <Gold.Protein.RotatedTorsions>
[ 6907 6896 6895 6894 ] final  175.97 input  -60.11 | X-H torsion
[ 7974 7965 7964 7962 ] final -138.05 input  175.53 | X-H torsion
[ 8008 7997 7996 7995 ] final  -44.22 input   59.86 | X-H torsion
[ 10167 10162 10161 10158 ] final   40.28 input  -65.29 | X-H torsion
[ 10718 10713 10712 10709 ] final   81.11 input   66.30 | X-H torsion
[ 10763 10752 10751 10750 ] final -164.07 input  -60.55 | X-H torsion
[ 11005 11000 10999 10996 ] final   -4.67 input  -57.11 | X-H torsion

> <Gold.Protein.ActiveResidues>
 VAL166  LYS551  ARG553  GLY616  TRP617  ASP618  TYR619  PRO620  LYS621  CYS622 
 ASP623  PHE694  ASN695  SER759  ASP760  ASP761  ALA762  ILE779  LEU786  VAL792 
 PHE793  MET794  SER795  GLU796  ALA797  LYS798  CYS799  TRP800  GLU811  SER814 

> <Gold.Protein.RotatedAtoms>
  151.7276  133.3316  159.3331 H   0  0  0  0  0  0  0  0  0  0  0  0  # atno 6907 bound_to 6896
  150.7626  134.6392  159.6237 H   0  0  0  0  0  0  0  0  0  0  0  0  # atno 6908 bound_to 6896
  152.3612  134.6871  160.0258 H   0  0  0  0  0  0  0  0  0  0  0  0  # atno 6909 bound_to 6896
  144.8790  140.6480  143.5218 H   0  0  0  0  0  0  0  0  0  0  0  0  # atno 7974 bound_to 7965
  154.3997  140.1427  156.3648 H   0  0  0  0  0  0  0  0  0  0  0  0  # atno 8008 bound_to 7997
  155.8147  140.3471  155.5458 H   0  0  0  0  0  0  0  0  0  0  0  0  # atno 8009 bound_to 7997
  155.8350  140.0918  157.1760 H   0  0  0  0  0  0  0  0  0  0  0  0  # atno 8010 bound_to 7997
  140.3757  144.2046  150.6131 H   0  0  0  0  0  0  0  0  0  0  0  0  # atno 10167 bound_to 10162
  157.6824  130.9989  150.2178 H   0  0  0  0  0  0  0  0  0  0  0  0  # atno 10718 bound_to 10713
  154.7063  135.2997  154.9265 H   0  0  0  0  0  0  0  0  0  0  0  0  # atno 10763 bound_to 10752
  154.0181  135.6686  153.4774 H   0  0  0  0  0  0  0  0  0  0  0  0  # atno 10764 bound_to 10752
  153.0720  135.5056  154.8236 H   0  0  0  0  0  0  0  0  0  0  0  0  # atno 10765 bound_to 10752
  140.6828  133.9138  155.8566 H   0  0  0  0  0  0  0  0  0  0  0  0  # atno 11005 bound_to 11000
  145.3988  139.1601  143.4188 LP  0  0  0  0  0  0  0  0  0  0  0  0  # atno 17320 bound_to 7965
  146.2982  140.4084  142.8714 LP  0  0  0  0  0  0  0  0  0  0  0  0  # atno 17321 bound_to 7965
  140.4988  143.2324  151.8709 LP  0  0  0  0  0  0  0  0  0  0  0  0  # atno 17342 bound_to 10162
  139.4799  144.5083  151.8967 LP  0  0  0  0  0  0  0  0  0  0  0  0  # atno 17343 bound_to 10162
  156.2835  130.3736  149.7911 LP  0  0  0  0  0  0  0  0  0  0  0  0  # atno 17370 bound_to 10713
  156.5592  130.8376  151.3323 LP  0  0  0  0  0  0  0  0  0  0  0  0  # atno 17371 bound_to 10713
  141.0303  134.0765  157.4021 LP  0  0  0  0  0  0  0  0  0  0  0  0  # atno 17394 bound_to 11000
  139.8946  135.0137  156.6961 LP  0  0  0  0  0  0  0  0  0  0  0  0  # atno 17395 bound_to 11000

$$$$
