AV-unprocessed.smi:1830|AV-procd|sdf|7441|dock8
  -GOLD-   22720 9133D 1   1.00000     0.00000
 Structure written by MMmdl.
 52 55  0  0  0  0  0  0  0  0  1 V2000
  150.8986  134.7248  155.4183 O   0  0  0  0  0  0  0  0  0  0  0  0
  150.4028  135.1912  154.3924 C   0  0  0  0  0  0  0  0  0  0  0  0
  150.4164  136.4964  154.0912 N   0  0  0  0  0  0  0  0  0  0  0  0
  151.0007  137.5417  154.9235 C   0  0  0  0  0  0  0  0  0  0  0  0
  150.7846  138.9444  154.3153 C   0  0  1  0  0  0  0  0  0  0  0  0
  149.3383  139.4595  154.5039 C   0  0  0  0  0  0  0  0  0  0  0  0
  149.1179  139.8734  155.8769 N   0  0  0  0  0  0  0  0  0  0  0  0
  147.8347  140.4624  156.1810 C   0  0  0  0  0  0  0  0  0  0  0  0
  148.0457  141.1516  157.5399 C   0  0  0  0  0  0  0  0  0  0  0  0
  149.5759  141.3373  157.6435 C   0  0  0  0  0  0  0  0  0  0  0  0
  150.0686  140.8778  156.2698 C   0  0  1  0  0  0  0  0  0  0  0  0
  151.5015  140.3367  156.1775 C   0  0  0  0  0  0  0  0  0  0  0  0
  151.7305  139.8932  154.8361 O   0  0  0  0  0  0  0  0  0  0  0  0
  149.7643  134.4832  153.4462 N   0  0  0  0  0  0  0  0  0  0  0  0
  149.5406  133.0779  153.3906 C   0  0  0  0  0  0  0  0  0  0  0  0
  150.3196  132.1545  154.1300 C   0  0  0  0  0  0  0  0  0  0  0  0
  150.0498  130.7795  154.0136 C   0  0  0  0  0  0  0  0  0  0  0  0
  149.0149  130.3734  153.1537 C   0  0  0  0  0  0  0  0  0  0  0  0
  148.2756  131.2380  152.4300 N   0  0  0  0  0  0  0  0  0  0  0  0
  148.5245  132.5662  152.5387 C   0  0  0  0  0  0  0  0  0  0  0  0
  147.7555  133.4426  151.7447 N   0  0  0  0  0  0  0  0  0  0  0  0
  147.0020  132.7694  150.6906 C   0  0  0  0  0  0  0  0  0  0  0  0
  145.6781  133.5239  150.5566 C   0  0  0  0  0  0  0  0  0  0  0  0
  145.4649  134.0909  151.9544 C   0  0  0  0  0  0  0  0  0  0  0  0
  146.8891  134.4243  152.3959 C   0  0  0  0  0  0  0  0  0  0  0  0
  149.9776  136.7927  153.2317 H   0  0  0  0  0  0  0  0  0  0  0  0
  150.5728  137.4975  155.9265 H   0  0  0  0  0  0  0  0  0  0  0  0
  152.0628  137.3287  155.0421 H   0  0  0  0  0  0  0  0  0  0  0  0
  150.9706  138.8736  153.2430 H   0  0  0  0  0  0  0  0  0  0  0  0
  149.1688  140.3052  153.8360 H   0  0  0  0  0  0  0  0  0  0  0  0
  148.6190  138.6900  154.2214 H   0  0  0  0  0  0  0  0  0  0  0  0
  147.5729  141.2051  155.4256 H   0  0  0  0  0  0  0  0  0  0  0  0
  147.0435  139.7125  156.2079 H   0  0  0  0  0  0  0  0  0  0  0  0
  147.5131  142.1019  157.5859 H   0  0  0  0  0  0  0  0  0  0  0  0
  147.6838  140.5242  158.3554 H   0  0  0  0  0  0  0  0  0  0  0  0
  149.8615  142.3671  157.8595 H   0  0  0  0  0  0  0  0  0  0  0  0
  149.9784  140.7002  158.4322 H   0  0  0  0  0  0  0  0  0  0  0  0
  149.9854  141.7265  155.5874 H   0  0  0  0  0  0  0  0  0  0  0  0
  152.2228  141.1159  156.4237 H   0  0  0  0  0  0  0  0  0  0  0  0
  151.6612  139.5189  156.8810 H   0  0  0  0  0  0  0  0  0  0  0  0
  149.3184  135.0193  152.7162 H   0  0  0  0  0  0  0  0  0  0  0  0
  151.1265  132.4737  154.7712 H   0  0  0  0  0  0  0  0  0  0  0  0
  150.6264  130.0532  154.5670 H   0  0  0  0  0  0  0  0  0  0  0  0
  148.7795  129.3260  153.0367 H   0  0  0  0  0  0  0  0  0  0  0  0
  147.5542  132.7682  149.7507 H   0  0  0  0  0  0  0  0  0  0  0  0
  146.8126  131.7309  150.9681 H   0  0  0  0  0  0  0  0  0  0  0  0
  145.7866  134.3402  149.8413 H   0  0  0  0  0  0  0  0  0  0  0  0
  144.8582  132.8875  150.2223 H   0  0  0  0  0  0  0  0  0  0  0  0
  144.8015  134.9557  151.9706 H   0  0  0  0  0  0  0  0  0  0  0  0
  145.0428  133.3246  152.6059 H   0  0  0  0  0  0  0  0  0  0  0  0
  146.9793  134.4580  153.4816 H   0  0  0  0  0  0  0  0  0  0  0  0
  147.1711  135.4104  152.0256 H   0  0  0  0  0  0  0  0  0  0  0  0
  1  2  2  0  0  0  0
  2  3  1  0  0  0  0
  2 14  1  0  0  0  0
  3  4  1  0  0  0  0
  3 26  1  0  0  0  0
  4  5  1  0  0  0  0
  4 27  1  0  0  0  0
  4 28  1  0  0  0  0
  5 13  1  0  0  0  0
  5  6  1  0  0  0  0
  5 29  1  0  0  0  0
  6  7  1  0  0  0  0
  6 30  1  0  0  0  0
  6 31  1  0  0  0  0
  7 11  1  0  0  0  0
  7  8  1  0  0  0  0
  8  9  1  0  0  0  0
  8 32  1  0  0  0  0
  8 33  1  0  0  0  0
  9 10  1  0  0  0  0
  9 34  1  0  0  0  0
  9 35  1  0  0  0  0
 10 11  1  0  0  0  0
 10 36  1  0  0  0  0
 10 37  1  0  0  0  0
 11 12  1  0  0  0  0
 11 38  1  0  0  0  0
 12 13  1  0  0  0  0
 12 39  1  0  0  0  0
 12 40  1  0  0  0  0
 14 15  1  0  0  0  0
 14 41  1  0  0  0  0
 15 20  1  0  0  0  0
 15 16  2  0  0  0  0
 16 17  1  0  0  0  0
 16 42  1  0  0  0  0
 17 18  2  0  0  0  0
 17 43  1  0  0  0  0
 18 19  1  0  0  0  0
 18 44  1  0  0  0  0
 19 20  2  0  0  0  0
 20 21  1  0  0  0  0
 21 25  1  0  0  0  0
 21 22  1  0  0  0  0
 22 23  1  0  0  0  0
 22 45  1  0  0  0  0
 22 46  1  0  0  0  0
 23 24  1  0  0  0  0
 23 47  1  0  0  0  0
 23 48  1  0  0  0  0
 24 25  1  0  0  0  0
 24 49  1  0  0  0  0
 24 50  1  0  0  0  0
 25 51  1  0  0  0  0
 25 52  1  0  0  0  0
M  END
> <s_m_source_file>
AV-unprocessed.smi

> <i_m_source_file_index>
1830

> <i_lp_mmshare_version>
43012

> <i_f3d_flags>
0

> <s_epik_input>
W0NIMl0xW0NIMl1bQ0gyXVtDQEhdKE4xMilbQ0gyXU9bQ0BASF0oW0NIMl0yKVtDSDJdW05IXUMoPU8pW05IXWMzW2NIXVtjSF1bY0hdbmMzTjRbQ0gyXVtDSDJdW0NIMl1bQ0gyXTQ=

> <s_epik_cmdline>
J2VwaWtfcHl0aG9uJywgJy1waCcsICc3LjAnLCAnLXRuJywgJzgnLCAnLW1hJywgJzIwMCcsICctbWV0YWxfYmluZGluZycsICctaW1hZScsICc8aW5maWxlLm1hZT4nLCAnLW9tYWUnLCAnPG91dGZpbGUubWFlPic=

> <r_lp_tautomer_probability>
1

> <r_epik_Ionization_Penalty>
1.16487

> <r_epik_Ionization_Penalty_Charging>
0

> <r_epik_Ionization_Penalty_Neutral>
1.16487

> <r_epik_State_Penalty>
1.21807

> <r_epik_Charging_Adjusted_Penalty>
1.21807

> <i_epik_Tot_Q>
0

> <i_epik_Tot_abs_Q>
0

> <r_epik_Metal_State_Penalty>
1.19922

> <b_epik_Metal_Only>
0

> <s_lp_Force_Field>
OPLS_2005

> <r_lp_Energy>
78.6276

> <b_lp_Chiralities_Consistent>
1

> <s_lp_Variant>
AV-unprocessed.smi:1830-10

> <Gold.Version>
5.8.1

> <Gold.Id.Protein>
6NUR|6NUR_protein|mol2

> <Gold.PLP.Fitness>
47.6049

> <Gold.PLP.PLP>
-39.6320

> <Gold.PLP.part.hbond>
-3.9932

> <Gold.PLP.part.metal>
0.0000

> <Gold.PLP.part.buried>
-3.4718

> <Gold.PLP.part.nonpolar>
-32.3938

> <Gold.PLP.part.repulsive>
0.5001

> <Gold.PLP.ligand.clash>
0.0000

> <Gold.PLP.ligand.torsion>
0.4275

> <Gold.PLP.Chemscore.Hbond>
2.9000

> <Gold.PLP.Chemscore.CHOScore>
0.0000

> <Gold.PLP.Chemscore.Metal>
0.0000

> <Gold.Chemscore.Hbonds>
donor molecule, donor type, donor heavy atom, donor atom, acceptor molecule, acceptor atom, score
      L1  H     3    26       P1  7948  0.70
      L1  H    14    41       P1  7948  0.08
      P1  H  7989  7998       L1    13  0.70

> <Gold.PLP.Chemscore.Internal.Correction>
0.1280

> <Gold.Rescore>
     Score         DG    S(hbond)    S(metal)    S(lipo)     H(rot)  DE(clash)    DE(int)     intcor
     15.92     -18.44       2.32        0.00      74.74       1.37       0.05       2.48       ----

> <Gold.Chemscore.Fitness>
15.9157

> <Gold.Chemscore.DG>
-18.4439

> <Gold.Chemscore.ZeroCoef>
-5.4800

> <Gold.Chemscore.Hbond>
2.3167

> <Gold.Chemscore.Metal>
0.0000

> <Gold.Chemscore.Lipo>
74.7425

> <Gold.Chemscore.Internal_Hbond>
0.0000

> <Gold.Chemscore.DEClash>
0.0456

> <Gold.Chemscore.DEInternal>
2.4825

> <Gold.Chemscore.Rot>
1.3746

> <Gold.Chemscore.Internal.Correction>
   9.000000E+99

> <Gold.Chemscore.Hbonds>
donor molecule, donor type, donor heavy atom, donor atom, acceptor molecule, acceptor atom, score
      L1  H     3    26       P1  7948  0.10
      P1  H  7989  7998       L1    13  0.07

> <Gold.Chemscore.Hbond.Weighted>
-7.7378

> <Gold.Chemscore.Metal.Weighted>
-0.0000

> <Gold.Chemscore.Lipo.Weighted>
-8.7449

> <Gold.Chemscore.Internal_Hbond.Weighted>
0.0000

> <Gold.Chemscore.DEClash.Weighted>
0.0456

> <Gold.Chemscore.DEInternal.Weighted>
2.4825

> <Gold.Chemscore.Rot.Weighted>
3.5189

> <Gold.Chemscore.Internal.Correction.Weighted>
   9.000000E+99

> <Gold.Protein.RotatedTorsions>
[ 6907 6896 6895 6894 ] final   96.58 input  -60.11 | X-H torsion
[ 7974 7965 7964 7962 ] final   27.62 input  175.53 | X-H torsion
[ 8008 7997 7996 7995 ] final    6.26 input   59.86 | X-H torsion
[ 10167 10162 10161 10158 ] final   -3.44 input  -65.29 | X-H torsion
[ 10718 10713 10712 10709 ] final  -59.25 input   66.30 | X-H torsion
[ 10763 10752 10751 10750 ] final   39.00 input  -60.55 | X-H torsion
[ 11005 11000 10999 10996 ] final -147.78 input  -57.11 | X-H torsion

> <Gold.Protein.ActiveResidues>
 VAL166  LYS551  ARG553  GLY616  TRP617  ASP618  TYR619  PRO620  LYS621  CYS622 
 ASP623  PHE694  ASN695  SER759  ASP760  ASP761  ALA762  ILE779  LEU786  VAL792 
 PHE793  MET794  SER795  GLU796  ALA797  LYS798  CYS799  TRP800  GLU811  SER814 

> <Gold.Protein.RotatedAtoms>
  152.5433  134.0864  159.8257 H   0  0  0  0  0  0  0  0  0  0  0  0  # atno 6907 bound_to 6896
  151.0959  133.5272  159.2620 H   0  0  0  0  0  0  0  0  0  0  0  0  # atno 6908 bound_to 6896
  151.2046  135.0465  159.8940 H   0  0  0  0  0  0  0  0  0  0  0  0  # atno 6909 bound_to 6896
  146.1774  139.7167  142.8924 H   0  0  0  0  0  0  0  0  0  0  0  0  # atno 7974 bound_to 7965
  154.7387  140.2744  155.6392 H   0  0  0  0  0  0  0  0  0  0  0  0  # atno 8008 bound_to 7997
  156.2868  140.2701  156.2034 H   0  0  0  0  0  0  0  0  0  0  0  0  # atno 8009 bound_to 7997
  155.0286  140.0371  157.2455 H   0  0  0  0  0  0  0  0  0  0  0  0  # atno 8010 bound_to 7997
  140.6890  143.6540  150.8325 H   0  0  0  0  0  0  0  0  0  0  0  0  # atno 10167 bound_to 10162
  156.1075  130.4178  150.0689 H   0  0  0  0  0  0  0  0  0  0  0  0  # atno 10718 bound_to 10713
  152.9982  135.6233  154.2394 H   0  0  0  0  0  0  0  0  0  0  0  0  # atno 10763 bound_to 10752
  154.2135  135.2799  155.2952 H   0  0  0  0  0  0  0  0  0  0  0  0  # atno 10764 bound_to 10752
  154.5587  135.5711  153.7046 H   0  0  0  0  0  0  0  0  0  0  0  0  # atno 10765 bound_to 10752
  140.7681  134.3221  157.5083 H   0  0  0  0  0  0  0  0  0  0  0  0  # atno 11005 bound_to 11000
  145.4172  141.0403  143.2984 LP  0  0  0  0  0  0  0  0  0  0  0  0  # atno 17320 bound_to 7965
  144.8259  139.5711  143.6966 LP  0  0  0  0  0  0  0  0  0  0  0  0  # atno 17321 bound_to 7965
  140.0250  143.5502  152.2784 LP  0  0  0  0  0  0  0  0  0  0  0  0  # atno 17342 bound_to 10162
  139.6274  144.7639  151.2608 LP  0  0  0  0  0  0  0  0  0  0  0  0  # atno 17343 bound_to 10162
  156.8661  130.9508  151.3613 LP  0  0  0  0  0  0  0  0  0  0  0  0  # atno 17370 bound_to 10713
  157.6253  130.8687  149.9179 LP  0  0  0  0  0  0  0  0  0  0  0  0  # atno 17371 bound_to 10713
  139.8760  134.9244  156.3348 LP  0  0  0  0  0  0  0  0  0  0  0  0  # atno 17394 bound_to 11000
  140.9600  133.7395  156.0388 LP  0  0  0  0  0  0  0  0  0  0  0  0  # atno 17395 bound_to 11000

$$$$
