AV-unprocessed.smi:1824|AV-procd|sdf|7412|dock3
  -GOLD-   22720 9 83D 1   1.00000     0.00000
 Structure written by MMmdl.
 45 47  0  0  0  0  0  0  0  0  2 V2000
  148.5993  134.5213  156.0593 C   0  0  0  0  0  0  0  0  0  0  0  0
  148.6044  136.0525  156.0057 C   0  0  1  0  0  0  0  0  0  0  0  0
  149.8230  136.6021  155.2424 C   0  0  0  0  0  0  0  0  0  0  0  0
  149.7828  138.0542  155.1235 N   0  0  0  0  0  0  0  0  0  0  0  0
  150.9755  138.5573  154.4402 C   0  0  0  0  0  0  0  0  0  0  0  0
  152.2270  138.7147  155.3270 C   0  0  1  0  0  0  0  0  0  0  0  0
  153.0941  139.6474  154.7127 O   0  0  0  0  0  0  0  0  0  0  0  0
  151.8610  139.2074  156.7401 C   0  0  0  0  0  0  0  0  0  0  0  0
  151.3539  140.5873  156.7479 N   0  0  0  0  0  0  0  0  0  0  0  0
  150.5062  141.2034  155.8801 C   0  0  0  0  0  0  0  0  0  0  0  0
  150.3386  142.4852  156.3082 N   0  3  0  0  0  0  0  0  0  0  0  0
  151.0894  142.6916  157.4676 C   0  0  0  0  0  0  0  0  0  0  0  0
  151.2422  143.8216  158.2643 C   0  0  0  0  0  0  0  0  0  0  0  0
  152.0845  143.6969  159.3885 C   0  0  0  0  0  0  0  0  0  0  0  0
  152.2694  144.7670  160.1973 F   0  0  0  0  0  0  0  0  0  0  0  0
  152.7355  142.4812  159.6866 C   0  0  0  0  0  0  0  0  0  0  0  0
  153.5336  142.4039  160.7778 F   0  0  0  0  0  0  0  0  0  0  0  0
  152.5729  141.3421  158.8707 C   0  0  0  0  0  0  0  0  0  0  0  0
  151.7420  141.4751  157.7587 C   0  0  0  0  0  0  0  0  0  0  0  0
  148.5419  138.4365  154.4509 C   0  0  0  0  0  0  0  0  0  0  0  0
  147.2878  137.8860  155.1591 C   0  0  2  0  0  0  0  0  0  0  0  0
  146.9613  138.6199  156.4708 C   0  0  0  0  0  0  0  0  0  0  0  0
  147.4079  136.4763  155.3552 O   0  0  0  0  0  0  0  0  0  0  0  0
  149.4899  134.1431  156.5618 H   0  0  0  0  0  0  0  0  0  0  0  0
  148.5712  134.0911  155.0579 H   0  0  0  0  0  0  0  0  0  0  0  0
  147.7292  134.1541  156.6040 H   0  0  0  0  0  0  0  0  0  0  0  0
  148.6139  136.4309  157.0282 H   0  0  0  0  0  0  0  0  0  0  0  0
  150.7337  136.3000  155.7610 H   0  0  0  0  0  0  0  0  0  0  0  0
  149.8667  136.1515  154.2493 H   0  0  0  0  0  0  0  0  0  0  0  0
  151.2304  137.8880  153.6169 H   0  0  0  0  0  0  0  0  0  0  0  0
  150.7397  139.5162  153.9760 H   0  0  0  0  0  0  0  0  0  0  0  0
  152.7563  137.7679  155.4241 H   0  0  0  0  0  0  0  0  0  0  0  0
  152.6023  140.4352  154.5352 H   0  0  0  0  0  0  0  0  0  0  0  0
  151.1327  138.5498  157.2152 H   0  0  0  0  0  0  0  0  0  0  0  0
  152.7462  139.1909  157.3770 H   0  0  0  0  0  0  0  0  0  0  0  0
  150.0490  140.7561  155.0092 H   0  0  0  0  0  0  0  0  0  0  0  0
  150.7441  144.7535  158.0414 H   0  0  0  0  0  0  0  0  0  0  0  0
  153.0715  140.4157  159.1133 H   0  0  0  0  0  0  0  0  0  0  0  0
  148.4554  139.5197  154.3820 H   0  0  0  0  0  0  0  0  0  0  0  0
  148.5578  138.0643  153.4253 H   0  0  0  0  0  0  0  0  0  0  0  0
  146.4363  138.0305  154.4939 H   0  0  0  0  0  0  0  0  0  0  0  0
  146.7530  139.6734  156.2835 H   0  0  0  0  0  0  0  0  0  0  0  0
  147.7850  138.5733  157.1828 H   0  0  0  0  0  0  0  0  0  0  0  0
  146.0813  138.1893  156.9488 H   0  0  0  0  0  0  0  0  0  0  0  0
  149.7534  143.1662  155.8412 H   0  0  0  0  0  0  0  0  0  0  0  0
  1  2  1  0  0  0  0
  1 24  1  0  0  0  0
  1 25  1  0  0  0  0
  1 26  1  0  0  0  0
  2 23  1  0  0  0  0
  2  3  1  0  0  0  0
  2 27  1  0  0  0  0
  3  4  1  0  0  0  0
  3 28  1  0  0  0  0
  3 29  1  0  0  0  0
  4  5  1  0  0  0  0
  4 20  1  0  0  0  0
  5  6  1  0  0  0  0
  5 30  1  0  0  0  0
  5 31  1  0  0  0  0
  6  7  1  0  0  0  0
  6  8  1  0  0  0  0
  6 32  1  0  0  0  0
  7 33  1  0  0  0  0
  8  9  1  0  0  0  0
  8 34  1  0  0  0  0
  8 35  1  0  0  0  0
  9 19  1  0  0  0  0
  9 10  1  0  0  0  0
 10 11  2  0  0  0  0
 10 36  1  0  0  0  0
 11 12  1  0  0  0  0
 11 45  1  0  0  0  0
 12 19  2  0  0  0  0
 12 13  1  0  0  0  0
 13 14  2  0  0  0  0
 13 37  1  0  0  0  0
 14 15  1  0  0  0  0
 14 16  1  0  0  0  0
 16 17  1  0  0  0  0
 16 18  2  0  0  0  0
 18 19  1  0  0  0  0
 18 38  1  0  0  0  0
 20 21  1  0  0  0  0
 20 39  1  0  0  0  0
 20 40  1  0  0  0  0
 21 22  1  0  0  0  0
 21 23  1  0  0  0  0
 21 41  1  0  0  0  0
 22 42  1  0  0  0  0
 22 43  1  0  0  0  0
 22 44  1  0  0  0  0
M  CHG  1  11   1
M  END
> <s_m_source_file>
AV-unprocessed.smi

> <i_m_source_file_index>
1824

> <i_lp_mmshare_version>
43012

> <i_f3d_flags>
0

> <s_epik_input>
W0NIM11bQ0BASF0xW0NIMl1OKFtDSDJdW0NASF0oTzEpW0NIM10pW0NIMl1bQ0BIXShbT0hdKVtDSDJdbihbY0hdbjIpYyhjMjMpW2NIXWMoRiljKEYpW2NIXTM=

> <s_epik_cmdline>
J2VwaWtfcHl0aG9uJywgJy1waCcsICc3LjAnLCAnLXRuJywgJzgnLCAnLW1hJywgJzIwMCcsICctbWV0YWxfYmluZGluZycsICctaW1hZScsICc8aW5maWxlLm1hZT4nLCAnLW9tYWUnLCAnPG91dGZpbGUubWFlPic=

> <r_epik_Ionization_Penalty>
2.58709

> <r_epik_Ionization_Penalty_Charging>
2.37273

> <r_epik_Ionization_Penalty_Neutral>
0.214359

> <r_epik_State_Penalty>
2.71799

> <r_epik_Charging_Adjusted_Penalty>
5.09071

> <i_epik_Tot_Q>
1

> <i_epik_Tot_abs_Q>
1

> <r_epik_Metal_State_Penalty>
6.80217

> <b_epik_Metal_Only>
0

> <s_lp_Force_Field>
OPLS_2005

> <r_lp_Energy>
35.189

> <b_lp_Chiralities_Consistent>
1

> <s_lp_Variant>
AV-unprocessed.smi:1824-20

> <Gold.Version>
5.8.1

> <Gold.Id.Protein>
6NUR|6NUR_protein|mol2

> <Gold.PLP.Fitness>
51.4085

> <Gold.PLP.PLP>
-43.8852

> <Gold.PLP.part.hbond>
-3.0000

> <Gold.PLP.part.metal>
0.0000

> <Gold.PLP.part.buried>
-6.5056

> <Gold.PLP.part.nonpolar>
-35.5105

> <Gold.PLP.part.repulsive>
0.3048

> <Gold.PLP.ligand.clash>
0.0000

> <Gold.PLP.ligand.torsion>
0.7693

> <Gold.PLP.Chemscore.Hbond>
3.0000

> <Gold.PLP.Chemscore.CHOScore>
0.0000

> <Gold.PLP.Chemscore.Metal>
0.0000

> <Gold.Chemscore.Hbonds>
donor molecule, donor type, donor heavy atom, donor atom, acceptor molecule, acceptor atom, score
      L1  H    11    45       P1  8028  2.00
      P1  H  7997  8010       L1     7  1.00

> <Gold.PLP.Chemscore.Internal.Correction>
0.0619

> <Gold.Rescore>
     Score         DG    S(hbond)    S(metal)    S(lipo)     H(rot)  DE(clash)    DE(int)     intcor
     15.88     -16.99       1.86        0.00      96.14       2.32       0.32       0.79       ----

> <Gold.Chemscore.Fitness>
15.8779

> <Gold.Chemscore.DG>
-16.9911

> <Gold.Chemscore.ZeroCoef>
-5.4800

> <Gold.Chemscore.Hbond>
1.8574

> <Gold.Chemscore.Metal>
0.0000

> <Gold.Chemscore.Lipo>
96.1446

> <Gold.Chemscore.Internal_Hbond>
0.0000

> <Gold.Chemscore.DEClash>
0.3243

> <Gold.Chemscore.DEInternal>
0.7889

> <Gold.Chemscore.Rot>
2.3210

> <Gold.Chemscore.Internal.Correction>
   9.000000E+99

> <Gold.Chemscore.Hbonds>
donor molecule, donor type, donor heavy atom, donor atom, acceptor molecule, acceptor atom, score
      L1  H    11    45       P1  8028  0.99
      P1  H  7997  8010       L1     7  0.49

> <Gold.Chemscore.Hbond.Weighted>
-6.2038

> <Gold.Chemscore.Metal.Weighted>
-0.0000

> <Gold.Chemscore.Lipo.Weighted>
-11.2489

> <Gold.Chemscore.Internal_Hbond.Weighted>
0.0000

> <Gold.Chemscore.DEClash.Weighted>
0.3243

> <Gold.Chemscore.DEInternal.Weighted>
0.7889

> <Gold.Chemscore.Rot.Weighted>
5.9416

> <Gold.Chemscore.Internal.Correction.Weighted>
   9.000000E+99

> <Gold.Protein.RotatedTorsions>
[ 6907 6896 6895 6894 ] final   65.32 input  -60.11 | X-H torsion
[ 7974 7965 7964 7962 ] final   -0.15 input  175.53 | X-H torsion
[ 8008 7997 7996 7995 ] final  125.88 input   59.86 | X-H torsion
[ 10167 10162 10161 10158 ] final   68.85 input  -65.29 | X-H torsion
[ 10718 10713 10712 10709 ] final  -12.14 input   66.30 | X-H torsion
[ 10763 10752 10751 10750 ] final  -71.73 input  -60.55 | X-H torsion
[ 11005 11000 10999 10996 ] final   66.48 input  -57.11 | X-H torsion

> <Gold.Protein.ActiveResidues>
 VAL166  LYS551  ARG553  GLY616  TRP617  ASP618  TYR619  PRO620  LYS621  CYS622 
 ASP623  PHE694  ASN695  SER759  ASP760  ASP761  ALA762  ILE779  LEU786  VAL792 
 PHE793  MET794  SER795  GLU796  ALA797  LYS798  CYS799  TRP800  GLU811  SER814 

> <Gold.Protein.RotatedAtoms>
  152.4399  134.5612  159.9894 H   0  0  0  0  0  0  0  0  0  0  0  0  # atno 6907 bound_to 6896
  151.5712  133.3384  159.2998 H   0  0  0  0  0  0  0  0  0  0  0  0  # atno 6908 bound_to 6896
  150.8303  134.7587  159.6912 H   0  0  0  0  0  0  0  0  0  0  0  0  # atno 6909 bound_to 6896
  146.2430  140.1226  142.8340 H   0  0  0  0  0  0  0  0  0  0  0  0  # atno 7974 bound_to 7965
  156.2847  140.2706  156.2021 H   0  0  0  0  0  0  0  0  0  0  0  0  # atno 8008 bound_to 7997
  155.0350  140.0386  157.2506 H   0  0  0  0  0  0  0  0  0  0  0  0  # atno 8009 bound_to 7997
  154.7322  140.2709  155.6451 H   0  0  0  0  0  0  0  0  0  0  0  0  # atno 8010 bound_to 7997
  140.0742  144.5127  150.7206 H   0  0  0  0  0  0  0  0  0  0  0  0  # atno 10167 bound_to 10162
  156.6489  130.4949  149.6069 H   0  0  0  0  0  0  0  0  0  0  0  0  # atno 10718 bound_to 10713
  154.4358  135.5953  153.6098 H   0  0  0  0  0  0  0  0  0  0  0  0  # atno 10763 bound_to 10752
  152.9802  135.5986  154.3783 H   0  0  0  0  0  0  0  0  0  0  0  0  # atno 10764 bound_to 10752
  154.3626  135.2841  155.2290 H   0  0  0  0  0  0  0  0  0  0  0  0  # atno 10765 bound_to 10752
  139.9829  134.6714  156.0228 H   0  0  0  0  0  0  0  0  0  0  0  0  # atno 11005 bound_to 11000
  145.0393  140.8933  143.5062 LP  0  0  0  0  0  0  0  0  0  0  0  0  # atno 17320 bound_to 7965
  145.1304  139.2635  143.5542 LP  0  0  0  0  0  0  0  0  0  0  0  0  # atno 17321 bound_to 7965
  140.7110  143.2505  151.4580 LP  0  0  0  0  0  0  0  0  0  0  0  0  # atno 17342 bound_to 10162
  139.5818  144.1693  152.1978 LP  0  0  0  0  0  0  0  0  0  0  0  0  # atno 17343 bound_to 10162
  156.2100  130.6673  151.1259 LP  0  0  0  0  0  0  0  0  0  0  0  0  # atno 17370 bound_to 10713
  157.7147  131.0716  150.6371 LP  0  0  0  0  0  0  0  0  0  0  0  0  # atno 17371 bound_to 10713
  141.1499  133.6550  156.3980 LP  0  0  0  0  0  0  0  0  0  0  0  0  # atno 17394 bound_to 11000
  140.5060  134.6441  157.5266 LP  0  0  0  0  0  0  0  0  0  0  0  0  # atno 17395 bound_to 11000

$$$$
