AV-unprocessed.smi:1990|AV-procd|sdf|8066|dock1
  -GOLD-   2272010273D 1   1.00000     0.00000
 Structure written by MMmdl.
 46 47  0  0  0  0  0  0  0  0  1 V2000
  149.0027  128.5694  152.7837 C   0  0  0  0  0  0  0  0  0  0  0  0
  150.1236  129.3187  153.5118 C   0  0  1  0  0  0  0  0  0  0  0  0
  149.6489  130.6809  154.0499 C   0  0  0  0  0  0  0  0  0  0  0  0
  150.6992  131.3059  154.8474 N   0  0  0  0  0  0  0  0  0  0  0  0
  150.5288  132.6803  155.1198 C   0  0  0  0  0  0  0  0  0  0  0  0
  151.2354  133.2872  156.1846 C   0  0  0  0  0  0  0  0  0  0  0  0
  151.0501  134.6591  156.4423 C   0  0  0  0  0  0  0  0  0  0  0  0
  150.1518  135.3924  155.6332 C   0  0  0  0  0  0  0  0  0  0  0  0
  149.8952  136.7819  155.7783 N   0  0  0  0  0  0  0  0  0  0  0  0
  150.4151  137.6415  156.6744 C   0  0  0  0  0  0  0  0  0  0  0  0
  151.1897  137.3213  157.5759 O   0  0  0  0  0  0  0  0  0  0  0  0
  149.9559  139.1002  156.5413 C   0  0  1  0  0  0  0  0  0  0  0  0
  149.2227  139.5876  157.8019 C   0  0  0  0  0  0  0  0  0  0  0  0
  151.4132  140.1935  156.1963 S   0  0  0  0  0  0  0  0  0  0  0  0
  150.6754  141.8818  156.1776 C   0  0  0  0  0  0  0  0  0  0  0  0
  152.3291  140.1061  157.3440 O   0  0  0  0  0  0  0  0  0  0  0  0
  151.9206  139.9030  154.8464 O   0  0  0  0  0  0  0  0  0  0  0  0
  149.5026  134.7041  154.5896 C   0  0  0  0  0  0  0  0  0  0  0  0
  149.6758  133.3896  154.3406 N   0  0  0  0  0  0  0  0  0  0  0  0
  151.1923  130.4480  155.9227 C   0  0  0  0  0  0  0  0  0  0  0  0
  151.6182  129.0695  155.3804 C   0  0  2  0  0  0  0  0  0  0  0  0
  152.9590  129.0954  154.6250 C   0  0  0  0  0  0  0  0  0  0  0  0
  150.5670  128.5024  154.5951 O   0  0  0  0  0  0  0  0  0  0  0  0
  148.6342  129.1439  151.9335 H   0  0  0  0  0  0  0  0  0  0  0  0
  148.1601  128.3765  153.4484 H   0  0  0  0  0  0  0  0  0  0  0  0
  149.3568  127.6093  152.4075 H   0  0  0  0  0  0  0  0  0  0  0  0
  150.9409  129.4690  152.8061 H   0  0  0  0  0  0  0  0  0  0  0  0
  149.3488  131.3099  153.2128 H   0  0  0  0  0  0  0  0  0  0  0  0
  148.7667  130.5502  154.6779 H   0  0  0  0  0  0  0  0  0  0  0  0
  151.9058  132.7179  156.8109 H   0  0  0  0  0  0  0  0  0  0  0  0
  151.6063  135.1192  157.2440 H   0  0  0  0  0  0  0  0  0  0  0  0
  149.1936  137.1583  155.1573 H   0  0  0  0  0  0  0  0  0  0  0  0
  149.2792  139.1901  155.6909 H   0  0  0  0  0  0  0  0  0  0  0  0
  148.3783  138.9418  158.0456 H   0  0  0  0  0  0  0  0  0  0  0  0
  148.8331  140.5956  157.6580 H   0  0  0  0  0  0  0  0  0  0  0  0
  149.8862  139.6138  158.6673 H   0  0  0  0  0  0  0  0  0  0  0  0
  151.4703  142.6193  156.0668 H   0  0  0  0  0  0  0  0  0  0  0  0
  150.1460  142.0611  157.1129 H   0  0  0  0  0  0  0  0  0  0  0  0
  149.9848  141.9774  155.3401 H   0  0  0  0  0  0  0  0  0  0  0  0
  148.8163  135.2214  153.9350 H   0  0  0  0  0  0  0  0  0  0  0  0
  152.0349  130.9168  156.4327 H   0  0  0  0  0  0  0  0  0  0  0  0
  150.3989  130.3222  156.6608 H   0  0  0  0  0  0  0  0  0  0  0  0
  151.7512  128.4045  156.2341 H   0  0  0  0  0  0  0  0  0  0  0  0
  153.7691  129.3986  155.2887 H   0  0  0  0  0  0  0  0  0  0  0  0
  152.9499  129.7937  153.7886 H   0  0  0  0  0  0  0  0  0  0  0  0
  153.2048  128.1074  154.2352 H   0  0  0  0  0  0  0  0  0  0  0  0
  1  2  1  0  0  0  0
  1 24  1  0  0  0  0
  1 25  1  0  0  0  0
  1 26  1  0  0  0  0
  2 23  1  0  0  0  0
  2  3  1  0  0  0  0
  2 27  1  0  0  0  0
  3  4  1  0  0  0  0
  3 28  1  0  0  0  0
  3 29  1  0  0  0  0
  4  5  1  0  0  0  0
  4 20  1  0  0  0  0
  5 19  1  0  0  0  0
  5  6  2  0  0  0  0
  6  7  1  0  0  0  0
  6 30  1  0  0  0  0
  7  8  2  0  0  0  0
  7 31  1  0  0  0  0
  8  9  1  0  0  0  0
  8 18  1  0  0  0  0
  9 10  1  0  0  0  0
  9 32  1  0  0  0  0
 10 11  2  0  0  0  0
 10 12  1  0  0  0  0
 12 13  1  0  0  0  0
 12 14  1  0  0  0  0
 12 33  1  0  0  0  0
 13 34  1  0  0  0  0
 13 35  1  0  0  0  0
 13 36  1  0  0  0  0
 14 15  1  0  0  0  0
 14 16  2  0  0  0  0
 14 17  2  0  0  0  0
 15 37  1  0  0  0  0
 15 38  1  0  0  0  0
 15 39  1  0  0  0  0
 18 19  2  0  0  0  0
 18 40  1  0  0  0  0
 20 21  1  0  0  0  0
 20 41  1  0  0  0  0
 20 42  1  0  0  0  0
 21 22  1  0  0  0  0
 21 23  1  0  0  0  0
 21 43  1  0  0  0  0
 22 44  1  0  0  0  0
 22 45  1  0  0  0  0
 22 46  1  0  0  0  0
M  END
> <s_m_source_file>
AV-unprocessed.smi

> <i_m_source_file_index>
1990

> <i_lp_mmshare_version>
43012

> <i_f3d_flags>
0

> <s_epik_input>
W0NIM11bQ0BASF0xW0NIMl1OKFtDSDJdW0NASF0oTzEpW0NIM10pYzJbY0hdW2NIXWMoW2NIXW4yKVtOSF1DKD1PKVtDQEhdKFtDSDNdKVMoPU8pKD1PKVtDSDNd

> <s_epik_cmdline>
J2VwaWtfcHl0aG9uJywgJy1waCcsICc3LjAnLCAnLXRuJywgJzgnLCAnLW1hJywgJzIwMCcsICctbWV0YWxfYmluZGluZycsICctaW1hZScsICc8aW5maWxlLm1hZT4nLCAnLW9tYWUnLCAnPG91dGZpbGUubWFlPic=

> <r_lp_tautomer_probability>
1

> <r_epik_Ionization_Penalty>
0.000334888

> <r_epik_Ionization_Penalty_Charging>
0

> <r_epik_Ionization_Penalty_Neutral>
0.000334888

> <r_epik_State_Penalty>
0.000200905

> <r_epik_Charging_Adjusted_Penalty>
0.000200905

> <i_epik_Tot_Q>
0

> <i_epik_Tot_abs_Q>
0

> <r_epik_Metal_State_Penalty>
-0

> <b_epik_Metal_Only>
0

> <s_lp_Force_Field>
OPLS_2005

> <r_lp_Energy>
21.2348

> <b_lp_Chiralities_Consistent>
1

> <s_lp_Variant>
AV-unprocessed.smi:1990-6

> <Gold.Version>
5.8.1

> <Gold.Id.Protein>
6NUR|6NUR_protein|mol2

> <Gold.PLP.Fitness>
37.6563

> <Gold.PLP.PLP>
-29.7260

> <Gold.PLP.part.hbond>
-2.0000

> <Gold.PLP.part.metal>
0.0000

> <Gold.PLP.part.buried>
-4.8449

> <Gold.PLP.part.nonpolar>
-22.4170

> <Gold.PLP.part.repulsive>
0.2469

> <Gold.PLP.ligand.clash>
0.0000

> <Gold.PLP.ligand.torsion>
0.7185

> <Gold.PLP.Chemscore.Hbond>
1.9600

> <Gold.PLP.Chemscore.CHOScore>
0.9982

> <Gold.PLP.Chemscore.Metal>
0.0000

> <Gold.Chemscore.Hbonds>
donor molecule, donor type, donor heavy atom, donor atom, acceptor molecule, acceptor atom, score
      P1  H  7989  7998       L1    17  0.91
      P1  H  7997  8008       L1    16  0.65
      L1  C    18    40       P1  7948  1.00

> <Gold.PLP.Chemscore.Internal.Correction>
0.4928

> <Gold.Rescore>
     Score         DG    S(hbond)    S(metal)    S(lipo)     H(rot)  DE(clash)    DE(int)     intcor
     12.95     -15.30       1.92        0.00      62.21       1.52       0.01       2.34       ----

> <Gold.Chemscore.Fitness>
12.9453

> <Gold.Chemscore.DG>
-15.3026

> <Gold.Chemscore.ZeroCoef>
-5.4800

> <Gold.Chemscore.Hbond>
1.9250

> <Gold.Chemscore.Metal>
0.0000

> <Gold.Chemscore.Lipo>
62.2095

> <Gold.Chemscore.Internal_Hbond>
0.0000

> <Gold.Chemscore.DEClash>
0.0144

> <Gold.Chemscore.DEInternal>
2.3429

> <Gold.Chemscore.Rot>
1.5177

> <Gold.Chemscore.Internal.Correction>
   9.000000E+99

> <Gold.Chemscore.Hbonds>
donor molecule, donor type, donor heavy atom, donor atom, acceptor molecule, acceptor atom, score
      P1  H  7989  7998       L1    17  0.89
      P1  H  7997  8008       L1    16  0.38

> <Gold.Chemscore.Hbond.Weighted>
-6.4294

> <Gold.Chemscore.Metal.Weighted>
-0.0000

> <Gold.Chemscore.Lipo.Weighted>
-7.2785

> <Gold.Chemscore.Internal_Hbond.Weighted>
0.0000

> <Gold.Chemscore.DEClash.Weighted>
0.0144

> <Gold.Chemscore.DEInternal.Weighted>
2.3429

> <Gold.Chemscore.Rot.Weighted>
3.8853

> <Gold.Chemscore.Internal.Correction.Weighted>
   9.000000E+99

> <Gold.Protein.RotatedTorsions>
[ 6907 6896 6895 6894 ] final -176.83 input  -60.11 | X-H torsion
[ 7974 7965 7964 7962 ] final   85.51 input  175.53 | X-H torsion
[ 8008 7997 7996 7995 ] final  -53.58 input   59.86 | X-H torsion
[ 10167 10162 10161 10158 ] final   67.00 input  -65.29 | X-H torsion
[ 10718 10713 10712 10709 ] final   55.36 input   66.30 | X-H torsion
[ 10763 10752 10751 10750 ] final  160.36 input  -60.55 | X-H torsion
[ 11005 11000 10999 10996 ] final -103.50 input  -57.11 | X-H torsion

> <Gold.Protein.ActiveResidues>
 VAL166  LYS551  ARG553  GLY616  TRP617  ASP618  TYR619  PRO620  LYS621  CYS622 
 ASP623  PHE694  ASN695  SER759  ASP760  ASP761  ALA762  ILE779  LEU786  VAL792 
 PHE793  MET794  SER795  GLU796  ALA797  LYS798  CYS799  TRP800  GLU811  SER814 

> <Gold.Protein.RotatedAtoms>
  151.6111  133.3347  159.3067 H   0  0  0  0  0  0  0  0  0  0  0  0  # atno 6907 bound_to 6896
  150.8156  134.7339  159.6738 H   0  0  0  0  0  0  0  0  0  0  0  0  # atno 6908 bound_to 6896
  152.4252  134.5888  160.0020 H   0  0  0  0  0  0  0  0  0  0  0  0  # atno 6909 bound_to 6896
  145.5845  139.2329  143.2334 H   0  0  0  0  0  0  0  0  0  0  0  0  # atno 7974 bound_to 7965
  154.4137  140.1196  156.5177 H   0  0  0  0  0  0  0  0  0  0  0  0  # atno 8008 bound_to 7997
  155.6734  140.3496  155.4808 H   0  0  0  0  0  0  0  0  0  0  0  0  # atno 8009 bound_to 7997
  155.9613  140.1123  157.0883 H   0  0  0  0  0  0  0  0  0  0  0  0  # atno 8010 bound_to 7997
  140.0943  144.4960  150.7078 H   0  0  0  0  0  0  0  0  0  0  0  0  # atno 10167 bound_to 10162
  157.5338  130.8649  149.8725 H   0  0  0  0  0  0  0  0  0  0  0  0  # atno 10718 bound_to 10713
  154.2462  135.2773  155.2834 H   0  0  0  0  0  0  0  0  0  0  0  0  # atno 10763 bound_to 10752
  154.5503  135.5677  153.6920 H   0  0  0  0  0  0  0  0  0  0  0  0  # atno 10764 bound_to 10752
  152.9989  135.6273  154.2608 H   0  0  0  0  0  0  0  0  0  0  0  0  # atno 10765 bound_to 10752
  141.1143  133.8646  157.1494 H   0  0  0  0  0  0  0  0  0  0  0  0  # atno 11005 bound_to 11000
  146.1692  140.6672  142.9241 LP  0  0  0  0  0  0  0  0  0  0  0  0  # atno 17320 bound_to 7965
  144.7379  140.4859  143.6890 LP  0  0  0  0  0  0  0  0  0  0  0  0  # atno 17321 bound_to 7965
  140.7012  143.2436  151.4859 LP  0  0  0  0  0  0  0  0  0  0  0  0  # atno 17342 bound_to 10162
  139.5707  144.1935  152.1832 LP  0  0  0  0  0  0  0  0  0  0  0  0  # atno 17343 bound_to 10162
  156.0443  130.3731  150.1357 LP  0  0  0  0  0  0  0  0  0  0  0  0  # atno 17370 bound_to 10713
  156.9540  130.9784  151.3492 LP  0  0  0  0  0  0  0  0  0  0  0  0  # atno 17371 bound_to 10713
  140.0055  135.0010  157.0282 LP  0  0  0  0  0  0  0  0  0  0  0  0  # atno 17394 bound_to 11000
  140.4690  134.1406  155.7200 LP  0  0  0  0  0  0  0  0  0  0  0  0  # atno 17395 bound_to 11000

$$$$
