AV-unprocessed.smi:688|AV-procd|sdf|3354|dock10
  -GOLD-   22720 0333D 1   1.00000     0.00000
 Structure written by MMmdl.
 36 37  0  0  0  0  0  0  0  0  1 V2000
  151.2005  131.7405  155.7071 O   0  0  0  0  0  0  0  0  0  0  0  0
  150.9403  132.9312  155.5456 C   0  0  0  0  0  0  0  0  0  0  0  0
  151.4683  133.8841  156.4222 N   0  0  0  0  0  0  0  0  0  0  0  0
  151.2529  135.2609  156.3508 C   0  0  0  0  0  0  0  0  0  0  0  0
  151.7627  136.0068  157.1873 O   0  0  0  0  0  0  0  0  0  0  0  0
  150.4369  135.7237  155.2927 N   0  0  0  0  0  0  0  0  0  0  0  0
  150.1867  137.1421  155.1983 C   0  0  0  0  0  0  0  0  0  0  0  0
  151.2964  137.9112  154.4467 C   0  0  2  0  0  0  0  0  0  0  0  0
  151.9781  136.9905  153.6169 O   0  0  0  0  0  0  0  0  0  0  0  0
  152.3316  138.5067  155.4156 C   0  0  0  0  0  0  0  0  0  0  0  0
  151.7133  139.5159  156.1969 O   0  0  0  0  0  0  0  0  0  0  0  0
  152.2901  139.6441  157.4869 C   0  0  0  0  0  0  0  0  0  0  0  0
  152.2164  141.0665  158.0101 C   0  0  0  0  0  0  0  0  0  0  0  0
  152.9506  141.4487  159.1534 C   0  0  0  0  0  0  0  0  0  0  0  0
  152.8640  142.7663  159.6437 C   0  0  0  0  0  0  0  0  0  0  0  0
  152.0371  143.7060  158.9978 C   0  0  0  0  0  0  0  0  0  0  0  0
  151.9306  145.3201  159.5982 Cl  0  0  0  0  0  0  0  0  0  0  0  0
  151.2945  143.3260  157.8629 C   0  0  0  0  0  0  0  0  0  0  0  0
  151.3817  142.0085  157.3723 C   0  0  0  0  0  0  0  0  0  0  0  0
  149.8853  134.8134  154.4045 C   0  0  0  0  0  0  0  0  0  0  0  0
  150.0958  133.4773  154.4836 C   0  0  0  0  0  0  0  0  0  0  0  0
  149.3722  132.4058  153.3381 Cl  0  0  0  0  0  0  0  0  0  0  0  0
  152.0525  133.5464  157.1734 H   0  0  0  0  0  0  0  0  0  0  0  0
  149.2113  137.2530  154.7194 H   0  0  0  0  0  0  0  0  0  0  0  0
  150.0549  137.5088  156.2181 H   0  0  0  0  0  0  0  0  0  0  0  0
  150.8659  138.7088  153.8396 H   0  0  0  0  0  0  0  0  0  0  0  0
  151.3610  136.3400  153.3192 H   0  0  0  0  0  0  0  0  0  0  0  0
  152.6916  137.7308  156.0931 H   0  0  0  0  0  0  0  0  0  0  0  0
  153.1998  138.8923  154.8778 H   0  0  0  0  0  0  0  0  0  0  0  0
  151.7801  138.9771  158.1838 H   0  0  0  0  0  0  0  0  0  0  0  0
  153.3389  139.3449  157.4574 H   0  0  0  0  0  0  0  0  0  0  0  0
  153.5836  140.7342  159.6593 H   0  0  0  0  0  0  0  0  0  0  0  0
  153.4316  143.0543  160.5166 H   0  0  0  0  0  0  0  0  0  0  0  0
  150.6565  144.0431  157.3676 H   0  0  0  0  0  0  0  0  0  0  0  0
  150.8061  141.7241  156.5037 H   0  0  0  0  0  0  0  0  0  0  0  0
  149.2530  135.1836  153.6098 H   0  0  0  0  0  0  0  0  0  0  0  0
  1  2  2  0  0  0  0
  2 21  1  0  0  0  0
  2  3  1  0  0  0  0
  3 23  1  0  0  0  0
  3  4  1  0  0  0  0
  4  5  2  0  0  0  0
  4  6  1  0  0  0  0
  6  7  1  0  0  0  0
  6 20  1  0  0  0  0
  7  8  1  0  0  0  0
  7 24  1  0  0  0  0
  7 25  1  0  0  0  0
  8  9  1  0  0  0  0
  8 10  1  0  0  0  0
  8 26  1  0  0  0  0
  9 27  1  0  0  0  0
 10 11  1  0  0  0  0
 10 28  1  0  0  0  0
 10 29  1  0  0  0  0
 11 12  1  0  0  0  0
 12 13  1  0  0  0  0
 12 30  1  0  0  0  0
 12 31  1  0  0  0  0
 13 19  1  0  0  0  0
 13 14  2  0  0  0  0
 14 15  1  0  0  0  0
 14 32  1  0  0  0  0
 15 16  2  0  0  0  0
 15 33  1  0  0  0  0
 16 17  1  0  0  0  0
 16 18  1  0  0  0  0
 18 19  2  0  0  0  0
 18 34  1  0  0  0  0
 19 35  1  0  0  0  0
 20 21  2  0  0  0  0
 20 36  1  0  0  0  0
 21 22  1  0  0  0  0
M  END
> <s_m_source_file>
AV-unprocessed.smi

> <i_m_source_file_index>
688

> <i_lp_mmshare_version>
43012

> <i_f3d_flags>
0

> <s_epik_input>
Tz1jMVtuSF1jKD1PKW4oW2NIXWMxQ2wpW0NIMl1bQ0BIXShbT0hdKVtDSDJdT1tDSDJdYzJbY0hdW2NIXWMoQ2wpW2NIXVtjSF0y

> <s_epik_cmdline>
J2VwaWtfcHl0aG9uJywgJy1waCcsICc3LjAnLCAnLXRuJywgJzgnLCAnLW1hJywgJzIwMCcsICctbWV0YWxfYmluZGluZycsICctaW1hZScsICc8aW5maWxlLm1hZT4nLCAnLW9tYWUnLCAnPG91dGZpbGUubWFlPic=

> <r_lp_tautomer_probability>
0.999537

> <r_epik_Ionization_Penalty>
0.0280571

> <r_epik_Ionization_Penalty_Charging>
0.028057

> <r_epik_Ionization_Penalty_Neutral>
6.25502e-08

> <r_epik_State_Penalty>
0.0230008

> <r_epik_Charging_Adjusted_Penalty>
0.0510579

> <i_epik_Tot_Q>
0

> <i_epik_Tot_abs_Q>
0

> <r_epik_Metal_State_Penalty>
2.1942

> <b_epik_Metal_Only>
0

> <s_lp_Force_Field>
OPLS_2005

> <r_lp_Energy>
17.1949

> <b_lp_Chiralities_Consistent>
1

> <s_lp_Variant>
AV-unprocessed.smi:688-1

> <Gold.Version>
5.8.1

> <Gold.Id.Protein>
6NUR|6NUR_protein|mol2

> <Gold.PLP.Fitness>
48.8521

> <Gold.PLP.PLP>
-45.6884

> <Gold.PLP.part.hbond>
-2.6172

> <Gold.PLP.part.metal>
0.0000

> <Gold.PLP.part.buried>
-6.4641

> <Gold.PLP.part.nonpolar>
-37.3478

> <Gold.PLP.part.repulsive>
0.1577

> <Gold.PLP.ligand.clash>
0.0000

> <Gold.PLP.ligand.torsion>
1.3793

> <Gold.PLP.Chemscore.Hbond>
0.9540

> <Gold.PLP.Chemscore.CHOScore>
1.0000

> <Gold.PLP.Chemscore.Metal>
0.0000

> <Gold.Chemscore.Hbonds>
donor molecule, donor type, donor heavy atom, donor atom, acceptor molecule, acceptor atom, score
      L1  H     9    27       P1  7949  0.42
      P1  H 10752 10763       L1     9  0.40
      L1  C    20    36       P1  7948  0.97

> <Gold.PLP.Chemscore.Internal.Correction>
0.0604

> <Gold.Rescore>
     Score         DG    S(hbond)    S(metal)    S(lipo)     H(rot)  DE(clash)    DE(int)     intcor
     10.25     -11.88       0.08        0.00     116.74       2.94       0.06       1.57       ----

> <Gold.Chemscore.Fitness>
10.2524

> <Gold.Chemscore.DG>
-11.8755

> <Gold.Chemscore.ZeroCoef>
-5.4800

> <Gold.Chemscore.Hbond>
0.0811

> <Gold.Chemscore.Metal>
0.0000

> <Gold.Chemscore.Lipo>
116.7381

> <Gold.Chemscore.Internal_Hbond>
0.0000

> <Gold.Chemscore.DEClash>
0.0576

> <Gold.Chemscore.DEInternal>
1.5655

> <Gold.Chemscore.Rot>
2.9429

> <Gold.Chemscore.Internal.Correction>
   9.000000E+99

> <Gold.Chemscore.Hbonds>
donor molecule, donor type, donor heavy atom, donor atom, acceptor molecule, acceptor atom, score
      L1  H     9    27       P1  7949  0.31
      P1  H 10752 10763       L1     9  0.01

> <Gold.Chemscore.Hbond.Weighted>
-0.2709

> <Gold.Chemscore.Metal.Weighted>
-0.0000

> <Gold.Chemscore.Lipo.Weighted>
-13.6584

> <Gold.Chemscore.Internal_Hbond.Weighted>
0.0000

> <Gold.Chemscore.DEClash.Weighted>
0.0576

> <Gold.Chemscore.DEInternal.Weighted>
1.5655

> <Gold.Chemscore.Rot.Weighted>
7.5337

> <Gold.Chemscore.Internal.Correction.Weighted>
   9.000000E+99

> <Gold.Protein.RotatedTorsions>
[ 6907 6896 6895 6894 ] final  -16.75 input  -60.11 | X-H torsion
[ 7974 7965 7964 7962 ] final  130.45 input  175.53 | X-H torsion
[ 8008 7997 7996 7995 ] final  139.58 input   59.86 | X-H torsion
[ 10167 10162 10161 10158 ] final -161.94 input  -65.29 | X-H torsion
[ 10718 10713 10712 10709 ] final   82.49 input   66.30 | X-H torsion
[ 10763 10752 10751 10750 ] final   16.96 input  -60.55 | X-H torsion
[ 11005 11000 10999 10996 ] final  -89.73 input  -57.11 | X-H torsion

> <Gold.Protein.ActiveResidues>
 VAL166  LYS551  ARG553  GLY616  TRP617  ASP618  TYR619  PRO620  LYS621  CYS622 
 ASP623  PHE694  ASN695  SER759  ASP760  ASP761  ALA762  ILE779  LEU786  VAL792 
 PHE793  MET794  SER795  GLU796  ALA797  LYS798  CYS799  TRP800  GLU811  SER814 

> <Gold.Protein.RotatedAtoms>
  151.3038  135.0776  159.9247 H   0  0  0  0  0  0  0  0  0  0  0  0  # atno 6907 bound_to 6896
  152.5292  133.9806  159.7815 H   0  0  0  0  0  0  0  0  0  0  0  0  # atno 6908 bound_to 6896
  151.0097  133.5925  159.2714 H   0  0  0  0  0  0  0  0  0  0  0  0  # atno 6909 bound_to 6896
  145.0177  139.4160  143.5213 H   0  0  0  0  0  0  0  0  0  0  0  0  # atno 7974 bound_to 7965
  156.2988  140.2364  156.4260 H   0  0  0  0  0  0  0  0  0  0  0  0  # atno 8008 bound_to 7997
  154.8313  140.0433  157.1499 H   0  0  0  0  0  0  0  0  0  0  0  0  # atno 8009 bound_to 7997
  154.9205  140.3003  155.5222 H   0  0  0  0  0  0  0  0  0  0  0  0  # atno 8010 bound_to 7997
  139.6428  144.0227  152.2105 H   0  0  0  0  0  0  0  0  0  0  0  0  # atno 10167 bound_to 10162
  157.6858  131.0050  150.2382 H   0  0  0  0  0  0  0  0  0  0  0  0  # atno 10718 bound_to 10713
  153.1383  135.6754  153.9068 H   0  0  0  0  0  0  0  0  0  0  0  0  # atno 10763 bound_to 10752
  153.8533  135.3090  155.3435 H   0  0  0  0  0  0  0  0  0  0  0  0  # atno 10764 bound_to 10752
  154.7766  135.4911  153.9840 H   0  0  0  0  0  0  0  0  0  0  0  0  # atno 10765 bound_to 10752
  141.1579  133.7648  156.9637 H   0  0  0  0  0  0  0  0  0  0  0  0  # atno 11005 bound_to 11000
  146.3480  139.9658  142.8712 LP  0  0  0  0  0  0  0  0  0  0  0  0  # atno 17320 bound_to 7965
  145.1937  140.9823  143.4196 LP  0  0  0  0  0  0  0  0  0  0  0  0  # atno 17321 bound_to 7965
  139.9921  144.6354  150.7805 LP  0  0  0  0  0  0  0  0  0  0  0  0  # atno 17342 bound_to 10162
  140.7500  143.2947  151.3236 LP  0  0  0  0  0  0  0  0  0  0  0  0  # atno 17343 bound_to 10162
  156.3001  130.3757  149.7758 LP  0  0  0  0  0  0  0  0  0  0  0  0  # atno 17370 bound_to 10713
  156.5391  130.8291  151.3263 LP  0  0  0  0  0  0  0  0  0  0  0  0  # atno 17371 bound_to 10713
  140.1176  134.9438  157.2156 LP  0  0  0  0  0  0  0  0  0  0  0  0  # atno 17394 bound_to 11000
  140.3114  134.3020  155.7266 LP  0  0  0  0  0  0  0  0  0  0  0  0  # atno 17395 bound_to 11000

$$$$
