AV-unprocessed.smi:1703|AV-procd|sdf|6858|dock2
  -GOLD-   22720 8 43D 1   1.00000     0.00000
 Structure written by MMmdl.
 48 50  0  0  0  0  0  0  0  0  1 V2000
  144.2256  144.6899  154.0621 C   0  0  0  0  0  0  0  0  0  0  0  0
  144.7440  143.5377  154.9289 C   0  0  1  0  0  0  0  0  0  0  0  0
  146.1289  143.0459  154.4707 C   0  0  0  0  0  0  0  0  0  0  0  0
  146.6571  142.0062  155.3451 N   0  0  0  0  0  0  0  0  0  0  0  0
  147.9536  141.5299  154.8611 C   0  0  0  0  0  0  0  0  0  0  0  0
  148.9473  141.0815  155.9556 C   0  0  1  0  0  0  0  0  0  0  0  0
  148.8519  139.6791  156.0964 O   0  0  0  0  0  0  0  0  0  0  0  0
  150.4178  141.4135  155.6286 C   0  0  0  0  0  0  0  0  0  0  0  0
  151.3241  141.1561  156.7402 N   0  0  0  0  0  0  0  0  0  0  0  0
  152.1112  140.0697  156.9453 C   0  0  0  0  0  0  0  0  0  0  0  0
  152.1606  138.9227  155.9829 C   0  0  0  0  0  0  0  0  0  0  0  0
  152.3839  139.3381  154.6524 O   0  0  0  0  0  0  0  0  0  0  0  0
  152.8504  140.0895  158.0550 N   0  0  0  0  0  0  0  0  0  0  0  0
  152.5199  141.3062  158.6189 C   0  0  0  0  0  0  0  0  0  0  0  0
  152.9703  141.9187  159.8101 C   0  0  0  0  0  0  0  0  0  0  0  0
  152.4838  143.1870  160.1893 C   0  0  0  0  0  0  0  0  0  0  0  0
  151.5420  143.8598  159.3844 C   0  0  0  0  0  0  0  0  0  0  0  0
  151.0808  143.2679  158.1928 C   0  0  0  0  0  0  0  0  0  0  0  0
  151.5688  142.0011  157.8190 C   0  0  0  0  0  0  0  0  0  0  0  0
  146.7225  142.5270  156.7098 C   0  0  0  0  0  0  0  0  0  0  0  0
  145.3653  143.0627  157.2089 C   0  0  2  0  0  0  0  0  0  0  0  0
  144.3577  141.9493  157.5429 C   0  0  0  0  0  0  0  0  0  0  0  0
  144.8278  144.0007  156.2754 O   0  0  0  0  0  0  0  0  0  0  0  0
  144.1334  144.3863  153.0191 H   0  0  0  0  0  0  0  0  0  0  0  0
  144.8974  145.5478  154.1038 H   0  0  0  0  0  0  0  0  0  0  0  0
  143.2429  145.0195  154.4003 H   0  0  0  0  0  0  0  0  0  0  0  0
  144.0284  142.7170  154.8719 H   0  0  0  0  0  0  0  0  0  0  0  0
  146.0522  142.6656  153.4512 H   0  0  0  0  0  0  0  0  0  0  0  0
  146.8235  143.8871  154.4373 H   0  0  0  0  0  0  0  0  0  0  0  0
  147.7990  140.6872  154.1852 H   0  0  0  0  0  0  0  0  0  0  0  0
  148.4045  142.3154  154.2543 H   0  0  0  0  0  0  0  0  0  0  0  0
  148.6945  141.5340  156.9125 H   0  0  0  0  0  0  0  0  0  0  0  0
  148.8754  139.4714  157.0184 H   0  0  0  0  0  0  0  0  0  0  0  0
  150.7527  140.8403  154.7635 H   0  0  0  0  0  0  0  0  0  0  0  0
  150.5116  142.4627  155.3453 H   0  0  0  0  0  0  0  0  0  0  0  0
  152.9621  138.2429  156.2741 H   0  0  0  0  0  0  0  0  0  0  0  0
  151.2344  138.3518  156.0337 H   0  0  0  0  0  0  0  0  0  0  0  0
  152.2664  138.5939  154.0822 H   0  0  0  0  0  0  0  0  0  0  0  0
  153.6920  141.4115  160.4333 H   0  0  0  0  0  0  0  0  0  0  0  0
  152.8351  143.6457  161.1019 H   0  0  0  0  0  0  0  0  0  0  0  0
  151.1737  144.8307  159.6821 H   0  0  0  0  0  0  0  0  0  0  0  0
  150.3581  143.7807  157.5757 H   0  0  0  0  0  0  0  0  0  0  0  0
  147.0694  141.7602  157.4007 H   0  0  0  0  0  0  0  0  0  0  0  0
  147.4561  143.3338  156.7532 H   0  0  0  0  0  0  0  0  0  0  0  0
  145.5432  143.6168  158.1308 H   0  0  0  0  0  0  0  0  0  0  0  0
  144.7345  141.3149  158.3455 H   0  0  0  0  0  0  0  0  0  0  0  0
  144.1586  141.3054  156.6863 H   0  0  0  0  0  0  0  0  0  0  0  0
  143.4079  142.3702  157.8732 H   0  0  0  0  0  0  0  0  0  0  0  0
  1  2  1  0  0  0  0
  1 24  1  0  0  0  0
  1 25  1  0  0  0  0
  1 26  1  0  0  0  0
  2 23  1  0  0  0  0
  2  3  1  0  0  0  0
  2 27  1  0  0  0  0
  3  4  1  0  0  0  0
  3 28  1  0  0  0  0
  3 29  1  0  0  0  0
  4  5  1  0  0  0  0
  4 20  1  0  0  0  0
  5  6  1  0  0  0  0
  5 30  1  0  0  0  0
  5 31  1  0  0  0  0
  6  7  1  0  0  0  0
  6  8  1  0  0  0  0
  6 32  1  0  0  0  0
  7 33  1  0  0  0  0
  8  9  1  0  0  0  0
  8 34  1  0  0  0  0
  8 35  1  0  0  0  0
  9 19  1  0  0  0  0
  9 10  1  0  0  0  0
 10 11  1  0  0  0  0
 10 13  2  0  0  0  0
 11 12  1  0  0  0  0
 11 36  1  0  0  0  0
 11 37  1  0  0  0  0
 12 38  1  0  0  0  0
 13 14  1  0  0  0  0
 14 19  2  0  0  0  0
 14 15  1  0  0  0  0
 15 16  2  0  0  0  0
 15 39  1  0  0  0  0
 16 17  1  0  0  0  0
 16 40  1  0  0  0  0
 17 18  2  0  0  0  0
 17 41  1  0  0  0  0
 18 19  1  0  0  0  0
 18 42  1  0  0  0  0
 20 21  1  0  0  0  0
 20 43  1  0  0  0  0
 20 44  1  0  0  0  0
 21 22  1  0  0  0  0
 21 23  1  0  0  0  0
 21 45  1  0  0  0  0
 22 46  1  0  0  0  0
 22 47  1  0  0  0  0
 22 48  1  0  0  0  0
M  END
> <s_m_source_file>
AV-unprocessed.smi

> <i_m_source_file_index>
1703

> <i_lp_mmshare_version>
43012

> <i_f3d_flags>
0

> <s_epik_input>
W0NIM11bQ0BASF0xW0NIMl1OKFtDSDJdW0NASF0oTzEpW0NIM10pW0NIMl1bQ0BIXShbT0hdKVtDSDJdbihjKG4yKVtDSDJdW09IXSljKGMyMylbY0hdW2NIXVtjSF1bY0hdMw==

> <s_epik_cmdline>
J2VwaWtfcHl0aG9uJywgJy1waCcsICc3LjAnLCAnLXRuJywgJzgnLCAnLW1hJywgJzIwMCcsICctbWV0YWxfYmluZGluZycsICctaW1hZScsICc8aW5maWxlLm1hZT4nLCAnLW9tYWUnLCAnPG91dGZpbGUubWFlPic=

> <r_epik_Ionization_Penalty>
0.307685

> <r_epik_Ionization_Penalty_Charging>
0

> <r_epik_Ionization_Penalty_Neutral>
0.307685

> <r_epik_State_Penalty>
0.277856

> <r_epik_Charging_Adjusted_Penalty>
0.277856

> <i_epik_Tot_Q>
0

> <i_epik_Tot_abs_Q>
0

> <r_epik_Metal_State_Penalty>
0.238959

> <b_epik_Metal_Only>
0

> <s_lp_Force_Field>
OPLS_2005

> <r_lp_Energy>
33.4596

> <b_lp_Chiralities_Consistent>
1

> <s_lp_Variant>
AV-unprocessed.smi:1703-6

> <Gold.Version>
5.8.1

> <Gold.Id.Protein>
6NUR|6NUR_protein|mol2

> <Gold.PLP.Fitness>
43.2094

> <Gold.PLP.PLP>
-41.1100

> <Gold.PLP.part.hbond>
-2.0000

> <Gold.PLP.part.metal>
0.0000

> <Gold.PLP.part.buried>
-4.4020

> <Gold.PLP.part.nonpolar>
-33.9081

> <Gold.PLP.part.repulsive>
0.2604

> <Gold.PLP.ligand.clash>
0.0000

> <Gold.PLP.ligand.torsion>
1.3539

> <Gold.PLP.Chemscore.Hbond>
1.5609

> <Gold.PLP.Chemscore.CHOScore>
0.0000

> <Gold.PLP.Chemscore.Metal>
0.0000

> <Gold.Chemscore.Hbonds>
donor molecule, donor type, donor heavy atom, donor atom, acceptor molecule, acceptor atom, score
      P1  H  7989  7998       L1    12  0.70
      P1  H  7997  8009       L1    13  0.71

> <Gold.PLP.Chemscore.Internal.Correction>
0.1245

> <Gold.Rescore>
     Score         DG    S(hbond)    S(metal)    S(lipo)     H(rot)  DE(clash)    DE(int)     intcor
     11.55     -12.97       0.76        0.00     105.26       2.88       0.08       1.34       ----

> <Gold.Chemscore.Fitness>
11.5544

> <Gold.Chemscore.DG>
-12.9710

> <Gold.Chemscore.ZeroCoef>
-5.4800

> <Gold.Chemscore.Hbond>
0.7611

> <Gold.Chemscore.Metal>
0.0000

> <Gold.Chemscore.Lipo>
105.2643

> <Gold.Chemscore.Internal_Hbond>
0.0000

> <Gold.Chemscore.DEClash>
0.0795

> <Gold.Chemscore.DEInternal>
1.3372

> <Gold.Chemscore.Rot>
2.8778

> <Gold.Chemscore.Internal.Correction>
   9.000000E+99

> <Gold.Chemscore.Hbonds>
donor molecule, donor type, donor heavy atom, donor atom, acceptor molecule, acceptor atom, score
      P1  H  7989  7998       L1    12  0.19
      P1  H  7997  8009       L1    13  0.07

> <Gold.Chemscore.Hbond.Weighted>
-2.5422

> <Gold.Chemscore.Metal.Weighted>
-0.0000

> <Gold.Chemscore.Lipo.Weighted>
-12.3159

> <Gold.Chemscore.Internal_Hbond.Weighted>
0.0000

> <Gold.Chemscore.DEClash.Weighted>
0.0795

> <Gold.Chemscore.DEInternal.Weighted>
1.3372

> <Gold.Chemscore.Rot.Weighted>
7.3671

> <Gold.Chemscore.Internal.Correction.Weighted>
   9.000000E+99

> <Gold.Protein.RotatedTorsions>
[ 6907 6896 6895 6894 ] final  -95.51 input  -60.11 | X-H torsion
[ 7974 7965 7964 7962 ] final -122.44 input  175.53 | X-H torsion
[ 8008 7997 7996 7995 ] final  150.58 input   59.86 | X-H torsion
[ 10167 10162 10161 10158 ] final -160.08 input  -65.29 | X-H torsion
[ 10718 10713 10712 10709 ] final  -20.65 input   66.30 | X-H torsion
[ 10763 10752 10751 10750 ] final  105.39 input  -60.55 | X-H torsion
[ 11005 11000 10999 10996 ] final  -93.86 input  -57.11 | X-H torsion

> <Gold.Protein.ActiveResidues>
 VAL166  LYS551  ARG553  GLY616  TRP617  ASP618  TYR619  PRO620  LYS621  CYS622 
 ASP623  PHE694  ASN695  SER759  ASP760  ASP761  ALA762  ILE779  LEU786  VAL792 
 PHE793  MET794  SER795  GLU796  ALA797  LYS798  CYS799  TRP800  GLU811  SER814 

> <Gold.Protein.RotatedAtoms>
  150.6965  134.1647  159.4189 H   0  0  0  0  0  0  0  0  0  0  0  0  # atno 6907 bound_to 6896
  151.9626  135.0113  160.0558 H   0  0  0  0  0  0  0  0  0  0  0  0  # atno 6908 bound_to 6896
  152.1913  133.4740  159.5046 H   0  0  0  0  0  0  0  0  0  0  0  0  # atno 6909 bound_to 6896
  145.0294  140.8055  143.4333 H   0  0  0  0  0  0  0  0  0  0  0  0  # atno 7974 bound_to 7965
  156.2710  140.2071  156.6039 H   0  0  0  0  0  0  0  0  0  0  0  0  # atno 8008 bound_to 7997
  154.6884  140.0532  157.0362 H   0  0  0  0  0  0  0  0  0  0  0  0  # atno 8009 bound_to 7997
  155.0900  140.3195  155.4579 H   0  0  0  0  0  0  0  0  0  0  0  0  # atno 8010 bound_to 7997
  139.6566  143.9988  152.2198 H   0  0  0  0  0  0  0  0  0  0  0  0  # atno 10167 bound_to 10162
  156.5290  130.4650  149.6557 H   0  0  0  0  0  0  0  0  0  0  0  0  # atno 10718 bound_to 10713
  153.3787  135.3911  155.1841 H   0  0  0  0  0  0  0  0  0  0  0  0  # atno 10763 bound_to 10752
  154.8704  135.3720  154.4884 H   0  0  0  0  0  0  0  0  0  0  0  0  # atno 10764 bound_to 10752
  153.5359  135.7085  153.5721 H   0  0  0  0  0  0  0  0  0  0  0  0  # atno 10765 bound_to 10752
  141.1486  133.7917  157.0218 H   0  0  0  0  0  0  0  0  0  0  0  0  # atno 11005 bound_to 11000
  145.1791  139.2362  143.5302 LP  0  0  0  0  0  0  0  0  0  0  0  0  # atno 17320 bound_to 7965
  146.3496  140.1560  142.8591 LP  0  0  0  0  0  0  0  0  0  0  0  0  # atno 17321 bound_to 7965
  139.9716  144.6490  150.7984 LP  0  0  0  0  0  0  0  0  0  0  0  0  # atno 17342 bound_to 10162
  140.7562  143.3061  151.2960 LP  0  0  0  0  0  0  0  0  0  0  0  0  # atno 17343 bound_to 10162
  156.3078  130.7212  151.2098 LP  0  0  0  0  0  0  0  0  0  0  0  0  # atno 17370 bound_to 10713
  157.7425  131.0489  150.5020 LP  0  0  0  0  0  0  0  0  0  0  0  0  # atno 17371 bound_to 10713
  140.0810  134.9648  157.1625 LP  0  0  0  0  0  0  0  0  0  0  0  0  # atno 17394 bound_to 11000
  140.3576  134.2529  155.7191 LP  0  0  0  0  0  0  0  0  0  0  0  0  # atno 17395 bound_to 11000

$$$$
