AV-unprocessed.smi:3092|AV-procd|sdf|11785|dock1
  -GOLD-   2272017163D 1   1.00000     0.00000
 Structure written by MMmdl.
 26 27  0  0  0  0  0  0  0  0  3 V2000
  152.0804  144.2929  160.4572 C   0  0  0  0  0  0  0  0  0  0  0  0
  152.6298  142.9385  160.3666 N   0  0  0  0  0  0  0  0  0  0  0  0
  153.3983  142.3126  161.3145 C   0  0  0  0  0  0  0  0  0  0  0  0
  153.6945  141.0690  160.8229 C   0  0  0  0  0  0  0  0  0  0  0  0
  153.0945  140.9864  159.5962 N   0  3  0  0  0  0  0  0  0  0  0  0
  152.4424  142.1222  159.3139 C   0  0  0  0  0  0  0  0  0  0  0  0
  151.6712  142.3942  158.0517 C   0  0  1  0  0  0  0  0  0  0  0  0
  151.5883  141.2289  157.0686 C   0  0  0  0  0  0  0  0  0  0  0  0
  150.4020  141.6096  156.1708 C   0  0  0  0  0  0  0  0  0  0  0  0
  149.5800  142.5715  156.9374 N   0  3  0  0  0  0  0  0  0  0  0  0
  150.1983  142.7424  158.2647 C   0  0  0  0  0  0  0  0  0  0  0  0
  152.3795  144.7463  161.4027 H   0  0  0  0  0  0  0  0  0  0  0  0
  150.9921  144.2455  160.4099 H   0  0  0  0  0  0  0  0  0  0  0  0
  152.4640  144.8954  159.6330 H   0  0  0  0  0  0  0  0  0  0  0  0
  153.6724  142.7863  162.2465 H   0  0  0  0  0  0  0  0  0  0  0  0
  154.2726  140.2585  161.2427 H   0  0  0  0  0  0  0  0  0  0  0  0
  152.1516  143.2335  157.5485 H   0  0  0  0  0  0  0  0  0  0  0  0
  152.5140  141.0705  156.5144 H   0  0  0  0  0  0  0  0  0  0  0  0
  151.3537  140.3039  157.5977 H   0  0  0  0  0  0  0  0  0  0  0  0
  150.7474  142.0984  155.2593 H   0  0  0  0  0  0  0  0  0  0  0  0
  149.8169  140.7360  155.8820 H   0  0  0  0  0  0  0  0  0  0  0  0
  149.5908  143.4576  156.4520 H   0  0  0  0  0  0  0  0  0  0  0  0
  149.7286  142.0358  158.9506 H   0  0  0  0  0  0  0  0  0  0  0  0
  150.0499  143.7481  158.6589 H   0  0  0  0  0  0  0  0  0  0  0  0
  148.6273  142.2466  157.0262 H   0  0  0  0  0  0  0  0  0  0  0  0
  153.1402  140.1799  158.9861 H   0  0  0  0  0  0  0  0  0  0  0  0
  1  2  1  0  0  0  0
  1 12  1  0  0  0  0
  1 13  1  0  0  0  0
  1 14  1  0  0  0  0
  2  6  1  0  0  0  0
  2  3  1  0  0  0  0
  3  4  2  0  0  0  0
  3 15  1  0  0  0  0
  4  5  1  0  0  0  0
  4 16  1  0  0  0  0
  5  6  2  0  0  0  0
  5 26  1  0  0  0  0
  6  7  1  0  0  0  0
  7 11  1  0  0  0  0
  7  8  1  0  0  0  0
  7 17  1  0  0  0  0
  8  9  1  0  0  0  0
  8 18  1  0  0  0  0
  8 19  1  0  0  0  0
  9 10  1  0  0  0  0
  9 20  1  0  0  0  0
  9 21  1  0  0  0  0
 10 11  1  0  0  0  0
 10 22  1  0  0  0  0
 10 25  1  0  0  0  0
 11 23  1  0  0  0  0
 11 24  1  0  0  0  0
M  CHG  1   5   1
M  CHG  1  10   1
M  END
> <s_m_source_file>
AV-unprocessed.smi

> <i_m_source_file_index>
3092

> <i_lp_mmshare_version>
43012

> <i_f3d_flags>
0

> <s_epik_input>
W0NIM11uMVtjSF1bY0hdbmMxW0NAQEhdMltDSDJdW0NIMl1bTkhdW0NIMl0y

> <s_epik_cmdline>
J2VwaWtfcHl0aG9uJywgJy1waCcsICc3LjAnLCAnLXRuJywgJzgnLCAnLW1hJywgJzIwMCcsICctbWV0YWxfYmluZGluZycsICctaW1hZScsICc8aW5maWxlLm1hZT4nLCAnLW9tYWUnLCAnPG91dGZpbGUubWFlPic=

> <r_lp_tautomer_probability>
1

> <r_epik_Ionization_Penalty>
0.803493

> <r_epik_Ionization_Penalty_Charging>
0.000689375

> <r_epik_Ionization_Penalty_Neutral>
0.802804

> <r_epik_State_Penalty>
0.834355

> <r_epik_Charging_Adjusted_Penalty>
0.835044

> <i_epik_Tot_Q>
2

> <i_epik_Tot_abs_Q>
2

> <r_epik_Metal_State_Penalty>
4.76097

> <b_epik_Metal_Only>
0

> <s_lp_Force_Field>
OPLS_2005

> <r_lp_Energy>
35.9538

> <b_lp_Chiralities_Consistent>
1

> <s_lp_Variant>
AV-unprocessed.smi:3092-4

> <Gold.Version>
5.8.1

> <Gold.Id.Protein>
6NUR|6NUR_protein|mol2

> <Gold.PLP.Fitness>
33.5283

> <Gold.PLP.PLP>
-27.5526

> <Gold.PLP.part.hbond>
-1.0000

> <Gold.PLP.part.metal>
0.0000

> <Gold.PLP.part.buried>
-4.1753

> <Gold.PLP.part.nonpolar>
-22.1367

> <Gold.PLP.part.repulsive>
0.1048

> <Gold.PLP.ligand.clash>
0.0000

> <Gold.PLP.ligand.torsion>
0.0134

> <Gold.PLP.Chemscore.Hbond>
2.0000

> <Gold.PLP.Chemscore.CHOScore>
0.0000

> <Gold.PLP.Chemscore.Metal>
0.0000

> <Gold.Chemscore.Hbonds>
donor molecule, donor type, donor heavy atom, donor atom, acceptor molecule, acceptor atom, score
      L1  H    10    22       P1  8028  2.00

> <Gold.PLP.Chemscore.Internal.Correction>
0.0025

> <Gold.Rescore>
     Score         DG    S(hbond)    S(metal)    S(lipo)     H(rot)  DE(clash)    DE(int)     intcor
     13.53     -13.53       0.99        0.00      62.44       1.00       0.00       0.00       ----

> <Gold.Chemscore.Fitness>
13.5256

> <Gold.Chemscore.DG>
-13.5273

> <Gold.Chemscore.ZeroCoef>
-5.4800

> <Gold.Chemscore.Hbond>
0.9886

> <Gold.Chemscore.Metal>
0.0000

> <Gold.Chemscore.Lipo>
62.4398

> <Gold.Chemscore.Internal_Hbond>
0.0000

> <Gold.Chemscore.DEClash>
0.0004

> <Gold.Chemscore.DEInternal>
0.0013

> <Gold.Chemscore.Rot>
1.0000

> <Gold.Chemscore.Internal.Correction>
   9.000000E+99

> <Gold.Chemscore.Hbonds>
donor molecule, donor type, donor heavy atom, donor atom, acceptor molecule, acceptor atom, score
      L1  H    10    22       P1  8028  0.97

> <Gold.Chemscore.Hbond.Weighted>
-3.3019

> <Gold.Chemscore.Metal.Weighted>
-0.0000

> <Gold.Chemscore.Lipo.Weighted>
-7.3055

> <Gold.Chemscore.Internal_Hbond.Weighted>
0.0000

> <Gold.Chemscore.DEClash.Weighted>
0.0004

> <Gold.Chemscore.DEInternal.Weighted>
0.0013

> <Gold.Chemscore.Rot.Weighted>
2.5600

> <Gold.Chemscore.Internal.Correction.Weighted>
   9.000000E+99

> <Gold.Protein.RotatedTorsions>
[ 6907 6896 6895 6894 ] final  166.19 input  -60.11 | X-H torsion
[ 7974 7965 7964 7962 ] final  -10.88 input  175.53 | X-H torsion
[ 8008 7997 7996 7995 ] final -135.47 input   59.86 | X-H torsion
[ 10167 10162 10161 10158 ] final   43.63 input  -65.29 | X-H torsion
[ 10718 10713 10712 10709 ] final  -58.12 input   66.30 | X-H torsion
[ 10763 10752 10751 10750 ] final  136.67 input  -60.55 | X-H torsion
[ 11005 11000 10999 10996 ] final  126.12 input  -57.11 | X-H torsion

> <Gold.Protein.ActiveResidues>
 VAL166  LYS551  ARG553  GLY616  TRP617  ASP618  TYR619  PRO620  LYS621  CYS622 
 ASP623  PHE694  ASN695  SER759  ASP760  ASP761  ALA762  ILE779  LEU786  VAL792 
 PHE793  MET794  SER795  GLU796  ALA797  LYS798  CYS799  TRP800  GLU811  SER814 

> <Gold.Protein.RotatedAtoms>
  151.8827  133.3498  159.3771 H   0  0  0  0  0  0  0  0  0  0  0  0  # atno 6907 bound_to 6896
  150.7123  134.5003  159.5567 H   0  0  0  0  0  0  0  0  0  0  0  0  # atno 6908 bound_to 6896
  152.2557  134.8086  160.0490 H   0  0  0  0  0  0  0  0  0  0  0  0  # atno 6909 bound_to 6896
  146.2206  140.2829  142.8363 H   0  0  0  0  0  0  0  0  0  0  0  0  # atno 7974 bound_to 7965
  155.3793  140.0493  157.3044 H   0  0  0  0  0  0  0  0  0  0  0  0  # atno 8008 bound_to 7997
  154.5091  140.2185  155.9155 H   0  0  0  0  0  0  0  0  0  0  0  0  # atno 8009 bound_to 7997
  156.1561  140.3126  155.8733 H   0  0  0  0  0  0  0  0  0  0  0  0  # atno 8010 bound_to 7997
  140.3424  144.2453  150.6154 H   0  0  0  0  0  0  0  0  0  0  0  0  # atno 10167 bound_to 10162
  156.1159  130.4170  150.0533 H   0  0  0  0  0  0  0  0  0  0  0  0  # atno 10718 bound_to 10713
  153.8604  135.3068  155.3437 H   0  0  0  0  0  0  0  0  0  0  0  0  # atno 10763 bound_to 10752
  154.7851  135.4814  153.9932 H   0  0  0  0  0  0  0  0  0  0  0  0  # atno 10764 bound_to 10752
  153.1465  135.6834  153.9041 H   0  0  0  0  0  0  0  0  0  0  0  0  # atno 10765 bound_to 10752
  139.9440  134.9632  156.8659 H   0  0  0  0  0  0  0  0  0  0  0  0  # atno 11005 bound_to 11000
  144.9184  140.7839  143.5764 LP  0  0  0  0  0  0  0  0  0  0  0  0  # atno 17320 bound_to 7965
  145.2764  139.1935  143.4814 LP  0  0  0  0  0  0  0  0  0  0  0  0  # atno 17321 bound_to 7965
  140.5296  143.2246  151.8259 LP  0  0  0  0  0  0  0  0  0  0  0  0  # atno 17342 bound_to 10162
  139.4838  144.4736  151.9394 LP  0  0  0  0  0  0  0  0  0  0  0  0  # atno 17343 bound_to 10162
  156.8484  130.9450  151.3627 LP  0  0  0  0  0  0  0  0  0  0  0  0  # atno 17370 bound_to 10713
  157.6342  130.8753  149.9329 LP  0  0  0  0  0  0  0  0  0  0  0  0  # atno 17371 bound_to 10713
  140.5880  134.0288  155.7489 LP  0  0  0  0  0  0  0  0  0  0  0  0  # atno 17394 bound_to 11000
  141.1084  133.9656  157.2954 LP  0  0  0  0  0  0  0  0  0  0  0  0  # atno 17395 bound_to 11000

$$$$
