AV-unprocessed.smi:2305|AV-procd|sdf|9247|dock4
  -GOLD-   2272012463D 1   1.00000     0.00000
 Structure written by MMmdl.
 40 41  0  0  0  0  0  0  0  0  1 V2000
  152.0912  145.0373  160.0241 C   0  0  0  0  0  0  0  0  0  0  0  0
  151.6831  143.7661  159.3011 C   0  0  0  0  0  0  0  0  0  0  0  0
  150.6970  143.9179  158.3225 N   0  0  0  0  0  0  0  0  0  0  0  0
  150.2937  142.8914  157.6482 C   0  0  0  0  0  0  0  0  0  0  0  0
  150.8219  141.6076  157.8696 N   0  0  0  0  0  0  0  0  0  0  0  0
  150.2835  140.5183  157.0340 C   0  0  0  0  0  0  0  0  0  0  0  0
  150.3218  140.8343  155.5207 C   0  0  1  0  0  0  0  0  0  0  0  0
  151.4870  140.2384  154.9881 O   0  0  0  0  0  0  0  0  0  0  0  0
  149.0956  140.3149  154.7425 C   0  0  0  0  0  0  0  0  0  0  0  0
  147.8557  141.1608  154.9708 C   0  0  0  0  0  0  0  0  0  0  0  0
  147.3123  141.9177  153.9127 C   0  0  0  0  0  0  0  0  0  0  0  0
  146.1612  142.7021  154.1198 C   0  0  0  0  0  0  0  0  0  0  0  0
  145.5436  142.7406  155.3894 C   0  0  0  0  0  0  0  0  0  0  0  0
  144.2972  143.5790  155.6323 C   0  0  0  0  0  0  0  0  0  0  0  0
  143.2703  142.7731  155.9000 F   0  0  0  0  0  0  0  0  0  0  0  0
  144.4902  144.3893  156.6733 F   0  0  0  0  0  0  0  0  0  0  0  0
  143.9880  144.3259  154.5717 F   0  0  0  0  0  0  0  0  0  0  0  0
  146.0888  141.9788  156.4449 C   0  0  0  0  0  0  0  0  0  0  0  0
  147.2395  141.1936  156.2385 C   0  0  0  0  0  0  0  0  0  0  0  0
  151.7713  141.3689  158.8204 C   0  0  0  0  0  0  0  0  0  0  0  0
  152.2108  140.2360  159.0258 O   0  0  0  0  0  0  0  0  0  0  0  0
  152.2292  142.5491  159.5712 C   0  0  0  0  0  0  0  0  0  0  0  0
  153.3102  142.3240  160.6209 C   0  0  0  0  0  0  0  0  0  0  0  0
  151.9230  144.9388  161.0967 H   0  0  0  0  0  0  0  0  0  0  0  0
  151.5160  145.8953  159.6745 H   0  0  0  0  0  0  0  0  0  0  0  0
  153.1467  145.2509  159.8540 H   0  0  0  0  0  0  0  0  0  0  0  0
  149.5310  142.9610  156.8708 H   0  0  0  0  0  0  0  0  0  0  0  0
  150.8626  139.6135  157.2304 H   0  0  0  0  0  0  0  0  0  0  0  0
  149.2630  140.2574  157.3224 H   0  0  0  0  0  0  0  0  0  0  0  0
  150.4096  141.9123  155.3836 H   0  0  0  0  0  0  0  0  0  0  0  0
  151.2749  139.3582  154.7162 H   0  0  0  0  0  0  0  0  0  0  0  0
  149.3169  140.2449  153.6764 H   0  0  0  0  0  0  0  0  0  0  0  0
  148.8460  139.3039  155.0635 H   0  0  0  0  0  0  0  0  0  0  0  0
  147.7764  141.8961  152.9371 H   0  0  0  0  0  0  0  0  0  0  0  0
  145.7581  143.2714  153.2956 H   0  0  0  0  0  0  0  0  0  0  0  0
  145.6221  141.9952  157.4189 H   0  0  0  0  0  0  0  0  0  0  0  0
  147.6452  140.6151  157.0556 H   0  0  0  0  0  0  0  0  0  0  0  0
  154.2023  141.9019  160.1570 H   0  0  0  0  0  0  0  0  0  0  0  0
  152.9591  141.6227  161.3786 H   0  0  0  0  0  0  0  0  0  0  0  0
  153.6086  143.2373  161.1325 H   0  0  0  0  0  0  0  0  0  0  0  0
  1  2  1  0  0  0  0
  1 24  1  0  0  0  0
  1 25  1  0  0  0  0
  1 26  1  0  0  0  0
  2 22  2  0  0  0  0
  2  3  1  0  0  0  0
  3  4  2  0  0  0  0
  4  5  1  0  0  0  0
  4 27  1  0  0  0  0
  5  6  1  0  0  0  0
  5 20  1  0  0  0  0
  6  7  1  0  0  0  0
  6 28  1  0  0  0  0
  6 29  1  0  0  0  0
  7  8  1  0  0  0  0
  7  9  1  0  0  0  0
  7 30  1  0  0  0  0
  8 31  1  0  0  0  0
  9 10  1  0  0  0  0
  9 32  1  0  0  0  0
  9 33  1  0  0  0  0
 10 19  1  0  0  0  0
 10 11  2  0  0  0  0
 11 12  1  0  0  0  0
 11 34  1  0  0  0  0
 12 13  2  0  0  0  0
 12 35  1  0  0  0  0
 13 14  1  0  0  0  0
 13 18  1  0  0  0  0
 14 15  1  0  0  0  0
 14 16  1  0  0  0  0
 14 17  1  0  0  0  0
 18 19  2  0  0  0  0
 18 36  1  0  0  0  0
 19 37  1  0  0  0  0
 20 21  2  0  0  0  0
 20 22  1  0  0  0  0
 22 23  1  0  0  0  0
 23 38  1  0  0  0  0
 23 39  1  0  0  0  0
 23 40  1  0  0  0  0
M  END
> <s_m_source_file>
AV-unprocessed.smi

> <i_m_source_file_index>
2305

> <i_lp_mmshare_version>
43012

> <i_f3d_flags>
0

> <s_epik_input>
W0NIM11jMW5bY0hdbihjKD1PKWMxW0NIM10pW0NIMl1bQ0BIXShbT0hdKVtDSDJdYzJbY0hdW2NIXWMoQyhGKShGKUYpW2NIXVtjSF0y

> <s_epik_cmdline>
J2VwaWtfcHl0aG9uJywgJy1waCcsICc3LjAnLCAnLXRuJywgJzgnLCAnLW1hJywgJzIwMCcsICctbWV0YWxfYmluZGluZycsICctaW1hZScsICc8aW5maWxlLm1hZT4nLCAnLW9tYWUnLCAnPG91dGZpbGUubWFlPic=

> <r_lp_tautomer_probability>
1

> <r_epik_Ionization_Penalty>
8.92636e-05

> <r_epik_Ionization_Penalty_Charging>
8.63033e-08

> <r_epik_Ionization_Penalty_Neutral>
8.91773e-05

> <r_epik_State_Penalty>
-0

> <r_epik_Charging_Adjusted_Penalty>
8.63033e-08

> <i_epik_Tot_Q>
0

> <i_epik_Tot_abs_Q>
0

> <r_epik_Metal_State_Penalty>
-0

> <b_epik_Metal_Only>
0

> <s_lp_Force_Field>
OPLS_2005

> <r_lp_Energy>
18.7292

> <b_lp_Chiralities_Consistent>
1

> <s_lp_Variant>
AV-unprocessed.smi:2305-2

> <Gold.Version>
5.8.1

> <Gold.Id.Protein>
6NUR|6NUR_protein|mol2

> <Gold.PLP.Fitness>
50.8733

> <Gold.PLP.PLP>
-46.4388

> <Gold.PLP.part.hbond>
-1.0000

> <Gold.PLP.part.metal>
0.0000

> <Gold.PLP.part.buried>
-7.2281

> <Gold.PLP.part.nonpolar>
-38.7278

> <Gold.PLP.part.repulsive>
0.1589

> <Gold.PLP.ligand.clash>
0.0000

> <Gold.PLP.ligand.torsion>
0.8609

> <Gold.PLP.Chemscore.Hbond>
1.0000

> <Gold.PLP.Chemscore.CHOScore>
1.0000

> <Gold.PLP.Chemscore.Metal>
0.0000

> <Gold.Chemscore.Hbonds>
donor molecule, donor type, donor heavy atom, donor atom, acceptor molecule, acceptor atom, score
      P1  H  7989  7998       L1     8  0.85
      L1  C     4    27       P1  8028  0.99

> <Gold.PLP.Chemscore.Internal.Correction>
0.1563

> <Gold.Rescore>
     Score         DG    S(hbond)    S(metal)    S(lipo)     H(rot)  DE(clash)    DE(int)     intcor
     12.18     -12.95       0.80        0.00      92.81       2.37       0.09       0.68       ----

> <Gold.Chemscore.Fitness>
12.1849

> <Gold.Chemscore.DG>
-12.9535

> <Gold.Chemscore.ZeroCoef>
-5.4800

> <Gold.Chemscore.Hbond>
0.8014

> <Gold.Chemscore.Metal>
0.0000

> <Gold.Chemscore.Lipo>
92.8132

> <Gold.Chemscore.Internal_Hbond>
0.0000

> <Gold.Chemscore.DEClash>
0.0864

> <Gold.Chemscore.DEInternal>
0.6822

> <Gold.Chemscore.Rot>
2.3681

> <Gold.Chemscore.Internal.Correction>
   9.000000E+99

> <Gold.Chemscore.Hbonds>
donor molecule, donor type, donor heavy atom, donor atom, acceptor molecule, acceptor atom, score
      P1  H  7989  7998       L1     8  0.07

> <Gold.Chemscore.Hbond.Weighted>
-2.6768

> <Gold.Chemscore.Metal.Weighted>
-0.0000

> <Gold.Chemscore.Lipo.Weighted>
-10.8591

> <Gold.Chemscore.Internal_Hbond.Weighted>
0.0000

> <Gold.Chemscore.DEClash.Weighted>
0.0864

> <Gold.Chemscore.DEInternal.Weighted>
0.6822

> <Gold.Chemscore.Rot.Weighted>
6.0624

> <Gold.Chemscore.Internal.Correction.Weighted>
   9.000000E+99

> <Gold.Protein.RotatedTorsions>
[ 6907 6896 6895 6894 ] final -104.93 input  -60.11 | X-H torsion
[ 7974 7965 7964 7962 ] final -177.59 input  175.53 | X-H torsion
[ 8008 7997 7996 7995 ] final   60.85 input   59.86 | X-H torsion
[ 10167 10162 10161 10158 ] final  -92.65 input  -65.29 | X-H torsion
[ 10718 10713 10712 10709 ] final  168.70 input   66.30 | X-H torsion
[ 10763 10752 10751 10750 ] final   28.11 input  -60.55 | X-H torsion
[ 11005 11000 10999 10996 ] final  170.82 input  -57.11 | X-H torsion

> <Gold.Protein.ActiveResidues>
 VAL166  LYS551  ARG553  GLY616  TRP617  ASP618  TYR619  PRO620  LYS621  CYS622 
 ASP623  PHE694  ASN695  SER759  ASP760  ASP761  ALA762  ILE779  LEU786  VAL792 
 PHE793  MET794  SER795  GLU796  ALA797  LYS798  CYS799  TRP800  GLU811  SER814 

> <Gold.Protein.RotatedAtoms>
  150.7311  134.0203  159.3698 H   0  0  0  0  0  0  0  0  0  0  0  0  # atno 6907 bound_to 6896
  151.8167  135.0662  160.0429 H   0  0  0  0  0  0  0  0  0  0  0  0  # atno 6908 bound_to 6896
  152.3033  133.5641  159.5669 H   0  0  0  0  0  0  0  0  0  0  0  0  # atno 6909 bound_to 6896
  144.7128  140.0997  143.6417 H   0  0  0  0  0  0  0  0  0  0  0  0  # atno 7974 bound_to 7965
  155.5890  140.3492  155.4561 H   0  0  0  0  0  0  0  0  0  0  0  0  # atno 8008 bound_to 7997
  156.0316  140.1276  157.0277 H   0  0  0  0  0  0  0  0  0  0  0  0  # atno 8009 bound_to 7997
  154.4354  140.1042  156.6093 H   0  0  0  0  0  0  0  0  0  0  0  0  # atno 8010 bound_to 7997
  140.3326  143.2986  151.9924 H   0  0  0  0  0  0  0  0  0  0  0  0  # atno 10167 bound_to 10162
  157.0333  131.0266  151.2737 H   0  0  0  0  0  0  0  0  0  0  0  0  # atno 10718 bound_to 10713
  153.0512  135.6521  154.0688 H   0  0  0  0  0  0  0  0  0  0  0  0  # atno 10763 bound_to 10752
  154.0376  135.2906  155.3361 H   0  0  0  0  0  0  0  0  0  0  0  0  # atno 10764 bound_to 10752
  154.6802  135.5323  153.8319 H   0  0  0  0  0  0  0  0  0  0  0  0  # atno 10765 bound_to 10752
  140.3125  134.7505  157.4002 H   0  0  0  0  0  0  0  0  0  0  0  0  # atno 11005 bound_to 11000
  145.9548  139.2759  143.1190 LP  0  0  0  0  0  0  0  0  0  0  0  0  # atno 17320 bound_to 7965
  145.9284  140.9066  143.0369 LP  0  0  0  0  0  0  0  0  0  0  0  0  # atno 17321 bound_to 7965
  139.4854  144.6222  151.7233 LP  0  0  0  0  0  0  0  0  0  0  0  0  # atno 17342 bound_to 10162
  140.5383  144.0621  150.6078 LP  0  0  0  0  0  0  0  0  0  0  0  0  # atno 17343 bound_to 10162
  157.5160  130.7968  149.7757 LP  0  0  0  0  0  0  0  0  0  0  0  0  # atno 17370 bound_to 10713
  156.0062  130.3854  150.2423 LP  0  0  0  0  0  0  0  0  0  0  0  0  # atno 17371 bound_to 10713
  140.1012  134.5469  155.8351 LP  0  0  0  0  0  0  0  0  0  0  0  0  # atno 17394 bound_to 11000
  141.2105  133.6695  156.6514 LP  0  0  0  0  0  0  0  0  0  0  0  0  # atno 17395 bound_to 11000

$$$$
