AV-unprocessed.smi:313|AV-procd|sdf|2311|dock10
  -GOLD-   2262022213D 1   1.00000     0.00000
 Structure written by MMmdl.
 50 51  0  0  0  0  0  0  0  0  1 V2000
  151.0532  139.1079  156.4467 C   0  0  0  0  0  0  0  0  0  0  0  0
  151.3104  140.3390  155.5651 C   0  0  0  0  0  0  0  0  0  0  0  0
  150.5851  141.6082  156.0501 C   0  0  2  0  0  0  0  0  0  0  0  0
  150.8321  141.8714  157.5431 C   0  0  0  0  0  0  0  0  0  0  0  0
  149.1514  141.4928  155.7964 N   0  0  0  0  0  0  0  0  0  0  0  0
  148.5768  141.3865  154.5889 C   0  0  0  0  0  0  0  0  0  0  0  0
  149.2082  141.4180  153.5314 O   0  0  0  0  0  0  0  0  0  0  0  0
  147.0494  141.2192  154.5811 C   0  0  1  0  0  0  0  0  0  0  0  0
  146.4331  142.3843  153.7888 C   0  0  0  0  0  0  0  0  0  0  0  0
  146.6887  139.9720  153.9109 N   0  0  0  0  0  0  0  0  0  0  0  0
  146.9162  138.7396  154.3965 C   0  0  0  0  0  0  0  0  0  0  0  0
  147.4113  138.5251  155.5033 O   0  0  0  0  0  0  0  0  0  0  0  0
  146.4711  137.6063  153.5195 C   0  0  0  0  0  0  0  0  0  0  0  0
  146.1138  137.8093  152.1689 C   0  0  0  0  0  0  0  0  0  0  0  0
  145.7287  136.7030  151.3880 C   0  0  0  0  0  0  0  0  0  0  0  0
  145.7186  135.4142  151.9721 C   0  0  0  0  0  0  0  0  0  0  0  0
  145.3352  134.2904  151.2081 N   0  0  0  0  0  0  0  0  0  0  0  0
  146.3797  133.2970  150.9710 C   0  0  0  0  0  0  0  0  0  0  0  0
  145.9363  132.3040  149.8832 C   0  0  0  0  0  0  0  0  0  0  0  0
  144.6904  131.7179  150.2447 O   0  0  0  0  0  0  0  0  0  0  0  0
  143.6605  132.6935  150.3624 C   0  0  0  0  0  0  0  0  0  0  0  0
  144.0235  133.6998  151.4673 C   0  0  0  0  0  0  0  0  0  0  0  0
  146.0675  135.2216  153.2680 N   0  0  0  0  0  0  0  0  0  0  0  0
  146.4389  136.2847  154.0123 C   0  0  0  0  0  0  0  0  0  0  0  0
  151.5469  138.2278  156.0346 H   0  0  0  0  0  0  0  0  0  0  0  0
  149.9874  138.8889  156.5143 H   0  0  0  0  0  0  0  0  0  0  0  0
  151.4297  139.2517  157.4598 H   0  0  0  0  0  0  0  0  0  0  0  0
  152.3839  140.5241  155.5097 H   0  0  0  0  0  0  0  0  0  0  0  0
  150.9901  140.1104  154.5478 H   0  0  0  0  0  0  0  0  0  0  0  0
  150.9870  142.4526  155.4870 H   0  0  0  0  0  0  0  0  0  0  0  0
  151.8973  141.9743  157.7516 H   0  0  0  0  0  0  0  0  0  0  0  0
  150.4502  141.0564  158.1589 H   0  0  0  0  0  0  0  0  0  0  0  0
  150.3445  142.7913  157.8673 H   0  0  0  0  0  0  0  0  0  0  0  0
  148.5507  141.4574  156.6072 H   0  0  0  0  0  0  0  0  0  0  0  0
  146.6575  141.2239  155.6003 H   0  0  0  0  0  0  0  0  0  0  0  0
  146.6822  143.3452  154.2409 H   0  0  0  0  0  0  0  0  0  0  0  0
  145.3457  142.3074  153.7702 H   0  0  0  0  0  0  0  0  0  0  0  0
  146.7786  142.4033  152.7539 H   0  0  0  0  0  0  0  0  0  0  0  0
  146.2603  140.0524  153.0003 H   0  0  0  0  0  0  0  0  0  0  0  0
  146.1317  138.7948  151.7266 H   0  0  0  0  0  0  0  0  0  0  0  0
  145.4364  136.8580  150.3603 H   0  0  0  0  0  0  0  0  0  0  0  0
  147.3180  133.7585  150.6673 H   0  0  0  0  0  0  0  0  0  0  0  0
  146.5758  132.7651  151.9030 H   0  0  0  0  0  0  0  0  0  0  0  0
  145.8504  132.8006  148.9155 H   0  0  0  0  0  0  0  0  0  0  0  0
  146.6797  131.5146  149.7707 H   0  0  0  0  0  0  0  0  0  0  0  0
  143.5139  133.2007  149.4075 H   0  0  0  0  0  0  0  0  0  0  0  0
  142.7229  132.1932  150.6042 H   0  0  0  0  0  0  0  0  0  0  0  0
  144.0384  133.2003  152.4368 H   0  0  0  0  0  0  0  0  0  0  0  0
  143.2600  134.4774  151.5115 H   0  0  0  0  0  0  0  0  0  0  0  0
  146.7120  136.0666  155.0346 H   0  0  0  0  0  0  0  0  0  0  0  0
  1  2  1  0  0  0  0
  1 25  1  0  0  0  0
  1 26  1  0  0  0  0
  1 27  1  0  0  0  0
  2  3  1  0  0  0  0
  2 28  1  0  0  0  0
  2 29  1  0  0  0  0
  3  4  1  0  0  0  0
  3  5  1  0  0  0  0
  3 30  1  0  0  0  0
  4 31  1  0  0  0  0
  4 32  1  0  0  0  0
  4 33  1  0  0  0  0
  5  6  1  0  0  0  0
  5 34  1  0  0  0  0
  6  7  2  0  0  0  0
  6  8  1  0  0  0  0
  8  9  1  0  0  0  0
  8 10  1  0  0  0  0
  8 35  1  0  0  0  0
  9 36  1  0  0  0  0
  9 37  1  0  0  0  0
  9 38  1  0  0  0  0
 10 11  1  0  0  0  0
 10 39  1  0  0  0  0
 11 12  2  0  0  0  0
 11 13  1  0  0  0  0
 13 24  1  0  0  0  0
 13 14  2  0  0  0  0
 14 15  1  0  0  0  0
 14 40  1  0  0  0  0
 15 16  2  0  0  0  0
 15 41  1  0  0  0  0
 16 17  1  0  0  0  0
 16 23  1  0  0  0  0
 17 22  1  0  0  0  0
 17 18  1  0  0  0  0
 18 19  1  0  0  0  0
 18 42  1  0  0  0  0
 18 43  1  0  0  0  0
 19 20  1  0  0  0  0
 19 44  1  0  0  0  0
 19 45  1  0  0  0  0
 20 21  1  0  0  0  0
 21 22  1  0  0  0  0
 21 46  1  0  0  0  0
 21 47  1  0  0  0  0
 22 48  1  0  0  0  0
 22 49  1  0  0  0  0
 23 24  2  0  0  0  0
 24 50  1  0  0  0  0
M  END
> <s_m_source_file>
AV-unprocessed.smi

> <i_m_source_file_index>
313

> <i_lp_mmshare_version>
43012

> <i_f3d_flags>
0

> <s_epik_input>
W0NIM11bQ0gyXVtDQEhdKFtDSDNdKVtOSF1DKD1PKVtDQEhdKFtDSDNdKVtOSF1DKD1PKWMxW2NIXVtjSF1jKG5bY0hdMSlOMltDSDJdW0NIMl1PW0NIMl1bQ0gyXTI=

> <s_epik_cmdline>
J2VwaWtfcHl0aG9uJywgJy1waCcsICc3LjAnLCAnLXRuJywgJzgnLCAnLW1hJywgJzIwMCcsICctbWV0YWxfYmluZGluZycsICctaW1hZScsICc8aW5maWxlLm1hZT4nLCAnLW9tYWUnLCAnPG91dGZpbGUubWFlPic=

> <r_lp_tautomer_probability>
1

> <r_epik_Ionization_Penalty>
9.96442e-06

> <r_epik_Ionization_Penalty_Charging>
0

> <r_epik_Ionization_Penalty_Neutral>
9.96442e-06

> <r_epik_State_Penalty>
-0

> <r_epik_Charging_Adjusted_Penalty>
0

> <i_epik_Tot_Q>
0

> <i_epik_Tot_abs_Q>
0

> <r_epik_Metal_State_Penalty>
-0

> <b_epik_Metal_Only>
0

> <s_lp_Force_Field>
OPLS_2005

> <r_lp_Energy>
19.146

> <b_lp_Chiralities_Consistent>
1

> <s_lp_Variant>
AV-unprocessed.smi:313-3

> <Gold.Version>
5.8.1

> <Gold.Id.Protein>
6NUR|6NUR_protein|mol2

> <Gold.PLP.Fitness>
39.7619

> <Gold.PLP.PLP>
-37.5493

> <Gold.PLP.part.hbond>
-2.4059

> <Gold.PLP.part.metal>
0.0000

> <Gold.PLP.part.buried>
-4.3000

> <Gold.PLP.part.nonpolar>
-34.0978

> <Gold.PLP.part.repulsive>
2.7911

> <Gold.PLP.ligand.clash>
0.0000

> <Gold.PLP.ligand.torsion>
0.4096

> <Gold.PLP.Chemscore.Hbond>
0.8800

> <Gold.PLP.Chemscore.CHOScore>
0.0000

> <Gold.PLP.Chemscore.Metal>
0.0000

> <Gold.Chemscore.Hbonds>
donor molecule, donor type, donor heavy atom, donor atom, acceptor molecule, acceptor atom, score
      P1  H  8011  8017       L1     7  0.88

> <Gold.PLP.Chemscore.Internal.Correction>
0.3917

> <Gold.Rescore>
     Score         DG    S(hbond)    S(metal)    S(lipo)     H(rot)  DE(clash)    DE(int)     intcor
     13.41     -13.95       0.97        0.00      83.91       1.79       0.10       0.44       ----

> <Gold.Chemscore.Fitness>
13.4131

> <Gold.Chemscore.DG>
-13.9459

> <Gold.Chemscore.ZeroCoef>
-5.4800

> <Gold.Chemscore.Hbond>
0.9662

> <Gold.Chemscore.Metal>
0.0000

> <Gold.Chemscore.Lipo>
83.9144

> <Gold.Chemscore.Internal_Hbond>
0.0000

> <Gold.Chemscore.DEClash>
0.0973

> <Gold.Chemscore.DEInternal>
0.4355

> <Gold.Chemscore.Rot>
1.7888

> <Gold.Chemscore.Internal.Correction>
   9.000000E+99

> <Gold.Chemscore.Hbonds>
donor molecule, donor type, donor heavy atom, donor atom, acceptor molecule, acceptor atom, score
      P1  H  7989  7998       L1     7  0.01
      P1  H  8011  8017       L1     7  0.86

> <Gold.Chemscore.Hbond.Weighted>
-3.2272

> <Gold.Chemscore.Metal.Weighted>
-0.0000

> <Gold.Chemscore.Lipo.Weighted>
-9.8180

> <Gold.Chemscore.Internal_Hbond.Weighted>
0.0000

> <Gold.Chemscore.DEClash.Weighted>
0.0973

> <Gold.Chemscore.DEInternal.Weighted>
0.4355

> <Gold.Chemscore.Rot.Weighted>
4.5793

> <Gold.Chemscore.Internal.Correction.Weighted>
   9.000000E+99

> <Gold.Protein.RotatedTorsions>
[ 6907 6896 6895 6894 ] final  -40.66 input  -60.11 | X-H torsion
[ 7974 7965 7964 7962 ] final  -61.61 input  175.53 | X-H torsion
[ 8008 7997 7996 7995 ] final   93.26 input   59.86 | X-H torsion
[ 10167 10162 10161 10158 ] final  148.80 input  -65.29 | X-H torsion
[ 10718 10713 10712 10709 ] final -120.48 input   66.30 | X-H torsion
[ 10763 10752 10751 10750 ] final -164.52 input  -60.55 | X-H torsion
[ 11005 11000 10999 10996 ] final  162.19 input  -57.11 | X-H torsion

> <Gold.Protein.ActiveResidues>
 VAL166  LYS551  ARG553  GLY616  TRP617  ASP618  TYR619  PRO620  LYS621  CYS622 
 ASP623  PHE694  ASN695  SER759  ASP760  ASP761  ALA762  ILE779  LEU786  VAL792 
 PHE793  MET794  SER795  GLU796  ALA797  LYS798  CYS799  TRP800  GLU811  SER814 

> <Gold.Protein.RotatedAtoms>
  150.9758  134.9123  159.7814 H   0  0  0  0  0  0  0  0  0  0  0  0  # atno 6907 bound_to 6896
  152.5205  134.3478  159.9250 H   0  0  0  0  0  0  0  0  0  0  0  0  # atno 6908 bound_to 6896
  151.3486  133.3893  159.2712 H   0  0  0  0  0  0  0  0  0  0  0  0  # atno 6909 bound_to 6896
  145.8014  140.8653  143.0229 H   0  0  0  0  0  0  0  0  0  0  0  0  # atno 7974 bound_to 7965
  156.0447  140.3315  155.7283 H   0  0  0  0  0  0  0  0  0  0  0  0  # atno 8008 bound_to 7997
  155.5692  140.0626  157.2828 H   0  0  0  0  0  0  0  0  0  0  0  0  # atno 8009 bound_to 7997
  154.4408  140.1864  156.0850 H   0  0  0  0  0  0  0  0  0  0  0  0  # atno 8010 bound_to 7997
  139.4870  144.5651  151.7159 H   0  0  0  0  0  0  0  0  0  0  0  0  # atno 10167 bound_to 10162
  156.1261  130.6360  150.9545 H   0  0  0  0  0  0  0  0  0  0  0  0  # atno 10718 bound_to 10713
  154.7020  135.2990  154.9326 H   0  0  0  0  0  0  0  0  0  0  0  0  # atno 10763 bound_to 10752
  154.0255  135.6677  153.4780 H   0  0  0  0  0  0  0  0  0  0  0  0  # atno 10764 bound_to 10752
  153.0689  135.5072  154.8170 H   0  0  0  0  0  0  0  0  0  0  0  0  # atno 10765 bound_to 10752
  140.2233  134.8179  157.3243 H   0  0  0  0  0  0  0  0  0  0  0  0  # atno 11005 bound_to 11000
  144.6768  140.0264  143.7483 LP  0  0  0  0  0  0  0  0  0  0  0  0  # atno 17320 bound_to 7965
  145.9874  139.2988  143.1005 LP  0  0  0  0  0  0  0  0  0  0  0  0  # atno 17321 bound_to 7965
  140.5228  144.0852  150.6028 LP  0  0  0  0  0  0  0  0  0  0  0  0  # atno 17342 bound_to 10162
  140.3816  143.2799  152.0164 LP  0  0  0  0  0  0  0  0  0  0  0  0  # atno 17343 bound_to 10162
  157.6443  131.0906  150.8186 LP  0  0  0  0  0  0  0  0  0  0  0  0  # atno 17370 bound_to 10713
  156.8277  130.5005  149.5335 LP  0  0  0  0  0  0  0  0  0  0  0  0  # atno 17371 bound_to 10713
  140.1827  134.4470  155.7762 LP  0  0  0  0  0  0  0  0  0  0  0  0  # atno 17394 bound_to 11000
  141.2222  133.6991  156.7895 LP  0  0  0  0  0  0  0  0  0  0  0  0  # atno 17395 bound_to 11000

$$$$
