AV-unprocessed.smi:1085|AV-procd|sdf|4721|dock1
  -GOLD-   22720 3243D 1   1.00000     0.00000
 Structure written by MMmdl.
 33 34  0  0  0  0  0  0  0  0  1 V2000
  153.0229  139.5902  156.7637 O   0  0  0  0  0  0  0  0  0  0  0  0
  151.8570  139.2361  156.9349 C   0  0  0  0  0  0  0  0  0  0  0  0
  151.1873  138.3002  155.9275 C   0  0  0  0  0  0  0  0  0  0  0  0
  150.9623  136.9868  156.5024 N   0  0  0  0  0  0  0  0  0  0  0  0
  150.1592  136.5878  157.4908 C   0  0  0  0  0  0  0  0  0  0  0  0
  150.2721  135.2878  157.7173 N   0  0  0  0  0  0  0  0  0  0  0  0
  151.2170  134.8869  156.7877 N   0  0  0  0  0  0  0  0  0  0  0  0
  151.6297  135.8905  156.0633 N   0  0  0  0  0  0  0  0  0  0  0  0
  151.1089  139.6289  157.9784 N   0  0  0  0  0  0  0  0  0  0  0  0
  151.5397  140.5364  159.0370 C   0  0  1  0  0  0  0  0  0  0  0  0
  152.9641  140.1832  159.5108 C   0  0  0  0  0  0  0  0  0  0  0  0
  153.4648  141.1812  160.5651 C   0  0  0  0  0  0  0  0  0  0  0  0
  153.4023  142.6240  160.0408 C   0  0  0  0  0  0  0  0  0  0  0  0
  151.9795  142.9990  159.5754 C   0  0  1  0  0  0  0  0  0  0  0  0
  151.9041  144.4509  159.0600 C   0  0  0  0  0  0  0  0  0  0  0  0
  150.6840  144.7275  158.5987 F   0  0  0  0  0  0  0  0  0  0  0  0
  152.1950  145.3005  160.0450 F   0  0  0  0  0  0  0  0  0  0  0  0
  152.7875  144.6342  158.0788 F   0  0  0  0  0  0  0  0  0  0  0  0
  151.4813  141.9868  158.5213 C   0  0  0  0  0  0  0  0  0  0  0  0
  150.2276  138.7123  155.6124 H   0  0  0  0  0  0  0  0  0  0  0  0
  151.8085  138.2075  155.0353 H   0  0  0  0  0  0  0  0  0  0  0  0
  149.5034  137.2445  158.0431 H   0  0  0  0  0  0  0  0  0  0  0  0
  150.1608  139.2848  158.0343 H   0  0  0  0  0  0  0  0  0  0  0  0
  150.8521  140.4460  159.8802 H   0  0  0  0  0  0  0  0  0  0  0  0
  152.9876  139.1750  159.9256 H   0  0  0  0  0  0  0  0  0  0  0  0
  153.6474  140.1826  158.6604 H   0  0  0  0  0  0  0  0  0  0  0  0
  152.8600  141.0928  161.4685 H   0  0  0  0  0  0  0  0  0  0  0  0
  154.4873  140.9343  160.8526 H   0  0  0  0  0  0  0  0  0  0  0  0
  153.7336  143.3068  160.8236 H   0  0  0  0  0  0  0  0  0  0  0  0
  154.1046  142.7394  159.2143 H   0  0  0  0  0  0  0  0  0  0  0  0
  151.3191  142.9265  160.4412 H   0  0  0  0  0  0  0  0  0  0  0  0
  152.0844  142.0777  157.6165 H   0  0  0  0  0  0  0  0  0  0  0  0
  150.4578  142.2280  158.2324 H   0  0  0  0  0  0  0  0  0  0  0  0
  1  2  2  0  0  0  0
  2  3  1  0  0  0  0
  2  9  1  0  0  0  0
  3  4  1  0  0  0  0
  3 20  1  0  0  0  0
  3 21  1  0  0  0  0
  4  8  1  0  0  0  0
  4  5  1  0  0  0  0
  5  6  2  0  0  0  0
  5 22  1  0  0  0  0
  6  7  1  0  0  0  0
  7  8  2  0  0  0  0
  9 10  1  0  0  0  0
  9 23  1  0  0  0  0
 10 19  1  0  0  0  0
 10 11  1  0  0  0  0
 10 24  1  0  0  0  0
 11 12  1  0  0  0  0
 11 25  1  0  0  0  0
 11 26  1  0  0  0  0
 12 13  1  0  0  0  0
 12 27  1  0  0  0  0
 12 28  1  0  0  0  0
 13 14  1  0  0  0  0
 13 29  1  0  0  0  0
 13 30  1  0  0  0  0
 14 15  1  0  0  0  0
 14 19  1  0  0  0  0
 14 31  1  0  0  0  0
 15 16  1  0  0  0  0
 15 17  1  0  0  0  0
 15 18  1  0  0  0  0
 19 32  1  0  0  0  0
 19 33  1  0  0  0  0
M  END
> <s_m_source_file>
AV-unprocessed.smi

> <i_m_source_file_index>
1085

> <i_lp_mmshare_version>
43012

> <i_f3d_flags>
0

> <s_epik_input>
bjFubltjSF1uMVtDSDJdQyg9TylbTkhdW0NAQEhdMltDSDJdW0NIMl1bQ0gyXVtDQEBIXShDKEYpKEYpRilbQ0gyXTI=

> <s_epik_cmdline>
J2VwaWtfcHl0aG9uJywgJy1waCcsICc3LjAnLCAnLXRuJywgJzgnLCAnLW1hJywgJzIwMCcsICctbWV0YWxfYmluZGluZycsICctaW1hZScsICc8aW5maWxlLm1hZT4nLCAnLW9tYWUnLCAnPG91dGZpbGUubWFlPic=

> <r_lp_tautomer_probability>
1

> <r_epik_Ionization_Penalty>
8.41315e-07

> <r_epik_Ionization_Penalty_Charging>
0

> <r_epik_Ionization_Penalty_Neutral>
8.41315e-07

> <r_epik_State_Penalty>
-0

> <r_epik_Charging_Adjusted_Penalty>
0

> <i_epik_Tot_Q>
0

> <i_epik_Tot_abs_Q>
0

> <r_epik_Metal_State_Penalty>
-0

> <b_epik_Metal_Only>
0

> <s_lp_Force_Field>
OPLS_2005

> <r_lp_Energy>
12.0143

> <b_lp_Chiralities_Consistent>
1

> <s_lp_Variant>
AV-unprocessed.smi:1085-2

> <Gold.Version>
5.8.1

> <Gold.Id.Protein>
6NUR|6NUR_protein|mol2

> <Gold.PLP.Fitness>
46.6131

> <Gold.PLP.PLP>
-39.4057

> <Gold.PLP.part.hbond>
-3.0536

> <Gold.PLP.part.metal>
0.0000

> <Gold.PLP.part.buried>
-5.0309

> <Gold.PLP.part.nonpolar>
-30.7156

> <Gold.PLP.part.repulsive>
0.1051

> <Gold.PLP.ligand.clash>
0.0000

> <Gold.PLP.ligand.torsion>
0.4201

> <Gold.PLP.Chemscore.Hbond>
2.6713

> <Gold.PLP.Chemscore.CHOScore>
0.0000

> <Gold.PLP.Chemscore.Metal>
0.0000

> <Gold.Chemscore.Hbonds>
donor molecule, donor type, donor heavy atom, donor atom, acceptor molecule, acceptor atom, score
      P1  H  6896  6907       L1     6  0.69
      P1  H  7997  8010       L1     1  0.97
      P1  H 10752 10764       L1     8  1.00

> <Gold.PLP.Chemscore.Internal.Correction>
0.0337

> <Gold.Rescore>
     Score         DG    S(hbond)    S(metal)    S(lipo)     H(rot)  DE(clash)    DE(int)     intcor
     15.16     -16.86       2.48        0.00      71.12       2.05       0.06       1.65       ----

> <Gold.Chemscore.Fitness>
15.1556

> <Gold.Chemscore.DG>
-16.8608

> <Gold.Chemscore.ZeroCoef>
-5.4800

> <Gold.Chemscore.Hbond>
2.4841

> <Gold.Chemscore.Metal>
0.0000

> <Gold.Chemscore.Lipo>
71.1176

> <Gold.Chemscore.Internal_Hbond>
0.0000

> <Gold.Chemscore.DEClash>
0.0587

> <Gold.Chemscore.DEInternal>
1.6465

> <Gold.Chemscore.Rot>
2.0456

> <Gold.Chemscore.Internal.Correction>
   9.000000E+99

> <Gold.Chemscore.Hbonds>
donor molecule, donor type, donor heavy atom, donor atom, acceptor molecule, acceptor atom, score
      P1  H  6896  6907       L1     6  0.49
      P1  H  7997  8010       L1     1  0.86
      P1  H 10752 10764       L1     8  0.91

> <Gold.Chemscore.Hbond.Weighted>
-8.2968

> <Gold.Chemscore.Metal.Weighted>
-0.0000

> <Gold.Chemscore.Lipo.Weighted>
-8.3208

> <Gold.Chemscore.Internal_Hbond.Weighted>
0.0000

> <Gold.Chemscore.DEClash.Weighted>
0.0587

> <Gold.Chemscore.DEInternal.Weighted>
1.6465

> <Gold.Chemscore.Rot.Weighted>
5.2368

> <Gold.Chemscore.Internal.Correction.Weighted>
   9.000000E+99

> <Gold.Protein.RotatedTorsions>
[ 6907 6896 6895 6894 ] final  -75.99 input  -60.11 | X-H torsion
[ 7974 7965 7964 7962 ] final  -74.81 input  175.53 | X-H torsion
[ 8008 7997 7996 7995 ] final   84.59 input   59.86 | X-H torsion
[ 10167 10162 10161 10158 ] final  104.74 input  -65.29 | X-H torsion
[ 10718 10713 10712 10709 ] final  -29.79 input   66.30 | X-H torsion
[ 10763 10752 10751 10750 ] final  -38.70 input  -60.55 | X-H torsion
[ 11005 11000 10999 10996 ] final   39.14 input  -57.11 | X-H torsion

> <Gold.Protein.ActiveResidues>
 VAL166  LYS551  ARG553  GLY616  TRP617  ASP618  TYR619  PRO620  LYS621  CYS622 
 ASP623  PHE694  ASN695  SER759  ASP760  ASP761  ALA762  ILE779  LEU786  VAL792 
 PHE793  MET794  SER795  GLU796  ALA797  LYS798  CYS799  TRP800  GLU811  SER814 

> <Gold.Protein.RotatedAtoms>
  150.7041  134.4638  159.5393 H   0  0  0  0  0  0  0  0  0  0  0  0  # atno 6907 bound_to 6896
  152.2308  134.8321  160.0483 H   0  0  0  0  0  0  0  0  0  0  0  0  # atno 6908 bound_to 6896
  151.9138  133.3533  159.3909 H   0  0  0  0  0  0  0  0  0  0  0  0  # atno 6909 bound_to 6896
  145.6342  140.9329  143.1070 H   0  0  0  0  0  0  0  0  0  0  0  0  # atno 7974 bound_to 7965
  155.9391  140.3409  155.6312 H   0  0  0  0  0  0  0  0  0  0  0  0  # atno 8008 bound_to 7997
  155.7062  140.0766  157.2408 H   0  0  0  0  0  0  0  0  0  0  0  0  # atno 8009 bound_to 7997
  154.4099  140.1631  156.2233 H   0  0  0  0  0  0  0  0  0  0  0  0  # atno 8010 bound_to 7997
  139.7152  144.7070  151.0962 H   0  0  0  0  0  0  0  0  0  0  0  0  # atno 10167 bound_to 10162
  156.4080  130.4402  149.7273 H   0  0  0  0  0  0  0  0  0  0  0  0  # atno 10718 bound_to 10713
  153.9172  135.6786  153.4749 H   0  0  0  0  0  0  0  0  0  0  0  0  # atno 10763 bound_to 10752
  153.1047  135.4811  154.8928 H   0  0  0  0  0  0  0  0  0  0  0  0  # atno 10764 bound_to 10752
  154.7496  135.3181  154.8537 H   0  0  0  0  0  0  0  0  0  0  0  0  # atno 10765 bound_to 10752
  140.2057  134.3816  155.8073 H   0  0  0  0  0  0  0  0  0  0  0  0  # atno 11005 bound_to 11000
  144.7182  139.8123  143.7391 LP  0  0  0  0  0  0  0  0  0  0  0  0  # atno 17320 bound_to 7965
  146.1332  139.4372  143.0155 LP  0  0  0  0  0  0  0  0  0  0  0  0  # atno 17321 bound_to 7965
  140.7742  143.5240  150.9503 LP  0  0  0  0  0  0  0  0  0  0  0  0  # atno 17342 bound_to 10162
  139.8925  143.6935  152.3143 LP  0  0  0  0  0  0  0  0  0  0  0  0  # atno 17343 bound_to 10162
  156.4263  130.7793  151.2812 LP  0  0  0  0  0  0  0  0  0  0  0  0  # atno 17370 bound_to 10713
  157.7506  131.0167  150.3557 LP  0  0  0  0  0  0  0  0  0  0  0  0  # atno 17371 bound_to 10713
  141.2227  133.7117  156.8333 LP  0  0  0  0  0  0  0  0  0  0  0  0  # atno 17394 bound_to 11000
  140.2005  134.8900  157.3164 LP  0  0  0  0  0  0  0  0  0  0  0  0  # atno 17395 bound_to 11000

$$$$
