AV-unprocessed.smi:2917|AV-procd|sdf|11190|dock6
  -GOLD-   2272016 83D 1   1.00000     0.00000
 Structure written by MMmdl.
 34 35  0  0  0  0  0  0  0  0  1 V2000
  149.6952  140.3653  153.9807 C   0  0  0  0  0  0  0  0  0  0  0  0
  148.5954  141.2748  154.5700 C   0  0  0  0  0  0  0  0  0  0  0  0
  149.1870  142.2108  155.5388 N   0  0  0  0  0  0  0  0  0  0  0  0
  149.9731  141.9376  156.5938 C   0  0  0  0  0  0  0  0  0  0  0  0
  150.3218  140.8032  156.9180 O   0  0  0  0  0  0  0  0  0  0  0  0
  150.3050  143.0640  157.2476 N   0  0  0  0  0  0  0  0  0  0  0  0
  151.1133  143.2073  158.4078 C   0  0  0  0  0  0  0  0  0  0  0  0
  151.2326  144.4058  159.1525 C   0  0  0  0  0  0  0  0  0  0  0  0
  152.0527  144.4158  160.2972 C   0  0  0  0  0  0  0  0  0  0  0  0
  152.7168  143.2280  160.6597 C   0  0  0  0  0  0  0  0  0  0  0  0
  152.6012  142.0751  159.9677 N   0  0  0  0  0  0  0  0  0  0  0  0
  151.8123  142.0727  158.8719 C   0  0  0  0  0  0  0  0  0  0  0  0
  147.8342  142.0164  153.4436 C   0  0  0  0  0  0  0  0  0  0  0  0
  146.5919  142.7536  153.9753 C   0  0  0  0  0  0  0  0  0  0  0  0
  145.7269  141.8334  154.6305 O   0  0  0  0  0  0  0  0  0  0  0  0
  146.3306  141.2147  155.7604 C   0  0  0  0  0  0  0  0  0  0  0  0
  147.5651  140.4042  155.3221 C   0  0  0  0  0  0  0  0  0  0  0  0
  149.2688  139.5981  153.3336 H   0  0  0  0  0  0  0  0  0  0  0  0
  150.2524  139.8556  154.7676 H   0  0  0  0  0  0  0  0  0  0  0  0
  150.4107  140.9251  153.3788 H   0  0  0  0  0  0  0  0  0  0  0  0
  148.9674  143.1836  155.3833 H   0  0  0  0  0  0  0  0  0  0  0  0
  149.8772  143.9143  156.9115 H   0  0  0  0  0  0  0  0  0  0  0  0
  150.7054  145.3067  158.8802 H   0  0  0  0  0  0  0  0  0  0  0  0
  152.1657  145.3131  160.8870 H   0  0  0  0  0  0  0  0  0  0  0  0
  153.3525  143.2019  161.5324 H   0  0  0  0  0  0  0  0  0  0  0  0
  151.7413  141.1322  158.3449 H   0  0  0  0  0  0  0  0  0  0  0  0
  148.4828  142.7143  152.9148 H   0  0  0  0  0  0  0  0  0  0  0  0
  147.5086  141.2937  152.6941 H   0  0  0  0  0  0  0  0  0  0  0  0
  146.8710  143.5587  154.6567 H   0  0  0  0  0  0  0  0  0  0  0  0
  146.0503  143.2140  153.1488 H   0  0  0  0  0  0  0  0  0  0  0  0
  146.5951  141.9690  156.5030 H   0  0  0  0  0  0  0  0  0  0  0  0
  145.5999  140.5558  156.2295 H   0  0  0  0  0  0  0  0  0  0  0  0
  147.2299  139.5922  154.6749 H   0  0  0  0  0  0  0  0  0  0  0  0
  148.0255  139.9293  156.1897 H   0  0  0  0  0  0  0  0  0  0  0  0
  1  2  1  0  0  0  0
  1 18  1  0  0  0  0
  1 19  1  0  0  0  0
  1 20  1  0  0  0  0
  2 17  1  0  0  0  0
  2  3  1  0  0  0  0
  2 13  1  0  0  0  0
  3  4  1  0  0  0  0
  3 21  1  0  0  0  0
  4  5  2  0  0  0  0
  4  6  1  0  0  0  0
  6  7  1  0  0  0  0
  6 22  1  0  0  0  0
  7 12  1  0  0  0  0
  7  8  2  0  0  0  0
  8  9  1  0  0  0  0
  8 23  1  0  0  0  0
  9 10  2  0  0  0  0
  9 24  1  0  0  0  0
 10 11  1  0  0  0  0
 10 25  1  0  0  0  0
 11 12  2  0  0  0  0
 12 26  1  0  0  0  0
 13 14  1  0  0  0  0
 13 27  1  0  0  0  0
 13 28  1  0  0  0  0
 14 15  1  0  0  0  0
 14 29  1  0  0  0  0
 14 30  1  0  0  0  0
 15 16  1  0  0  0  0
 16 17  1  0  0  0  0
 16 31  1  0  0  0  0
 16 32  1  0  0  0  0
 17 33  1  0  0  0  0
 17 34  1  0  0  0  0
M  END
> <s_m_source_file>
AV-unprocessed.smi

> <i_m_source_file_index>
2917

> <i_lp_mmshare_version>
43012

> <i_f3d_flags>
0

> <s_epik_input>
W0NIMl0xW0NIMl1PW0NIMl1bQ0gyXUMxKFtDSDNdKVtOSF1DKD1PKVtOSF1jMltjSF1bY0hdW2NIXW5bY0hdMg==

> <s_epik_cmdline>
J2VwaWtfcHl0aG9uJywgJy1waCcsICc3LjAnLCAnLXRuJywgJzgnLCAnLW1hJywgJzIwMCcsICctbWV0YWxfYmluZGluZycsICctaW1hZScsICc8aW5maWxlLm1hZT4nLCAnLW9tYWUnLCAnPG91dGZpbGUubWFlPic=

> <r_epik_Ionization_Penalty>
0.00491607

> <r_epik_Ionization_Penalty_Charging>
0

> <r_epik_Ionization_Penalty_Neutral>
0.00491607

> <r_epik_State_Penalty>
0.00354213

> <r_epik_Charging_Adjusted_Penalty>
0.00354213

> <i_epik_Tot_Q>
0

> <i_epik_Tot_abs_Q>
0

> <r_epik_Metal_State_Penalty>
-0

> <b_epik_Metal_Only>
0

> <s_lp_Force_Field>
OPLS_2005

> <r_lp_Energy>
13.2781

> <b_lp_Chiralities_Consistent>
1

> <s_lp_Variant>
AV-unprocessed.smi:2917-1

> <Gold.Version>
5.8.1

> <Gold.Id.Protein>
6NUR|6NUR_protein|mol2

> <Gold.PLP.Fitness>
38.2475

> <Gold.PLP.PLP>
-32.4213

> <Gold.PLP.part.hbond>
-1.9911

> <Gold.PLP.part.metal>
0.0000

> <Gold.PLP.part.buried>
-6.0749

> <Gold.PLP.part.nonpolar>
-24.9932

> <Gold.PLP.part.repulsive>
0.3200

> <Gold.PLP.ligand.clash>
0.0000

> <Gold.PLP.ligand.torsion>
0.0783

> <Gold.PLP.Chemscore.Hbond>
1.9920

> <Gold.PLP.Chemscore.CHOScore>
0.0000

> <Gold.PLP.Chemscore.Metal>
0.0000

> <Gold.Chemscore.Hbonds>
donor molecule, donor type, donor heavy atom, donor atom, acceptor molecule, acceptor atom, score
      L1  H     3    21       P1  8028  1.00
      L1  H     6    22       P1  8028  0.99

> <Gold.PLP.Chemscore.Internal.Correction>
0.0068

> <Gold.Rescore>
     Score         DG    S(hbond)    S(metal)    S(lipo)     H(rot)  DE(clash)    DE(int)     intcor
     17.79     -19.29       1.94        0.00      84.62       1.00       0.04       1.47       ----

> <Gold.Chemscore.Fitness>
17.7897

> <Gold.Chemscore.DG>
-19.2942

> <Gold.Chemscore.ZeroCoef>
-5.4800

> <Gold.Chemscore.Hbond>
1.9383

> <Gold.Chemscore.Metal>
0.0000

> <Gold.Chemscore.Lipo>
84.6186

> <Gold.Chemscore.Internal_Hbond>
0.0000

> <Gold.Chemscore.DEClash>
0.0354

> <Gold.Chemscore.DEInternal>
1.4692

> <Gold.Chemscore.Rot>
1.0000

> <Gold.Chemscore.Internal.Correction>
   9.000000E+99

> <Gold.Chemscore.Hbonds>
donor molecule, donor type, donor heavy atom, donor atom, acceptor molecule, acceptor atom, score
      L1  H     3    21       P1  8028  0.95
      L1  H     6    22       P1  8028  0.89

> <Gold.Chemscore.Hbond.Weighted>
-6.4739

> <Gold.Chemscore.Metal.Weighted>
-0.0000

> <Gold.Chemscore.Lipo.Weighted>
-9.9004

> <Gold.Chemscore.Internal_Hbond.Weighted>
0.0000

> <Gold.Chemscore.DEClash.Weighted>
0.0354

> <Gold.Chemscore.DEInternal.Weighted>
1.4692

> <Gold.Chemscore.Rot.Weighted>
2.5600

> <Gold.Chemscore.Internal.Correction.Weighted>
   9.000000E+99

> <Gold.Protein.RotatedTorsions>
[ 6907 6896 6895 6894 ] final  128.49 input  -60.11 | X-H torsion
[ 7974 7965 7964 7962 ] final -112.08 input  175.53 | X-H torsion
[ 8008 7997 7996 7995 ] final    0.80 input   59.86 | X-H torsion
[ 10167 10162 10161 10158 ] final -104.56 input  -65.29 | X-H torsion
[ 10718 10713 10712 10709 ] final -109.55 input   66.30 | X-H torsion
[ 10763 10752 10751 10750 ] final  100.28 input  -60.55 | X-H torsion
[ 11005 11000 10999 10996 ] final  -11.07 input  -57.11 | X-H torsion

> <Gold.Protein.ActiveResidues>
 VAL166  LYS551  ARG553  GLY616  TRP617  ASP618  TYR619  PRO620  LYS621  CYS622 
 ASP623  PHE694  ASN695  SER759  ASP760  ASP761  ALA762  ILE779  LEU786  VAL792 
 PHE793  MET794  SER795  GLU796  ALA797  LYS798  CYS799  TRP800  GLU811  SER814 

> <Gold.Protein.RotatedAtoms>
  152.3714  133.6424  159.6090 H   0  0  0  0  0  0  0  0  0  0  0  0  # atno 6907 bound_to 6896
  150.7672  133.9263  159.3422 H   0  0  0  0  0  0  0  0  0  0  0  0  # atno 6908 bound_to 6896
  151.7085  135.0918  160.0315 H   0  0  0  0  0  0  0  0  0  0  0  0  # atno 6909 bound_to 6896
  145.1483  140.8815  143.3661 H   0  0  0  0  0  0  0  0  0  0  0  0  # atno 7974 bound_to 7965
  154.6723  140.2614  155.6994 H   0  0  0  0  0  0  0  0  0  0  0  0  # atno 8008 bound_to 7997
  156.2664  140.2827  156.1158 H   0  0  0  0  0  0  0  0  0  0  0  0  # atno 8009 bound_to 7997
  155.1151  140.0376  157.2725 H   0  0  0  0  0  0  0  0  0  0  0  0  # atno 8010 bound_to 7997
  140.2079  143.3768  152.1075 H   0  0  0  0  0  0  0  0  0  0  0  0  # atno 10167 bound_to 10162
  156.0543  130.5769  150.8115 H   0  0  0  0  0  0  0  0  0  0  0  0  # atno 10718 bound_to 10713
  153.3120  135.4084  155.1343 H   0  0  0  0  0  0  0  0  0  0  0  0  # atno 10763 bound_to 10752
  154.8578  135.3566  154.5711 H   0  0  0  0  0  0  0  0  0  0  0  0  # atno 10764 bound_to 10752
  153.6141  135.7067  153.5394 H   0  0  0  0  0  0  0  0  0  0  0  0  # atno 10765 bound_to 10752
  140.7515  133.8589  155.9048 H   0  0  0  0  0  0  0  0  0  0  0  0  # atno 11005 bound_to 11000
  145.0458  139.3222  143.5954 LP  0  0  0  0  0  0  0  0  0  0  0  0  # atno 17320 bound_to 7965
  146.3497  139.9848  142.8692 LP  0  0  0  0  0  0  0  0  0  0  0  0  # atno 17321 bound_to 7965
  139.5191  144.7015  151.5480 LP  0  0  0  0  0  0  0  0  0  0  0  0  # atno 17342 bound_to 10162
  140.6344  143.9013  150.6634 LP  0  0  0  0  0  0  0  0  0  0  0  0  # atno 17343 bound_to 10162
  157.5498  131.0943  150.9711 LP  0  0  0  0  0  0  0  0  0  0  0  0  # atno 17370 bound_to 10713
  156.9973  130.5586  149.5308 LP  0  0  0  0  0  0  0  0  0  0  0  0  # atno 17371 bound_to 10713
  140.9747  134.1485  157.4546 LP  0  0  0  0  0  0  0  0  0  0  0  0  # atno 17394 bound_to 11000
  139.8787  134.9990  156.5932 LP  0  0  0  0  0  0  0  0  0  0  0  0  # atno 17395 bound_to 11000

$$$$
