AV-unprocessed.smi:1994|AV-procd|sdf|8073|dock5
  -GOLD-   2272010283D 1   1.00000     0.00000
 Structure written by MMmdl.
 39 41  0  0  0  0  0  0  0  0  1 V2000
  152.2438  137.3672  159.1077 C   0  0  0  0  0  0  0  0  0  0  0  0
  152.2890  138.8614  159.0558 C   0  0  0  0  0  0  0  0  0  0  0  0
  153.3105  139.5586  159.5542 N   0  0  0  0  0  0  0  0  0  0  0  0
  152.9383  140.8648  159.3008 C   0  0  0  0  0  0  0  0  0  0  0  0
  153.5981  142.0813  159.5885 C   0  0  0  0  0  0  0  0  0  0  0  0
  153.0129  143.3133  159.2295 C   0  0  0  0  0  0  0  0  0  0  0  0
  151.7623  143.3471  158.5790 C   0  0  0  0  0  0  0  0  0  0  0  0
  151.0879  142.1469  158.2831 C   0  0  0  0  0  0  0  0  0  0  0  0
  151.6764  140.9200  158.6435 C   0  0  0  0  0  0  0  0  0  0  0  0
  151.2894  139.5915  158.5017 N   0  0  0  0  0  0  0  0  0  0  0  0
  150.0580  139.1171  157.8854 C   0  0  0  0  0  0  0  0  0  0  0  0
  148.9877  138.7334  158.9273 C   0  0  1  0  0  0  0  0  0  0  0  0
  147.6799  138.9497  158.4353 O   0  0  0  0  0  0  0  0  0  0  0  0
  149.1105  137.2865  159.4330 C   0  0  0  0  0  0  0  0  0  0  0  0
  148.5453  137.1755  160.7335 O   0  0  0  0  0  0  0  0  0  0  0  0
  147.8774  136.0152  161.0625 C   0  0  0  0  0  0  0  0  0  0  0  0
  147.4892  135.0265  160.1224 C   0  0  0  0  0  0  0  0  0  0  0  0
  146.8055  133.8696  160.5450 C   0  0  0  0  0  0  0  0  0  0  0  0
  146.5024  133.6851  161.9066 C   0  0  0  0  0  0  0  0  0  0  0  0
  146.8846  134.6599  162.8464 C   0  0  0  0  0  0  0  0  0  0  0  0
  147.5678  135.8171  162.4254 C   0  0  0  0  0  0  0  0  0  0  0  0
  147.9290  136.7484  163.3404 F   0  0  0  0  0  0  0  0  0  0  0  0
  153.1802  136.9693  159.5006 H   0  0  0  0  0  0  0  0  0  0  0  0
  152.0893  136.9556  158.1104 H   0  0  0  0  0  0  0  0  0  0  0  0
  151.4315  137.0383  159.7561 H   0  0  0  0  0  0  0  0  0  0  0  0
  154.5560  142.0659  160.0871 H   0  0  0  0  0  0  0  0  0  0  0  0
  153.5258  144.2369  159.4545 H   0  0  0  0  0  0  0  0  0  0  0  0
  151.3210  144.2951  158.3079 H   0  0  0  0  0  0  0  0  0  0  0  0
  150.1299  142.1681  157.7852 H   0  0  0  0  0  0  0  0  0  0  0  0
  149.6790  139.8757  157.2008 H   0  0  0  0  0  0  0  0  0  0  0  0
  150.3017  138.2503  157.2699 H   0  0  0  0  0  0  0  0  0  0  0  0
  149.0945  139.3911  159.7908 H   0  0  0  0  0  0  0  0  0  0  0  0
  147.7287  139.5436  157.7021 H   0  0  0  0  0  0  0  0  0  0  0  0
  148.5637  136.6334  158.7512 H   0  0  0  0  0  0  0  0  0  0  0  0
  150.1548  136.9696  159.4304 H   0  0  0  0  0  0  0  0  0  0  0  0
  147.7032  135.1316  159.0699 H   0  0  0  0  0  0  0  0  0  0  0  0
  146.5128  133.1227  159.8218 H   0  0  0  0  0  0  0  0  0  0  0  0
  145.9775  132.7981  162.2294 H   0  0  0  0  0  0  0  0  0  0  0  0
  146.6527  134.5210  163.8922 H   0  0  0  0  0  0  0  0  0  0  0  0
  1  2  1  0  0  0  0
  1 23  1  0  0  0  0
  1 24  1  0  0  0  0
  1 25  1  0  0  0  0
  2 10  1  0  0  0  0
  2  3  2  0  0  0  0
  3  4  1  0  0  0  0
  4  9  2  0  0  0  0
  4  5  1  0  0  0  0
  5  6  2  0  0  0  0
  5 26  1  0  0  0  0
  6  7  1  0  0  0  0
  6 27  1  0  0  0  0
  7  8  2  0  0  0  0
  7 28  1  0  0  0  0
  8  9  1  0  0  0  0
  8 29  1  0  0  0  0
  9 10  1  0  0  0  0
 10 11  1  0  0  0  0
 11 12  1  0  0  0  0
 11 30  1  0  0  0  0
 11 31  1  0  0  0  0
 12 13  1  0  0  0  0
 12 14  1  0  0  0  0
 12 32  1  0  0  0  0
 13 33  1  0  0  0  0
 14 15  1  0  0  0  0
 14 34  1  0  0  0  0
 14 35  1  0  0  0  0
 15 16  1  0  0  0  0
 16 21  1  0  0  0  0
 16 17  2  0  0  0  0
 17 18  1  0  0  0  0
 17 36  1  0  0  0  0
 18 19  2  0  0  0  0
 18 37  1  0  0  0  0
 19 20  1  0  0  0  0
 19 38  1  0  0  0  0
 20 21  2  0  0  0  0
 20 39  1  0  0  0  0
 21 22  1  0  0  0  0
M  END
> <s_m_source_file>
AV-unprocessed.smi

> <i_m_source_file_index>
1994

> <i_lp_mmshare_version>
43012

> <i_f3d_flags>
0

> <s_epik_input>
W2NIXTFbY0hdW2NIXVtjSF1jKGMxMiluKGMobjIpW0NIM10pW0NIMl1bQ0BIXShbT0hdKVtDSDJdT2MzW2NIXVtjSF1bY0hdW2NIXWMzRg==

> <s_epik_cmdline>
J2VwaWtfcHl0aG9uJywgJy1waCcsICc3LjAnLCAnLXRuJywgJzgnLCAnLW1hJywgJzIwMCcsICctbWV0YWxfYmluZGluZycsICctaW1hZScsICc8aW5maWxlLm1hZT4nLCAnLW9tYWUnLCAnPG91dGZpbGUubWFlPic=

> <r_lp_tautomer_probability>
1

> <r_epik_Ionization_Penalty>
0.112614

> <r_epik_Ionization_Penalty_Charging>
0

> <r_epik_Ionization_Penalty_Neutral>
0.112614

> <r_epik_State_Penalty>
0.10231

> <r_epik_Charging_Adjusted_Penalty>
0.10231

> <i_epik_Tot_Q>
0

> <i_epik_Tot_abs_Q>
0

> <r_epik_Metal_State_Penalty>
0.000111664

> <b_epik_Metal_Only>
0

> <s_lp_Force_Field>
OPLS_2005

> <r_lp_Energy>
17.3721

> <b_lp_Chiralities_Consistent>
1

> <s_lp_Variant>
AV-unprocessed.smi:1994-2

> <Gold.Version>
5.8.1

> <Gold.Id.Protein>
6NUR|6NUR_protein|mol2

> <Gold.PLP.Fitness>
47.9220

> <Gold.PLP.PLP>
-47.7110

> <Gold.PLP.part.hbond>
-2.0000

> <Gold.PLP.part.metal>
0.0000

> <Gold.PLP.part.buried>
-3.5818

> <Gold.PLP.part.nonpolar>
-42.8951

> <Gold.PLP.part.repulsive>
0.0000

> <Gold.PLP.ligand.clash>
0.0000

> <Gold.PLP.ligand.torsion>
1.2471

> <Gold.PLP.Chemscore.Hbond>
0.8941

> <Gold.PLP.Chemscore.CHOScore>
0.0000

> <Gold.PLP.Chemscore.Metal>
0.0000

> <Gold.Chemscore.Hbonds>
donor molecule, donor type, donor heavy atom, donor atom, acceptor molecule, acceptor atom, score
      P1  H  6931  6943       L1    15  0.83
      P1  H  6934  6947       L1    15  0.18

> <Gold.PLP.Chemscore.Internal.Correction>
0.0229

> <Gold.Rescore>
     Score         DG    S(hbond)    S(metal)    S(lipo)     H(rot)  DE(clash)    DE(int)     intcor
     15.24     -16.52       0.81        0.00     119.00       2.19       0.02       1.26       ----

> <Gold.Chemscore.Fitness>
15.2419

> <Gold.Chemscore.DG>
-16.5219

> <Gold.Chemscore.ZeroCoef>
-5.4800

> <Gold.Chemscore.Hbond>
0.8148

> <Gold.Chemscore.Metal>
0.0000

> <Gold.Chemscore.Lipo>
119.0018

> <Gold.Chemscore.Internal_Hbond>
0.0000

> <Gold.Chemscore.DEClash>
0.0226

> <Gold.Chemscore.DEInternal>
1.2575

> <Gold.Chemscore.Rot>
2.1886

> <Gold.Chemscore.Internal.Correction>
   9.000000E+99

> <Gold.Chemscore.Hbonds>
donor molecule, donor type, donor heavy atom, donor atom, acceptor molecule, acceptor atom, score
      P1  H  6931  6943       L1    15  0.77
      P1  H  6934  6947       L1    15  0.07

> <Gold.Chemscore.Hbond.Weighted>
-2.7216

> <Gold.Chemscore.Metal.Weighted>
-0.0000

> <Gold.Chemscore.Lipo.Weighted>
-13.9232

> <Gold.Chemscore.Internal_Hbond.Weighted>
0.0000

> <Gold.Chemscore.DEClash.Weighted>
0.0226

> <Gold.Chemscore.DEInternal.Weighted>
1.2575

> <Gold.Chemscore.Rot.Weighted>
5.6028

> <Gold.Chemscore.Internal.Correction.Weighted>
   9.000000E+99

> <Gold.Protein.RotatedTorsions>
[ 6907 6896 6895 6894 ] final  -55.18 input  -60.11 | X-H torsion
[ 7974 7965 7964 7962 ] final -136.46 input  175.53 | X-H torsion
[ 8008 7997 7996 7995 ] final  131.09 input   59.86 | X-H torsion
[ 10167 10162 10161 10158 ] final -131.75 input  -65.29 | X-H torsion
[ 10718 10713 10712 10709 ] final -103.82 input   66.30 | X-H torsion
[ 10763 10752 10751 10750 ] final   20.10 input  -60.55 | X-H torsion
[ 11005 11000 10999 10996 ] final  111.02 input  -57.11 | X-H torsion

> <Gold.Protein.ActiveResidues>
 VAL166  LYS551  ARG553  GLY616  TRP617  ASP618  TYR619  PRO620  LYS621  CYS622 
 ASP623  PHE694  ASN695  SER759  ASP760  ASP761  ALA762  ILE779  LEU786  VAL792 
 PHE793  MET794  SER795  GLU796  ALA797  LYS798  CYS799  TRP800  GLU811  SER814 

> <Gold.Protein.RotatedAtoms>
  150.8274  134.7511  159.6824 H   0  0  0  0  0  0  0  0  0  0  0  0  # atno 6907 bound_to 6896
  152.4383  134.5639  159.9912 H   0  0  0  0  0  0  0  0  0  0  0  0  # atno 6908 bound_to 6896
  151.5808  133.3340  159.3044 H   0  0  0  0  0  0  0  0  0  0  0  0  # atno 6909 bound_to 6896
  144.8925  140.6662  143.5136 H   0  0  0  0  0  0  0  0  0  0  0  0  # atno 7974 bound_to 7965
  156.2965  140.2580  156.2869 H   0  0  0  0  0  0  0  0  0  0  0  0  # atno 8008 bound_to 7997
  154.9547  140.0393  157.2180 H   0  0  0  0  0  0  0  0  0  0  0  0  # atno 8009 bound_to 7997
  154.8003  140.2827  155.5931 H   0  0  0  0  0  0  0  0  0  0  0  0  # atno 8010 bound_to 7997
  139.9157  143.6442  152.2565 H   0  0  0  0  0  0  0  0  0  0  0  0  # atno 10167 bound_to 10162
  156.0280  130.5486  150.7308 H   0  0  0  0  0  0  0  0  0  0  0  0  # atno 10718 bound_to 10713
  153.1106  135.6695  153.9507 H   0  0  0  0  0  0  0  0  0  0  0  0  # atno 10763 bound_to 10752
  153.9052  135.3031  155.3450 H   0  0  0  0  0  0  0  0  0  0  0  0  # atno 10764 bound_to 10752
  154.7526  135.5027  153.9393 H   0  0  0  0  0  0  0  0  0  0  0  0  # atno 10765 bound_to 10752
  139.8894  134.9498  156.6368 H   0  0  0  0  0  0  0  0  0  0  0  0  # atno 11005 bound_to 11000
  145.3757  139.1648  143.4308 LP  0  0  0  0  0  0  0  0  0  0  0  0  # atno 17320 bound_to 7965
  146.3062  140.3833  142.8686 LP  0  0  0  0  0  0  0  0  0  0  0  0  # atno 17321 bound_to 7965
  139.6904  144.7647  151.1448 LP  0  0  0  0  0  0  0  0  0  0  0  0  # atno 17342 bound_to 10162
  140.7675  143.5597  150.9113 LP  0  0  0  0  0  0  0  0  0  0  0  0  # atno 17343 bound_to 10162
  157.4901  131.0910  151.0437 LP  0  0  0  0  0  0  0  0  0  0  0  0  # atno 17370 bound_to 10713
  157.0846  130.5917  149.5427 LP  0  0  0  0  0  0  0  0  0  0  0  0  # atno 17371 bound_to 10713
  140.7624  133.8806  155.8428 LP  0  0  0  0  0  0  0  0  0  0  0  0  # atno 17394 bound_to 11000
  140.9911  134.1278  157.4407 LP  0  0  0  0  0  0  0  0  0  0  0  0  # atno 17395 bound_to 11000

$$$$
