AV-unprocessed.smi:2203|AV-procd|sdf|8936|dock8
  -GOLD-   2272012153D 1   1.00000     0.00000
 Structure written by MMmdl.
 48 49  0  0  0  0  0  0  0  0  1 V2000
  153.1327  138.6014  155.4646 C   0  0  0  0  0  0  0  0  0  0  0  0
  152.0121  139.5798  155.6722 C   0  0  0  0  0  0  0  0  0  0  0  0
  152.2381  140.6804  156.3682 N   0  0  0  0  0  0  0  0  0  0  0  0
  151.0581  141.3343  156.3790 N   0  0  0  0  0  0  0  0  0  0  0  0
  150.9585  142.6011  157.0887 C   0  0  0  0  0  0  0  0  0  0  0  0
  152.2477  142.9735  157.8533 C   0  0  0  0  0  0  0  0  0  0  0  0
  152.5206  141.9669  158.9804 C   0  0  0  0  0  0  0  0  0  0  0  0
  152.2299  144.4127  158.3983 C   0  0  0  0  0  0  0  0  0  0  0  0
  150.0872  140.6482  155.6715 C   0  0  0  0  0  0  0  0  0  0  0  0
  148.6887  141.1555  155.5182 C   0  0  0  0  0  0  0  0  0  0  0  0
  150.6686  139.5011  155.2008 C   0  0  0  0  0  0  0  0  0  0  0  0
  150.0444  138.4009  154.3787 C   0  0  0  0  0  0  0  0  0  0  0  0
  150.0024  137.0987  155.1796 C   0  0  0  0  0  0  0  0  0  0  0  0
  150.3306  137.0947  156.3657 O   0  0  0  0  0  0  0  0  0  0  0  0
  149.6114  135.9992  154.5169 N   0  0  0  0  0  0  0  0  0  0  0  0
  149.5392  134.6571  155.0811 C   0  0  0  0  0  0  0  0  0  0  0  0
  149.2207  133.6115  154.0001 C   0  0  1  0  0  0  0  0  0  0  0  0
  149.1154  132.1838  154.5292 C   0  0  0  0  0  0  0  0  0  0  0  0
  148.2360  131.4928  153.4988 C   0  0  0  0  0  0  0  0  0  0  0  0
  147.5608  132.6462  152.7495 C   0  0  0  0  0  0  0  0  0  0  0  0
  147.9263  133.8226  153.4587 O   0  0  0  0  0  0  0  0  0  0  0  0
  153.5799  138.7254  154.4784 H   0  0  0  0  0  0  0  0  0  0  0  0
  152.7776  137.5741  155.5423 H   0  0  0  0  0  0  0  0  0  0  0  0
  153.9223  138.7313  156.2057 H   0  0  0  0  0  0  0  0  0  0  0  0
  150.7120  143.3858  156.3714 H   0  0  0  0  0  0  0  0  0  0  0  0
  150.1135  142.5449  157.7753 H   0  0  0  0  0  0  0  0  0  0  0  0
  153.0816  142.9048  157.1544 H   0  0  0  0  0  0  0  0  0  0  0  0
  151.7273  141.9855  159.7284 H   0  0  0  0  0  0  0  0  0  0  0  0
  153.4608  142.1878  159.4865 H   0  0  0  0  0  0  0  0  0  0  0  0
  152.5885  140.9503  158.5922 H   0  0  0  0  0  0  0  0  0  0  0  0
  151.3888  144.5684  159.0746 H   0  0  0  0  0  0  0  0  0  0  0  0
  152.1528  145.1460  157.5954 H   0  0  0  0  0  0  0  0  0  0  0  0
  153.1445  144.6354  158.9483 H   0  0  0  0  0  0  0  0  0  0  0  0
  148.1546  140.6071  154.7423 H   0  0  0  0  0  0  0  0  0  0  0  0
  148.6789  142.2090  155.2395 H   0  0  0  0  0  0  0  0  0  0  0  0
  148.1327  141.0434  156.4490 H   0  0  0  0  0  0  0  0  0  0  0  0
  149.0295  138.6561  154.0722 H   0  0  0  0  0  0  0  0  0  0  0  0
  150.5998  138.2340  153.4551 H   0  0  0  0  0  0  0  0  0  0  0  0
  149.3592  136.0973  153.5443 H   0  0  0  0  0  0  0  0  0  0  0  0
  150.4786  134.4128  155.5798 H   0  0  0  0  0  0  0  0  0  0  0  0
  148.7678  134.6488  155.8517 H   0  0  0  0  0  0  0  0  0  0  0  0
  149.9564  133.6506  153.1942 H   0  0  0  0  0  0  0  0  0  0  0  0
  150.0878  131.7053  154.6487 H   0  0  0  0  0  0  0  0  0  0  0  0
  148.6149  132.1771  155.4985 H   0  0  0  0  0  0  0  0  0  0  0  0
  148.8310  130.8898  152.8122 H   0  0  0  0  0  0  0  0  0  0  0  0
  147.5087  130.8369  153.9781 H   0  0  0  0  0  0  0  0  0  0  0  0
  147.9367  132.7113  151.7275 H   0  0  0  0  0  0  0  0  0  0  0  0
  146.4766  132.5394  152.7065 H   0  0  0  0  0  0  0  0  0  0  0  0
  1  2  1  0  0  0  0
  1 22  1  0  0  0  0
  1 23  1  0  0  0  0
  1 24  1  0  0  0  0
  2 11  1  0  0  0  0
  2  3  2  0  0  0  0
  3  4  1  0  0  0  0
  4  5  1  0  0  0  0
  4  9  1  0  0  0  0
  5  6  1  0  0  0  0
  5 25  1  0  0  0  0
  5 26  1  0  0  0  0
  6  7  1  0  0  0  0
  6  8  1  0  0  0  0
  6 27  1  0  0  0  0
  7 28  1  0  0  0  0
  7 29  1  0  0  0  0
  7 30  1  0  0  0  0
  8 31  1  0  0  0  0
  8 32  1  0  0  0  0
  8 33  1  0  0  0  0
  9 10  1  0  0  0  0
  9 11  2  0  0  0  0
 10 34  1  0  0  0  0
 10 35  1  0  0  0  0
 10 36  1  0  0  0  0
 11 12  1  0  0  0  0
 12 13  1  0  0  0  0
 12 37  1  0  0  0  0
 12 38  1  0  0  0  0
 13 14  2  0  0  0  0
 13 15  1  0  0  0  0
 15 16  1  0  0  0  0
 15 39  1  0  0  0  0
 16 17  1  0  0  0  0
 16 40  1  0  0  0  0
 16 41  1  0  0  0  0
 17 21  1  0  0  0  0
 17 18  1  0  0  0  0
 17 42  1  0  0  0  0
 18 19  1  0  0  0  0
 18 43  1  0  0  0  0
 18 44  1  0  0  0  0
 19 20  1  0  0  0  0
 19 45  1  0  0  0  0
 19 46  1  0  0  0  0
 20 21  1  0  0  0  0
 20 47  1  0  0  0  0
 20 48  1  0  0  0  0
M  END
> <s_m_source_file>
AV-unprocessed.smi

> <i_m_source_file_index>
2203

> <i_lp_mmshare_version>
43012

> <i_f3d_flags>
0

> <s_epik_input>
W0NIM11jMW5uKFtDSDJdW0NIXShbQ0gzXSlbQ0gzXSljKFtDSDNdKWMxW0NIMl1DKD1PKVtOSF1bQ0gyXVtDQEBIXTJbQ0gyXVtDSDJdW0NIMl1PMg==

> <s_epik_cmdline>
J2VwaWtfcHl0aG9uJywgJy1waCcsICc3LjAnLCAnLXRuJywgJzgnLCAnLW1hJywgJzIwMCcsICctbWV0YWxfYmluZGluZycsICctaW1hZScsICc8aW5maWxlLm1hZT4nLCAnLW9tYWUnLCAnPG91dGZpbGUubWFlPic=

> <r_lp_tautomer_probability>
1

> <r_epik_Ionization_Penalty>
0.00306713

> <r_epik_Ionization_Penalty_Charging>
0

> <r_epik_Ionization_Penalty_Neutral>
0.00306713

> <r_epik_State_Penalty>
0.00215672

> <r_epik_Charging_Adjusted_Penalty>
0.00215672

> <i_epik_Tot_Q>
0

> <i_epik_Tot_abs_Q>
0

> <r_epik_Metal_State_Penalty>
-0

> <b_epik_Metal_Only>
0

> <s_lp_Force_Field>
OPLS_2005

> <r_lp_Energy>
15.0648

> <b_lp_Chiralities_Consistent>
1

> <s_lp_Variant>
AV-unprocessed.smi:2203-2

> <Gold.Version>
5.8.1

> <Gold.Id.Protein>
6NUR|6NUR_protein|mol2

> <Gold.PLP.Fitness>
42.1546

> <Gold.PLP.PLP>
-38.7389

> <Gold.PLP.part.hbond>
-1.9635

> <Gold.PLP.part.metal>
0.0000

> <Gold.PLP.part.buried>
0.0873

> <Gold.PLP.part.nonpolar>
-38.1438

> <Gold.PLP.part.repulsive>
0.9369

> <Gold.PLP.ligand.clash>
0.0000

> <Gold.PLP.ligand.torsion>
0.1591

> <Gold.PLP.Chemscore.Hbond>
1.2312

> <Gold.PLP.Chemscore.CHOScore>
0.0000

> <Gold.PLP.Chemscore.Metal>
0.0000

> <Gold.Chemscore.Hbonds>
donor molecule, donor type, donor heavy atom, donor atom, acceptor molecule, acceptor atom, score
      L1  H    15    39       P1  7948  1.00
      P1  H  7997  8008       L1     3  0.24

> <Gold.PLP.Chemscore.Internal.Correction>
0.0404

> <Gold.Rescore>
     Score         DG    S(hbond)    S(metal)    S(lipo)     H(rot)  DE(clash)    DE(int)     intcor
     16.67     -18.42       1.67        0.00      98.65       1.63       0.49       1.27       ----

> <Gold.Chemscore.Fitness>
16.6693

> <Gold.Chemscore.DG>
-18.4239

> <Gold.Chemscore.ZeroCoef>
-5.4800

> <Gold.Chemscore.Hbond>
1.6713

> <Gold.Chemscore.Metal>
0.0000

> <Gold.Chemscore.Lipo>
98.6484

> <Gold.Chemscore.Internal_Hbond>
0.0000

> <Gold.Chemscore.DEClash>
0.4867

> <Gold.Chemscore.DEInternal>
1.2678

> <Gold.Chemscore.Rot>
1.6329

> <Gold.Chemscore.Internal.Correction>
   9.000000E+99

> <Gold.Chemscore.Hbonds>
donor molecule, donor type, donor heavy atom, donor atom, acceptor molecule, acceptor atom, score
      L1  H    15    39       P1  7948  0.70
      P1  H  7997  8008       L1     3  0.01

> <Gold.Chemscore.Hbond.Weighted>
-5.5823

> <Gold.Chemscore.Metal.Weighted>
-0.0000

> <Gold.Chemscore.Lipo.Weighted>
-11.5419

> <Gold.Chemscore.Internal_Hbond.Weighted>
0.0000

> <Gold.Chemscore.DEClash.Weighted>
0.4867

> <Gold.Chemscore.DEInternal.Weighted>
1.2678

> <Gold.Chemscore.Rot.Weighted>
4.1803

> <Gold.Chemscore.Internal.Correction.Weighted>
   9.000000E+99

> <Gold.Protein.RotatedTorsions>
[ 6907 6896 6895 6894 ] final -141.07 input  -60.11 | X-H torsion
[ 7974 7965 7964 7962 ] final  -65.36 input  175.53 | X-H torsion
[ 8008 7997 7996 7995 ] final  -51.44 input   59.86 | X-H torsion
[ 10167 10162 10161 10158 ] final  -81.28 input  -65.29 | X-H torsion
[ 10718 10713 10712 10709 ] final   -0.47 input   66.30 | X-H torsion
[ 10763 10752 10751 10750 ] final   97.47 input  -60.55 | X-H torsion
[ 11005 11000 10999 10996 ] final  -26.73 input  -57.11 | X-H torsion

> <Gold.Protein.ActiveResidues>
 VAL166  LYS551  ARG553  GLY616  TRP617  ASP618  TYR619  PRO620  LYS621  CYS622 
 ASP623  PHE694  ASN695  SER759  ASP760  ASP761  ALA762  ILE779  LEU786  VAL792 
 PHE793  MET794  SER795  GLU796  ALA797  LYS798  CYS799  TRP800  GLU811  SER814 

> <Gold.Protein.RotatedAtoms>
  151.0689  133.5482  159.2628 H   0  0  0  0  0  0  0  0  0  0  0  0  # atno 6907 bound_to 6896
  151.2429  135.0594  159.9042 H   0  0  0  0  0  0  0  0  0  0  0  0  # atno 6908 bound_to 6896
  152.5409  134.0461  159.8143 H   0  0  0  0  0  0  0  0  0  0  0  0  # atno 6909 bound_to 6896
  145.7552  140.8889  143.0459 H   0  0  0  0  0  0  0  0  0  0  0  0  # atno 7974 bound_to 7965
  154.4083  140.1248  156.4829 H   0  0  0  0  0  0  0  0  0  0  0  0  # atno 8008 bound_to 7997
  155.7066  140.3494  155.4936 H   0  0  0  0  0  0  0  0  0  0  0  0  # atno 8009 bound_to 7997
  155.9337  140.1074  157.1101 H   0  0  0  0  0  0  0  0  0  0  0  0  # atno 8010 bound_to 7997
  140.4426  143.2509  151.8604 H   0  0  0  0  0  0  0  0  0  0  0  0  # atno 10167 bound_to 10162
  156.8200  130.5453  149.5698 H   0  0  0  0  0  0  0  0  0  0  0  0  # atno 10718 bound_to 10713
  153.2773  135.4182  155.1045 H   0  0  0  0  0  0  0  0  0  0  0  0  # atno 10763 bound_to 10752
  154.8477  135.3486  154.6161 H   0  0  0  0  0  0  0  0  0  0  0  0  # atno 10764 bound_to 10752
  153.6581  135.7049  153.5244 H   0  0  0  0  0  0  0  0  0  0  0  0  # atno 10765 bound_to 10752
  140.9055  133.7495  156.0601 H   0  0  0  0  0  0  0  0  0  0  0  0  # atno 11005 bound_to 11000
  144.6841  139.9646  143.7481 LP  0  0  0  0  0  0  0  0  0  0  0  0  # atno 17320 bound_to 7965
  146.0318  139.3342  143.0750 LP  0  0  0  0  0  0  0  0  0  0  0  0  # atno 17321 bound_to 7965
  139.4790  144.5211  151.8799 LP  0  0  0  0  0  0  0  0  0  0  0  0  # atno 17342 bound_to 10162
  140.4300  144.2128  150.5888 LP  0  0  0  0  0  0  0  0  0  0  0  0  # atno 17343 bound_to 10162
  156.0994  130.5957  150.9869 LP  0  0  0  0  0  0  0  0  0  0  0  0  # atno 17370 bound_to 10713
  157.6462  131.0903  150.8149 LP  0  0  0  0  0  0  0  0  0  0  0  0  # atno 17371 bound_to 10713
  140.8176  134.3327  157.5392 LP  0  0  0  0  0  0  0  0  0  0  0  0  # atno 17394 bound_to 11000
  139.8749  134.9290  156.3466 LP  0  0  0  0  0  0  0  0  0  0  0  0  # atno 17395 bound_to 11000

$$$$
