AV-unprocessed.smi:1673|AV-procd|sdf|6711|dock9
  -GOLD-   22720 7453D 1   1.00000     0.00000
 Structure written by MMmdl.
 39 40  0  0  0  0  0  0  0  0  1 V2000
  152.1668  138.2010  155.5459 C   0  0  0  0  0  0  0  0  0  0  0  0
  151.1118  139.1691  155.0866 C   0  0  0  0  0  0  0  0  0  0  0  0
  151.3006  140.4659  155.2824 N   0  0  0  0  0  0  0  0  0  0  0  0
  150.1438  141.1158  154.8252 O   0  0  0  0  0  0  0  0  0  0  0  0
  149.2725  140.1848  154.3566 C   0  0  0  0  0  0  0  0  0  0  0  0
  147.9647  140.6796  153.8380 C   0  0  0  0  0  0  0  0  0  0  0  0
  149.8433  138.9520  154.4723 C   0  0  0  0  0  0  0  0  0  0  0  0
  149.2122  137.7358  154.1102 N   0  0  0  0  0  0  0  0  0  0  0  0
  148.6214  136.8583  154.9350 C   0  0  0  0  0  0  0  0  0  0  0  0
  148.5970  136.9533  156.1617 O   0  0  0  0  0  0  0  0  0  0  0  0
  148.0689  135.8460  154.2513 N   0  0  0  0  0  0  0  0  0  0  0  0
  147.3363  134.7154  154.8251 C   0  0  2  0  0  0  0  0  0  0  0  0
  148.2433  133.9547  155.8130 C   0  0  0  0  0  0  0  0  0  0  0  0
  149.3775  133.1989  155.0989 C   0  0  0  0  0  0  0  0  0  0  0  0
  148.8250  132.2581  154.0177 C   0  0  0  0  0  0  0  0  0  0  0  0
  147.9362  133.0140  153.0170 C   0  0  0  0  0  0  0  0  0  0  0  0
  146.7908  133.7634  153.7288 C   0  0  2  0  0  0  0  0  0  0  0  0
  145.8624  134.4645  152.7223 C   0  0  0  0  0  0  0  0  0  0  0  0
  151.7249  137.2608  155.8755 H   0  0  0  0  0  0  0  0  0  0  0  0
  152.7378  138.6013  156.3842 H   0  0  0  0  0  0  0  0  0  0  0  0
  152.8705  137.9798  154.7433 H   0  0  0  0  0  0  0  0  0  0  0  0
  147.2955  139.8512  153.6063 H   0  0  0  0  0  0  0  0  0  0  0  0
  148.1072  141.2626  152.9284 H   0  0  0  0  0  0  0  0  0  0  0  0
  147.4724  141.3149  154.5743 H   0  0  0  0  0  0  0  0  0  0  0  0
  149.2772  137.4751  153.1372 H   0  0  0  0  0  0  0  0  0  0  0  0
  148.1493  135.8608  153.2453 H   0  0  0  0  0  0  0  0  0  0  0  0
  146.4875  135.0943  155.3974 H   0  0  0  0  0  0  0  0  0  0  0  0
  148.6587  134.6423  156.5508 H   0  0  0  0  0  0  0  0  0  0  0  0
  147.6396  133.2399  156.3738 H   0  0  0  0  0  0  0  0  0  0  0  0
  150.0696  133.9101  154.6464 H   0  0  0  0  0  0  0  0  0  0  0  0
  149.9567  132.6284  155.8254 H   0  0  0  0  0  0  0  0  0  0  0  0
  149.6479  131.7732  153.4920 H   0  0  0  0  0  0  0  0  0  0  0  0
  148.2475  131.4611  154.4879 H   0  0  0  0  0  0  0  0  0  0  0  0
  148.5443  133.7176  152.4468 H   0  0  0  0  0  0  0  0  0  0  0  0
  147.5259  132.3090  152.2934 H   0  0  0  0  0  0  0  0  0  0  0  0
  146.1840  133.0120  154.2366 H   0  0  0  0  0  0  0  0  0  0  0  0
  146.4005  135.1889  152.1106 H   0  0  0  0  0  0  0  0  0  0  0  0
  145.0569  134.9924  153.2336 H   0  0  0  0  0  0  0  0  0  0  0  0
  145.4044  133.7422  152.0462 H   0  0  0  0  0  0  0  0  0  0  0  0
  1  2  1  0  0  0  0
  1 19  1  0  0  0  0
  1 20  1  0  0  0  0
  1 21  1  0  0  0  0
  2  7  1  0  0  0  0
  2  3  2  0  0  0  0
  3  4  1  0  0  0  0
  4  5  1  0  0  0  0
  5  6  1  0  0  0  0
  5  7  2  0  0  0  0
  6 22  1  0  0  0  0
  6 23  1  0  0  0  0
  6 24  1  0  0  0  0
  7  8  1  0  0  0  0
  8  9  1  0  0  0  0
  8 25  1  0  0  0  0
  9 10  2  0  0  0  0
  9 11  1  0  0  0  0
 11 12  1  0  0  0  0
 11 26  1  0  0  0  0
 12 17  1  0  0  0  0
 12 13  1  0  0  0  0
 12 27  1  0  0  0  0
 13 14  1  0  0  0  0
 13 28  1  0  0  0  0
 13 29  1  0  0  0  0
 14 15  1  0  0  0  0
 14 30  1  0  0  0  0
 14 31  1  0  0  0  0
 15 16  1  0  0  0  0
 15 32  1  0  0  0  0
 15 33  1  0  0  0  0
 16 17  1  0  0  0  0
 16 34  1  0  0  0  0
 16 35  1  0  0  0  0
 17 18  1  0  0  0  0
 17 36  1  0  0  0  0
 18 37  1  0  0  0  0
 18 38  1  0  0  0  0
 18 39  1  0  0  0  0
M  END
> <s_m_source_file>
AV-unprocessed.smi

> <i_m_source_file_index>
1673

> <i_lp_mmshare_version>
43012

> <i_f3d_flags>
0

> <s_epik_input>
W0NIM11jMW5vYyhbQ0gzXSljMVtOSF1DKD1PKVtOSF1bQ0BASF0yW0NIMl1bQ0gyXVtDSDJdW0NIMl1bQ0BIXTJbQ0gzXQ==

> <s_epik_cmdline>
J2VwaWtfcHl0aG9uJywgJy1waCcsICc3LjAnLCAnLXRuJywgJzgnLCAnLW1hJywgJzIwMCcsICctbWV0YWxfYmluZGluZycsICctaW1hZScsICc8aW5maWxlLm1hZT4nLCAnLW9tYWUnLCAnPG91dGZpbGUubWFlPic=

> <r_lp_tautomer_probability>
1

> <r_epik_Ionization_Penalty>
4.01865e-05

> <r_epik_Ionization_Penalty_Charging>
0

> <r_epik_Ionization_Penalty_Neutral>
4.01865e-05

> <r_epik_State_Penalty>
-0

> <r_epik_Charging_Adjusted_Penalty>
0

> <i_epik_Tot_Q>
0

> <i_epik_Tot_abs_Q>
0

> <r_epik_Metal_State_Penalty>
-0

> <b_epik_Metal_Only>
0

> <s_lp_Force_Field>
OPLS_2005

> <r_lp_Energy>
11.4641

> <b_lp_Chiralities_Consistent>
1

> <s_lp_Variant>
AV-unprocessed.smi:1673-3

> <Gold.Version>
5.8.1

> <Gold.Id.Protein>
6NUR|6NUR_protein|mol2

> <Gold.PLP.Fitness>
34.3061

> <Gold.PLP.PLP>
-29.5805

> <Gold.PLP.part.hbond>
-3.9669

> <Gold.PLP.part.metal>
0.0000

> <Gold.PLP.part.buried>
-2.2399

> <Gold.PLP.part.nonpolar>
-23.6186

> <Gold.PLP.part.repulsive>
0.1854

> <Gold.PLP.ligand.clash>
0.0000

> <Gold.PLP.ligand.torsion>
0.7177

> <Gold.PLP.Chemscore.Hbond>
1.9731

> <Gold.PLP.Chemscore.CHOScore>
0.0000

> <Gold.PLP.Chemscore.Metal>
0.0000

> <Gold.Chemscore.Hbonds>
donor molecule, donor type, donor heavy atom, donor atom, acceptor molecule, acceptor atom, score
      L1  H     8    25       P1  7948  0.98
      L1  H    11    26       P1  7948  1.00

> <Gold.PLP.Chemscore.Internal.Correction>
0.2416

> <Gold.Rescore>
     Score         DG    S(hbond)    S(metal)    S(lipo)     H(rot)  DE(clash)    DE(int)     intcor
     16.16     -16.87       1.85        0.00      66.53       1.00       0.04       0.67       ----

> <Gold.Chemscore.Fitness>
16.1618

> <Gold.Chemscore.DG>
-16.8711

> <Gold.Chemscore.ZeroCoef>
-5.4800

> <Gold.Chemscore.Hbond>
1.8466

> <Gold.Chemscore.Metal>
0.0000

> <Gold.Chemscore.Lipo>
66.5253

> <Gold.Chemscore.Internal_Hbond>
0.0000

> <Gold.Chemscore.DEClash>
0.0431

> <Gold.Chemscore.DEInternal>
0.6662

> <Gold.Chemscore.Rot>
1.0000

> <Gold.Chemscore.Internal.Correction>
   9.000000E+99

> <Gold.Chemscore.Hbonds>
donor molecule, donor type, donor heavy atom, donor atom, acceptor molecule, acceptor atom, score
      L1  H     8    25       P1  7948  0.91
      L1  H    11    26       P1  7948  0.96

> <Gold.Chemscore.Hbond.Weighted>
-6.1677

> <Gold.Chemscore.Metal.Weighted>
-0.0000

> <Gold.Chemscore.Lipo.Weighted>
-7.7835

> <Gold.Chemscore.Internal_Hbond.Weighted>
0.0000

> <Gold.Chemscore.DEClash.Weighted>
0.0431

> <Gold.Chemscore.DEInternal.Weighted>
0.6662

> <Gold.Chemscore.Rot.Weighted>
2.5600

> <Gold.Chemscore.Internal.Correction.Weighted>
   9.000000E+99

> <Gold.Protein.RotatedTorsions>
[ 6907 6896 6895 6894 ] final  124.67 input  -60.11 | X-H torsion
[ 7974 7965 7964 7962 ] final  148.74 input  175.53 | X-H torsion
[ 8008 7997 7996 7995 ] final  -92.61 input   59.86 | X-H torsion
[ 10167 10162 10161 10158 ] final  -55.89 input  -65.29 | X-H torsion
[ 10718 10713 10712 10709 ] final -148.67 input   66.30 | X-H torsion
[ 10763 10752 10751 10750 ] final  -53.19 input  -60.55 | X-H torsion
[ 11005 11000 10999 10996 ] final -155.98 input  -57.11 | X-H torsion

> <Gold.Protein.ActiveResidues>
 VAL166  LYS551  ARG553  GLY616  TRP617  ASP618  TYR619  PRO620  LYS621  CYS622 
 ASP623  PHE694  ASN695  SER759  ASP760  ASP761  ALA762  ILE779  LEU786  VAL792 
 PHE793  MET794  SER795  GLU796  ALA797  LYS798  CYS799  TRP800  GLU811  SER814 

> <Gold.Protein.RotatedAtoms>
  152.4058  133.6887  159.6354 H   0  0  0  0  0  0  0  0  0  0  0  0  # atno 6907 bound_to 6896
  150.7943  133.8712  159.3268 H   0  0  0  0  0  0  0  0  0  0  0  0  # atno 6908 bound_to 6896
  151.6466  135.1008  160.0203 H   0  0  0  0  0  0  0  0  0  0  0  0  # atno 6909 bound_to 6896
  144.8490  139.6192  143.5982 H   0  0  0  0  0  0  0  0  0  0  0  0  # atno 7974 bound_to 7965
  154.7253  140.0507  157.0677 H   0  0  0  0  0  0  0  0  0  0  0  0  # atno 8008 bound_to 7997
  155.0373  140.3164  155.4718 H   0  0  0  0  0  0  0  0  0  0  0  0  # atno 8009 bound_to 7997
  156.2827  140.2139  156.5496 H   0  0  0  0  0  0  0  0  0  0  0  0  # atno 8010 bound_to 7997
  140.6349  143.2477  151.5145 H   0  0  0  0  0  0  0  0  0  0  0  0  # atno 10167 bound_to 10162
  156.4233  130.8039  151.2263 H   0  0  0  0  0  0  0  0  0  0  0  0  # atno 10718 bound_to 10713
  154.1549  135.6484  153.4972 H   0  0  0  0  0  0  0  0  0  0  0  0  # atno 10763 bound_to 10752
  153.0127  135.5347  154.6771 H   0  0  0  0  0  0  0  0  0  0  0  0  # atno 10764 bound_to 10752
  154.6068  135.2949  155.0447 H   0  0  0  0  0  0  0  0  0  0  0  0  # atno 10765 bound_to 10752
  140.6805  134.4149  157.5227 H   0  0  0  0  0  0  0  0  0  0  0  0  # atno 11005 bound_to 11000
  146.2769  139.6776  142.9256 LP  0  0  0  0  0  0  0  0  0  0  0  0  # atno 17320 bound_to 7965
  145.4537  141.0429  143.2790 LP  0  0  0  0  0  0  0  0  0  0  0  0  # atno 17321 bound_to 7965
  139.5560  144.2275  152.1612 LP  0  0  0  0  0  0  0  0  0  0  0  0  # atno 17342 bound_to 10162
  140.1529  144.5098  150.6677 LP  0  0  0  0  0  0  0  0  0  0  0  0  # atno 17343 bound_to 10162
  157.7508  131.0221  150.3779 LP  0  0  0  0  0  0  0  0  0  0  0  0  # atno 17370 bound_to 10713
  156.4101  130.3932  149.6898 LP  0  0  0  0  0  0  0  0  0  0  0  0  # atno 17371 bound_to 10713
  139.8953  134.8686  156.2137 LP  0  0  0  0  0  0  0  0  0  0  0  0  # atno 17394 bound_to 11000
  141.0321  133.6983  156.1448 LP  0  0  0  0  0  0  0  0  0  0  0  0  # atno 17395 bound_to 11000

$$$$
