AV-unprocessed.smi:766|AV-procd|sdf|3652|dock6
  -GOLD-   22720 1 53D 1   1.00000     0.00000
 Structure written by MMmdl.
 47 49  0  0  0  0  0  0  0  0  2 V2000
  153.4004  142.9565  160.3106 C   0  0  0  0  0  0  0  0  0  0  0  0
  152.6046  142.4890  159.1046 C   0  0  0  0  0  0  0  0  0  0  0  0
  152.5476  141.1074  158.8129 C   0  0  0  0  0  0  0  0  0  0  0  0
  151.8180  140.6313  157.7015 C   0  0  0  0  0  0  0  0  0  0  0  0
  151.6274  139.3414  157.2367 N   0  0  0  0  0  0  0  0  0  0  0  0
  150.8576  139.5506  156.1728 C   0  0  0  0  0  0  0  0  0  0  0  0
  150.5278  140.8264  155.8914 N   0  0  0  0  0  0  0  0  0  0  0  0
  149.7052  141.3006  154.7931 C   0  0  0  0  0  0  0  0  0  0  0  0
  148.2029  141.0594  155.0356 C   0  0  1  0  0  0  0  0  0  0  0  0
  147.6608  142.1524  155.7526 O   0  0  0  0  0  0  0  0  0  0  0  0
  147.4263  140.8922  153.7195 C   0  0  0  0  0  0  0  0  0  0  0  0
  146.1496  140.1840  153.9387 N   0  3  0  0  0  0  0  0  0  0  0  0
  146.2626  138.7116  153.9221 C   0  0  0  0  0  0  0  0  0  0  0  0
  145.2490  138.0525  154.8719 C   0  0  0  0  0  0  0  0  0  0  0  0
  144.4700  137.0160  154.2178 N   0  0  0  0  0  0  0  0  0  0  0  0
  143.8129  137.0749  153.0067 C   0  0  0  0  0  0  0  0  0  0  0  0
  143.2196  135.8615  152.8068 C   0  0  0  0  0  0  0  0  0  0  0  0
  143.5760  135.1156  153.9648 C   0  0  0  0  0  0  0  0  0  0  0  0
  144.3233  135.8099  154.8081 N   0  0  0  0  0  0  0  0  0  0  0  0
  151.1429  141.5832  156.8827 C   0  0  0  0  0  0  0  0  0  0  0  0
  151.1924  142.9603  157.1619 C   0  0  0  0  0  0  0  0  0  0  0  0
  151.9240  143.4186  158.2777 C   0  0  0  0  0  0  0  0  0  0  0  0
  151.9681  144.9072  158.5741 C   0  0  0  0  0  0  0  0  0  0  0  0
  153.8716  142.1193  160.8260 H   0  0  0  0  0  0  0  0  0  0  0  0
  152.7506  143.4645  161.0235 H   0  0  0  0  0  0  0  0  0  0  0  0
  154.1871  143.6467  160.0053 H   0  0  0  0  0  0  0  0  0  0  0  0
  153.0649  140.3987  159.4429 H   0  0  0  0  0  0  0  0  0  0  0  0
  150.5155  138.7291  155.5605 H   0  0  0  0  0  0  0  0  0  0  0  0
  149.9053  142.3619  154.6375 H   0  0  0  0  0  0  0  0  0  0  0  0
  150.0268  140.7878  153.8857 H   0  0  0  0  0  0  0  0  0  0  0  0
  148.0812  140.1597  155.6408 H   0  0  0  0  0  0  0  0  0  0  0  0
  148.0695  142.9490  155.4493 H   0  0  0  0  0  0  0  0  0  0  0  0
  147.2386  141.8630  153.2582 H   0  0  0  0  0  0  0  0  0  0  0  0
  148.0221  140.3123  153.0131 H   0  0  0  0  0  0  0  0  0  0  0  0
  145.7690  140.4692  154.8297 H   0  0  0  0  0  0  0  0  0  0  0  0
  146.1194  138.3407  152.9062 H   0  0  0  0  0  0  0  0  0  0  0  0
  147.2746  138.4372  154.2219 H   0  0  0  0  0  0  0  0  0  0  0  0
  145.7764  137.5981  155.7115 H   0  0  0  0  0  0  0  0  0  0  0  0
  144.5717  138.7955  155.2964 H   0  0  0  0  0  0  0  0  0  0  0  0
  143.8217  137.9644  152.3941 H   0  0  0  0  0  0  0  0  0  0  0  0
  142.6229  135.5532  151.9610 H   0  0  0  0  0  0  0  0  0  0  0  0
  143.3148  134.0981  154.2157 H   0  0  0  0  0  0  0  0  0  0  0  0
  150.6705  143.6578  156.5239 H   0  0  0  0  0  0  0  0  0  0  0  0
  151.3603  145.4720  157.8667 H   0  0  0  0  0  0  0  0  0  0  0  0
  152.9910  145.2789  158.5099 H   0  0  0  0  0  0  0  0  0  0  0  0
  151.5876  145.1095  159.5755 H   0  0  0  0  0  0  0  0  0  0  0  0
  145.5029  140.4624  153.2133 H   0  0  0  0  0  0  0  0  0  0  0  0
  1  2  1  0  0  0  0
  1 24  1  0  0  0  0
  1 25  1  0  0  0  0
  1 26  1  0  0  0  0
  2 22  1  0  0  0  0
  2  3  2  0  0  0  0
  3  4  1  0  0  0  0
  3 27  1  0  0  0  0
  4 20  2  0  0  0  0
  4  5  1  0  0  0  0
  5  6  2  0  0  0  0
  6  7  1  0  0  0  0
  6 28  1  0  0  0  0
  7  8  1  0  0  0  0
  7 20  1  0  0  0  0
  8  9  1  0  0  0  0
  8 29  1  0  0  0  0
  8 30  1  0  0  0  0
  9 10  1  0  0  0  0
  9 11  1  0  0  0  0
  9 31  1  0  0  0  0
 10 32  1  0  0  0  0
 11 12  1  0  0  0  0
 11 33  1  0  0  0  0
 11 34  1  0  0  0  0
 12 13  1  0  0  0  0
 12 35  1  0  0  0  0
 12 47  1  0  0  0  0
 13 14  1  0  0  0  0
 13 36  1  0  0  0  0
 13 37  1  0  0  0  0
 14 15  1  0  0  0  0
 14 38  1  0  0  0  0
 14 39  1  0  0  0  0
 15 19  1  0  0  0  0
 15 16  1  0  0  0  0
 16 17  2  0  0  0  0
 16 40  1  0  0  0  0
 17 18  1  0  0  0  0
 17 41  1  0  0  0  0
 18 19  2  0  0  0  0
 18 42  1  0  0  0  0
 20 21  1  0  0  0  0
 21 22  2  0  0  0  0
 21 43  1  0  0  0  0
 22 23  1  0  0  0  0
 23 44  1  0  0  0  0
 23 45  1  0  0  0  0
 23 46  1  0  0  0  0
M  CHG  1  12   1
M  END
> <s_m_source_file>
AV-unprocessed.smi

> <i_m_source_file_index>
766

> <i_lp_mmshare_version>
43012

> <i_f3d_flags>
0

> <s_epik_input>
W0NIM11jKFtjSF0xKWMoW0NIM10pW2NIXWMoYzEyKW4oW2NIXW4yKVtDSDJdW0NASF0oW09IXSlbQ0gyXVtOSF1bQ0gyXVtDSDJdbjNbY0hdW2NIXVtjSF1uMw==

> <s_epik_cmdline>
J2VwaWtfcHl0aG9uJywgJy1waCcsICc3LjAnLCAnLXRuJywgJzgnLCAnLW1hJywgJzIwMCcsICctbWV0YWxfYmluZGluZycsICctaW1hZScsICc8aW5maWxlLm1hZT4nLCAnLW9tYWUnLCAnPG91dGZpbGUubWFlPic=

> <r_lp_tautomer_probability>
1

> <r_epik_Ionization_Penalty>
0.127222

> <r_epik_Ionization_Penalty_Charging>
0.043815

> <r_epik_Ionization_Penalty_Neutral>
0.0834074

> <r_epik_State_Penalty>
0.115563

> <r_epik_Charging_Adjusted_Penalty>
0.159378

> <i_epik_Tot_Q>
1

> <i_epik_Tot_abs_Q>
1

> <r_epik_Metal_State_Penalty>
0.102594

> <b_epik_Metal_Only>
0

> <s_lp_Force_Field>
OPLS_2005

> <r_lp_Energy>
11.1584

> <b_lp_Chiralities_Consistent>
1

> <s_lp_Variant>
AV-unprocessed.smi:766-2

> <Gold.Version>
5.8.1

> <Gold.Id.Protein>
6NUR|6NUR_protein|mol2

> <Gold.PLP.Fitness>
57.3508

> <Gold.PLP.PLP>
-42.5644

> <Gold.PLP.part.hbond>
-2.0000

> <Gold.PLP.part.metal>
0.0000

> <Gold.PLP.part.buried>
-5.3175

> <Gold.PLP.part.nonpolar>
-36.8281

> <Gold.PLP.part.repulsive>
0.0321

> <Gold.PLP.ligand.clash>
0.0000

> <Gold.PLP.ligand.torsion>
1.5816

> <Gold.PLP.Chemscore.Hbond>
2.9840

> <Gold.PLP.Chemscore.CHOScore>
2.9351

> <Gold.PLP.Chemscore.Metal>
0.0000

> <Gold.Chemscore.Hbonds>
donor molecule, donor type, donor heavy atom, donor atom, acceptor molecule, acceptor atom, score
      L1  H    10    32       P1  8028  1.00
      L1  H    12    47       P1 10175  2.00
      L1  C    16    40       P1 10171  0.71
      L1  C    16    40       P1 10175  1.00
      L1  C    18    42       P1 10957  1.00

> <Gold.PLP.Chemscore.Internal.Correction>
0.1924

> <Gold.Rescore>
     Score         DG    S(hbond)    S(metal)    S(lipo)     H(rot)  DE(clash)    DE(int)     intcor
     16.11     -17.65       1.80        0.00     116.85       2.93       0.14       1.41       ----

> <Gold.Chemscore.Fitness>
16.1099

> <Gold.Chemscore.DG>
-17.6518

> <Gold.Chemscore.ZeroCoef>
-5.4800

> <Gold.Chemscore.Hbond>
1.7996

> <Gold.Chemscore.Metal>
0.0000

> <Gold.Chemscore.Lipo>
116.8456

> <Gold.Chemscore.Internal_Hbond>
0.0000

> <Gold.Chemscore.DEClash>
0.1353

> <Gold.Chemscore.DEInternal>
1.4066

> <Gold.Chemscore.Rot>
2.9335

> <Gold.Chemscore.Internal.Correction>
   9.000000E+99

> <Gold.Chemscore.Hbonds>
donor molecule, donor type, donor heavy atom, donor atom, acceptor molecule, acceptor atom, score
      L1  H    10    32       P1  8028  0.88
      L1  H    12    47       P1 10175  0.88

> <Gold.Chemscore.Hbond.Weighted>
-6.0105

> <Gold.Chemscore.Metal.Weighted>
-0.0000

> <Gold.Chemscore.Lipo.Weighted>
-13.6709

> <Gold.Chemscore.Internal_Hbond.Weighted>
0.0000

> <Gold.Chemscore.DEClash.Weighted>
0.1353

> <Gold.Chemscore.DEInternal.Weighted>
1.4066

> <Gold.Chemscore.Rot.Weighted>
7.5097

> <Gold.Chemscore.Internal.Correction.Weighted>
   9.000000E+99

> <Gold.Protein.RotatedTorsions>
[ 6907 6896 6895 6894 ] final -101.37 input  -60.11 | X-H torsion
[ 7974 7965 7964 7962 ] final   80.76 input  175.53 | X-H torsion
[ 8008 7997 7996 7995 ] final  -61.54 input   59.86 | X-H torsion
[ 10167 10162 10161 10158 ] final -177.58 input  -65.29 | X-H torsion
[ 10718 10713 10712 10709 ] final  -30.47 input   66.30 | X-H torsion
[ 10763 10752 10751 10750 ] final   87.08 input  -60.55 | X-H torsion
[ 11005 11000 10999 10996 ] final    1.90 input  -57.11 | X-H torsion

> <Gold.Protein.ActiveResidues>
 VAL166  LYS551  ARG553  GLY616  TRP617  ASP618  TYR619  PRO620  LYS621  CYS622 
 ASP623  PHE694  ASN695  SER759  ASP760  ASP761  ALA762  ILE779  LEU786  VAL792 
 PHE793  MET794  SER795  GLU796  ALA797  LYS798  CYS799  TRP800  GLU811  SER814 

> <Gold.Protein.RotatedAtoms>
  150.7152  134.0744  159.3875 H   0  0  0  0  0  0  0  0  0  0  0  0  # atno 6907 bound_to 6896
  151.8727  135.0481  160.0490 H   0  0  0  0  0  0  0  0  0  0  0  0  # atno 6908 bound_to 6896
  152.2630  133.5279  159.5430 H   0  0  0  0  0  0  0  0  0  0  0  0  # atno 6909 bound_to 6896
  145.6470  139.2438  143.1998 H   0  0  0  0  0  0  0  0  0  0  0  0  # atno 7974 bound_to 7965
  154.4453  140.1015  156.6447 H   0  0  0  0  0  0  0  0  0  0  0  0  # atno 8008 bound_to 7997
  155.5463  140.3484  155.4440 H   0  0  0  0  0  0  0  0  0  0  0  0  # atno 8009 bound_to 7997
  156.0561  140.1315  156.9984 H   0  0  0  0  0  0  0  0  0  0  0  0  # atno 8010 bound_to 7997
  139.5473  144.2201  152.1012 H   0  0  0  0  0  0  0  0  0  0  0  0  # atno 10167 bound_to 10162
  156.3994  130.4387  149.7334 H   0  0  0  0  0  0  0  0  0  0  0  0  # atno 10718 bound_to 10713
  153.1633  135.4557  154.9802 H   0  0  0  0  0  0  0  0  0  0  0  0  # atno 10763 bound_to 10752
  154.7913  135.3221  154.7772 H   0  0  0  0  0  0  0  0  0  0  0  0  # atno 10764 bound_to 10752
  153.8259  135.6943  153.4875 H   0  0  0  0  0  0  0  0  0  0  0  0  # atno 10765 bound_to 10752
  140.6103  133.9754  155.8174 H   0  0  0  0  0  0  0  0  0  0  0  0  # atno 11005 bound_to 11000
  146.1235  140.7279  142.9446 LP  0  0  0  0  0  0  0  0  0  0  0  0  # atno 17320 bound_to 7965
  144.7136  140.4130  143.7061 LP  0  0  0  0  0  0  0  0  0  0  0  0  # atno 17321 bound_to 7965
  140.1690  144.4953  150.6590 LP  0  0  0  0  0  0  0  0  0  0  0  0  # atno 17342 bound_to 10162
  140.6725  143.2291  151.5589 LP  0  0  0  0  0  0  0  0  0  0  0  0  # atno 17343 bound_to 10162
  156.4356  130.7836  151.2857 LP  0  0  0  0  0  0  0  0  0  0  0  0  # atno 17370 bound_to 10713
  157.7503  131.0140  150.3448 LP  0  0  0  0  0  0  0  0  0  0  0  0  # atno 17371 bound_to 10713
  141.0812  134.0059  157.3382 LP  0  0  0  0  0  0  0  0  0  0  0  0  # atno 17394 bound_to 11000
  139.9195  135.0199  156.8010 LP  0  0  0  0  0  0  0  0  0  0  0  0  # atno 17395 bound_to 11000

$$$$
