AV-unprocessed.smi:3028|AV-procd|sdf|11521|dock1
  -GOLD-   2272016463D 1   1.00000     0.00000
 Structure written by MMmdl.
 47 48  0  0  0  0  0  0  0  0  1 V2000
  150.9455  142.5280  158.5911 C   0  0  0  0  0  0  0  0  0  0  0  0
  150.7648  141.8114  157.2843 C   0  0  0  0  0  0  0  0  0  0  0  0
  151.6659  140.9123  156.6469 C   0  0  0  0  0  0  0  0  0  0  0  0
  151.2054  140.4525  155.4954 N   0  0  0  0  0  0  0  0  0  0  0  0
  149.9962  141.0377  155.3539 N   0  0  0  0  0  0  0  0  0  0  0  0
  149.1885  140.7586  154.1726 C   0  0  2  0  0  0  0  0  0  0  0  0
  148.0166  141.7565  154.1052 C   0  0  0  0  0  0  0  0  0  0  0  0
  148.7210  139.2785  154.1261 C   0  0  2  0  0  0  0  0  0  0  0  0
  149.8367  138.2805  154.5082 C   0  0  0  0  0  0  0  0  0  0  0  0
  148.2585  138.9923  152.7700 N   0  0  0  0  0  0  0  0  0  0  0  0
  146.8064  139.1453  152.5972 C   0  0  0  0  0  0  0  0  0  0  0  0
  146.1724  137.9838  151.8151 C   0  0  0  0  0  0  0  0  0  0  0  0
  146.6144  137.6618  150.7128 O   0  0  0  0  0  0  0  0  0  0  0  0
  145.1352  137.3215  152.3551 N   0  0  0  0  0  0  0  0  0  0  0  0
  144.3967  136.1982  151.7817 C   0  0  0  0  0  0  0  0  0  0  0  0
  143.4755  135.5866  152.8481 C   0  0  0  0  0  0  0  0  0  0  0  0
  142.8026  134.3096  152.3186 C   0  0  0  0  0  0  0  0  0  0  0  0
  143.7916  133.3781  151.8931 O   0  0  0  0  0  0  0  0  0  0  0  0
  144.5893  133.8672  150.8201 C   0  0  0  0  0  0  0  0  0  0  0  0
  145.3633  135.1177  151.2677 C   0  0  0  0  0  0  0  0  0  0  0  0
  149.7069  141.8639  156.4215 C   0  0  0  0  0  0  0  0  0  0  0  0
  151.8086  142.1546  159.1427 H   0  0  0  0  0  0  0  0  0  0  0  0
  150.0760  142.4110  159.2385 H   0  0  0  0  0  0  0  0  0  0  0  0
  151.0964  143.5976  158.4443 H   0  0  0  0  0  0  0  0  0  0  0  0
  152.6373  140.5828  156.9853 H   0  0  0  0  0  0  0  0  0  0  0  0
  149.8208  140.9386  153.3003 H   0  0  0  0  0  0  0  0  0  0  0  0
  147.4561  141.6552  153.1758 H   0  0  0  0  0  0  0  0  0  0  0  0
  148.3771  142.7844  154.1536 H   0  0  0  0  0  0  0  0  0  0  0  0
  147.3185  141.6097  154.9298 H   0  0  0  0  0  0  0  0  0  0  0  0
  147.8909  139.1632  154.8251 H   0  0  0  0  0  0  0  0  0  0  0  0
  150.1986  138.4494  155.5223 H   0  0  0  0  0  0  0  0  0  0  0  0
  150.6909  138.3670  153.8359 H   0  0  0  0  0  0  0  0  0  0  0  0
  149.4925  137.2476  154.4767 H   0  0  0  0  0  0  0  0  0  0  0  0
  148.5794  138.0788  152.4821 H   0  0  0  0  0  0  0  0  0  0  0  0
  146.3230  139.2032  153.5716 H   0  0  0  0  0  0  0  0  0  0  0  0
  146.6045  140.0776  152.0692 H   0  0  0  0  0  0  0  0  0  0  0  0
  144.8258  137.6320  153.2649 H   0  0  0  0  0  0  0  0  0  0  0  0
  143.7681  136.5353  150.9567 H   0  0  0  0  0  0  0  0  0  0  0  0
  144.0513  135.3421  153.7419 H   0  0  0  0  0  0  0  0  0  0  0  0
  142.7177  136.3093  153.1528 H   0  0  0  0  0  0  0  0  0  0  0  0
  142.2015  133.8503  153.1036 H   0  0  0  0  0  0  0  0  0  0  0  0
  142.1259  134.5392  151.4939 H   0  0  0  0  0  0  0  0  0  0  0  0
  145.2851  133.0858  150.5141 H   0  0  0  0  0  0  0  0  0  0  0  0
  143.9601  134.0885  149.9565 H   0  0  0  0  0  0  0  0  0  0  0  0
  145.9626  135.4988  150.4406 H   0  0  0  0  0  0  0  0  0  0  0  0
  146.0638  134.8408  152.0569 H   0  0  0  0  0  0  0  0  0  0  0  0
  148.7804  142.4163  156.4778 H   0  0  0  0  0  0  0  0  0  0  0  0
  1  2  1  0  0  0  0
  1 22  1  0  0  0  0
  1 23  1  0  0  0  0
  1 24  1  0  0  0  0
  2 21  2  0  0  0  0
  2  3  1  0  0  0  0
  3  4  2  0  0  0  0
  3 25  1  0  0  0  0
  4  5  1  0  0  0  0
  5  6  1  0  0  0  0
  5 21  1  0  0  0  0
  6  7  1  0  0  0  0
  6  8  1  0  0  0  0
  6 26  1  0  0  0  0
  7 27  1  0  0  0  0
  7 28  1  0  0  0  0
  7 29  1  0  0  0  0
  8  9  1  0  0  0  0
  8 10  1  0  0  0  0
  8 30  1  0  0  0  0
  9 31  1  0  0  0  0
  9 32  1  0  0  0  0
  9 33  1  0  0  0  0
 10 11  1  0  0  0  0
 10 34  1  0  0  0  0
 11 12  1  0  0  0  0
 11 35  1  0  0  0  0
 11 36  1  0  0  0  0
 12 13  2  0  0  0  0
 12 14  1  0  0  0  0
 14 15  1  0  0  0  0
 14 37  1  0  0  0  0
 15 20  1  0  0  0  0
 15 16  1  0  0  0  0
 15 38  1  0  0  0  0
 16 17  1  0  0  0  0
 16 39  1  0  0  0  0
 16 40  1  0  0  0  0
 17 18  1  0  0  0  0
 17 41  1  0  0  0  0
 17 42  1  0  0  0  0
 18 19  1  0  0  0  0
 19 20  1  0  0  0  0
 19 43  1  0  0  0  0
 19 44  1  0  0  0  0
 20 45  1  0  0  0  0
 20 46  1  0  0  0  0
 21 47  1  0  0  0  0
M  END
> <s_m_source_file>
AV-unprocessed.smi

> <i_m_source_file_index>
3028

> <i_lp_mmshare_version>
43012

> <i_f3d_flags>
0

> <s_epik_input>
W0NIM11jMVtjSF1ubihbY0hdMSlbQ0BIXShbQ0gzXSlbQ0BIXShbQ0gzXSlbTkhdW0NIMl1DKD1PKVtOSF1bQ0hdMltDSDJdW0NIMl1PW0NIMl1bQ0gyXTI=

> <s_epik_cmdline>
J2VwaWtfcHl0aG9uJywgJy1waCcsICc3LjAnLCAnLXRuJywgJzgnLCAnLW1hJywgJzIwMCcsICctbWV0YWxfYmluZGluZycsICctaW1hZScsICc8aW5maWxlLm1hZT4nLCAnLW9tYWUnLCAnPG91dGZpbGUubWFlPic=

> <r_lp_tautomer_probability>
1

> <r_epik_Ionization_Penalty>
0.88617

> <r_epik_Ionization_Penalty_Charging>
0

> <r_epik_Ionization_Penalty_Neutral>
0.88617

> <r_epik_State_Penalty>
0.921066

> <r_epik_Charging_Adjusted_Penalty>
0.921066

> <i_epik_Tot_Q>
0

> <i_epik_Tot_abs_Q>
0

> <r_epik_Metal_State_Penalty>
0.917309

> <b_epik_Metal_Only>
0

> <s_lp_Force_Field>
OPLS_2005

> <r_lp_Energy>
19.247

> <b_lp_Chiralities_Consistent>
1

> <s_lp_Variant>
AV-unprocessed.smi:3028-5

> <Gold.Version>
5.8.1

> <Gold.Id.Protein>
6NUR|6NUR_protein|mol2

> <Gold.PLP.Fitness>
46.8348

> <Gold.PLP.PLP>
-39.6711

> <Gold.PLP.part.hbond>
-3.8630

> <Gold.PLP.part.metal>
0.0000

> <Gold.PLP.part.buried>
-1.2779

> <Gold.PLP.part.nonpolar>
-35.1053

> <Gold.PLP.part.repulsive>
2.4521

> <Gold.PLP.ligand.clash>
0.0000

> <Gold.PLP.ligand.torsion>
1.3437

> <Gold.PLP.Chemscore.Hbond>
2.5472

> <Gold.PLP.Chemscore.CHOScore>
0.6866

> <Gold.PLP.Chemscore.Metal>
0.0000

> <Gold.Chemscore.Hbonds>
donor molecule, donor type, donor heavy atom, donor atom, acceptor molecule, acceptor atom, score
      L1  H    10    34       P1  7948  1.00
      P1  H  7954  7966       L1    13  1.00
      P1  H  7989  7998       L1     4  0.41
      L1  C    21    47       P1  8028  0.72

> <Gold.PLP.Chemscore.Internal.Correction>
0.1498

> <Gold.Rescore>
     Score         DG    S(hbond)    S(metal)    S(lipo)     H(rot)  DE(clash)    DE(int)     intcor
     12.19     -17.50       1.99        0.00      88.01       1.92       1.61       3.71       ----

> <Gold.Chemscore.Fitness>
12.1867

> <Gold.Chemscore.DG>
-17.5037

> <Gold.Chemscore.ZeroCoef>
-5.4800

> <Gold.Chemscore.Hbond>
1.9909

> <Gold.Chemscore.Metal>
0.0000

> <Gold.Chemscore.Lipo>
88.0130

> <Gold.Chemscore.Internal_Hbond>
0.0000

> <Gold.Chemscore.DEClash>
1.6094

> <Gold.Chemscore.DEInternal>
3.7076

> <Gold.Chemscore.Rot>
1.9233

> <Gold.Chemscore.Internal.Correction>
   9.000000E+99

> <Gold.Chemscore.Hbonds>
donor molecule, donor type, donor heavy atom, donor atom, acceptor molecule, acceptor atom, score
      L1  H    10    34       P1  7948  0.99
      P1  H  7954  7966       L1    13  0.98
      P1  H  7989  7998       L1     4  0.02

> <Gold.Chemscore.Hbond.Weighted>
-6.6497

> <Gold.Chemscore.Metal.Weighted>
-0.0000

> <Gold.Chemscore.Lipo.Weighted>
-10.2975

> <Gold.Chemscore.Internal_Hbond.Weighted>
0.0000

> <Gold.Chemscore.DEClash.Weighted>
1.6094

> <Gold.Chemscore.DEInternal.Weighted>
3.7076

> <Gold.Chemscore.Rot.Weighted>
4.9235

> <Gold.Chemscore.Internal.Correction.Weighted>
   9.000000E+99

> <Gold.Protein.RotatedTorsions>
[ 6907 6896 6895 6894 ] final  163.59 input  -60.11 | X-H torsion
[ 7974 7965 7964 7962 ] final  133.47 input  175.53 | X-H torsion
[ 8008 7997 7996 7995 ] final -159.01 input   59.86 | X-H torsion
[ 10167 10162 10161 10158 ] final  104.11 input  -65.29 | X-H torsion
[ 10718 10713 10712 10709 ] final  -84.62 input   66.30 | X-H torsion
[ 10763 10752 10751 10750 ] final -141.44 input  -60.55 | X-H torsion
[ 11005 11000 10999 10996 ] final -178.58 input  -57.11 | X-H torsion

> <Gold.Protein.ActiveResidues>
 VAL166  LYS551  ARG553  GLY616  TRP617  ASP618  TYR619  PRO620  LYS621  CYS622 
 ASP623  PHE694  ASN695  SER759  ASP760  ASP761  ALA762  ILE779  LEU786  VAL792 
 PHE793  MET794  SER795  GLU796  ALA797  LYS798  CYS799  TRP800  GLU811  SER814 

> <Gold.Protein.RotatedAtoms>
  151.9229  133.3590  159.3903 H   0  0  0  0  0  0  0  0  0  0  0  0  # atno 6907 bound_to 6896
  150.7033  134.4617  159.5393 H   0  0  0  0  0  0  0  0  0  0  0  0  # atno 6908 bound_to 6896
  152.2243  134.8383  160.0533 H   0  0  0  0  0  0  0  0  0  0  0  0  # atno 6909 bound_to 6896
  144.9861  139.4454  143.5362 H   0  0  0  0  0  0  0  0  0  0  0  0  # atno 7974 bound_to 7965
  155.7562  140.0833  157.2177 H   0  0  0  0  0  0  0  0  0  0  0  0  # atno 8008 bound_to 7997
  154.4007  140.1551  156.2836 H   0  0  0  0  0  0  0  0  0  0  0  0  # atno 8009 bound_to 7997
  155.8883  140.3416  155.5940 H   0  0  0  0  0  0  0  0  0  0  0  0  # atno 8010 bound_to 7997
  139.7205  144.7059  151.0880 H   0  0  0  0  0  0  0  0  0  0  0  0  # atno 10167 bound_to 10162
  156.0004  130.4704  150.4438 H   0  0  0  0  0  0  0  0  0  0  0  0  # atno 10718 bound_to 10713
  154.8545  135.3524  154.5869 H   0  0  0  0  0  0  0  0  0  0  0  0  # atno 10763 bound_to 10752
  153.6479  135.6995  153.5224 H   0  0  0  0  0  0  0  0  0  0  0  0  # atno 10764 bound_to 10752
  153.2918  135.4232  155.1132 H   0  0  0  0  0  0  0  0  0  0  0  0  # atno 10765 bound_to 10752
  140.4281  134.6544  157.4698 H   0  0  0  0  0  0  0  0  0  0  0  0  # atno 11005 bound_to 11000
  146.3420  139.9165  142.8773 LP  0  0  0  0  0  0  0  0  0  0  0  0  # atno 17320 bound_to 7965
  145.2351  140.9988  143.3968 LP  0  0  0  0  0  0  0  0  0  0  0  0  # atno 17321 bound_to 7965
  140.7753  143.5172  150.9580 LP  0  0  0  0  0  0  0  0  0  0  0  0  # atno 17342 bound_to 10162
  139.8859  143.7013  152.3151 LP  0  0  0  0  0  0  0  0  0  0  0  0  # atno 17343 bound_to 10162
  157.2477  131.0539  151.2398 LP  0  0  0  0  0  0  0  0  0  0  0  0  # atno 17370 bound_to 10713
  157.3559  130.7106  149.6470 LP  0  0  0  0  0  0  0  0  0  0  0  0  # atno 17371 bound_to 10713
  140.0153  134.6629  155.9319 LP  0  0  0  0  0  0  0  0  0  0  0  0  # atno 17394 bound_to 11000
  141.1756  133.6540  156.4818 LP  0  0  0  0  0  0  0  0  0  0  0  0  # atno 17395 bound_to 11000

$$$$
