AV-unprocessed.smi:102|AV-procd|sdf|954|dock9
  -GOLD-   2262017483D 1   1.00000     0.00000
 Structure written by MMmdl.
 44 45  0  0  0  0  0  0  0  0  1 V2000
  144.7189  143.7250  161.6038 C   0  0  0  0  0  0  0  0  0  0  0  0
  145.6346  143.3701  160.4400 C   0  0  0  0  0  0  0  0  0  0  0  0
  146.8519  143.2624  160.5890 O   0  0  0  0  0  0  0  0  0  0  0  0
  144.9617  143.2037  159.2907 O   0  0  0  0  0  0  0  0  0  0  0  0
  145.6561  142.7953  158.1237 C   0  0  0  0  0  0  0  0  0  0  0  0
  144.6463  142.3946  157.0375 C   0  0  1  0  0  0  0  0  0  0  0  0
  145.3057  142.3095  155.7758 O   0  0  0  0  0  0  0  0  0  0  0  0
  145.6291  140.9887  155.4494 C   0  0  1  0  0  0  0  0  0  0  0  0
  147.1309  140.8473  155.2843 N   0  0  0  0  0  0  0  0  0  0  0  0
  148.0396  141.3919  156.1844 C   0  0  0  0  0  0  0  0  0  0  0  0
  149.3802  141.2616  156.0470 C   0  0  0  0  0  0  0  0  0  0  0  0
  150.1971  141.8156  156.9592 F   0  0  0  0  0  0  0  0  0  0  0  0
  149.9468  140.5323  154.9161 C   0  0  0  0  0  0  0  0  0  0  0  0
  151.1458  140.3567  154.7095 O   0  0  0  0  0  0  0  0  0  0  0  0
  148.9980  140.0172  154.0282 N   0  0  0  0  0  0  0  0  0  0  0  0
  147.6142  140.1458  154.1575 C   0  0  0  0  0  0  0  0  0  0  0  0
  146.8663  139.6510  153.3152 O   0  0  0  0  0  0  0  0  0  0  0  0
  145.0503  140.0764  156.5528 C   0  0  1  0  0  0  0  0  0  0  0  0
  146.0564  139.6173  157.4529 O   0  0  0  0  0  0  0  0  0  0  0  0
  145.7360  138.8176  158.4819 C   0  0  0  0  0  0  0  0  0  0  0  0
  146.9639  138.3397  159.2447 C   0  0  0  0  0  0  0  0  0  0  0  0
  144.5990  138.4839  158.8148 O   0  0  0  0  0  0  0  0  0  0  0  0
  144.0792  140.9926  157.2782 C   0  0  2  0  0  0  0  0  0  0  0  0
  142.7818  140.8431  156.7139 O   0  0  0  0  0  0  0  0  0  0  0  0
  142.1043  139.6905  156.8609 C   0  0  0  0  0  0  0  0  0  0  0  0
  140.8150  139.6680  156.0507 C   0  0  0  0  0  0  0  0  0  0  0  0
  142.4403  138.7361  157.5623 O   0  0  0  0  0  0  0  0  0  0  0  0
  149.3436  139.5097  153.2266 H   0  0  0  0  0  0  0  0  0  0  0  0
  144.0600  144.5500  161.3318 H   0  0  0  0  0  0  0  0  0  0  0  0
  145.3044  144.0234  162.4739 H   0  0  0  0  0  0  0  0  0  0  0  0
  144.1058  142.8662  161.8772 H   0  0  0  0  0  0  0  0  0  0  0  0
  146.3132  143.5855  157.7592 H   0  0  0  0  0  0  0  0  0  0  0  0
  146.2878  141.9436  158.3788 H   0  0  0  0  0  0  0  0  0  0  0  0
  143.8513  143.1405  156.9971 H   0  0  0  0  0  0  0  0  0  0  0  0
  145.2089  140.7800  154.4636 H   0  0  0  0  0  0  0  0  0  0  0  0
  147.6906  141.9525  157.0368 H   0  0  0  0  0  0  0  0  0  0  0  0
  144.5476  139.2302  156.0814 H   0  0  0  0  0  0  0  0  0  0  0  0
  147.6957  137.9144  158.5575 H   0  0  0  0  0  0  0  0  0  0  0  0
  146.6902  137.5767  159.9736 H   0  0  0  0  0  0  0  0  0  0  0  0
  147.4278  139.1727  159.7729 H   0  0  0  0  0  0  0  0  0  0  0  0
  144.0388  140.7503  158.3416 H   0  0  0  0  0  0  0  0  0  0  0  0
  141.0154  139.9243  155.0102 H   0  0  0  0  0  0  0  0  0  0  0  0
  140.1030  140.3876  156.4548 H   0  0  0  0  0  0  0  0  0  0  0  0
  140.3603  138.6775  156.0809 H   0  0  0  0  0  0  0  0  0  0  0  0
  1  2  1  0  0  0  0
  1 29  1  0  0  0  0
  1 30  1  0  0  0  0
  1 31  1  0  0  0  0
  2  3  2  0  0  0  0
  2  4  1  0  0  0  0
  4  5  1  0  0  0  0
  5  6  1  0  0  0  0
  5 32  1  0  0  0  0
  5 33  1  0  0  0  0
  6 23  1  0  0  0  0
  6  7  1  0  0  0  0
  6 34  1  0  0  0  0
  7  8  1  0  0  0  0
  8  9  1  0  0  0  0
  8 18  1  0  0  0  0
  8 35  1  0  0  0  0
  9 16  1  0  0  0  0
  9 10  1  0  0  0  0
 10 11  2  0  0  0  0
 10 36  1  0  0  0  0
 11 12  1  0  0  0  0
 11 13  1  0  0  0  0
 13 14  2  0  0  0  0
 13 15  1  0  0  0  0
 15 28  1  0  0  0  0
 15 16  1  0  0  0  0
 16 17  2  0  0  0  0
 18 19  1  0  0  0  0
 18 23  1  0  0  0  0
 18 37  1  0  0  0  0
 19 20  1  0  0  0  0
 20 21  1  0  0  0  0
 20 22  2  0  0  0  0
 21 38  1  0  0  0  0
 21 39  1  0  0  0  0
 21 40  1  0  0  0  0
 23 24  1  0  0  0  0
 23 41  1  0  0  0  0
 24 25  1  0  0  0  0
 25 26  1  0  0  0  0
 25 27  2  0  0  0  0
 26 42  1  0  0  0  0
 26 43  1  0  0  0  0
 26 44  1  0  0  0  0
M  END
> <s_m_source_file>
AV-unprocessed.smi

> <i_m_source_file_index>
102

> <i_lp_mmshare_version>
43012

> <i_f3d_flags>
0

> <s_epik_input>
W0NIM11DKD1PKU9bQ0gyXVtDQEBIXTFPW0NASF0oW0NAQEhdKE9DKD1PKVtDSDNdKVtDQEhdMU9DKD1PKVtDSDNdKW4yW2NIXWMoRiljKD1PKVtuSF1jMj1P

> <s_epik_cmdline>
J2VwaWtfcHl0aG9uJywgJy1waCcsICc3LjAnLCAnLXRuJywgJzgnLCAnLW1hJywgJzIwMCcsICctbWV0YWxfYmluZGluZycsICctaW1hZScsICc8aW5maWxlLm1hZT4nLCAnLW9tYWUnLCAnPG91dGZpbGUubWFlPic=

> <r_lp_tautomer_probability>
0.999537

> <r_epik_Ionization_Penalty>
0.058267

> <r_epik_Ionization_Penalty_Charging>
0.058267

> <r_epik_Ionization_Penalty_Neutral>
6.57791e-16

> <r_epik_State_Penalty>
0.0503774

> <r_epik_Charging_Adjusted_Penalty>
0.108644

> <i_epik_Tot_Q>
0

> <i_epik_Tot_abs_Q>
0

> <r_epik_Metal_State_Penalty>
2.6644

> <b_epik_Metal_Only>
0

> <s_epik_Chemistry_Notes>
This compound has an ester and may undergo hydrolysis at high or low pH. This compound contains an acetal/aminal-like group ( X-CH(R)-Y where X, Y are N, S, or O) that may be acid/base labile, releasing an aldehyde.

> <s_lp_Force_Field>
OPLS_2005

> <r_lp_Energy>
14.5716

> <b_lp_Chiralities_Consistent>
1

> <s_lp_Variant>
AV-unprocessed.smi:102-10

> <Gold.Version>
5.8.1

> <Gold.Id.Protein>
6NUR|6NUR_protein|mol2

> <Gold.PLP.Fitness>
37.5802

> <Gold.PLP.PLP>
-27.2565

> <Gold.PLP.part.hbond>
-4.0000

> <Gold.PLP.part.metal>
0.0000

> <Gold.PLP.part.buried>
-4.7939

> <Gold.PLP.part.nonpolar>
-19.4133

> <Gold.PLP.part.repulsive>
0.8621

> <Gold.PLP.ligand.clash>
0.0000

> <Gold.PLP.ligand.torsion>
0.6341

> <Gold.PLP.Chemscore.Hbond>
3.8322

> <Gold.PLP.Chemscore.CHOScore>
0.0000

> <Gold.PLP.Chemscore.Metal>
0.0000

> <Gold.Chemscore.Hbonds>
donor molecule, donor type, donor heavy atom, donor atom, acceptor molecule, acceptor atom, score
      L1  H    15    28       P1  7957  0.47
      P1  H  6933  6944       L1     3  0.93
      P1  H  6934  6946       L1     3  0.06
      P1  H  7989  7998       L1    14  0.68

> <Gold.PLP.Chemscore.Internal.Correction>
0.0956

> <Gold.Rescore>
     Score         DG    S(hbond)    S(metal)    S(lipo)     H(rot)  DE(clash)    DE(int)     intcor
      2.65      -6.29       2.61        0.00      21.08       4.05       0.17       3.47       ----

> <Gold.Chemscore.Fitness>
2.6532

> <Gold.Chemscore.DG>
-6.2940

> <Gold.Chemscore.ZeroCoef>
-5.4800

> <Gold.Chemscore.Hbond>
2.6109

> <Gold.Chemscore.Metal>
0.0000

> <Gold.Chemscore.Lipo>
21.0844

> <Gold.Chemscore.Internal_Hbond>
0.0000

> <Gold.Chemscore.DEClash>
0.1686

> <Gold.Chemscore.DEInternal>
3.4721

> <Gold.Chemscore.Rot>
4.0520

> <Gold.Chemscore.Internal.Correction>
   9.000000E+99

> <Gold.Chemscore.Hbonds>
donor molecule, donor type, donor heavy atom, donor atom, acceptor molecule, acceptor atom, score
      L1  H    15    28       P1  7957  0.47
      P1  H  6933  6944       L1     3  0.88
      P1  H  6934  6946       L1     3  0.02
      P1  H  7989  7998       L1    14  0.61

> <Gold.Chemscore.Hbond.Weighted>
-8.7203

> <Gold.Chemscore.Metal.Weighted>
-0.0000

> <Gold.Chemscore.Lipo.Weighted>
-2.4669

> <Gold.Chemscore.Internal_Hbond.Weighted>
0.0000

> <Gold.Chemscore.DEClash.Weighted>
0.1686

> <Gold.Chemscore.DEInternal.Weighted>
3.4721

> <Gold.Chemscore.Rot.Weighted>
10.3732

> <Gold.Chemscore.Internal.Correction.Weighted>
   9.000000E+99

> <Gold.Protein.RotatedTorsions>
[ 6907 6896 6895 6894 ] final -125.76 input  -60.11 | X-H torsion
[ 7974 7965 7964 7962 ] final   51.60 input  175.53 | X-H torsion
[ 8008 7997 7996 7995 ] final  -12.56 input   59.86 | X-H torsion
[ 10167 10162 10161 10158 ] final -173.29 input  -65.29 | X-H torsion
[ 10718 10713 10712 10709 ] final   56.10 input   66.30 | X-H torsion
[ 10763 10752 10751 10750 ] final   54.87 input  -60.55 | X-H torsion
[ 11005 11000 10999 10996 ] final   87.77 input  -57.11 | X-H torsion

> <Gold.Protein.ActiveResidues>
 VAL166  LYS551  ARG553  GLY616  TRP617  ASP618  TYR619  PRO620  LYS621  CYS622 
 ASP623  PHE694  ASN695  SER759  ASP760  ASP761  ALA762  ILE779  LEU786  VAL792 
 PHE793  MET794  SER795  GLU796  ALA797  LYS798  CYS799  TRP800  GLU811  SER814 

> <Gold.Protein.RotatedAtoms>
  150.8900  133.7255  159.2907 H   0  0  0  0  0  0  0  0  0  0  0  0  # atno 6907 bound_to 6896
  151.4808  135.1050  159.9787 H   0  0  0  0  0  0  0  0  0  0  0  0  # atno 6908 bound_to 6896
  152.4814  133.8217  159.7112 H   0  0  0  0  0  0  0  0  0  0  0  0  # atno 6909 bound_to 6896
  145.9898  139.4327  143.0081 H   0  0  0  0  0  0  0  0  0  0  0  0  # atno 7974 bound_to 7965
  154.5367  140.2273  155.8711 H   0  0  0  0  0  0  0  0  0  0  0  0  # atno 8008 bound_to 7997
  156.1818  140.3098  155.9126 H   0  0  0  0  0  0  0  0  0  0  0  0  # atno 8009 bound_to 7997
  155.3341  140.0447  157.3034 H   0  0  0  0  0  0  0  0  0  0  0  0  # atno 8010 bound_to 7997
  139.5696  144.1672  152.1365 H   0  0  0  0  0  0  0  0  0  0  0  0  # atno 10167 bound_to 10162
  157.5402  130.8691  149.8810 H   0  0  0  0  0  0  0  0  0  0  0  0  # atno 10718 bound_to 10713
  152.9810  135.5730  154.4975 H   0  0  0  0  0  0  0  0  0  0  0  0  # atno 10763 bound_to 10752
  154.4500  135.2778  155.1790 H   0  0  0  0  0  0  0  0  0  0  0  0  # atno 10764 bound_to 10752
  154.3422  135.6227  153.5655 H   0  0  0  0  0  0  0  0  0  0  0  0  # atno 10765 bound_to 10752
  139.8912  134.8444  156.2906 H   0  0  0  0  0  0  0  0  0  0  0  0  # atno 11005 bound_to 11000
  145.7647  140.9921  143.1181 LP  0  0  0  0  0  0  0  0  0  0  0  0  # atno 17320 bound_to 7965
  144.6885  139.9374  143.7474 LP  0  0  0  0  0  0  0  0  0  0  0  0  # atno 17321 bound_to 7965
  140.1202  144.5380  150.6868 LP  0  0  0  0  0  0  0  0  0  0  0  0  # atno 17342 bound_to 10162
  140.6981  143.2416  151.4944 LP  0  0  0  0  0  0  0  0  0  0  0  0  # atno 17343 bound_to 10162
  156.0490  130.3721  150.1246 LP  0  0  0  0  0  0  0  0  0  0  0  0  # atno 17370 bound_to 10713
  156.9427  130.9749  151.3513 LP  0  0  0  0  0  0  0  0  0  0  0  0  # atno 17371 bound_to 10713
  140.9979  133.7169  156.0914 LP  0  0  0  0  0  0  0  0  0  0  0  0  # atno 17394 bound_to 11000
  140.7538  134.4015  157.5537 LP  0  0  0  0  0  0  0  0  0  0  0  0  # atno 17395 bound_to 11000

$$$$
