AV-unprocessed.smi:704|AV-procd|sdf|3442|dock4
  -GOLD-   22720 0433D 1   1.00000     0.00000
 Structure written by MMmdl.
 38 39  0  0  0  0  0  0  0  0  1 V2000
  151.9272  145.7141  160.0942 C   0  0  0  0  0  0  0  0  0  0  0  0
  151.6174  144.6214  159.2361 O   0  0  0  0  0  0  0  0  0  0  0  0
  152.1683  143.3854  159.5163 C   0  0  0  0  0  0  0  0  0  0  0  0
  153.0236  143.2829  160.5646 N   0  0  0  0  0  0  0  0  0  0  0  0
  153.5653  142.0782  160.8374 C   0  0  0  0  0  0  0  0  0  0  0  0
  153.2919  140.9223  160.0836 C   0  0  0  0  0  0  0  0  0  0  0  0
  152.4046  141.0254  158.9962 C   0  0  0  0  0  0  0  0  0  0  0  0
  151.8162  142.2803  158.7065 C   0  0  0  0  0  0  0  0  0  0  0  0
  150.9224  142.4984  157.6223 N   0  0  0  0  0  0  0  0  0  0  0  0
  150.6765  141.7013  156.5692 C   0  0  0  0  0  0  0  0  0  0  0  0
  151.2119  140.6130  156.3592 O   0  0  0  0  0  0  0  0  0  0  0  0
  149.7401  142.2315  155.7698 N   0  0  0  0  0  0  0  0  0  0  0  0
  149.2210  141.6083  154.5544 C   0  0  2  0  0  0  0  0  0  0  0  0
  147.9330  142.3004  154.0834 C   0  0  0  0  0  0  0  0  0  0  0  0
  147.0804  141.1865  153.4838 C   0  0  0  0  0  0  0  0  0  0  0  0
  147.3779  139.9783  154.3680 C   0  0  0  0  0  0  0  0  0  0  0  0
  148.8579  140.1134  154.7763 C   0  0  1  0  0  0  0  0  0  0  0  0
  149.7718  139.1721  153.9740 C   0  0  0  0  0  0  0  0  0  0  0  0
  149.1843  138.3635  153.0883 N   0  0  0  0  0  0  0  0  0  0  0  0
  150.9892  139.1756  154.1482 O   0  0  0  0  0  0  0  0  0  0  0  0
  151.4141  146.6078  159.7391 H   0  0  0  0  0  0  0  0  0  0  0  0
  152.9970  145.9274  160.0994 H   0  0  0  0  0  0  0  0  0  0  0  0
  151.5941  145.5257  161.1158 H   0  0  0  0  0  0  0  0  0  0  0  0
  154.2419  142.0356  161.6781 H   0  0  0  0  0  0  0  0  0  0  0  0
  153.7562  139.9789  160.3305 H   0  0  0  0  0  0  0  0  0  0  0  0
  152.2059  140.1479  158.4010 H   0  0  0  0  0  0  0  0  0  0  0  0
  150.3431  143.3217  157.7013 H   0  0  0  0  0  0  0  0  0  0  0  0
  149.3507  143.1280  156.0224 H   0  0  0  0  0  0  0  0  0  0  0  0
  149.9640  141.7151  153.7605 H   0  0  0  0  0  0  0  0  0  0  0  0
  147.4009  142.7341  154.9318 H   0  0  0  0  0  0  0  0  0  0  0  0
  148.1273  143.1041  153.3725 H   0  0  0  0  0  0  0  0  0  0  0  0
  146.0196  141.4367  153.4561 H   0  0  0  0  0  0  0  0  0  0  0  0
  147.4036  140.9849  152.4616 H   0  0  0  0  0  0  0  0  0  0  0  0
  146.7524  140.0186  155.2607 H   0  0  0  0  0  0  0  0  0  0  0  0
  147.1481  139.0398  153.8611 H   0  0  0  0  0  0  0  0  0  0  0  0
  148.9395  139.8497  155.8329 H   0  0  0  0  0  0  0  0  0  0  0  0
  149.7443  137.7378  152.5275 H   0  0  0  0  0  0  0  0  0  0  0  0
  148.1818  138.3915  152.9726 H   0  0  0  0  0  0  0  0  0  0  0  0
  1  2  1  0  0  0  0
  1 21  1  0  0  0  0
  1 22  1  0  0  0  0
  1 23  1  0  0  0  0
  2  3  1  0  0  0  0
  3  8  1  0  0  0  0
  3  4  2  0  0  0  0
  4  5  1  0  0  0  0
  5  6  2  0  0  0  0
  5 24  1  0  0  0  0
  6  7  1  0  0  0  0
  6 25  1  0  0  0  0
  7  8  2  0  0  0  0
  7 26  1  0  0  0  0
  8  9  1  0  0  0  0
  9 10  1  0  0  0  0
  9 27  1  0  0  0  0
 10 11  2  0  0  0  0
 10 12  1  0  0  0  0
 12 13  1  0  0  0  0
 12 28  1  0  0  0  0
 13 17  1  0  0  0  0
 13 14  1  0  0  0  0
 13 29  1  0  0  0  0
 14 15  1  0  0  0  0
 14 30  1  0  0  0  0
 14 31  1  0  0  0  0
 15 16  1  0  0  0  0
 15 32  1  0  0  0  0
 15 33  1  0  0  0  0
 16 17  1  0  0  0  0
 16 34  1  0  0  0  0
 16 35  1  0  0  0  0
 17 18  1  0  0  0  0
 17 36  1  0  0  0  0
 18 19  1  0  0  0  0
 18 20  2  0  0  0  0
 19 37  1  0  0  0  0
 19 38  1  0  0  0  0
M  END
> <s_m_source_file>
AV-unprocessed.smi

> <i_m_source_file_index>
704

> <i_lp_mmshare_version>
43012

> <i_f3d_flags>
0

> <s_epik_input>
W0NIM11PYzFuW2NIXVtjSF1bY0hdYzFbTkhdQyg9TylbTkhdW0NAQEhdMltDSDJdW0NIMl1bQ0gyXVtDQEhdMkMoPU8pW05IMl0=

> <s_epik_cmdline>
J2VwaWtfcHl0aG9uJywgJy1waCcsICc3LjAnLCAnLXRuJywgJzgnLCAnLW1hJywgJzIwMCcsICctbWV0YWxfYmluZGluZycsICctaW1hZScsICc8aW5maWxlLm1hZT4nLCAnLW9tYWUnLCAnPG91dGZpbGUubWFlPic=

> <r_lp_tautomer_probability>
1

> <r_epik_Ionization_Penalty>
9.09123e-05

> <r_epik_Ionization_Penalty_Charging>
0

> <r_epik_Ionization_Penalty_Neutral>
9.09123e-05

> <r_epik_State_Penalty>
-0

> <r_epik_Charging_Adjusted_Penalty>
0

> <i_epik_Tot_Q>
0

> <i_epik_Tot_abs_Q>
0

> <r_epik_Metal_State_Penalty>
-0

> <b_epik_Metal_Only>
0

> <s_lp_Force_Field>
OPLS_2005

> <r_lp_Energy>
16.6187

> <b_lp_Chiralities_Consistent>
1

> <s_lp_Variant>
AV-unprocessed.smi:704-1

> <Gold.Version>
5.8.1

> <Gold.Id.Protein>
6NUR|6NUR_protein|mol2

> <Gold.PLP.Fitness>
46.0930

> <Gold.PLP.PLP>
-39.4051

> <Gold.PLP.part.hbond>
-3.6359

> <Gold.PLP.part.metal>
0.0000

> <Gold.PLP.part.buried>
-3.7848

> <Gold.PLP.part.nonpolar>
-32.4671

> <Gold.PLP.part.repulsive>
0.5044

> <Gold.PLP.ligand.clash>
0.3584

> <Gold.PLP.ligand.torsion>
0.2237

> <Gold.PLP.Chemscore.Hbond>
2.4953

> <Gold.PLP.Chemscore.CHOScore>
0.0000

> <Gold.PLP.Chemscore.Metal>
0.0000

> <Gold.Chemscore.Hbonds>
donor molecule, donor type, donor heavy atom, donor atom, acceptor molecule, acceptor atom, score
      L1  H    12    28       P1  8028  1.00
      L1  H    19    37       P1  7948  0.40
      P1  H  7989  7998       L1    20  1.00

> <Gold.PLP.Chemscore.Internal.Correction>
0.0080

> <Gold.Rescore>
     Score         DG    S(hbond)    S(metal)    S(lipo)     H(rot)  DE(clash)    DE(int)     intcor
     14.29     -18.69       2.58        0.00      80.12       1.86       0.08       4.33       ----

> <Gold.Chemscore.Fitness>
14.2857

> <Gold.Chemscore.DG>
-18.6937

> <Gold.Chemscore.ZeroCoef>
-5.4800

> <Gold.Chemscore.Hbond>
2.5791

> <Gold.Chemscore.Metal>
0.0000

> <Gold.Chemscore.Lipo>
80.1153

> <Gold.Chemscore.Internal_Hbond>
0.0000

> <Gold.Chemscore.DEClash>
0.0791

> <Gold.Chemscore.DEInternal>
4.3288

> <Gold.Chemscore.Rot>
1.8648

> <Gold.Chemscore.Internal.Correction>
   9.000000E+99

> <Gold.Chemscore.Hbonds>
donor molecule, donor type, donor heavy atom, donor atom, acceptor molecule, acceptor atom, score
      L1  H    12    28       P1  8028  0.96
      L1  H    19    37       P1  7948  0.12
      P1  H  7989  7998       L1    20  0.60

> <Gold.Chemscore.Hbond.Weighted>
-8.6141

> <Gold.Chemscore.Metal.Weighted>
-0.0000

> <Gold.Chemscore.Lipo.Weighted>
-9.3735

> <Gold.Chemscore.Internal_Hbond.Weighted>
0.0000

> <Gold.Chemscore.DEClash.Weighted>
0.0791

> <Gold.Chemscore.DEInternal.Weighted>
4.3288

> <Gold.Chemscore.Rot.Weighted>
4.7739

> <Gold.Chemscore.Internal.Correction.Weighted>
   9.000000E+99

> <Gold.Protein.RotatedTorsions>
[ 6907 6896 6895 6894 ] final -121.08 input  -60.11 | X-H torsion
[ 7974 7965 7964 7962 ] final   55.36 input  175.53 | X-H torsion
[ 8008 7997 7996 7995 ] final  -95.25 input   59.86 | X-H torsion
[ 10167 10162 10161 10158 ] final  -99.47 input  -65.29 | X-H torsion
[ 10718 10713 10712 10709 ] final   14.97 input   66.30 | X-H torsion
[ 10763 10752 10751 10750 ] final    4.33 input  -60.55 | X-H torsion
[ 11005 11000 10999 10996 ] final    3.34 input  -57.11 | X-H torsion

> <Gold.Protein.ActiveResidues>
 VAL166  LYS551  ARG553  GLY616  TRP617  ASP618  TYR619  PRO620  LYS621  CYS622 
 ASP623  PHE694  ASN695  SER759  ASP760  ASP761  ALA762  ILE779  LEU786  VAL792 
 PHE793  MET794  SER795  GLU796  ALA797  LYS798  CYS799  TRP800  GLU811  SER814 

> <Gold.Protein.RotatedAtoms>
  150.8451  133.7875  159.3046 H   0  0  0  0  0  0  0  0  0  0  0  0  # atno 6907 bound_to 6896
  151.5564  135.1065  159.9971 H   0  0  0  0  0  0  0  0  0  0  0  0  # atno 6908 bound_to 6896
  152.4506  133.7580  159.6787 H   0  0  0  0  0  0  0  0  0  0  0  0  # atno 6909 bound_to 6896
  145.9512  139.3974  143.0305 H   0  0  0  0  0  0  0  0  0  0  0  0  # atno 7974 bound_to 7965
  154.7589  140.0482  157.0956 H   0  0  0  0  0  0  0  0  0  0  0  0  # atno 8008 bound_to 7997
  154.9963  140.3119  155.4866 H   0  0  0  0  0  0  0  0  0  0  0  0  # atno 8009 bound_to 7997
  156.2900  140.2209  156.5070 H   0  0  0  0  0  0  0  0  0  0  0  0  # atno 8010 bound_to 7997
  140.2621  143.3400  152.0615 H   0  0  0  0  0  0  0  0  0  0  0  0  # atno 10167 bound_to 10162
  157.0467  130.6253  149.5760 H   0  0  0  0  0  0  0  0  0  0  0  0  # atno 10718 bound_to 10713
  153.2726  135.6933  153.7465 H   0  0  0  0  0  0  0  0  0  0  0  0  # atno 10763 bound_to 10752
  153.6483  135.3381  155.3093 H   0  0  0  0  0  0  0  0  0  0  0  0  # atno 10764 bound_to 10752
  154.8469  135.4448  154.1753 H   0  0  0  0  0  0  0  0  0  0  0  0  # atno 10765 bound_to 10752
  140.5942  133.9895  155.8102 H   0  0  0  0  0  0  0  0  0  0  0  0  # atno 11005 bound_to 11000
  145.8168  140.9699  143.0920 LP  0  0  0  0  0  0  0  0  0  0  0  0  # atno 17320 bound_to 7965
  144.6796  139.9991  143.7484 LP  0  0  0  0  0  0  0  0  0  0  0  0  # atno 17321 bound_to 7965
  139.5013  144.6712  151.6239 LP  0  0  0  0  0  0  0  0  0  0  0  0  # atno 17342 bound_to 10162
  140.5957  143.9700  150.6353 LP  0  0  0  0  0  0  0  0  0  0  0  0  # atno 17343 bound_to 10162
  156.0020  130.5101  150.7698 LP  0  0  0  0  0  0  0  0  0  0  0  0  # atno 17370 bound_to 10713
  157.5062  131.0922  151.0254 LP  0  0  0  0  0  0  0  0  0  0  0  0  # atno 17371 bound_to 10713
  141.0915  133.9910  157.3230 LP  0  0  0  0  0  0  0  0  0  0  0  0  # atno 17394 bound_to 11000
  139.9260  135.0201  156.8237 LP  0  0  0  0  0  0  0  0  0  0  0  0  # atno 17395 bound_to 11000

$$$$
