AV-unprocessed.smi:86|AV-procd|sdf|819|dock3
  -GOLD-   2262017223D 1   1.00000     0.00000
 Structure written by MMmdl.
 51 55  0  0  0  0  0  0  0  0  1 V2000
  155.1412  144.2327  170.1196 O   0  0  0  0  0  0  0  0  0  0  0  0
  155.8108  144.0961  168.8822 C   0  0  0  0  0  0  0  0  0  0  0  0
  156.2946  142.6553  168.6559 C   0  0  0  0  0  0  0  0  0  0  0  0
  156.9731  142.5989  167.2661 C   0  0  0  0  0  0  0  0  0  0  0  0
  156.0812  142.7885  166.1315 N   0  0  0  0  0  0  0  0  0  0  0  0
  155.3493  143.9151  165.8351 C   0  0  0  0  0  0  0  0  0  0  0  0
  154.6297  143.8402  164.7497 N   0  0  0  0  0  0  0  0  0  0  0  0
  154.8958  142.5724  164.2427 C   0  0  0  0  0  0  0  0  0  0  0  0
  154.4644  141.8378  163.0975 C   0  0  0  0  0  0  0  0  0  0  0  0
  153.5869  142.2974  162.1692 N   0  0  0  0  0  0  0  0  0  0  0  0
  153.0202  143.6418  162.1749 C   0  0  0  0  0  0  0  0  0  0  0  0
  152.0894  143.6405  160.9633 C   0  0  1  0  0  0  0  0  0  0  0  0
  151.7170  144.9781  160.3132 C   0  0  0  0  0  0  0  0  0  0  0  0
  150.8530  144.7052  159.0626 C   0  0  0  0  0  0  0  0  0  0  0  0
  151.5283  143.7130  158.0833 C   0  0  2  0  0  0  0  0  0  0  0  0
  150.6373  143.4080  157.0313 O   0  0  0  0  0  0  0  0  0  0  0  0
  151.9725  142.4048  158.7771 C   0  0  0  0  0  0  0  0  0  0  0  0
  152.8512  142.7585  159.9830 C   0  0  2  0  0  0  0  0  0  0  0  0
  153.3585  141.6336  160.8861 C   0  0  0  0  0  0  0  0  0  0  0  0
  154.9681  140.5856  162.9373 N   0  0  0  0  0  0  0  0  0  0  0  0
  155.8327  140.0818  163.8217 C   0  0  0  0  0  0  0  0  0  0  0  0
  156.3205  140.6481  164.9257 N   0  0  0  0  0  0  0  0  0  0  0  0
  155.8176  141.9035  165.0998 C   0  0  0  0  0  0  0  0  0  0  0  0
  157.0515  142.0556  169.8548 C   0  0  0  0  0  0  0  0  0  0  0  0
  155.8888  141.3225  170.2929 O   0  0  0  0  0  0  0  0  0  0  0  0
  155.2705  141.5642  169.0119 C   0  0  0  0  0  0  0  0  0  0  0  0
  154.7681  145.1000  170.1646 H   0  0  0  0  0  0  0  0  0  0  0  0
  155.1423  144.4161  168.0826 H   0  0  0  0  0  0  0  0  0  0  0  0
  156.6509  144.7916  168.8786 H   0  0  0  0  0  0  0  0  0  0  0  0
  157.7532  143.3575  167.1924 H   0  0  0  0  0  0  0  0  0  0  0  0
  157.4799  141.6429  167.1299 H   0  0  0  0  0  0  0  0  0  0  0  0
  155.3628  144.7998  166.4553 H   0  0  0  0  0  0  0  0  0  0  0  0
  152.4742  143.8508  163.0951 H   0  0  0  0  0  0  0  0  0  0  0  0
  153.8173  144.3776  162.0606 H   0  0  0  0  0  0  0  0  0  0  0  0
  151.1689  143.1295  161.2539 H   0  0  0  0  0  0  0  0  0  0  0  0
  151.1725  145.6056  161.0193 H   0  0  0  0  0  0  0  0  0  0  0  0
  152.6181  145.5248  160.0329 H   0  0  0  0  0  0  0  0  0  0  0  0
  149.8905  144.3018  159.3806 H   0  0  0  0  0  0  0  0  0  0  0  0
  150.6367  145.6450  158.5529 H   0  0  0  0  0  0  0  0  0  0  0  0
  152.4035  144.1944  157.6448 H   0  0  0  0  0  0  0  0  0  0  0  0
  150.2045  144.2044  156.7643 H   0  0  0  0  0  0  0  0  0  0  0  0
  151.1019  141.8348  159.1053 H   0  0  0  0  0  0  0  0  0  0  0  0
  152.5231  141.7718  158.0805 H   0  0  0  0  0  0  0  0  0  0  0  0
  153.7232  143.3086  159.6232 H   0  0  0  0  0  0  0  0  0  0  0  0
  154.2628  141.1796  160.4791 H   0  0  0  0  0  0  0  0  0  0  0  0
  152.6050  140.8557  161.0138 H   0  0  0  0  0  0  0  0  0  0  0  0
  156.1827  139.0812  163.6149 H   0  0  0  0  0  0  0  0  0  0  0  0
  157.8708  141.3823  169.6069 H   0  0  0  0  0  0  0  0  0  0  0  0
  157.3783  142.7962  170.5854 H   0  0  0  0  0  0  0  0  0  0  0  0
  154.2474  141.9297  169.1053 H   0  0  0  0  0  0  0  0  0  0  0  0
  155.3016  140.6775  168.3800 H   0  0  0  0  0  0  0  0  0  0  0  0
  1  2  1  0  0  0  0
  1 27  1  0  0  0  0
  2  3  1  0  0  0  0
  2 28  1  0  0  0  0
  2 29  1  0  0  0  0
  3 26  1  0  0  0  0
  3  4  1  0  0  0  0
  3 24  1  0  0  0  0
  4  5  1  0  0  0  0
  4 30  1  0  0  0  0
  4 31  1  0  0  0  0
  5 23  1  0  0  0  0
  5  6  1  0  0  0  0
  6  7  2  0  0  0  0
  6 32  1  0  0  0  0
  7  8  1  0  0  0  0
  8 23  2  0  0  0  0
  8  9  1  0  0  0  0
  9 10  1  0  0  0  0
  9 20  2  0  0  0  0
 10 19  1  0  0  0  0
 10 11  1  0  0  0  0
 11 12  1  0  0  0  0
 11 33  1  0  0  0  0
 11 34  1  0  0  0  0
 12 18  1  0  0  0  0
 12 13  1  0  0  0  0
 12 35  1  0  0  0  0
 13 14  1  0  0  0  0
 13 36  1  0  0  0  0
 13 37  1  0  0  0  0
 14 15  1  0  0  0  0
 14 38  1  0  0  0  0
 14 39  1  0  0  0  0
 15 16  1  0  0  0  0
 15 17  1  0  0  0  0
 15 40  1  0  0  0  0
 16 41  1  0  0  0  0
 17 18  1  0  0  0  0
 17 42  1  0  0  0  0
 17 43  1  0  0  0  0
 18 19  1  0  0  0  0
 18 44  1  0  0  0  0
 19 45  1  0  0  0  0
 19 46  1  0  0  0  0
 20 21  1  0  0  0  0
 21 22  2  0  0  0  0
 21 47  1  0  0  0  0
 22 23  1  0  0  0  0
 24 25  1  0  0  0  0
 24 48  1  0  0  0  0
 24 49  1  0  0  0  0
 25 26  1  0  0  0  0
 26 50  1  0  0  0  0
 26 51  1  0  0  0  0
M  END
> <s_m_source_file>
AV-unprocessed.smi

> <i_m_source_file_index>
86

> <i_lp_mmshare_version>
43012

> <i_f3d_flags>
0

> <s_epik_input>
W0NIMl0xT1tDSDJdQzEoW0NIMl1bT0hdKVtDSDJdbihbY0hdbjIpYyhjMjMpbltjSF1uYzNOKFtDSDJdNClbQ0gyXVtDQEBIXShbQ0BIXTQ1KVtDSDJdW0NASF0oW09IXSlbQ0gyXVtDSDJdNQ==

> <s_epik_cmdline>
J2VwaWtfcHl0aG9uJywgJy1waCcsICc3LjAnLCAnLXRuJywgJzgnLCAnLW1hJywgJzIwMCcsICctbWV0YWxfYmluZGluZycsICctaW1hZScsICc8aW5maWxlLm1hZT4nLCAnLW9tYWUnLCAnPG91dGZpbGUubWFlPic=

> <r_lp_tautomer_probability>
1

> <r_epik_Ionization_Penalty>
0.00425795

> <r_epik_Ionization_Penalty_Charging>
0

> <r_epik_Ionization_Penalty_Neutral>
0.00425795

> <r_epik_State_Penalty>
0.00299946

> <r_epik_Charging_Adjusted_Penalty>
0.00299946

> <i_epik_Tot_Q>
0

> <i_epik_Tot_abs_Q>
0

> <r_epik_Metal_State_Penalty>
-0

> <b_epik_Metal_Only>
0

> <s_lp_Force_Field>
OPLS_2005

> <r_lp_Energy>
53.3624

> <b_lp_Chiralities_Consistent>
1

> <s_lp_Variant>
AV-unprocessed.smi:86-8

> <Gold.Version>
5.8.1

> <Gold.Id.Protein>
6NUR|6NUR_protein|mol2

> <Gold.PLP.Fitness>
56.7303

> <Gold.PLP.PLP>
-54.5671

> <Gold.PLP.part.hbond>
-3.8065

> <Gold.PLP.part.metal>
0.0000

> <Gold.PLP.part.buried>
-4.2034

> <Gold.PLP.part.nonpolar>
-46.7485

> <Gold.PLP.part.repulsive>
0.1686

> <Gold.PLP.ligand.clash>
0.0000

> <Gold.PLP.ligand.torsion>
0.2338

> <Gold.PLP.Chemscore.Hbond>
0.7520

> <Gold.PLP.Chemscore.CHOScore>
0.0000

> <Gold.PLP.Chemscore.Metal>
0.0000

> <Gold.Chemscore.Hbonds>
donor molecule, donor type, donor heavy atom, donor atom, acceptor molecule, acceptor atom, score
      L1  H    16    41       P1  8028  0.82

> <Gold.PLP.Chemscore.Internal.Correction>
0.3747

> <Gold.Rescore>
     Score         DG    S(hbond)    S(metal)    S(lipo)     H(rot)  DE(clash)    DE(int)     intcor
     10.13     -15.24       0.97        0.00     116.03       2.76       3.03       2.08       ----

> <Gold.Chemscore.Fitness>
10.1288

> <Gold.Chemscore.DG>
-15.2369

> <Gold.Chemscore.ZeroCoef>
-5.4800

> <Gold.Chemscore.Hbond>
0.9746

> <Gold.Chemscore.Metal>
0.0000

> <Gold.Chemscore.Lipo>
116.0266

> <Gold.Chemscore.Internal_Hbond>
0.0000

> <Gold.Chemscore.DEClash>
3.0257

> <Gold.Chemscore.DEInternal>
2.0824

> <Gold.Chemscore.Rot>
2.7630

> <Gold.Chemscore.Internal.Correction>
   9.000000E+99

> <Gold.Chemscore.Hbonds>
donor molecule, donor type, donor heavy atom, donor atom, acceptor molecule, acceptor atom, score
      L1  H    16    41       P1  8028  0.78

> <Gold.Chemscore.Hbond.Weighted>
-3.2551

> <Gold.Chemscore.Metal.Weighted>
-0.0000

> <Gold.Chemscore.Lipo.Weighted>
-13.5751

> <Gold.Chemscore.Internal_Hbond.Weighted>
0.0000

> <Gold.Chemscore.DEClash.Weighted>
3.0257

> <Gold.Chemscore.DEInternal.Weighted>
2.0824

> <Gold.Chemscore.Rot.Weighted>
7.0734

> <Gold.Chemscore.Internal.Correction.Weighted>
   9.000000E+99

> <Gold.Protein.RotatedTorsions>
[ 6907 6896 6895 6894 ] final  155.71 input  -60.11 | X-H torsion
[ 7974 7965 7964 7962 ] final -148.28 input  175.53 | X-H torsion
[ 8008 7997 7996 7995 ] final  -90.35 input   59.86 | X-H torsion
[ 10167 10162 10161 10158 ] final -149.84 input  -65.29 | X-H torsion
[ 10718 10713 10712 10709 ] final   23.28 input   66.30 | X-H torsion
[ 10763 10752 10751 10750 ] final   31.52 input  -60.55 | X-H torsion
[ 11005 11000 10999 10996 ] final -163.82 input  -57.11 | X-H torsion

> <Gold.Protein.ActiveResidues>
 VAL166  LYS551  ARG553  GLY616  TRP617  ASP618  TYR619  PRO620  LYS621  CYS622 
 ASP623  PHE694  ASN695  SER759  ASP760  ASP761  ALA762  ILE779  LEU786  VAL792 
 PHE793  MET794  SER795  GLU796  ALA797  LYS798  CYS799  TRP800  GLU811  SER814 

> <Gold.Protein.RotatedAtoms>
  152.0402  133.3974  159.4333 H   0  0  0  0  0  0  0  0  0  0  0  0  # atno 6907 bound_to 6896
  150.6876  134.3423  159.4882 H   0  0  0  0  0  0  0  0  0  0  0  0  # atno 6908 bound_to 6896
  152.1220  134.9198  160.0613 H   0  0  0  0  0  0  0  0  0  0  0  0  # atno 6909 bound_to 6896
  144.8039  140.5217  143.5688 H   0  0  0  0  0  0  0  0  0  0  0  0  # atno 7974 bound_to 7965
  154.6976  140.0531  157.0425 H   0  0  0  0  0  0  0  0  0  0  0  0  # atno 8008 bound_to 7997
  155.0730  140.3201  155.4606 H   0  0  0  0  0  0  0  0  0  0  0  0  # atno 8009 bound_to 7997
  156.2749  140.2078  156.5858 H   0  0  0  0  0  0  0  0  0  0  0  0  # atno 8010 bound_to 7997
  139.7407  143.8666  152.2561 H   0  0  0  0  0  0  0  0  0  0  0  0  # atno 10167 bound_to 10162
  157.1639  130.6729  149.6054 H   0  0  0  0  0  0  0  0  0  0  0  0  # atno 10718 bound_to 10713
  153.0311  135.6437  154.1212 H   0  0  0  0  0  0  0  0  0  0  0  0  # atno 10763 bound_to 10752
  154.0934  135.2864  155.3268 H   0  0  0  0  0  0  0  0  0  0  0  0  # atno 10764 bound_to 10752
  154.6449  135.5446  153.7896 H   0  0  0  0  0  0  0  0  0  0  0  0  # atno 10765 bound_to 10752
  140.5938  134.5017  157.5196 H   0  0  0  0  0  0  0  0  0  0  0  0  # atno 11005 bound_to 11000
  145.5484  139.1476  143.3407 LP  0  0  0  0  0  0  0  0  0  0  0  0  # atno 17320 bound_to 7965
  146.2327  140.5623  142.8968 LP  0  0  0  0  0  0  0  0  0  0  0  0  # atno 17321 bound_to 7965
  139.8616  144.7114  150.9093 LP  0  0  0  0  0  0  0  0  0  0  0  0  # atno 17342 bound_to 10162
  140.7785  143.3813  151.1472 LP  0  0  0  0  0  0  0  0  0  0  0  0  # atno 17343 bound_to 10162
  155.9749  130.4702  150.6421 LP  0  0  0  0  0  0  0  0  0  0  0  0  # atno 17370 bound_to 10713
  157.4106  131.0823  151.1224 LP  0  0  0  0  0  0  0  0  0  0  0  0  # atno 17371 bound_to 10713
  139.9262  134.8051  156.1062 LP  0  0  0  0  0  0  0  0  0  0  0  0  # atno 17394 bound_to 11000
  141.0917  133.6711  156.2555 LP  0  0  0  0  0  0  0  0  0  0  0  0  # atno 17395 bound_to 11000

$$$$
