AV-unprocessed.smi:1114|AV-procd|sdf|4801|dock2
  -GOLD-   22720 3343D 1   1.00000     0.00000
 Structure written by MMmdl.
 53 55  0  0  0  0  0  0  0  0  2 V2000
  144.0524  133.8631  150.0850 C   0  0  0  0  0  0  0  0  0  0  0  0
  143.7142  135.2128  150.7223 C   0  0  0  0  0  0  0  0  0  0  0  0
  142.8681  135.2338  151.6165 O   0  0  0  0  0  0  0  0  0  0  0  0
  144.3506  136.3280  150.2899 N   0  0  0  0  0  0  0  0  0  0  0  0
  144.1362  137.6493  150.8920 C   0  0  0  0  0  0  0  0  0  0  0  0
  145.4056  138.0599  151.6601 C   0  0  0  0  0  0  0  0  0  0  0  0
  146.6509  138.0327  150.7479 C   0  0  0  0  0  0  0  0  0  0  0  0
  147.8505  138.2529  151.5509 N   0  0  0  0  0  0  0  0  0  0  0  0
  147.9901  139.1992  152.4907 C   0  0  0  0  0  0  0  0  0  0  0  0
  147.1060  140.0048  152.7810 O   0  0  0  0  0  0  0  0  0  0  0  0
  149.1997  139.1335  153.0736 N   0  0  0  0  0  0  0  0  0  0  0  0
  149.7378  139.9796  154.0805 C   0  0  0  0  0  0  0  0  0  0  0  0
  150.6565  139.4221  154.9933 C   0  0  0  0  0  0  0  0  0  0  0  0
  151.2296  140.2314  155.9958 C   0  0  0  0  0  0  0  0  0  0  0  0
  150.8915  141.6060  156.0727 C   0  0  0  0  0  0  0  0  0  0  0  0
  151.4133  142.4943  157.0395 N   0  0  0  0  0  0  0  0  0  0  0  0
  151.5865  143.8969  156.6562 C   0  0  0  0  0  0  0  0  0  0  0  0
  152.5167  144.6365  157.6332 C   0  0  0  0  0  0  0  0  0  0  0  0
  152.0421  144.4708  159.0832 C   0  0  0  0  0  0  0  0  0  0  0  0
  151.9184  142.9789  159.4223 C   0  0  0  0  0  0  0  0  0  0  0  0
  150.9955  142.2581  158.4252 C   0  0  0  0  0  0  0  0  0  0  0  0
  150.0129  142.0963  155.1650 N   0  3  0  0  0  0  0  0  0  0  0  0
  149.4369  141.3572  154.1927 C   0  0  0  0  0  0  0  0  0  0  0  0
  146.7470  136.7005  149.9683 C   0  0  0  0  0  0  0  0  0  0  0  0
  145.4140  136.3612  149.2781 C   0  0  0  0  0  0  0  0  0  0  0  0
  145.1116  133.6329  150.2036 H   0  0  0  0  0  0  0  0  0  0  0  0
  143.8055  133.8650  149.0231 H   0  0  0  0  0  0  0  0  0  0  0  0
  143.4831  133.0616  150.5569 H   0  0  0  0  0  0  0  0  0  0  0  0
  143.9216  138.3744  150.1058 H   0  0  0  0  0  0  0  0  0  0  0  0
  143.2751  137.6744  151.5610 H   0  0  0  0  0  0  0  0  0  0  0  0
  145.2754  139.0549  152.0871 H   0  0  0  0  0  0  0  0  0  0  0  0
  145.5471  137.3789  152.5010 H   0  0  0  0  0  0  0  0  0  0  0  0
  146.5512  138.8473  150.0278 H   0  0  0  0  0  0  0  0  0  0  0  0
  148.6283  137.6325  151.3797 H   0  0  0  0  0  0  0  0  0  0  0  0
  149.7871  138.3618  152.7930 H   0  0  0  0  0  0  0  0  0  0  0  0
  150.9219  138.3766  154.9315 H   0  0  0  0  0  0  0  0  0  0  0  0
  151.9315  139.7806  156.6808 H   0  0  0  0  0  0  0  0  0  0  0  0
  152.0143  143.9651  155.6556 H   0  0  0  0  0  0  0  0  0  0  0  0
  150.6103  144.3828  156.6283 H   0  0  0  0  0  0  0  0  0  0  0  0
  153.5313  144.2468  157.5362 H   0  0  0  0  0  0  0  0  0  0  0  0
  152.5659  145.6943  157.3731 H   0  0  0  0  0  0  0  0  0  0  0  0
  152.7387  144.9571  159.7666 H   0  0  0  0  0  0  0  0  0  0  0  0
  151.0772  144.9621  159.2151 H   0  0  0  0  0  0  0  0  0  0  0  0
  152.9066  142.5170  159.4044 H   0  0  0  0  0  0  0  0  0  0  0  0
  151.5381  142.8562  160.4366 H   0  0  0  0  0  0  0  0  0  0  0  0
  149.9713  142.6144  158.5432 H   0  0  0  0  0  0  0  0  0  0  0  0
  150.9874  141.1960  158.6687 H   0  0  0  0  0  0  0  0  0  0  0  0
  148.7722  141.9037  153.5409 H   0  0  0  0  0  0  0  0  0  0  0  0
  147.5426  136.7546  149.2245 H   0  0  0  0  0  0  0  0  0  0  0  0
  147.0144  135.8902  150.6482 H   0  0  0  0  0  0  0  0  0  0  0  0
  145.5139  135.4333  148.7169 H   0  0  0  0  0  0  0  0  0  0  0  0
  145.1765  137.1242  148.5353 H   0  0  0  0  0  0  0  0  0  0  0  0
  149.7701  143.0857  155.2186 H   0  0  0  0  0  0  0  0  0  0  0  0
  1  2  1  0  0  0  0
  1 26  1  0  0  0  0
  1 27  1  0  0  0  0
  1 28  1  0  0  0  0
  2  3  2  0  0  0  0
  2  4  1  0  0  0  0
  4 25  1  0  0  0  0
  4  5  1  0  0  0  0
  5  6  1  0  0  0  0
  5 29  1  0  0  0  0
  5 30  1  0  0  0  0
  6  7  1  0  0  0  0
  6 31  1  0  0  0  0
  6 32  1  0  0  0  0
  7  8  1  0  0  0  0
  7 24  1  0  0  0  0
  7 33  1  0  0  0  0
  8  9  1  0  0  0  0
  8 34  1  0  0  0  0
  9 10  2  0  0  0  0
  9 11  1  0  0  0  0
 11 12  1  0  0  0  0
 11 35  1  0  0  0  0
 12 23  1  0  0  0  0
 12 13  2  0  0  0  0
 13 14  1  0  0  0  0
 13 36  1  0  0  0  0
 14 15  2  0  0  0  0
 14 37  1  0  0  0  0
 15 16  1  0  0  0  0
 15 22  1  0  0  0  0
 16 21  1  0  0  0  0
 16 17  1  0  0  0  0
 17 18  1  0  0  0  0
 17 38  1  0  0  0  0
 17 39  1  0  0  0  0
 18 19  1  0  0  0  0
 18 40  1  0  0  0  0
 18 41  1  0  0  0  0
 19 20  1  0  0  0  0
 19 42  1  0  0  0  0
 19 43  1  0  0  0  0
 20 21  1  0  0  0  0
 20 44  1  0  0  0  0
 20 45  1  0  0  0  0
 21 46  1  0  0  0  0
 21 47  1  0  0  0  0
 22 23  2  0  0  0  0
 22 53  1  0  0  0  0
 23 48  1  0  0  0  0
 24 25  1  0  0  0  0
 24 49  1  0  0  0  0
 24 50  1  0  0  0  0
 25 51  1  0  0  0  0
 25 52  1  0  0  0  0
M  CHG  1  22   1
M  END
> <s_m_source_file>
AV-unprocessed.smi

> <i_m_source_file_index>
1114

> <i_lp_mmshare_version>
43012

> <i_f3d_flags>
0

> <s_epik_input>
W0NIM11DKD1PKU4xW0NIMl1bQ0gyXVtDSF0oW0NIMl1bQ0gyXTEpW05IXUMoPU8pW05IXWMyW2NIXVtjSF1jKG5bY0hdMilOM1tDSDJdW0NIMl1bQ0gyXVtDSDJdW0NIMl0z

> <s_epik_cmdline>
J2VwaWtfcHl0aG9uJywgJy1waCcsICc3LjAnLCAnLXRuJywgJzgnLCAnLW1hJywgJzIwMCcsICctbWV0YWxfYmluZGluZycsICctaW1hZScsICc8aW5maWxlLm1hZT4nLCAnLW9tYWUnLCAnPG91dGZpbGUubWFlPic=

> <r_lp_tautomer_probability>
0.999994

> <r_epik_Ionization_Penalty>
1.08953

> <r_epik_Ionization_Penalty_Charging>
1.08951

> <r_epik_Ionization_Penalty_Neutral>
2.1351e-05

> <r_epik_State_Penalty>
1.14567

> <r_epik_Charging_Adjusted_Penalty>
2.23518

> <i_epik_Tot_Q>
1

> <i_epik_Tot_abs_Q>
1

> <r_epik_Metal_State_Penalty>
1.23466

> <b_epik_Metal_Only>
0

> <s_lp_Force_Field>
OPLS_2005

> <r_lp_Energy>
44.385

> <b_lp_Chiralities_Consistent>
1

> <s_lp_Variant>
AV-unprocessed.smi:1114-2

> <Gold.Version>
5.8.1

> <Gold.Id.Protein>
6NUR|6NUR_protein|mol2

> <Gold.PLP.Fitness>
54.8992

> <Gold.PLP.PLP>
-46.9454

> <Gold.PLP.part.hbond>
-3.1361

> <Gold.PLP.part.metal>
0.0000

> <Gold.PLP.part.buried>
3.7705

> <Gold.PLP.part.nonpolar>
-49.1250

> <Gold.PLP.part.repulsive>
1.3355

> <Gold.PLP.ligand.clash>
0.0000

> <Gold.PLP.ligand.torsion>
0.7873

> <Gold.PLP.Chemscore.Hbond>
3.0000

> <Gold.PLP.Chemscore.CHOScore>
0.0000

> <Gold.PLP.Chemscore.Metal>
0.0000

> <Gold.Chemscore.Hbonds>
donor molecule, donor type, donor heavy atom, donor atom, acceptor molecule, acceptor atom, score
      L1  H     8    34       P1  7948  0.57
      L1  H    11    35       P1  7948  0.02
      L1  H    22    53       P1  8028  2.00

> <Gold.PLP.Chemscore.Internal.Correction>
0.5284

> <Gold.Rescore>
     Score         DG    S(hbond)    S(metal)    S(lipo)     H(rot)  DE(clash)    DE(int)     intcor
     17.29     -24.39       1.94        0.00     132.64       1.21       5.58       1.52       ----

> <Gold.Chemscore.Fitness>
17.2898

> <Gold.Chemscore.DG>
-24.3942

> <Gold.Chemscore.ZeroCoef>
-5.4800

> <Gold.Chemscore.Hbond>
1.9445

> <Gold.Chemscore.Metal>
0.0000

> <Gold.Chemscore.Lipo>
132.6369

> <Gold.Chemscore.Internal_Hbond>
0.0000

> <Gold.Chemscore.DEClash>
5.5849

> <Gold.Chemscore.DEInternal>
1.5196

> <Gold.Chemscore.Rot>
1.2105

> <Gold.Chemscore.Internal.Correction>
   9.000000E+99

> <Gold.Chemscore.Hbonds>
donor molecule, donor type, donor heavy atom, donor atom, acceptor molecule, acceptor atom, score
      L1  H     8    34       P1  7948  0.46
      L1  H    11    35       P1  7948  0.02
      L1  H    22    53       P1  8028  1.00

> <Gold.Chemscore.Hbond.Weighted>
-6.4947

> <Gold.Chemscore.Metal.Weighted>
-0.0000

> <Gold.Chemscore.Lipo.Weighted>
-15.5185

> <Gold.Chemscore.Internal_Hbond.Weighted>
0.0000

> <Gold.Chemscore.DEClash.Weighted>
5.5849

> <Gold.Chemscore.DEInternal.Weighted>
1.5196

> <Gold.Chemscore.Rot.Weighted>
3.0990

> <Gold.Chemscore.Internal.Correction.Weighted>
   9.000000E+99

> <Gold.Protein.RotatedTorsions>
[ 6907 6896 6895 6894 ] final  -31.65 input  -60.11 | X-H torsion
[ 7974 7965 7964 7962 ] final   99.47 input  175.53 | X-H torsion
[ 8008 7997 7996 7995 ] final   40.78 input   59.86 | X-H torsion
[ 10167 10162 10161 10158 ] final   46.71 input  -65.29 | X-H torsion
[ 10718 10713 10712 10709 ] final  145.38 input   66.30 | X-H torsion
[ 10763 10752 10751 10750 ] final -167.03 input  -60.55 | X-H torsion
[ 11005 11000 10999 10996 ] final  179.54 input  -57.11 | X-H torsion

> <Gold.Protein.ActiveResidues>
 VAL166  LYS551  ARG553  GLY616  TRP617  ASP618  TYR619  PRO620  LYS621  CYS622 
 ASP623  PHE694  ASN695  SER759  ASP760  ASP761  ALA762  ILE779  LEU786  VAL792 
 PHE793  MET794  SER795  GLU796  ALA797  LYS798  CYS799  TRP800  GLU811  SER814 

> <Gold.Protein.RotatedAtoms>
  151.0893  134.9906  159.8394 H   0  0  0  0  0  0  0  0  0  0  0  0  # atno 6907 bound_to 6896
  152.5427  134.2085  159.8751 H   0  0  0  0  0  0  0  0  0  0  0  0  # atno 6908 bound_to 6896
  151.2121  133.4506  159.2632 H   0  0  0  0  0  0  0  0  0  0  0  0  # atno 6909 bound_to 6896
  145.3985  139.2351  143.3313 H   0  0  0  0  0  0  0  0  0  0  0  0  # atno 7974 bound_to 7965
  155.2587  140.3357  155.4275 H   0  0  0  0  0  0  0  0  0  0  0  0  # atno 8008 bound_to 7997
  156.2184  140.1798  156.7578 H   0  0  0  0  0  0  0  0  0  0  0  0  # atno 8009 bound_to 7997
  154.5788  140.0657  156.9058 H   0  0  0  0  0  0  0  0  0  0  0  0  # atno 8010 bound_to 7997
  140.3111  144.2819  150.6199 H   0  0  0  0  0  0  0  0  0  0  0  0  # atno 10167 bound_to 10162
  157.3459  131.0943  151.1042 H   0  0  0  0  0  0  0  0  0  0  0  0  # atno 10718 bound_to 10713
  154.6773  135.2949  154.9660 H   0  0  0  0  0  0  0  0  0  0  0  0  # atno 10763 bound_to 10752
  154.0667  135.6624  153.4823 H   0  0  0  0  0  0  0  0  0  0  0  0  # atno 10764 bound_to 10752
  153.0525  135.5165  154.7799 H   0  0  0  0  0  0  0  0  0  0  0  0  # atno 10765 bound_to 10752
  140.4073  134.6723  157.4595 H   0  0  0  0  0  0  0  0  0  0  0  0  # atno 11005 bound_to 11000
  146.2763  140.4679  142.8794 LP  0  0  0  0  0  0  0  0  0  0  0  0  # atno 17320 bound_to 7965
  144.8390  140.6828  143.6241 LP  0  0  0  0  0  0  0  0  0  0  0  0  # atno 17321 bound_to 7965
  140.5567  143.2198  151.7835 LP  0  0  0  0  0  0  0  0  0  0  0  0  # atno 17342 bound_to 10162
  139.4893  144.4404  151.9771 LP  0  0  0  0  0  0  0  0  0  0  0  0  # atno 17343 bound_to 10162
  157.2236  130.6492  149.5821 LP  0  0  0  0  0  0  0  0  0  0  0  0  # atno 17370 bound_to 10713
  155.9714  130.4621  150.6134 LP  0  0  0  0  0  0  0  0  0  0  0  0  # atno 17371 bound_to 10713
  140.0292  134.6431  155.9129 LP  0  0  0  0  0  0  0  0  0  0  0  0  # atno 17394 bound_to 11000
  141.1834  133.6551  156.5116 LP  0  0  0  0  0  0  0  0  0  0  0  0  # atno 17395 bound_to 11000

$$$$
