AV-unprocessed.smi:1918|AV-procd|sdf|7769|dock3
  -GOLD-   22720 9513D 1   1.00000     0.00000
 Structure written by MMmdl.
 35 37  0  0  0  0  0  0  0  0  1 V2000
  147.9172  141.8894  154.3592 C   0  0  0  0  0  0  0  0  0  0  0  0
  148.9615  140.8472  154.6058 C   0  0  0  0  0  0  0  0  0  0  0  0
  148.9045  139.6384  154.0459 N   0  0  0  0  0  0  0  0  0  0  0  0
  150.0388  139.0224  154.5385 C   0  0  0  0  0  0  0  0  0  0  0  0
  150.5482  137.7225  154.3188 C   0  0  0  0  0  0  0  0  0  0  0  0
  151.7444  137.3097  154.9419 C   0  0  0  0  0  0  0  0  0  0  0  0
  152.4474  138.1887  155.7913 C   0  0  0  0  0  0  0  0  0  0  0  0
  151.9581  139.4886  156.0228 C   0  0  0  0  0  0  0  0  0  0  0  0
  150.7637  139.8953  155.3986 C   0  0  0  0  0  0  0  0  0  0  0  0
  150.0264  141.0746  155.4139 N   0  0  0  0  0  0  0  0  0  0  0  0
  150.3603  142.2843  156.1530 C   0  0  0  0  0  0  0  0  0  0  0  0
  150.0773  142.1541  157.6626 C   0  0  2  0  0  0  0  0  0  0  0  0
  149.4935  143.3481  158.1490 O   0  0  0  0  0  0  0  0  0  0  0  0
  151.3373  141.7678  158.4258 C   0  0  0  0  0  0  0  0  0  0  0  0
  151.5004  140.4537  158.9194 C   0  0  0  0  0  0  0  0  0  0  0  0
  152.6615  140.0998  159.6332 C   0  0  0  0  0  0  0  0  0  0  0  0
  153.6664  141.0582  159.8629 C   0  0  0  0  0  0  0  0  0  0  0  0
  154.7828  140.7183  160.5495 F   0  0  0  0  0  0  0  0  0  0  0  0
  153.5077  142.3712  159.3810 C   0  0  0  0  0  0  0  0  0  0  0  0
  152.3469  142.7276  158.6669 C   0  0  0  0  0  0  0  0  0  0  0  0
  152.2073  143.9986  158.2186 F   0  0  0  0  0  0  0  0  0  0  0  0
  147.1075  141.4840  153.7516 H   0  0  0  0  0  0  0  0  0  0  0  0
  148.3505  142.7389  153.8311 H   0  0  0  0  0  0  0  0  0  0  0  0
  147.4960  142.2361  155.3027 H   0  0  0  0  0  0  0  0  0  0  0  0
  150.0173  137.0419  153.6697 H   0  0  0  0  0  0  0  0  0  0  0  0
  152.1241  136.3135  154.7677 H   0  0  0  0  0  0  0  0  0  0  0  0
  153.3622  137.8645  156.2656 H   0  0  0  0  0  0  0  0  0  0  0  0
  152.4930  140.1648  156.6732 H   0  0  0  0  0  0  0  0  0  0  0  0
  151.4194  142.4896  155.9921 H   0  0  0  0  0  0  0  0  0  0  0  0
  149.8213  143.1331  155.7324 H   0  0  0  0  0  0  0  0  0  0  0  0
  149.3313  141.3733  157.8137 H   0  0  0  0  0  0  0  0  0  0  0  0
  149.5745  144.0141  157.4834 H   0  0  0  0  0  0  0  0  0  0  0  0
  150.7333  139.7110  158.7556 H   0  0  0  0  0  0  0  0  0  0  0  0
  152.7804  139.0931  160.0063 H   0  0  0  0  0  0  0  0  0  0  0  0
  154.2767  143.1079  159.5611 H   0  0  0  0  0  0  0  0  0  0  0  0
  1  2  1  0  0  0  0
  1 22  1  0  0  0  0
  1 23  1  0  0  0  0
  1 24  1  0  0  0  0
  2 10  1  0  0  0  0
  2  3  2  0  0  0  0
  3  4  1  0  0  0  0
  4  9  2  0  0  0  0
  4  5  1  0  0  0  0
  5  6  2  0  0  0  0
  5 25  1  0  0  0  0
  6  7  1  0  0  0  0
  6 26  1  0  0  0  0
  7  8  2  0  0  0  0
  7 27  1  0  0  0  0
  8  9  1  0  0  0  0
  8 28  1  0  0  0  0
  9 10  1  0  0  0  0
 10 11  1  0  0  0  0
 11 12  1  0  0  0  0
 11 29  1  0  0  0  0
 11 30  1  0  0  0  0
 12 13  1  0  0  0  0
 12 14  1  0  0  0  0
 12 31  1  0  0  0  0
 13 32  1  0  0  0  0
 14 20  1  0  0  0  0
 14 15  2  0  0  0  0
 15 16  1  0  0  0  0
 15 33  1  0  0  0  0
 16 17  2  0  0  0  0
 16 34  1  0  0  0  0
 17 18  1  0  0  0  0
 17 19  1  0  0  0  0
 19 20  2  0  0  0  0
 19 35  1  0  0  0  0
 20 21  1  0  0  0  0
M  END
> <s_m_source_file>
AV-unprocessed.smi

> <i_m_source_file_index>
1918

> <i_lp_mmshare_version>
43012

> <i_f3d_flags>
0

> <s_epik_input>
W2NIXTFbY0hdW2NIXVtjSF1jKGMxMiluKGMobjIpW0NIM10pW0NIMl1bQ0BIXShbT0hdKWMzW2NIXVtjSF1jKEYpW2NIXWMzRg==

> <s_epik_cmdline>
J2VwaWtfcHl0aG9uJywgJy1waCcsICc3LjAnLCAnLXRuJywgJzgnLCAnLW1hJywgJzIwMCcsICctbWV0YWxfYmluZGluZycsICctaW1hZScsICc8aW5maWxlLm1hZT4nLCAnLW9tYWUnLCAnPG91dGZpbGUubWFlPic=

> <r_epik_Ionization_Penalty>
0.129663

> <r_epik_Ionization_Penalty_Charging>
0

> <r_epik_Ionization_Penalty_Neutral>
0.129663

> <r_epik_State_Penalty>
0.119073

> <r_epik_Charging_Adjusted_Penalty>
0.119073

> <i_epik_Tot_Q>
0

> <i_epik_Tot_abs_Q>
0

> <r_epik_Metal_State_Penalty>
0.000131867

> <b_epik_Metal_Only>
0

> <s_lp_Force_Field>
OPLS_2005

> <r_lp_Energy>
11.5863

> <b_lp_Chiralities_Consistent>
1

> <s_lp_Variant>
AV-unprocessed.smi:1918-1

> <Gold.Version>
5.8.1

> <Gold.Id.Protein>
6NUR|6NUR_protein|mol2

> <Gold.PLP.Fitness>
48.8254

> <Gold.PLP.PLP>
-47.8552

> <Gold.PLP.part.hbond>
-1.9213

> <Gold.PLP.part.metal>
0.0000

> <Gold.PLP.part.buried>
2.6446

> <Gold.PLP.part.nonpolar>
-50.6039

> <Gold.PLP.part.repulsive>
2.1264

> <Gold.PLP.ligand.clash>
0.0000

> <Gold.PLP.ligand.torsion>
1.0282

> <Gold.PLP.Chemscore.Hbond>
1.0000

> <Gold.PLP.Chemscore.CHOScore>
0.0000

> <Gold.PLP.Chemscore.Metal>
0.0000

> <Gold.Chemscore.Hbonds>
donor molecule, donor type, donor heavy atom, donor atom, acceptor molecule, acceptor atom, score
      L1  H    13    32       P1  8028  0.91

> <Gold.PLP.Chemscore.Internal.Correction>
0.0265

> <Gold.Rescore>
     Score         DG    S(hbond)    S(metal)    S(lipo)     H(rot)  DE(clash)    DE(int)     intcor
     11.75     -16.32       0.55        0.00     118.11       1.88       2.43       2.14       ----

> <Gold.Chemscore.Fitness>
11.7461

> <Gold.Chemscore.DG>
-16.3171

> <Gold.Chemscore.ZeroCoef>
-5.4800

> <Gold.Chemscore.Hbond>
0.5511

> <Gold.Chemscore.Metal>
0.0000

> <Gold.Chemscore.Lipo>
118.1128

> <Gold.Chemscore.Internal_Hbond>
0.0000

> <Gold.Chemscore.DEClash>
2.4341

> <Gold.Chemscore.DEInternal>
2.1369

> <Gold.Chemscore.Rot>
1.8839

> <Gold.Chemscore.Internal.Correction>
   9.000000E+99

> <Gold.Chemscore.Hbonds>
donor molecule, donor type, donor heavy atom, donor atom, acceptor molecule, acceptor atom, score
      L1  H    13    32       P1  8028  0.28

> <Gold.Chemscore.Hbond.Weighted>
-1.8407

> <Gold.Chemscore.Metal.Weighted>
-0.0000

> <Gold.Chemscore.Lipo.Weighted>
-13.8192

> <Gold.Chemscore.Internal_Hbond.Weighted>
0.0000

> <Gold.Chemscore.DEClash.Weighted>
2.4341

> <Gold.Chemscore.DEInternal.Weighted>
2.1369

> <Gold.Chemscore.Rot.Weighted>
4.8227

> <Gold.Chemscore.Internal.Correction.Weighted>
   9.000000E+99

> <Gold.Protein.RotatedTorsions>
[ 6907 6896 6895 6894 ] final  -59.42 input  -60.11 | X-H torsion
[ 7974 7965 7964 7962 ] final   56.78 input  175.53 | X-H torsion
[ 8008 7997 7996 7995 ] final  -77.43 input   59.86 | X-H torsion
[ 10167 10162 10161 10158 ] final  -50.07 input  -65.29 | X-H torsion
[ 10718 10713 10712 10709 ] final   14.80 input   66.30 | X-H torsion
[ 10763 10752 10751 10750 ] final  -24.27 input  -60.55 | X-H torsion
[ 11005 11000 10999 10996 ] final  -44.14 input  -57.11 | X-H torsion

> <Gold.Protein.ActiveResidues>
 VAL166  LYS551  ARG553  GLY616  TRP617  ASP618  TYR619  PRO620  LYS621  CYS622 
 ASP623  PHE694  ASN695  SER759  ASP760  ASP761  ALA762  ILE779  LEU786  VAL792 
 PHE793  MET794  SER795  GLU796  ALA797  LYS798  CYS799  TRP800  GLU811  SER814 

> <Gold.Protein.RotatedAtoms>
  150.7932  134.6971  159.6528 H   0  0  0  0  0  0  0  0  0  0  0  0  # atno 6907 bound_to 6896
  152.4040  134.6234  160.0066 H   0  0  0  0  0  0  0  0  0  0  0  0  # atno 6908 bound_to 6896
  151.6497  133.3285  159.3185 H   0  0  0  0  0  0  0  0  0  0  0  0  # atno 6909 bound_to 6896
  145.9362  139.3849  143.0391 H   0  0  0  0  0  0  0  0  0  0  0  0  # atno 7974 bound_to 7965
  154.5595  140.0710  156.8797 H   0  0  0  0  0  0  0  0  0  0  0  0  # atno 8008 bound_to 7997
  155.2838  140.3373  155.4238 H   0  0  0  0  0  0  0  0  0  0  0  0  # atno 8009 bound_to 7997
  156.2031  140.1729  156.7844 H   0  0  0  0  0  0  0  0  0  0  0  0  # atno 8010 bound_to 7997
  140.6655  143.2672  151.4306 H   0  0  0  0  0  0  0  0  0  0  0  0  # atno 10167 bound_to 10162
  157.0443  130.6244  149.5756 H   0  0  0  0  0  0  0  0  0  0  0  0  # atno 10718 bound_to 10713
  153.6811  135.6967  153.5117 H   0  0  0  0  0  0  0  0  0  0  0  0  # atno 10763 bound_to 10752
  153.2484  135.4283  155.0771 H   0  0  0  0  0  0  0  0  0  0  0  0  # atno 10764 bound_to 10752
  154.8400  135.3525  154.6354 H   0  0  0  0  0  0  0  0  0  0  0  0  # atno 10765 bound_to 10752
  141.0431  133.6772  156.2831 H   0  0  0  0  0  0  0  0  0  0  0  0  # atno 11005 bound_to 11000
  145.8361  140.9605  143.0824 LP  0  0  0  0  0  0  0  0  0  0  0  0  # atno 17320 bound_to 7965
  144.6772  140.0224  143.7483 LP  0  0  0  0  0  0  0  0  0  0  0  0  # atno 17321 bound_to 7965
  139.5903  144.1514  152.2080 LP  0  0  0  0  0  0  0  0  0  0  0  0  # atno 17342 bound_to 10162
  140.0867  144.5655  150.7084 LP  0  0  0  0  0  0  0  0  0  0  0  0  # atno 17343 bound_to 10162
  156.0028  130.5110  150.7723 LP  0  0  0  0  0  0  0  0  0  0  0  0  # atno 17370 bound_to 10713
  157.5080  131.0923  151.0233 LP  0  0  0  0  0  0  0  0  0  0  0  0  # atno 17371 bound_to 10713
  140.6198  134.5373  157.5546 LP  0  0  0  0  0  0  0  0  0  0  0  0  # atno 17394 bound_to 11000
  139.9290  134.7999  156.0984 LP  0  0  0  0  0  0  0  0  0  0  0  0  # atno 17395 bound_to 11000

$$$$
