AV-unprocessed.smi:1941|AV-procd|sdf|7847|dock8
  -GOLD-   22720 9593D 1   1.00000     0.00000
 Structure written by MMmdl.
 40 41  0  0  0  0  0  0  0  0  1 V2000
  147.1910  131.4825  153.0364 C   0  0  0  0  0  0  0  0  0  0  0  0
  146.1887  132.2905  152.2857 C   0  0  0  0  0  0  0  0  0  0  0  0
  146.2991  133.6063  152.0853 N   0  0  0  0  0  0  0  0  0  0  0  0
  145.2286  134.1310  151.3538 C   0  0  0  0  0  0  0  0  0  0  0  0
  145.1863  135.5937  151.0300 C   0  0  0  0  0  0  0  0  0  0  0  0
  145.1960  136.4695  152.2944 C   0  0  0  0  0  0  0  0  0  0  0  0
  146.5116  137.0506  152.5361 N   0  0  0  0  0  0  0  0  0  0  0  0
  146.7687  138.0161  153.4292 C   0  0  0  0  0  0  0  0  0  0  0  0
  145.9127  138.5363  154.1451 O   0  0  0  0  0  0  0  0  0  0  0  0
  148.0706  138.3342  153.4549 N   0  0  0  0  0  0  0  0  0  0  0  0
  148.6952  139.3225  154.3342 C   0  0  2  0  0  0  0  0  0  0  0  0
  147.9994  140.6799  154.1593 C   0  0  0  0  0  0  0  0  0  0  0  0
  150.2117  139.4108  154.0662 C   0  0  1  0  0  0  0  0  0  0  0  0
  151.0202  140.2106  155.0990 C   0  0  0  0  0  0  0  0  0  0  0  0
  152.3385  139.4560  155.2119 C   0  0  0  0  0  0  0  0  0  0  0  0
  152.2141  138.3289  154.1889 C   0  0  0  0  0  0  0  0  0  0  0  0
  150.8153  138.1245  154.0801 O   0  0  0  0  0  0  0  0  0  0  0  0
  144.3008  133.1840  150.9981 C   0  0  0  0  0  0  0  0  0  0  0  0
  144.7374  131.5982  151.5721 S   0  0  0  0  0  0  0  0  0  0  0  0
  147.9757  132.1225  153.4414 H   0  0  0  0  0  0  0  0  0  0  0  0
  147.6470  130.7463  152.3744 H   0  0  0  0  0  0  0  0  0  0  0  0
  146.7055  130.9605  153.8610 H   0  0  0  0  0  0  0  0  0  0  0  0
  146.0356  135.8526  150.3963 H   0  0  0  0  0  0  0  0  0  0  0  0
  144.2964  135.8173  150.4400 H   0  0  0  0  0  0  0  0  0  0  0  0
  144.4801  137.2849  152.1882 H   0  0  0  0  0  0  0  0  0  0  0  0
  144.8795  135.8897  153.1632 H   0  0  0  0  0  0  0  0  0  0  0  0
  147.2796  136.6851  151.9923 H   0  0  0  0  0  0  0  0  0  0  0  0
  148.6897  137.8397  152.8292 H   0  0  0  0  0  0  0  0  0  0  0  0
  148.5667  139.0300  155.3777 H   0  0  0  0  0  0  0  0  0  0  0  0
  148.4282  141.4287  154.8258 H   0  0  0  0  0  0  0  0  0  0  0  0
  146.9356  140.6080  154.3885 H   0  0  0  0  0  0  0  0  0  0  0  0
  148.0963  141.0496  153.1379 H   0  0  0  0  0  0  0  0  0  0  0  0
  150.3807  139.8480  153.0802 H   0  0  0  0  0  0  0  0  0  0  0  0
  151.1625  141.2418  154.7750 H   0  0  0  0  0  0  0  0  0  0  0  0
  150.5310  140.2403  156.0727 H   0  0  0  0  0  0  0  0  0  0  0  0
  153.2051  140.0890  155.0190 H   0  0  0  0  0  0  0  0  0  0  0  0
  152.4415  139.0422  156.2156 H   0  0  0  0  0  0  0  0  0  0  0  0
  152.6120  138.6372  153.2209 H   0  0  0  0  0  0  0  0  0  0  0  0
  152.7310  137.4203  154.4984 H   0  0  0  0  0  0  0  0  0  0  0  0
  143.3907  133.3234  150.4334 H   0  0  0  0  0  0  0  0  0  0  0  0
  1  2  1  0  0  0  0
  1 20  1  0  0  0  0
  1 21  1  0  0  0  0
  1 22  1  0  0  0  0
  2 19  1  0  0  0  0
  2  3  2  0  0  0  0
  3  4  1  0  0  0  0
  4  5  1  0  0  0  0
  4 18  2  0  0  0  0
  5  6  1  0  0  0  0
  5 23  1  0  0  0  0
  5 24  1  0  0  0  0
  6  7  1  0  0  0  0
  6 25  1  0  0  0  0
  6 26  1  0  0  0  0
  7  8  1  0  0  0  0
  7 27  1  0  0  0  0
  8  9  2  0  0  0  0
  8 10  1  0  0  0  0
 10 11  1  0  0  0  0
 10 28  1  0  0  0  0
 11 12  1  0  0  0  0
 11 13  1  0  0  0  0
 11 29  1  0  0  0  0
 12 30  1  0  0  0  0
 12 31  1  0  0  0  0
 12 32  1  0  0  0  0
 13 17  1  0  0  0  0
 13 14  1  0  0  0  0
 13 33  1  0  0  0  0
 14 15  1  0  0  0  0
 14 34  1  0  0  0  0
 14 35  1  0  0  0  0
 15 16  1  0  0  0  0
 15 36  1  0  0  0  0
 15 37  1  0  0  0  0
 16 17  1  0  0  0  0
 16 38  1  0  0  0  0
 16 39  1  0  0  0  0
 18 19  1  0  0  0  0
 18 40  1  0  0  0  0
M  END
> <s_m_source_file>
AV-unprocessed.smi

> <i_m_source_file_index>
1941

> <i_lp_mmshare_version>
43012

> <i_f3d_flags>
0

> <s_epik_input>
W0NIM11jMW5jKFtjSF1zMSlbQ0gyXVtDSDJdW05IXUMoPU8pW05IXVtDQEhdKFtDSDNdKVtDQEBIXTJbQ0gyXVtDSDJdW0NIMl1PMg==

> <s_epik_cmdline>
J2VwaWtfcHl0aG9uJywgJy1waCcsICc3LjAnLCAnLXRuJywgJzgnLCAnLW1hJywgJzIwMCcsICctbWV0YWxfYmluZGluZycsICctaW1hZScsICc8aW5maWxlLm1hZT4nLCAnLW9tYWUnLCAnPG91dGZpbGUubWFlPic=

> <r_epik_Ionization_Penalty>
0.00195486

> <r_epik_Ionization_Penalty_Charging>
0

> <r_epik_Ionization_Penalty_Neutral>
0.00195486

> <r_epik_State_Penalty>
0.00129472

> <r_epik_Charging_Adjusted_Penalty>
0.00129472

> <i_epik_Tot_Q>
0

> <i_epik_Tot_abs_Q>
0

> <r_epik_Metal_State_Penalty>
-0

> <b_epik_Metal_Only>
0

> <s_lp_Force_Field>
OPLS_2005

> <r_lp_Energy>
12.2091

> <b_lp_Chiralities_Consistent>
1

> <s_lp_Variant>
AV-unprocessed.smi:1941-3

> <Gold.Version>
5.8.1

> <Gold.Id.Protein>
6NUR|6NUR_protein|mol2

> <Gold.PLP.Fitness>
43.2831

> <Gold.PLP.PLP>
-35.2055

> <Gold.PLP.part.hbond>
-2.2295

> <Gold.PLP.part.metal>
0.0000

> <Gold.PLP.part.buried>
-3.4910

> <Gold.PLP.part.nonpolar>
-30.1368

> <Gold.PLP.part.repulsive>
0.5840

> <Gold.PLP.ligand.clash>
0.0000

> <Gold.PLP.ligand.torsion>
0.4530

> <Gold.PLP.Chemscore.Hbond>
1.9760

> <Gold.PLP.Chemscore.CHOScore>
1.0000

> <Gold.PLP.Chemscore.Metal>
0.0000

> <Gold.Chemscore.Hbonds>
donor molecule, donor type, donor heavy atom, donor atom, acceptor molecule, acceptor atom, score
      L1  H     7    27       P1  7948  1.00
      L1  H    10    28       P1  7948  0.93
      L1  C    18    40       P1 10186  0.41

> <Gold.PLP.Chemscore.Internal.Correction>
0.0555

> <Gold.Rescore>
     Score         DG    S(hbond)    S(metal)    S(lipo)     H(rot)  DE(clash)    DE(int)     intcor
     16.90     -17.36       1.84        0.00      86.01       1.69       0.11       0.35       ----

> <Gold.Chemscore.Fitness>
16.9014

> <Gold.Chemscore.DG>
-17.3638

> <Gold.Chemscore.ZeroCoef>
-5.4800

> <Gold.Chemscore.Hbond>
1.8423

> <Gold.Chemscore.Metal>
0.0000

> <Gold.Chemscore.Lipo>
86.0076

> <Gold.Chemscore.Internal_Hbond>
0.0000

> <Gold.Chemscore.DEClash>
0.1120

> <Gold.Chemscore.DEInternal>
0.3505

> <Gold.Chemscore.Rot>
1.6923

> <Gold.Chemscore.Internal.Correction>
   9.000000E+99

> <Gold.Chemscore.Hbonds>
donor molecule, donor type, donor heavy atom, donor atom, acceptor molecule, acceptor atom, score
      L1  H     7    27       P1  7948  0.96
      L1  H    10    28       P1  7948  0.90

> <Gold.Chemscore.Hbond.Weighted>
-6.1532

> <Gold.Chemscore.Metal.Weighted>
-0.0000

> <Gold.Chemscore.Lipo.Weighted>
-10.0629

> <Gold.Chemscore.Internal_Hbond.Weighted>
0.0000

> <Gold.Chemscore.DEClash.Weighted>
0.1120

> <Gold.Chemscore.DEInternal.Weighted>
0.3505

> <Gold.Chemscore.Rot.Weighted>
4.3323

> <Gold.Chemscore.Internal.Correction.Weighted>
   9.000000E+99

> <Gold.Protein.RotatedTorsions>
[ 6907 6896 6895 6894 ] final   28.71 input  -60.11 | X-H torsion
[ 7974 7965 7964 7962 ] final  -70.75 input  175.53 | X-H torsion
[ 8008 7997 7996 7995 ] final    4.93 input   59.86 | X-H torsion
[ 10167 10162 10161 10158 ] final -140.10 input  -65.29 | X-H torsion
[ 10718 10713 10712 10709 ] final   34.52 input   66.30 | X-H torsion
[ 10763 10752 10751 10750 ] final  -32.22 input  -60.55 | X-H torsion
[ 11005 11000 10999 10996 ] final -140.72 input  -57.11 | X-H torsion

> <Gold.Protein.ActiveResidues>
 VAL166  LYS551  ARG553  GLY616  TRP617  ASP618  TYR619  PRO620  LYS621  CYS622 
 ASP623  PHE694  ASN695  SER759  ASP760  ASP761  ALA762  ILE779  LEU786  VAL792 
 PHE793  MET794  SER795  GLU796  ALA797  LYS798  CYS799  TRP800  GLU811  SER814 

> <Gold.Protein.RotatedAtoms>
  152.0210  134.9823  160.0570 H   0  0  0  0  0  0  0  0  0  0  0  0  # atno 6907 bound_to 6896
  152.1337  133.4418  159.4741 H   0  0  0  0  0  0  0  0  0  0  0  0  # atno 6908 bound_to 6896
  150.6858  134.2307  159.4476 H   0  0  0  0  0  0  0  0  0  0  0  0  # atno 6909 bound_to 6896
  145.6869  140.9167  143.0802 H   0  0  0  0  0  0  0  0  0  0  0  0  # atno 7974 bound_to 7965
  154.7221  140.2714  155.6532 H   0  0  0  0  0  0  0  0  0  0  0  0  # atno 8008 bound_to 7997
  156.2826  140.2732  156.1820 H   0  0  0  0  0  0  0  0  0  0  0  0  # atno 8009 bound_to 7997
  155.0494  140.0371  157.2528 H   0  0  0  0  0  0  0  0  0  0  0  0  # atno 8010 bound_to 7997
  139.8314  143.7442  152.2666 H   0  0  0  0  0  0  0  0  0  0  0  0  # atno 10167 bound_to 10162
  157.3113  130.7401  149.6727 H   0  0  0  0  0  0  0  0  0  0  0  0  # atno 10718 bound_to 10713
  153.8102  135.6883  153.4842 H   0  0  0  0  0  0  0  0  0  0  0  0  # atno 10763 bound_to 10752
  153.1633  135.4571  154.9801 H   0  0  0  0  0  0  0  0  0  0  0  0  # atno 10764 bound_to 10752
  154.7970  135.3323  154.7583 H   0  0  0  0  0  0  0  0  0  0  0  0  # atno 10765 bound_to 10752
  140.8395  134.2419  157.4817 H   0  0  0  0  0  0  0  0  0  0  0  0  # atno 11005 bound_to 11000
  144.7008  139.8770  143.7444 LP  0  0  0  0  0  0  0  0  0  0  0  0  # atno 17320 bound_to 7965
  146.0915  139.3906  143.0402 LP  0  0  0  0  0  0  0  0  0  0  0  0  # atno 17321 bound_to 7965
  139.7650  144.7494  151.0307 LP  0  0  0  0  0  0  0  0  0  0  0  0  # atno 17342 bound_to 10162
  140.7806  143.4708  151.0149 LP  0  0  0  0  0  0  0  0  0  0  0  0  # atno 17343 bound_to 10162
  155.9678  130.4250  150.4636 LP  0  0  0  0  0  0  0  0  0  0  0  0  # atno 17370 bound_to 10713
  157.2634  131.0572  151.2305 LP  0  0  0  0  0  0  0  0  0  0  0  0  # atno 17371 bound_to 10713
  139.8703  134.9628  156.4440 LP  0  0  0  0  0  0  0  0  0  0  0  0  # atno 17394 bound_to 11000
  140.8911  133.7847  155.9573 LP  0  0  0  0  0  0  0  0  0  0  0  0  # atno 17395 bound_to 11000

$$$$
