AV-unprocessed.smi:126|AV-procd|sdf|1152|dock7
  -GOLD-   2262018293D 1   1.00000     0.00000
 Structure written by MMmdl.
 40 42  0  0  0  0  0  0  0  0  1 V2000
  153.6899  140.8671  158.9365 O   0  0  0  0  0  0  0  0  0  0  0  0
  154.2574  141.3315  159.9263 C   0  0  0  0  0  0  0  0  0  0  0  0
  155.3713  140.5381  160.6272 C   0  0  0  0  0  0  0  0  0  0  0  0
  155.0391  139.1103  160.8269 N   0  0  0  0  0  0  0  0  0  0  0  0
  154.9531  138.6162  162.1522 C   0  0  0  0  0  0  0  0  0  0  0  0
  155.1398  139.3538  163.1213 O   0  0  0  0  0  0  0  0  0  0  0  0
  154.6389  137.1974  162.2769 C   0  0  0  0  0  0  0  0  0  0  0  0
  154.5292  136.6450  163.4972 F   0  0  0  0  0  0  0  0  0  0  0  0
  154.4540  136.4277  161.1848 C   0  0  0  0  0  0  0  0  0  0  0  0
  154.5515  136.9213  159.8960 N   0  0  0  0  0  0  0  0  0  0  0  0
  154.3438  136.0430  158.6806 C   0  0  1  0  0  0  0  0  0  0  0  0
  155.6245  135.9867  157.8276 C   0  0  0  0  0  0  0  0  0  0  0  0
  155.8215  134.4981  157.6220 C   0  0  0  0  0  0  0  0  0  0  0  0
  155.2128  133.9235  158.8923 C   0  0  0  0  0  0  0  0  0  0  0  0
  154.0597  134.7330  159.0830 O   0  0  0  0  0  0  0  0  0  0  0  0
  154.8500  138.2861  159.6922 C   0  0  0  0  0  0  0  0  0  0  0  0
  154.9491  138.7422  158.5510 O   0  0  0  0  0  0  0  0  0  0  0  0
  153.9479  142.5095  160.4980 N   0  0  0  0  0  0  0  0  0  0  0  0
  152.9980  143.4776  160.0738 C   0  0  0  0  0  0  0  0  0  0  0  0
  152.6907  143.5238  158.6976 C   0  0  0  0  0  0  0  0  0  0  0  0
  151.7424  144.4426  158.2077 C   0  0  0  0  0  0  0  0  0  0  0  0
  151.0838  145.3151  159.0942 C   0  0  0  0  0  0  0  0  0  0  0  0
  151.3707  145.2643  160.4712 C   0  0  0  0  0  0  0  0  0  0  0  0
  152.3201  144.3472  160.9628 C   0  0  0  0  0  0  0  0  0  0  0  0
  156.2938  140.6352  160.0517 H   0  0  0  0  0  0  0  0  0  0  0  0
  155.5977  141.0329  161.5728 H   0  0  0  0  0  0  0  0  0  0  0  0
  154.2215  135.3864  161.3462 H   0  0  0  0  0  0  0  0  0  0  0  0
  153.4774  136.4550  158.1605 H   0  0  0  0  0  0  0  0  0  0  0  0
  155.5000  136.5394  156.8960 H   0  0  0  0  0  0  0  0  0  0  0  0
  156.4653  136.4084  158.3811 H   0  0  0  0  0  0  0  0  0  0  0  0
  155.2577  134.1608  156.7513 H   0  0  0  0  0  0  0  0  0  0  0  0
  156.8664  134.2195  157.4847 H   0  0  0  0  0  0  0  0  0  0  0  0
  154.9517  132.8694  158.7974 H   0  0  0  0  0  0  0  0  0  0  0  0
  155.8963  134.0356  159.7351 H   0  0  0  0  0  0  0  0  0  0  0  0
  154.4157  142.7141  161.3689 H   0  0  0  0  0  0  0  0  0  0  0  0
  153.1871  142.8562  158.0084 H   0  0  0  0  0  0  0  0  0  0  0  0
  151.5189  144.4762  157.1517 H   0  0  0  0  0  0  0  0  0  0  0  0
  150.3548  146.0184  158.7189 H   0  0  0  0  0  0  0  0  0  0  0  0
  150.8576  145.9259  161.1536 H   0  0  0  0  0  0  0  0  0  0  0  0
  152.5005  144.3177  162.0262 H   0  0  0  0  0  0  0  0  0  0  0  0
  1  2  2  0  0  0  0
  2  3  1  0  0  0  0
  2 18  1  0  0  0  0
  3  4  1  0  0  0  0
  3 25  1  0  0  0  0
  3 26  1  0  0  0  0
  4 16  1  0  0  0  0
  4  5  1  0  0  0  0
  5  6  2  0  0  0  0
  5  7  1  0  0  0  0
  7  8  1  0  0  0  0
  7  9  2  0  0  0  0
  9 10  1  0  0  0  0
  9 27  1  0  0  0  0
 10 11  1  0  0  0  0
 10 16  1  0  0  0  0
 11 15  1  0  0  0  0
 11 12  1  0  0  0  0
 11 28  1  0  0  0  0
 12 13  1  0  0  0  0
 12 29  1  0  0  0  0
 12 30  1  0  0  0  0
 13 14  1  0  0  0  0
 13 31  1  0  0  0  0
 13 32  1  0  0  0  0
 14 15  1  0  0  0  0
 14 33  1  0  0  0  0
 14 34  1  0  0  0  0
 16 17  2  0  0  0  0
 18 19  1  0  0  0  0
 18 35  1  0  0  0  0
 19 24  1  0  0  0  0
 19 20  2  0  0  0  0
 20 21  1  0  0  0  0
 20 36  1  0  0  0  0
 21 22  2  0  0  0  0
 21 37  1  0  0  0  0
 22 23  1  0  0  0  0
 22 38  1  0  0  0  0
 23 24  2  0  0  0  0
 23 39  1  0  0  0  0
 24 40  1  0  0  0  0
M  END
> <s_m_source_file>
AV-unprocessed.smi

> <i_m_source_file_index>
126

> <i_lp_mmshare_version>
43012

> <i_f3d_flags>
0

> <s_epik_input>
W2NIXTFbY0hdW2NIXVtjSF1bY0hdYzFbTkhdQyg9TylbQ0gyXW4yYyg9TyljKEYpW2NIXW4oYzI9TylbQ0BASF0zW0NIMl1bQ0gyXVtDSDJdTzM=

> <s_epik_cmdline>
J2VwaWtfcHl0aG9uJywgJy1waCcsICc3LjAnLCAnLXRuJywgJzgnLCAnLW1hJywgJzIwMCcsICctbWV0YWxfYmluZGluZycsICctaW1hZScsICc8aW5maWxlLm1hZT4nLCAnLW9tYWUnLCAnPG91dGZpbGUubWFlPic=

> <r_lp_tautomer_probability>
1

> <r_epik_Ionization_Penalty>
1.86934e-06

> <r_epik_Ionization_Penalty_Charging>
3.88729e-08

> <r_epik_Ionization_Penalty_Neutral>
1.83046e-06

> <r_epik_State_Penalty>
-0

> <r_epik_Charging_Adjusted_Penalty>
3.88729e-08

> <i_epik_Tot_Q>
0

> <i_epik_Tot_abs_Q>
0

> <r_epik_Metal_State_Penalty>
-0

> <b_epik_Metal_Only>
0

> <s_epik_Chemistry_Notes>
This compound contains an acetal/aminal-like group ( X-CH(R)-Y where X, Y are N, S, or O) that may be acid/base labile, releasing an aldehyde.

> <s_lp_Force_Field>
OPLS_2005

> <r_lp_Energy>
33.9476

> <b_lp_Chiralities_Consistent>
1

> <s_lp_Variant>
AV-unprocessed.smi:126-2

> <Gold.Version>
5.8.1

> <Gold.Id.Protein>
6NUR|6NUR_protein|mol2

> <Gold.PLP.Fitness>
48.8437

> <Gold.PLP.PLP>
-43.5158

> <Gold.PLP.part.hbond>
-3.0000

> <Gold.PLP.part.metal>
0.0000

> <Gold.PLP.part.buried>
-1.1433

> <Gold.PLP.part.nonpolar>
-39.7784

> <Gold.PLP.part.repulsive>
0.0166

> <Gold.PLP.ligand.clash>
0.0023

> <Gold.PLP.ligand.torsion>
0.3467

> <Gold.PLP.Chemscore.Hbond>
2.0000

> <Gold.PLP.Chemscore.CHOScore>
0.0000

> <Gold.PLP.Chemscore.Metal>
0.0000

> <Gold.Chemscore.Hbonds>
donor molecule, donor type, donor heavy atom, donor atom, acceptor molecule, acceptor atom, score
      P1  H  6896  6907       L1    15  1.00
      P1  H  7997  8009       L1    17  1.00

> <Gold.PLP.Chemscore.Internal.Correction>
0.0236

> <Gold.Rescore>
     Score         DG    S(hbond)    S(metal)    S(lipo)     H(rot)  DE(clash)    DE(int)     intcor
     12.90     -19.23       1.97        0.00      97.59       1.66       0.05       6.29       ----

> <Gold.Chemscore.Fitness>
12.9008

> <Gold.Chemscore.DG>
-19.2344

> <Gold.Chemscore.ZeroCoef>
-5.4800

> <Gold.Chemscore.Hbond>
1.9735

> <Gold.Chemscore.Metal>
0.0000

> <Gold.Chemscore.Lipo>
97.5897

> <Gold.Chemscore.Internal_Hbond>
0.0000

> <Gold.Chemscore.DEClash>
0.0484

> <Gold.Chemscore.DEInternal>
6.2852

> <Gold.Chemscore.Rot>
1.6621

> <Gold.Chemscore.Internal.Correction>
   9.000000E+99

> <Gold.Chemscore.Hbonds>
donor molecule, donor type, donor heavy atom, donor atom, acceptor molecule, acceptor atom, score
      P1  H  6896  6907       L1    15  0.98
      P1  H  7997  8009       L1    17  0.97

> <Gold.Chemscore.Hbond.Weighted>
-6.5914

> <Gold.Chemscore.Metal.Weighted>
-0.0000

> <Gold.Chemscore.Lipo.Weighted>
-11.4180

> <Gold.Chemscore.Internal_Hbond.Weighted>
0.0000

> <Gold.Chemscore.DEClash.Weighted>
0.0484

> <Gold.Chemscore.DEInternal.Weighted>
6.2852

> <Gold.Chemscore.Rot.Weighted>
4.2550

> <Gold.Chemscore.Internal.Correction.Weighted>
   9.000000E+99

> <Gold.Protein.RotatedTorsions>
[ 6907 6896 6895 6894 ] final   88.21 input  -60.11 | X-H torsion
[ 7974 7965 7964 7962 ] final -143.70 input  175.53 | X-H torsion
[ 8008 7997 7996 7995 ] final  132.89 input   59.86 | X-H torsion
[ 10167 10162 10161 10158 ] final   75.03 input  -65.29 | X-H torsion
[ 10718 10713 10712 10709 ] final   41.97 input   66.30 | X-H torsion
[ 10763 10752 10751 10750 ] final  -54.65 input  -60.55 | X-H torsion
[ 11005 11000 10999 10996 ] final -176.45 input  -57.11 | X-H torsion

> <Gold.Protein.ActiveResidues>
 VAL166  LYS551  ARG553  GLY616  TRP617  ASP618  TYR619  PRO620  LYS621  CYS622 
 ASP623  PHE694  ASN695  SER759  ASP760  ASP761  ALA762  ILE779  LEU786  VAL792 
 PHE793  MET794  SER795  GLU796  ALA797  LYS798  CYS799  TRP800  GLU811  SER814 

> <Gold.Protein.RotatedAtoms>
  152.5422  134.2157  159.8767 H   0  0  0  0  0  0  0  0  0  0  0  0  # atno 6907 bound_to 6896
  151.2137  133.4534  159.2606 H   0  0  0  0  0  0  0  0  0  0  0  0  # atno 6908 bound_to 6896
  151.0872  134.9907  159.8441 H   0  0  0  0  0  0  0  0  0  0  0  0  # atno 6909 bound_to 6896
  144.8350  140.5801  143.5490 H   0  0  0  0  0  0  0  0  0  0  0  0  # atno 7974 bound_to 7965
  156.2987  140.2535  156.3163 H   0  0  0  0  0  0  0  0  0  0  0  0  # atno 8008 bound_to 7997
  154.9278  140.0399  157.2051 H   0  0  0  0  0  0  0  0  0  0  0  0  # atno 8009 bound_to 7997
  154.8248  140.2866  155.5767 H   0  0  0  0  0  0  0  0  0  0  0  0  # atno 8010 bound_to 7997
  140.0074  144.5640  150.7687 H   0  0  0  0  0  0  0  0  0  0  0  0  # atno 10167 bound_to 10162
  157.3996  130.7852  149.7337 H   0  0  0  0  0  0  0  0  0  0  0  0  # atno 10718 bound_to 10713
  154.1782  135.6448  153.5027 H   0  0  0  0  0  0  0  0  0  0  0  0  # atno 10763 bound_to 10752
  153.0066  135.5399  154.6542 H   0  0  0  0  0  0  0  0  0  0  0  0  # atno 10764 bound_to 10752
  154.5899  135.2933  155.0619 H   0  0  0  0  0  0  0  0  0  0  0  0  # atno 10765 bound_to 10752
  140.4520  134.6334  157.4805 H   0  0  0  0  0  0  0  0  0  0  0  0  # atno 11005 bound_to 11000
  145.4814  139.1495  143.3760 LP  0  0  0  0  0  0  0  0  0  0  0  0  # atno 17320 bound_to 7965
  146.2650  140.4950  142.8838 LP  0  0  0  0  0  0  0  0  0  0  0  0  # atno 17321 bound_to 7965
  140.7395  143.2792  151.3649 LP  0  0  0  0  0  0  0  0  0  0  0  0  # atno 17342 bound_to 10162
  139.6229  144.0871  152.2408 LP  0  0  0  0  0  0  0  0  0  0  0  0  # atno 17343 bound_to 10162
  155.9819  130.4014  150.3443 LP  0  0  0  0  0  0  0  0  0  0  0  0  # atno 17370 bound_to 10713
  157.1569  131.0335  151.2859 LP  0  0  0  0  0  0  0  0  0  0  0  0  # atno 17371 bound_to 10713
  140.0000  134.6850  155.9545 LP  0  0  0  0  0  0  0  0  0  0  0  0  # atno 17394 bound_to 11000
  141.1660  133.6537  156.4480 LP  0  0  0  0  0  0  0  0  0  0  0  0  # atno 17395 bound_to 11000

$$$$
