AV-unprocessed.smi:1445|AV-procd|sdf|5888|dock6
  -GOLD-   22720 5573D 1   1.00000     0.00000
 Structure written by MMmdl.
 46 47  0  0  0  0  0  0  0  0  2 V2000
  151.9221  137.8349  154.1676 C   0  0  0  0  0  0  0  0  0  0  0  0
  150.5526  138.0937  153.8783 O   0  0  0  0  0  0  0  0  0  0  0  0
  149.9739  139.2377  154.3945 C   0  0  0  0  0  0  0  0  0  0  0  0
  150.7576  140.1020  155.0870 N   0  0  0  0  0  0  0  0  0  0  0  0
  150.1939  141.2200  155.5888 C   0  0  0  0  0  0  0  0  0  0  0  0
  148.8332  141.5376  155.4239 C   0  0  0  0  0  0  0  0  0  0  0  0
  148.0184  140.6431  154.7059 C   0  0  0  0  0  0  0  0  0  0  0  0
  148.5922  139.4575  154.1862 C   0  0  0  0  0  0  0  0  0  0  0  0
  147.8643  138.4974  153.4314 N   0  0  0  0  0  0  0  0  0  0  0  0
  146.5460  138.2406  153.4578 C   0  0  0  0  0  0  0  0  0  0  0  0
  145.7211  138.8143  154.1689 O   0  0  0  0  0  0  0  0  0  0  0  0
  146.2285  137.2458  152.6173 N   0  0  0  0  0  0  0  0  0  0  0  0
  144.8843  136.7148  152.4232 C   0  0  0  0  0  0  0  0  0  0  0  0
  144.6704  135.4150  153.2227 C   0  0  0  0  0  0  0  0  0  0  0  0
  144.9699  134.2005  152.4227 N   0  3  2  0  0  0  0  0  0  0  0  0
  146.4278  134.0277  152.1925 C   0  0  0  0  0  0  0  0  0  0  0  0
  146.7236  132.6955  151.4860 C   0  0  0  0  0  0  0  0  0  0  0  0
  145.9505  132.5916  150.1657 C   0  0  0  0  0  0  0  0  0  0  0  0
  144.4469  132.8001  150.4115 C   0  0  2  0  0  0  0  0  0  0  0  0
  143.6497  132.7299  149.1014 C   0  0  0  0  0  0  0  0  0  0  0  0
  144.2045  134.1333  151.1482 C   0  0  0  0  0  0  0  0  0  0  0  0
  152.2214  136.9025  153.6889 H   0  0  0  0  0  0  0  0  0  0  0  0
  152.0884  137.7239  155.2400 H   0  0  0  0  0  0  0  0  0  0  0  0
  152.5684  138.6255  153.7839 H   0  0  0  0  0  0  0  0  0  0  0  0
  150.8488  141.8846  156.1327 H   0  0  0  0  0  0  0  0  0  0  0  0
  148.4250  142.4495  155.8340 H   0  0  0  0  0  0  0  0  0  0  0  0
  146.9784  140.8892  154.5562 H   0  0  0  0  0  0  0  0  0  0  0  0
  148.4273  137.8825  152.8617 H   0  0  0  0  0  0  0  0  0  0  0  0
  146.9695  136.8281  152.0729 H   0  0  0  0  0  0  0  0  0  0  0  0
  144.1430  137.4645  152.7058 H   0  0  0  0  0  0  0  0  0  0  0  0
  144.7590  136.5415  151.3553 H   0  0  0  0  0  0  0  0  0  0  0  0
  145.2703  135.4162  154.1342 H   0  0  0  0  0  0  0  0  0  0  0  0
  143.6278  135.3781  153.5424 H   0  0  0  0  0  0  0  0  0  0  0  0
  146.8049  134.8620  151.5986 H   0  0  0  0  0  0  0  0  0  0  0  0
  146.9591  134.0501  153.1449 H   0  0  0  0  0  0  0  0  0  0  0  0
  147.7938  132.6021  151.2994 H   0  0  0  0  0  0  0  0  0  0  0  0
  146.4496  131.8652  152.1384 H   0  0  0  0  0  0  0  0  0  0  0  0
  146.3214  133.3396  149.4631 H   0  0  0  0  0  0  0  0  0  0  0  0
  146.1283  131.6181  149.7074 H   0  0  0  0  0  0  0  0  0  0  0  0
  144.0943  131.9911  151.0534 H   0  0  0  0  0  0  0  0  0  0  0  0
  143.9474  133.5214  148.4126 H   0  0  0  0  0  0  0  0  0  0  0  0
  142.5801  132.8341  149.2861 H   0  0  0  0  0  0  0  0  0  0  0  0
  143.8047  131.7750  148.5979 H   0  0  0  0  0  0  0  0  0  0  0  0
  143.1384  134.2359  151.3461 H   0  0  0  0  0  0  0  0  0  0  0  0
  144.4874  134.9735  150.5115 H   0  0  0  0  0  0  0  0  0  0  0  0
  144.6803  133.4123  152.9842 H   0  0  0  0  0  0  0  0  0  0  0  0
  1  2  1  0  0  0  0
  1 22  1  0  0  0  0
  1 23  1  0  0  0  0
  1 24  1  0  0  0  0
  2  3  1  0  0  0  0
  3  8  1  0  0  0  0
  3  4  2  0  0  0  0
  4  5  1  0  0  0  0
  5  6  2  0  0  0  0
  5 25  1  0  0  0  0
  6  7  1  0  0  0  0
  6 26  1  0  0  0  0
  7  8  2  0  0  0  0
  7 27  1  0  0  0  0
  8  9  1  0  0  0  0
  9 10  1  0  0  0  0
  9 28  1  0  0  0  0
 10 11  2  0  0  0  0
 10 12  1  0  0  0  0
 12 13  1  0  0  0  0
 12 29  1  0  0  0  0
 13 14  1  0  0  0  0
 13 30  1  0  0  0  0
 13 31  1  0  0  0  0
 14 15  1  0  0  0  0
 14 32  1  0  0  0  0
 14 33  1  0  0  0  0
 15 21  1  0  0  0  0
 15 16  1  0  0  0  0
 15 46  1  0  0  0  0
 16 17  1  0  0  0  0
 16 34  1  0  0  0  0
 16 35  1  0  0  0  0
 17 18  1  0  0  0  0
 17 36  1  0  0  0  0
 17 37  1  0  0  0  0
 18 19  1  0  0  0  0
 18 38  1  0  0  0  0
 18 39  1  0  0  0  0
 19 20  1  0  0  0  0
 19 21  1  0  0  0  0
 19 40  1  0  0  0  0
 20 41  1  0  0  0  0
 20 42  1  0  0  0  0
 20 43  1  0  0  0  0
 21 44  1  0  0  0  0
 21 45  1  0  0  0  0
M  CHG  1  15   1
M  END
> <s_m_source_file>
AV-unprocessed.smi

> <i_m_source_file_index>
1445

> <i_lp_mmshare_version>
43012

> <i_f3d_flags>
0

> <s_epik_input>
W0NIM11PYzFuW2NIXVtjSF1bY0hdYzFbTkhdQyg9TylbTkhdW0NIMl1bQ0gyXU4yW0NIMl1bQ0gyXVtDSDJdW0NAQEhdKFtDSDNdKVtDSDJdMg==

> <s_epik_cmdline>
J2VwaWtfcHl0aG9uJywgJy1waCcsICc3LjAnLCAnLXRuJywgJzgnLCAnLW1hJywgJzIwMCcsICctbWV0YWxfYmluZGluZycsICctaW1hZScsICc8aW5maWxlLm1hZT4nLCAnLW9tYWUnLCAnPG91dGZpbGUubWFlPic=

> <r_lp_tautomer_probability>
1

> <r_epik_Ionization_Penalty>
0.00179544

> <r_epik_Ionization_Penalty_Charging>
0.00171832

> <r_epik_Ionization_Penalty_Neutral>
7.71118e-05

> <r_epik_State_Penalty>
0.0011618

> <r_epik_Charging_Adjusted_Penalty>
0.00288012

> <i_epik_Tot_Q>
1

> <i_epik_Tot_abs_Q>
1

> <r_epik_Metal_State_Penalty>
-0

> <b_epik_Metal_Only>
0

> <s_lp_Force_Field>
OPLS_2005

> <r_lp_Energy>
18.8635

> <b_lp_Chiralities_Consistent>
1

> <s_lp_Variant>
AV-unprocessed.smi:1445-4

> <Gold.Version>
5.8.1

> <Gold.Id.Protein>
6NUR|6NUR_protein|mol2

> <Gold.PLP.Fitness>
42.9992

> <Gold.PLP.PLP>
-35.9169

> <Gold.PLP.part.hbond>
-3.6841

> <Gold.PLP.part.metal>
0.0000

> <Gold.PLP.part.buried>
-3.5613

> <Gold.PLP.part.nonpolar>
-31.3618

> <Gold.PLP.part.repulsive>
1.6126

> <Gold.PLP.ligand.clash>
0.0000

> <Gold.PLP.ligand.torsion>
0.5528

> <Gold.PLP.Chemscore.Hbond>
2.7125

> <Gold.PLP.Chemscore.CHOScore>
0.0000

> <Gold.PLP.Chemscore.Metal>
0.0000

> <Gold.Chemscore.Hbonds>
donor molecule, donor type, donor heavy atom, donor atom, acceptor molecule, acceptor atom, score
      L1  H     9    28       P1  7948  1.00
      L1  H    12    29       P1  7948  0.91
      P1  H  7989  7998       L1     4  0.76

> <Gold.PLP.Chemscore.Internal.Correction>
0.0505

> <Gold.Rescore>
     Score         DG    S(hbond)    S(metal)    S(lipo)     H(rot)  DE(clash)    DE(int)     intcor
     16.22     -17.91       1.95        0.00      88.05       1.71       0.11       1.58       ----

> <Gold.Chemscore.Fitness>
16.2235

> <Gold.Chemscore.DG>
-17.9148

> <Gold.Chemscore.ZeroCoef>
-5.4800

> <Gold.Chemscore.Hbond>
1.9499

> <Gold.Chemscore.Metal>
0.0000

> <Gold.Chemscore.Lipo>
88.0488

> <Gold.Chemscore.Internal_Hbond>
0.0000

> <Gold.Chemscore.DEClash>
0.1081

> <Gold.Chemscore.DEInternal>
1.5832

> <Gold.Chemscore.Rot>
1.7107

> <Gold.Chemscore.Internal.Correction>
   9.000000E+99

> <Gold.Chemscore.Hbonds>
donor molecule, donor type, donor heavy atom, donor atom, acceptor molecule, acceptor atom, score
      L1  H     9    28       P1  7948  0.97
      L1  H    12    29       P1  7948  0.85
      P1  H  7989  7998       L1     4  0.02

> <Gold.Chemscore.Hbond.Weighted>
-6.5125

> <Gold.Chemscore.Metal.Weighted>
-0.0000

> <Gold.Chemscore.Lipo.Weighted>
-10.3017

> <Gold.Chemscore.Internal_Hbond.Weighted>
0.0000

> <Gold.Chemscore.DEClash.Weighted>
0.1081

> <Gold.Chemscore.DEInternal.Weighted>
1.5832

> <Gold.Chemscore.Rot.Weighted>
4.3794

> <Gold.Chemscore.Internal.Correction.Weighted>
   9.000000E+99

> <Gold.Protein.RotatedTorsions>
[ 6907 6896 6895 6894 ] final -101.12 input  -60.11 | X-H torsion
[ 7974 7965 7964 7962 ] final -172.95 input  175.53 | X-H torsion
[ 8008 7997 7996 7995 ] final    2.77 input   59.86 | X-H torsion
[ 10167 10162 10161 10158 ] final -135.06 input  -65.29 | X-H torsion
[ 10718 10713 10712 10709 ] final  -60.34 input   66.30 | X-H torsion
[ 10763 10752 10751 10750 ] final  165.91 input  -60.55 | X-H torsion
[ 11005 11000 10999 10996 ] final  163.09 input  -57.11 | X-H torsion

> <Gold.Protein.ActiveResidues>
 VAL166  LYS551  ARG553  GLY616  TRP617  ASP618  TYR619  PRO620  LYS621  CYS622 
 ASP623  PHE694  ASN695  SER759  ASP760  ASP761  ALA762  ILE779  LEU786  VAL792 
 PHE793  MET794  SER795  GLU796  ALA797  LYS798  CYS799  TRP800  GLU811  SER814 

> <Gold.Protein.RotatedAtoms>
  150.7142  134.0782  159.3888 H   0  0  0  0  0  0  0  0  0  0  0  0  # atno 6907 bound_to 6896
  151.8766  135.0467  160.0494 H   0  0  0  0  0  0  0  0  0  0  0  0  # atno 6908 bound_to 6896
  152.2601  133.5254  159.5413 H   0  0  0  0  0  0  0  0  0  0  0  0  # atno 6909 bound_to 6896
  144.7142  140.1696  143.6368 H   0  0  0  0  0  0  0  0  0  0  0  0  # atno 7974 bound_to 7965
  154.6956  140.2662  155.6769 H   0  0  0  0  0  0  0  0  0  0  0  0  # atno 8008 bound_to 7997
  156.2747  140.2782  156.1473 H   0  0  0  0  0  0  0  0  0  0  0  0  # atno 8009 bound_to 7997
  155.0835  140.0373  157.2637 H   0  0  0  0  0  0  0  0  0  0  0  0  # atno 8010 bound_to 7997
  139.8818  143.6830  152.2626 H   0  0  0  0  0  0  0  0  0  0  0  0  # atno 10167 bound_to 10162
  156.0997  130.4188  150.0840 H   0  0  0  0  0  0  0  0  0  0  0  0  # atno 10718 bound_to 10713
  154.3311  135.2755  155.2471 H   0  0  0  0  0  0  0  0  0  0  0  0  # atno 10763 bound_to 10752
  154.4783  135.5865  153.6374 H   0  0  0  0  0  0  0  0  0  0  0  0  # atno 10764 bound_to 10752
  152.9866  135.6105  154.3504 H   0  0  0  0  0  0  0  0  0  0  0  0  # atno 10765 bound_to 10752
  140.2323  134.8114  157.3329 H   0  0  0  0  0  0  0  0  0  0  0  0  # atno 11005 bound_to 11000
  145.8956  139.2401  143.1524 LP  0  0  0  0  0  0  0  0  0  0  0  0  # atno 17320 bound_to 7965
  145.9861  140.8642  143.0090 LP  0  0  0  0  0  0  0  0  0  0  0  0  # atno 17321 bound_to 7965
  139.7189  144.7606  151.0987 LP  0  0  0  0  0  0  0  0  0  0  0  0  # atno 17342 bound_to 10162
  140.7743  143.5233  150.9510 LP  0  0  0  0  0  0  0  0  0  0  0  0  # atno 17343 bound_to 10162
  156.8831  130.9563  151.3597 LP  0  0  0  0  0  0  0  0  0  0  0  0  # atno 17370 bound_to 10713
  157.6165  130.8622  149.9037 LP  0  0  0  0  0  0  0  0  0  0  0  0  # atno 17371 bound_to 10713
  140.1738  134.4575  155.7815 LP  0  0  0  0  0  0  0  0  0  0  0  0  # atno 17394 bound_to 11000
  141.2217  133.6953  156.7752 LP  0  0  0  0  0  0  0  0  0  0  0  0  # atno 17395 bound_to 11000

$$$$
