AV-unprocessed.smi:1237|AV-procd|sdf|5183|dock1
  -GOLD-   22720 4263D 1   1.00000     0.00000
 Structure written by MMmdl.
 44 45  0  0  0  0  0  0  0  0  1 V2000
  154.5173  134.0503  157.7189 C   0  0  0  0  0  0  0  0  0  0  0  0
  154.1477  133.7330  159.0489 O   0  0  0  0  0  0  0  0  0  0  0  0
  155.2654  133.6491  159.9185 C   0  0  0  0  0  0  0  0  0  0  0  0
  156.0097  134.9946  159.9265 C   0  0  0  0  0  0  0  0  0  0  0  0
  155.2847  136.0139  160.6931 N   0  0  0  0  0  0  0  0  0  0  0  0
  154.9334  137.1308  159.9534 N   0  0  0  0  0  0  0  0  0  0  0  0
  154.3116  138.1155  160.5171 C   0  0  0  0  0  0  0  0  0  0  0  0
  153.9256  139.3379  159.7592 C   0  0  0  0  0  0  0  0  0  0  0  0
  153.9417  139.3714  158.5275 O   0  0  0  0  0  0  0  0  0  0  0  0
  153.5574  140.3896  160.5139 N   0  0  0  0  0  0  0  0  0  0  0  0
  153.1370  141.6964  160.0118 C   0  0  0  0  0  0  0  0  0  0  0  0
  152.9861  142.6455  161.2199 C   0  0  0  0  0  0  0  0  0  0  0  0
  152.2213  143.9619  160.9896 C   0  0  0  0  0  0  0  0  0  0  0  0
  152.3979  144.6100  159.6075 C   0  0  0  0  0  0  0  0  0  0  0  0
  151.4201  144.0481  158.5618 C   0  0  0  0  0  0  0  0  0  0  0  0
  151.7594  142.6386  158.0556 C   0  0  0  0  0  0  0  0  0  0  0  0
  151.8668  141.5554  159.1442 C   0  0  0  0  0  0  0  0  0  0  0  0
  153.9637  138.0657  161.9274 C   0  0  0  0  0  0  0  0  0  0  0  0
  154.3107  136.9685  162.6355 C   0  0  0  0  0  0  0  0  0  0  0  0
  155.0208  135.8442  162.0238 C   0  0  0  0  0  0  0  0  0  0  0  0
  155.3554  134.8387  162.6500 O   0  0  0  0  0  0  0  0  0  0  0  0
  153.6256  134.1078  157.0947 H   0  0  0  0  0  0  0  0  0  0  0  0
  155.1744  133.2874  157.2995 H   0  0  0  0  0  0  0  0  0  0  0  0
  155.0242  135.0149  157.6702 H   0  0  0  0  0  0  0  0  0  0  0  0
  154.9237  133.4166  160.9279 H   0  0  0  0  0  0  0  0  0  0  0  0
  155.9311  132.8418  159.6089 H   0  0  0  0  0  0  0  0  0  0  0  0
  157.0127  134.8546  160.3338 H   0  0  0  0  0  0  0  0  0  0  0  0
  156.1608  135.3375  158.9015 H   0  0  0  0  0  0  0  0  0  0  0  0
  153.5705  140.2731  161.5171 H   0  0  0  0  0  0  0  0  0  0  0  0
  153.9407  142.0873  159.3849 H   0  0  0  0  0  0  0  0  0  0  0  0
  152.4975  142.1212  162.0427 H   0  0  0  0  0  0  0  0  0  0  0  0
  153.9866  142.8835  161.5839 H   0  0  0  0  0  0  0  0  0  0  0  0
  151.1591  143.7996  161.1767 H   0  0  0  0  0  0  0  0  0  0  0  0
  152.5389  144.6704  161.7554 H   0  0  0  0  0  0  0  0  0  0  0  0
  152.1935  145.6765  159.7087 H   0  0  0  0  0  0  0  0  0  0  0  0
  153.4310  144.5368  159.2657 H   0  0  0  0  0  0  0  0  0  0  0  0
  150.4046  144.0616  158.9595 H   0  0  0  0  0  0  0  0  0  0  0  0
  151.4066  144.7207  157.7034 H   0  0  0  0  0  0  0  0  0  0  0  0
  150.9868  142.3402  157.3463 H   0  0  0  0  0  0  0  0  0  0  0  0
  152.6859  142.6707  157.4813 H   0  0  0  0  0  0  0  0  0  0  0  0
  151.8892  140.5938  158.6294 H   0  0  0  0  0  0  0  0  0  0  0  0
  150.9708  141.5354  159.7661 H   0  0  0  0  0  0  0  0  0  0  0  0
  153.4401  138.8811  162.4049 H   0  0  0  0  0  0  0  0  0  0  0  0
  154.0584  136.9181  163.6844 H   0  0  0  0  0  0  0  0  0  0  0  0
  1  2  1  0  0  0  0
  1 22  1  0  0  0  0
  1 23  1  0  0  0  0
  1 24  1  0  0  0  0
  2  3  1  0  0  0  0
  3  4  1  0  0  0  0
  3 25  1  0  0  0  0
  3 26  1  0  0  0  0
  4  5  1  0  0  0  0
  4 27  1  0  0  0  0
  4 28  1  0  0  0  0
  5 20  1  0  0  0  0
  5  6  1  0  0  0  0
  6  7  2  0  0  0  0
  7  8  1  0  0  0  0
  7 18  1  0  0  0  0
  8  9  2  0  0  0  0
  8 10  1  0  0  0  0
 10 11  1  0  0  0  0
 10 29  1  0  0  0  0
 11 17  1  0  0  0  0
 11 12  1  0  0  0  0
 11 30  1  0  0  0  0
 12 13  1  0  0  0  0
 12 31  1  0  0  0  0
 12 32  1  0  0  0  0
 13 14  1  0  0  0  0
 13 33  1  0  0  0  0
 13 34  1  0  0  0  0
 14 15  1  0  0  0  0
 14 35  1  0  0  0  0
 14 36  1  0  0  0  0
 15 16  1  0  0  0  0
 15 37  1  0  0  0  0
 15 38  1  0  0  0  0
 16 17  1  0  0  0  0
 16 39  1  0  0  0  0
 16 40  1  0  0  0  0
 17 41  1  0  0  0  0
 17 42  1  0  0  0  0
 18 19  2  0  0  0  0
 18 43  1  0  0  0  0
 19 20  1  0  0  0  0
 19 44  1  0  0  0  0
 20 21  2  0  0  0  0
M  END
> <s_m_source_file>
AV-unprocessed.smi

> <i_m_source_file_index>
1237

> <i_lp_mmshare_version>
43012

> <i_f3d_flags>
0

> <s_epik_input>
W0NIM11PW0NIMl1bQ0gyXW4xbmMoW2NIXVtjSF1jMT1PKUMoPU8pW05IXVtDSF0yW0NIMl1bQ0gyXVtDSDJdW0NIMl1bQ0gyXVtDSDJdMg==

> <s_epik_cmdline>
J2VwaWtfcHl0aG9uJywgJy1waCcsICc3LjAnLCAnLXRuJywgJzgnLCAnLW1hJywgJzIwMCcsICctbWV0YWxfYmluZGluZycsICctaW1hZScsICc8aW5maWxlLm1hZT4nLCAnLW9tYWUnLCAnPG91dGZpbGUubWFlPic=

> <r_lp_tautomer_probability>
1

> <r_epik_Ionization_Penalty>
5.81787e-07

> <r_epik_Ionization_Penalty_Charging>
6.75108e-09

> <r_epik_Ionization_Penalty_Neutral>
5.75036e-07

> <r_epik_State_Penalty>
-0

> <r_epik_Charging_Adjusted_Penalty>
6.75108e-09

> <i_epik_Tot_Q>
0

> <i_epik_Tot_abs_Q>
0

> <r_epik_Metal_State_Penalty>
-0

> <b_epik_Metal_Only>
0

> <s_lp_Force_Field>
OPLS_2005

> <r_lp_Energy>
36.1796

> <b_lp_Chiralities_Consistent>
1

> <s_lp_Variant>
AV-unprocessed.smi:1237-1

> <Gold.Version>
5.8.1

> <Gold.Id.Protein>
6NUR|6NUR_protein|mol2

> <Gold.PLP.Fitness>
42.7074

> <Gold.PLP.PLP>
-36.9463

> <Gold.PLP.part.hbond>
-2.0000

> <Gold.PLP.part.metal>
0.0000

> <Gold.PLP.part.buried>
-5.3218

> <Gold.PLP.part.nonpolar>
-29.7638

> <Gold.PLP.part.repulsive>
0.0748

> <Gold.PLP.ligand.clash>
0.0000

> <Gold.PLP.ligand.torsion>
0.1680

> <Gold.PLP.Chemscore.Hbond>
2.0000

> <Gold.PLP.Chemscore.CHOScore>
0.0000

> <Gold.PLP.Chemscore.Metal>
0.0000

> <Gold.Chemscore.Hbonds>
donor molecule, donor type, donor heavy atom, donor atom, acceptor molecule, acceptor atom, score
      P1  H  6896  6909       L1     2  1.00
      P1  H  7997  8010       L1     9  1.00

> <Gold.PLP.Chemscore.Internal.Correction>
0.0969

> <Gold.Rescore>
     Score         DG    S(hbond)    S(metal)    S(lipo)     H(rot)  DE(clash)    DE(int)     intcor
     18.99     -20.30       1.98        0.00     103.94       1.55       0.00       1.32       ----

> <Gold.Chemscore.Fitness>
18.9881

> <Gold.Chemscore.DG>
-20.3041

> <Gold.Chemscore.ZeroCoef>
-5.4800

> <Gold.Chemscore.Hbond>
1.9838

> <Gold.Chemscore.Metal>
0.0000

> <Gold.Chemscore.Lipo>
103.9355

> <Gold.Chemscore.Internal_Hbond>
0.0000

> <Gold.Chemscore.DEClash>
0.0000

> <Gold.Chemscore.DEInternal>
1.3160

> <Gold.Chemscore.Rot>
1.5478

> <Gold.Chemscore.Internal.Correction>
   9.000000E+99

> <Gold.Chemscore.Hbonds>
donor molecule, donor type, donor heavy atom, donor atom, acceptor molecule, acceptor atom, score
      P1  H  6896  6909       L1     2  0.96
      P1  H  7997  8010       L1     9  1.00

> <Gold.Chemscore.Hbond.Weighted>
-6.6259

> <Gold.Chemscore.Metal.Weighted>
-0.0000

> <Gold.Chemscore.Lipo.Weighted>
-12.1604

> <Gold.Chemscore.Internal_Hbond.Weighted>
0.0000

> <Gold.Chemscore.DEClash.Weighted>
0.0000

> <Gold.Chemscore.DEInternal.Weighted>
1.3160

> <Gold.Chemscore.Rot.Weighted>
3.9623

> <Gold.Chemscore.Internal.Correction.Weighted>
   9.000000E+99

> <Gold.Protein.RotatedTorsions>
[ 6907 6896 6895 6894 ] final -133.88 input  -60.11 | X-H torsion
[ 7974 7965 7964 7962 ] final   79.01 input  175.53 | X-H torsion
[ 8008 7997 7996 7995 ] final   13.93 input   59.86 | X-H torsion
[ 10167 10162 10161 10158 ] final   -6.72 input  -65.29 | X-H torsion
[ 10718 10713 10712 10709 ] final  -73.70 input   66.30 | X-H torsion
[ 10763 10752 10751 10750 ] final  179.41 input  -60.55 | X-H torsion
[ 11005 11000 10999 10996 ] final   57.81 input  -57.11 | X-H torsion

> <Gold.Protein.ActiveResidues>
 VAL166  LYS551  ARG553  GLY616  TRP617  ASP618  TYR619  PRO620  LYS621  CYS622 
 ASP623  PHE694  ASN695  SER759  ASP760  ASP761  ALA762  ILE779  LEU786  VAL792 
 PHE793  MET794  SER795  GLU796  ALA797  LYS798  CYS799  TRP800  GLU811  SER814 

> <Gold.Protein.RotatedAtoms>
  150.9792  133.6263  159.2725 H   0  0  0  0  0  0  0  0  0  0  0  0  # atno 6907 bound_to 6896
  151.3523  135.0886  159.9417 H   0  0  0  0  0  0  0  0  0  0  0  0  # atno 6908 bound_to 6896
  152.5210  133.9382  159.7668 H   0  0  0  0  0  0  0  0  0  0  0  0  # atno 6909 bound_to 6896
  145.6698  139.2493  143.1875 H   0  0  0  0  0  0  0  0  0  0  0  0  # atno 7974 bound_to 7965
  154.8413  140.2915  155.5658 H   0  0  0  0  0  0  0  0  0  0  0  0  # atno 8008 bound_to 7997
  156.3012  140.2513  156.3287 H   0  0  0  0  0  0  0  0  0  0  0  0  # atno 8009 bound_to 7997
  154.9122  140.0388  157.1942 H   0  0  0  0  0  0  0  0  0  0  0  0  # atno 8010 bound_to 7997
  140.7006  143.6162  150.8656 H   0  0  0  0  0  0  0  0  0  0  0  0  # atno 10167 bound_to 10162
  156.0270  130.4400  150.2782 H   0  0  0  0  0  0  0  0  0  0  0  0  # atno 10718 bound_to 10713
  154.5203  135.2793  155.1268 H   0  0  0  0  0  0  0  0  0  0  0  0  # atno 10763 bound_to 10752
  154.2828  135.6282  153.5357 H   0  0  0  0  0  0  0  0  0  0  0  0  # atno 10764 bound_to 10752
  152.9935  135.5655  154.5690 H   0  0  0  0  0  0  0  0  0  0  0  0  # atno 10765 bound_to 10752
  140.0424  134.5854  155.9365 H   0  0  0  0  0  0  0  0  0  0  0  0  # atno 11005 bound_to 11000
  146.1055  140.7492  142.9528 LP  0  0  0  0  0  0  0  0  0  0  0  0  # atno 17320 bound_to 7965
  144.7061  140.3855  143.7117 LP  0  0  0  0  0  0  0  0  0  0  0  0  # atno 17321 bound_to 7965
  139.9884  143.5874  152.2919 LP  0  0  0  0  0  0  0  0  0  0  0  0  # atno 17342 bound_to 10162
  139.6520  144.7661  151.2129 LP  0  0  0  0  0  0  0  0  0  0  0  0  # atno 17343 bound_to 10162
  157.0886  131.0163  151.3130 LP  0  0  0  0  0  0  0  0  0  0  0  0  # atno 17370 bound_to 10713
  157.4872  130.7800  149.7472 LP  0  0  0  0  0  0  0  0  0  0  0  0  # atno 17371 bound_to 10713
  141.1890  133.6564  156.5348 LP  0  0  0  0  0  0  0  0  0  0  0  0  # atno 17394 bound_to 11000
  140.4047  134.7325  157.4801 LP  0  0  0  0  0  0  0  0  0  0  0  0  # atno 17395 bound_to 11000

$$$$
