AV-unprocessed.smi:397|AV-procd|sdf|2488|dock8
  -GOLD-   2262022433D 1   1.00000     0.00000
 Structure written by MMmdl.
 37 38  0  0  0  0  0  0  0  0  1 V2000
  158.8400  142.2925  157.8088 C   0  0  0  0  0  0  0  0  0  0  0  0
  157.9807  141.3325  158.3974 O   0  0  0  0  0  0  0  0  0  0  0  0
  158.2703  141.1089  159.7677 C   0  0  0  0  0  0  0  0  0  0  0  0
  157.5427  139.8472  160.2549 C   0  0  0  0  0  0  0  0  0  0  0  0
  156.1294  140.1072  160.5049 N   0  0  0  0  0  0  0  0  0  0  0  0
  155.1301  139.8463  159.6490 C   0  0  0  0  0  0  0  0  0  0  0  0
  155.3096  139.3751  158.5250 O   0  0  0  0  0  0  0  0  0  0  0  0
  153.7168  140.1782  160.1516 C   0  0  0  0  0  0  0  0  0  0  0  0
  152.9516  141.0461  159.2285 N   0  0  0  0  0  0  0  0  0  0  0  0
  152.3895  140.4607  158.0666 C   0  0  0  0  0  0  0  0  0  0  0  0
  152.5250  139.2584  157.8313 O   0  0  0  0  0  0  0  0  0  0  0  0
  151.6621  141.3750  157.1925 C   0  0  0  0  0  0  0  0  0  0  0  0
  151.0762  140.8219  156.0163 C   0  0  0  0  0  0  0  0  0  0  0  0
  150.5847  140.3608  155.0755 N   0  0  0  0  0  0  0  0  0  0  0  0
  151.5521  142.6853  157.4922 C   0  0  0  0  0  0  0  0  0  0  0  0
  152.1143  143.2458  158.6247 N   0  0  0  0  0  0  0  0  0  0  0  0
  152.0050  144.6545  158.9477 C   0  0  0  0  0  0  0  0  0  0  0  0
  151.5849  145.0790  160.3391 C   0  0  0  0  0  0  0  0  0  0  0  0
  150.6430  145.2771  159.1727 C   0  0  0  0  0  0  0  0  0  0  0  0
  152.8391  142.4272  159.5240 C   0  0  0  0  0  0  0  0  0  0  0  0
  153.3651  142.8923  160.5382 O   0  0  0  0  0  0  0  0  0  0  0  0
  158.5741  142.4265  156.7603 H   0  0  0  0  0  0  0  0  0  0  0  0
  159.8808  141.9693  157.8535 H   0  0  0  0  0  0  0  0  0  0  0  0
  158.7518  143.2594  158.3055 H   0  0  0  0  0  0  0  0  0  0  0  0
  159.3459  141.0085  159.9215 H   0  0  0  0  0  0  0  0  0  0  0  0
  157.9375  141.9684  160.3513 H   0  0  0  0  0  0  0  0  0  0  0  0
  157.6004  139.0790  159.4837 H   0  0  0  0  0  0  0  0  0  0  0  0
  158.0333  139.4336  161.1378 H   0  0  0  0  0  0  0  0  0  0  0  0
  155.8911  140.4992  161.4043 H   0  0  0  0  0  0  0  0  0  0  0  0
  153.1806  139.2450  160.3329 H   0  0  0  0  0  0  0  0  0  0  0  0
  153.8028  140.6262  161.1426 H   0  0  0  0  0  0  0  0  0  0  0  0
  151.0000  143.3115  156.8078 H   0  0  0  0  0  0  0  0  0  0  0  0
  152.7183  145.3336  158.4841 H   0  0  0  0  0  0  0  0  0  0  0  0
  151.3357  144.3102  161.0672 H   0  0  0  0  0  0  0  0  0  0  0  0
  152.0603  145.9659  160.7532 H   0  0  0  0  0  0  0  0  0  0  0  0
  150.4969  146.2947  158.8163 H   0  0  0  0  0  0  0  0  0  0  0  0
  149.7607  144.6431  159.1212 H   0  0  0  0  0  0  0  0  0  0  0  0
  1  2  1  0  0  0  0
  1 22  1  0  0  0  0
  1 23  1  0  0  0  0
  1 24  1  0  0  0  0
  2  3  1  0  0  0  0
  3  4  1  0  0  0  0
  3 25  1  0  0  0  0
  3 26  1  0  0  0  0
  4  5  1  0  0  0  0
  4 27  1  0  0  0  0
  4 28  1  0  0  0  0
  5  6  1  0  0  0  0
  5 29  1  0  0  0  0
  6  7  2  0  0  0  0
  6  8  1  0  0  0  0
  8  9  1  0  0  0  0
  8 30  1  0  0  0  0
  8 31  1  0  0  0  0
  9 20  1  0  0  0  0
  9 10  1  0  0  0  0
 10 11  2  0  0  0  0
 10 12  1  0  0  0  0
 12 13  1  0  0  0  0
 12 15  2  0  0  0  0
 13 14  3  0  0  0  0
 15 16  1  0  0  0  0
 15 32  1  0  0  0  0
 16 17  1  0  0  0  0
 16 20  1  0  0  0  0
 17 19  1  0  0  0  0
 17 18  1  0  0  0  0
 17 33  1  0  0  0  0
 18 19  1  0  0  0  0
 18 34  1  0  0  0  0
 18 35  1  0  0  0  0
 19 36  1  0  0  0  0
 19 37  1  0  0  0  0
 20 21  2  0  0  0  0
M  END
> <s_m_source_file>
AV-unprocessed.smi

> <i_m_source_file_index>
397

> <i_lp_mmshare_version>
43012

> <i_f3d_flags>
0

> <s_epik_input>
W0NIM11PW0NIMl1bQ0gyXVtOSF1DKD1PKVtDSDJdbjFjKD1PKWMoQyNOKVtjSF1uKGMxPU8pW0NIXTJbQ0gyXVtDSDJdMg==

> <s_epik_cmdline>
J2VwaWtfcHl0aG9uJywgJy1waCcsICc3LjAnLCAnLXRuJywgJzgnLCAnLW1hJywgJzIwMCcsICctbWV0YWxfYmluZGluZycsICctaW1hZScsICc8aW5maWxlLm1hZT4nLCAnLW9tYWUnLCAnPG91dGZpbGUubWFlPic=

> <r_lp_tautomer_probability>
1

> <r_epik_Ionization_Penalty>
2.64697e-08

> <r_epik_Ionization_Penalty_Charging>
8.39351e-11

> <r_epik_Ionization_Penalty_Neutral>
2.63858e-08

> <r_epik_State_Penalty>
-0

> <r_epik_Charging_Adjusted_Penalty>
8.39351e-11

> <i_epik_Tot_Q>
0

> <i_epik_Tot_abs_Q>
0

> <r_epik_Metal_State_Penalty>
-0

> <b_epik_Metal_Only>
0

> <s_lp_Force_Field>
OPLS_2005

> <r_lp_Energy>
30.955

> <b_lp_Chiralities_Consistent>
1

> <s_lp_Variant>
AV-unprocessed.smi:397-1

> <Gold.Version>
5.8.1

> <Gold.Id.Protein>
6NUR|6NUR_protein|mol2

> <Gold.PLP.Fitness>
49.5993

> <Gold.PLP.PLP>
-43.7587

> <Gold.PLP.part.hbond>
-1.9359

> <Gold.PLP.part.metal>
0.0000

> <Gold.PLP.part.buried>
-7.9447

> <Gold.PLP.part.nonpolar>
-35.0742

> <Gold.PLP.part.repulsive>
0.1957

> <Gold.PLP.ligand.clash>
0.0000

> <Gold.PLP.ligand.torsion>
0.6882

> <Gold.PLP.Chemscore.Hbond>
2.0000

> <Gold.PLP.Chemscore.CHOScore>
0.3515

> <Gold.PLP.Chemscore.Metal>
0.0000

> <Gold.Chemscore.Hbonds>
donor molecule, donor type, donor heavy atom, donor atom, acceptor molecule, acceptor atom, score
      P1  H  7989  7998       L1    14  1.00
      P1  H  7997  8010       L1     7  0.57
      L1  C    15    32       P1  8028  0.39

> <Gold.PLP.Chemscore.Internal.Correction>
0.1623

> <Gold.Rescore>
     Score         DG    S(hbond)    S(metal)    S(lipo)     H(rot)  DE(clash)    DE(int)     intcor
     13.25     -15.33       1.89        0.00      84.13       2.46       0.01       2.08       ----

> <Gold.Chemscore.Fitness>
13.2457

> <Gold.Chemscore.DG>
-15.3287

> <Gold.Chemscore.ZeroCoef>
-5.4800

> <Gold.Chemscore.Hbond>
1.8892

> <Gold.Chemscore.Metal>
0.0000

> <Gold.Chemscore.Lipo>
84.1307

> <Gold.Chemscore.Internal_Hbond>
0.0000

> <Gold.Chemscore.DEClash>
0.0073

> <Gold.Chemscore.DEInternal>
2.0758

> <Gold.Chemscore.Rot>
2.4626

> <Gold.Chemscore.Internal.Correction>
   9.000000E+99

> <Gold.Chemscore.Hbonds>
donor molecule, donor type, donor heavy atom, donor atom, acceptor molecule, acceptor atom, score
      P1  H  7989  7998       L1    14  0.67
      P1  H  7997  8010       L1     7  0.56

> <Gold.Chemscore.Hbond.Weighted>
-6.3098

> <Gold.Chemscore.Metal.Weighted>
-0.0000

> <Gold.Chemscore.Lipo.Weighted>
-9.8433

> <Gold.Chemscore.Internal_Hbond.Weighted>
0.0000

> <Gold.Chemscore.DEClash.Weighted>
0.0073

> <Gold.Chemscore.DEInternal.Weighted>
2.0758

> <Gold.Chemscore.Rot.Weighted>
6.3043

> <Gold.Chemscore.Internal.Correction.Weighted>
   9.000000E+99

> <Gold.Protein.RotatedTorsions>
[ 6907 6896 6895 6894 ] final -157.43 input  -60.11 | X-H torsion
[ 7974 7965 7964 7962 ] final  178.64 input  175.53 | X-H torsion
[ 8008 7997 7996 7995 ] final  -24.21 input   59.86 | X-H torsion
[ 10167 10162 10161 10158 ] final  173.57 input  -65.29 | X-H torsion
[ 10718 10713 10712 10709 ] final   62.46 input   66.30 | X-H torsion
[ 10763 10752 10751 10750 ] final -152.35 input  -60.55 | X-H torsion
[ 11005 11000 10999 10996 ] final  123.04 input  -57.11 | X-H torsion

> <Gold.Protein.ActiveResidues>
 VAL166  LYS551  ARG553  GLY616  TRP617  ASP618  TYR619  PRO620  LYS621  CYS622 
 ASP623  PHE694  ASN695  SER759  ASP760  ASP761  ALA762  ILE779  LEU786  VAL792 
 PHE793  MET794  SER795  GLU796  ALA797  LYS798  CYS799  TRP800  GLU811  SER814 

> <Gold.Protein.RotatedAtoms>
  151.3028  133.4115  159.2640 H   0  0  0  0  0  0  0  0  0  0  0  0  # atno 6907 bound_to 6896
  151.0181  134.9448  159.8054 H   0  0  0  0  0  0  0  0  0  0  0  0  # atno 6908 bound_to 6896
  152.5317  134.2991  159.9124 H   0  0  0  0  0  0  0  0  0  0  0  0  # atno 6909 bound_to 6896
  144.7154  140.0427  143.6437 H   0  0  0  0  0  0  0  0  0  0  0  0  # atno 7974 bound_to 7965
  154.4541  140.1959  156.0430 H   0  0  0  0  0  0  0  0  0  0  0  0  # atno 8008 bound_to 7997
  156.0710  140.3284  155.7549 H   0  0  0  0  0  0  0  0  0  0  0  0  # atno 8009 bound_to 7997
  155.5262  140.0574  157.2888 H   0  0  0  0  0  0  0  0  0  0  0  0  # atno 8010 bound_to 7997
  139.5113  144.3246  152.0170 H   0  0  0  0  0  0  0  0  0  0  0  0  # atno 10167 bound_to 10162
  157.5902  130.9051  149.9590 H   0  0  0  0  0  0  0  0  0  0  0  0  # atno 10718 bound_to 10713
  154.7999  135.3238  154.7574 H   0  0  0  0  0  0  0  0  0  0  0  0  # atno 10763 bound_to 10752
  153.8245  135.6885  153.4827 H   0  0  0  0  0  0  0  0  0  0  0  0  # atno 10764 bound_to 10752
  153.1711  135.4623  154.9846 H   0  0  0  0  0  0  0  0  0  0  0  0  # atno 10765 bound_to 10752
  139.9295  134.9641  156.8200 H   0  0  0  0  0  0  0  0  0  0  0  0  # atno 11005 bound_to 11000
  146.0010  139.3091  143.0928 LP  0  0  0  0  0  0  0  0  0  0  0  0  # atno 17320 bound_to 7965
  145.8793  140.9372  143.0609 LP  0  0  0  0  0  0  0  0  0  0  0  0  # atno 17321 bound_to 7965
  140.2687  144.3988  150.6159 LP  0  0  0  0  0  0  0  0  0  0  0  0  # atno 17342 bound_to 10162
  140.6105  143.2169  151.6896 LP  0  0  0  0  0  0  0  0  0  0  0  0  # atno 17343 bound_to 10162
  156.0956  130.3659  150.0313 LP  0  0  0  0  0  0  0  0  0  0  0  0  # atno 17370 bound_to 10713
  156.8437  130.9435  151.3630 LP  0  0  0  0  0  0  0  0  0  0  0  0  # atno 17371 bound_to 10713
  140.6242  133.9966  155.7632 LP  0  0  0  0  0  0  0  0  0  0  0  0  # atno 17394 bound_to 11000
  141.0875  133.9969  157.3291 LP  0  0  0  0  0  0  0  0  0  0  0  0  # atno 17395 bound_to 11000

$$$$
