AV-unprocessed.smi:2216|AV-procd|sdf|8966|dock3
  -GOLD-   2272012183D 1   1.00000     0.00000
 Structure written by MMmdl.
 40 41  0  0  0  0  0  0  0  0  2 V2000
  145.8528  131.0804  151.2854 C   0  0  0  0  0  0  0  0  0  0  0  0
  145.4562  132.5238  151.0250 C   0  0  0  0  0  0  0  0  0  0  0  0
  146.1936  133.5612  151.4949 C   0  0  0  0  0  0  0  0  0  0  0  0
  145.8177  134.9536  151.2494 C   0  0  0  0  0  0  0  0  0  0  0  0
  146.4934  136.1022  151.6819 N   0  0  0  0  0  0  0  0  0  0  0  0
  145.9821  137.2428  152.1782 C   0  0  0  0  0  0  0  0  0  0  0  0
  144.7879  137.4854  152.3499 O   0  0  0  0  0  0  0  0  0  0  0  0
  146.9575  138.1143  152.4722 N   0  0  0  0  0  0  0  0  0  0  0  0
  146.7530  139.4483  153.0250 C   0  0  0  0  0  0  0  0  0  0  0  0
  147.3653  139.5793  154.4304 C   0  0  0  0  0  0  0  0  0  0  0  0
  148.8879  139.7865  154.4016 C   0  0  2  0  0  0  0  0  0  0  0  0
  149.6509  138.4474  154.3772 C   0  0  0  0  0  0  0  0  0  0  0  0
  151.1641  138.6870  154.4277 C   0  0  0  0  0  0  0  0  0  0  0  0
  151.5055  139.5833  155.6229 C   0  0  0  0  0  0  0  0  0  0  0  0
  150.6506  140.8602  155.5942 C   0  0  0  0  0  0  0  0  0  0  0  0
  149.2683  140.5180  155.5660 O   0  0  0  0  0  0  0  0  0  0  0  0
  144.6601  135.0663  150.5062 C   0  0  0  0  0  0  0  0  0  0  0  0
  143.8759  134.0877  150.0050 N   0  5  0  0  0  0  0  0  0  0  0  0
  144.2343  132.7929  150.2402 C   0  0  0  0  0  0  0  0  0  0  0  0
  143.5674  131.8494  149.8171 O   0  0  0  0  0  0  0  0  0  0  0  0
  146.7668  131.0190  151.8766 H   0  0  0  0  0  0  0  0  0  0  0  0
  146.0245  130.5567  150.3444 H   0  0  0  0  0  0  0  0  0  0  0  0
  145.0640  130.5609  151.8301 H   0  0  0  0  0  0  0  0  0  0  0  0
  147.0770  133.3259  152.0651 H   0  0  0  0  0  0  0  0  0  0  0  0
  147.4989  136.0553  151.6045 H   0  0  0  0  0  0  0  0  0  0  0  0
  147.9117  137.8342  152.2991 H   0  0  0  0  0  0  0  0  0  0  0  0
  147.1701  140.2004  152.3532 H   0  0  0  0  0  0  0  0  0  0  0  0
  145.6792  139.6321  153.0662 H   0  0  0  0  0  0  0  0  0  0  0  0
  146.8929  140.4051  154.9641 H   0  0  0  0  0  0  0  0  0  0  0  0
  147.1422  138.6774  155.0022 H   0  0  0  0  0  0  0  0  0  0  0  0
  149.1467  140.3652  153.5129 H   0  0  0  0  0  0  0  0  0  0  0  0
  149.3504  137.8366  155.2297 H   0  0  0  0  0  0  0  0  0  0  0  0
  149.3948  137.8810  153.4811 H   0  0  0  0  0  0  0  0  0  0  0  0
  151.6978  137.7388  154.4975 H   0  0  0  0  0  0  0  0  0  0  0  0
  151.4918  139.1647  153.5035 H   0  0  0  0  0  0  0  0  0  0  0  0
  151.3199  139.0422  156.5515 H   0  0  0  0  0  0  0  0  0  0  0  0
  152.5658  139.8372  155.6142 H   0  0  0  0  0  0  0  0  0  0  0  0
  150.8461  141.4621  156.4820 H   0  0  0  0  0  0  0  0  0  0  0  0
  150.9007  141.4779  154.7304 H   0  0  0  0  0  0  0  0  0  0  0  0
  144.3114  136.0976  150.2816 H   0  0  0  0  0  0  0  0  0  0  0  0
  1  2  1  0  0  0  0
  1 21  1  0  0  0  0
  1 22  1  0  0  0  0
  1 23  1  0  0  0  0
  2 19  1  0  0  0  0
  2  3  2  0  0  0  0
  3  4  1  0  0  0  0
  3 24  1  0  0  0  0
  4  5  1  0  0  0  0
  4 17  2  0  0  0  0
  5  6  1  0  0  0  0
  5 25  1  0  0  0  0
  6  7  2  0  0  0  0
  6  8  1  0  0  0  0
  8  9  1  0  0  0  0
  8 26  1  0  0  0  0
  9 10  1  0  0  0  0
  9 27  1  0  0  0  0
  9 28  1  0  0  0  0
 10 11  1  0  0  0  0
 10 29  1  0  0  0  0
 10 30  1  0  0  0  0
 11 16  1  0  0  0  0
 11 12  1  0  0  0  0
 11 31  1  0  0  0  0
 12 13  1  0  0  0  0
 12 32  1  0  0  0  0
 12 33  1  0  0  0  0
 13 14  1  0  0  0  0
 13 34  1  0  0  0  0
 13 35  1  0  0  0  0
 14 15  1  0  0  0  0
 14 36  1  0  0  0  0
 14 37  1  0  0  0  0
 15 16  1  0  0  0  0
 15 38  1  0  0  0  0
 15 39  1  0  0  0  0
 17 18  1  0  0  0  0
 17 40  1  0  0  0  0
 18 19  1  0  0  0  0
 19 20  2  0  0  0  0
M  CHG  1  18  -1
M  END
> <s_m_source_file>
AV-unprocessed.smi

> <i_m_source_file_index>
2216

> <i_lp_mmshare_version>
43012

> <i_f3d_flags>
0

> <s_epik_input>
Tz1jMVtuSF1bY0hdYyhbY0hdYzFbQ0gzXSlbTkhdQyg9TylbTkhdW0NIMl1bQ0gyXVtDQEBIXTJbQ0gyXVtDSDJdW0NIMl1bQ0gyXU8y

> <s_epik_cmdline>
J2VwaWtfcHl0aG9uJywgJy1waCcsICc3LjAnLCAnLXRuJywgJzgnLCAnLW1hJywgJzIwMCcsICctbWV0YWxfYmluZGluZycsICctaW1hZScsICc8aW5maWxlLm1hZT4nLCAnLW9tYWUnLCAnPG91dGZpbGUubWFlPic=

> <r_lp_tautomer_probability>
1

> <r_epik_Ionization_Penalty>
7.55627

> <r_epik_Ionization_Penalty_Charging>
1.50531

> <r_epik_Ionization_Penalty_Neutral>
6.05097

> <r_epik_State_Penalty>
6.05091

> <r_epik_Charging_Adjusted_Penalty>
7.55622

> <i_epik_Tot_Q>
-1

> <i_epik_Tot_abs_Q>
1

> <r_epik_Metal_State_Penalty>
2.00009

> <b_epik_Metal_Only>
1

> <s_lp_Force_Field>
OPLS_2005

> <r_lp_Energy>
21.198

> <b_lp_Chiralities_Consistent>
1

> <s_lp_Variant>
AV-unprocessed.smi:2216-3

> <Gold.Version>
5.8.1

> <Gold.Id.Protein>
6NUR|6NUR_protein|mol2

> <Gold.PLP.Fitness>
40.8339

> <Gold.PLP.PLP>
-34.5892

> <Gold.PLP.part.hbond>
-2.6765

> <Gold.PLP.part.metal>
0.0000

> <Gold.PLP.part.buried>
-5.5719

> <Gold.PLP.part.nonpolar>
-30.1127

> <Gold.PLP.part.repulsive>
3.3222

> <Gold.PLP.ligand.clash>
0.0000

> <Gold.PLP.ligand.torsion>
0.7560

> <Gold.PLP.Chemscore.Hbond>
2.5797

> <Gold.PLP.Chemscore.CHOScore>
0.0000

> <Gold.PLP.Chemscore.Metal>
0.0000

> <Gold.Chemscore.Hbonds>
donor molecule, donor type, donor heavy atom, donor atom, acceptor molecule, acceptor atom, score
      L1  H     5    25       P1  7948  0.80
      L1  H     8    26       P1  7948  0.82
      P1  H 10785 10796       L1    20  0.95

> <Gold.PLP.Chemscore.Internal.Correction>
0.0176

> <Gold.Rescore>
     Score         DG    S(hbond)    S(metal)    S(lipo)     H(rot)  DE(clash)    DE(int)     intcor
     17.09     -19.80       2.61        0.00      80.13       1.47       1.44       1.27       ----

> <Gold.Chemscore.Fitness>
17.0911

> <Gold.Chemscore.DG>
-19.7956

> <Gold.Chemscore.ZeroCoef>
-5.4800

> <Gold.Chemscore.Hbond>
2.6065

> <Gold.Chemscore.Metal>
0.0000

> <Gold.Chemscore.Lipo>
80.1297

> <Gold.Chemscore.Internal_Hbond>
0.0000

> <Gold.Chemscore.DEClash>
1.4365

> <Gold.Chemscore.DEInternal>
1.2680

> <Gold.Chemscore.Rot>
1.4709

> <Gold.Chemscore.Internal.Correction>
   9.000000E+99

> <Gold.Chemscore.Hbonds>
donor molecule, donor type, donor heavy atom, donor atom, acceptor molecule, acceptor atom, score
      L1  H     5    25       P1  7948  0.79
      L1  H     8    26       P1  7948  0.81
      P1  H 10785 10796       L1    20  0.84

> <Gold.Chemscore.Hbond.Weighted>
-8.7058

> <Gold.Chemscore.Metal.Weighted>
-0.0000

> <Gold.Chemscore.Lipo.Weighted>
-9.3752

> <Gold.Chemscore.Internal_Hbond.Weighted>
0.0000

> <Gold.Chemscore.DEClash.Weighted>
1.4365

> <Gold.Chemscore.DEInternal.Weighted>
1.2680

> <Gold.Chemscore.Rot.Weighted>
3.7654

> <Gold.Chemscore.Internal.Correction.Weighted>
   9.000000E+99

> <Gold.Protein.RotatedTorsions>
[ 6907 6896 6895 6894 ] final -158.10 input  -60.11 | X-H torsion
[ 7974 7965 7964 7962 ] final -155.69 input  175.53 | X-H torsion
[ 8008 7997 7996 7995 ] final  -14.81 input   59.86 | X-H torsion
[ 10167 10162 10161 10158 ] final -124.70 input  -65.29 | X-H torsion
[ 10718 10713 10712 10709 ] final    9.62 input   66.30 | X-H torsion
[ 10763 10752 10751 10750 ] final   78.89 input  -60.55 | X-H torsion
[ 11005 11000 10999 10996 ] final  -71.73 input  -57.11 | X-H torsion

> <Gold.Protein.ActiveResidues>
 VAL166  LYS551  ARG553  GLY616  TRP617  ASP618  TYR619  PRO620  LYS621  CYS622 
 ASP623  PHE694  ASN695  SER759  ASP760  ASP761  ALA762  ILE779  LEU786  VAL792 
 PHE793  MET794  SER795  GLU796  ALA797  LYS798  CYS799  TRP800  GLU811  SER814 

> <Gold.Protein.RotatedAtoms>
  151.3130  133.4072  159.2648 H   0  0  0  0  0  0  0  0  0  0  0  0  # atno 6907 bound_to 6896
  151.0098  134.9388  159.8011 H   0  0  0  0  0  0  0  0  0  0  0  0  # atno 6908 bound_to 6896
  152.5297  134.3095  159.9161 H   0  0  0  0  0  0  0  0  0  0  0  0  # atno 6909 bound_to 6896
  144.7628  140.4214  143.5964 H   0  0  0  0  0  0  0  0  0  0  0  0  # atno 7974 bound_to 7965
  154.5180  140.2213  155.9029 H   0  0  0  0  0  0  0  0  0  0  0  0  # atno 8008 bound_to 7997
  156.1630  140.3138  155.8805 H   0  0  0  0  0  0  0  0  0  0  0  0  # atno 8009 bound_to 7997
  155.3714  140.0467  157.3036 H   0  0  0  0  0  0  0  0  0  0  0  0  # atno 8010 bound_to 7997
  139.9900  143.5651  152.2345 H   0  0  0  0  0  0  0  0  0  0  0  0  # atno 10167 bound_to 10162
  156.9690  130.5961  149.5667 H   0  0  0  0  0  0  0  0  0  0  0  0  # atno 10718 bound_to 10713
  153.0910  135.4860  154.8689 H   0  0  0  0  0  0  0  0  0  0  0  0  # atno 10763 bound_to 10752
  154.7268  135.3051  154.8959 H   0  0  0  0  0  0  0  0  0  0  0  0  # atno 10764 bound_to 10752
  153.9607  135.6812  153.4798 H   0  0  0  0  0  0  0  0  0  0  0  0  # atno 10765 bound_to 10752
  141.1597  133.6826  156.6951 H   0  0  0  0  0  0  0  0  0  0  0  0  # atno 11005 bound_to 11000
  145.6565  139.1574  143.2832 LP  0  0  0  0  0  0  0  0  0  0  0  0  # atno 17320 bound_to 7965
  146.1707  140.6649  142.9234 LP  0  0  0  0  0  0  0  0  0  0  0  0  # atno 17321 bound_to 7965
  139.6347  144.7648  151.2463 LP  0  0  0  0  0  0  0  0  0  0  0  0  # atno 17342 bound_to 10162
  140.7458  143.6419  150.8327 LP  0  0  0  0  0  0  0  0  0  0  0  0  # atno 17343 bound_to 10162
  156.0291  130.5383  150.8485 LP  0  0  0  0  0  0  0  0  0  0  0  0  # atno 17370 bound_to 10713
  157.5606  131.0946  150.9565 LP  0  0  0  0  0  0  0  0  0  0  0  0  # atno 17371 bound_to 10713
  140.3001  134.8171  157.4090 LP  0  0  0  0  0  0  0  0  0  0  0  0  # atno 17394 bound_to 11000
  140.1269  134.5145  155.8137 LP  0  0  0  0  0  0  0  0  0  0  0  0  # atno 17395 bound_to 11000

$$$$
