AV-unprocessed.smi:1225|AV-procd|sdf|5137|dock4
  -GOLD-   22720 4203D 1   1.00000     0.00000
 Structure written by MMmdl.
 48 50  0  0  0  0  0  0  0  0  1 V2000
  145.2058  135.6845  151.3682 C   0  0  0  0  0  0  0  0  0  0  0  0
  145.7994  136.9958  151.7548 C   0  0  0  0  0  0  0  0  0  0  0  0
  146.3714  137.8335  150.8867 N   0  0  0  0  0  0  0  0  0  0  0  0
  146.8488  138.9933  151.5012 C   0  0  0  0  0  0  0  0  0  0  0  0
  146.6341  139.0313  152.8571 C   0  0  0  0  0  0  0  0  0  0  0  0
  147.0170  140.1179  153.8093 C   0  0  0  0  0  0  0  0  0  0  0  0
  147.8602  139.6532  154.9147 N   0  0  0  0  0  0  0  0  0  0  0  0
  148.9892  138.8841  154.3964 C   0  0  0  0  0  0  0  0  0  0  0  0
  148.3335  140.7640  155.7457 C   0  0  0  0  0  0  0  0  0  0  0  0
  149.3840  141.6867  155.0880 C   0  0  1  0  0  0  0  0  0  0  0  0
  148.6779  142.5926  154.2626 O   0  0  0  0  0  0  0  0  0  0  0  0
  150.2759  142.4821  156.0650 C   0  0  0  0  0  0  0  0  0  0  0  0
  151.1953  141.6364  156.8062 N   0  0  0  0  0  0  0  0  0  0  0  0
  151.7037  140.4508  156.4191 C   0  0  0  0  0  0  0  0  0  0  0  0
  152.5400  139.8443  157.2564 N   0  0  0  0  0  0  0  0  0  0  0  0
  152.5812  140.7429  158.3087 C   0  0  0  0  0  0  0  0  0  0  0  0
  153.2942  140.6961  159.5265 C   0  0  0  0  0  0  0  0  0  0  0  0
  153.1871  141.7429  160.4697 C   0  0  0  0  0  0  0  0  0  0  0  0
  153.9735  141.6516  161.7656 C   0  0  0  0  0  0  0  0  0  0  0  0
  152.3540  142.8587  160.2014 C   0  0  0  0  0  0  0  0  0  0  0  0
  152.2205  143.9934  161.2015 C   0  0  0  0  0  0  0  0  0  0  0  0
  151.6369  142.9224  158.9883 C   0  0  0  0  0  0  0  0  0  0  0  0
  151.7522  141.8749  158.0577 C   0  0  0  0  0  0  0  0  0  0  0  0
  145.8180  137.5921  153.4097 S   0  0  0  0  0  0  0  0  0  0  0  0
  145.1355  135.5993  150.2834 H   0  0  0  0  0  0  0  0  0  0  0  0
  144.2056  135.5885  151.7910 H   0  0  0  0  0  0  0  0  0  0  0  0
  145.8258  134.8704  151.7435 H   0  0  0  0  0  0  0  0  0  0  0  0
  147.3307  139.7470  150.8958 H   0  0  0  0  0  0  0  0  0  0  0  0
  147.5274  140.9172  153.2697 H   0  0  0  0  0  0  0  0  0  0  0  0
  146.1025  140.5696  154.1841 H   0  0  0  0  0  0  0  0  0  0  0  0
  149.5984  138.4930  155.2119 H   0  0  0  0  0  0  0  0  0  0  0  0
  149.6274  139.4996  153.7607 H   0  0  0  0  0  0  0  0  0  0  0  0
  148.6508  138.0286  153.8114 H   0  0  0  0  0  0  0  0  0  0  0  0
  147.4841  141.4035  155.9918 H   0  0  0  0  0  0  0  0  0  0  0  0
  148.6953  140.3910  156.7052 H   0  0  0  0  0  0  0  0  0  0  0  0
  150.0177  141.0858  154.4345 H   0  0  0  0  0  0  0  0  0  0  0  0
  148.8818  143.4728  154.5389 H   0  0  0  0  0  0  0  0  0  0  0  0
  150.8519  143.2378  155.5287 H   0  0  0  0  0  0  0  0  0  0  0  0
  149.6606  143.0049  156.7969 H   0  0  0  0  0  0  0  0  0  0  0  0
  151.4446  140.0072  155.4688 H   0  0  0  0  0  0  0  0  0  0  0  0
  153.9282  139.8457  159.7310 H   0  0  0  0  0  0  0  0  0  0  0  0
  153.2969  141.5956  162.6184 H   0  0  0  0  0  0  0  0  0  0  0  0
  154.6150  142.5245  161.8879 H   0  0  0  0  0  0  0  0  0  0  0  0
  154.6097  140.7662  161.7834 H   0  0  0  0  0  0  0  0  0  0  0  0
  151.4906  144.7324  160.8697 H   0  0  0  0  0  0  0  0  0  0  0  0
  153.1767  144.5005  161.3314 H   0  0  0  0  0  0  0  0  0  0  0  0
  151.8940  143.6151  162.1705 H   0  0  0  0  0  0  0  0  0  0  0  0
  151.0003  143.7672  158.7694 H   0  0  0  0  0  0  0  0  0  0  0  0
  1  2  1  0  0  0  0
  1 25  1  0  0  0  0
  1 26  1  0  0  0  0
  1 27  1  0  0  0  0
  2 24  1  0  0  0  0
  2  3  2  0  0  0  0
  3  4  1  0  0  0  0
  4  5  2  0  0  0  0
  4 28  1  0  0  0  0
  5  6  1  0  0  0  0
  5 24  1  0  0  0  0
  6  7  1  0  0  0  0
  6 29  1  0  0  0  0
  6 30  1  0  0  0  0
  7  8  1  0  0  0  0
  7  9  1  0  0  0  0
  8 31  1  0  0  0  0
  8 32  1  0  0  0  0
  8 33  1  0  0  0  0
  9 10  1  0  0  0  0
  9 34  1  0  0  0  0
  9 35  1  0  0  0  0
 10 11  1  0  0  0  0
 10 12  1  0  0  0  0
 10 36  1  0  0  0  0
 11 37  1  0  0  0  0
 12 13  1  0  0  0  0
 12 38  1  0  0  0  0
 12 39  1  0  0  0  0
 13 23  1  0  0  0  0
 13 14  1  0  0  0  0
 14 15  2  0  0  0  0
 14 40  1  0  0  0  0
 15 16  1  0  0  0  0
 16 23  2  0  0  0  0
 16 17  1  0  0  0  0
 17 18  2  0  0  0  0
 17 41  1  0  0  0  0
 18 19  1  0  0  0  0
 18 20  1  0  0  0  0
 19 42  1  0  0  0  0
 19 43  1  0  0  0  0
 19 44  1  0  0  0  0
 20 21  1  0  0  0  0
 20 22  2  0  0  0  0
 21 45  1  0  0  0  0
 21 46  1  0  0  0  0
 21 47  1  0  0  0  0
 22 23  1  0  0  0  0
 22 48  1  0  0  0  0
M  END
> <s_m_source_file>
AV-unprocessed.smi

> <i_m_source_file_index>
1225

> <i_lp_mmshare_version>
43012

> <i_f3d_flags>
0

> <s_epik_input>
W0NIM11jMW5bY0hdYyhzMSlbQ0gyXU4oW0NIM10pW0NIMl1bQ0BIXShbT0hdKVtDSDJdbihbY0hdbjIpYyhjMjMpW2NIXWMoW0NIM10pYyhbY0hdMylbQ0gzXQ==

> <s_epik_cmdline>
J2VwaWtfcHl0aG9uJywgJy1waCcsICc3LjAnLCAnLXRuJywgJzgnLCAnLW1hJywgJzIwMCcsICctbWV0YWxfYmluZGluZycsICctaW1hZScsICc8aW5maWxlLm1hZT4nLCAnLW9tYWUnLCAnPG91dGZpbGUubWFlPic=

> <r_epik_Ionization_Penalty>
0.12717

> <r_epik_Ionization_Penalty_Charging>
0

> <r_epik_Ionization_Penalty_Neutral>
0.12717

> <r_epik_State_Penalty>
0.11216

> <r_epik_Charging_Adjusted_Penalty>
0.11216

> <i_epik_Tot_Q>
0

> <i_epik_Tot_abs_Q>
0

> <r_epik_Metal_State_Penalty>
0.099641

> <b_epik_Metal_Only>
0

> <s_lp_Force_Field>
OPLS_2005

> <r_lp_Energy>
16.9623

> <b_lp_Chiralities_Consistent>
1

> <s_lp_Variant>
AV-unprocessed.smi:1225-2

> <Gold.Version>
5.8.1

> <Gold.Id.Protein>
6NUR|6NUR_protein|mol2

> <Gold.PLP.Fitness>
54.9723

> <Gold.PLP.PLP>
-46.8053

> <Gold.PLP.part.hbond>
-4.3477

> <Gold.PLP.part.metal>
0.0000

> <Gold.PLP.part.buried>
2.5327

> <Gold.PLP.part.nonpolar>
-47.8180

> <Gold.PLP.part.repulsive>
2.2292

> <Gold.PLP.ligand.clash>
0.0000

> <Gold.PLP.ligand.torsion>
0.7151

> <Gold.PLP.Chemscore.Hbond>
2.3546

> <Gold.PLP.Chemscore.CHOScore>
0.7656

> <Gold.PLP.Chemscore.Metal>
0.0000

> <Gold.Chemscore.Hbonds>
donor molecule, donor type, donor heavy atom, donor atom, acceptor molecule, acceptor atom, score
      L1  H    11    37       P1  8028  1.00
      P1  H  7954  7966       L1     3  0.24
      P1  H  7997  8009       L1    15  0.85
      P1  H  8011  8017       L1    11  0.05
      L1  C     4    28       P1  7957  0.78

> <Gold.PLP.Chemscore.Internal.Correction>
0.2366

> <Gold.Rescore>
     Score         DG    S(hbond)    S(metal)    S(lipo)     H(rot)  DE(clash)    DE(int)     intcor
     17.00     -20.85       1.44        0.00     140.23       2.28       3.02       0.84       ----

> <Gold.Chemscore.Fitness>
16.9952

> <Gold.Chemscore.DG>
-20.8485

> <Gold.Chemscore.ZeroCoef>
-5.4800

> <Gold.Chemscore.Hbond>
1.4402

> <Gold.Chemscore.Metal>
0.0000

> <Gold.Chemscore.Lipo>
140.2258

> <Gold.Chemscore.Internal_Hbond>
0.0000

> <Gold.Chemscore.DEClash>
3.0172

> <Gold.Chemscore.DEInternal>
0.8361

> <Gold.Chemscore.Rot>
2.2844

> <Gold.Chemscore.Internal.Correction>
   9.000000E+99

> <Gold.Chemscore.Hbonds>
donor molecule, donor type, donor heavy atom, donor atom, acceptor molecule, acceptor atom, score
      L1  H    11    37       P1  8028  0.97
      P1  H  7997  8009       L1    15  0.10
      P1  H  8011  8017       L1    11  0.01

> <Gold.Chemscore.Hbond.Weighted>
-4.8101

> <Gold.Chemscore.Metal.Weighted>
-0.0000

> <Gold.Chemscore.Lipo.Weighted>
-16.4064

> <Gold.Chemscore.Internal_Hbond.Weighted>
0.0000

> <Gold.Chemscore.DEClash.Weighted>
3.0172

> <Gold.Chemscore.DEInternal.Weighted>
0.8361

> <Gold.Chemscore.Rot.Weighted>
5.8480

> <Gold.Chemscore.Internal.Correction.Weighted>
   9.000000E+99

> <Gold.Protein.RotatedTorsions>
[ 6907 6896 6895 6894 ] final -110.19 input  -60.11 | X-H torsion
[ 7974 7965 7964 7962 ] final  -97.59 input  175.53 | X-H torsion
[ 8008 7997 7996 7995 ] final -179.26 input   59.86 | X-H torsion
[ 10167 10162 10161 10158 ] final -154.19 input  -65.29 | X-H torsion
[ 10718 10713 10712 10709 ] final   15.10 input   66.30 | X-H torsion
[ 10763 10752 10751 10750 ] final  -53.79 input  -60.55 | X-H torsion
[ 11005 11000 10999 10996 ] final   40.99 input  -57.11 | X-H torsion

> <Gold.Protein.ActiveResidues>
 VAL166  LYS551  ARG553  GLY616  TRP617  ASP618  TYR619  PRO620  LYS621  CYS622 
 ASP623  PHE694  ASN695  SER759  ASP760  ASP761  ALA762  ILE779  LEU786  VAL792 
 PHE793  MET794  SER795  GLU796  ALA797  LYS798  CYS799  TRP800  GLU811  SER814 

> <Gold.Protein.RotatedAtoms>
  150.7609  133.9418  159.3458 H   0  0  0  0  0  0  0  0  0  0  0  0  # atno 6907 bound_to 6896
  151.7326  135.0869  160.0312 H   0  0  0  0  0  0  0  0  0  0  0  0  # atno 6908 bound_to 6896
  152.3580  133.6223  159.6029 H   0  0  0  0  0  0  0  0  0  0  0  0  # atno 6909 bound_to 6896
  145.3317  140.9443  143.2658 H   0  0  0  0  0  0  0  0  0  0  0  0  # atno 7974 bound_to 7965
  156.0285  140.1276  157.0283 H   0  0  0  0  0  0  0  0  0  0  0  0  # atno 8008 bound_to 7997
  154.4340  140.1054  156.6135 H   0  0  0  0  0  0  0  0  0  0  0  0  # atno 8009 bound_to 7997
  155.5842  140.3468  155.4551 H   0  0  0  0  0  0  0  0  0  0  0  0  # atno 8010 bound_to 7997
  139.7034  143.9226  152.2438 H   0  0  0  0  0  0  0  0  0  0  0  0  # atno 10167 bound_to 10162
  157.0486  130.6260  149.5763 H   0  0  0  0  0  0  0  0  0  0  0  0  # atno 10718 bound_to 10713
  154.1645  135.6469  153.4994 H   0  0  0  0  0  0  0  0  0  0  0  0  # atno 10763 bound_to 10752
  153.0101  135.5368  154.6676 H   0  0  0  0  0  0  0  0  0  0  0  0  # atno 10764 bound_to 10752
  154.5999  135.2942  155.0518 H   0  0  0  0  0  0  0  0  0  0  0  0  # atno 10765 bound_to 10752
  140.1877  134.4025  155.8164 H   0  0  0  0  0  0  0  0  0  0  0  0  # atno 11005 bound_to 11000
  144.8859  139.4840  143.6701 LP  0  0  0  0  0  0  0  0  0  0  0  0  # atno 17320 bound_to 7965
  146.3043  139.7527  142.9068 LP  0  0  0  0  0  0  0  0  0  0  0  0  # atno 17321 bound_to 7965
  139.9075  144.6876  150.8598 LP  0  0  0  0  0  0  0  0  0  0  0  0  # atno 17342 bound_to 10162
  140.7715  143.3468  151.2095 LP  0  0  0  0  0  0  0  0  0  0  0  0  # atno 17343 bound_to 10162
  156.0015  130.5095  150.7679 LP  0  0  0  0  0  0  0  0  0  0  0  0  # atno 17370 bound_to 10713
  157.5048  131.0921  151.0270 LP  0  0  0  0  0  0  0  0  0  0  0  0  # atno 17371 bound_to 10713
  141.2225  133.7031  156.8041 LP  0  0  0  0  0  0  0  0  0  0  0  0  # atno 17394 bound_to 11000
  140.2195  134.8768  157.3361 LP  0  0  0  0  0  0  0  0  0  0  0  0  # atno 17395 bound_to 11000

$$$$
