AV-unprocessed.smi:1174|AV-procd|sdf|4946|dock4
  -GOLD-   22720 3533D 1   1.00000     0.00000
 Structure written by MMmdl.
 41 42  0  0  0  0  0  0  0  0  1 V2000
  148.0153  145.2345  161.3466 C   0  0  0  0  0  0  0  0  0  0  0  0
  148.8365  144.5085  160.2712 C   0  0  2  0  0  0  0  0  0  0  0  0
  150.0880  145.3105  159.8632 C   0  0  0  0  0  0  0  0  0  0  0  0
  151.2500  144.4567  159.6787 N   0  0  0  0  0  0  0  0  0  0  0  0
  152.1920  144.4967  158.6725 C   0  0  0  0  0  0  0  0  0  0  0  0
  153.1085  143.5187  158.9345 C   0  0  0  0  0  0  0  0  0  0  0  0
  152.6365  142.9267  160.1395 C   0  0  0  0  0  0  0  0  0  0  0  0
  151.5219  143.4873  160.5801 N   0  0  0  0  0  0  0  0  0  0  0  0
  148.0083  144.2576  159.0949 N   0  0  0  0  0  0  0  0  0  0  0  0
  147.1117  143.2692  158.9657 C   0  0  0  0  0  0  0  0  0  0  0  0
  146.7884  142.5208  159.8885 O   0  0  0  0  0  0  0  0  0  0  0  0
  146.5167  143.0801  157.5657 C   0  0  2  0  0  0  0  0  0  0  0  0
  145.0058  143.4042  157.5320 C   0  0  0  0  0  0  0  0  0  0  0  0
  144.3908  143.0839  156.1557 C   0  0  0  0  0  0  0  0  0  0  0  0
  144.7480  141.6540  155.7085 C   0  0  0  0  0  0  0  0  0  0  0  0
  146.2138  141.5055  155.7112 N   0  0  0  0  0  0  0  0  0  0  0  0
  147.0193  141.4616  154.6202 C   0  0  0  0  0  0  0  0  0  0  0  0
  146.3991  141.2081  153.4637 N   0  0  0  0  0  0  0  0  0  0  0  0
  148.2406  141.6033  154.6648 O   0  0  0  0  0  0  0  0  0  0  0  0
  146.7585  141.6383  157.0675 C   0  0  0  0  0  0  0  0  0  0  0  0
  148.6150  145.4172  162.2387 H   0  0  0  0  0  0  0  0  0  0  0  0
  147.1511  144.6419  161.6489 H   0  0  0  0  0  0  0  0  0  0  0  0
  147.6506  146.1970  160.9864 H   0  0  0  0  0  0  0  0  0  0  0  0
  149.1730  143.5571  160.6876 H   0  0  0  0  0  0  0  0  0  0  0  0
  149.9050  145.8690  158.9433 H   0  0  0  0  0  0  0  0  0  0  0  0
  150.3291  146.0462  160.6314 H   0  0  0  0  0  0  0  0  0  0  0  0
  152.1350  145.2134  157.8666 H   0  0  0  0  0  0  0  0  0  0  0  0
  153.9848  143.2666  158.3560 H   0  0  0  0  0  0  0  0  0  0  0  0
  153.0672  142.1120  160.7027 H   0  0  0  0  0  0  0  0  0  0  0  0
  148.2044  144.8197  158.2791 H   0  0  0  0  0  0  0  0  0  0  0  0
  147.0246  143.7645  156.8828 H   0  0  0  0  0  0  0  0  0  0  0  0
  144.4828  142.8223  158.2923 H   0  0  0  0  0  0  0  0  0  0  0  0
  144.8377  144.4538  157.7769 H   0  0  0  0  0  0  0  0  0  0  0  0
  143.3082  143.2066  156.1937 H   0  0  0  0  0  0  0  0  0  0  0  0
  144.7578  143.7976  155.4170 H   0  0  0  0  0  0  0  0  0  0  0  0
  144.3151  140.9304  156.4005 H   0  0  0  0  0  0  0  0  0  0  0  0
  144.2846  141.4441  154.7448 H   0  0  0  0  0  0  0  0  0  0  0  0
  146.9305  141.1617  152.6068 H   0  0  0  0  0  0  0  0  0  0  0  0
  145.3996  141.0663  153.4539 H   0  0  0  0  0  0  0  0  0  0  0  0
  147.8214  141.3929  157.1133 H   0  0  0  0  0  0  0  0  0  0  0  0
  146.2646  140.9180  157.7219 H   0  0  0  0  0  0  0  0  0  0  0  0
  1  2  1  0  0  0  0
  1 21  1  0  0  0  0
  1 22  1  0  0  0  0
  1 23  1  0  0  0  0
  2  3  1  0  0  0  0
  2  9  1  0  0  0  0
  2 24  1  0  0  0  0
  3  4  1  0  0  0  0
  3 25  1  0  0  0  0
  3 26  1  0  0  0  0
  4  8  1  0  0  0  0
  4  5  1  0  0  0  0
  5  6  2  0  0  0  0
  5 27  1  0  0  0  0
  6  7  1  0  0  0  0
  6 28  1  0  0  0  0
  7  8  2  0  0  0  0
  7 29  1  0  0  0  0
  9 10  1  0  0  0  0
  9 30  1  0  0  0  0
 10 11  2  0  0  0  0
 10 12  1  0  0  0  0
 12 20  1  0  0  0  0
 12 13  1  0  0  0  0
 12 31  1  0  0  0  0
 13 14  1  0  0  0  0
 13 32  1  0  0  0  0
 13 33  1  0  0  0  0
 14 15  1  0  0  0  0
 14 34  1  0  0  0  0
 14 35  1  0  0  0  0
 15 16  1  0  0  0  0
 15 36  1  0  0  0  0
 15 37  1  0  0  0  0
 16 17  1  0  0  0  0
 16 20  1  0  0  0  0
 17 18  1  0  0  0  0
 17 19  2  0  0  0  0
 18 38  1  0  0  0  0
 18 39  1  0  0  0  0
 20 40  1  0  0  0  0
 20 41  1  0  0  0  0
M  END
> <s_m_source_file>
AV-unprocessed.smi

> <i_m_source_file_index>
1174

> <i_lp_mmshare_version>
43012

> <i_f3d_flags>
0

> <s_epik_input>
bjFbY0hdW2NIXVtjSF1uMVtDSDJdW0NAQEhdKFtDSDNdKVtOSF1DKD1PKVtDQEBIXTJbQ0gyXVtDSDJdW0NIMl1OKFtDSDJdMilDKD1PKVtOSDJd

> <s_epik_cmdline>
J2VwaWtfcHl0aG9uJywgJy1waCcsICc3LjAnLCAnLXRuJywgJzgnLCAnLW1hJywgJzIwMCcsICctbWV0YWxfYmluZGluZycsICctaW1hZScsICc8aW5maWxlLm1hZT4nLCAnLW9tYWUnLCAnPG91dGZpbGUubWFlPic=

> <r_lp_tautomer_probability>
1

> <r_epik_Ionization_Penalty>
0.000372452

> <r_epik_Ionization_Penalty_Charging>
0

> <r_epik_Ionization_Penalty_Neutral>
0.000372452

> <r_epik_State_Penalty>
-0

> <r_epik_Charging_Adjusted_Penalty>
0

> <i_epik_Tot_Q>
0

> <i_epik_Tot_abs_Q>
0

> <r_epik_Metal_State_Penalty>
-0

> <b_epik_Metal_Only>
0

> <s_lp_Force_Field>
OPLS_2005

> <r_lp_Energy>
26.8287

> <b_lp_Chiralities_Consistent>
1

> <s_lp_Variant>
AV-unprocessed.smi:1174-1

> <Gold.Version>
5.8.1

> <Gold.Id.Protein>
6NUR|6NUR_protein|mol2

> <Gold.PLP.Fitness>
44.8410

> <Gold.PLP.PLP>
-37.5103

> <Gold.PLP.part.hbond>
-3.8569

> <Gold.PLP.part.metal>
0.0000

> <Gold.PLP.part.buried>
-5.1990

> <Gold.PLP.part.nonpolar>
-29.0958

> <Gold.PLP.part.repulsive>
0.4023

> <Gold.PLP.ligand.clash>
0.0000

> <Gold.PLP.ligand.torsion>
1.1852

> <Gold.PLP.Chemscore.Hbond>
3.2044

> <Gold.PLP.Chemscore.CHOScore>
0.0000

> <Gold.PLP.Chemscore.Metal>
0.0000

> <Gold.Chemscore.Hbonds>
donor molecule, donor type, donor heavy atom, donor atom, acceptor molecule, acceptor atom, score
      L1  H     9    30       P1  8029  1.00
      L1  H    18    39       P1 10175  0.96
      P1  H  6933  6944       L1    11  0.22
      P1  H  6934  6946       L1    11  0.99

> <Gold.PLP.Chemscore.Internal.Correction>
0.0877

> <Gold.Rescore>
     Score         DG    S(hbond)    S(metal)    S(lipo)     H(rot)  DE(clash)    DE(int)     intcor
     17.41     -18.82       2.98        0.00      68.76       1.82       0.31       1.10       ----

> <Gold.Chemscore.Fitness>
17.4054

> <Gold.Chemscore.DG>
-18.8187

> <Gold.Chemscore.ZeroCoef>
-5.4800

> <Gold.Chemscore.Hbond>
2.9805

> <Gold.Chemscore.Metal>
0.0000

> <Gold.Chemscore.Lipo>
68.7559

> <Gold.Chemscore.Internal_Hbond>
0.0000

> <Gold.Chemscore.DEClash>
0.3145

> <Gold.Chemscore.DEInternal>
1.0988

> <Gold.Chemscore.Rot>
1.8206

> <Gold.Chemscore.Internal.Correction>
   9.000000E+99

> <Gold.Chemscore.Hbonds>
donor molecule, donor type, donor heavy atom, donor atom, acceptor molecule, acceptor atom, score
      L1  H     9    30       P1  8029  0.81
      L1  H    18    39       P1 10175  0.47
      P1  H  6933  6944       L1    11  0.18
      P1  H  6934  6946       L1    11  0.94

> <Gold.Chemscore.Hbond.Weighted>
-9.9549

> <Gold.Chemscore.Metal.Weighted>
-0.0000

> <Gold.Chemscore.Lipo.Weighted>
-8.0444

> <Gold.Chemscore.Internal_Hbond.Weighted>
0.0000

> <Gold.Chemscore.DEClash.Weighted>
0.3145

> <Gold.Chemscore.DEInternal.Weighted>
1.0988

> <Gold.Chemscore.Rot.Weighted>
4.6607

> <Gold.Chemscore.Internal.Correction.Weighted>
   9.000000E+99

> <Gold.Protein.RotatedTorsions>
[ 6907 6896 6895 6894 ] final -175.64 input  -60.11 | X-H torsion
[ 7974 7965 7964 7962 ] final   52.68 input  175.53 | X-H torsion
[ 8008 7997 7996 7995 ] final   84.52 input   59.86 | X-H torsion
[ 10167 10162 10161 10158 ] final  154.11 input  -65.29 | X-H torsion
[ 10718 10713 10712 10709 ] final  -62.81 input   66.30 | X-H torsion
[ 10763 10752 10751 10750 ] final  -53.31 input  -60.55 | X-H torsion
[ 11005 11000 10999 10996 ] final   -7.00 input  -57.11 | X-H torsion

> <Gold.Protein.ActiveResidues>
 VAL166  LYS551  ARG553  GLY616  TRP617  ASP618  TYR619  PRO620  LYS621  CYS622 
 ASP623  PHE694  ASN695  SER759  ASP760  ASP761  ALA762  ILE779  LEU786  VAL792 
 PHE793  MET794  SER795  GLU796  ALA797  LYS798  CYS799  TRP800  GLU811  SER814 

> <Gold.Protein.RotatedAtoms>
  151.5918  133.3365  159.3029 H   0  0  0  0  0  0  0  0  0  0  0  0  # atno 6907 bound_to 6896
  150.8256  134.7488  159.6821 H   0  0  0  0  0  0  0  0  0  0  0  0  # atno 6908 bound_to 6896
  152.4345  134.5719  159.9975 H   0  0  0  0  0  0  0  0  0  0  0  0  # atno 6909 bound_to 6896
  145.9789  139.4222  143.0144 H   0  0  0  0  0  0  0  0  0  0  0  0  # atno 7974 bound_to 7965
  155.9381  140.3410  155.6305 H   0  0  0  0  0  0  0  0  0  0  0  0  # atno 8008 bound_to 7997
  155.7073  140.0767  157.2404 H   0  0  0  0  0  0  0  0  0  0  0  0  # atno 8009 bound_to 7997
  154.4097  140.1629  156.2245 H   0  0  0  0  0  0  0  0  0  0  0  0  # atno 8010 bound_to 7997
  139.4824  144.5215  151.7868 H   0  0  0  0  0  0  0  0  0  0  0  0  # atno 10167 bound_to 10162
  156.0831  130.4213  150.1188 H   0  0  0  0  0  0  0  0  0  0  0  0  # atno 10718 bound_to 10713
  154.1567  135.6481  153.4976 H   0  0  0  0  0  0  0  0  0  0  0  0  # atno 10763 bound_to 10752
  153.0122  135.5351  154.6752 H   0  0  0  0  0  0  0  0  0  0  0  0  # atno 10764 bound_to 10752
  154.6055  135.2948  155.0461 H   0  0  0  0  0  0  0  0  0  0  0  0  # atno 10765 bound_to 10752
  140.7081  133.8932  155.8731 H   0  0  0  0  0  0  0  0  0  0  0  0  # atno 11005 bound_to 11000
  145.7799  140.9861  143.1105 LP  0  0  0  0  0  0  0  0  0  0  0  0  # atno 17320 bound_to 7965
  144.6856  139.9551  143.7479 LP  0  0  0  0  0  0  0  0  0  0  0  0  # atno 17321 bound_to 7965
  140.4730  144.1560  150.5920 LP  0  0  0  0  0  0  0  0  0  0  0  0  # atno 17342 bound_to 10162
  140.4362  143.2546  151.9532 LP  0  0  0  0  0  0  0  0  0  0  0  0  # atno 17343 bound_to 10162
  156.9215  130.9684  151.3548 LP  0  0  0  0  0  0  0  0  0  0  0  0  # atno 17370 bound_to 10713
  157.5955  130.8475  149.8723 LP  0  0  0  0  0  0  0  0  0  0  0  0  # atno 17371 bound_to 10713
  141.0108  134.1023  157.4223 LP  0  0  0  0  0  0  0  0  0  0  0  0  # atno 17394 bound_to 11000
  139.8879  135.0093  156.6587 LP  0  0  0  0  0  0  0  0  0  0  0  0  # atno 17395 bound_to 11000

$$$$
