AV-unprocessed.smi:877|AV-procd|sdf|4028|dock7
  -GOLD-   22720 1523D 1   1.00000     0.00000
 Structure written by MMmdl.
 43 45  0  0  0  0  0  0  0  0  1 V2000
  143.7147  142.6642  156.8058 C   0  0  0  0  0  0  0  0  0  0  0  0
  144.3224  142.4896  155.5343 O   0  0  0  0  0  0  0  0  0  0  0  0
  145.6661  142.1850  155.4945 C   0  0  0  0  0  0  0  0  0  0  0  0
  146.4494  141.8859  156.6380 C   0  0  0  0  0  0  0  0  0  0  0  0
  147.8191  141.5862  156.5058 C   0  0  0  0  0  0  0  0  0  0  0  0
  148.4267  141.5807  155.2344 C   0  0  0  0  0  0  0  0  0  0  0  0
  149.9061  141.2622  155.1007 C   0  0  0  0  0  0  0  0  0  0  0  0
  150.6886  141.4847  156.3669 C   0  0  0  0  0  0  0  0  0  0  0  0
  150.7110  142.6641  156.9932 N   0  0  0  0  0  0  0  0  0  0  0  0
  151.5321  142.4240  158.0761 C   0  0  0  0  0  0  0  0  0  0  0  0
  151.9451  143.2780  159.1235 C   0  0  0  0  0  0  0  0  0  0  0  0
  152.8034  142.8021  160.1362 C   0  0  0  0  0  0  0  0  0  0  0  0
  153.2613  141.4687  160.1151 C   0  0  0  0  0  0  0  0  0  0  0  0
  152.8619  140.6017  159.0798 C   0  0  0  0  0  0  0  0  0  0  0  0
  152.0035  141.0818  158.0724 C   0  0  0  0  0  0  0  0  0  0  0  0
  151.4352  140.5052  156.9409 N   0  0  0  0  0  0  0  0  0  0  0  0
  151.6324  139.1291  156.5031 C   0  0  0  0  0  0  0  0  0  0  0  0
  152.2048  139.0400  155.0739 C   0  0  1  0  0  0  0  0  0  0  0  0
  153.6167  138.9801  155.1330 O   0  0  0  0  0  0  0  0  0  0  0  0
  151.6919  137.7960  154.3294 C   0  0  0  0  0  0  0  0  0  0  0  0
  151.9477  136.6327  155.0887 O   0  0  0  0  0  0  0  0  0  0  0  0
  147.6537  141.8764  154.0936 C   0  0  0  0  0  0  0  0  0  0  0  0
  146.2844  142.1761  154.2271 C   0  0  0  0  0  0  0  0  0  0  0  0
  142.6586  142.8975  156.6710 H   0  0  0  0  0  0  0  0  0  0  0  0
  144.1669  143.4915  157.3547 H   0  0  0  0  0  0  0  0  0  0  0  0
  143.7778  141.7548  157.4050 H   0  0  0  0  0  0  0  0  0  0  0  0
  146.0237  141.8811  157.6297 H   0  0  0  0  0  0  0  0  0  0  0  0
  148.4051  141.3636  157.3857 H   0  0  0  0  0  0  0  0  0  0  0  0
  149.9876  140.2244  154.7805 H   0  0  0  0  0  0  0  0  0  0  0  0
  150.3464  141.8685  154.3085 H   0  0  0  0  0  0  0  0  0  0  0  0
  151.6004  144.3011  159.1475 H   0  0  0  0  0  0  0  0  0  0  0  0
  153.1122  143.4636  160.9322 H   0  0  0  0  0  0  0  0  0  0  0  0
  153.9191  141.1120  160.8941 H   0  0  0  0  0  0  0  0  0  0  0  0
  153.2096  139.5795  159.0608 H   0  0  0  0  0  0  0  0  0  0  0  0
  152.2661  138.5999  157.2144 H   0  0  0  0  0  0  0  0  0  0  0  0
  150.6652  138.6265  156.5418 H   0  0  0  0  0  0  0  0  0  0  0  0
  151.9194  139.9386  154.5245 H   0  0  0  0  0  0  0  0  0  0  0  0
  153.8724  138.0710  155.1731 H   0  0  0  0  0  0  0  0  0  0  0  0
  150.6267  137.8739  154.1073 H   0  0  0  0  0  0  0  0  0  0  0  0
  152.2117  137.6866  153.3771 H   0  0  0  0  0  0  0  0  0  0  0  0
  151.1962  136.0627  155.0280 H   0  0  0  0  0  0  0  0  0  0  0  0
  148.1091  141.8798  153.1140 H   0  0  0  0  0  0  0  0  0  0  0  0
  145.7022  142.4030  153.3459 H   0  0  0  0  0  0  0  0  0  0  0  0
  1  2  1  0  0  0  0
  1 24  1  0  0  0  0
  1 25  1  0  0  0  0
  1 26  1  0  0  0  0
  2  3  1  0  0  0  0
  3 23  1  0  0  0  0
  3  4  2  0  0  0  0
  4  5  1  0  0  0  0
  4 27  1  0  0  0  0
  5  6  2  0  0  0  0
  5 28  1  0  0  0  0
  6  7  1  0  0  0  0
  6 22  1  0  0  0  0
  7  8  1  0  0  0  0
  7 29  1  0  0  0  0
  7 30  1  0  0  0  0
  8 16  1  0  0  0  0
  8  9  2  0  0  0  0
  9 10  1  0  0  0  0
 10 15  2  0  0  0  0
 10 11  1  0  0  0  0
 11 12  2  0  0  0  0
 11 31  1  0  0  0  0
 12 13  1  0  0  0  0
 12 32  1  0  0  0  0
 13 14  2  0  0  0  0
 13 33  1  0  0  0  0
 14 15  1  0  0  0  0
 14 34  1  0  0  0  0
 15 16  1  0  0  0  0
 16 17  1  0  0  0  0
 17 18  1  0  0  0  0
 17 35  1  0  0  0  0
 17 36  1  0  0  0  0
 18 19  1  0  0  0  0
 18 20  1  0  0  0  0
 18 37  1  0  0  0  0
 19 38  1  0  0  0  0
 20 21  1  0  0  0  0
 20 39  1  0  0  0  0
 20 40  1  0  0  0  0
 21 41  1  0  0  0  0
 22 23  2  0  0  0  0
 22 42  1  0  0  0  0
 23 43  1  0  0  0  0
M  END
> <s_m_source_file>
AV-unprocessed.smi

> <i_m_source_file_index>
877

> <i_lp_mmshare_version>
43012

> <i_f3d_flags>
0

> <s_epik_input>
W0NIM11PYzFbY0hdW2NIXWMoW2NIXVtjSF0xKVtDSDJdYyhuMiluKFtDSDJdW0NASF0oW09IXSlbQ0gyXVtPSF0pYyhjMjMpW2NIXVtjSF1bY0hdW2NIXTM=

> <s_epik_cmdline>
J2VwaWtfcHl0aG9uJywgJy1waCcsICc3LjAnLCAnLXRuJywgJzgnLCAnLW1hJywgJzIwMCcsICctbWV0YWxfYmluZGluZycsICctaW1hZScsICc8aW5maWxlLm1hZT4nLCAnLW9tYWUnLCAnPG91dGZpbGUubWFlPic=

> <r_lp_tautomer_probability>
1

> <r_epik_Ionization_Penalty>
0.0616669

> <r_epik_Ionization_Penalty_Charging>
0

> <r_epik_Ionization_Penalty_Neutral>
0.0616669

> <r_epik_State_Penalty>
0.0535415

> <r_epik_Charging_Adjusted_Penalty>
0.0535415

> <i_epik_Tot_Q>
0

> <i_epik_Tot_abs_Q>
0

> <r_epik_Metal_State_Penalty>
5.60326e-05

> <b_epik_Metal_Only>
0

> <s_lp_Force_Field>
OPLS_2005

> <r_lp_Energy>
19.9882

> <b_lp_Chiralities_Consistent>
1

> <s_lp_Variant>
AV-unprocessed.smi:877-2

> <Gold.Version>
5.8.1

> <Gold.Id.Protein>
6NUR|6NUR_protein|mol2

> <Gold.PLP.Fitness>
51.7711

> <Gold.PLP.PLP>
-47.3342

> <Gold.PLP.part.hbond>
-2.0000

> <Gold.PLP.part.metal>
0.0000

> <Gold.PLP.part.buried>
-5.3603

> <Gold.PLP.part.nonpolar>
-41.2612

> <Gold.PLP.part.repulsive>
0.7840

> <Gold.PLP.ligand.clash>
0.0000

> <Gold.PLP.ligand.torsion>
0.8289

> <Gold.PLP.Chemscore.Hbond>
2.0000

> <Gold.PLP.Chemscore.CHOScore>
0.0000

> <Gold.PLP.Chemscore.Metal>
0.0000

> <Gold.Chemscore.Hbonds>
donor molecule, donor type, donor heavy atom, donor atom, acceptor molecule, acceptor atom, score
      P1  H  7997  8010       L1    19  1.00
      P1  H 10752 10765       L1    21  0.78

> <Gold.PLP.Chemscore.Internal.Correction>
0.0946

> <Gold.Rescore>
     Score         DG    S(hbond)    S(metal)    S(lipo)     H(rot)  DE(clash)    DE(int)     intcor
     15.81     -16.73       1.81        0.00     113.53       3.15       0.24       0.68       ----

> <Gold.Chemscore.Fitness>
15.8107

> <Gold.Chemscore.DG>
-16.7323

> <Gold.Chemscore.ZeroCoef>
-5.4800

> <Gold.Chemscore.Hbond>
1.8055

> <Gold.Chemscore.Metal>
0.0000

> <Gold.Chemscore.Lipo>
113.5277

> <Gold.Chemscore.Internal_Hbond>
0.0000

> <Gold.Chemscore.DEClash>
0.2416

> <Gold.Chemscore.DEInternal>
0.6800

> <Gold.Chemscore.Rot>
3.1488

> <Gold.Chemscore.Internal.Correction>
   9.000000E+99

> <Gold.Chemscore.Hbonds>
donor molecule, donor type, donor heavy atom, donor atom, acceptor molecule, acceptor atom, score
      P1  H  7997  8010       L1    19  0.91
      P1  H 10752 10765       L1    21  0.09

> <Gold.Chemscore.Hbond.Weighted>
-6.0304

> <Gold.Chemscore.Metal.Weighted>
-0.0000

> <Gold.Chemscore.Lipo.Weighted>
-13.2827

> <Gold.Chemscore.Internal_Hbond.Weighted>
0.0000

> <Gold.Chemscore.DEClash.Weighted>
0.2416

> <Gold.Chemscore.DEInternal.Weighted>
0.6800

> <Gold.Chemscore.Rot.Weighted>
8.0608

> <Gold.Chemscore.Internal.Correction.Weighted>
   9.000000E+99

> <Gold.Protein.RotatedTorsions>
[ 6907 6896 6895 6894 ] final  -83.61 input  -60.11 | X-H torsion
[ 7974 7965 7964 7962 ] final  -48.16 input  175.53 | X-H torsion
[ 8008 7997 7996 7995 ] final  102.13 input   59.86 | X-H torsion
[ 10167 10162 10161 10158 ] final   -4.55 input  -65.29 | X-H torsion
[ 10718 10713 10712 10709 ] final   68.62 input   66.30 | X-H torsion
[ 10763 10752 10751 10750 ] final  166.80 input  -60.55 | X-H torsion
[ 11005 11000 10999 10996 ] final  -95.70 input  -57.11 | X-H torsion

> <Gold.Protein.ActiveResidues>
 VAL166  LYS551  ARG553  GLY616  TRP617  ASP618  TYR619  PRO620  LYS621  CYS622 
 ASP623  PHE694  ASN695  SER759  ASP760  ASP761  ALA762  ILE779  LEU786  VAL792 
 PHE793  MET794  SER795  GLU796  ALA797  LYS798  CYS799  TRP800  GLU811  SER814 

> <Gold.Protein.RotatedAtoms>
  150.6884  134.3485  159.4898 H   0  0  0  0  0  0  0  0  0  0  0  0  # atno 6907 bound_to 6896
  152.1329  134.9118  160.0567 H   0  0  0  0  0  0  0  0  0  0  0  0  # atno 6908 bound_to 6896
  152.0281  133.3891  159.4323 H   0  0  0  0  0  0  0  0  0  0  0  0  # atno 6909 bound_to 6896
  145.9541  140.7544  142.9490 H   0  0  0  0  0  0  0  0  0  0  0  0  # atno 7974 bound_to 7965
  156.1364  140.3186  155.8428 H   0  0  0  0  0  0  0  0  0  0  0  0  # atno 8008 bound_to 7997
  155.4236  140.0514  157.3041 H   0  0  0  0  0  0  0  0  0  0  0  0  # atno 8009 bound_to 7997
  154.4940  140.2103  155.9498 H   0  0  0  0  0  0  0  0  0  0  0  0  # atno 8010 bound_to 7997
  140.6931  143.6411  150.8435 H   0  0  0  0  0  0  0  0  0  0  0  0  # atno 10167 bound_to 10162
  157.6299  130.9383  150.0402 H   0  0  0  0  0  0  0  0  0  0  0  0  # atno 10718 bound_to 10713
  154.3443  135.2753  155.2406 H   0  0  0  0  0  0  0  0  0  0  0  0  # atno 10763 bound_to 10752
  154.4662  135.5894  153.6293 H   0  0  0  0  0  0  0  0  0  0  0  0  # atno 10764 bound_to 10752
  152.9855  135.6077  154.3648 H   0  0  0  0  0  0  0  0  0  0  0  0  # atno 10765 bound_to 10752
  141.1434  133.8045  157.0471 H   0  0  0  0  0  0  0  0  0  0  0  0  # atno 11005 bound_to 11000
  144.6801  140.2482  143.7335 LP  0  0  0  0  0  0  0  0  0  0  0  0  # atno 17320 bound_to 7965
  145.8131  139.2011  143.1981 LP  0  0  0  0  0  0  0  0  0  0  0  0  # atno 17321 bound_to 7965
  140.0126  143.5627  152.2833 LP  0  0  0  0  0  0  0  0  0  0  0  0  # atno 17342 bound_to 10162
  139.6356  144.7649  151.2445 LP  0  0  0  0  0  0  0  0  0  0  0  0  # atno 17343 bound_to 10162
  156.1496  130.3642  149.9458 LP  0  0  0  0  0  0  0  0  0  0  0  0  # atno 17370 bound_to 10713
  156.7481  130.9105  151.3636 LP  0  0  0  0  0  0  0  0  0  0  0  0  # atno 17371 bound_to 10713
  140.0656  134.9731  157.1379 LP  0  0  0  0  0  0  0  0  0  0  0  0  # atno 17394 bound_to 11000
  140.3785  134.2313  155.7172 LP  0  0  0  0  0  0  0  0  0  0  0  0  # atno 17395 bound_to 11000

$$$$
