AV-unprocessed.smi:1401|AV-procd|sdf|5690|dock5
  -GOLD-   22720 5313D 1   1.00000     0.00000
 Structure written by MMmdl.
 48 50  0  0  0  0  0  0  0  0  1 V2000
  153.4995  137.6374  165.2254 C   0  0  0  0  0  0  0  0  0  0  0  0
  153.6524  137.0712  163.8395 C   0  0  0  0  0  0  0  0  0  0  0  0
  153.5914  137.9114  162.8593 N   0  0  0  0  0  0  0  0  0  0  0  0
  153.7121  137.4960  161.5472 N   0  0  0  0  0  0  0  0  0  0  0  0
  153.5980  138.5810  160.5617 C   0  0  0  0  0  0  0  0  0  0  0  0
  153.8885  139.9690  161.1506 C   0  0  0  0  0  0  0  0  0  0  0  0
  154.9203  140.1798  161.7897 O   0  0  0  0  0  0  0  0  0  0  0  0
  152.9686  140.9144  160.9053 N   0  0  0  0  0  0  0  0  0  0  0  0
  153.0454  142.3080  161.3384 C   0  0  2  0  0  0  0  0  0  0  0  0
  152.8691  142.3734  162.8666 C   0  0  0  0  0  0  0  0  0  0  0  0
  151.9840  143.1507  160.5898 C   0  0  1  0  0  0  0  0  0  0  0  0
  151.8511  144.5979  161.1243 C   0  0  0  0  0  0  0  0  0  0  0  0
  152.0289  145.4614  159.8629 C   0  0  2  0  0  0  0  0  0  0  0  0
  150.8070  145.2891  158.9425 C   0  0  0  0  0  0  0  0  0  0  0  0
  151.0031  143.8670  158.3849 C   0  0  0  0  0  0  0  0  0  0  0  0
  152.2912  143.3997  159.0897 C   0  0  1  0  0  0  0  0  0  0  0  0
  153.1060  144.6888  159.1136 C   0  0  0  0  0  0  0  0  0  0  0  0
  153.9064  136.2035  161.1563 C   0  0  0  0  0  0  0  0  0  0  0  0
  154.0061  135.8775  159.9725 O   0  0  0  0  0  0  0  0  0  0  0  0
  153.9808  135.2580  162.2724 C   0  0  0  0  0  0  0  0  0  0  0  0
  154.1863  133.8934  161.9077 C   0  0  0  0  0  0  0  0  0  0  0  0
  154.3386  132.7811  161.6261 N   0  0  0  0  0  0  0  0  0  0  0  0
  153.8618  135.6533  163.5647 C   0  0  0  0  0  0  0  0  0  0  0  0
  153.9302  134.7118  164.7593 C   0  0  0  0  0  0  0  0  0  0  0  0
  154.4063  137.4787  165.8095 H   0  0  0  0  0  0  0  0  0  0  0  0
  152.6704  137.1615  165.7495 H   0  0  0  0  0  0  0  0  0  0  0  0
  153.3020  138.7104  165.2073 H   0  0  0  0  0  0  0  0  0  0  0  0
  154.2925  138.4144  159.7362 H   0  0  0  0  0  0  0  0  0  0  0  0
  152.6034  138.5745  160.1110 H   0  0  0  0  0  0  0  0  0  0  0  0
  152.1539  140.6517  160.3698 H   0  0  0  0  0  0  0  0  0  0  0  0
  154.0334  142.6991  161.0885 H   0  0  0  0  0  0  0  0  0  0  0  0
  152.9578  143.3939  163.2385 H   0  0  0  0  0  0  0  0  0  0  0  0
  153.6277  141.7793  163.3772 H   0  0  0  0  0  0  0  0  0  0  0  0
  151.8925  141.9945  163.1696 H   0  0  0  0  0  0  0  0  0  0  0  0
  151.0249  142.6376  160.6791 H   0  0  0  0  0  0  0  0  0  0  0  0
  150.8933  144.7718  161.6160 H   0  0  0  0  0  0  0  0  0  0  0  0
  152.6373  144.8337  161.8426 H   0  0  0  0  0  0  0  0  0  0  0  0
  152.2729  146.5024  160.0765 H   0  0  0  0  0  0  0  0  0  0  0  0
  149.8655  145.3993  159.4817 H   0  0  0  0  0  0  0  0  0  0  0  0
  150.8196  146.0226  158.1352 H   0  0  0  0  0  0  0  0  0  0  0  0
  150.1525  143.2162  158.5905 H   0  0  0  0  0  0  0  0  0  0  0  0
  151.1437  143.8975  157.3036 H   0  0  0  0  0  0  0  0  0  0  0  0
  152.7725  142.5672  158.5767 H   0  0  0  0  0  0  0  0  0  0  0  0
  153.3127  145.0886  158.1193 H   0  0  0  0  0  0  0  0  0  0  0  0
  154.0438  144.6035  159.6651 H   0  0  0  0  0  0  0  0  0  0  0  0
  154.1163  133.6800  164.4625 H   0  0  0  0  0  0  0  0  0  0  0  0
  152.9913  134.7291  165.3133 H   0  0  0  0  0  0  0  0  0  0  0  0
  154.7336  135.0070  165.4347 H   0  0  0  0  0  0  0  0  0  0  0  0
  1  2  1  0  0  0  0
  1 25  1  0  0  0  0
  1 26  1  0  0  0  0
  1 27  1  0  0  0  0
  2 23  1  0  0  0  0
  2  3  2  0  0  0  0
  3  4  1  0  0  0  0
  4  5  1  0  0  0  0
  4 18  1  0  0  0  0
  5  6  1  0  0  0  0
  5 28  1  0  0  0  0
  5 29  1  0  0  0  0
  6  7  2  0  0  0  0
  6  8  1  0  0  0  0
  8  9  1  0  0  0  0
  8 30  1  0  0  0  0
  9 10  1  0  0  0  0
  9 11  1  0  0  0  0
  9 31  1  0  0  0  0
 10 32  1  0  0  0  0
 10 33  1  0  0  0  0
 10 34  1  0  0  0  0
 11 16  1  0  0  0  0
 11 12  1  0  0  0  0
 11 35  1  0  0  0  0
 12 13  1  0  0  0  0
 12 36  1  0  0  0  0
 12 37  1  0  0  0  0
 13 17  1  0  0  0  0
 13 14  1  0  0  0  0
 13 38  1  0  0  0  0
 14 15  1  0  0  0  0
 14 39  1  0  0  0  0
 14 40  1  0  0  0  0
 15 16  1  0  0  0  0
 15 41  1  0  0  0  0
 15 42  1  0  0  0  0
 16 17  1  0  0  0  0
 16 43  1  0  0  0  0
 17 44  1  0  0  0  0
 17 45  1  0  0  0  0
 18 19  2  0  0  0  0
 18 20  1  0  0  0  0
 20 21  1  0  0  0  0
 20 23  2  0  0  0  0
 21 22  3  0  0  0  0
 23 24  1  0  0  0  0
 24 46  1  0  0  0  0
 24 47  1  0  0  0  0
 24 48  1  0  0  0  0
M  END
> <s_m_source_file>
AV-unprocessed.smi

> <i_m_source_file_index>
1401

> <i_lp_mmshare_version>
43012

> <i_f3d_flags>
0

> <s_epik_input>
TiNDYyhjMVtDSDNdKWMoPU8pbihuYzFbQ0gzXSlbQ0gyXUMoPU8pW05IXVtDQEhdKFtDSDNdKVtDQEhdKFtDSDJdW0NASF0yMylbQ0BIXShbQ0gyXTMpW0NIMl1bQ0gyXTI=

> <s_epik_cmdline>
J2VwaWtfcHl0aG9uJywgJy1waCcsICc3LjAnLCAnLXRuJywgJzgnLCAnLW1hJywgJzIwMCcsICctbWV0YWxfYmluZGluZycsICctaW1hZScsICc8aW5maWxlLm1hZT4nLCAnLW9tYWUnLCAnPG91dGZpbGUubWFlPic=

> <r_lp_tautomer_probability>
1

> <r_epik_Ionization_Penalty>
2.16501e-08

> <r_epik_Ionization_Penalty_Charging>
2.29436e-11

> <r_epik_Ionization_Penalty_Neutral>
2.16271e-08

> <r_epik_State_Penalty>
-0

> <r_epik_Charging_Adjusted_Penalty>
2.29436e-11

> <i_epik_Tot_Q>
0

> <i_epik_Tot_abs_Q>
0

> <r_epik_Metal_State_Penalty>
-0

> <b_epik_Metal_Only>
0

> <s_lp_Force_Field>
OPLS_2005

> <r_lp_Energy>
65.9265

> <b_lp_Chiralities_Consistent>
1

> <s_lp_Variant>
AV-unprocessed.smi:1401-3

> <Gold.Version>
5.8.1

> <Gold.Id.Protein>
6NUR|6NUR_protein|mol2

> <Gold.PLP.Fitness>
54.1212

> <Gold.PLP.PLP>
-52.3382

> <Gold.PLP.part.hbond>
-1.0000

> <Gold.PLP.part.metal>
0.0000

> <Gold.PLP.part.buried>
-6.9320

> <Gold.PLP.part.nonpolar>
-44.4971

> <Gold.PLP.part.repulsive>
0.0874

> <Gold.PLP.ligand.clash>
0.0000

> <Gold.PLP.ligand.torsion>
0.6197

> <Gold.PLP.Chemscore.Hbond>
1.0000

> <Gold.PLP.Chemscore.CHOScore>
0.0000

> <Gold.PLP.Chemscore.Metal>
0.0000

> <Gold.Chemscore.Hbonds>
donor molecule, donor type, donor heavy atom, donor atom, acceptor molecule, acceptor atom, score
      P1  H  6896  6907       L1    19  0.80

> <Gold.PLP.Chemscore.Internal.Correction>
0.0225

> <Gold.Rescore>
     Score         DG    S(hbond)    S(metal)    S(lipo)     H(rot)  DE(clash)    DE(int)     intcor
     18.88     -21.17       0.96        0.00     142.20       1.63       0.06       2.23       ----

> <Gold.Chemscore.Fitness>
18.8794

> <Gold.Chemscore.DG>
-21.1717

> <Gold.Chemscore.ZeroCoef>
-5.4800

> <Gold.Chemscore.Hbond>
0.9649

> <Gold.Chemscore.Metal>
0.0000

> <Gold.Chemscore.Lipo>
142.1959

> <Gold.Chemscore.Internal_Hbond>
0.0000

> <Gold.Chemscore.DEClash>
0.0633

> <Gold.Chemscore.DEInternal>
2.2291

> <Gold.Chemscore.Rot>
1.6281

> <Gold.Chemscore.Internal.Correction>
   9.000000E+99

> <Gold.Chemscore.Hbonds>
donor molecule, donor type, donor heavy atom, donor atom, acceptor molecule, acceptor atom, score
      P1  H  6896  6907       L1    19  0.11

> <Gold.Chemscore.Hbond.Weighted>
-3.2227

> <Gold.Chemscore.Metal.Weighted>
-0.0000

> <Gold.Chemscore.Lipo.Weighted>
-16.6369

> <Gold.Chemscore.Internal_Hbond.Weighted>
0.0000

> <Gold.Chemscore.DEClash.Weighted>
0.0633

> <Gold.Chemscore.DEInternal.Weighted>
2.2291

> <Gold.Chemscore.Rot.Weighted>
4.1678

> <Gold.Chemscore.Internal.Correction.Weighted>
   9.000000E+99

> <Gold.Protein.RotatedTorsions>
[ 6907 6896 6895 6894 ] final   66.85 input  -60.11 | X-H torsion
[ 7974 7965 7964 7962 ] final  -54.71 input  175.53 | X-H torsion
[ 8008 7997 7996 7995 ] final   88.72 input   59.86 | X-H torsion
[ 10167 10162 10161 10158 ] final -102.58 input  -65.29 | X-H torsion
[ 10718 10713 10712 10709 ] final   -9.26 input   66.30 | X-H torsion
[ 10763 10752 10751 10750 ] final  -54.05 input  -60.55 | X-H torsion
[ 11005 11000 10999 10996 ] final -169.76 input  -57.11 | X-H torsion

> <Gold.Protein.ActiveResidues>
 VAL166  LYS551  ARG553  GLY616  TRP617  ASP618  TYR619  PRO620  LYS621  CYS622 
 ASP623  PHE694  ASN695  SER759  ASP760  ASP761  ALA762  ILE779  LEU786  VAL792 
 PHE793  MET794  SER795  GLU796  ALA797  LYS798  CYS799  TRP800  GLU811  SER814 

> <Gold.Protein.RotatedAtoms>
  152.4510  134.5393  159.9834 H   0  0  0  0  0  0  0  0  0  0  0  0  # atno 6907 bound_to 6896
  151.5466  133.3418  159.2953 H   0  0  0  0  0  0  0  0  0  0  0  0  # atno 6908 bound_to 6896
  150.8439  134.7773  159.7018 H   0  0  0  0  0  0  0  0  0  0  0  0  # atno 6909 bound_to 6896
  145.8825  140.8134  142.9833 H   0  0  0  0  0  0  0  0  0  0  0  0  # atno 7974 bound_to 7965
  155.9912  140.3368  155.6755 H   0  0  0  0  0  0  0  0  0  0  0  0  # atno 8008 bound_to 7997
  155.6418  140.0696  157.2634 H   0  0  0  0  0  0  0  0  0  0  0  0  # atno 8009 bound_to 7997
  154.4220  140.1741  156.1568 H   0  0  0  0  0  0  0  0  0  0  0  0  # atno 8010 bound_to 7997
  140.2291  143.3620  152.0902 H   0  0  0  0  0  0  0  0  0  0  0  0  # atno 10167 bound_to 10162
  156.6907  130.5064  149.5944 H   0  0  0  0  0  0  0  0  0  0  0  0  # atno 10718 bound_to 10713
  154.1687  135.6463  153.5004 H   0  0  0  0  0  0  0  0  0  0  0  0  # atno 10763 bound_to 10752
  153.0090  135.5378  154.6635 H   0  0  0  0  0  0  0  0  0  0  0  0  # atno 10764 bound_to 10752
  154.5969  135.2939  155.0549 H   0  0  0  0  0  0  0  0  0  0  0  0  # atno 10765 bound_to 10752
  140.5271  134.5653  157.5064 H   0  0  0  0  0  0  0  0  0  0  0  0  # atno 11005 bound_to 11000
  144.6727  140.1405  143.7437 LP  0  0  0  0  0  0  0  0  0  0  0  0  # atno 17320 bound_to 7965
  145.9007  139.2429  143.1495 LP  0  0  0  0  0  0  0  0  0  0  0  0  # atno 17321 bound_to 7965
  139.5116  144.6904  151.5775 LP  0  0  0  0  0  0  0  0  0  0  0  0  # atno 17342 bound_to 10162
  140.6198  143.9279  150.6517 LP  0  0  0  0  0  0  0  0  0  0  0  0  # atno 17343 bound_to 10162
  156.1800  130.6492  151.0940 LP  0  0  0  0  0  0  0  0  0  0  0  0  # atno 17370 bound_to 10713
  157.7010  131.0776  150.6820 LP  0  0  0  0  0  0  0  0  0  0  0  0  # atno 17371 bound_to 10713
  139.9574  134.7511  156.0311 LP  0  0  0  0  0  0  0  0  0  0  0  0  # atno 17394 bound_to 11000
  141.1302  133.6588  156.3444 LP  0  0  0  0  0  0  0  0  0  0  0  0  # atno 17395 bound_to 11000

$$$$
