AV-unprocessed.smi:539|AV-procd|sdf|2867|dock3
  -GOLD-   2262023363D 1   1.00000     0.00000
 Structure written by MMmdl.
 40 42  0  0  0  0  0  0  0  0  1 V2000
  147.7424  141.7628  153.7219 C   0  0  0  0  0  0  0  0  0  0  0  0
  149.1074  141.9103  154.0690 O   0  0  0  0  0  0  0  0  0  0  0  0
  149.4021  141.3885  155.3546 C   0  0  0  0  0  0  0  0  0  0  0  0
  150.7038  142.0070  155.8832 C   0  0  0  0  0  0  0  0  0  0  0  0
  151.3875  141.1161  156.8187 N   0  0  0  0  0  0  0  0  0  0  0  0
  151.7999  141.3847  158.0864 C   0  0  0  0  0  0  0  0  0  0  0  0
  151.6381  142.6436  158.6605 N   0  0  0  0  0  0  0  0  0  0  0  0
  150.4864  143.5170  158.4846 C   0  0  0  0  0  0  0  0  0  0  0  0
  150.8559  144.8999  159.0366 C   0  0  0  0  0  0  0  0  0  0  0  0
  152.2031  144.6930  159.7206 C   0  0  0  0  0  0  0  0  0  0  0  0
  152.2998  143.1779  159.8405 C   0  0  0  0  0  0  0  0  0  0  0  0
  152.3197  140.3421  158.7388 N   0  0  0  0  0  0  0  0  0  0  0  0
  152.2613  139.3255  157.7977 C   0  0  0  0  0  0  0  0  0  0  0  0
  151.6993  139.7658  156.6426 C   0  0  0  0  0  0  0  0  0  0  0  0
  151.4751  138.8805  155.4906 C   0  0  0  0  0  0  0  0  0  0  0  0
  150.9560  139.2482  154.4393 O   0  0  0  0  0  0  0  0  0  0  0  0
  151.8945  137.6100  155.7066 N   0  0  0  0  0  0  0  0  0  0  0  0
  152.4706  137.1053  156.8397 C   0  0  0  0  0  0  0  0  0  0  0  0
  152.7949  135.9188  156.8885 O   0  0  0  0  0  0  0  0  0  0  0  0
  152.6625  137.9622  157.8929 N   0  0  0  0  0  0  0  0  0  0  0  0
  153.2713  137.4750  159.1321 C   0  0  0  0  0  0  0  0  0  0  0  0
  151.7624  136.9603  154.9454 H   0  0  0  0  0  0  0  0  0  0  0  0
  147.5702  142.1801  152.7300 H   0  0  0  0  0  0  0  0  0  0  0  0
  147.0971  142.2896  154.4259 H   0  0  0  0  0  0  0  0  0  0  0  0
  147.4529  140.7113  153.6999 H   0  0  0  0  0  0  0  0  0  0  0  0
  148.5836  141.6048  156.0425 H   0  0  0  0  0  0  0  0  0  0  0  0
  149.5039  140.3033  155.3014 H   0  0  0  0  0  0  0  0  0  0  0  0
  151.3687  142.2552  155.0586 H   0  0  0  0  0  0  0  0  0  0  0  0
  150.4888  142.9566  156.3644 H   0  0  0  0  0  0  0  0  0  0  0  0
  150.2154  143.5752  157.4301 H   0  0  0  0  0  0  0  0  0  0  0  0
  149.6342  143.1003  159.0229 H   0  0  0  0  0  0  0  0  0  0  0  0
  150.9310  145.6445  158.2434 H   0  0  0  0  0  0  0  0  0  0  0  0
  150.1000  145.2404  159.7449 H   0  0  0  0  0  0  0  0  0  0  0  0
  153.0052  145.0651  159.0815 H   0  0  0  0  0  0  0  0  0  0  0  0
  152.2750  145.1974  160.6844 H   0  0  0  0  0  0  0  0  0  0  0  0
  151.7569  142.8339  160.7221 H   0  0  0  0  0  0  0  0  0  0  0  0
  153.3284  142.8408  159.9505 H   0  0  0  0  0  0  0  0  0  0  0  0
  154.2207  136.9774  158.9286 H   0  0  0  0  0  0  0  0  0  0  0  0
  152.6101  136.7596  159.6228 H   0  0  0  0  0  0  0  0  0  0  0  0
  153.4746  138.2763  159.8422 H   0  0  0  0  0  0  0  0  0  0  0  0
  1  2  1  0  0  0  0
  1 23  1  0  0  0  0
  1 24  1  0  0  0  0
  1 25  1  0  0  0  0
  2  3  1  0  0  0  0
  3  4  1  0  0  0  0
  3 26  1  0  0  0  0
  3 27  1  0  0  0  0
  4  5  1  0  0  0  0
  4 28  1  0  0  0  0
  4 29  1  0  0  0  0
  5 14  1  0  0  0  0
  5  6  1  0  0  0  0
  6  7  1  0  0  0  0
  6 12  2  0  0  0  0
  7 11  1  0  0  0  0
  7  8  1  0  0  0  0
  8  9  1  0  0  0  0
  8 30  1  0  0  0  0
  8 31  1  0  0  0  0
  9 10  1  0  0  0  0
  9 32  1  0  0  0  0
  9 33  1  0  0  0  0
 10 11  1  0  0  0  0
 10 34  1  0  0  0  0
 10 35  1  0  0  0  0
 11 36  1  0  0  0  0
 11 37  1  0  0  0  0
 12 13  1  0  0  0  0
 13 20  1  0  0  0  0
 13 14  2  0  0  0  0
 14 15  1  0  0  0  0
 15 16  2  0  0  0  0
 15 17  1  0  0  0  0
 17 22  1  0  0  0  0
 17 18  1  0  0  0  0
 18 19  2  0  0  0  0
 18 20  1  0  0  0  0
 20 21  1  0  0  0  0
 21 38  1  0  0  0  0
 21 39  1  0  0  0  0
 21 40  1  0  0  0  0
M  END
> <s_m_source_file>
AV-unprocessed.smi

> <i_m_source_file_index>
539

> <i_lp_mmshare_version>
43012

> <i_f3d_flags>
0

> <s_epik_input>
W0NIM11uMWMoPU8pW25IXWMoPU8pYyhjMTIpbihbQ0gyXVtDSDJdT1tDSDNdKWMobjIpTjNbQ0gyXVtDSDJdW0NIMl1bQ0gyXTM=

> <s_epik_cmdline>
J2VwaWtfcHl0aG9uJywgJy1waCcsICc3LjAnLCAnLXRuJywgJzgnLCAnLW1hJywgJzIwMCcsICctbWV0YWxfYmluZGluZycsICctaW1hZScsICc8aW5maWxlLm1hZT4nLCAnLW9tYWUnLCAnPG91dGZpbGUubWFlPic=

> <r_lp_tautomer_probability>
1

> <r_epik_Ionization_Penalty>
0.000190904

> <r_epik_Ionization_Penalty_Charging>
2.17435e-05

> <r_epik_Ionization_Penalty_Neutral>
0.00016916

> <r_epik_State_Penalty>
-0

> <r_epik_Charging_Adjusted_Penalty>
2.17435e-05

> <i_epik_Tot_Q>
0

> <i_epik_Tot_abs_Q>
0

> <r_epik_Metal_State_Penalty>
0.0206064

> <b_epik_Metal_Only>
0

> <s_lp_Force_Field>
OPLS_2005

> <r_lp_Energy>
47.9611

> <b_lp_Chiralities_Consistent>
1

> <s_lp_Variant>
AV-unprocessed.smi:539-1

> <Gold.Version>
5.8.1

> <Gold.Id.Protein>
6NUR|6NUR_protein|mol2

> <Gold.PLP.Fitness>
45.7196

> <Gold.PLP.PLP>
-39.2552

> <Gold.PLP.part.hbond>
-3.4286

> <Gold.PLP.part.metal>
0.0000

> <Gold.PLP.part.buried>
-6.7687

> <Gold.PLP.part.nonpolar>
-28.9495

> <Gold.PLP.part.repulsive>
0.4557

> <Gold.PLP.ligand.clash>
0.0000

> <Gold.PLP.ligand.torsion>
0.6950

> <Gold.PLP.Chemscore.Hbond>
2.4800

> <Gold.PLP.Chemscore.CHOScore>
0.0000

> <Gold.PLP.Chemscore.Metal>
0.0000

> <Gold.Chemscore.Hbonds>
donor molecule, donor type, donor heavy atom, donor atom, acceptor molecule, acceptor atom, score
      P1  H  7989  7998       L1    16  1.00
      P1  H  8011  8017       L1     2  0.44
      P1  H 10752 10763       L1    19  1.00

> <Gold.PLP.Chemscore.Internal.Correction>
0.4144

> <Gold.Rescore>
     Score         DG    S(hbond)    S(metal)    S(lipo)     H(rot)  DE(clash)    DE(int)     intcor
     14.91     -17.14       2.06        0.00      73.89       1.52       0.01       2.23       ----

> <Gold.Chemscore.Fitness>
14.9068

> <Gold.Chemscore.DG>
-17.1389

> <Gold.Chemscore.ZeroCoef>
-5.4800

> <Gold.Chemscore.Hbond>
2.0640

> <Gold.Chemscore.Metal>
0.0000

> <Gold.Chemscore.Lipo>
73.8938

> <Gold.Chemscore.Internal_Hbond>
0.0000

> <Gold.Chemscore.DEClash>
0.0057

> <Gold.Chemscore.DEInternal>
2.2263

> <Gold.Chemscore.Rot>
1.5159

> <Gold.Chemscore.Internal.Correction>
   9.000000E+99

> <Gold.Chemscore.Hbonds>
donor molecule, donor type, donor heavy atom, donor atom, acceptor molecule, acceptor atom, score
      P1  H  7989  7998       L1    16  0.96
      P1  H  8011  8017       L1     2  0.10
      P1  H 10752 10763       L1    19  0.78

> <Gold.Chemscore.Hbond.Weighted>
-6.8939

> <Gold.Chemscore.Metal.Weighted>
-0.0000

> <Gold.Chemscore.Lipo.Weighted>
-8.6456

> <Gold.Chemscore.Internal_Hbond.Weighted>
0.0000

> <Gold.Chemscore.DEClash.Weighted>
0.0057

> <Gold.Chemscore.DEInternal.Weighted>
2.2263

> <Gold.Chemscore.Rot.Weighted>
3.8806

> <Gold.Chemscore.Internal.Correction.Weighted>
   9.000000E+99

> <Gold.Protein.RotatedTorsions>
[ 6907 6896 6895 6894 ] final   -3.86 input  -60.11 | X-H torsion
[ 7974 7965 7964 7962 ] final  167.01 input  175.53 | X-H torsion
[ 8008 7997 7996 7995 ] final  -31.83 input   59.86 | X-H torsion
[ 10167 10162 10161 10158 ] final -155.64 input  -65.29 | X-H torsion
[ 10718 10713 10712 10709 ] final   74.29 input   66.30 | X-H torsion
[ 10763 10752 10751 10750 ] final  116.03 input  -60.55 | X-H torsion
[ 11005 11000 10999 10996 ] final  118.20 input  -57.11 | X-H torsion

> <Gold.Protein.ActiveResidues>
 VAL166  LYS551  ARG553  GLY616  TRP617  ASP618  TYR619  PRO620  LYS621  CYS622 
 ASP623  PHE694  ASN695  SER759  ASP760  ASP761  ALA762  ILE779  LEU786  VAL792 
 PHE793  MET794  SER795  GLU796  ALA797  LYS798  CYS799  TRP800  GLU811  SER814 

> <Gold.Protein.RotatedAtoms>
  151.5069  135.1064  159.9843 H   0  0  0  0  0  0  0  0  0  0  0  0  # atno 6907 bound_to 6896
  152.4678  133.7957  159.6936 H   0  0  0  0  0  0  0  0  0  0  0  0  # atno 6908 bound_to 6896
  150.8671  133.7496  159.2999 H   0  0  0  0  0  0  0  0  0  0  0  0  # atno 6909 bound_to 6896
  144.7440  139.8699  143.6388 H   0  0  0  0  0  0  0  0  0  0  0  0  # atno 7974 bound_to 7965
  154.4200  140.1754  156.1629 H   0  0  0  0  0  0  0  0  0  0  0  0  # atno 8008 bound_to 7997
  155.9823  140.3376  155.6651 H   0  0  0  0  0  0  0  0  0  0  0  0  # atno 8009 bound_to 7997
  155.6483  140.0687  157.2586 H   0  0  0  0  0  0  0  0  0  0  0  0  # atno 8010 bound_to 7997
  139.6915  143.9413  152.2387 H   0  0  0  0  0  0  0  0  0  0  0  0  # atno 10167 bound_to 10162
  157.6586  130.9670  150.1190 H   0  0  0  0  0  0  0  0  0  0  0  0  # atno 10718 bound_to 10713
  153.5311  135.3578  155.2676 H   0  0  0  0  0  0  0  0  0  0  0  0  # atno 10763 bound_to 10752
  154.8727  135.4068  154.3151 H   0  0  0  0  0  0  0  0  0  0  0  0  # atno 10764 bound_to 10752
  153.3839  135.7069  153.6612 H   0  0  0  0  0  0  0  0  0  0  0  0  # atno 10765 bound_to 10752
  139.9101  134.9618  156.7468 H   0  0  0  0  0  0  0  0  0  0  0  0  # atno 11005 bound_to 11000
  146.1288  139.4319  143.0182 LP  0  0  0  0  0  0  0  0  0  0  0  0  # atno 17320 bound_to 7965
  145.7194  141.0080  143.1410 LP  0  0  0  0  0  0  0  0  0  0  0  0  # atno 17321 bound_to 7965
  139.9230  144.6788  150.8441 LP  0  0  0  0  0  0  0  0  0  0  0  0  # atno 17342 bound_to 10162
  140.7684  143.3361  151.2306 LP  0  0  0  0  0  0  0  0  0  0  0  0  # atno 17343 bound_to 10162
  156.2066  130.3664  149.8721 LP  0  0  0  0  0  0  0  0  0  0  0  0  # atno 17370 bound_to 10713
  156.6611  130.8782  151.3547 LP  0  0  0  0  0  0  0  0  0  0  0  0  # atno 17371 bound_to 10713
  140.6806  133.9478  155.7908 LP  0  0  0  0  0  0  0  0  0  0  0  0  # atno 17394 bound_to 11000
  141.0513  134.0481  157.3780 LP  0  0  0  0  0  0  0  0  0  0  0  0  # atno 17395 bound_to 11000

$$$$
