AV-unprocessed.smi:1990|AV-procd|sdf|8061|dock5
  -GOLD-   2272010263D 1   1.00000     0.00000
 Structure written by MMmdl.
 46 47  0  0  0  0  0  0  0  0  1 V2000
  149.4611  141.7668  158.1634 C   0  0  0  0  0  0  0  0  0  0  0  0
  150.8361  142.1142  157.5660 C   0  0  2  0  0  0  0  0  0  0  0  0
  151.7526  140.8879  157.3821 C   0  0  0  0  0  0  0  0  0  0  0  0
  152.3088  140.4505  158.6591 N   0  0  0  0  0  0  0  0  0  0  0  0
  152.9291  139.1834  158.6439 C   0  0  0  0  0  0  0  0  0  0  0  0
  153.1208  138.4743  159.8526 C   0  0  0  0  0  0  0  0  0  0  0  0
  153.7431  137.2114  159.8206 C   0  0  0  0  0  0  0  0  0  0  0  0
  154.1525  136.6813  158.5746 C   0  0  0  0  0  0  0  0  0  0  0  0
  154.8102  135.4334  158.4023 N   0  0  0  0  0  0  0  0  0  0  0  0
  155.3353  134.8955  157.2853 C   0  0  0  0  0  0  0  0  0  0  0  0
  155.3841  135.4620  156.1940 O   0  0  0  0  0  0  0  0  0  0  0  0
  155.9295  133.4890  157.4448 C   0  0  2  0  0  0  0  0  0  0  0  0
  156.5574  132.9773  156.1376 C   0  0  0  0  0  0  0  0  0  0  0  0
  154.6201  132.3088  158.0204 S   0  0  0  0  0  0  0  0  0  0  0  0
  154.5215  131.0858  156.6456 C   0  0  0  0  0  0  0  0  0  0  0  0
  155.1024  131.6071  159.2201 O   0  0  0  0  0  0  0  0  0  0  0  0
  153.3443  133.0386  158.0770 O   0  0  0  0  0  0  0  0  0  0  0  0
  153.9302  137.4685  157.4273 C   0  0  0  0  0  0  0  0  0  0  0  0
  153.3378  138.6801  157.4538 N   0  0  0  0  0  0  0  0  0  0  0  0
  152.9628  141.5258  159.3992 C   0  0  0  0  0  0  0  0  0  0  0  0
  151.9986  142.7101  159.5859 C   0  0  1  0  0  0  0  0  0  0  0  0
  152.6867  143.9070  160.2508 C   0  0  0  0  0  0  0  0  0  0  0  0
  151.5084  143.1306  158.3135 O   0  0  0  0  0  0  0  0  0  0  0  0
  148.9131  141.0939  157.5035 H   0  0  0  0  0  0  0  0  0  0  0  0
  148.8566  142.6644  158.2949 H   0  0  0  0  0  0  0  0  0  0  0  0
  149.5426  141.2725  159.1313 H   0  0  0  0  0  0  0  0  0  0  0  0
  150.6507  142.5379  156.5787 H   0  0  0  0  0  0  0  0  0  0  0  0
  151.1988  140.0925  156.8849 H   0  0  0  0  0  0  0  0  0  0  0  0
  152.5821  141.1482  156.7231 H   0  0  0  0  0  0  0  0  0  0  0  0
  152.8162  138.8923  160.8009 H   0  0  0  0  0  0  0  0  0  0  0  0
  153.9060  136.6907  160.7509 H   0  0  0  0  0  0  0  0  0  0  0  0
  154.9189  134.8885  159.2453 H   0  0  0  0  0  0  0  0  0  0  0  0
  156.7025  133.5100  158.2138 H   0  0  0  0  0  0  0  0  0  0  0  0
  157.3068  133.6727  155.7581 H   0  0  0  0  0  0  0  0  0  0  0  0
  155.8054  132.8362  155.3600 H   0  0  0  0  0  0  0  0  0  0  0  0
  157.0505  132.0177  156.2937 H   0  0  0  0  0  0  0  0  0  0  0  0
  153.7005  130.3955  156.8381 H   0  0  0  0  0  0  0  0  0  0  0  0
  155.4508  130.5204  156.5823 H   0  0  0  0  0  0  0  0  0  0  0  0
  154.3422  131.6047  155.7043 H   0  0  0  0  0  0  0  0  0  0  0  0
  154.2382  137.1166  156.4534 H   0  0  0  0  0  0  0  0  0  0  0  0
  153.2878  141.1666  160.3765 H   0  0  0  0  0  0  0  0  0  0  0  0
  153.8530  141.8456  158.8558 H   0  0  0  0  0  0  0  0  0  0  0  0
  151.1647  142.4066  160.2190 H   0  0  0  0  0  0  0  0  0  0  0  0
  153.0699  143.6408  161.2361 H   0  0  0  0  0  0  0  0  0  0  0  0
  151.9900  144.7356  160.3781 H   0  0  0  0  0  0  0  0  0  0  0  0
  153.5242  144.2646  159.6514 H   0  0  0  0  0  0  0  0  0  0  0  0
  1  2  1  0  0  0  0
  1 24  1  0  0  0  0
  1 25  1  0  0  0  0
  1 26  1  0  0  0  0
  2 23  1  0  0  0  0
  2  3  1  0  0  0  0
  2 27  1  0  0  0  0
  3  4  1  0  0  0  0
  3 28  1  0  0  0  0
  3 29  1  0  0  0  0
  4  5  1  0  0  0  0
  4 20  1  0  0  0  0
  5 19  1  0  0  0  0
  5  6  2  0  0  0  0
  6  7  1  0  0  0  0
  6 30  1  0  0  0  0
  7  8  2  0  0  0  0
  7 31  1  0  0  0  0
  8  9  1  0  0  0  0
  8 18  1  0  0  0  0
  9 10  1  0  0  0  0
  9 32  1  0  0  0  0
 10 11  2  0  0  0  0
 10 12  1  0  0  0  0
 12 13  1  0  0  0  0
 12 14  1  0  0  0  0
 12 33  1  0  0  0  0
 13 34  1  0  0  0  0
 13 35  1  0  0  0  0
 13 36  1  0  0  0  0
 14 15  1  0  0  0  0
 14 16  2  0  0  0  0
 14 17  2  0  0  0  0
 15 37  1  0  0  0  0
 15 38  1  0  0  0  0
 15 39  1  0  0  0  0
 18 19  2  0  0  0  0
 18 40  1  0  0  0  0
 20 21  1  0  0  0  0
 20 41  1  0  0  0  0
 20 42  1  0  0  0  0
 21 22  1  0  0  0  0
 21 23  1  0  0  0  0
 21 43  1  0  0  0  0
 22 44  1  0  0  0  0
 22 45  1  0  0  0  0
 22 46  1  0  0  0  0
M  END
> <s_m_source_file>
AV-unprocessed.smi

> <i_m_source_file_index>
1990

> <i_lp_mmshare_version>
43012

> <i_f3d_flags>
0

> <s_epik_input>
W0NIM11bQ0BASF0xW0NIMl1OKFtDSDJdW0NASF0oTzEpW0NIM10pYzJbY0hdW2NIXWMoW2NIXW4yKVtOSF1DKD1PKVtDQEhdKFtDSDNdKVMoPU8pKD1PKVtDSDNd

> <s_epik_cmdline>
J2VwaWtfcHl0aG9uJywgJy1waCcsICc3LjAnLCAnLXRuJywgJzgnLCAnLW1hJywgJzIwMCcsICctbWV0YWxfYmluZGluZycsICctaW1hZScsICc8aW5maWxlLm1hZT4nLCAnLW9tYWUnLCAnPG91dGZpbGUubWFlPic=

> <r_lp_tautomer_probability>
1

> <r_epik_Ionization_Penalty>
0.000334888

> <r_epik_Ionization_Penalty_Charging>
0

> <r_epik_Ionization_Penalty_Neutral>
0.000334888

> <r_epik_State_Penalty>
0.000200905

> <r_epik_Charging_Adjusted_Penalty>
0.000200905

> <i_epik_Tot_Q>
0

> <i_epik_Tot_abs_Q>
0

> <r_epik_Metal_State_Penalty>
-0

> <b_epik_Metal_Only>
0

> <s_lp_Force_Field>
OPLS_2005

> <r_lp_Energy>
21.5885

> <b_lp_Chiralities_Consistent>
1

> <s_lp_Variant>
AV-unprocessed.smi:1990-1

> <Gold.Version>
5.8.1

> <Gold.Id.Protein>
6NUR|6NUR_protein|mol2

> <Gold.PLP.Fitness>
36.5744

> <Gold.PLP.PLP>
-27.9271

> <Gold.PLP.part.hbond>
-3.0000

> <Gold.PLP.part.metal>
0.0000

> <Gold.PLP.part.buried>
-5.5590

> <Gold.PLP.part.nonpolar>
-19.4613

> <Gold.PLP.part.repulsive>
0.1572

> <Gold.PLP.ligand.clash>
0.0000

> <Gold.PLP.ligand.torsion>
0.4088

> <Gold.PLP.Chemscore.Hbond>
3.0000

> <Gold.PLP.Chemscore.CHOScore>
0.0000

> <Gold.PLP.Chemscore.Metal>
0.0000

> <Gold.Chemscore.Hbonds>
donor molecule, donor type, donor heavy atom, donor atom, acceptor molecule, acceptor atom, score
      P1  H  6896  6908       L1    17  0.93
      P1  H  7997  8008       L1    19  0.83
      P1  H 10752 10763       L1    11  0.47

> <Gold.PLP.Chemscore.Internal.Correction>
0.4649

> <Gold.Rescore>
     Score         DG    S(hbond)    S(metal)    S(lipo)     H(rot)  DE(clash)    DE(int)     intcor
     15.83     -18.98       2.51        0.00      76.94       1.52       0.09       3.06       ----

> <Gold.Chemscore.Fitness>
15.8329

> <Gold.Chemscore.DG>
-18.9836

> <Gold.Chemscore.ZeroCoef>
-5.4800

> <Gold.Chemscore.Hbond>
2.5110

> <Gold.Chemscore.Metal>
0.0000

> <Gold.Chemscore.Lipo>
76.9425

> <Gold.Chemscore.Internal_Hbond>
0.0000

> <Gold.Chemscore.DEClash>
0.0874

> <Gold.Chemscore.DEInternal>
3.0633

> <Gold.Chemscore.Rot>
1.5177

> <Gold.Chemscore.Internal.Correction>
   9.000000E+99

> <Gold.Chemscore.Hbonds>
donor molecule, donor type, donor heavy atom, donor atom, acceptor molecule, acceptor atom, score
      P1  H  6896  6908       L1    17  0.91
      P1  H  7997  8008       L1    19  0.09
      P1  H 10752 10763       L1    11  0.46

> <Gold.Chemscore.Hbond.Weighted>
-8.3866

> <Gold.Chemscore.Metal.Weighted>
-0.0000

> <Gold.Chemscore.Lipo.Weighted>
-9.0023

> <Gold.Chemscore.Internal_Hbond.Weighted>
0.0000

> <Gold.Chemscore.DEClash.Weighted>
0.0874

> <Gold.Chemscore.DEInternal.Weighted>
3.0633

> <Gold.Chemscore.Rot.Weighted>
3.8853

> <Gold.Chemscore.Internal.Correction.Weighted>
   9.000000E+99

> <Gold.Protein.RotatedTorsions>
[ 6907 6896 6895 6894 ] final    7.11 input  -60.11 | X-H torsion
[ 7974 7965 7964 7962 ] final   27.22 input  175.53 | X-H torsion
[ 8008 7997 7996 7995 ] final  -93.90 input   59.86 | X-H torsion
[ 10167 10162 10161 10158 ] final   13.41 input  -65.29 | X-H torsion
[ 10718 10713 10712 10709 ] final  133.14 input   66.30 | X-H torsion
[ 10763 10752 10751 10750 ] final -178.23 input  -60.55 | X-H torsion
[ 11005 11000 10999 10996 ] final   41.78 input  -57.11 | X-H torsion

> <Gold.Protein.ActiveResidues>
 VAL166  LYS551  ARG553  GLY616  TRP617  ASP618  TYR619  PRO620  LYS621  CYS622 
 ASP623  PHE694  ASN695  SER759  ASP760  ASP761  ALA762  ILE779  LEU786  VAL792 
 PHE793  MET794  SER795  GLU796  ALA797  LYS798  CYS799  TRP800  GLU811  SER814 

> <Gold.Protein.RotatedAtoms>
  151.6846  135.0956  160.0222 H   0  0  0  0  0  0  0  0  0  0  0  0  # atno 6907 bound_to 6896
  152.3815  133.6549  159.6173 H   0  0  0  0  0  0  0  0  0  0  0  0  # atno 6908 bound_to 6896
  150.7751  133.9022  159.3386 H   0  0  0  0  0  0  0  0  0  0  0  0  # atno 6909 bound_to 6896
  146.1796  139.7222  142.8910 H   0  0  0  0  0  0  0  0  0  0  0  0  # atno 7974 bound_to 7965
  154.7415  140.0494  157.0815 H   0  0  0  0  0  0  0  0  0  0  0  0  # atno 8008 bound_to 7997
  155.0172  140.3143  155.4788 H   0  0  0  0  0  0  0  0  0  0  0  0  # atno 8009 bound_to 7997
  156.2865  140.2173  156.5289 H   0  0  0  0  0  0  0  0  0  0  0  0  # atno 8010 bound_to 7997
  140.6004  143.8616  150.6959 H   0  0  0  0  0  0  0  0  0  0  0  0  # atno 10167 bound_to 10162
  157.4803  131.1085  150.9691 H   0  0  0  0  0  0  0  0  0  0  0  0  # atno 10718 bound_to 10713
  154.5503  135.2812  155.1015 H   0  0  0  0  0  0  0  0  0  0  0  0  # atno 10763 bound_to 10752
  154.2463  135.6347  153.5228 H   0  0  0  0  0  0  0  0  0  0  0  0  # atno 10764 bound_to 10752
  153.0001  135.5572  154.6067 H   0  0  0  0  0  0  0  0  0  0  0  0  # atno 10765 bound_to 10752
  140.1802  134.4114  155.8205 H   0  0  0  0  0  0  0  0  0  0  0  0  # atno 11005 bound_to 11000
  145.4114  141.0397  143.3015 LP  0  0  0  0  0  0  0  0  0  0  0  0  # atno 17320 bound_to 7965
  144.8293  139.5656  143.6951 LP  0  0  0  0  0  0  0  0  0  0  0  0  # atno 17321 bound_to 7965
  140.2161  143.3845  152.1680 LP  0  0  0  0  0  0  0  0  0  0  0  0  # atno 17342 bound_to 10162
  139.5287  144.7133  151.5135 LP  0  0  0  0  0  0  0  0  0  0  0  0  # atno 17343 bound_to 10162
  157.0426  130.5755  149.5358 LP  0  0  0  0  0  0  0  0  0  0  0  0  # atno 17370 bound_to 10713
  156.0118  130.5210  150.8011 LP  0  0  0  0  0  0  0  0  0  0  0  0  # atno 17371 bound_to 10713
  141.2222  133.6996  156.7916 LP  0  0  0  0  0  0  0  0  0  0  0  0  # atno 17394 bound_to 11000
  140.2276  134.8710  157.3443 LP  0  0  0  0  0  0  0  0  0  0  0  0  # atno 17395 bound_to 11000

$$$$
