AV-unprocessed.smi:2776|AV-procd|sdf|10707|dock9
  -GOLD-   2272015143D 1   1.00000     0.00000
 Structure written by MMmdl.
 26 27  0  0  0  0  0  0  0  0  2 V2000
  150.0466  138.7490  156.6717 O   0  0  0  0  0  0  0  0  0  0  0  0
  151.1995  139.2889  156.0537 C   0  0  1  0  0  0  0  0  0  0  0  0
  152.0542  140.0383  157.0970 C   0  0  0  0  0  0  0  0  0  0  0  0
  151.5683  141.4007  157.3604 N   0  0  0  0  0  0  0  0  0  0  0  0
  150.8107  142.2182  156.5798 C   0  0  0  0  0  0  0  0  0  0  0  0
  150.6217  143.3812  157.2626 N   0  3  0  0  0  0  0  0  0  0  0  0
  151.2669  143.3060  158.4990 C   0  0  0  0  0  0  0  0  0  0  0  0
  151.3592  144.2287  159.5360 C   0  0  0  0  0  0  0  0  0  0  0  0
  152.0958  143.8356  160.6727 C   0  0  0  0  0  0  0  0  0  0  0  0
  152.2164  144.6957  161.7115 F   0  0  0  0  0  0  0  0  0  0  0  0
  152.7067  142.5659  160.7480 C   0  0  0  0  0  0  0  0  0  0  0  0
  153.4030  142.2270  161.8588 F   0  0  0  0  0  0  0  0  0  0  0  0
  152.6072  141.6393  159.6892 C   0  0  0  0  0  0  0  0  0  0  0  0
  151.8778  142.0362  158.5691 C   0  0  0  0  0  0  0  0  0  0  0  0
  151.9707  138.1564  155.3490 C   0  0  0  0  0  0  0  0  0  0  0  0
  152.3277  137.2274  156.2361 F   0  0  0  0  0  0  0  0  0  0  0  0
  151.1826  137.5798  154.4419 F   0  0  0  0  0  0  0  0  0  0  0  0
  153.0559  138.6284  154.7345 F   0  0  0  0  0  0  0  0  0  0  0  0
  149.3625  138.6853  156.0223 H   0  0  0  0  0  0  0  0  0  0  0  0
  150.8598  140.0008  155.3002 H   0  0  0  0  0  0  0  0  0  0  0  0
  152.1077  139.4878  158.0364 H   0  0  0  0  0  0  0  0  0  0  0  0
  153.0805  140.1296  156.7399 H   0  0  0  0  0  0  0  0  0  0  0  0
  150.4278  141.9860  155.5962 H   0  0  0  0  0  0  0  0  0  0  0  0
  150.8919  145.2010  159.4833 H   0  0  0  0  0  0  0  0  0  0  0  0
  153.0744  140.6685  159.7612 H   0  0  0  0  0  0  0  0  0  0  0  0
  150.0900  144.1662  156.9085 H   0  0  0  0  0  0  0  0  0  0  0  0
  1  2  1  0  0  0  0
  1 19  1  0  0  0  0
  2  3  1  0  0  0  0
  2 15  1  0  0  0  0
  2 20  1  0  0  0  0
  3  4  1  0  0  0  0
  3 21  1  0  0  0  0
  3 22  1  0  0  0  0
  4 14  1  0  0  0  0
  4  5  1  0  0  0  0
  5  6  2  0  0  0  0
  5 23  1  0  0  0  0
  6  7  1  0  0  0  0
  6 26  1  0  0  0  0
  7 14  2  0  0  0  0
  7  8  1  0  0  0  0
  8  9  2  0  0  0  0
  8 24  1  0  0  0  0
  9 10  1  0  0  0  0
  9 11  1  0  0  0  0
 11 12  1  0  0  0  0
 11 13  2  0  0  0  0
 13 14  1  0  0  0  0
 13 25  1  0  0  0  0
 15 16  1  0  0  0  0
 15 17  1  0  0  0  0
 15 18  1  0  0  0  0
M  CHG  1   6   1
M  END
> <s_m_source_file>
AV-unprocessed.smi

> <i_m_source_file_index>
2776

> <i_lp_mmshare_version>
43012

> <i_f3d_flags>
0

> <s_epik_input>
RkMoRikoRilbQ0BIXShbT0hdKVtDSDJdbihbY0hdbjEpYyhjMTIpW2NIXWMoRiljKEYpW2NIXTI=

> <s_epik_cmdline>
J2VwaWtfcHl0aG9uJywgJy1waCcsICc3LjAnLCAnLXRuJywgJzgnLCAnLW1hJywgJzIwMCcsICctbWV0YWxfYmluZGluZycsICctaW1hZScsICc8aW5maWxlLm1hZT4nLCAnLW9tYWUnLCAnPG91dGZpbGUubWFlPic=

> <r_epik_Ionization_Penalty>
2.38424

> <r_epik_Ionization_Penalty_Charging>
2.37244

> <r_epik_Ionization_Penalty_Neutral>
0.0117937

> <r_epik_State_Penalty>
2.52832

> <r_epik_Charging_Adjusted_Penalty>
4.90076

> <i_epik_Tot_Q>
1

> <i_epik_Tot_abs_Q>
1

> <r_epik_Metal_State_Penalty>
6.61271

> <b_epik_Metal_Only>
0

> <s_lp_Force_Field>
OPLS_2005

> <r_lp_Energy>
13.8942

> <b_lp_Chiralities_Consistent>
1

> <s_lp_Variant>
AV-unprocessed.smi:2776-4

> <Gold.Version>
5.8.1

> <Gold.Id.Protein>
6NUR|6NUR_protein|mol2

> <Gold.PLP.Fitness>
45.3179

> <Gold.PLP.PLP>
-40.7768

> <Gold.PLP.part.hbond>
-1.0000

> <Gold.PLP.part.metal>
0.0000

> <Gold.PLP.part.buried>
-1.8824

> <Gold.PLP.part.nonpolar>
-38.0138

> <Gold.PLP.part.repulsive>
0.0000

> <Gold.PLP.ligand.clash>
0.0000

> <Gold.PLP.ligand.torsion>
0.5663

> <Gold.PLP.Chemscore.Hbond>
1.8880

> <Gold.PLP.Chemscore.CHOScore>
0.0000

> <Gold.PLP.Chemscore.Metal>
0.0000

> <Gold.Chemscore.Hbonds>
donor molecule, donor type, donor heavy atom, donor atom, acceptor molecule, acceptor atom, score
      L1  H     6    26       P1  8028  1.89

> <Gold.PLP.Chemscore.Internal.Correction>
0.0097

> <Gold.Rescore>
     Score         DG    S(hbond)    S(metal)    S(lipo)     H(rot)  DE(clash)    DE(int)     intcor
     11.72     -13.00       0.99        0.00      82.29       2.12       0.56       0.72       ----

> <Gold.Chemscore.Fitness>
11.7200

> <Gold.Chemscore.DG>
-13.0048

> <Gold.Chemscore.ZeroCoef>
-5.4800

> <Gold.Chemscore.Hbond>
0.9930

> <Gold.Chemscore.Metal>
0.0000

> <Gold.Chemscore.Lipo>
82.2928

> <Gold.Chemscore.Internal_Hbond>
0.0000

> <Gold.Chemscore.DEClash>
0.5633

> <Gold.Chemscore.DEInternal>
0.7215

> <Gold.Chemscore.Rot>
2.1173

> <Gold.Chemscore.Internal.Correction>
   9.000000E+99

> <Gold.Chemscore.Hbonds>
donor molecule, donor type, donor heavy atom, donor atom, acceptor molecule, acceptor atom, score
      L1  H     6    26       P1  8028  0.84

> <Gold.Chemscore.Hbond.Weighted>
-3.3167

> <Gold.Chemscore.Metal.Weighted>
-0.0000

> <Gold.Chemscore.Lipo.Weighted>
-9.6283

> <Gold.Chemscore.Internal_Hbond.Weighted>
0.0000

> <Gold.Chemscore.DEClash.Weighted>
0.5633

> <Gold.Chemscore.DEInternal.Weighted>
0.7215

> <Gold.Chemscore.Rot.Weighted>
5.4202

> <Gold.Chemscore.Internal.Correction.Weighted>
   9.000000E+99

> <Gold.Protein.RotatedTorsions>
[ 6907 6896 6895 6894 ] final   31.26 input  -60.11 | X-H torsion
[ 7974 7965 7964 7962 ] final  -83.43 input  175.53 | X-H torsion
[ 8008 7997 7996 7995 ] final  123.80 input   59.86 | X-H torsion
[ 10167 10162 10161 10158 ] final -114.33 input  -65.29 | X-H torsion
[ 10718 10713 10712 10709 ] final -149.19 input   66.30 | X-H torsion
[ 10763 10752 10751 10750 ] final -156.51 input  -60.55 | X-H torsion
[ 11005 11000 10999 10996 ] final  -69.25 input  -57.11 | X-H torsion

> <Gold.Protein.ActiveResidues>
 VAL166  LYS551  ARG553  GLY616  TRP617  ASP618  TYR619  PRO620  LYS621  CYS622 
 ASP623  PHE694  ASN695  SER759  ASP760  ASP761  ALA762  ILE779  LEU786  VAL792 
 PHE793  MET794  SER795  GLU796  ALA797  LYS798  CYS799  TRP800  GLU811  SER814 

> <Gold.Protein.RotatedAtoms>
  152.0578  134.9613  160.0574 H   0  0  0  0  0  0  0  0  0  0  0  0  # atno 6907 bound_to 6896
  152.0989  133.4234  159.4586 H   0  0  0  0  0  0  0  0  0  0  0  0  # atno 6908 bound_to 6896
  150.6839  134.2703  159.4629 H   0  0  0  0  0  0  0  0  0  0  0  0  # atno 6909 bound_to 6896
  145.5200  140.9532  143.1660 H   0  0  0  0  0  0  0  0  0  0  0  0  # atno 7974 bound_to 7965
  156.2779  140.2754  156.1685 H   0  0  0  0  0  0  0  0  0  0  0  0  # atno 8008 bound_to 7997
  155.0679  140.0387  157.2616 H   0  0  0  0  0  0  0  0  0  0  0  0  # atno 8009 bound_to 7997
  154.7064  140.2659  155.6676 H   0  0  0  0  0  0  0  0  0  0  0  0  # atno 8010 bound_to 7997
  140.1021  143.4603  152.1805 H   0  0  0  0  0  0  0  0  0  0  0  0  # atno 10167 bound_to 10162
  156.4300  130.8070  151.2297 H   0  0  0  0  0  0  0  0  0  0  0  0  # atno 10718 bound_to 10713
  154.7707  135.3144  154.8194 H   0  0  0  0  0  0  0  0  0  0  0  0  # atno 10763 bound_to 10752
  153.8931  135.6823  153.4763 H   0  0  0  0  0  0  0  0  0  0  0  0  # atno 10764 bound_to 10752
  153.1321  135.4776  154.9299 H   0  0  0  0  0  0  0  0  0  0  0  0  # atno 10765 bound_to 10752
  141.1550  133.6760  156.6570 H   0  0  0  0  0  0  0  0  0  0  0  0  # atno 11005 bound_to 11000
  144.7681  139.6798  143.7206 LP  0  0  0  0  0  0  0  0  0  0  0  0  # atno 17320 bound_to 7965
  146.2112  139.5469  142.9680 LP  0  0  0  0  0  0  0  0  0  0  0  0  # atno 17321 bound_to 7965
  139.5665  144.7438  151.4008 LP  0  0  0  0  0  0  0  0  0  0  0  0  # atno 17342 bound_to 10162
  140.6972  143.7720  150.7345 LP  0  0  0  0  0  0  0  0  0  0  0  0  # atno 17343 bound_to 10162
  157.7508  131.0201  150.3696 LP  0  0  0  0  0  0  0  0  0  0  0  0  # atno 17370 bound_to 10713
  156.4031  130.3919  149.6945 LP  0  0  0  0  0  0  0  0  0  0  0  0  # atno 17371 bound_to 10713
  140.3276  134.7955  157.4301 LP  0  0  0  0  0  0  0  0  0  0  0  0  # atno 17394 bound_to 11000
  140.1044  134.5430  155.8323 LP  0  0  0  0  0  0  0  0  0  0  0  0  # atno 17395 bound_to 11000

$$$$
