AV-unprocessed.smi:2083|AV-procd|sdf|8498|dock3
  -GOLD-   2272011203D 1   1.00000     0.00000
 Structure written by MMmdl.
 44 45  0  0  0  0  0  0  0  0  3 V2000
  145.5536  133.3304  162.3510 C   0  0  0  0  0  0  0  0  0  0  0  0
  146.4964  134.1969  161.5879 C   0  0  0  0  0  0  0  0  0  0  0  0
  147.0124  135.4395  161.8246 C   0  0  0  0  0  0  0  0  0  0  0  0
  147.8477  135.6650  160.6964 C   0  0  0  0  0  0  0  0  0  0  0  0
  148.5702  136.7698  160.4547 N   0  5  0  0  0  0  0  0  0  0  0  0
  149.4366  136.8062  159.4171 C   0  0  0  0  0  0  0  0  0  0  0  0
  149.5618  135.9547  158.5342 O   0  0  0  0  0  0  0  0  0  0  0  0
  150.2081  137.9006  159.4017 N   0  0  0  0  0  0  0  0  0  0  0  0
  151.2180  138.2087  158.3962 C   0  0  0  0  0  0  0  0  0  0  0  0
  150.9563  139.5720  157.7128 C   0  0  2  0  0  0  0  0  0  0  0  0
  151.4348  139.5329  156.2401 C   0  0  0  0  0  0  0  0  0  0  0  0
  151.5712  140.6720  158.5269 N   0  3  1  0  0  0  0  0  0  0  0  0
  152.9475  140.4152  159.0433 C   0  0  0  0  0  0  0  0  0  0  0  0
  153.4218  141.5452  159.9720 C   0  0  0  0  0  0  0  0  0  0  0  0
  153.3577  142.9058  159.2722 C   0  0  0  0  0  0  0  0  0  0  0  0
  151.9395  143.1517  158.7371 C   0  0  1  0  0  0  0  0  0  0  0  0
  151.8429  144.5011  158.0110 C   0  0  0  0  0  0  0  0  0  0  0  0
  151.5098  141.9864  157.8242 C   0  0  0  0  0  0  0  0  0  0  0  0
  147.8280  134.6550  159.8433 N   0  0  0  0  0  0  0  0  0  0  0  0
  146.9683  133.7068  160.4104 O   0  0  0  0  0  0  0  0  0  0  0  0
  144.5869  133.8208  162.4662 H   0  0  0  0  0  0  0  0  0  0  0  0
  145.9457  133.1170  163.3454 H   0  0  0  0  0  0  0  0  0  0  0  0
  145.3915  132.3803  161.8412 H   0  0  0  0  0  0  0  0  0  0  0  0
  146.8257  136.0836  162.6705 H   0  0  0  0  0  0  0  0  0  0  0  0
  150.0736  138.5731  160.1426 H   0  0  0  0  0  0  0  0  0  0  0  0
  152.1877  138.1850  158.8917 H   0  0  0  0  0  0  0  0  0  0  0  0
  151.2336  137.4212  157.6405 H   0  0  0  0  0  0  0  0  0  0  0  0
  149.8789  139.7438  157.6825 H   0  0  0  0  0  0  0  0  0  0  0  0
  150.9740  138.7142  155.6876 H   0  0  0  0  0  0  0  0  0  0  0  0
  152.5150  139.3985  156.1740 H   0  0  0  0  0  0  0  0  0  0  0  0
  151.1665  140.4401  155.6986 H   0  0  0  0  0  0  0  0  0  0  0  0
  152.9807  139.4954  159.6258 H   0  0  0  0  0  0  0  0  0  0  0  0
  153.6377  140.2967  158.2063 H   0  0  0  0  0  0  0  0  0  0  0  0
  152.8010  141.5655  160.8687 H   0  0  0  0  0  0  0  0  0  0  0  0
  154.4405  141.3482  160.3072 H   0  0  0  0  0  0  0  0  0  0  0  0
  153.6444  143.6951  159.9680 H   0  0  0  0  0  0  0  0  0  0  0  0
  154.0779  142.9332  158.4533 H   0  0  0  0  0  0  0  0  0  0  0  0
  151.2555  143.1863  159.5867 H   0  0  0  0  0  0  0  0  0  0  0  0
  152.5018  144.5336  157.1427 H   0  0  0  0  0  0  0  0  0  0  0  0
  152.1224  145.3229  158.6710 H   0  0  0  0  0  0  0  0  0  0  0  0
  150.8264  144.6891  157.6646 H   0  0  0  0  0  0  0  0  0  0  0  0
  152.1480  141.9510  156.9395 H   0  0  0  0  0  0  0  0  0  0  0  0
  150.4999  142.1811  157.4662 H   0  0  0  0  0  0  0  0  0  0  0  0
  150.9897  140.7554  159.3486 H   0  0  0  0  0  0  0  0  0  0  0  0
  1  2  1  0  0  0  0
  1 21  1  0  0  0  0
  1 22  1  0  0  0  0
  1 23  1  0  0  0  0
  2 20  1  0  0  0  0
  2  3  2  0  0  0  0
  3  4  1  0  0  0  0
  3 24  1  0  0  0  0
  4  5  1  0  0  0  0
  4 19  2  0  0  0  0
  5  6  1  0  0  0  0
  6  7  2  0  0  0  0
  6  8  1  0  0  0  0
  8  9  1  0  0  0  0
  8 25  1  0  0  0  0
  9 10  1  0  0  0  0
  9 26  1  0  0  0  0
  9 27  1  0  0  0  0
 10 11  1  0  0  0  0
 10 12  1  0  0  0  0
 10 28  1  0  0  0  0
 11 29  1  0  0  0  0
 11 30  1  0  0  0  0
 11 31  1  0  0  0  0
 12 18  1  0  0  0  0
 12 13  1  0  0  0  0
 12 44  1  0  0  0  0
 13 14  1  0  0  0  0
 13 32  1  0  0  0  0
 13 33  1  0  0  0  0
 14 15  1  0  0  0  0
 14 34  1  0  0  0  0
 14 35  1  0  0  0  0
 15 16  1  0  0  0  0
 15 36  1  0  0  0  0
 15 37  1  0  0  0  0
 16 17  1  0  0  0  0
 16 18  1  0  0  0  0
 16 38  1  0  0  0  0
 17 39  1  0  0  0  0
 17 40  1  0  0  0  0
 17 41  1  0  0  0  0
 18 42  1  0  0  0  0
 18 43  1  0  0  0  0
 19 20  1  0  0  0  0
M  CHG  1   5  -1
M  CHG  1  12   1
M  END
> <s_m_source_file>
AV-unprocessed.smi

> <i_m_source_file_index>
2083

> <i_lp_mmshare_version>
43012

> <i_f3d_flags>
0

> <s_epik_input>
W0NIM11jMVtjSF1jKG5vMSlbTkhdQyg9TylbTkhdW0NIMl1bQ0BIXShbQ0gzXSlOMltDSDJdW0NIMl1bQ0gyXVtDQEBIXShbQ0gzXSlbQ0gyXTI=

> <s_epik_cmdline>
J2VwaWtfcHl0aG9uJywgJy1waCcsICc3LjAnLCAnLXRuJywgJzgnLCAnLW1hJywgJzIwMCcsICctbWV0YWxfYmluZGluZycsICctaW1hZScsICc8aW5maWxlLm1hZT4nLCAnLW9tYWUnLCAnPG91dGZpbGUubWFlPic=

> <r_epik_Ionization_Penalty>
6.22434

> <r_epik_Ionization_Penalty_Charging>
6.22425

> <r_epik_Ionization_Penalty_Neutral>
9.62407e-05

> <r_epik_State_Penalty>
6.22423

> <r_epik_Charging_Adjusted_Penalty>
12.4485

> <i_epik_Tot_Q>
0

> <i_epik_Tot_abs_Q>
2

> <r_epik_Metal_State_Penalty>
2.16764

> <b_epik_Metal_Only>
1

> <s_lp_Force_Field>
OPLS_2005

> <r_lp_Energy>
12.4443

> <b_lp_Chiralities_Consistent>
1

> <s_lp_Variant>
AV-unprocessed.smi:2083-9

> <Gold.Version>
5.8.1

> <Gold.Id.Protein>
6NUR|6NUR_protein|mol2

> <Gold.PLP.Fitness>
44.8285

> <Gold.PLP.PLP>
-37.6735

> <Gold.PLP.part.hbond>
-2.0000

> <Gold.PLP.part.metal>
0.0000

> <Gold.PLP.part.buried>
-6.0464

> <Gold.PLP.part.nonpolar>
-32.7391

> <Gold.PLP.part.repulsive>
1.8942

> <Gold.PLP.ligand.clash>
0.0000

> <Gold.PLP.ligand.torsion>
0.6023

> <Gold.PLP.Chemscore.Hbond>
2.7600

> <Gold.PLP.Chemscore.CHOScore>
0.0000

> <Gold.PLP.Chemscore.Metal>
0.0000

> <Gold.Chemscore.Hbonds>
donor molecule, donor type, donor heavy atom, donor atom, acceptor molecule, acceptor atom, score
      P1  H  6896  6908       L1     7  0.94
      P1  H  6931  6943       L1     5  1.38

> <Gold.PLP.Chemscore.Internal.Correction>
0.0796

> <Gold.Rescore>
     Score         DG    S(hbond)    S(metal)    S(lipo)     H(rot)  DE(clash)    DE(int)     intcor
     15.98     -19.14       1.61        0.00     103.93       1.52       0.95       2.21       ----

> <Gold.Chemscore.Fitness>
15.9780

> <Gold.Chemscore.DG>
-19.1366

> <Gold.Chemscore.ZeroCoef>
-5.4800

> <Gold.Chemscore.Hbond>
1.6124

> <Gold.Chemscore.Metal>
0.0000

> <Gold.Chemscore.Lipo>
103.9301

> <Gold.Chemscore.Internal_Hbond>
0.0000

> <Gold.Chemscore.DEClash>
0.9482

> <Gold.Chemscore.DEInternal>
2.2103

> <Gold.Chemscore.Rot>
1.5190

> <Gold.Chemscore.Internal.Correction>
   9.000000E+99

> <Gold.Chemscore.Hbonds>
donor molecule, donor type, donor heavy atom, donor atom, acceptor molecule, acceptor atom, score
      P1  H  6896  6908       L1     7  0.26
      P1  H  6931  6943       L1     5  0.52

> <Gold.Chemscore.Hbond.Weighted>
-5.3854

> <Gold.Chemscore.Metal.Weighted>
-0.0000

> <Gold.Chemscore.Lipo.Weighted>
-12.1598

> <Gold.Chemscore.Internal_Hbond.Weighted>
0.0000

> <Gold.Chemscore.DEClash.Weighted>
0.9482

> <Gold.Chemscore.DEInternal.Weighted>
2.2103

> <Gold.Chemscore.Rot.Weighted>
3.8886

> <Gold.Chemscore.Internal.Correction.Weighted>
   9.000000E+99

> <Gold.Protein.RotatedTorsions>
[ 6907 6896 6895 6894 ] final  164.56 input  -60.11 | X-H torsion
[ 7974 7965 7964 7962 ] final -100.02 input  175.53 | X-H torsion
[ 8008 7997 7996 7995 ] final   -3.58 input   59.86 | X-H torsion
[ 10167 10162 10161 10158 ] final  -72.03 input  -65.29 | X-H torsion
[ 10718 10713 10712 10709 ] final  -33.68 input   66.30 | X-H torsion
[ 10763 10752 10751 10750 ] final  114.32 input  -60.55 | X-H torsion
[ 11005 11000 10999 10996 ] final   86.72 input  -57.11 | X-H torsion

> <Gold.Protein.ActiveResidues>
 VAL166  LYS551  ARG553  GLY616  TRP617  ASP618  TYR619  PRO620  LYS621  CYS622 
 ASP623  PHE694  ASN695  SER759  ASP760  ASP761  ALA762  ILE779  LEU786  VAL792 
 PHE793  MET794  SER795  GLU796  ALA797  LYS798  CYS799  TRP800  GLU811  SER814 

> <Gold.Protein.RotatedAtoms>
  151.9080  133.3554  159.3853 H   0  0  0  0  0  0  0  0  0  0  0  0  # atno 6907 bound_to 6896
  150.7064  134.4761  159.5457 H   0  0  0  0  0  0  0  0  0  0  0  0  # atno 6908 bound_to 6896
  152.2362  134.8274  160.0517 H   0  0  0  0  0  0  0  0  0  0  0  0  # atno 6909 bound_to 6896
  145.3000  140.9375  143.2829 H   0  0  0  0  0  0  0  0  0  0  0  0  # atno 7974 bound_to 7965
  154.6234  140.2505  155.7521 H   0  0  0  0  0  0  0  0  0  0  0  0  # atno 8008 bound_to 7997
  156.2439  140.2922  156.0472 H   0  0  0  0  0  0  0  0  0  0  0  0  # atno 8009 bound_to 7997
  155.1860  140.0390  157.2881 H   0  0  0  0  0  0  0  0  0  0  0  0  # atno 8010 bound_to 7997
  140.5225  143.2330  151.7405 H   0  0  0  0  0  0  0  0  0  0  0  0  # atno 10167 bound_to 10162
  156.3598  130.4322  149.7634 H   0  0  0  0  0  0  0  0  0  0  0  0  # atno 10718 bound_to 10713
  153.5056  135.3629  155.2561 H   0  0  0  0  0  0  0  0  0  0  0  0  # atno 10763 bound_to 10752
  154.8745  135.4010  154.3428 H   0  0  0  0  0  0  0  0  0  0  0  0  # atno 10764 bound_to 10752
  153.4072  135.7076  153.6451 H   0  0  0  0  0  0  0  0  0  0  0  0  # atno 10765 bound_to 10752
  139.8937  134.8374  156.2760 H   0  0  0  0  0  0  0  0  0  0  0  0  # atno 11005 bound_to 11000
  144.9101  139.4539  143.6591 LP  0  0  0  0  0  0  0  0  0  0  0  0  # atno 17320 bound_to 7965
  146.3155  139.7904  142.8987 LP  0  0  0  0  0  0  0  0  0  0  0  0  # atno 17321 bound_to 7965
  139.4928  144.4234  151.9953 LP  0  0  0  0  0  0  0  0  0  0  0  0  # atno 17342 bound_to 10162
  140.3331  144.3293  150.5983 LP  0  0  0  0  0  0  0  0  0  0  0  0  # atno 17343 bound_to 10162
  156.4802  130.8037  151.3052 LP  0  0  0  0  0  0  0  0  0  0  0  0  # atno 17370 bound_to 10713
  157.7472  131.0008  150.2940 LP  0  0  0  0  0  0  0  0  0  0  0  0  # atno 17371 bound_to 10713
  141.0069  133.7118  156.1050 LP  0  0  0  0  0  0  0  0  0  0  0  0  # atno 17394 bound_to 11000
  140.7421  134.4139  157.5553 LP  0  0  0  0  0  0  0  0  0  0  0  0  # atno 17395 bound_to 11000

$$$$
