AV-unprocessed.smi:1244|AV-procd|sdf|5224|dock4
  -GOLD-   22720 4323D 1   1.00000     0.00000
 Structure written by MMmdl.
 55 57  0  0  0  0  0  0  0  0  2 V2000
  149.3126  141.4208  156.6552 C   0  0  0  0  0  0  0  0  0  0  0  0
  149.8405  141.3979  155.2096 C   0  0  2  0  0  0  0  0  0  0  0  0
  148.7425  141.1487  154.1567 C   0  0  0  0  0  0  0  0  0  0  0  0
  148.3007  139.7337  154.1659 N   0  3  1  0  0  0  0  0  0  0  0  0
  147.1931  139.4819  153.2106 C   0  0  0  0  0  0  0  0  0  0  0  0
  146.2067  138.4137  153.7213 C   0  0  0  0  0  0  0  0  0  0  0  0
  146.5746  137.0800  153.2612 N   0  0  0  0  0  0  0  0  0  0  0  0
  145.7726  136.2666  152.5600 C   0  0  0  0  0  0  0  0  0  0  0  0
  144.6330  136.5750  152.2108 O   0  0  0  0  0  0  0  0  0  0  0  0
  146.3812  135.1026  152.2797 N   0  0  0  0  0  0  0  0  0  0  0  0
  145.8693  134.0048  151.5317 C   0  0  0  0  0  0  0  0  0  0  0  0
  144.8977  134.1897  150.5178 C   0  0  0  0  0  0  0  0  0  0  0  0
  144.3705  133.0687  149.8542 C   0  0  0  0  0  0  0  0  0  0  0  0
  144.8217  131.7956  150.2398 C   0  0  0  0  0  0  0  0  0  0  0  0
  145.7351  131.6016  151.2119 N   0  0  0  0  0  0  0  0  0  0  0  0
  146.2637  132.6739  151.8515 C   0  0  0  0  0  0  0  0  0  0  0  0
  147.2294  132.4110  152.8498 N   0  0  0  0  0  0  0  0  0  0  0  0
  148.5740  132.9677  152.7426 C   0  0  0  0  0  0  0  0  0  0  0  0
  149.1764  132.8135  154.1358 C   0  0  0  0  0  0  0  0  0  0  0  0
  147.9700  133.0507  155.0390 C   0  0  0  0  0  0  0  0  0  0  0  0
  146.7995  132.4622  154.2444 C   0  0  0  0  0  0  0  0  0  0  0  0
  149.4639  138.8324  153.9850 C   0  0  0  0  0  0  0  0  0  0  0  0
  150.5191  139.0956  155.0745 C   0  0  1  0  0  0  0  0  0  0  0  0
  151.7762  138.2416  154.8759 C   0  0  0  0  0  0  0  0  0  0  0  0
  150.9085  140.4662  155.0379 O   0  0  0  0  0  0  0  0  0  0  0  0
  148.5959  142.2312  156.7910 H   0  0  0  0  0  0  0  0  0  0  0  0
  150.1261  141.5803  157.3633 H   0  0  0  0  0  0  0  0  0  0  0  0
  148.8080  140.4946  156.9279 H   0  0  0  0  0  0  0  0  0  0  0  0
  150.2665  142.3830  155.0165 H   0  0  0  0  0  0  0  0  0  0  0  0
  147.8955  141.8108  154.3416 H   0  0  0  0  0  0  0  0  0  0  0  0
  149.1236  141.3941  153.1640 H   0  0  0  0  0  0  0  0  0  0  0  0
  146.6461  140.4138  153.0596 H   0  0  0  0  0  0  0  0  0  0  0  0
  147.5985  139.2016  152.2370 H   0  0  0  0  0  0  0  0  0  0  0  0
  146.1944  138.3854  154.8101 H   0  0  0  0  0  0  0  0  0  0  0  0
  145.1890  138.6491  153.4045 H   0  0  0  0  0  0  0  0  0  0  0  0
  147.4973  136.7486  153.5036 H   0  0  0  0  0  0  0  0  0  0  0  0
  147.3527  135.0283  152.5448 H   0  0  0  0  0  0  0  0  0  0  0  0
  144.5314  135.1701  150.2547 H   0  0  0  0  0  0  0  0  0  0  0  0
  143.6283  133.1822  149.0780 H   0  0  0  0  0  0  0  0  0  0  0  0
  144.4347  130.9089  149.7603 H   0  0  0  0  0  0  0  0  0  0  0  0
  149.1618  132.4464  151.9865 H   0  0  0  0  0  0  0  0  0  0  0  0
  148.5367  134.0259  152.4801 H   0  0  0  0  0  0  0  0  0  0  0  0
  149.5503  131.7977  154.2714 H   0  0  0  0  0  0  0  0  0  0  0  0
  149.9964  133.5070  154.3241 H   0  0  0  0  0  0  0  0  0  0  0  0
  148.0808  132.6006  156.0257 H   0  0  0  0  0  0  0  0  0  0  0  0
  147.8196  134.1226  155.1735 H   0  0  0  0  0  0  0  0  0  0  0  0
  145.8930  133.0555  154.3740 H   0  0  0  0  0  0  0  0  0  0  0  0
  146.5918  131.4478  154.5865 H   0  0  0  0  0  0  0  0  0  0  0  0
  149.1506  137.7904  154.0380 H   0  0  0  0  0  0  0  0  0  0  0  0
  149.8947  138.9863  152.9941 H   0  0  0  0  0  0  0  0  0  0  0  0
  150.1018  138.8568  156.0530 H   0  0  0  0  0  0  0  0  0  0  0  0
  151.5369  137.1783  154.9025 H   0  0  0  0  0  0  0  0  0  0  0  0
  152.5075  138.4363  155.6609 H   0  0  0  0  0  0  0  0  0  0  0  0
  152.2517  138.4540  153.9179 H   0  0  0  0  0  0  0  0  0  0  0  0
  147.9295  139.5591  155.0890 H   0  0  0  0  0  0  0  0  0  0  0  0
  1  2  1  0  0  0  0
  1 26  1  0  0  0  0
  1 27  1  0  0  0  0
  1 28  1  0  0  0  0
  2 25  1  0  0  0  0
  2  3  1  0  0  0  0
  2 29  1  0  0  0  0
  3  4  1  0  0  0  0
  3 30  1  0  0  0  0
  3 31  1  0  0  0  0
  4  5  1  0  0  0  0
  4 22  1  0  0  0  0
  4 55  1  0  0  0  0
  5  6  1  0  0  0  0
  5 32  1  0  0  0  0
  5 33  1  0  0  0  0
  6  7  1  0  0  0  0
  6 34  1  0  0  0  0
  6 35  1  0  0  0  0
  7  8  1  0  0  0  0
  7 36  1  0  0  0  0
  8  9  2  0  0  0  0
  8 10  1  0  0  0  0
 10 11  1  0  0  0  0
 10 37  1  0  0  0  0
 11 16  1  0  0  0  0
 11 12  2  0  0  0  0
 12 13  1  0  0  0  0
 12 38  1  0  0  0  0
 13 14  2  0  0  0  0
 13 39  1  0  0  0  0
 14 15  1  0  0  0  0
 14 40  1  0  0  0  0
 15 16  2  0  0  0  0
 16 17  1  0  0  0  0
 17 21  1  0  0  0  0
 17 18  1  0  0  0  0
 18 19  1  0  0  0  0
 18 41  1  0  0  0  0
 18 42  1  0  0  0  0
 19 20  1  0  0  0  0
 19 43  1  0  0  0  0
 19 44  1  0  0  0  0
 20 21  1  0  0  0  0
 20 45  1  0  0  0  0
 20 46  1  0  0  0  0
 21 47  1  0  0  0  0
 21 48  1  0  0  0  0
 22 23  1  0  0  0  0
 22 49  1  0  0  0  0
 22 50  1  0  0  0  0
 23 24  1  0  0  0  0
 23 25  1  0  0  0  0
 23 51  1  0  0  0  0
 24 52  1  0  0  0  0
 24 53  1  0  0  0  0
 24 54  1  0  0  0  0
M  CHG  1   4   1
M  END
> <s_m_source_file>
AV-unprocessed.smi

> <i_m_source_file_index>
1244

> <i_lp_mmshare_version>
43012

> <i_f3d_flags>
0

> <s_epik_input>
W0NIM11bQ0BASF0xW0NIMl1OKFtDSDJdW0NASF0oTzEpW0NIM10pW0NIMl1bQ0gyXVtOSF1DKD1PKVtOSF1jMltjSF1bY0hdW2NIXW5jMk4zW0NIMl1bQ0gyXVtDSDJdW0NIMl0z

> <s_epik_cmdline>
J2VwaWtfcHl0aG9uJywgJy1waCcsICc3LjAnLCAnLXRuJywgJzgnLCAnLW1hJywgJzIwMCcsICctbWV0YWxfYmluZGluZycsICctaW1hZScsICc8aW5maWxlLm1hZT4nLCAnLW9tYWUnLCAnPG91dGZpbGUubWFlPic=

> <r_lp_tautomer_probability>
1

> <r_epik_Ionization_Penalty>
0.684913

> <r_epik_Ionization_Penalty_Charging>
0.602531

> <r_epik_Ionization_Penalty_Neutral>
0.0823829

> <r_epik_State_Penalty>
0.678827

> <r_epik_Charging_Adjusted_Penalty>
1.28136

> <i_epik_Tot_Q>
1

> <i_epik_Tot_abs_Q>
1

> <r_epik_Metal_State_Penalty>
0.67806

> <b_epik_Metal_Only>
0

> <s_lp_Force_Field>
OPLS_2005

> <r_lp_Energy>
45.4431

> <b_lp_Chiralities_Consistent>
1

> <s_lp_Variant>
AV-unprocessed.smi:1244-4

> <Gold.Version>
5.8.1

> <Gold.Id.Protein>
6NUR|6NUR_protein|mol2

> <Gold.PLP.Fitness>
46.1140

> <Gold.PLP.PLP>
-42.4479

> <Gold.PLP.part.hbond>
-3.1382

> <Gold.PLP.part.metal>
0.0000

> <Gold.PLP.part.buried>
-2.8866

> <Gold.PLP.part.nonpolar>
-35.5599

> <Gold.PLP.part.repulsive>
0.5588

> <Gold.PLP.ligand.clash>
0.0000

> <Gold.PLP.ligand.torsion>
1.0527

> <Gold.PLP.Chemscore.Hbond>
1.8008

> <Gold.PLP.Chemscore.CHOScore>
0.0000

> <Gold.PLP.Chemscore.Metal>
0.0000

> <Gold.Chemscore.Hbonds>
donor molecule, donor type, donor heavy atom, donor atom, acceptor molecule, acceptor atom, score
      L1  H     7    36       P1  7948  0.17
      L1  H    10    37       P1  7948  0.47
      P1  H  7989  7998       L1    25  1.00

> <Gold.PLP.Chemscore.Internal.Correction>
0.3690

> <Gold.Rescore>
     Score         DG    S(hbond)    S(metal)    S(lipo)     H(rot)  DE(clash)    DE(int)     intcor
     16.23     -18.80       1.42        0.00     108.25       1.60       0.43       2.14       ----

> <Gold.Chemscore.Fitness>
16.2273

> <Gold.Chemscore.DG>
-18.8042

> <Gold.Chemscore.ZeroCoef>
-5.4800

> <Gold.Chemscore.Hbond>
1.4220

> <Gold.Chemscore.Metal>
0.0000

> <Gold.Chemscore.Lipo>
108.2504

> <Gold.Chemscore.Internal_Hbond>
0.0000

> <Gold.Chemscore.DEClash>
0.4349

> <Gold.Chemscore.DEInternal>
2.1420

> <Gold.Chemscore.Rot>
1.5978

> <Gold.Chemscore.Internal.Correction>
   9.000000E+99

> <Gold.Chemscore.Hbonds>
donor molecule, donor type, donor heavy atom, donor atom, acceptor molecule, acceptor atom, score
      L1  H     7    36       P1  7948  0.17
      L1  H    10    37       P1  7948  0.45
      P1  H  7989  7998       L1    25  0.39

> <Gold.Chemscore.Hbond.Weighted>
-4.7493

> <Gold.Chemscore.Metal.Weighted>
-0.0000

> <Gold.Chemscore.Lipo.Weighted>
-12.6653

> <Gold.Chemscore.Internal_Hbond.Weighted>
0.0000

> <Gold.Chemscore.DEClash.Weighted>
0.4349

> <Gold.Chemscore.DEInternal.Weighted>
2.1420

> <Gold.Chemscore.Rot.Weighted>
4.0905

> <Gold.Chemscore.Internal.Correction.Weighted>
   9.000000E+99

> <Gold.Protein.RotatedTorsions>
[ 6907 6896 6895 6894 ] final   79.53 input  -60.11 | X-H torsion
[ 7974 7965 7964 7962 ] final  -54.74 input  175.53 | X-H torsion
[ 8008 7997 7996 7995 ] final   37.01 input   59.86 | X-H torsion
[ 10167 10162 10161 10158 ] final  121.05 input  -65.29 | X-H torsion
[ 10718 10713 10712 10709 ] final -172.35 input   66.30 | X-H torsion
[ 10763 10752 10751 10750 ] final   84.88 input  -60.55 | X-H torsion
[ 11005 11000 10999 10996 ] final  114.79 input  -57.11 | X-H torsion

> <Gold.Protein.ActiveResidues>
 VAL166  LYS551  ARG553  GLY616  TRP617  ASP618  TYR619  PRO620  LYS621  CYS622 
 ASP623  PHE694  ASN695  SER759  ASP760  ASP761  ALA762  ILE779  LEU786  VAL792 
 PHE793  MET794  SER795  GLU796  ALA797  LYS798  CYS799  TRP800  GLU811  SER814 

> <Gold.Protein.RotatedAtoms>
  152.5202  134.3497  159.9246 H   0  0  0  0  0  0  0  0  0  0  0  0  # atno 6907 bound_to 6896
  151.3447  133.3942  159.2682 H   0  0  0  0  0  0  0  0  0  0  0  0  # atno 6908 bound_to 6896
  150.9775  134.9155  159.7882 H   0  0  0  0  0  0  0  0  0  0  0  0  # atno 6909 bound_to 6896
  145.8821  140.8136  142.9834 H   0  0  0  0  0  0  0  0  0  0  0  0  # atno 7974 bound_to 7965
  155.1967  140.3312  155.4349 H   0  0  0  0  0  0  0  0  0  0  0  0  # atno 8008 bound_to 7997
  156.2422  140.1900  156.7007 H   0  0  0  0  0  0  0  0  0  0  0  0  # atno 8009 bound_to 7997
  154.6169  140.0601  156.9551 H   0  0  0  0  0  0  0  0  0  0  0  0  # atno 8010 bound_to 7997
  139.5944  144.7036  151.3212 H   0  0  0  0  0  0  0  0  0  0  0  0  # atno 10167 bound_to 10162
  156.7543  130.9389  151.3116 H   0  0  0  0  0  0  0  0  0  0  0  0  # atno 10718 bound_to 10713
  153.1423  135.4638  154.9514 H   0  0  0  0  0  0  0  0  0  0  0  0  # atno 10763 bound_to 10752
  154.7757  135.3172  154.8099 H   0  0  0  0  0  0  0  0  0  0  0  0  # atno 10764 bound_to 10752
  153.8620  135.6912  153.4836 H   0  0  0  0  0  0  0  0  0  0  0  0  # atno 10765 bound_to 10752
  139.8991  134.9574  156.6947 H   0  0  0  0  0  0  0  0  0  0  0  0  # atno 11005 bound_to 11000
  144.6727  140.1400  143.7438 LP  0  0  0  0  0  0  0  0  0  0  0  0  # atno 17320 bound_to 7965
  145.9010  139.2431  143.1493 LP  0  0  0  0  0  0  0  0  0  0  0  0  # atno 17321 bound_to 7965
  140.7199  143.7163  150.7730 LP  0  0  0  0  0  0  0  0  0  0  0  0  # atno 17342 bound_to 10162
  140.0726  143.5046  152.2572 LP  0  0  0  0  0  0  0  0  0  0  0  0  # atno 17343 bound_to 10162
  157.6763  130.9098  150.0159 LP  0  0  0  0  0  0  0  0  0  0  0  0  # atno 17370 bound_to 10713
  156.1381  130.3642  149.9625 LP  0  0  0  0  0  0  0  0  0  0  0  0  # atno 17371 bound_to 10713
  140.7198  133.9151  155.8139 LP  0  0  0  0  0  0  0  0  0  0  0  0  # atno 17394 bound_to 11000
  141.0236  134.0854  157.4093 LP  0  0  0  0  0  0  0  0  0  0  0  0  # atno 17395 bound_to 11000

$$$$
