AV-unprocessed.smi:2329|AV-procd|sdf|9304|dock3
  -GOLD-   2272012523D 1   1.00000     0.00000
 Structure written by MMmdl.
 45 48  0  0  0  0  0  0  0  0  1 V2000
  153.6875  141.1067  159.8403 C   0  0  0  0  0  0  0  0  0  0  0  0
  152.9477  142.3067  159.2880 C   0  0  0  0  0  0  0  0  0  0  0  0
  153.2269  143.6071  159.7517 C   0  0  0  0  0  0  0  0  0  0  0  0
  152.5061  144.6782  159.1942 C   0  0  0  0  0  0  0  0  0  0  0  0
  151.5435  144.4070  158.2028 C   0  0  0  0  0  0  0  0  0  0  0  0
  151.3246  143.0724  157.7932 C   0  0  0  0  0  0  0  0  0  0  0  0
  150.3359  142.9064  156.7881 N   0  0  0  0  0  0  0  0  0  0  0  0
  150.1477  141.8557  155.9650 C   0  0  0  0  0  0  0  0  0  0  0  0
  150.8157  140.8234  155.9792 O   0  0  0  0  0  0  0  0  0  0  0  0
  149.1186  142.0063  155.1129 N   0  0  0  0  0  0  0  0  0  0  0  0
  148.6478  141.0593  154.0943 C   0  0  2  0  0  0  0  0  0  0  0  0
  147.2763  141.4322  153.4803 C   0  0  2  0  0  0  0  0  0  0  0  0
  146.6183  142.7766  153.6788 C   0  0  0  0  0  0  0  0  0  0  0  0
  145.6586  142.5194  154.8442 C   0  0  0  0  0  0  0  0  0  0  0  0
  146.1623  141.3481  155.4829 O   0  0  0  0  0  0  0  0  0  0  0  0
  146.6386  140.4678  154.4680 C   0  0  2  0  0  0  0  0  0  0  0  0
  148.0055  139.8010  154.7250 C   0  0  0  0  0  0  0  0  0  0  0  0
  148.3399  139.3964  156.1615 C   0  0  0  0  0  0  0  0  0  0  0  0
  147.8401  137.9626  156.3474 C   0  0  0  0  0  0  0  0  0  0  0  0
  147.8204  137.3506  154.9438 C   0  0  0  0  0  0  0  0  0  0  0  0
  148.2299  138.4790  153.9914 C   0  0  0  0  0  0  0  0  0  0  0  0
  152.0250  142.0463  158.3369 N   0  0  0  0  0  0  0  0  0  0  0  0
  154.2771  141.3754  160.7174 H   0  0  0  0  0  0  0  0  0  0  0  0
  154.3618  140.7003  159.0859 H   0  0  0  0  0  0  0  0  0  0  0  0
  152.9848  140.3250  160.1305 H   0  0  0  0  0  0  0  0  0  0  0  0
  153.9731  143.7818  160.5130 H   0  0  0  0  0  0  0  0  0  0  0  0
  152.6882  145.6916  159.5202 H   0  0  0  0  0  0  0  0  0  0  0  0
  150.9813  145.2183  157.7638 H   0  0  0  0  0  0  0  0  0  0  0  0
  149.6960  143.6787  156.6760 H   0  0  0  0  0  0  0  0  0  0  0  0
  148.5711  142.8491  155.2117 H   0  0  0  0  0  0  0  0  0  0  0  0
  149.3967  140.8033  153.3429 H   0  0  0  0  0  0  0  0  0  0  0  0
  147.1965  141.0530  152.4603 H   0  0  0  0  0  0  0  0  0  0  0  0
  147.3365  143.5579  153.9229 H   0  0  0  0  0  0  0  0  0  0  0  0
  146.0759  143.1037  152.7914 H   0  0  0  0  0  0  0  0  0  0  0  0
  145.6039  143.3597  155.5366 H   0  0  0  0  0  0  0  0  0  0  0  0
  144.6528  142.3160  154.4736 H   0  0  0  0  0  0  0  0  0  0  0  0
  145.8619  139.8335  154.0383 H   0  0  0  0  0  0  0  0  0  0  0  0
  149.4201  139.4222  156.3122 H   0  0  0  0  0  0  0  0  0  0  0  0
  147.9039  140.0658  156.9037 H   0  0  0  0  0  0  0  0  0  0  0  0
  148.4720  137.4002  157.0353 H   0  0  0  0  0  0  0  0  0  0  0  0
  146.8301  137.9701  156.7593 H   0  0  0  0  0  0  0  0  0  0  0  0
  148.4974  136.4998  154.8613 H   0  0  0  0  0  0  0  0  0  0  0  0
  146.8169  136.9956  154.7063 H   0  0  0  0  0  0  0  0  0  0  0  0
  147.6796  138.4233  153.0514 H   0  0  0  0  0  0  0  0  0  0  0  0
  149.2859  138.3694  153.7409 H   0  0  0  0  0  0  0  0  0  0  0  0
  1  2  1  0  0  0  0
  1 23  1  0  0  0  0
  1 24  1  0  0  0  0
  1 25  1  0  0  0  0
  2 22  1  0  0  0  0
  2  3  2  0  0  0  0
  3  4  1  0  0  0  0
  3 26  1  0  0  0  0
  4  5  2  0  0  0  0
  4 27  1  0  0  0  0
  5  6  1  0  0  0  0
  5 28  1  0  0  0  0
  6  7  1  0  0  0  0
  6 22  2  0  0  0  0
  7  8  1  0  0  0  0
  7 29  1  0  0  0  0
  8  9  2  0  0  0  0
  8 10  1  0  0  0  0
 10 11  1  0  0  0  0
 10 30  1  0  0  0  0
 11 17  1  0  0  0  0
 11 12  1  0  0  0  0
 11 31  1  0  0  0  0
 12 16  1  0  0  0  0
 12 13  1  0  0  0  0
 12 32  1  0  0  0  0
 13 14  1  0  0  0  0
 13 33  1  0  0  0  0
 13 34  1  0  0  0  0
 14 15  1  0  0  0  0
 14 35  1  0  0  0  0
 14 36  1  0  0  0  0
 15 16  1  0  0  0  0
 16 17  1  0  0  0  0
 16 37  1  0  0  0  0
 17 21  1  0  0  0  0
 17 18  1  0  0  0  0
 18 19  1  0  0  0  0
 18 38  1  0  0  0  0
 18 39  1  0  0  0  0
 19 20  1  0  0  0  0
 19 40  1  0  0  0  0
 19 41  1  0  0  0  0
 20 21  1  0  0  0  0
 20 42  1  0  0  0  0
 20 43  1  0  0  0  0
 21 44  1  0  0  0  0
 21 45  1  0  0  0  0
M  END
> <s_m_source_file>
AV-unprocessed.smi

> <i_m_source_file_index>
2329

> <i_lp_mmshare_version>
43012

> <i_f3d_flags>
0

> <s_epik_input>
W0NIM11jMVtjSF1bY0hdW2NIXWMobjEpW05IXUMoPU8pW05IXVtDQEBIXTJbQ0BASF0oW0NIMl1bQ0gyXU8zKVtDQEhdM0MyNFtDSDJdW0NIMl1bQ0gyXVtDSDJdNA==

> <s_epik_cmdline>
J2VwaWtfcHl0aG9uJywgJy1waCcsICc3LjAnLCAnLXRuJywgJzgnLCAnLW1hJywgJzIwMCcsICctbWV0YWxfYmluZGluZycsICctaW1hZScsICc8aW5maWxlLm1hZT4nLCAnLW9tYWUnLCAnPG91dGZpbGUubWFlPic=

> <r_lp_tautomer_probability>
1

> <r_epik_Ionization_Penalty>
8.97002e-05

> <r_epik_Ionization_Penalty_Charging>
0

> <r_epik_Ionization_Penalty_Neutral>
8.97002e-05

> <r_epik_State_Penalty>
-0

> <r_epik_Charging_Adjusted_Penalty>
0

> <i_epik_Tot_Q>
0

> <i_epik_Tot_abs_Q>
0

> <r_epik_Metal_State_Penalty>
-0

> <b_epik_Metal_Only>
0

> <s_lp_Force_Field>
OPLS_2005

> <r_lp_Energy>
67.4264

> <b_lp_Chiralities_Consistent>
1

> <s_lp_Variant>
AV-unprocessed.smi:2329-3

> <Gold.Version>
5.8.1

> <Gold.Id.Protein>
6NUR|6NUR_protein|mol2

> <Gold.PLP.Fitness>
45.8450

> <Gold.PLP.PLP>
-40.4580

> <Gold.PLP.part.hbond>
-2.0000

> <Gold.PLP.part.metal>
0.0000

> <Gold.PLP.part.buried>
-7.3454

> <Gold.PLP.part.nonpolar>
-31.7039

> <Gold.PLP.part.repulsive>
0.3333

> <Gold.PLP.ligand.clash>
0.0000

> <Gold.PLP.ligand.torsion>
0.1758

> <Gold.PLP.Chemscore.Hbond>
1.8480

> <Gold.PLP.Chemscore.CHOScore>
0.0000

> <Gold.PLP.Chemscore.Metal>
0.0000

> <Gold.Chemscore.Hbonds>
donor molecule, donor type, donor heavy atom, donor atom, acceptor molecule, acceptor atom, score
      L1  H     7    29       P1  8028  0.99
      L1  H    10    30       P1  8028  0.77

> <Gold.PLP.Chemscore.Internal.Correction>
0.1947

> <Gold.Rescore>
     Score         DG    S(hbond)    S(metal)    S(lipo)     H(rot)  DE(clash)    DE(int)     intcor
     17.54     -20.37       1.71        0.00     100.31       1.00       0.55       2.28       ----

> <Gold.Chemscore.Fitness>
17.5394

> <Gold.Chemscore.DG>
-20.3677

> <Gold.Chemscore.ZeroCoef>
-5.4800

> <Gold.Chemscore.Hbond>
1.7101

> <Gold.Chemscore.Metal>
0.0000

> <Gold.Chemscore.Lipo>
100.3078

> <Gold.Chemscore.Internal_Hbond>
0.0000

> <Gold.Chemscore.DEClash>
0.5454

> <Gold.Chemscore.DEInternal>
2.2829

> <Gold.Chemscore.Rot>
1.0000

> <Gold.Chemscore.Internal.Correction>
   9.000000E+99

> <Gold.Chemscore.Hbonds>
donor molecule, donor type, donor heavy atom, donor atom, acceptor molecule, acceptor atom, score
      L1  H     7    29       P1  8028  0.94
      L1  H    10    30       P1  8028  0.75

> <Gold.Chemscore.Hbond.Weighted>
-5.7117

> <Gold.Chemscore.Metal.Weighted>
-0.0000

> <Gold.Chemscore.Lipo.Weighted>
-11.7360

> <Gold.Chemscore.Internal_Hbond.Weighted>
0.0000

> <Gold.Chemscore.DEClash.Weighted>
0.5454

> <Gold.Chemscore.DEInternal.Weighted>
2.2829

> <Gold.Chemscore.Rot.Weighted>
2.5600

> <Gold.Chemscore.Internal.Correction.Weighted>
   9.000000E+99

> <Gold.Protein.RotatedTorsions>
[ 6907 6896 6895 6894 ] final -137.70 input  -60.11 | X-H torsion
[ 7974 7965 7964 7962 ] final  124.60 input  175.53 | X-H torsion
[ 8008 7997 7996 7995 ] final   57.81 input   59.86 | X-H torsion
[ 10167 10162 10161 10158 ] final   11.99 input  -65.29 | X-H torsion
[ 10718 10713 10712 10709 ] final  -22.80 input   66.30 | X-H torsion
[ 10763 10752 10751 10750 ] final -132.41 input  -60.55 | X-H torsion
[ 11005 11000 10999 10996 ] final    0.56 input  -57.11 | X-H torsion

> <Gold.Protein.ActiveResidues>
 VAL166  LYS551  ARG553  GLY616  TRP617  ASP618  TYR619  PRO620  LYS621  CYS622 
 ASP623  PHE694  ASN695  SER759  ASP760  ASP761  ALA762  ILE779  LEU786  VAL792 
 PHE793  MET794  SER795  GLU796  ALA797  LYS798  CYS799  TRP800  GLU811  SER814 

> <Gold.Protein.RotatedAtoms>
  151.0257  133.5835  159.2665 H   0  0  0  0  0  0  0  0  0  0  0  0  # atno 6907 bound_to 6896
  151.2935  135.0748  159.9223 H   0  0  0  0  0  0  0  0  0  0  0  0  # atno 6908 bound_to 6896
  152.5333  133.9952  159.7923 H   0  0  0  0  0  0  0  0  0  0  0  0  # atno 6909 bound_to 6896
  145.0825  139.3646  143.4902 H   0  0  0  0  0  0  0  0  0  0  0  0  # atno 7974 bound_to 7965
  155.5398  140.3484  155.4444 H   0  0  0  0  0  0  0  0  0  0  0  0  # atno 8008 bound_to 7997
  156.0659  140.1351  156.9912 H   0  0  0  0  0  0  0  0  0  0  0  0  # atno 8009 bound_to 7997
  154.4503  140.0975  156.6571 H   0  0  0  0  0  0  0  0  0  0  0  0  # atno 8010 bound_to 7997
  140.6097  143.8434  150.7051 H   0  0  0  0  0  0  0  0  0  0  0  0  # atno 10167 bound_to 10162
  156.4996  130.4585  149.6708 H   0  0  0  0  0  0  0  0  0  0  0  0  # atno 10718 bound_to 10713
  154.8743  135.3799  154.4405 H   0  0  0  0  0  0  0  0  0  0  0  0  # atno 10763 bound_to 10752
  153.5091  135.7030  153.5796 H   0  0  0  0  0  0  0  0  0  0  0  0  # atno 10764 bound_to 10752
  153.4093  135.3928  155.2006 H   0  0  0  0  0  0  0  0  0  0  0  0  # atno 10765 bound_to 10752
  140.6252  133.9625  155.8245 H   0  0  0  0  0  0  0  0  0  0  0  0  # atno 11005 bound_to 11000
  146.3531  140.0622  142.8628 LP  0  0  0  0  0  0  0  0  0  0  0  0  # atno 17320 bound_to 7965
  145.1161  140.9434  143.4628 LP  0  0  0  0  0  0  0  0  0  0  0  0  # atno 17321 bound_to 7965
  140.2000  143.3967  152.1799 LP  0  0  0  0  0  0  0  0  0  0  0  0  # atno 17342 bound_to 10162
  139.5351  144.7201  151.4920 LP  0  0  0  0  0  0  0  0  0  0  0  0  # atno 17343 bound_to 10162
  156.3345  130.7349  151.2284 LP  0  0  0  0  0  0  0  0  0  0  0  0  # atno 17370 bound_to 10713
  157.7464  131.0420  150.4676 LP  0  0  0  0  0  0  0  0  0  0  0  0  # atno 17371 bound_to 10713
  141.0714  134.0199  157.3520 LP  0  0  0  0  0  0  0  0  0  0  0  0  # atno 17394 bound_to 11000
  139.9137  135.0194  156.7798 LP  0  0  0  0  0  0  0  0  0  0  0  0  # atno 17395 bound_to 11000

$$$$
