AV-unprocessed.smi:738|AV-procd|sdf|3539|dock1
  -GOLD-   22720 0533D 1   1.00000     0.00000
 Structure written by MMmdl.
 35 37  0  0  0  0  0  0  0  0  1 V2000
  150.9233  138.0436  153.1818 N   0  0  0  0  0  0  0  0  0  0  0  0
  151.4623  138.2343  154.3899 C   0  0  0  0  0  0  0  0  0  0  0  0
  152.3755  137.5337  154.8221 O   0  0  0  0  0  0  0  0  0  0  0  0
  150.9371  139.4019  155.1742 C   0  0  0  0  0  0  0  0  0  0  0  0
  151.6799  139.9373  156.2492 C   0  0  0  0  0  0  0  0  0  0  0  0
  151.2568  140.9716  157.0061 N   0  0  0  0  0  0  0  0  0  0  0  0
  150.0503  141.5234  156.7322 C   0  0  0  0  0  0  0  0  0  0  0  0
  149.6235  142.6009  157.5262 N   0  0  0  0  0  0  0  0  0  0  0  0
  148.4410  142.2861  158.3292 C   0  0  0  0  0  0  0  0  0  0  0  0
  147.9776  143.5149  159.1500 C   0  0  0  0  0  0  0  0  0  0  0  0
  149.0566  144.0607  159.9161 O   0  0  0  0  0  0  0  0  0  0  0  0
  150.1269  144.4260  159.0557 C   0  0  1  0  0  0  0  0  0  0  0  0
  151.3766  144.9931  159.7232 C   0  0  0  0  0  0  0  0  0  0  0  0
  152.5077  144.6887  158.7173 C   0  0  0  0  0  0  0  0  0  0  0  0
  151.9330  143.6806  157.7002 C   0  0  0  0  0  0  0  0  0  0  0  0
  150.6586  143.1724  158.3775 C   0  0  2  0  0  0  0  0  0  0  0  0
  149.2239  141.0529  155.6853 C   0  0  0  0  0  0  0  0  0  0  0  0
  147.6869  141.7714  155.3532 Cl  0  0  0  0  0  0  0  0  0  0  0  0
  149.6748  139.9743  154.8999 C   0  0  0  0  0  0  0  0  0  0  0  0
  151.2426  137.2766  152.6079 H   0  0  0  0  0  0  0  0  0  0  0  0
  150.2051  138.6668  152.8433 H   0  0  0  0  0  0  0  0  0  0  0  0
  152.6462  139.5322  156.5125 H   0  0  0  0  0  0  0  0  0  0  0  0
  147.6345  141.9462  157.6781 H   0  0  0  0  0  0  0  0  0  0  0  0
  148.6691  141.4644  159.0099 H   0  0  0  0  0  0  0  0  0  0  0  0
  147.5737  144.2829  158.4884 H   0  0  0  0  0  0  0  0  0  0  0  0
  147.1717  143.2303  159.8263 H   0  0  0  0  0  0  0  0  0  0  0  0
  149.7738  145.1435  158.3109 H   0  0  0  0  0  0  0  0  0  0  0  0
  151.2837  146.0562  159.9466 H   0  0  0  0  0  0  0  0  0  0  0  0
  151.5670  144.4701  160.6613 H   0  0  0  0  0  0  0  0  0  0  0  0
  152.8365  145.5950  158.2078 H   0  0  0  0  0  0  0  0  0  0  0  0
  153.3732  144.2744  159.2354 H   0  0  0  0  0  0  0  0  0  0  0  0
  151.6878  144.1945  156.7693 H   0  0  0  0  0  0  0  0  0  0  0  0
  152.6312  142.8768  157.4653 H   0  0  0  0  0  0  0  0  0  0  0  0
  150.9339  142.4442  159.1434 H   0  0  0  0  0  0  0  0  0  0  0  0
  149.0516  139.5971  154.1024 H   0  0  0  0  0  0  0  0  0  0  0  0
  1  2  1  0  0  0  0
  1 20  1  0  0  0  0
  1 21  1  0  0  0  0
  2  3  2  0  0  0  0
  2  4  1  0  0  0  0
  4 19  1  0  0  0  0
  4  5  2  0  0  0  0
  5  6  1  0  0  0  0
  5 22  1  0  0  0  0
  6  7  2  0  0  0  0
  7  8  1  0  0  0  0
  7 17  1  0  0  0  0
  8 16  1  0  0  0  0
  8  9  1  0  0  0  0
  9 10  1  0  0  0  0
  9 23  1  0  0  0  0
  9 24  1  0  0  0  0
 10 11  1  0  0  0  0
 10 25  1  0  0  0  0
 10 26  1  0  0  0  0
 11 12  1  0  0  0  0
 12 16  1  0  0  0  0
 12 13  1  0  0  0  0
 12 27  1  0  0  0  0
 13 14  1  0  0  0  0
 13 28  1  0  0  0  0
 13 29  1  0  0  0  0
 14 15  1  0  0  0  0
 14 30  1  0  0  0  0
 14 31  1  0  0  0  0
 15 16  1  0  0  0  0
 15 32  1  0  0  0  0
 15 33  1  0  0  0  0
 16 34  1  0  0  0  0
 17 18  1  0  0  0  0
 17 19  2  0  0  0  0
 19 35  1  0  0  0  0
M  END
> <s_m_source_file>
AV-unprocessed.smi

> <i_m_source_file_index>
738

> <i_lp_mmshare_version>
43012

> <i_f3d_flags>
0

> <s_epik_input>
W05IMl1DKD1PKWMxW2NIXW5jKGMoQ2wpW2NIXTEpTihbQ0gyXVtDSDJdTzIpW0NASF0oW0NASF0yMylbQ0gyXVtDSDJdW0NIMl0z

> <s_epik_cmdline>
J2VwaWtfcHl0aG9uJywgJy1waCcsICc3LjAnLCAnLXRuJywgJzgnLCAnLW1hJywgJzIwMCcsICctbWV0YWxfYmluZGluZycsICctaW1hZScsICc8aW5maWxlLm1hZT4nLCAnLW9tYWUnLCAnPG91dGZpbGUubWFlPic=

> <r_lp_tautomer_probability>
1

> <r_epik_Ionization_Penalty>
6.75978e-06

> <r_epik_Ionization_Penalty_Charging>
0

> <r_epik_Ionization_Penalty_Neutral>
6.75978e-06

> <r_epik_State_Penalty>
-0

> <r_epik_Charging_Adjusted_Penalty>
0

> <i_epik_Tot_Q>
0

> <i_epik_Tot_abs_Q>
0

> <r_epik_Metal_State_Penalty>
-0

> <b_epik_Metal_Only>
0

> <s_lp_Force_Field>
OPLS_2005

> <r_lp_Energy>
40.6009

> <b_lp_Chiralities_Consistent>
1

> <s_lp_Variant>
AV-unprocessed.smi:738-2

> <Gold.Version>
5.8.1

> <Gold.Id.Protein>
6NUR|6NUR_protein|mol2

> <Gold.PLP.Fitness>
38.9741

> <Gold.PLP.PLP>
-33.0936

> <Gold.PLP.part.hbond>
-4.8247

> <Gold.PLP.part.metal>
0.0000

> <Gold.PLP.part.buried>
1.5972

> <Gold.PLP.part.nonpolar>
-30.4528

> <Gold.PLP.part.repulsive>
1.8906

> <Gold.PLP.ligand.clash>
0.0000

> <Gold.PLP.ligand.torsion>
0.3205

> <Gold.PLP.Chemscore.Hbond>
2.1578

> <Gold.PLP.Chemscore.CHOScore>
0.0000

> <Gold.PLP.Chemscore.Metal>
0.0000

> <Gold.Chemscore.Hbonds>
donor molecule, donor type, donor heavy atom, donor atom, acceptor molecule, acceptor atom, score
      L1  H     1    20       P1  7949  1.00
      L1  H     1    21       P1  7957  0.44
      P1  H  6933  6944       L1    11  0.04
      P1  H 10752 10763       L1     3  0.61

> <Gold.PLP.Chemscore.Internal.Correction>
0.0482

> <Gold.Rescore>
     Score         DG    S(hbond)    S(metal)    S(lipo)     H(rot)  DE(clash)    DE(int)     intcor
     12.99     -17.29       0.97        0.00      95.04       1.00       2.74       1.56       ----

> <Gold.Chemscore.Fitness>
12.9912

> <Gold.Chemscore.DG>
-17.2936

> <Gold.Chemscore.ZeroCoef>
-5.4800

> <Gold.Chemscore.Hbond>
0.9742

> <Gold.Chemscore.Metal>
0.0000

> <Gold.Chemscore.Lipo>
95.0408

> <Gold.Chemscore.Internal_Hbond>
0.0000

> <Gold.Chemscore.DEClash>
2.7432

> <Gold.Chemscore.DEInternal>
1.5592

> <Gold.Chemscore.Rot>
1.0000

> <Gold.Chemscore.Internal.Correction>
   9.000000E+99

> <Gold.Chemscore.Hbonds>
donor molecule, donor type, donor heavy atom, donor atom, acceptor molecule, acceptor atom, score
      L1  H     1    20       P1  7949  0.60
      L1  H     1    21       P1  7957  0.17
      P1  H 10752 10763       L1     3  0.56

> <Gold.Chemscore.Hbond.Weighted>
-3.2538

> <Gold.Chemscore.Metal.Weighted>
-0.0000

> <Gold.Chemscore.Lipo.Weighted>
-11.1198

> <Gold.Chemscore.Internal_Hbond.Weighted>
0.0000

> <Gold.Chemscore.DEClash.Weighted>
2.7432

> <Gold.Chemscore.DEInternal.Weighted>
1.5592

> <Gold.Chemscore.Rot.Weighted>
2.5600

> <Gold.Chemscore.Internal.Correction.Weighted>
   9.000000E+99

> <Gold.Protein.RotatedTorsions>
[ 6907 6896 6895 6894 ] final  105.42 input  -60.11 | X-H torsion
[ 7974 7965 7964 7962 ] final  100.01 input  175.53 | X-H torsion
[ 8008 7997 7996 7995 ] final   61.30 input   59.86 | X-H torsion
[ 10167 10162 10161 10158 ] final   27.86 input  -65.29 | X-H torsion
[ 10718 10713 10712 10709 ] final  101.44 input   66.30 | X-H torsion
[ 10763 10752 10751 10750 ] final   38.16 input  -60.55 | X-H torsion
[ 11005 11000 10999 10996 ] final   33.35 input  -57.11 | X-H torsion

> <Gold.Protein.ActiveResidues>
 VAL166  LYS551  ARG553  GLY616  TRP617  ASP618  TYR619  PRO620  LYS621  CYS622 
 ASP623  PHE694  ASN695  SER759  ASP760  ASP761  ALA762  ILE779  LEU786  VAL792 
 PHE793  MET794  SER795  GLU796  ALA797  LYS798  CYS799  TRP800  GLU811  SER814 

> <Gold.Protein.RotatedAtoms>
  152.5231  133.9531  159.7681 H   0  0  0  0  0  0  0  0  0  0  0  0  # atno 6907 bound_to 6896
  150.9837  133.6211  159.2725 H   0  0  0  0  0  0  0  0  0  0  0  0  # atno 6908 bound_to 6896
  151.3379  135.0863  159.9414 H   0  0  0  0  0  0  0  0  0  0  0  0  # atno 6909 bound_to 6896
  145.3913  139.2362  143.3350 H   0  0  0  0  0  0  0  0  0  0  0  0  # atno 7974 bound_to 7965
  155.5962  140.3493  155.4580 H   0  0  0  0  0  0  0  0  0  0  0  0  # atno 8008 bound_to 7997
  156.0263  140.1264  157.0329 H   0  0  0  0  0  0  0  0  0  0  0  0  # atno 8009 bound_to 7997
  154.4334  140.1052  156.6022 H   0  0  0  0  0  0  0  0  0  0  0  0  # atno 8010 bound_to 7997
  140.4902  144.0478  150.6294 H   0  0  0  0  0  0  0  0  0  0  0  0  # atno 10167 bound_to 10162
  157.6829  131.0726  150.5253 H   0  0  0  0  0  0  0  0  0  0  0  0  # atno 10718 bound_to 10713
  153.0011  135.6257  154.2260 H   0  0  0  0  0  0  0  0  0  0  0  0  # atno 10763 bound_to 10752
  154.2002  135.2804  155.2995 H   0  0  0  0  0  0  0  0  0  0  0  0  # atno 10764 bound_to 10752
  154.5689  135.5682  153.7136 H   0  0  0  0  0  0  0  0  0  0  0  0  # atno 10765 bound_to 10752
  140.2640  134.3159  155.7848 H   0  0  0  0  0  0  0  0  0  0  0  0  # atno 11005 bound_to 11000
  146.2796  140.4596  142.8781 LP  0  0  0  0  0  0  0  0  0  0  0  0  # atno 17320 bound_to 7965
  144.8438  140.6898  143.6212 LP  0  0  0  0  0  0  0  0  0  0  0  0  # atno 17321 bound_to 7965
  140.3745  143.2836  152.0240 LP  0  0  0  0  0  0  0  0  0  0  0  0  # atno 17342 bound_to 10162
  139.4850  144.6204  151.7267 LP  0  0  0  0  0  0  0  0  0  0  0  0  # atno 17343 bound_to 10162
  156.5565  130.4244  149.6083 LP  0  0  0  0  0  0  0  0  0  0  0  0  # atno 17370 bound_to 10713
  156.2858  130.7096  151.1932 LP  0  0  0  0  0  0  0  0  0  0  0  0  # atno 17371 bound_to 10713
  141.2186  133.7427  156.9231 LP  0  0  0  0  0  0  0  0  0  0  0  0  # atno 17394 bound_to 11000
  140.1437  134.9277  157.2501 LP  0  0  0  0  0  0  0  0  0  0  0  0  # atno 17395 bound_to 11000

$$$$
