AV-unprocessed.smi:225|AV-procd|sdf|1723|dock8
  -GOLD-   2262020203D 1   1.00000     0.00000
 Structure written by MMmdl.
 56 59  0  0  0  0  0  0  0  0  1 V2000
  149.6660  140.7803  153.4876 O   0  0  0  0  0  0  0  0  0  0  0  0
  149.4855  140.2958  154.8001 C   0  0  0  0  0  0  0  0  0  0  0  0
  149.8661  141.3929  155.8088 C   0  0  0  0  0  0  0  0  0  0  0  0
  149.6604  140.9820  157.2007 N   0  0  0  0  0  0  0  0  0  0  0  0
  150.8520  140.7015  158.0031 C   0  0  0  0  0  0  0  0  0  0  0  0
  151.7747  141.9266  158.1770 C   0  0  0  0  0  0  0  0  0  0  0  0
  152.3394  141.9810  159.6105 C   0  0  0  0  0  0  0  0  0  0  0  0
  153.2677  143.1903  159.8114 C   0  0  0  0  0  0  0  0  0  0  0  0
  152.5530  144.5052  159.4652 C   0  0  0  0  0  0  0  0  0  0  0  0
  151.9809  144.4638  158.0399 C   0  0  0  0  0  0  0  0  0  0  0  0
  151.0556  143.2517  157.8462 C   0  0  0  0  0  0  0  0  0  0  0  0
  148.6301  140.1365  157.4631 C   0  0  0  0  0  0  0  0  0  0  0  0
  147.3555  140.4967  157.1537 N   0  0  0  0  0  0  0  0  0  0  0  0
  146.3398  139.6640  157.3999 C   0  0  0  0  0  0  0  0  0  0  0  0
  146.3737  138.4424  157.9356 N   0  0  0  0  0  0  0  0  0  0  0  0
  147.6498  138.0730  158.2438 C   0  0  0  0  0  0  0  0  0  0  0  0
  148.8241  138.8526  158.0451 C   0  0  0  0  0  0  0  0  0  0  0  0
  149.9376  138.1528  158.4926 N   0  0  0  0  0  0  0  0  0  0  0  0
  149.4513  137.0215  158.9239 C   0  0  0  0  0  0  0  0  0  0  0  0
  148.0867  136.8853  158.8041 N   0  0  0  0  0  0  0  0  0  0  0  0
  147.2864  135.7355  159.1958 C   0  0  0  0  0  0  0  0  0  0  0  0
  146.8735  135.7540  160.6861 C   0  0  1  0  0  0  0  0  0  0  0  0
  146.3495  134.4854  161.0378 O   0  0  0  0  0  0  0  0  0  0  0  0
  148.0139  136.0885  161.6451 C   0  0  0  0  0  0  0  0  0  0  0  0
  147.3097  136.8439  162.7632 C   0  0  0  0  0  0  0  0  0  0  0  0
  146.3653  137.6265  162.0540 O   0  0  0  0  0  0  0  0  0  0  0  0
  145.8155  136.8277  161.0117 C   0  0  0  0  0  0  0  0  0  0  0  0
  149.5072  140.0725  152.8819 H   0  0  0  0  0  0  0  0  0  0  0  0
  148.4433  140.0028  154.9297 H   0  0  0  0  0  0  0  0  0  0  0  0
  150.0947  139.4012  154.9281 H   0  0  0  0  0  0  0  0  0  0  0  0
  150.9034  141.6974  155.6633 H   0  0  0  0  0  0  0  0  0  0  0  0
  149.2684  142.2799  155.6022 H   0  0  0  0  0  0  0  0  0  0  0  0
  150.5852  140.3108  158.9864 H   0  0  0  0  0  0  0  0  0  0  0  0
  151.4034  139.9021  157.5065 H   0  0  0  0  0  0  0  0  0  0  0  0
  152.6238  141.8267  157.5012 H   0  0  0  0  0  0  0  0  0  0  0  0
  151.5197  142.0300  160.3288 H   0  0  0  0  0  0  0  0  0  0  0  0
  152.8864  141.0637  159.8306 H   0  0  0  0  0  0  0  0  0  0  0  0
  153.6211  143.2203  160.8424 H   0  0  0  0  0  0  0  0  0  0  0  0
  154.1531  143.0796  159.1844 H   0  0  0  0  0  0  0  0  0  0  0  0
  151.7465  144.6814  160.1783 H   0  0  0  0  0  0  0  0  0  0  0  0
  153.2438  145.3428  159.5656 H   0  0  0  0  0  0  0  0  0  0  0  0
  151.4351  145.3844  157.8322 H   0  0  0  0  0  0  0  0  0  0  0  0
  152.7976  144.4189  157.3184 H   0  0  0  0  0  0  0  0  0  0  0  0
  150.6919  143.2381  156.8183 H   0  0  0  0  0  0  0  0  0  0  0  0
  150.1777  143.3631  158.4838 H   0  0  0  0  0  0  0  0  0  0  0  0
  145.3603  140.0279  157.1273 H   0  0  0  0  0  0  0  0  0  0  0  0
  150.0808  136.2491  159.3409 H   0  0  0  0  0  0  0  0  0  0  0  0
  146.3997  135.7089  158.5611 H   0  0  0  0  0  0  0  0  0  0  0  0
  147.8498  134.8288  158.9704 H   0  0  0  0  0  0  0  0  0  0  0  0
  145.5408  134.6149  161.5091 H   0  0  0  0  0  0  0  0  0  0  0  0
  148.5675  135.2160  161.9953 H   0  0  0  0  0  0  0  0  0  0  0  0
  148.7254  136.7622  161.1660 H   0  0  0  0  0  0  0  0  0  0  0  0
  146.7926  136.1595  163.4375 H   0  0  0  0  0  0  0  0  0  0  0  0
  147.9887  137.4632  163.3495 H   0  0  0  0  0  0  0  0  0  0  0  0
  145.5867  137.4621  160.1549 H   0  0  0  0  0  0  0  0  0  0  0  0
  144.8761  136.3878  161.3509 H   0  0  0  0  0  0  0  0  0  0  0  0
  1  2  1  0  0  0  0
  1 28  1  0  0  0  0
  2  3  1  0  0  0  0
  2 29  1  0  0  0  0
  2 30  1  0  0  0  0
  3  4  1  0  0  0  0
  3 31  1  0  0  0  0
  3 32  1  0  0  0  0
  4  5  1  0  0  0  0
  4 12  1  0  0  0  0
  5  6  1  0  0  0  0
  5 33  1  0  0  0  0
  5 34  1  0  0  0  0
  6 11  1  0  0  0  0
  6  7  1  0  0  0  0
  6 35  1  0  0  0  0
  7  8  1  0  0  0  0
  7 36  1  0  0  0  0
  7 37  1  0  0  0  0
  8  9  1  0  0  0  0
  8 38  1  0  0  0  0
  8 39  1  0  0  0  0
  9 10  1  0  0  0  0
  9 40  1  0  0  0  0
  9 41  1  0  0  0  0
 10 11  1  0  0  0  0
 10 42  1  0  0  0  0
 10 43  1  0  0  0  0
 11 44  1  0  0  0  0
 11 45  1  0  0  0  0
 12 17  1  0  0  0  0
 12 13  2  0  0  0  0
 13 14  1  0  0  0  0
 14 15  2  0  0  0  0
 14 46  1  0  0  0  0
 15 16  1  0  0  0  0
 16 20  1  0  0  0  0
 16 17  2  0  0  0  0
 17 18  1  0  0  0  0
 18 19  2  0  0  0  0
 19 20  1  0  0  0  0
 19 47  1  0  0  0  0
 20 21  1  0  0  0  0
 21 22  1  0  0  0  0
 21 48  1  0  0  0  0
 21 49  1  0  0  0  0
 22 27  1  0  0  0  0
 22 23  1  0  0  0  0
 22 24  1  0  0  0  0
 23 50  1  0  0  0  0
 24 25  1  0  0  0  0
 24 51  1  0  0  0  0
 24 52  1  0  0  0  0
 25 26  1  0  0  0  0
 25 53  1  0  0  0  0
 25 54  1  0  0  0  0
 26 27  1  0  0  0  0
 27 55  1  0  0  0  0
 27 56  1  0  0  0  0
M  END
> <s_m_source_file>
AV-unprocessed.smi

> <i_m_source_file_index>
225

> <i_lp_mmshare_version>
43012

> <i_f3d_flags>
0

> <s_epik_input>
W0NIMl0xW0NIMl1bQ0gyXVtDSDJdW0NIMl1bQ0hdMVtDSDJdTihbQ0gyXVtDSDJdW09IXSljKG5bY0hdbjIpYyhjMjMpbltjSF1uM1tDSDJdW0NAQF00KFtPSF0pW0NIMl1bQ0gyXU9bQ0gyXTQ=

> <s_epik_cmdline>
J2VwaWtfcHl0aG9uJywgJy1waCcsICc3LjAnLCAnLXRuJywgJzgnLCAnLW1hJywgJzIwMCcsICctbWV0YWxfYmluZGluZycsICctaW1hZScsICc8aW5maWxlLm1hZT4nLCAnLW9tYWUnLCAnPG91dGZpbGUubWFlPic=

> <r_lp_tautomer_probability>
1

> <r_epik_Ionization_Penalty>
0.00405109

> <r_epik_Ionization_Penalty_Charging>
0

> <r_epik_Ionization_Penalty_Neutral>
0.00405109

> <r_epik_State_Penalty>
0.00270467

> <r_epik_Charging_Adjusted_Penalty>
0.00270467

> <i_epik_Tot_Q>
0

> <i_epik_Tot_abs_Q>
0

> <r_epik_Metal_State_Penalty>
-0

> <b_epik_Metal_Only>
0

> <s_lp_Force_Field>
OPLS_2005

> <r_lp_Energy>
35.3167

> <b_lp_Chiralities_Consistent>
1

> <s_lp_Variant>
AV-unprocessed.smi:225-1

> <Gold.Version>
5.8.1

> <Gold.Id.Protein>
6NUR|6NUR_protein|mol2

> <Gold.PLP.Fitness>
51.4901

> <Gold.PLP.PLP>
-46.5230

> <Gold.PLP.part.hbond>
-3.6976

> <Gold.PLP.part.metal>
0.0000

> <Gold.PLP.part.buried>
-7.1317

> <Gold.PLP.part.nonpolar>
-36.5646

> <Gold.PLP.part.repulsive>
0.0566

> <Gold.PLP.ligand.clash>
0.1973

> <Gold.PLP.ligand.torsion>
1.9851

> <Gold.PLP.Chemscore.Hbond>
2.7280

> <Gold.PLP.Chemscore.CHOScore>
0.0000

> <Gold.PLP.Chemscore.Metal>
0.0000

> <Gold.Chemscore.Hbonds>
donor molecule, donor type, donor heavy atom, donor atom, acceptor molecule, acceptor atom, score
      L1  H     1    28       P1  7957  0.59
      P1  H  6934  6947       L1    26  0.71
      P1  H  7989  7998       L1     1  0.35
      P1  H  8011  8017       L1     1  1.00

> <Gold.PLP.Chemscore.Internal.Correction>
0.9505

> <Gold.Rescore>
     Score         DG    S(hbond)    S(metal)    S(lipo)     H(rot)  DE(clash)    DE(int)     intcor
     11.64     -15.00       1.65        0.00     116.56       3.76       0.03       3.33       ----

> <Gold.Chemscore.Fitness>
11.6387

> <Gold.Chemscore.DG>
-15.0032

> <Gold.Chemscore.ZeroCoef>
-5.4800

> <Gold.Chemscore.Hbond>
1.6534

> <Gold.Chemscore.Metal>
0.0000

> <Gold.Chemscore.Lipo>
116.5625

> <Gold.Chemscore.Internal_Hbond>
0.0000

> <Gold.Chemscore.DEClash>
0.0341

> <Gold.Chemscore.DEInternal>
3.3305

> <Gold.Chemscore.Rot>
3.7644

> <Gold.Chemscore.Internal.Correction>
   9.000000E+99

> <Gold.Chemscore.Hbonds>
donor molecule, donor type, donor heavy atom, donor atom, acceptor molecule, acceptor atom, score
      L1  H     1    28       P1  7957  0.60
      P1  H  6934  6947       L1    26  0.14
      P1  H  7989  7998       L1     1  0.03
      P1  H  8011  8017       L1     1  0.43

> <Gold.Chemscore.Hbond.Weighted>
-5.5223

> <Gold.Chemscore.Metal.Weighted>
-0.0000

> <Gold.Chemscore.Lipo.Weighted>
-13.6378

> <Gold.Chemscore.Internal_Hbond.Weighted>
0.0000

> <Gold.Chemscore.DEClash.Weighted>
0.0341

> <Gold.Chemscore.DEInternal.Weighted>
3.3305

> <Gold.Chemscore.Rot.Weighted>
9.6369

> <Gold.Chemscore.Internal.Correction.Weighted>
   9.000000E+99

> <Gold.Protein.RotatedTorsions>
[ 6907 6896 6895 6894 ] final -123.52 input  -60.11 | X-H torsion
[ 7974 7965 7964 7962 ] final  -12.81 input  175.53 | X-H torsion
[ 8008 7997 7996 7995 ] final  148.79 input   59.86 | X-H torsion
[ 10167 10162 10161 10158 ] final -108.94 input  -65.29 | X-H torsion
[ 10718 10713 10712 10709 ] final   31.70 input   66.30 | X-H torsion
[ 10763 10752 10751 10750 ] final   62.22 input  -60.55 | X-H torsion
[ 11005 11000 10999 10996 ] final  -81.74 input  -57.11 | X-H torsion

> <Gold.Protein.ActiveResidues>
 VAL166  LYS551  ARG553  GLY616  TRP617  ASP618  TYR619  PRO620  LYS621  CYS622 
 ASP623  PHE694  ASN695  SER759  ASP760  ASP761  ALA762  ILE779  LEU786  VAL792 
 PHE793  MET794  SER795  GLU796  ALA797  LYS798  CYS799  TRP800  GLU811  SER814 

> <Gold.Protein.RotatedAtoms>
  150.8679  133.7548  159.2970 H   0  0  0  0  0  0  0  0  0  0  0  0  # atno 6907 bound_to 6896
  151.5170  135.1065  159.9878 H   0  0  0  0  0  0  0  0  0  0  0  0  # atno 6908 bound_to 6896
  152.4674  133.7908  159.6956 H   0  0  0  0  0  0  0  0  0  0  0  0  # atno 6909 bound_to 6896
  146.2138  140.3112  142.8382 H   0  0  0  0  0  0  0  0  0  0  0  0  # atno 7974 bound_to 7965
  156.2778  140.2119  156.5755 H   0  0  0  0  0  0  0  0  0  0  0  0  # atno 8008 bound_to 7997
  154.7101  140.0513  157.0564 H   0  0  0  0  0  0  0  0  0  0  0  0  # atno 8009 bound_to 7997
  155.0618  140.3167  155.4661 H   0  0  0  0  0  0  0  0  0  0  0  0  # atno 8010 bound_to 7997
  140.1607  143.4122  152.1427 H   0  0  0  0  0  0  0  0  0  0  0  0  # atno 10167 bound_to 10162
  157.2759  130.7231  149.6529 H   0  0  0  0  0  0  0  0  0  0  0  0  # atno 10718 bound_to 10713
  152.9975  135.5473  154.6158 H   0  0  0  0  0  0  0  0  0  0  0  0  # atno 10763 bound_to 10752
  154.5468  135.2823  155.1047 H   0  0  0  0  0  0  0  0  0  0  0  0  # atno 10764 bound_to 10752
  154.2303  135.6435  153.5225 H   0  0  0  0  0  0  0  0  0  0  0  0  # atno 10765 bound_to 10752
  141.1665  133.7211  156.8467 H   0  0  0  0  0  0  0  0  0  0  0  0  # atno 11005 bound_to 11000
  144.8987  140.7615  143.5881 LP  0  0  0  0  0  0  0  0  0  0  0  0  # atno 17320 bound_to 7965
  145.3037  139.1841  143.4676 LP  0  0  0  0  0  0  0  0  0  0  0  0  # atno 17321 bound_to 7965
  139.5382  144.7231  151.4821 LP  0  0  0  0  0  0  0  0  0  0  0  0  # atno 17342 bound_to 10162
  140.6645  143.8428  150.6925 LP  0  0  0  0  0  0  0  0  0  0  0  0  # atno 17343 bound_to 10162
  155.9663  130.4353  150.5086 LP  0  0  0  0  0  0  0  0  0  0  0  0  # atno 17370 bound_to 10713
  157.3020  131.0647  151.2061 LP  0  0  0  0  0  0  0  0  0  0  0  0  # atno 17371 bound_to 10713
  140.1945  134.8942  157.3098 LP  0  0  0  0  0  0  0  0  0  0  0  0  # atno 17394 bound_to 11000
  140.2254  134.3973  155.7546 LP  0  0  0  0  0  0  0  0  0  0  0  0  # atno 17395 bound_to 11000

$$$$
