AV-unprocessed.smi:3253|AV-procd|sdf|12446|dock4
  -GOLD-   2272018343D 1   1.00000     0.00000
 Structure written by MMmdl.
 37 38  0  0  0  0  0  0  0  0  2 V2000
  145.4652  129.4180  152.1624 C   0  0  0  0  0  0  0  0  0  0  0  0
  146.6242  130.4235  152.1479 C   0  0  1  0  0  0  0  0  0  0  0  0
  146.1159  131.8677  152.3534 C   0  0  0  0  0  0  0  0  0  0  0  0
  145.0745  132.2534  151.3948 N   0  0  0  0  0  0  0  0  0  0  0  0
  145.0765  132.0540  150.0378 C   0  0  0  0  0  0  0  0  0  0  0  0
  143.8922  132.5594  149.5670 C   0  0  0  0  0  0  0  0  0  0  0  0
  143.2221  133.0532  150.6540 N   0  3  0  0  0  0  0  0  0  0  0  0
  143.9448  132.8707  151.7639 C   0  0  0  0  0  0  0  0  0  0  0  0
  147.5861  130.0523  153.1853 N   0  0  0  0  0  0  0  0  0  0  0  0
  148.7515  130.6724  153.4304 C   0  0  0  0  0  0  0  0  0  0  0  0
  149.1539  131.6373  152.7789 O   0  0  0  0  0  0  0  0  0  0  0  0
  149.5790  130.1362  154.6081 C   0  0  2  0  0  0  0  0  0  0  0  0
  150.3164  131.2800  155.3336 C   0  0  0  0  0  0  0  0  0  0  0  0
  151.7826  131.0247  155.0270 C   0  0  0  0  0  0  0  0  0  0  0  0
  152.6772  131.8043  155.3500 O   0  0  0  0  0  0  0  0  0  0  0  0
  151.9394  129.8737  154.3675 N   0  0  0  0  0  0  0  0  0  0  0  0
  153.2048  129.3238  153.9007 C   0  0  0  0  0  0  0  0  0  0  0  0
  150.6901  129.1618  154.1585 C   0  0  0  0  0  0  0  0  0  0  0  0
  144.7411  129.6427  151.3787 H   0  0  0  0  0  0  0  0  0  0  0  0
  144.9371  129.4322  153.1166 H   0  0  0  0  0  0  0  0  0  0  0  0
  145.8240  128.4018  151.9946 H   0  0  0  0  0  0  0  0  0  0  0  0
  147.0968  130.3516  151.1666 H   0  0  0  0  0  0  0  0  0  0  0  0
  145.6955  131.9843  153.3534 H   0  0  0  0  0  0  0  0  0  0  0  0
  146.9354  132.5833  152.2705 H   0  0  0  0  0  0  0  0  0  0  0  0
  145.8939  131.5707  149.5226 H   0  0  0  0  0  0  0  0  0  0  0  0
  143.4863  132.6028  148.5667 H   0  0  0  0  0  0  0  0  0  0  0  0
  143.6652  133.1543  152.7629 H   0  0  0  0  0  0  0  0  0  0  0  0
  147.3410  129.2656  153.7692 H   0  0  0  0  0  0  0  0  0  0  0  0
  148.9130  129.6265  155.3068 H   0  0  0  0  0  0  0  0  0  0  0  0
  150.0246  132.2761  154.9961 H   0  0  0  0  0  0  0  0  0  0  0  0
  150.1568  131.2298  156.4112 H   0  0  0  0  0  0  0  0  0  0  0  0
  153.9435  129.3158  154.7030 H   0  0  0  0  0  0  0  0  0  0  0  0
  153.5970  129.9214  153.0770 H   0  0  0  0  0  0  0  0  0  0  0  0
  153.0805  128.2995  153.5481 H   0  0  0  0  0  0  0  0  0  0  0  0
  150.6834  128.2581  154.7694 H   0  0  0  0  0  0  0  0  0  0  0  0
  150.5953  128.8539  153.1155 H   0  0  0  0  0  0  0  0  0  0  0  0
  142.3093  133.4899  150.6258 H   0  0  0  0  0  0  0  0  0  0  0  0
  1  2  1  0  0  0  0
  1 19  1  0  0  0  0
  1 20  1  0  0  0  0
  1 21  1  0  0  0  0
  2  3  1  0  0  0  0
  2  9  1  0  0  0  0
  2 22  1  0  0  0  0
  3  4  1  0  0  0  0
  3 23  1  0  0  0  0
  3 24  1  0  0  0  0
  4  8  1  0  0  0  0
  4  5  1  0  0  0  0
  5  6  2  0  0  0  0
  5 25  1  0  0  0  0
  6  7  1  0  0  0  0
  6 26  1  0  0  0  0
  7  8  2  0  0  0  0
  7 37  1  0  0  0  0
  8 27  1  0  0  0  0
  9 10  1  0  0  0  0
  9 28  1  0  0  0  0
 10 11  2  0  0  0  0
 10 12  1  0  0  0  0
 12 18  1  0  0  0  0
 12 13  1  0  0  0  0
 12 29  1  0  0  0  0
 13 14  1  0  0  0  0
 13 30  1  0  0  0  0
 13 31  1  0  0  0  0
 14 15  2  0  0  0  0
 14 16  1  0  0  0  0
 16 17  1  0  0  0  0
 16 18  1  0  0  0  0
 17 32  1  0  0  0  0
 17 33  1  0  0  0  0
 17 34  1  0  0  0  0
 18 35  1  0  0  0  0
 18 36  1  0  0  0  0
M  CHG  1   7   1
M  END
> <s_m_source_file>
AV-unprocessed.smi

> <i_m_source_file_index>
3253

> <i_lp_mmshare_version>
43012

> <i_f3d_flags>
0

> <s_epik_input>
W2NIXTFuW2NIXVtjSF1uMVtDSDJdW0NAQEhdKFtDSDNdKVtOSF1DKD1PKVtDQEBIXTJbQ0gyXUMoPU8pTihbQ0gzXSlbQ0gyXTI=

> <s_epik_cmdline>
J2VwaWtfcHl0aG9uJywgJy1waCcsICc3LjAnLCAnLXRuJywgJzgnLCAnLW1hJywgJzIwMCcsICctbWV0YWxfYmluZGluZycsICctaW1hZScsICc8aW5maWxlLm1hZT4nLCAnLW9tYWUnLCAnPG91dGZpbGUubWFlPic=

> <r_lp_tautomer_probability>
1

> <r_epik_Ionization_Penalty>
0.251561

> <r_epik_Ionization_Penalty_Charging>
0

> <r_epik_Ionization_Penalty_Neutral>
0.251561

> <r_epik_State_Penalty>
0.242926

> <r_epik_Charging_Adjusted_Penalty>
0.242926

> <i_epik_Tot_Q>
1

> <i_epik_Tot_abs_Q>
1

> <r_epik_Metal_State_Penalty>
0.533885

> <b_epik_Metal_Only>
0

> <s_lp_Force_Field>
OPLS_2005

> <r_lp_Energy>
13.6979

> <b_lp_Chiralities_Consistent>
1

> <s_lp_Variant>
AV-unprocessed.smi:3253-2

> <Gold.Version>
5.8.1

> <Gold.Id.Protein>
6NUR|6NUR_protein|mol2

> <Gold.PLP.Fitness>
41.1358

> <Gold.PLP.PLP>
-33.9418

> <Gold.PLP.part.hbond>
-1.0000

> <Gold.PLP.part.metal>
0.0000

> <Gold.PLP.part.buried>
-4.1775

> <Gold.PLP.part.nonpolar>
-29.1827

> <Gold.PLP.part.repulsive>
0.8500

> <Gold.PLP.ligand.clash>
0.0000

> <Gold.PLP.ligand.torsion>
0.8585

> <Gold.PLP.Chemscore.Hbond>
2.0000

> <Gold.PLP.Chemscore.CHOScore>
0.9602

> <Gold.PLP.Chemscore.Metal>
0.0000

> <Gold.Chemscore.Hbonds>
donor molecule, donor type, donor heavy atom, donor atom, acceptor molecule, acceptor atom, score
      L1  H     7    37       P1 10186  1.89
      L1  C     8    27       P1 10957  0.73

> <Gold.PLP.Chemscore.Internal.Correction>
0.0304

> <Gold.Rescore>
     Score         DG    S(hbond)    S(metal)    S(lipo)     H(rot)  DE(clash)    DE(int)     intcor
     10.55     -11.50       0.98        0.00      68.07       2.03       0.44       0.51       ----

> <Gold.Chemscore.Fitness>
10.5469

> <Gold.Chemscore.DG>
-11.4951

> <Gold.Chemscore.ZeroCoef>
-5.4800

> <Gold.Chemscore.Hbond>
0.9755

> <Gold.Chemscore.Metal>
0.0000

> <Gold.Chemscore.Lipo>
68.0702

> <Gold.Chemscore.Internal_Hbond>
0.0000

> <Gold.Chemscore.DEClash>
0.4418

> <Gold.Chemscore.DEInternal>
0.5064

> <Gold.Chemscore.Rot>
2.0341

> <Gold.Chemscore.Internal.Correction>
   9.000000E+99

> <Gold.Chemscore.Hbonds>
donor molecule, donor type, donor heavy atom, donor atom, acceptor molecule, acceptor atom, score
      L1  H     7    37       P1 10186  0.88

> <Gold.Chemscore.Hbond.Weighted>
-3.2581

> <Gold.Chemscore.Metal.Weighted>
-0.0000

> <Gold.Chemscore.Lipo.Weighted>
-7.9642

> <Gold.Chemscore.Internal_Hbond.Weighted>
0.0000

> <Gold.Chemscore.DEClash.Weighted>
0.4418

> <Gold.Chemscore.DEInternal.Weighted>
0.5064

> <Gold.Chemscore.Rot.Weighted>
5.2072

> <Gold.Chemscore.Internal.Correction.Weighted>
   9.000000E+99

> <Gold.Protein.RotatedTorsions>
[ 6907 6896 6895 6894 ] final   51.59 input  -60.11 | X-H torsion
[ 7974 7965 7964 7962 ] final    3.25 input  175.53 | X-H torsion
[ 8008 7997 7996 7995 ] final -143.65 input   59.86 | X-H torsion
[ 10167 10162 10161 10158 ] final  -73.87 input  -65.29 | X-H torsion
[ 10718 10713 10712 10709 ] final   54.69 input   66.30 | X-H torsion
[ 10763 10752 10751 10750 ] final  177.59 input  -60.55 | X-H torsion
[ 11005 11000 10999 10996 ] final -162.74 input  -57.11 | X-H torsion

> <Gold.Protein.ActiveResidues>
 VAL166  LYS551  ARG553  GLY616  TRP617  ASP618  TYR619  PRO620  LYS621  CYS622 
 ASP623  PHE694  ASN695  SER759  ASP760  ASP761  ALA762  ILE779  LEU786  VAL792 
 PHE793  MET794  SER795  GLU796  ALA797  LYS798  CYS799  TRP800  GLU811  SER814 

> <Gold.Protein.RotatedAtoms>
  152.3143  134.7459  160.0328 H   0  0  0  0  0  0  0  0  0  0  0  0  # atno 6907 bound_to 6896
  151.7929  133.3356  159.3512 H   0  0  0  0  0  0  0  0  0  0  0  0  # atno 6908 bound_to 6896
  150.7336  134.5756  159.5957 H   0  0  0  0  0  0  0  0  0  0  0  0  # atno 6909 bound_to 6896
  146.2445  140.0713  142.8362 H   0  0  0  0  0  0  0  0  0  0  0  0  # atno 7974 bound_to 7965
  155.5141  140.0586  157.2918 H   0  0  0  0  0  0  0  0  0  0  0  0  # atno 8008 bound_to 7997
  154.4541  140.1964  156.0379 H   0  0  0  0  0  0  0  0  0  0  0  0  # atno 8009 bound_to 7997
  156.0764  140.3253  155.7643 H   0  0  0  0  0  0  0  0  0  0  0  0  # atno 8010 bound_to 7997
  140.5075  143.2350  151.7650 H   0  0  0  0  0  0  0  0  0  0  0  0  # atno 10167 bound_to 10162
  157.5279  130.8610  149.8647 H   0  0  0  0  0  0  0  0  0  0  0  0  # atno 10718 bound_to 10713
  154.4965  135.2781  155.1455 H   0  0  0  0  0  0  0  0  0  0  0  0  # atno 10763 bound_to 10752
  154.3105  135.6230  153.5467 H   0  0  0  0  0  0  0  0  0  0  0  0  # atno 10764 bound_to 10752
  152.9896  135.5718  154.5398 H   0  0  0  0  0  0  0  0  0  0  0  0  # atno 10765 bound_to 10752
  140.6059  134.4899  157.5210 H   0  0  0  0  0  0  0  0  0  0  0  0  # atno 11005 bound_to 11000
  145.0813  140.9223  143.4823 LP  0  0  0  0  0  0  0  0  0  0  0  0  # atno 17320 bound_to 7965
  145.0867  139.2920  143.5756 LP  0  0  0  0  0  0  0  0  0  0  0  0  # atno 17321 bound_to 7965
  139.4887  144.4437  151.9734 LP  0  0  0  0  0  0  0  0  0  0  0  0  # atno 17342 bound_to 10162
  140.3528  144.3068  150.5946 LP  0  0  0  0  0  0  0  0  0  0  0  0  # atno 17343 bound_to 10162
  156.0400  130.3741  150.1459 LP  0  0  0  0  0  0  0  0  0  0  0  0  # atno 17370 bound_to 10713
  156.9645  130.9815  151.3472 LP  0  0  0  0  0  0  0  0  0  0  0  0  # atno 17371 bound_to 10713
  139.9212  134.8144  156.1204 LP  0  0  0  0  0  0  0  0  0  0  0  0  # atno 17394 bound_to 11000
  141.0841  133.6742  156.2398 LP  0  0  0  0  0  0  0  0  0  0  0  0  # atno 17395 bound_to 11000

$$$$
