AV-unprocessed.smi:1206|AV-procd|sdf|5047|dock5
  -GOLD-   22720 4 73D 1   1.00000     0.00000
 Structure written by MMmdl.
 41 42  0  0  0  0  0  0  0  0  2 V2000
  144.9674  134.6225  154.5735 C   0  0  0  0  0  0  0  0  0  0  0  0
  144.0135  134.1444  153.5401 N   0  3  0  0  0  0  0  0  0  0  0  0
  142.7792  134.9731  153.5642 C   0  0  0  0  0  0  0  0  0  0  0  0
  144.5825  133.8690  152.1664 C   0  0  0  0  0  0  0  0  0  0  0  0
  144.8307  135.2395  151.4555 C   0  0  0  0  0  0  0  0  0  0  0  0
  145.9486  135.9979  152.0183 N   0  0  0  0  0  0  0  0  0  0  0  0
  145.8537  137.1218  152.7426 C   0  0  0  0  0  0  0  0  0  0  0  0
  144.7838  137.6700  153.0041 O   0  0  0  0  0  0  0  0  0  0  0  0
  147.0647  137.5605  153.1205 N   0  0  0  0  0  0  0  0  0  0  0  0
  147.3745  138.7166  153.8799 C   0  0  0  0  0  0  0  0  0  0  0  0
  146.3683  139.3576  154.4857 N   0  0  0  0  0  0  0  0  0  0  0  0
  146.8101  140.4689  155.1930 N   0  0  0  0  0  0  0  0  0  0  0  0
  148.1338  140.6233  155.0918 C   0  0  0  0  0  0  0  0  0  0  0  0
  148.9741  139.4244  154.1242 S   0  0  0  0  0  0  0  0  0  0  0  0
  145.9209  133.0757  152.2716 C   0  0  0  0  0  0  0  0  0  0  0  0
  146.4918  132.6198  150.9139 C   0  0  0  0  0  0  0  0  0  0  0  0
  145.4676  131.8170  150.1012 C   0  0  0  0  0  0  0  0  0  0  0  0
  144.1567  132.5961  149.9342 C   0  0  0  0  0  0  0  0  0  0  0  0
  143.5937  133.0147  151.3039 C   0  0  0  0  0  0  0  0  0  0  0  0
  145.4803  135.5300  154.2534 H   0  0  0  0  0  0  0  0  0  0  0  0
  145.7090  133.8628  154.8193 H   0  0  0  0  0  0  0  0  0  0  0  0
  144.4469  134.8464  155.5053 H   0  0  0  0  0  0  0  0  0  0  0  0
  142.9999  136.0225  153.3659 H   0  0  0  0  0  0  0  0  0  0  0  0
  142.3119  134.9176  154.5479 H   0  0  0  0  0  0  0  0  0  0  0  0
  142.0330  134.6401  152.8454 H   0  0  0  0  0  0  0  0  0  0  0  0
  144.9670  135.1129  150.3816 H   0  0  0  0  0  0  0  0  0  0  0  0
  143.9592  135.8861  151.5329 H   0  0  0  0  0  0  0  0  0  0  0  0
  146.8713  135.6200  151.8576 H   0  0  0  0  0  0  0  0  0  0  0  0
  147.8589  137.0085  152.8310 H   0  0  0  0  0  0  0  0  0  0  0  0
  148.6189  141.4491  155.5912 H   0  0  0  0  0  0  0  0  0  0  0  0
  146.6854  133.6707  152.7717 H   0  0  0  0  0  0  0  0  0  0  0  0
  145.7731  132.1914  152.8926 H   0  0  0  0  0  0  0  0  0  0  0  0
  146.8263  133.4809  150.3356 H   0  0  0  0  0  0  0  0  0  0  0  0
  147.3814  132.0113  151.0794 H   0  0  0  0  0  0  0  0  0  0  0  0
  145.8804  131.5654  149.1238 H   0  0  0  0  0  0  0  0  0  0  0  0
  145.2674  130.8700  150.6044 H   0  0  0  0  0  0  0  0  0  0  0  0
  144.3101  133.4637  149.2929 H   0  0  0  0  0  0  0  0  0  0  0  0
  143.4278  131.9710  149.4174 H   0  0  0  0  0  0  0  0  0  0  0  0
  143.3514  132.0808  151.8104 H   0  0  0  0  0  0  0  0  0  0  0  0
  142.6453  133.5353  151.1674 H   0  0  0  0  0  0  0  0  0  0  0  0
  143.7195  133.2369  153.8723 H   0  0  0  0  0  0  0  0  0  0  0  0
  1  2  1  0  0  0  0
  1 20  1  0  0  0  0
  1 21  1  0  0  0  0
  1 22  1  0  0  0  0
  2  3  1  0  0  0  0
  2  4  1  0  0  0  0
  2 41  1  0  0  0  0
  3 23  1  0  0  0  0
  3 24  1  0  0  0  0
  3 25  1  0  0  0  0
  4 19  1  0  0  0  0
  4  5  1  0  0  0  0
  4 15  1  0  0  0  0
  5  6  1  0  0  0  0
  5 26  1  0  0  0  0
  5 27  1  0  0  0  0
  6  7  1  0  0  0  0
  6 28  1  0  0  0  0
  7  8  2  0  0  0  0
  7  9  1  0  0  0  0
  9 10  1  0  0  0  0
  9 29  1  0  0  0  0
 10 14  1  0  0  0  0
 10 11  2  0  0  0  0
 11 12  1  0  0  0  0
 12 13  2  0  0  0  0
 13 14  1  0  0  0  0
 13 30  1  0  0  0  0
 15 16  1  0  0  0  0
 15 31  1  0  0  0  0
 15 32  1  0  0  0  0
 16 17  1  0  0  0  0
 16 33  1  0  0  0  0
 16 34  1  0  0  0  0
 17 18  1  0  0  0  0
 17 35  1  0  0  0  0
 17 36  1  0  0  0  0
 18 19  1  0  0  0  0
 18 37  1  0  0  0  0
 18 38  1  0  0  0  0
 19 39  1  0  0  0  0
 19 40  1  0  0  0  0
M  CHG  1   2   1
M  END
> <s_m_source_file>
AV-unprocessed.smi

> <i_m_source_file_index>
1206

> <i_lp_mmshare_version>
43012

> <i_f3d_flags>
0

> <s_epik_input>
W0NIMl0xW0NIMl1bQ0gyXVtDSDJdW0NIMl1DMShOKFtDSDNdKVtDSDNdKVtDSDJdW05IXUMoPU8pW05IXWMybm5bY0hdczI=

> <s_epik_cmdline>
J2VwaWtfcHl0aG9uJywgJy1waCcsICc3LjAnLCAnLXRuJywgJzgnLCAnLW1hJywgJzIwMCcsICctbWV0YWxfYmluZGluZycsICctaW1hZScsICc8aW5maWxlLm1hZT4nLCAnLW9tYWUnLCAnPG91dGZpbGUubWFlPic=

> <r_lp_tautomer_probability>
1

> <r_epik_Ionization_Penalty>
0.00322257

> <r_epik_Ionization_Penalty_Charging>
0.00246239

> <r_epik_Ionization_Penalty_Neutral>
0.000760187

> <r_epik_State_Penalty>
-0

> <r_epik_Charging_Adjusted_Penalty>
0.00246239

> <i_epik_Tot_Q>
1

> <i_epik_Tot_abs_Q>
1

> <r_epik_Metal_State_Penalty>
0.262153

> <b_epik_Metal_Only>
0

> <s_lp_Force_Field>
OPLS_2005

> <r_lp_Energy>
30.8997

> <b_lp_Chiralities_Consistent>
1

> <s_lp_Variant>
AV-unprocessed.smi:1206-1

> <Gold.Version>
5.8.1

> <Gold.Id.Protein>
6NUR|6NUR_protein|mol2

> <Gold.PLP.Fitness>
37.7244

> <Gold.PLP.PLP>
-27.5643

> <Gold.PLP.part.hbond>
-3.0000

> <Gold.PLP.part.metal>
0.0000

> <Gold.PLP.part.buried>
-4.1891

> <Gold.PLP.part.nonpolar>
-22.4104

> <Gold.PLP.part.repulsive>
0.9477

> <Gold.PLP.ligand.clash>
0.0000

> <Gold.PLP.ligand.torsion>
0.3638

> <Gold.PLP.Chemscore.Hbond>
3.5935

> <Gold.PLP.Chemscore.CHOScore>
0.0000

> <Gold.PLP.Chemscore.Metal>
0.0000

> <Gold.Chemscore.Hbonds>
donor molecule, donor type, donor heavy atom, donor atom, acceptor molecule, acceptor atom, score
      L1  H     2    41       P1 10957  2.00
      L1  H     6    28       P1  7948  0.61
      L1  H     9    29       P1  7948  1.00

> <Gold.PLP.Chemscore.Internal.Correction>
0.1071

> <Gold.Rescore>
     Score         DG    S(hbond)    S(metal)    S(lipo)     H(rot)  DE(clash)    DE(int)     intcor
     15.87     -17.80       2.67        0.00      65.38       1.66       0.00       1.93       ----

> <Gold.Chemscore.Fitness>
15.8730

> <Gold.Chemscore.DG>
-17.7989

> <Gold.Chemscore.ZeroCoef>
-5.4800

> <Gold.Chemscore.Hbond>
2.6719

> <Gold.Chemscore.Metal>
0.0000

> <Gold.Chemscore.Lipo>
65.3818

> <Gold.Chemscore.Internal_Hbond>
0.0000

> <Gold.Chemscore.DEClash>
0.0000

> <Gold.Chemscore.DEInternal>
1.9259

> <Gold.Chemscore.Rot>
1.6621

> <Gold.Chemscore.Internal.Correction>
   9.000000E+99

> <Gold.Chemscore.Hbonds>
donor molecule, donor type, donor heavy atom, donor atom, acceptor molecule, acceptor atom, score
      L1  H     2    41       P1 10957  0.93
      L1  H     6    28       P1  7948  0.59
      L1  H     9    29       P1  7948  0.99

> <Gold.Chemscore.Hbond.Weighted>
-8.9241

> <Gold.Chemscore.Metal.Weighted>
-0.0000

> <Gold.Chemscore.Lipo.Weighted>
-7.6497

> <Gold.Chemscore.Internal_Hbond.Weighted>
0.0000

> <Gold.Chemscore.DEClash.Weighted>
0.0000

> <Gold.Chemscore.DEInternal.Weighted>
1.9259

> <Gold.Chemscore.Rot.Weighted>
4.2549

> <Gold.Chemscore.Internal.Correction.Weighted>
   9.000000E+99

> <Gold.Protein.RotatedTorsions>
[ 6907 6896 6895 6894 ] final  -50.96 input  -60.11 | X-H torsion
[ 7974 7965 7964 7962 ] final  -49.38 input  175.53 | X-H torsion
[ 8008 7997 7996 7995 ] final -136.45 input   59.86 | X-H torsion
[ 10167 10162 10161 10158 ] final  -31.66 input  -65.29 | X-H torsion
[ 10718 10713 10712 10709 ] final -141.08 input   66.30 | X-H torsion
[ 10763 10752 10751 10750 ] final -120.59 input  -60.55 | X-H torsion
[ 11005 11000 10999 10996 ] final -158.86 input  -57.11 | X-H torsion

> <Gold.Protein.ActiveResidues>
 VAL166  LYS551  ARG553  GLY616  TRP617  ASP618  TYR619  PRO620  LYS621  CYS622 
 ASP623  PHE694  ASN695  SER759  ASP760  ASP761  ALA762  ILE779  LEU786  VAL792 
 PHE793  MET794  SER795  GLU796  ALA797  LYS798  CYS799  TRP800  GLU811  SER814 

> <Gold.Protein.RotatedAtoms>
  150.8657  134.8019  159.7116 H   0  0  0  0  0  0  0  0  0  0  0  0  # atno 6907 bound_to 6896
  152.4679  134.5028  159.9740 H   0  0  0  0  0  0  0  0  0  0  0  0  # atno 6908 bound_to 6896
  151.5125  133.3444  159.2923 H   0  0  0  0  0  0  0  0  0  0  0  0  # atno 6909 bound_to 6896
  145.9411  140.7661  142.9551 H   0  0  0  0  0  0  0  0  0  0  0  0  # atno 7974 bound_to 7965
  155.3954  140.0502  157.3039 H   0  0  0  0  0  0  0  0  0  0  0  0  # atno 8008 bound_to 7997
  154.5016  140.2159  155.9296 H   0  0  0  0  0  0  0  0  0  0  0  0  # atno 8009 bound_to 7997
  156.1474  140.3142  155.8598 H   0  0  0  0  0  0  0  0  0  0  0  0  # atno 8010 bound_to 7997
  140.7233  143.3754  151.1700 H   0  0  0  0  0  0  0  0  0  0  0  0  # atno 10167 bound_to 10162
  156.3298  130.7580  151.1695 H   0  0  0  0  0  0  0  0  0  0  0  0  # atno 10718 bound_to 10713
  154.8648  135.4197  154.2485 H   0  0  0  0  0  0  0  0  0  0  0  0  # atno 10763 bound_to 10752
  153.3436  135.6995  153.6852 H   0  0  0  0  0  0  0  0  0  0  0  0  # atno 10764 bound_to 10752
  153.5821  135.3571  155.2851 H   0  0  0  0  0  0  0  0  0  0  0  0  # atno 10765 bound_to 10752
  140.6490  134.4471  157.5235 H   0  0  0  0  0  0  0  0  0  0  0  0  # atno 11005 bound_to 11000
  144.6779  140.2282  143.7358 LP  0  0  0  0  0  0  0  0  0  0  0  0  # atno 17320 bound_to 7965
  145.8298  139.2081  143.1889 LP  0  0  0  0  0  0  0  0  0  0  0  0  # atno 17321 bound_to 7965
  139.7333  143.9039  152.3026 LP  0  0  0  0  0  0  0  0  0  0  0  0  # atno 17342 bound_to 10162
  139.8835  144.7005  150.8851 LP  0  0  0  0  0  0  0  0  0  0  0  0  # atno 17343 bound_to 10162
  157.7428  131.0484  150.4995 LP  0  0  0  0  0  0  0  0  0  0  0  0  # atno 17370 bound_to 10713
  156.5159  130.4150  149.6276 LP  0  0  0  0  0  0  0  0  0  0  0  0  # atno 17371 bound_to 10713
  139.9053  134.8464  156.1732 LP  0  0  0  0  0  0  0  0  0  0  0  0  # atno 17394 bound_to 11000
  141.0551  133.6869  156.1845 LP  0  0  0  0  0  0  0  0  0  0  0  0  # atno 17395 bound_to 11000

$$$$
