AV-unprocessed.smi:3234|AV-procd|sdf|12357|dock6
  -GOLD-   2272018213D 1   1.00000     0.00000
 Structure written by MMmdl.
 37 39  0  0  0  0  0  0  0  0  4 V2000
  152.3708  139.8754  156.4841 O   0  0  0  0  0  0  0  0  0  0  0  0
  151.4313  140.5070  155.9870 C   0  0  0  0  0  0  0  0  0  0  0  0
  150.9872  141.6356  156.5687 N   0  0  0  0  0  0  0  0  0  0  0  0
  151.4078  142.2448  157.7820 C   0  0  0  0  0  0  0  0  0  0  0  0
  151.3097  143.6505  157.8775 C   0  0  0  0  0  0  0  0  0  0  0  0
  151.6966  144.2949  159.0701 C   0  0  0  0  0  0  0  0  0  0  0  0
  152.1449  143.5649  160.1142 N   0  3  0  0  0  0  0  0  0  0  0  0
  152.2385  142.2183  160.0765 C   0  0  0  0  0  0  0  0  0  0  0  0
  151.8657  141.5190  158.9108 C   0  0  0  0  0  0  0  0  0  0  0  0
  150.7534  140.2172  154.8432 N   0  5  0  0  0  0  0  0  0  0  0  0
  150.4153  138.8649  154.3949 C   0  0  1  0  0  0  0  0  0  0  0  0
  150.9798  137.7991  155.3356 C   0  0  0  0  0  0  0  0  0  0  0  0
  150.0280  136.6040  155.1734 C   0  0  0  0  0  0  0  0  0  0  0  0
  148.8133  137.1157  154.4961 N   0  3  1  0  0  0  0  0  0  0  0  0
  147.5408  136.6043  155.0490 C   0  0  0  0  0  0  0  0  0  0  0  0
  147.0571  135.3409  154.3785 C   0  0  0  0  0  0  0  0  0  0  0  0
  146.3913  136.6652  154.0718 C   0  0  0  0  0  0  0  0  0  0  0  0
  148.9128  138.5874  154.4631 C   0  0  0  0  0  0  0  0  0  0  0  0
  150.2937  142.1466  156.0424 H   0  0  0  0  0  0  0  0  0  0  0  0
  150.9467  144.2325  157.0424 H   0  0  0  0  0  0  0  0  0  0  0  0
  151.6578  145.3640  159.2200 H   0  0  0  0  0  0  0  0  0  0  0  0
  152.5988  141.7420  160.9766 H   0  0  0  0  0  0  0  0  0  0  0  0
  151.9241  140.4412  158.9072 H   0  0  0  0  0  0  0  0  0  0  0  0
  150.7681  138.6574  153.3831 H   0  0  0  0  0  0  0  0  0  0  0  0
  152.0149  137.5445  155.1051 H   0  0  0  0  0  0  0  0  0  0  0  0
  150.9472  138.1443  156.3708 H   0  0  0  0  0  0  0  0  0  0  0  0
  150.4716  135.8189  154.5594 H   0  0  0  0  0  0  0  0  0  0  0  0
  149.7963  136.1668  156.1462 H   0  0  0  0  0  0  0  0  0  0  0  0
  147.3716  136.7682  156.1119 H   0  0  0  0  0  0  0  0  0  0  0  0
  147.6800  134.8994  153.6023 H   0  0  0  0  0  0  0  0  0  0  0  0
  146.4995  134.6315  154.9867 H   0  0  0  0  0  0  0  0  0  0  0  0
  145.3956  136.8295  154.4790 H   0  0  0  0  0  0  0  0  0  0  0  0
  146.5712  137.1047  153.0922 H   0  0  0  0  0  0  0  0  0  0  0  0
  148.4865  139.0022  155.3791 H   0  0  0  0  0  0  0  0  0  0  0  0
  148.3690  139.0059  153.6156 H   0  0  0  0  0  0  0  0  0  0  0  0
  148.8768  136.8107  153.5355 H   0  0  0  0  0  0  0  0  0  0  0  0
  152.4182  144.0501  160.9691 H   0  0  0  0  0  0  0  0  0  0  0  0
  1  2  2  0  0  0  0
  2  3  1  0  0  0  0
  2 10  1  0  0  0  0
  3  4  1  0  0  0  0
  3 19  1  0  0  0  0
  4  9  1  0  0  0  0
  4  5  2  0  0  0  0
  5  6  1  0  0  0  0
  5 20  1  0  0  0  0
  6  7  2  0  0  0  0
  6 21  1  0  0  0  0
  7  8  1  0  0  0  0
  7 37  1  0  0  0  0
  8  9  2  0  0  0  0
  8 22  1  0  0  0  0
  9 23  1  0  0  0  0
 10 11  1  0  0  0  0
 11 18  1  0  0  0  0
 11 12  1  0  0  0  0
 11 24  1  0  0  0  0
 12 13  1  0  0  0  0
 12 25  1  0  0  0  0
 12 26  1  0  0  0  0
 13 14  1  0  0  0  0
 13 27  1  0  0  0  0
 13 28  1  0  0  0  0
 14 15  1  0  0  0  0
 14 18  1  0  0  0  0
 14 36  1  0  0  0  0
 15 17  1  0  0  0  0
 15 16  1  0  0  0  0
 15 29  1  0  0  0  0
 16 17  1  0  0  0  0
 16 30  1  0  0  0  0
 16 31  1  0  0  0  0
 17 32  1  0  0  0  0
 17 33  1  0  0  0  0
 18 34  1  0  0  0  0
 18 35  1  0  0  0  0
M  CHG  1   7   1
M  CHG  1  10  -1
M  CHG  1  14   1
M  END
> <s_m_source_file>
AV-unprocessed.smi

> <i_m_source_file_index>
3234

> <i_lp_mmshare_version>
43012

> <i_f3d_flags>
0

> <s_epik_input>
W2NIXTFbY0hdbltjSF1bY0hdYzFbTkhdQyg9TylbTkhdW0NAQEhdMltDSDJdW0NIMl1OKFtDSDJdMilbQ0hdM1tDSDJdW0NIMl0z

> <s_epik_cmdline>
J2VwaWtfcHl0aG9uJywgJy1waCcsICc3LjAnLCAnLXRuJywgJzgnLCAnLW1hJywgJzIwMCcsICctbWV0YWxfYmluZGluZycsICctaW1hZScsICc8aW5maWxlLm1hZT4nLCAnLW9tYWUnLCAnPG91dGZpbGUubWFlPic=

> <r_epik_Ionization_Penalty>
8.3234

> <r_epik_Ionization_Penalty_Charging>
8.3234

> <r_epik_Ionization_Penalty_Neutral>
3.58513e-06

> <r_epik_State_Penalty>
7.99376

> <r_epik_Charging_Adjusted_Penalty>
16.3172

> <i_epik_Tot_Q>
1

> <i_epik_Tot_abs_Q>
3

> <r_epik_Metal_State_Penalty>
3.98956

> <b_epik_Metal_Only>
1

> <s_lp_Force_Field>
OPLS_2005

> <r_lp_Energy>
39.5194

> <b_lp_Chiralities_Consistent>
1

> <s_lp_Variant>
AV-unprocessed.smi:3234-10

> <Gold.Version>
5.8.1

> <Gold.Id.Protein>
6NUR|6NUR_protein|mol2

> <Gold.PLP.Fitness>
43.3210

> <Gold.PLP.PLP>
-32.3372

> <Gold.PLP.part.hbond>
-3.0000

> <Gold.PLP.part.metal>
0.0000

> <Gold.PLP.part.buried>
-4.5412

> <Gold.PLP.part.nonpolar>
-24.1887

> <Gold.PLP.part.repulsive>
0.2197

> <Gold.PLP.ligand.clash>
0.0000

> <Gold.PLP.ligand.torsion>
1.1479

> <Gold.PLP.Chemscore.Hbond>
4.0000

> <Gold.PLP.Chemscore.CHOScore>
0.0000

> <Gold.PLP.Chemscore.Metal>
0.0000

> <Gold.Chemscore.Hbonds>
donor molecule, donor type, donor heavy atom, donor atom, acceptor molecule, acceptor atom, score
      L1  H    14    36       P1  7948  2.00
      P1  H  7989  7998       L1    10  1.00
      P1  H  7997  8010       L1     1  1.00

> <Gold.PLP.Chemscore.Internal.Correction>
1.2796

> <Gold.Rescore>
     Score         DG    S(hbond)    S(metal)    S(lipo)     H(rot)  DE(clash)    DE(int)     intcor
     17.10     -20.95       2.69        0.00      81.78       1.21       0.11       3.73       ----

> <Gold.Chemscore.Fitness>
17.1006

> <Gold.Chemscore.DG>
-20.9463

> <Gold.Chemscore.ZeroCoef>
-5.4800

> <Gold.Chemscore.Hbond>
2.6941

> <Gold.Chemscore.Metal>
0.0000

> <Gold.Chemscore.Lipo>
81.7754

> <Gold.Chemscore.Internal_Hbond>
0.0000

> <Gold.Chemscore.DEClash>
0.1126

> <Gold.Chemscore.DEInternal>
3.7331

> <Gold.Chemscore.Rot>
1.2108

> <Gold.Chemscore.Internal.Correction>
   9.000000E+99

> <Gold.Chemscore.Hbonds>
donor molecule, donor type, donor heavy atom, donor atom, acceptor molecule, acceptor atom, score
      L1  H    14    36       P1  7948  1.00
      P1  H  7989  7998       L1    10  0.28
      P1  H  7997  8010       L1     1  0.97

> <Gold.Chemscore.Hbond.Weighted>
-8.9982

> <Gold.Chemscore.Metal.Weighted>
-0.0000

> <Gold.Chemscore.Lipo.Weighted>
-9.5677

> <Gold.Chemscore.Internal_Hbond.Weighted>
0.0000

> <Gold.Chemscore.DEClash.Weighted>
0.1126

> <Gold.Chemscore.DEInternal.Weighted>
3.7331

> <Gold.Chemscore.Rot.Weighted>
3.0996

> <Gold.Chemscore.Internal.Correction.Weighted>
   9.000000E+99

> <Gold.Protein.RotatedTorsions>
[ 6907 6896 6895 6894 ] final   94.79 input  -60.11 | X-H torsion
[ 7974 7965 7964 7962 ] final  177.05 input  175.53 | X-H torsion
[ 8008 7997 7996 7995 ] final   78.40 input   59.86 | X-H torsion
[ 10167 10162 10161 10158 ] final  144.71 input  -65.29 | X-H torsion
[ 10718 10713 10712 10709 ] final   -7.58 input   66.30 | X-H torsion
[ 10763 10752 10751 10750 ] final   -0.83 input  -60.55 | X-H torsion
[ 11005 11000 10999 10996 ] final   28.26 input  -57.11 | X-H torsion

> <Gold.Protein.ActiveResidues>
 VAL166  LYS551  ARG553  GLY616  TRP617  ASP618  TYR619  PRO620  LYS621  CYS622 
 ASP623  PHE694  ASN695  SER759  ASP760  ASP761  ALA762  ILE779  LEU786  VAL792 
 PHE793  MET794  SER795  GLU796  ALA797  LYS798  CYS799  TRP800  GLU811  SER814 

> <Gold.Protein.RotatedAtoms>
  152.5447  134.1139  159.8369 H   0  0  0  0  0  0  0  0  0  0  0  0  # atno 6907 bound_to 6896
  151.1202  133.5102  159.2610 H   0  0  0  0  0  0  0  0  0  0  0  0  # atno 6908 bound_to 6896
  151.1787  135.0361  159.8837 H   0  0  0  0  0  0  0  0  0  0  0  0  # atno 6909 bound_to 6896
  144.7175  140.0189  143.6440 H   0  0  0  0  0  0  0  0  0  0  0  0  # atno 7974 bound_to 7965
  155.8552  140.3456  155.5720 H   0  0  0  0  0  0  0  0  0  0  0  0  # atno 8008 bound_to 7997
  155.7994  140.0883  157.1985 H   0  0  0  0  0  0  0  0  0  0  0  0  # atno 8009 bound_to 7997
  154.4009  140.1468  156.3243 H   0  0  0  0  0  0  0  0  0  0  0  0  # atno 8010 bound_to 7997
  139.4941  144.5953  151.6596 H   0  0  0  0  0  0  0  0  0  0  0  0  # atno 10167 bound_to 10162
  156.7152  130.5134  149.5882 H   0  0  0  0  0  0  0  0  0  0  0  0  # atno 10718 bound_to 10713
  153.3370  135.6978  153.6899 H   0  0  0  0  0  0  0  0  0  0  0  0  # atno 10763 bound_to 10752
  153.5679  135.3522  155.2826 H   0  0  0  0  0  0  0  0  0  0  0  0  # atno 10764 bound_to 10752
  154.8629  135.4265  154.2573 H   0  0  0  0  0  0  0  0  0  0  0  0  # atno 10765 bound_to 10752
  140.3175  134.2580  155.7723 H   0  0  0  0  0  0  0  0  0  0  0  0  # atno 11005 bound_to 11000
  146.0197  139.3240  143.0820 LP  0  0  0  0  0  0  0  0  0  0  0  0  # atno 17320 bound_to 7965
  145.8583  140.9490  143.0713 LP  0  0  0  0  0  0  0  0  0  0  0  0  # atno 17321 bound_to 7965
  140.5589  144.0301  150.6160 LP  0  0  0  0  0  0  0  0  0  0  0  0  # atno 17342 bound_to 10162
  140.3381  143.3036  152.0617 LP  0  0  0  0  0  0  0  0  0  0  0  0  # atno 17343 bound_to 10162
  156.1633  130.6388  151.0746 LP  0  0  0  0  0  0  0  0  0  0  0  0  # atno 17370 bound_to 10713
  157.6920  131.0807  150.7079 LP  0  0  0  0  0  0  0  0  0  0  0  0  # atno 17371 bound_to 10713
  141.2094  133.7749  156.9998 LP  0  0  0  0  0  0  0  0  0  0  0  0  # atno 17394 bound_to 11000
  140.0970  134.9558  157.1865 LP  0  0  0  0  0  0  0  0  0  0  0  0  # atno 17395 bound_to 11000

$$$$
