AV-unprocessed.smi:2687|AV-procd|sdf|10385|dock7
  -GOLD-   2272014413D 1   1.00000     0.00000
 Structure written by MMmdl.
 38 39  0  0  0  0  0  0  0  0  1 V2000
  149.2493  137.5473  159.3536 O   0  0  0  0  0  0  0  0  0  0  0  0
  148.3883  137.7714  158.5036 C   0  0  0  0  0  0  0  0  0  0  0  0
  146.9308  137.4307  158.8074 C   0  0  0  0  0  0  0  0  0  0  0  0
  146.8163  137.1503  160.1925 O   0  0  0  0  0  0  0  0  0  0  0  0
  147.3713  135.8940  160.5481 C   0  0  0  0  0  0  0  0  0  0  0  0
  147.0871  135.6086  162.0280 C   0  0  0  0  0  0  0  0  0  0  0  0
  145.7813  135.7404  162.2580 F   0  0  0  0  0  0  0  0  0  0  0  0
  147.4517  134.3644  162.3366 F   0  0  0  0  0  0  0  0  0  0  0  0
  147.7467  136.4727  162.7989 F   0  0  0  0  0  0  0  0  0  0  0  0
  148.6320  138.2911  157.2871 N   0  0  0  0  0  0  0  0  0  0  0  0
  149.8787  138.7099  156.7414 C   0  0  0  0  0  0  0  0  0  0  0  0
  151.1216  138.3873  157.3381 C   0  0  0  0  0  0  0  0  0  0  0  0
  152.3082  138.8638  156.7516 C   0  0  0  0  0  0  0  0  0  0  0  0
  152.2109  139.6552  155.5929 C   0  0  0  0  0  0  0  0  0  0  0  0
  151.0349  139.9842  155.0205 N   0  0  0  0  0  0  0  0  0  0  0  0
  149.8895  139.5268  155.5820 C   0  0  0  0  0  0  0  0  0  0  0  0
  148.6802  139.8847  154.9625 N   0  0  0  0  0  0  0  0  0  0  0  0
  148.6297  141.2777  154.5379 C   0  0  0  0  0  0  0  0  0  0  0  0
  147.2278  141.6110  153.9989 C   0  0  0  0  0  0  0  0  0  0  0  0
  146.8909  140.7079  152.9492 O   0  0  0  0  0  0  0  0  0  0  0  0
  146.8718  139.3537  153.3922 C   0  0  0  0  0  0  0  0  0  0  0  0
  148.2650  138.9626  153.9129 C   0  0  0  0  0  0  0  0  0  0  0  0
  146.2754  138.2586  158.5302 H   0  0  0  0  0  0  0  0  0  0  0  0
  146.6378  136.5623  158.2151 H   0  0  0  0  0  0  0  0  0  0  0  0
  146.9419  135.1059  159.9276 H   0  0  0  0  0  0  0  0  0  0  0  0
  148.4481  135.8992  160.3719 H   0  0  0  0  0  0  0  0  0  0  0  0
  147.8482  138.3227  156.6513 H   0  0  0  0  0  0  0  0  0  0  0  0
  151.1838  137.7990  158.2407 H   0  0  0  0  0  0  0  0  0  0  0  0
  153.2702  138.6331  157.1839 H   0  0  0  0  0  0  0  0  0  0  0  0
  153.1004  140.0396  155.1163 H   0  0  0  0  0  0  0  0  0  0  0  0
  148.8737  141.9287  155.3782 H   0  0  0  0  0  0  0  0  0  0  0  0
  149.3760  141.4555  153.7625 H   0  0  0  0  0  0  0  0  0  0  0  0
  146.4818  141.5554  154.7935 H   0  0  0  0  0  0  0  0  0  0  0  0
  147.2062  142.6299  153.6118 H   0  0  0  0  0  0  0  0  0  0  0  0
  146.1156  139.2237  154.1681 H   0  0  0  0  0  0  0  0  0  0  0  0
  146.5880  138.7106  152.5590 H   0  0  0  0  0  0  0  0  0  0  0  0
  148.9848  138.9857  153.0935 H   0  0  0  0  0  0  0  0  0  0  0  0
  148.2492  137.9436  154.3017 H   0  0  0  0  0  0  0  0  0  0  0  0
  1  2  2  0  0  0  0
  2  3  1  0  0  0  0
  2 10  1  0  0  0  0
  3  4  1  0  0  0  0
  3 23  1  0  0  0  0
  3 24  1  0  0  0  0
  4  5  1  0  0  0  0
  5  6  1  0  0  0  0
  5 25  1  0  0  0  0
  5 26  1  0  0  0  0
  6  7  1  0  0  0  0
  6  8  1  0  0  0  0
  6  9  1  0  0  0  0
 10 11  1  0  0  0  0
 10 27  1  0  0  0  0
 11 16  1  0  0  0  0
 11 12  2  0  0  0  0
 12 13  1  0  0  0  0
 12 28  1  0  0  0  0
 13 14  2  0  0  0  0
 13 29  1  0  0  0  0
 14 15  1  0  0  0  0
 14 30  1  0  0  0  0
 15 16  2  0  0  0  0
 16 17  1  0  0  0  0
 17 22  1  0  0  0  0
 17 18  1  0  0  0  0
 18 19  1  0  0  0  0
 18 31  1  0  0  0  0
 18 32  1  0  0  0  0
 19 20  1  0  0  0  0
 19 33  1  0  0  0  0
 19 34  1  0  0  0  0
 20 21  1  0  0  0  0
 21 22  1  0  0  0  0
 21 35  1  0  0  0  0
 21 36  1  0  0  0  0
 22 37  1  0  0  0  0
 22 38  1  0  0  0  0
M  END
> <s_m_source_file>
AV-unprocessed.smi

> <i_m_source_file_index>
2687

> <i_lp_mmshare_version>
43012

> <i_f3d_flags>
0

> <s_epik_input>
RkMoRikoRilbQ0gyXU9bQ0gyXUMoPU8pW05IXWMxW2NIXVtjSF1bY0hdbmMxTjJbQ0gyXVtDSDJdT1tDSDJdW0NIMl0y

> <s_epik_cmdline>
J2VwaWtfcHl0aG9uJywgJy1waCcsICc3LjAnLCAnLXRuJywgJzgnLCAnLW1hJywgJzIwMCcsICctbWV0YWxfYmluZGluZycsICctaW1hZScsICc8aW5maWxlLm1hZT4nLCAnLW9tYWUnLCAnPG91dGZpbGUubWFlPic=

> <r_lp_tautomer_probability>
1

> <r_epik_Ionization_Penalty>
0.00040187

> <r_epik_Ionization_Penalty_Charging>
0

> <r_epik_Ionization_Penalty_Neutral>
0.00040187

> <r_epik_State_Penalty>
0.000245652

> <r_epik_Charging_Adjusted_Penalty>
0.000245652

> <i_epik_Tot_Q>
0

> <i_epik_Tot_abs_Q>
0

> <r_epik_Metal_State_Penalty>
-0

> <b_epik_Metal_Only>
0

> <s_lp_Force_Field>
OPLS_2005

> <r_lp_Energy>
25.827

> <b_lp_Chiralities_Consistent>
1

> <s_lp_Variant>
AV-unprocessed.smi:2687-1

> <Gold.Version>
5.8.1

> <Gold.Id.Protein>
6NUR|6NUR_protein|mol2

> <Gold.PLP.Fitness>
40.9536

> <Gold.PLP.PLP>
-36.4855

> <Gold.PLP.part.hbond>
-2.9253

> <Gold.PLP.part.metal>
0.0000

> <Gold.PLP.part.buried>
-4.6830

> <Gold.PLP.part.nonpolar>
-29.1633

> <Gold.PLP.part.repulsive>
0.3710

> <Gold.PLP.ligand.clash>
0.0000

> <Gold.PLP.ligand.torsion>
0.8703

> <Gold.PLP.Chemscore.Hbond>
2.0000

> <Gold.PLP.Chemscore.CHOScore>
0.0000

> <Gold.PLP.Chemscore.Metal>
0.0000

> <Gold.Chemscore.Hbonds>
donor molecule, donor type, donor heavy atom, donor atom, acceptor molecule, acceptor atom, score
      P1  H  6934  6947       L1     4  0.88
      P1  H  7989  7998       L1    15  1.00

> <Gold.PLP.Chemscore.Internal.Correction>
0.2087

> <Gold.Rescore>
     Score         DG    S(hbond)    S(metal)    S(lipo)     H(rot)  DE(clash)    DE(int)     intcor
      7.73     -11.84       1.34        0.00      60.06       2.01       0.28       3.83       ----

> <Gold.Chemscore.Fitness>
7.7318

> <Gold.Chemscore.DG>
-11.8393

> <Gold.Chemscore.ZeroCoef>
-5.4800

> <Gold.Chemscore.Hbond>
1.3440

> <Gold.Chemscore.Metal>
0.0000

> <Gold.Chemscore.Lipo>
60.0624

> <Gold.Chemscore.Internal_Hbond>
0.0000

> <Gold.Chemscore.DEClash>
0.2751

> <Gold.Chemscore.DEInternal>
3.8325

> <Gold.Chemscore.Rot>
2.0144

> <Gold.Chemscore.Internal.Correction>
   9.000000E+99

> <Gold.Chemscore.Hbonds>
donor molecule, donor type, donor heavy atom, donor atom, acceptor molecule, acceptor atom, score
      P1  H  6934  6947       L1     4  0.17
      P1  H  7989  7998       L1    15  0.26

> <Gold.Chemscore.Hbond.Weighted>
-4.4888

> <Gold.Chemscore.Metal.Weighted>
-0.0000

> <Gold.Chemscore.Lipo.Weighted>
-7.0273

> <Gold.Chemscore.Internal_Hbond.Weighted>
0.0000

> <Gold.Chemscore.DEClash.Weighted>
0.2751

> <Gold.Chemscore.DEInternal.Weighted>
3.8325

> <Gold.Chemscore.Rot.Weighted>
5.1568

> <Gold.Chemscore.Internal.Correction.Weighted>
   9.000000E+99

> <Gold.Protein.RotatedTorsions>
[ 6907 6896 6895 6894 ] final   59.33 input  -60.11 | X-H torsion
[ 7974 7965 7964 7962 ] final -169.75 input  175.53 | X-H torsion
[ 8008 7997 7996 7995 ] final -139.47 input   59.86 | X-H torsion
[ 10167 10162 10161 10158 ] final  133.34 input  -65.29 | X-H torsion
[ 10718 10713 10712 10709 ] final -158.07 input   66.30 | X-H torsion
[ 10763 10752 10751 10750 ] final -117.82 input  -60.55 | X-H torsion
[ 11005 11000 10999 10996 ] final    1.80 input  -57.11 | X-H torsion

> <Gold.Protein.ActiveResidues>
 VAL166  LYS551  ARG553  GLY616  TRP617  ASP618  TYR619  PRO620  LYS621  CYS622 
 ASP623  PHE694  ASN695  SER759  ASP760  ASP761  ALA762  ILE779  LEU786  VAL792 
 PHE793  MET794  SER795  GLU796  ALA797  LYS798  CYS799  TRP800  GLU811  SER814 

> <Gold.Protein.RotatedAtoms>
  152.3905  134.6448  160.0108 H   0  0  0  0  0  0  0  0  0  0  0  0  # atno 6907 bound_to 6896
  151.6684  133.3309  159.3198 H   0  0  0  0  0  0  0  0  0  0  0  0  # atno 6908 bound_to 6896
  150.7822  134.6821  159.6494 H   0  0  0  0  0  0  0  0  0  0  0  0  # atno 6909 bound_to 6896
  144.7180  140.2174  143.6320 H   0  0  0  0  0  0  0  0  0  0  0  0  # atno 7974 bound_to 7965
  155.4454  140.0535  157.3006 H   0  0  0  0  0  0  0  0  0  0  0  0  # atno 8008 bound_to 7997
  154.4800  140.2077  155.9743 H   0  0  0  0  0  0  0  0  0  0  0  0  # atno 8009 bound_to 7997
  156.1191  140.3191  155.8187 H   0  0  0  0  0  0  0  0  0  0  0  0  # atno 8010 bound_to 7997
  139.5301  144.6620  151.4982 H   0  0  0  0  0  0  0  0  0  0  0  0  # atno 10167 bound_to 10162
  156.5491  130.8597  151.2774 H   0  0  0  0  0  0  0  0  0  0  0  0  # atno 10718 bound_to 10713
  154.8567  135.4296  154.2040 H   0  0  0  0  0  0  0  0  0  0  0  0  # atno 10763 bound_to 10752
  153.3080  135.6973  153.7147 H   0  0  0  0  0  0  0  0  0  0  0  0  # atno 10764 bound_to 10752
  153.6251  135.3495  155.2998 H   0  0  0  0  0  0  0  0  0  0  0  0  # atno 10765 bound_to 10752
  140.6114  133.9745  155.8179 H   0  0  0  0  0  0  0  0  0  0  0  0  # atno 11005 bound_to 11000
  145.8533  139.2186  143.1759 LP  0  0  0  0  0  0  0  0  0  0  0  0  # atno 17320 bound_to 7965
  146.0240  140.8321  142.9909 LP  0  0  0  0  0  0  0  0  0  0  0  0  # atno 17321 bound_to 7965
  140.6473  143.8769  150.6750 LP  0  0  0  0  0  0  0  0  0  0  0  0  # atno 17342 bound_to 10162
  140.2122  143.3874  152.1709 LP  0  0  0  0  0  0  0  0  0  0  0  0  # atno 17343 bound_to 10162
  157.7391  130.9825  150.2292 LP  0  0  0  0  0  0  0  0  0  0  0  0  # atno 17370 bound_to 10713
  156.2901  130.3744  149.7850 LP  0  0  0  0  0  0  0  0  0  0  0  0  # atno 17371 bound_to 10713
  141.0805  134.0069  157.3393 LP  0  0  0  0  0  0  0  0  0  0  0  0  # atno 17394 bound_to 11000
  139.9191  135.0199  156.7994 LP  0  0  0  0  0  0  0  0  0  0  0  0  # atno 17395 bound_to 11000

$$$$
