AV-unprocessed.smi:972|AV-procd|sdf|4296|dock3
  -GOLD-   22720 2203D 1   1.00000     0.00000
 Structure written by MMmdl.
 51 53  0  0  0  0  0  0  0  0  2 V2000
  143.5023  133.8940  152.2718 C   0  0  0  0  0  0  0  0  0  0  0  0
  145.0375  134.0789  152.2182 C   0  0  0  0  0  0  0  0  0  0  0  0
  145.6372  132.9084  153.0327 C   0  0  0  0  0  0  0  0  0  0  0  0
  145.5164  133.9896  150.7578 C   0  0  0  0  0  0  0  0  0  0  0  0
  145.4535  135.4363  152.8117 C   0  0  0  0  0  0  0  0  0  0  0  0
  144.9975  136.5361  152.1981 N   0  0  0  0  0  0  0  0  0  0  0  0
  145.4549  137.7327  152.6242 C   0  0  0  0  0  0  0  0  0  0  0  0
  146.4158  137.8350  153.6591 C   0  0  0  0  0  0  0  0  0  0  0  0
  146.9449  139.0471  154.1813 N   0  0  0  0  0  0  0  0  0  0  0  0
  147.8533  139.2202  155.1565 C   0  0  0  0  0  0  0  0  0  0  0  0
  148.3810  138.3215  155.8105 O   0  0  0  0  0  0  0  0  0  0  0  0
  148.1153  140.5212  155.3490 N   0  0  0  0  0  0  0  0  0  0  0  0
  149.0625  141.0512  156.3264 C   0  0  2  0  0  0  0  0  0  0  0  0
  148.3524  141.9546  157.3524 C   0  0  0  0  0  0  0  0  0  0  0  0
  149.3618  142.5924  158.3219 C   0  0  0  0  0  0  0  0  0  0  0  0
  150.4034  143.3511  157.5861 N   0  3  1  0  0  0  0  0  0  0  0  0
  151.3228  144.0648  158.4989 C   0  0  0  0  0  0  0  0  0  0  0  0
  152.6291  144.4677  157.8551 C   0  0  0  0  0  0  0  0  0  0  0  0
  152.5858  143.2965  158.8114 C   0  0  0  0  0  0  0  0  0  0  0  0
  151.1310  142.4904  156.6202 C   0  0  0  0  0  0  0  0  0  0  0  0
  150.1625  141.8521  155.6098 C   0  0  0  0  0  0  0  0  0  0  0  0
  146.8510  136.6128  154.2099 C   0  0  0  0  0  0  0  0  0  0  0  0
  146.3852  135.4239  153.7739 N   0  0  0  0  0  0  0  0  0  0  0  0
  143.2072  132.9142  151.8950 H   0  0  0  0  0  0  0  0  0  0  0  0
  142.9796  134.6338  151.6646 H   0  0  0  0  0  0  0  0  0  0  0  0
  143.1269  133.9788  153.2922 H   0  0  0  0  0  0  0  0  0  0  0  0
  145.3386  132.9593  154.0805 H   0  0  0  0  0  0  0  0  0  0  0  0
  146.7273  132.9031  152.9990 H   0  0  0  0  0  0  0  0  0  0  0  0
  145.3071  131.9441  152.6447 H   0  0  0  0  0  0  0  0  0  0  0  0
  145.2385  133.0373  150.3050 H   0  0  0  0  0  0  0  0  0  0  0  0
  146.6011  134.0818  150.6905 H   0  0  0  0  0  0  0  0  0  0  0  0
  145.0810  134.7830  150.1493 H   0  0  0  0  0  0  0  0  0  0  0  0
  145.0307  138.5897  152.1263 H   0  0  0  0  0  0  0  0  0  0  0  0
  146.5678  139.8902  153.7733 H   0  0  0  0  0  0  0  0  0  0  0  0
  147.6331  141.1923  154.7691 H   0  0  0  0  0  0  0  0  0  0  0  0
  149.5338  140.2178  156.8514 H   0  0  0  0  0  0  0  0  0  0  0  0
  147.7991  142.7404  156.8358 H   0  0  0  0  0  0  0  0  0  0  0  0
  147.6175  141.3807  157.9181 H   0  0  0  0  0  0  0  0  0  0  0  0
  148.8361  143.2603  159.0055 H   0  0  0  0  0  0  0  0  0  0  0  0
  149.8345  141.8222  158.9335 H   0  0  0  0  0  0  0  0  0  0  0  0
  150.8606  144.7003  159.2523 H   0  0  0  0  0  0  0  0  0  0  0  0
  152.7735  144.2484  156.7986 H   0  0  0  0  0  0  0  0  0  0  0  0
  153.1019  145.3818  158.2084 H   0  0  0  0  0  0  0  0  0  0  0  0
  153.0306  143.4394  159.7941 H   0  0  0  0  0  0  0  0  0  0  0  0
  152.7027  142.2999  158.3890 H   0  0  0  0  0  0  0  0  0  0  0  0
  151.8735  143.0853  156.0868 H   0  0  0  0  0  0  0  0  0  0  0  0
  151.6760  141.7145  157.1604 H   0  0  0  0  0  0  0  0  0  0  0  0
  150.7155  141.2031  154.9292 H   0  0  0  0  0  0  0  0  0  0  0  0
  149.7135  142.6345  154.9956 H   0  0  0  0  0  0  0  0  0  0  0  0
  147.5849  136.5850  155.0020 H   0  0  0  0  0  0  0  0  0  0  0  0
  149.9247  144.0580  157.0462 H   0  0  0  0  0  0  0  0  0  0  0  0
  1  2  1  0  0  0  0
  1 24  1  0  0  0  0
  1 25  1  0  0  0  0
  1 26  1  0  0  0  0
  2  3  1  0  0  0  0
  2  4  1  0  0  0  0
  2  5  1  0  0  0  0
  3 27  1  0  0  0  0
  3 28  1  0  0  0  0
  3 29  1  0  0  0  0
  4 30  1  0  0  0  0
  4 31  1  0  0  0  0
  4 32  1  0  0  0  0
  5 23  1  0  0  0  0
  5  6  2  0  0  0  0
  6  7  1  0  0  0  0
  7  8  2  0  0  0  0
  7 33  1  0  0  0  0
  8  9  1  0  0  0  0
  8 22  1  0  0  0  0
  9 10  1  0  0  0  0
  9 34  1  0  0  0  0
 10 11  2  0  0  0  0
 10 12  1  0  0  0  0
 12 13  1  0  0  0  0
 12 35  1  0  0  0  0
 13 21  1  0  0  0  0
 13 14  1  0  0  0  0
 13 36  1  0  0  0  0
 14 15  1  0  0  0  0
 14 37  1  0  0  0  0
 14 38  1  0  0  0  0
 15 16  1  0  0  0  0
 15 39  1  0  0  0  0
 15 40  1  0  0  0  0
 16 17  1  0  0  0  0
 16 20  1  0  0  0  0
 16 51  1  0  0  0  0
 17 19  1  0  0  0  0
 17 18  1  0  0  0  0
 17 41  1  0  0  0  0
 18 19  1  0  0  0  0
 18 42  1  0  0  0  0
 18 43  1  0  0  0  0
 19 44  1  0  0  0  0
 19 45  1  0  0  0  0
 20 21  1  0  0  0  0
 20 46  1  0  0  0  0
 20 47  1  0  0  0  0
 21 48  1  0  0  0  0
 21 49  1  0  0  0  0
 22 23  2  0  0  0  0
 22 50  1  0  0  0  0
M  CHG  1  16   1
M  END
> <s_m_source_file>
AV-unprocessed.smi

> <i_m_source_file_index>
972

> <i_lp_mmshare_version>
43012

> <i_f3d_flags>
0

> <s_epik_input>
W0NIM11DKFtDSDNdKShbQ0gzXSljMW5bY0hdYyhbY0hdbjEpW05IXUMoPU8pW05IXVtDSF0yW0NIMl1bQ0gyXU4oW0NIMl1bQ0gyXTIpW0NIXTNbQ0gyXVtDSDJdMw==

> <s_epik_cmdline>
J2VwaWtfcHl0aG9uJywgJy1waCcsICc3LjAnLCAnLXRuJywgJzgnLCAnLW1hJywgJzIwMCcsICctbWV0YWxfYmluZGluZycsICctaW1hZScsICc8aW5maWxlLm1hZT4nLCAnLW9tYWUnLCAnPG91dGZpbGUubWFlPic=

> <r_lp_tautomer_probability>
1

> <r_epik_Ionization_Penalty>
0.123264

> <r_epik_Ionization_Penalty_Charging>
0.123242

> <r_epik_Ionization_Penalty_Neutral>
2.24743e-05

> <r_epik_State_Penalty>
0.112739

> <r_epik_Charging_Adjusted_Penalty>
0.235981

> <i_epik_Tot_Q>
1

> <i_epik_Tot_abs_Q>
1

> <r_epik_Metal_State_Penalty>
0.112739

> <b_epik_Metal_Only>
0

> <s_lp_Force_Field>
OPLS_2005

> <r_lp_Energy>
25.9284

> <b_lp_Chiralities_Consistent>
1

> <s_lp_Variant>
AV-unprocessed.smi:972-1

> <Gold.Version>
5.8.1

> <Gold.Id.Protein>
6NUR|6NUR_protein|mol2

> <Gold.PLP.Fitness>
42.9581

> <Gold.PLP.PLP>
-31.1430

> <Gold.PLP.part.hbond>
-1.0000

> <Gold.PLP.part.metal>
0.0000

> <Gold.PLP.part.buried>
-3.6095

> <Gold.PLP.part.nonpolar>
-27.4147

> <Gold.PLP.part.repulsive>
0.3583

> <Gold.PLP.ligand.clash>
0.0000

> <Gold.PLP.ligand.torsion>
0.7336

> <Gold.PLP.Chemscore.Hbond>
2.0000

> <Gold.PLP.Chemscore.CHOScore>
1.9617

> <Gold.PLP.Chemscore.Metal>
0.0000

> <Gold.Chemscore.Hbonds>
donor molecule, donor type, donor heavy atom, donor atom, acceptor molecule, acceptor atom, score
      L1  H    16    51       P1  8028  2.00
      L1  C     7    33       P1 10171  0.82
      L1  C     7    33       P1 10175  1.00

> <Gold.PLP.Chemscore.Internal.Correction>
1.3973

> <Gold.Rescore>
     Score         DG    S(hbond)    S(metal)    S(lipo)     H(rot)  DE(clash)    DE(int)     intcor
     14.14     -16.60       0.92        0.00      97.67       1.32       0.05       2.42       ----

> <Gold.Chemscore.Fitness>
14.1365

> <Gold.Chemscore.DG>
-16.6014

> <Gold.Chemscore.ZeroCoef>
-5.4800

> <Gold.Chemscore.Hbond>
0.9205

> <Gold.Chemscore.Metal>
0.0000

> <Gold.Chemscore.Lipo>
97.6723

> <Gold.Chemscore.Internal_Hbond>
0.0000

> <Gold.Chemscore.DEClash>
0.0485

> <Gold.Chemscore.DEInternal>
2.4164

> <Gold.Chemscore.Rot>
1.3207

> <Gold.Chemscore.Internal.Correction>
   9.000000E+99

> <Gold.Chemscore.Hbonds>
donor molecule, donor type, donor heavy atom, donor atom, acceptor molecule, acceptor atom, score
      L1  H    16    51       P1  8028  0.85

> <Gold.Chemscore.Hbond.Weighted>
-3.0746

> <Gold.Chemscore.Metal.Weighted>
-0.0000

> <Gold.Chemscore.Lipo.Weighted>
-11.4277

> <Gold.Chemscore.Internal_Hbond.Weighted>
0.0000

> <Gold.Chemscore.DEClash.Weighted>
0.0485

> <Gold.Chemscore.DEInternal.Weighted>
2.4164

> <Gold.Chemscore.Rot.Weighted>
3.3809

> <Gold.Chemscore.Internal.Correction.Weighted>
   9.000000E+99

> <Gold.Protein.RotatedTorsions>
[ 6907 6896 6895 6894 ] final -173.11 input  -60.11 | X-H torsion
[ 7974 7965 7964 7962 ] final  -75.68 input  175.53 | X-H torsion
[ 8008 7997 7996 7995 ] final -162.82 input   59.86 | X-H torsion
[ 10167 10162 10161 10158 ] final  -80.00 input  -65.29 | X-H torsion
[ 10718 10713 10712 10709 ] final  -10.15 input   66.30 | X-H torsion
[ 10763 10752 10751 10750 ] final  179.71 input  -60.55 | X-H torsion
[ 11005 11000 10999 10996 ] final  -66.60 input  -57.11 | X-H torsion

> <Gold.Protein.ActiveResidues>
 VAL166  LYS551  ARG553  GLY616  TRP617  ASP618  TYR619  PRO620  LYS621  CYS622 
 ASP623  PHE694  ASN695  SER759  ASP760  ASP761  ALA762  ILE779  LEU786  VAL792 
 PHE793  MET794  SER795  GLU796  ALA797  LYS798  CYS799  TRP800  GLU811  SER814 

> <Gold.Protein.RotatedAtoms>
  151.5508  133.3418  159.2952 H   0  0  0  0  0  0  0  0  0  0  0  0  # atno 6907 bound_to 6896
  150.8480  134.7798  159.6997 H   0  0  0  0  0  0  0  0  0  0  0  0  # atno 6908 bound_to 6896
  152.4533  134.5355  159.9875 H   0  0  0  0  0  0  0  0  0  0  0  0  # atno 6909 bound_to 6896
  145.6228  140.9358  143.1129 H   0  0  0  0  0  0  0  0  0  0  0  0  # atno 7974 bound_to 7965
  155.8123  140.0907  157.1897 H   0  0  0  0  0  0  0  0  0  0  0  0  # atno 8008 bound_to 7997
  154.3980  140.1452  156.3461 H   0  0  0  0  0  0  0  0  0  0  0  0  # atno 8009 bound_to 7997
  155.8352  140.3441  155.5600 H   0  0  0  0  0  0  0  0  0  0  0  0  # atno 8010 bound_to 7997
  140.4543  143.2473  151.8443 H   0  0  0  0  0  0  0  0  0  0  0  0  # atno 10167 bound_to 10162
  156.6777  130.5028  149.5981 H   0  0  0  0  0  0  0  0  0  0  0  0  # atno 10718 bound_to 10713
  154.5242  135.2796  155.1236 H   0  0  0  0  0  0  0  0  0  0  0  0  # atno 10763 bound_to 10752
  154.2781  135.6290  153.5340 H   0  0  0  0  0  0  0  0  0  0  0  0  # atno 10764 bound_to 10752
  152.9943  135.5644  154.5739 H   0  0  0  0  0  0  0  0  0  0  0  0  # atno 10765 bound_to 10752
  141.1486  133.6702  156.6164 H   0  0  0  0  0  0  0  0  0  0  0  0  # atno 11005 bound_to 11000
  144.7224  139.7985  143.7377 LP  0  0  0  0  0  0  0  0  0  0  0  0  # atno 17320 bound_to 7965
  146.1418  139.4477  143.0104 LP  0  0  0  0  0  0  0  0  0  0  0  0  # atno 17321 bound_to 7965
  139.4799  144.5084  151.8966 LP  0  0  0  0  0  0  0  0  0  0  0  0  # atno 17342 bound_to 10162
  140.4170  144.2293  150.5887 LP  0  0  0  0  0  0  0  0  0  0  0  0  # atno 17343 bound_to 10162
  156.1891  130.6548  151.1041 LP  0  0  0  0  0  0  0  0  0  0  0  0  # atno 17370 bound_to 10713
  157.7055  131.0758  150.6681 LP  0  0  0  0  0  0  0  0  0  0  0  0  # atno 17371 bound_to 10713
  140.3574  134.7717  157.4510 LP  0  0  0  0  0  0  0  0  0  0  0  0  # atno 17394 bound_to 11000
  140.0812  134.5728  155.8539 LP  0  0  0  0  0  0  0  0  0  0  0  0  # atno 17395 bound_to 11000

$$$$
