AV-unprocessed.smi:373|AV-procd|sdf|2450|dock1
  -GOLD-   2262022393D 1   1.00000     0.00000
 Structure written by MMmdl.
 40 41  0  0  0  0  0  0  0  0  1 V2000
  152.4929  144.9696  158.5408 C   0  0  0  0  0  0  0  0  0  0  0  0
  152.0000  143.5187  158.6011 C   0  0  0  0  0  0  0  0  0  0  0  0
  150.4818  143.4088  158.7911 C   0  0  0  0  0  0  0  0  0  0  0  0
  150.0812  142.0634  158.5724 O   0  0  0  0  0  0  0  0  0  0  0  0
  150.2923  141.5911  157.2485 C   0  0  1  0  0  0  0  0  0  0  0  0
  151.6402  140.8495  157.2329 C   0  0  0  0  0  0  0  0  0  0  0  0
  151.8945  140.2250  155.8521 C   0  0  0  0  0  0  0  0  0  0  0  0
  150.7231  139.3210  155.4353 C   0  0  0  0  0  0  0  0  0  0  0  0
  149.4585  140.0496  155.5007 N   0  0  0  0  0  0  0  0  0  0  0  0
  148.4020  139.3809  154.8556 C   0  0  0  0  0  0  0  0  0  0  0  0
  148.2904  138.0442  155.0493 N   0  0  0  0  0  0  0  0  0  0  0  0
  147.3007  137.3763  154.4206 C   0  0  0  0  0  0  0  0  0  0  0  0
  146.3698  137.9945  153.5563 C   0  0  0  0  0  0  0  0  0  0  0  0
  145.2688  137.2184  152.8935 C   0  0  0  0  0  0  0  0  0  0  0  0
  144.2929  137.9388  152.3322 N   0  0  0  0  0  0  0  0  0  0  0  0
  145.2482  135.9893  152.9207 O   0  0  0  0  0  0  0  0  0  0  0  0
  146.4774  139.3888  153.3696 C   0  0  0  0  0  0  0  0  0  0  0  0
  147.5072  140.0956  154.0208 C   0  0  0  0  0  0  0  0  0  0  0  0
  147.6301  141.8070  153.8018 Cl  0  0  0  0  0  0  0  0  0  0  0  0
  149.1576  140.6437  156.8031 C   0  0  0  0  0  0  0  0  0  0  0  0
  153.5723  145.0058  158.3924 H   0  0  0  0  0  0  0  0  0  0  0  0
  152.2672  145.5027  159.4647 H   0  0  0  0  0  0  0  0  0  0  0  0
  152.0252  145.5110  157.7182 H   0  0  0  0  0  0  0  0  0  0  0  0
  152.2812  143.0115  157.6778 H   0  0  0  0  0  0  0  0  0  0  0  0
  152.5094  142.9907  159.4080 H   0  0  0  0  0  0  0  0  0  0  0  0
  150.2060  143.7431  159.7914 H   0  0  0  0  0  0  0  0  0  0  0  0
  149.9799  144.0640  158.0777 H   0  0  0  0  0  0  0  0  0  0  0  0
  150.3585  142.4363  156.5608 H   0  0  0  0  0  0  0  0  0  0  0  0
  152.4496  141.5335  157.4901 H   0  0  0  0  0  0  0  0  0  0  0  0
  151.6393  140.0664  157.9925 H   0  0  0  0  0  0  0  0  0  0  0  0
  152.0262  141.0151  155.1117 H   0  0  0  0  0  0  0  0  0  0  0  0
  152.8222  139.6525  155.8642 H   0  0  0  0  0  0  0  0  0  0  0  0
  150.8953  138.9358  154.4300 H   0  0  0  0  0  0  0  0  0  0  0  0
  150.6663  138.4561  156.0977 H   0  0  0  0  0  0  0  0  0  0  0  0
  147.2580  136.3155  154.6215 H   0  0  0  0  0  0  0  0  0  0  0  0
  143.5261  137.4769  151.8655 H   0  0  0  0  0  0  0  0  0  0  0  0
  144.3301  138.9472  152.3728 H   0  0  0  0  0  0  0  0  0  0  0  0
  145.7820  139.9170  152.7331 H   0  0  0  0  0  0  0  0  0  0  0  0
  149.0274  139.8518  157.5423 H   0  0  0  0  0  0  0  0  0  0  0  0
  148.2130  141.1840  156.7385 H   0  0  0  0  0  0  0  0  0  0  0  0
  1  2  1  0  0  0  0
  1 21  1  0  0  0  0
  1 22  1  0  0  0  0
  1 23  1  0  0  0  0
  2  3  1  0  0  0  0
  2 24  1  0  0  0  0
  2 25  1  0  0  0  0
  3  4  1  0  0  0  0
  3 26  1  0  0  0  0
  3 27  1  0  0  0  0
  4  5  1  0  0  0  0
  5 20  1  0  0  0  0
  5  6  1  0  0  0  0
  5 28  1  0  0  0  0
  6  7  1  0  0  0  0
  6 29  1  0  0  0  0
  6 30  1  0  0  0  0
  7  8  1  0  0  0  0
  7 31  1  0  0  0  0
  7 32  1  0  0  0  0
  8  9  1  0  0  0  0
  8 33  1  0  0  0  0
  8 34  1  0  0  0  0
  9 10  1  0  0  0  0
  9 20  1  0  0  0  0
 10 18  1  0  0  0  0
 10 11  2  0  0  0  0
 11 12  1  0  0  0  0
 12 13  2  0  0  0  0
 12 35  1  0  0  0  0
 13 14  1  0  0  0  0
 13 17  1  0  0  0  0
 14 15  1  0  0  0  0
 14 16  2  0  0  0  0
 15 36  1  0  0  0  0
 15 37  1  0  0  0  0
 17 18  2  0  0  0  0
 17 38  1  0  0  0  0
 18 19  1  0  0  0  0
 20 39  1  0  0  0  0
 20 40  1  0  0  0  0
M  END
> <s_m_source_file>
AV-unprocessed.smi

> <i_m_source_file_index>
373

> <i_lp_mmshare_version>
43012

> <i_f3d_flags>
0

> <s_epik_input>
W0NIM11bQ0gyXVtDSDJdT1tDQEBIXTFbQ0gyXVtDSDJdW0NIMl1OKFtDSDJdMSljMm5bY0hdYyhDKD1PKVtOSDJdKVtjSF1jMkNs

> <s_epik_cmdline>
J2VwaWtfcHl0aG9uJywgJy1waCcsICc3LjAnLCAnLXRuJywgJzgnLCAnLW1hJywgJzIwMCcsICctbWV0YWxfYmluZGluZycsICctaW1hZScsICc8aW5maWxlLm1hZT4nLCAnLW9tYWUnLCAnPG91dGZpbGUubWFlPic=

> <r_lp_tautomer_probability>
1

> <r_epik_Ionization_Penalty>
3.23666e-05

> <r_epik_Ionization_Penalty_Charging>
0

> <r_epik_Ionization_Penalty_Neutral>
3.23666e-05

> <r_epik_State_Penalty>
-0

> <r_epik_Charging_Adjusted_Penalty>
0

> <i_epik_Tot_Q>
0

> <i_epik_Tot_abs_Q>
0

> <r_epik_Metal_State_Penalty>
-0

> <b_epik_Metal_Only>
0

> <s_lp_Force_Field>
OPLS_2005

> <r_lp_Energy>
19.6268

> <b_lp_Chiralities_Consistent>
1

> <s_lp_Variant>
AV-unprocessed.smi:373-2

> <Gold.Version>
5.8.1

> <Gold.Id.Protein>
6NUR|6NUR_protein|mol2

> <Gold.PLP.Fitness>
31.1879

> <Gold.PLP.PLP>
-30.2415

> <Gold.PLP.part.hbond>
-2.0884

> <Gold.PLP.part.metal>
0.0000

> <Gold.PLP.part.buried>
-4.3874

> <Gold.PLP.part.nonpolar>
-23.7652

> <Gold.PLP.part.repulsive>
0.3388

> <Gold.PLP.ligand.clash>
0.0000

> <Gold.PLP.ligand.torsion>
1.1720

> <Gold.PLP.Chemscore.Hbond>
1.0000

> <Gold.PLP.Chemscore.CHOScore>
0.0000

> <Gold.PLP.Chemscore.Metal>
0.0000

> <Gold.Chemscore.Hbonds>
donor molecule, donor type, donor heavy atom, donor atom, acceptor molecule, acceptor atom, score
      L1  H    15    37       P1 10175  1.00

> <Gold.PLP.Chemscore.Internal.Correction>
0.2904

> <Gold.Rescore>
     Score         DG    S(hbond)    S(metal)    S(lipo)     H(rot)  DE(clash)    DE(int)     intcor
     14.09     -15.47       0.97        0.00      92.08       1.57       0.13       1.25       ----

> <Gold.Chemscore.Fitness>
14.0910

> <Gold.Chemscore.DG>
-15.4729

> <Gold.Chemscore.ZeroCoef>
-5.4800

> <Gold.Chemscore.Hbond>
0.9688

> <Gold.Chemscore.Metal>
0.0000

> <Gold.Chemscore.Lipo>
92.0755

> <Gold.Chemscore.Internal_Hbond>
0.0000

> <Gold.Chemscore.DEClash>
0.1324

> <Gold.Chemscore.DEInternal>
1.2495

> <Gold.Chemscore.Rot>
1.5687

> <Gold.Chemscore.Internal.Correction>
   9.000000E+99

> <Gold.Chemscore.Hbonds>
donor molecule, donor type, donor heavy atom, donor atom, acceptor molecule, acceptor atom, score
      L1  H    15    37       P1 10175  0.97

> <Gold.Chemscore.Hbond.Weighted>
-3.2358

> <Gold.Chemscore.Metal.Weighted>
-0.0000

> <Gold.Chemscore.Lipo.Weighted>
-10.7728

> <Gold.Chemscore.Internal_Hbond.Weighted>
0.0000

> <Gold.Chemscore.DEClash.Weighted>
0.1324

> <Gold.Chemscore.DEInternal.Weighted>
1.2495

> <Gold.Chemscore.Rot.Weighted>
4.0158

> <Gold.Chemscore.Internal.Correction.Weighted>
   9.000000E+99

> <Gold.Protein.RotatedTorsions>
[ 6907 6896 6895 6894 ] final   -3.04 input  -60.11 | X-H torsion
[ 7974 7965 7964 7962 ] final   33.78 input  175.53 | X-H torsion
[ 8008 7997 7996 7995 ] final  137.65 input   59.86 | X-H torsion
[ 10167 10162 10161 10158 ] final  -21.28 input  -65.29 | X-H torsion
[ 10718 10713 10712 10709 ] final  118.36 input   66.30 | X-H torsion
[ 10763 10752 10751 10750 ] final   57.45 input  -60.55 | X-H torsion
[ 11005 11000 10999 10996 ] final -116.39 input  -57.11 | X-H torsion

> <Gold.Protein.ActiveResidues>
 VAL166  LYS551  ARG553  GLY616  TRP617  ASP618  TYR619  PRO620  LYS621  CYS622 
 ASP623  PHE694  ASN695  SER759  ASP760  ASP761  ALA762  ILE779  LEU786  VAL792 
 PHE793  MET794  SER795  GLU796  ALA797  LYS798  CYS799  TRP800  GLU811  SER814 

> <Gold.Protein.RotatedAtoms>
  151.5202  135.1067  159.9876 H   0  0  0  0  0  0  0  0  0  0  0  0  # atno 6907 bound_to 6896
  152.4624  133.7846  159.6879 H   0  0  0  0  0  0  0  0  0  0  0  0  # atno 6908 bound_to 6896
  150.8592  133.7605  159.3023 H   0  0  0  0  0  0  0  0  0  0  0  0  # atno 6909 bound_to 6896
  146.1397  139.6353  142.9171 H   0  0  0  0  0  0  0  0  0  0  0  0  # atno 7974 bound_to 7965
  156.3001  140.2414  156.3944 H   0  0  0  0  0  0  0  0  0  0  0  0  # atno 8008 bound_to 7997
  154.8584  140.0421  157.1669 H   0  0  0  0  0  0  0  0  0  0  0  0  # atno 8009 bound_to 7997
  154.8922  140.2965  155.5368 H   0  0  0  0  0  0  0  0  0  0  0  0  # atno 8010 bound_to 7997
  140.7281  143.4643  151.0336 H   0  0  0  0  0  0  0  0  0  0  0  0  # atno 10167 bound_to 10162
  157.6035  131.1047  150.7745 H   0  0  0  0  0  0  0  0  0  0  0  0  # atno 10718 bound_to 10713
  152.9850  135.5641  154.5393 H   0  0  0  0  0  0  0  0  0  0  0  0  # atno 10763 bound_to 10752
  154.4851  135.2790  155.1543 H   0  0  0  0  0  0  0  0  0  0  0  0  # atno 10764 bound_to 10752
  154.3035  135.6302  153.5488 H   0  0  0  0  0  0  0  0  0  0  0  0  # atno 10765 bound_to 10752
  141.0425  133.9813  157.2971 H   0  0  0  0  0  0  0  0  0  0  0  0  # atno 11005 bound_to 11000
  145.5074  141.0436  143.2507 LP  0  0  0  0  0  0  0  0  0  0  0  0  # atno 17320 bound_to 7965
  144.7779  139.6590  143.7167 LP  0  0  0  0  0  0  0  0  0  0  0  0  # atno 17321 bound_to 7965
  139.8330  143.7666  152.3180 LP  0  0  0  0  0  0  0  0  0  0  0  0  # atno 17342 bound_to 10162
  139.7788  144.7452  151.0118 LP  0  0  0  0  0  0  0  0  0  0  0  0  # atno 17343 bound_to 10162
  156.8139  130.4961  149.5352 LP  0  0  0  0  0  0  0  0  0  0  0  0  # atno 17370 bound_to 10713
  156.1115  130.6043  151.0054 LP  0  0  0  0  0  0  0  0  0  0  0  0  # atno 17371 bound_to 10713
  139.9287  135.0201  156.8324 LP  0  0  0  0  0  0  0  0  0  0  0  0  # atno 17394 bound_to 11000
  140.6208  133.9996  155.7617 LP  0  0  0  0  0  0  0  0  0  0  0  0  # atno 17395 bound_to 11000

$$$$
