AV-unprocessed.smi:3156|AV-procd|sdf|12036|dock4
  -GOLD-   2272017453D 1   1.00000     0.00000
 Structure written by MMmdl.
 41 42  0  0  0  0  0  0  0  0  2 V2000
  149.4948  142.1570  158.3327 C   0  0  0  0  0  0  0  0  0  0  0  0
  150.7717  142.1762  157.4767 C   0  0  1  0  0  0  0  0  0  0  0  0
  150.3989  142.5086  156.0818 N   0  3  0  0  0  0  0  0  0  0  0  0
  149.5743  141.4922  155.3956 C   0  0  0  0  0  0  0  0  0  0  0  0
  150.1985  140.0938  155.5073 C   0  0  1  0  0  0  0  0  0  0  0  0
  149.6104  139.1028  154.4801 C   0  0  0  0  0  0  0  0  0  0  0  0
  150.3388  137.7561  154.5479 C   0  0  0  0  0  0  0  0  0  0  0  0
  151.8478  137.9796  154.4105 C   0  0  0  0  0  0  0  0  0  0  0  0
  152.3273  139.0206  155.4337 C   0  0  0  0  0  0  0  0  0  0  0  0
  151.5973  140.2329  155.2706 O   0  0  0  0  0  0  0  0  0  0  0  0
  151.8341  143.1797  158.0035 C   0  0  1  0  0  0  0  0  0  0  0  0
  151.3090  144.6246  158.1111 C   0  0  0  0  0  0  0  0  0  0  0  0
  152.3816  142.7544  159.2874 N   0  0  0  0  0  0  0  0  0  0  0  0
  153.0773  141.5984  159.5783 C   0  0  0  0  0  0  0  0  0  0  0  0
  153.3713  141.6225  160.9113 C   0  0  0  0  0  0  0  0  0  0  0  0
  152.8103  142.8504  161.3596 C   0  0  0  0  0  0  0  0  0  0  0  0
  152.2168  143.5233  160.3875 N   0  0  0  0  0  0  0  0  0  0  0  0
  149.6926  141.8051  159.3448 H   0  0  0  0  0  0  0  0  0  0  0  0
  148.7490  141.4856  157.9057 H   0  0  0  0  0  0  0  0  0  0  0  0
  149.0472  143.1489  158.4035 H   0  0  0  0  0  0  0  0  0  0  0  0
  151.1941  141.1699  157.5036 H   0  0  0  0  0  0  0  0  0  0  0  0
  149.8904  143.3812  156.0827 H   0  0  0  0  0  0  0  0  0  0  0  0
  148.5657  141.4783  155.8098 H   0  0  0  0  0  0  0  0  0  0  0  0
  149.4828  141.7774  154.3468 H   0  0  0  0  0  0  0  0  0  0  0  0
  150.0504  139.7157  156.5207 H   0  0  0  0  0  0  0  0  0  0  0  0
  148.5446  138.9542  154.6553 H   0  0  0  0  0  0  0  0  0  0  0  0
  149.7052  139.5156  153.4746 H   0  0  0  0  0  0  0  0  0  0  0  0
  150.1241  137.2676  155.4993 H   0  0  0  0  0  0  0  0  0  0  0  0
  149.9800  137.0887  153.7639 H   0  0  0  0  0  0  0  0  0  0  0  0
  152.3837  137.0399  154.5471 H   0  0  0  0  0  0  0  0  0  0  0  0
  152.0774  138.3274  153.4025 H   0  0  0  0  0  0  0  0  0  0  0  0
  152.2113  138.6476  156.4524 H   0  0  0  0  0  0  0  0  0  0  0  0
  153.3879  139.2265  155.2887 H   0  0  0  0  0  0  0  0  0  0  0  0
  152.6653  143.1909  157.2969 H   0  0  0  0  0  0  0  0  0  0  0  0
  151.0654  145.0395  157.1335 H   0  0  0  0  0  0  0  0  0  0  0  0
  152.0598  145.2794  158.5548 H   0  0  0  0  0  0  0  0  0  0  0  0
  150.4135  144.6814  158.7306 H   0  0  0  0  0  0  0  0  0  0  0  0
  153.3009  140.8600  158.8222 H   0  0  0  0  0  0  0  0  0  0  0  0
  153.9076  140.8774  161.4801 H   0  0  0  0  0  0  0  0  0  0  0  0
  152.8146  143.2690  162.3552 H   0  0  0  0  0  0  0  0  0  0  0  0
  151.2511  142.6354  155.5549 H   0  0  0  0  0  0  0  0  0  0  0  0
  1  2  1  0  0  0  0
  1 18  1  0  0  0  0
  1 19  1  0  0  0  0
  1 20  1  0  0  0  0
  2  3  1  0  0  0  0
  2 11  1  0  0  0  0
  2 21  1  0  0  0  0
  3  4  1  0  0  0  0
  3 22  1  0  0  0  0
  3 41  1  0  0  0  0
  4  5  1  0  0  0  0
  4 23  1  0  0  0  0
  4 24  1  0  0  0  0
  5 10  1  0  0  0  0
  5  6  1  0  0  0  0
  5 25  1  0  0  0  0
  6  7  1  0  0  0  0
  6 26  1  0  0  0  0
  6 27  1  0  0  0  0
  7  8  1  0  0  0  0
  7 28  1  0  0  0  0
  7 29  1  0  0  0  0
  8  9  1  0  0  0  0
  8 30  1  0  0  0  0
  8 31  1  0  0  0  0
  9 10  1  0  0  0  0
  9 32  1  0  0  0  0
  9 33  1  0  0  0  0
 11 12  1  0  0  0  0
 11 13  1  0  0  0  0
 11 34  1  0  0  0  0
 12 35  1  0  0  0  0
 12 36  1  0  0  0  0
 12 37  1  0  0  0  0
 13 17  1  0  0  0  0
 13 14  1  0  0  0  0
 14 15  2  0  0  0  0
 14 38  1  0  0  0  0
 15 16  1  0  0  0  0
 15 39  1  0  0  0  0
 16 17  2  0  0  0  0
 16 40  1  0  0  0  0
M  CHG  1   3   1
M  END
> <s_m_source_file>
AV-unprocessed.smi

> <i_m_source_file_index>
3156

> <i_lp_mmshare_version>
43012

> <i_f3d_flags>
0

> <s_epik_input>
bjFbY0hdW2NIXVtjSF1uMVtDQEBIXShbQ0gzXSlbQ0BIXShbQ0gzXSlbTkhdW0NIMl1bQ0BASF0yW0NIMl1bQ0gyXVtDSDJdW0NIMl1PMg==

> <s_epik_cmdline>
J2VwaWtfcHl0aG9uJywgJy1waCcsICc3LjAnLCAnLXRuJywgJzgnLCAnLW1hJywgJzIwMCcsICctbWV0YWxfYmluZGluZycsICctaW1hZScsICc8aW5maWxlLm1hZT4nLCAnLW9tYWUnLCAnPG91dGZpbGUubWFlPic=

> <r_lp_tautomer_probability>
1

> <r_epik_Ionization_Penalty>
0.00658015

> <r_epik_Ionization_Penalty_Charging>
0.00656881

> <r_epik_Ionization_Penalty_Neutral>
1.13431e-05

> <r_epik_State_Penalty>
0.0048654

> <r_epik_Charging_Adjusted_Penalty>
0.0114342

> <i_epik_Tot_Q>
1

> <i_epik_Tot_abs_Q>
1

> <r_epik_Metal_State_Penalty>
-0

> <b_epik_Metal_Only>
0

> <s_lp_Force_Field>
OPLS_2005

> <r_lp_Energy>
18.5215

> <b_lp_Chiralities_Consistent>
1

> <s_lp_Variant>
AV-unprocessed.smi:3156-8

> <Gold.Version>
5.8.1

> <Gold.Id.Protein>
6NUR|6NUR_protein|mol2

> <Gold.PLP.Fitness>
52.2670

> <Gold.PLP.PLP>
-44.2367

> <Gold.PLP.part.hbond>
-2.0000

> <Gold.PLP.part.metal>
0.0000

> <Gold.PLP.part.buried>
-5.9493

> <Gold.PLP.part.nonpolar>
-37.8695

> <Gold.PLP.part.repulsive>
0.2058

> <Gold.PLP.ligand.clash>
0.0000

> <Gold.PLP.ligand.torsion>
0.3017

> <Gold.PLP.Chemscore.Hbond>
2.8480

> <Gold.PLP.Chemscore.CHOScore>
0.0000

> <Gold.PLP.Chemscore.Metal>
0.0000

> <Gold.Chemscore.Hbonds>
donor molecule, donor type, donor heavy atom, donor atom, acceptor molecule, acceptor atom, score
      L1  H     3    22       P1  8028  2.00
      P1  H  7989  7998       L1    10  0.93

> <Gold.PLP.Chemscore.Internal.Correction>
0.0896

> <Gold.Rescore>
     Score         DG    S(hbond)    S(metal)    S(lipo)     H(rot)  DE(clash)    DE(int)     intcor
     20.10     -20.24       1.86        0.00     107.99       1.59       0.00       0.14       ----

> <Gold.Chemscore.Fitness>
20.0956

> <Gold.Chemscore.DG>
-20.2366

> <Gold.Chemscore.ZeroCoef>
-5.4800

> <Gold.Chemscore.Hbond>
1.8569

> <Gold.Chemscore.Metal>
0.0000

> <Gold.Chemscore.Lipo>
107.9900

> <Gold.Chemscore.Internal_Hbond>
0.0000

> <Gold.Chemscore.DEClash>
0.0033

> <Gold.Chemscore.DEInternal>
0.1377

> <Gold.Chemscore.Rot>
1.5938

> <Gold.Chemscore.Internal.Correction>
   9.000000E+99

> <Gold.Chemscore.Hbonds>
donor molecule, donor type, donor heavy atom, donor atom, acceptor molecule, acceptor atom, score
      L1  H     3    22       P1  8028  1.00
      P1  H  7989  7998       L1    10  0.31

> <Gold.Chemscore.Hbond.Weighted>
-6.2020

> <Gold.Chemscore.Metal.Weighted>
-0.0000

> <Gold.Chemscore.Lipo.Weighted>
-12.6348

> <Gold.Chemscore.Internal_Hbond.Weighted>
0.0000

> <Gold.Chemscore.DEClash.Weighted>
0.0033

> <Gold.Chemscore.DEInternal.Weighted>
0.1377

> <Gold.Chemscore.Rot.Weighted>
4.0802

> <Gold.Chemscore.Internal.Correction.Weighted>
   9.000000E+99

> <Gold.Protein.RotatedTorsions>
[ 6907 6896 6895 6894 ] final -121.16 input  -60.11 | X-H torsion
[ 7974 7965 7964 7962 ] final   89.79 input  175.53 | X-H torsion
[ 8008 7997 7996 7995 ] final -165.15 input   59.86 | X-H torsion
[ 10167 10162 10161 10158 ] final  136.18 input  -65.29 | X-H torsion
[ 10718 10713 10712 10709 ] final  155.80 input   66.30 | X-H torsion
[ 10763 10752 10751 10750 ] final -131.72 input  -60.55 | X-H torsion
[ 11005 11000 10999 10996 ] final  172.60 input  -57.11 | X-H torsion

> <Gold.Protein.ActiveResidues>
 VAL166  LYS551  ARG553  GLY616  TRP617  ASP618  TYR619  PRO620  LYS621  CYS622 
 ASP623  PHE694  ASN695  SER759  ASP760  ASP761  ALA762  ILE779  LEU786  VAL792 
 PHE793  MET794  SER795  GLU796  ALA797  LYS798  CYS799  TRP800  GLU811  SER814 

> <Gold.Protein.RotatedAtoms>
  150.8458  133.7863  159.3043 H   0  0  0  0  0  0  0  0  0  0  0  0  # atno 6907 bound_to 6896
  151.5551  135.1065  159.9968 H   0  0  0  0  0  0  0  0  0  0  0  0  # atno 6908 bound_to 6896
  152.4512  133.7591  159.6792 H   0  0  0  0  0  0  0  0  0  0  0  0  # atno 6909 bound_to 6896
  145.5277  139.2282  143.2636 H   0  0  0  0  0  0  0  0  0  0  0  0  # atno 7974 bound_to 7965
  155.8458  140.0955  157.1706 H   0  0  0  0  0  0  0  0  0  0  0  0  # atno 8008 bound_to 7997
  154.3983  140.1392  156.3845 H   0  0  0  0  0  0  0  0  0  0  0  0  # atno 8009 bound_to 7997
  155.8015  140.3452  155.5408 H   0  0  0  0  0  0  0  0  0  0  0  0  # atno 8010 bound_to 7997
  139.5189  144.6478  151.5389 H   0  0  0  0  0  0  0  0  0  0  0  0  # atno 10167 bound_to 10162
  157.2136  131.0703  151.1955 H   0  0  0  0  0  0  0  0  0  0  0  0  # atno 10718 bound_to 10713
  154.8749  135.3821  154.4293 H   0  0  0  0  0  0  0  0  0  0  0  0  # atno 10763 bound_to 10752
  153.4988  135.7030  153.5848 H   0  0  0  0  0  0  0  0  0  0  0  0  # atno 10764 bound_to 10752
  153.4189  135.3906  155.2065 H   0  0  0  0  0  0  0  0  0  0  0  0  # atno 10765 bound_to 10752
  140.3315  134.7353  157.4137 H   0  0  0  0  0  0  0  0  0  0  0  0  # atno 11005 bound_to 11000
  146.2065  140.6092  142.9079 LP  0  0  0  0  0  0  0  0  0  0  0  0  # atno 17320 bound_to 7965
  144.7642  140.5493  143.6714 LP  0  0  0  0  0  0  0  0  0  0  0  0  # atno 17321 bound_to 7965
  140.6270  143.9149  150.6573 LP  0  0  0  0  0  0  0  0  0  0  0  0  # atno 17342 bound_to 10162
  140.2441  143.3642  152.1462 LP  0  0  0  0  0  0  0  0  0  0  0  0  # atno 17343 bound_to 10162
  157.3648  130.7150  149.6525 LP  0  0  0  0  0  0  0  0  0  0  0  0  # atno 17370 bound_to 10713
  155.9688  130.4215  150.4474 LP  0  0  0  0  0  0  0  0  0  0  0  0  # atno 17371 bound_to 10713
  140.0857  134.5670  155.8495 LP  0  0  0  0  0  0  0  0  0  0  0  0  # atno 17394 bound_to 11000
  141.2062  133.6653  156.6228 LP  0  0  0  0  0  0  0  0  0  0  0  0  # atno 17395 bound_to 11000

$$$$
