AV-unprocessed.smi:610|AV-procd|sdf|3054|dock6
  -GOLD-   2262023573D 1   1.00000     0.00000
 Structure written by MMmdl.
 39 40  0  0  0  0  0  0  0  0  3 V2000
  151.4474  140.1521  158.0579 C   0  0  0  0  0  0  0  0  0  0  0  0
  150.4900  141.2052  157.4840 C   0  0  1  0  0  0  0  0  0  0  0  0
  151.2664  142.4257  156.9443 C   0  0  0  0  0  0  0  0  0  0  0  0
  151.6752  143.3602  157.9989 N   0  0  0  0  0  0  0  0  0  0  0  0
  151.3555  144.6901  158.0999 C   0  0  0  0  0  0  0  0  0  0  0  0
  151.9608  145.1521  159.2401 C   0  0  0  0  0  0  0  0  0  0  0  0
  152.6169  144.0842  159.7910 N   0  3  0  0  0  0  0  0  0  0  0  0
  152.4360  142.9938  159.0388 C   0  0  0  0  0  0  0  0  0  0  0  0
  149.6858  140.5847  156.4316 N   0  0  0  0  0  0  0  0  0  0  0  0
  150.1523  140.0406  155.2939 C   0  0  0  0  0  0  0  0  0  0  0  0
  151.3523  140.0178  155.0186 O   0  0  0  0  0  0  0  0  0  0  0  0
  149.1344  139.4388  154.2958 C   0  0  0  0  0  0  0  0  0  0  0  0
  149.9086  138.7918  153.2204 N   0  3  0  0  0  0  0  0  0  0  0  0
  148.2019  138.4319  154.9958 C   0  0  0  0  0  0  0  0  0  0  0  0
  147.0616  139.2692  155.5947 C   0  0  0  0  0  0  0  0  0  0  0  0
  147.0357  140.5871  154.8045 C   0  0  0  0  0  0  0  0  0  0  0  0
  148.1162  140.4473  153.7244 C   0  0  0  0  0  0  0  0  0  0  0  0
  152.0442  140.5662  158.8712 H   0  0  0  0  0  0  0  0  0  0  0  0
  152.1356  139.7830  157.2965 H   0  0  0  0  0  0  0  0  0  0  0  0
  150.9003  139.2968  158.4559 H   0  0  0  0  0  0  0  0  0  0  0  0
  149.8429  141.5297  158.3011 H   0  0  0  0  0  0  0  0  0  0  0  0
  152.1771  142.1004  156.4400 H   0  0  0  0  0  0  0  0  0  0  0  0
  150.6739  142.9674  156.2048 H   0  0  0  0  0  0  0  0  0  0  0  0
  150.7425  145.1971  157.3687 H   0  0  0  0  0  0  0  0  0  0  0  0
  151.9719  146.1347  159.6894 H   0  0  0  0  0  0  0  0  0  0  0  0
  152.8330  142.0130  159.2310 H   0  0  0  0  0  0  0  0  0  0  0  0
  148.6871  140.5702  156.5822 H   0  0  0  0  0  0  0  0  0  0  0  0
  150.7883  138.4585  153.5877 H   0  0  0  0  0  0  0  0  0  0  0  0
  150.0821  139.4633  152.4859 H   0  0  0  0  0  0  0  0  0  0  0  0
  147.7858  137.7412  154.2605 H   0  0  0  0  0  0  0  0  0  0  0  0
  148.6964  137.8209  155.7524 H   0  0  0  0  0  0  0  0  0  0  0  0
  146.1103  138.7397  155.5310 H   0  0  0  0  0  0  0  0  0  0  0  0
  147.2499  139.4707  156.6494 H   0  0  0  0  0  0  0  0  0  0  0  0
  146.0565  140.7863  154.3679 H   0  0  0  0  0  0  0  0  0  0  0  0
  147.2717  141.4196  155.4687 H   0  0  0  0  0  0  0  0  0  0  0  0
  148.5431  141.4072  153.4311 H   0  0  0  0  0  0  0  0  0  0  0  0
  147.6583  140.0304  152.8256 H   0  0  0  0  0  0  0  0  0  0  0  0
  149.3826  138.0155  152.8455 H   0  0  0  0  0  0  0  0  0  0  0  0
  153.1561  144.1123  160.6476 H   0  0  0  0  0  0  0  0  0  0  0  0
  1  2  1  0  0  0  0
  1 18  1  0  0  0  0
  1 19  1  0  0  0  0
  1 20  1  0  0  0  0
  2  3  1  0  0  0  0
  2  9  1  0  0  0  0
  2 21  1  0  0  0  0
  3  4  1  0  0  0  0
  3 22  1  0  0  0  0
  3 23  1  0  0  0  0
  4  8  1  0  0  0  0
  4  5  1  0  0  0  0
  5  6  2  0  0  0  0
  5 24  1  0  0  0  0
  6  7  1  0  0  0  0
  6 25  1  0  0  0  0
  7  8  2  0  0  0  0
  7 39  1  0  0  0  0
  8 26  1  0  0  0  0
  9 10  1  0  0  0  0
  9 27  1  0  0  0  0
 10 11  2  0  0  0  0
 10 12  1  0  0  0  0
 12 17  1  0  0  0  0
 12 13  1  0  0  0  0
 12 14  1  0  0  0  0
 13 28  1  0  0  0  0
 13 29  1  0  0  0  0
 13 38  1  0  0  0  0
 14 15  1  0  0  0  0
 14 30  1  0  0  0  0
 14 31  1  0  0  0  0
 15 16  1  0  0  0  0
 15 32  1  0  0  0  0
 15 33  1  0  0  0  0
 16 17  1  0  0  0  0
 16 34  1  0  0  0  0
 16 35  1  0  0  0  0
 17 36  1  0  0  0  0
 17 37  1  0  0  0  0
M  CHG  1   7   1
M  CHG  1  13   1
M  END
> <s_m_source_file>
AV-unprocessed.smi

> <i_m_source_file_index>
610

> <i_lp_mmshare_version>
43012

> <i_f3d_flags>
0

> <s_epik_input>
W2NIXTFuW2NIXVtjSF1uMVtDSDJdW0NAQEhdKFtDSDNdKVtOSF1DKD1PKUMyKFtOSDJdKVtDSDJdW0NIMl1bQ0gyXVtDSDJdMg==

> <s_epik_cmdline>
J2VwaWtfcHl0aG9uJywgJy1waCcsICc3LjAnLCAnLXRuJywgJzgnLCAnLW1hJywgJzIwMCcsICctbWV0YWxfYmluZGluZycsICctaW1hZScsICc8aW5maWxlLm1hZT4nLCAnLW9tYWUnLCAnPG91dGZpbGUubWFlPic=

> <r_lp_tautomer_probability>
1

> <r_epik_Ionization_Penalty>
0.349719

> <r_epik_Ionization_Penalty_Charging>
0.0753376

> <r_epik_Ionization_Penalty_Neutral>
0.274381

> <r_epik_State_Penalty>
0.326418

> <r_epik_Charging_Adjusted_Penalty>
0.401755

> <i_epik_Tot_Q>
2

> <i_epik_Tot_abs_Q>
2

> <r_epik_Metal_State_Penalty>
0.608513

> <b_epik_Metal_Only>
0

> <s_lp_Force_Field>
OPLS_2005

> <r_lp_Energy>
30.9651

> <b_lp_Chiralities_Consistent>
1

> <s_lp_Variant>
AV-unprocessed.smi:610-2

> <Gold.Version>
5.8.1

> <Gold.Id.Protein>
6NUR|6NUR_protein|mol2

> <Gold.PLP.Fitness>
46.7706

> <Gold.PLP.PLP>
-32.3487

> <Gold.PLP.part.hbond>
-2.9067

> <Gold.PLP.part.metal>
0.0000

> <Gold.PLP.part.buried>
-4.2885

> <Gold.PLP.part.nonpolar>
-24.7090

> <Gold.PLP.part.repulsive>
0.1890

> <Gold.PLP.ligand.clash>
0.0000

> <Gold.PLP.ligand.torsion>
0.3088

> <Gold.PLP.Chemscore.Hbond>
4.0000

> <Gold.PLP.Chemscore.CHOScore>
0.9936

> <Gold.PLP.Chemscore.Metal>
0.0000

> <Gold.Chemscore.Hbonds>
donor molecule, donor type, donor heavy atom, donor atom, acceptor molecule, acceptor atom, score
      L1  H    13    29       P1  7957  0.87
      L1  H    13    38       P1  7948  1.95
      P1  H  7989  7998       L1    11  1.00
      L1  C     5    24       P1  8028  0.93

> <Gold.PLP.Chemscore.Internal.Correction>
0.0587

> <Gold.Rescore>
     Score         DG    S(hbond)    S(metal)    S(lipo)     H(rot)  DE(clash)    DE(int)     intcor
     14.71     -16.76       2.89        0.00      58.94       2.06       0.00       2.04       ----

> <Gold.Chemscore.Fitness>
14.7103

> <Gold.Chemscore.DG>
-16.7580

> <Gold.Chemscore.ZeroCoef>
-5.4800

> <Gold.Chemscore.Hbond>
2.8944

> <Gold.Chemscore.Metal>
0.0000

> <Gold.Chemscore.Lipo>
58.9363

> <Gold.Chemscore.Internal_Hbond>
0.0000

> <Gold.Chemscore.DEClash>
0.0048

> <Gold.Chemscore.DEInternal>
2.0428

> <Gold.Chemscore.Rot>
2.0644

> <Gold.Chemscore.Internal.Correction>
   9.000000E+99

> <Gold.Chemscore.Hbonds>
donor molecule, donor type, donor heavy atom, donor atom, acceptor molecule, acceptor atom, score
      L1  H    13    29       P1  7957  0.70
      L1  H    13    38       P1  7948  0.82
      P1  H  7989  7998       L1    11  0.74

> <Gold.Chemscore.Hbond.Weighted>
-9.6672

> <Gold.Chemscore.Metal.Weighted>
-0.0000

> <Gold.Chemscore.Lipo.Weighted>
-6.8955

> <Gold.Chemscore.Internal_Hbond.Weighted>
0.0000

> <Gold.Chemscore.DEClash.Weighted>
0.0048

> <Gold.Chemscore.DEInternal.Weighted>
2.0428

> <Gold.Chemscore.Rot.Weighted>
5.2848

> <Gold.Chemscore.Internal.Correction.Weighted>
   9.000000E+99

> <Gold.Protein.RotatedTorsions>
[ 6907 6896 6895 6894 ] final  100.50 input  -60.11 | X-H torsion
[ 7974 7965 7964 7962 ] final  -73.52 input  175.53 | X-H torsion
[ 8008 7997 7996 7995 ] final -148.00 input   59.86 | X-H torsion
[ 10167 10162 10161 10158 ] final   30.39 input  -65.29 | X-H torsion
[ 10718 10713 10712 10709 ] final  128.91 input   66.30 | X-H torsion
[ 10763 10752 10751 10750 ] final -173.49 input  -60.55 | X-H torsion
[ 11005 11000 10999 10996 ] final  -66.87 input  -57.11 | X-H torsion

> <Gold.Protein.ActiveResidues>
 VAL166  LYS551  ARG553  GLY616  TRP617  ASP618  TYR619  PRO620  LYS621  CYS622 
 ASP623  PHE694  ASN695  SER759  ASP760  ASP761  ALA762  ILE779  LEU786  VAL792 
 PHE793  MET794  SER795  GLU796  ALA797  LYS798  CYS799  TRP800  GLU811  SER814 

> <Gold.Protein.RotatedAtoms>
  152.5370  134.0267  159.8005 H   0  0  0  0  0  0  0  0  0  0  0  0  # atno 6907 bound_to 6896
  151.0444  133.5670  159.2655 H   0  0  0  0  0  0  0  0  0  0  0  0  # atno 6908 bound_to 6896
  151.2628  135.0667  159.9158 H   0  0  0  0  0  0  0  0  0  0  0  0  # atno 6909 bound_to 6896
  145.6511  140.9282  143.0984 H   0  0  0  0  0  0  0  0  0  0  0  0  # atno 7974 bound_to 7965
  155.5845  140.0646  157.2774 H   0  0  0  0  0  0  0  0  0  0  0  0  # atno 8008 bound_to 7997
  154.4323  140.1846  156.1058 H   0  0  0  0  0  0  0  0  0  0  0  0  # atno 8009 bound_to 7997
  156.0279  140.3309  155.7112 H   0  0  0  0  0  0  0  0  0  0  0  0  # atno 8010 bound_to 7997
  140.4682  144.0803  150.6230 H   0  0  0  0  0  0  0  0  0  0  0  0  # atno 10167 bound_to 10162
  157.5202  131.1098  150.9164 H   0  0  0  0  0  0  0  0  0  0  0  0  # atno 10718 bound_to 10713
  154.6072  135.2860  155.0471 H   0  0  0  0  0  0  0  0  0  0  0  0  # atno 10763 bound_to 10752
  154.1714  135.6472  153.5014 H   0  0  0  0  0  0  0  0  0  0  0  0  # atno 10764 bound_to 10752
  153.0180  135.5402  154.6813 H   0  0  0  0  0  0  0  0  0  0  0  0  # atno 10765 bound_to 10752
  141.1493  133.6708  156.6206 H   0  0  0  0  0  0  0  0  0  0  0  0  # atno 11005 bound_to 11000
  144.7122  139.8328  143.7411 LP  0  0  0  0  0  0  0  0  0  0  0  0  # atno 17320 bound_to 7965
  146.1203  139.4219  143.0233 LP  0  0  0  0  0  0  0  0  0  0  0  0  # atno 17321 bound_to 7965
  140.4010  143.2704  151.9947 LP  0  0  0  0  0  0  0  0  0  0  0  0  # atno 17342 bound_to 10162
  139.4815  144.5997  151.7627 LP  0  0  0  0  0  0  0  0  0  0  0  0  # atno 17343 bound_to 10162
  156.9777  130.5515  149.5294 LP  0  0  0  0  0  0  0  0  0  0  0  0  # atno 17370 bound_to 10713
  156.0348  130.5437  150.8626 LP  0  0  0  0  0  0  0  0  0  0  0  0  # atno 17371 bound_to 10713
  140.3543  134.7742  157.4489 LP  0  0  0  0  0  0  0  0  0  0  0  0  # atno 17394 bound_to 11000
  140.0835  134.5698  155.8516 LP  0  0  0  0  0  0  0  0  0  0  0  0  # atno 17395 bound_to 11000

$$$$
