AV-unprocessed.smi:1518|AV-procd|sdf|6124|dock9
  -GOLD-   22720 6263D 1   1.00000     0.00000
 Structure written by MMmdl.
 45 47  0  0  0  0  0  0  0  0  1 V2000
  146.7376  135.6500  163.1404 C   0  0  0  0  0  0  0  0  0  0  0  0
  146.4547  134.7983  161.9038 C   0  0  0  0  0  0  0  0  0  0  0  0
  145.7740  133.7810  162.0324 O   0  0  0  0  0  0  0  0  0  0  0  0
  147.0254  135.2464  160.6008 C   0  0  0  0  0  0  0  0  0  0  0  0
  147.9855  136.2831  160.5890 C   0  0  0  0  0  0  0  0  0  0  0  0
  148.5399  136.7282  159.3755 C   0  0  0  0  0  0  0  0  0  0  0  0
  148.1411  136.1404  158.1620 C   0  0  0  0  0  0  0  0  0  0  0  0
  147.1887  135.1029  158.1449 C   0  0  0  0  0  0  0  0  0  0  0  0
  146.8580  134.5855  156.9110 O   0  0  0  0  0  0  0  0  0  0  0  0
  147.8115  134.6727  155.8593 C   0  0  0  0  0  0  0  0  0  0  0  0
  147.1695  134.2254  154.5364 C   0  0  2  0  0  0  0  0  0  0  0  0
  148.1685  134.1470  153.5395 O   0  0  0  0  0  0  0  0  0  0  0  0
  145.9875  135.1140  154.0956 C   0  0  0  0  0  0  0  0  0  0  0  0
  145.6899  134.9927  152.6751 N   0  0  0  0  0  0  0  0  0  0  0  0
  145.6582  135.9757  151.7403 C   0  0  0  0  0  0  0  0  0  0  0  0
  145.9566  137.4047  152.0970 C   0  0  0  0  0  0  0  0  0  0  0  0
  146.6341  138.1204  151.0838 O   0  0  0  0  0  0  0  0  0  0  0  0
  145.3615  135.5814  150.4995 N   0  0  0  0  0  0  0  0  0  0  0  0
  145.1837  134.2197  150.6444 C   0  0  0  0  0  0  0  0  0  0  0  0
  144.8535  133.2298  149.6913 C   0  0  0  0  0  0  0  0  0  0  0  0
  144.7264  131.8797  150.0788 C   0  0  0  0  0  0  0  0  0  0  0  0
  144.9276  131.5010  151.4218 C   0  0  0  0  0  0  0  0  0  0  0  0
  145.2581  132.4714  152.3871 C   0  0  0  0  0  0  0  0  0  0  0  0
  145.3834  133.8179  151.9950 C   0  0  0  0  0  0  0  0  0  0  0  0
  146.6343  134.6592  159.3728 C   0  0  0  0  0  0  0  0  0  0  0  0
  146.2994  136.6418  163.0284 H   0  0  0  0  0  0  0  0  0  0  0  0
  147.8115  135.7542  163.2966 H   0  0  0  0  0  0  0  0  0  0  0  0
  146.3089  135.1867  164.0293 H   0  0  0  0  0  0  0  0  0  0  0  0
  148.3062  136.7495  161.5096 H   0  0  0  0  0  0  0  0  0  0  0  0
  149.2722  137.5218  159.3756 H   0  0  0  0  0  0  0  0  0  0  0  0
  148.5716  136.4886  157.2346 H   0  0  0  0  0  0  0  0  0  0  0  0
  148.2046  135.6869  155.7684 H   0  0  0  0  0  0  0  0  0  0  0  0
  148.6493  134.0095  156.0803 H   0  0  0  0  0  0  0  0  0  0  0  0
  146.8090  133.2060  154.6751 H   0  0  0  0  0  0  0  0  0  0  0  0
  148.4356  135.0251  153.3139 H   0  0  0  0  0  0  0  0  0  0  0  0
  145.0934  134.8635  154.6669 H   0  0  0  0  0  0  0  0  0  0  0  0
  146.1964  136.1625  154.3111 H   0  0  0  0  0  0  0  0  0  0  0  0
  145.0262  137.9278  152.3158 H   0  0  0  0  0  0  0  0  0  0  0  0
  146.5630  137.4236  153.0027 H   0  0  0  0  0  0  0  0  0  0  0  0
  146.0027  138.6346  150.6049 H   0  0  0  0  0  0  0  0  0  0  0  0
  144.6982  133.5102  148.6600 H   0  0  0  0  0  0  0  0  0  0  0  0
  144.4733  131.1315  149.3420 H   0  0  0  0  0  0  0  0  0  0  0  0
  144.8280  130.4648  151.7106 H   0  0  0  0  0  0  0  0  0  0  0  0
  145.4114  132.1843  153.4167 H   0  0  0  0  0  0  0  0  0  0  0  0
  145.9050  133.8650  159.3753 H   0  0  0  0  0  0  0  0  0  0  0  0
  1  2  1  0  0  0  0
  1 26  1  0  0  0  0
  1 27  1  0  0  0  0
  1 28  1  0  0  0  0
  2  3  2  0  0  0  0
  2  4  1  0  0  0  0
  4 25  1  0  0  0  0
  4  5  2  0  0  0  0
  5  6  1  0  0  0  0
  5 29  1  0  0  0  0
  6  7  2  0  0  0  0
  6 30  1  0  0  0  0
  7  8  1  0  0  0  0
  7 31  1  0  0  0  0
  8  9  1  0  0  0  0
  8 25  2  0  0  0  0
  9 10  1  0  0  0  0
 10 11  1  0  0  0  0
 10 32  1  0  0  0  0
 10 33  1  0  0  0  0
 11 12  1  0  0  0  0
 11 13  1  0  0  0  0
 11 34  1  0  0  0  0
 12 35  1  0  0  0  0
 13 14  1  0  0  0  0
 13 36  1  0  0  0  0
 13 37  1  0  0  0  0
 14 24  1  0  0  0  0
 14 15  1  0  0  0  0
 15 16  1  0  0  0  0
 15 18  2  0  0  0  0
 16 17  1  0  0  0  0
 16 38  1  0  0  0  0
 16 39  1  0  0  0  0
 17 40  1  0  0  0  0
 18 19  1  0  0  0  0
 19 24  2  0  0  0  0
 19 20  1  0  0  0  0
 20 21  2  0  0  0  0
 20 41  1  0  0  0  0
 21 22  1  0  0  0  0
 21 42  1  0  0  0  0
 22 23  2  0  0  0  0
 22 43  1  0  0  0  0
 23 24  1  0  0  0  0
 23 44  1  0  0  0  0
 25 45  1  0  0  0  0
M  END
> <s_m_source_file>
AV-unprocessed.smi

> <i_m_source_file_index>
1518

> <i_lp_mmshare_version>
43012

> <i_f3d_flags>
0

> <s_epik_input>
W0NIM11DKD1PKWMxW2NIXVtjSF1bY0hdYyhbY0hdMSlPW0NIMl1bQ0BIXShbT0hdKVtDSDJdbihjKG4yKVtDSDJdW09IXSljKGMyMylbY0hdW2NIXVtjSF1bY0hdMw==

> <s_epik_cmdline>
J2VwaWtfcHl0aG9uJywgJy1waCcsICc3LjAnLCAnLXRuJywgJzgnLCAnLW1hJywgJzIwMCcsICctbWV0YWxfYmluZGluZycsICctaW1hZScsICc8aW5maWxlLm1hZT4nLCAnLW9tYWUnLCAnPG91dGZpbGUubWFlPic=

> <r_lp_tautomer_probability>
0.99995

> <r_epik_Ionization_Penalty>
0.0583159

> <r_epik_Ionization_Penalty_Charging>
0

> <r_epik_Ionization_Penalty_Neutral>
0.0583159

> <r_epik_State_Penalty>
0.0503525

> <r_epik_Charging_Adjusted_Penalty>
0.0503525

> <i_epik_Tot_Q>
0

> <i_epik_Tot_abs_Q>
0

> <r_epik_Metal_State_Penalty>
5.25517e-05

> <b_epik_Metal_Only>
0

> <s_lp_Force_Field>
OPLS_2005

> <r_lp_Energy>
22.7276

> <b_lp_Chiralities_Consistent>
1

> <s_lp_Variant>
AV-unprocessed.smi:1518-1

> <Gold.Version>
5.8.1

> <Gold.Id.Protein>
6NUR|6NUR_protein|mol2

> <Gold.PLP.Fitness>
47.0606

> <Gold.PLP.PLP>
-40.1061

> <Gold.PLP.part.hbond>
-3.5836

> <Gold.PLP.part.metal>
0.0000

> <Gold.PLP.part.buried>
-5.6847

> <Gold.PLP.part.nonpolar>
-31.4622

> <Gold.PLP.part.repulsive>
0.5246

> <Gold.PLP.ligand.clash>
0.0000

> <Gold.PLP.ligand.torsion>
1.0329

> <Gold.PLP.Chemscore.Hbond>
2.9760

> <Gold.PLP.Chemscore.CHOScore>
0.0000

> <Gold.PLP.Chemscore.Metal>
0.0000

> <Gold.Chemscore.Hbonds>
donor molecule, donor type, donor heavy atom, donor atom, acceptor molecule, acceptor atom, score
      L1  H    12    35       P1  7948  0.88
      L1  H    17    40       P1 10171  0.38
      P1  H  7954  7966       L1    17  1.00

> <Gold.PLP.Chemscore.Internal.Correction>
0.0924

> <Gold.Rescore>
     Score         DG    S(hbond)    S(metal)    S(lipo)     H(rot)  DE(clash)    DE(int)     intcor
     15.04     -15.98       2.63        0.00      85.85       3.25       0.03       0.91       ----

> <Gold.Chemscore.Fitness>
15.0373

> <Gold.Chemscore.DG>
-15.9786

> <Gold.Chemscore.ZeroCoef>
-5.4800

> <Gold.Chemscore.Hbond>
2.6257

> <Gold.Chemscore.Metal>
0.0000

> <Gold.Chemscore.Lipo>
85.8477

> <Gold.Chemscore.Internal_Hbond>
0.0000

> <Gold.Chemscore.DEClash>
0.0332

> <Gold.Chemscore.DEInternal>
0.9082

> <Gold.Chemscore.Rot>
3.2482

> <Gold.Chemscore.Internal.Correction>
   9.000000E+99

> <Gold.Chemscore.Hbonds>
donor molecule, donor type, donor heavy atom, donor atom, acceptor molecule, acceptor atom, score
      L1  H    12    35       P1  7948  0.73
      L1  H    17    40       P1 10171  0.38
      P1  H  7954  7966       L1    17  0.54

> <Gold.Chemscore.Hbond.Weighted>
-8.7699

> <Gold.Chemscore.Metal.Weighted>
-0.0000

> <Gold.Chemscore.Lipo.Weighted>
-10.0442

> <Gold.Chemscore.Internal_Hbond.Weighted>
0.0000

> <Gold.Chemscore.DEClash.Weighted>
0.0332

> <Gold.Chemscore.DEInternal.Weighted>
0.9082

> <Gold.Chemscore.Rot.Weighted>
8.3155

> <Gold.Chemscore.Internal.Correction.Weighted>
   9.000000E+99

> <Gold.Protein.RotatedTorsions>
[ 6907 6896 6895 6894 ] final  -35.48 input  -60.11 | X-H torsion
[ 7974 7965 7964 7962 ] final  148.05 input  175.53 | X-H torsion
[ 8008 7997 7996 7995 ] final  160.40 input   59.86 | X-H torsion
[ 10167 10162 10161 10158 ] final   16.69 input  -65.29 | X-H torsion
[ 10718 10713 10712 10709 ] final   49.51 input   66.30 | X-H torsion
[ 10763 10752 10751 10750 ] final -101.03 input  -60.55 | X-H torsion
[ 11005 11000 10999 10996 ] final  -70.56 input  -57.11 | X-H torsion

> <Gold.Protein.ActiveResidues>
 VAL166  LYS551  ARG553  GLY616  TRP617  ASP618  TYR619  PRO620  LYS621  CYS622 
 ASP623  PHE694  ASN695  SER759  ASP760  ASP761  ALA762  ILE779  LEU786  VAL792 
 PHE793  MET794  SER795  GLU796  ALA797  LYS798  CYS799  TRP800  GLU811  SER814 

> <Gold.Protein.RotatedAtoms>
  151.0392  134.9595  159.8152 H   0  0  0  0  0  0  0  0  0  0  0  0  # atno 6907 bound_to 6896
  152.5361  134.2680  159.8970 H   0  0  0  0  0  0  0  0  0  0  0  0  # atno 6908 bound_to 6896
  151.2691  133.4221  159.2654 H   0  0  0  0  0  0  0  0  0  0  0  0  # atno 6909 bound_to 6896
  144.8544  139.6105  143.5959 H   0  0  0  0  0  0  0  0  0  0  0  0  # atno 7974 bound_to 7965
  156.2175  140.1805  156.7555 H   0  0  0  0  0  0  0  0  0  0  0  0  # atno 8008 bound_to 7997
  154.5814  140.0665  156.9138 H   0  0  0  0  0  0  0  0  0  0  0  0  # atno 8009 bound_to 7997
  155.2496  140.3328  155.4286 H   0  0  0  0  0  0  0  0  0  0  0  0  # atno 8010 bound_to 7997
  140.5779  143.9037  150.6765 H   0  0  0  0  0  0  0  0  0  0  0  0  # atno 10167 bound_to 10162
  157.4793  130.8305  149.8075 H   0  0  0  0  0  0  0  0  0  0  0  0  # atno 10718 bound_to 10713
  154.7625  135.4913  153.9492 H   0  0  0  0  0  0  0  0  0  0  0  0  # atno 10763 bound_to 10752
  153.1269  135.6744  153.9250 H   0  0  0  0  0  0  0  0  0  0  0  0  # atno 10764 bound_to 10752
  153.8966  135.3114  155.3427 H   0  0  0  0  0  0  0  0  0  0  0  0  # atno 10765 bound_to 10752
  141.1576  133.6793  156.6771 H   0  0  0  0  0  0  0  0  0  0  0  0  # atno 11005 bound_to 11000
  146.2811  139.6879  142.9228 LP  0  0  0  0  0  0  0  0  0  0  0  0  # atno 17320 bound_to 7965
  145.4436  141.0424  143.2844 LP  0  0  0  0  0  0  0  0  0  0  0  0  # atno 17321 bound_to 7965
  140.2529  143.3580  152.1390 LP  0  0  0  0  0  0  0  0  0  0  0  0  # atno 17342 bound_to 10162
  139.5153  144.6961  151.5627 LP  0  0  0  0  0  0  0  0  0  0  0  0  # atno 17343 bound_to 10162
  156.0113  130.3832  150.2255 LP  0  0  0  0  0  0  0  0  0  0  0  0  # atno 17370 bound_to 10713
  157.0440  131.0043  151.3274 LP  0  0  0  0  0  0  0  0  0  0  0  0  # atno 17371 bound_to 10713
  140.3130  134.8070  157.4192 LP  0  0  0  0  0  0  0  0  0  0  0  0  # atno 17394 bound_to 11000
  140.1162  134.5280  155.8223 LP  0  0  0  0  0  0  0  0  0  0  0  0  # atno 17395 bound_to 11000

$$$$
