AV-unprocessed.smi:1830|AV-procd|sdf|7432|dock10
  -GOLD-   22720 9113D 1   1.00000     0.00000
 Structure written by MMmdl.
 53 56  0  0  0  0  0  0  0  0  2 V2000
  150.2501  140.3936  154.8079 O   0  0  0  0  0  0  0  0  0  0  0  0
  149.7494  141.3606  155.3821 C   0  0  0  0  0  0  0  0  0  0  0  0
  148.6458  141.9914  154.9582 N   0  0  0  0  0  0  0  0  0  0  0  0
  147.7778  141.5243  153.8806 C   0  0  0  0  0  0  0  0  0  0  0  0
  147.6663  139.9849  153.8501 C   0  0  2  0  0  0  0  0  0  0  0  0
  146.7376  139.4615  152.7221 C   0  0  0  0  0  0  0  0  0  0  0  0
  146.5878  138.0029  152.8699 N   0  3  2  0  0  0  0  0  0  0  0  0
  145.7355  137.2894  151.9019 C   0  0  0  0  0  0  0  0  0  0  0  0
  145.2395  136.0365  152.6518 C   0  0  0  0  0  0  0  0  0  0  0  0
  145.7899  136.1625  154.0826 C   0  0  0  0  0  0  0  0  0  0  0  0
  146.0823  137.6539  154.1992 C   0  0  1  0  0  0  0  0  0  0  0  0
  147.0965  138.1149  155.2517 C   0  0  0  0  0  0  0  0  0  0  0  0
  147.2189  139.5322  155.1340 O   0  0  0  0  0  0  0  0  0  0  0  0
  150.1999  141.8872  156.5310 N   0  0  0  0  0  0  0  0  0  0  0  0
  151.1274  141.2696  157.4096 C   0  0  0  0  0  0  0  0  0  0  0  0
  151.3486  139.8743  157.3406 C   0  0  0  0  0  0  0  0  0  0  0  0
  152.3186  139.2902  158.1727 C   0  0  0  0  0  0  0  0  0  0  0  0
  153.0441  140.1290  159.0352 C   0  0  0  0  0  0  0  0  0  0  0  0
  152.8495  141.4617  159.1046 N   0  0  0  0  0  0  0  0  0  0  0  0
  151.9060  142.0402  158.3209 C   0  0  0  0  0  0  0  0  0  0  0  0
  151.7307  143.4377  158.4637 N   0  0  0  0  0  0  0  0  0  0  0  0
  152.7798  144.2609  159.0567 C   0  0  0  0  0  0  0  0  0  0  0  0
  152.1043  145.5882  159.3929 C   0  0  0  0  0  0  0  0  0  0  0  0
  150.6984  145.1495  159.7890 C   0  0  0  0  0  0  0  0  0  0  0  0
  150.4278  143.9513  158.8753 C   0  0  0  0  0  0  0  0  0  0  0  0
  148.3278  142.7931  155.4827 H   0  0  0  0  0  0  0  0  0  0  0  0
  146.7902  141.9572  154.0409 H   0  0  0  0  0  0  0  0  0  0  0  0
  148.1238  141.9017  152.9169 H   0  0  0  0  0  0  0  0  0  0  0  0
  148.6672  139.5792  153.6932 H   0  0  0  0  0  0  0  0  0  0  0  0
  145.7526  139.9255  152.7703 H   0  0  0  0  0  0  0  0  0  0  0  0
  147.1564  139.6922  151.7422 H   0  0  0  0  0  0  0  0  0  0  0  0
  144.8893  137.9133  151.6112 H   0  0  0  0  0  0  0  0  0  0  0  0
  146.2989  137.0413  151.0022 H   0  0  0  0  0  0  0  0  0  0  0  0
  144.1489  136.0185  152.6622 H   0  0  0  0  0  0  0  0  0  0  0  0
  145.5790  135.1153  152.1775 H   0  0  0  0  0  0  0  0  0  0  0  0
  145.0893  135.8081  154.8394 H   0  0  0  0  0  0  0  0  0  0  0  0
  146.7121  135.5877  154.1792 H   0  0  0  0  0  0  0  0  0  0  0  0
  145.1363  138.1741  154.3645 H   0  0  0  0  0  0  0  0  0  0  0  0
  146.7487  137.8680  156.2548 H   0  0  0  0  0  0  0  0  0  0  0  0
  148.0667  137.6355  155.1126 H   0  0  0  0  0  0  0  0  0  0  0  0
  149.6495  142.6344  156.9285 H   0  0  0  0  0  0  0  0  0  0  0  0
  150.7956  139.2558  156.6490 H   0  0  0  0  0  0  0  0  0  0  0  0
  152.5090  138.2276  158.1420 H   0  0  0  0  0  0  0  0  0  0  0  0
  153.8030  139.7205  159.6860 H   0  0  0  0  0  0  0  0  0  0  0  0
  153.1552  143.8029  159.9727 H   0  0  0  0  0  0  0  0  0  0  0  0
  153.6167  144.3944  158.3707 H   0  0  0  0  0  0  0  0  0  0  0  0
  152.6189  146.1396  160.1800 H   0  0  0  0  0  0  0  0  0  0  0  0
  152.0613  146.2210  158.5053 H   0  0  0  0  0  0  0  0  0  0  0  0
  150.6947  144.8258  160.8305 H   0  0  0  0  0  0  0  0  0  0  0  0
  149.9575  145.9418  159.6801 H   0  0  0  0  0  0  0  0  0  0  0  0
  149.8921  144.2799  157.9852 H   0  0  0  0  0  0  0  0  0  0  0  0
  149.8249  143.1948  159.3789 H   0  0  0  0  0  0  0  0  0  0  0  0
  147.5086  137.5939  152.7984 H   0  0  0  0  0  0  0  0  0  0  0  0
  1  2  2  0  0  0  0
  2  3  1  0  0  0  0
  2 14  1  0  0  0  0
  3  4  1  0  0  0  0
  3 26  1  0  0  0  0
  4  5  1  0  0  0  0
  4 27  1  0  0  0  0
  4 28  1  0  0  0  0
  5 13  1  0  0  0  0
  5  6  1  0  0  0  0
  5 29  1  0  0  0  0
  6  7  1  0  0  0  0
  6 30  1  0  0  0  0
  6 31  1  0  0  0  0
  7 11  1  0  0  0  0
  7  8  1  0  0  0  0
  7 53  1  0  0  0  0
  8  9  1  0  0  0  0
  8 32  1  0  0  0  0
  8 33  1  0  0  0  0
  9 10  1  0  0  0  0
  9 34  1  0  0  0  0
  9 35  1  0  0  0  0
 10 11  1  0  0  0  0
 10 36  1  0  0  0  0
 10 37  1  0  0  0  0
 11 12  1  0  0  0  0
 11 38  1  0  0  0  0
 12 13  1  0  0  0  0
 12 39  1  0  0  0  0
 12 40  1  0  0  0  0
 14 15  1  0  0  0  0
 14 41  1  0  0  0  0
 15 20  1  0  0  0  0
 15 16  2  0  0  0  0
 16 17  1  0  0  0  0
 16 42  1  0  0  0  0
 17 18  2  0  0  0  0
 17 43  1  0  0  0  0
 18 19  1  0  0  0  0
 18 44  1  0  0  0  0
 19 20  2  0  0  0  0
 20 21  1  0  0  0  0
 21 25  1  0  0  0  0
 21 22  1  0  0  0  0
 22 23  1  0  0  0  0
 22 45  1  0  0  0  0
 22 46  1  0  0  0  0
 23 24  1  0  0  0  0
 23 47  1  0  0  0  0
 23 48  1  0  0  0  0
 24 25  1  0  0  0  0
 24 49  1  0  0  0  0
 24 50  1  0  0  0  0
 25 51  1  0  0  0  0
 25 52  1  0  0  0  0
M  CHG  1   7   1
M  END
> <s_m_source_file>
AV-unprocessed.smi

> <i_m_source_file_index>
1830

> <i_lp_mmshare_version>
43012

> <i_f3d_flags>
0

> <s_epik_input>
W0NIMl0xW0NIMl1bQ0gyXVtDQEhdKE4xMilbQ0gyXU9bQ0BASF0oW0NIMl0yKVtDSDJdW05IXUMoPU8pW05IXWMzW2NIXVtjSF1bY0hdbmMzTjRbQ0gyXVtDSDJdW0NIMl1bQ0gyXTQ=

> <s_epik_cmdline>
J2VwaWtfcHl0aG9uJywgJy1waCcsICc3LjAnLCAnLXRuJywgJzgnLCAnLW1hJywgJzIwMCcsICctbWV0YWxfYmluZGluZycsICctaW1hZScsICc8aW5maWxlLm1hZT4nLCAnLW9tYWUnLCAnPG91dGZpbGUubWFlPic=

> <r_lp_tautomer_probability>
1

> <r_epik_Ionization_Penalty>
0.193547

> <r_epik_Ionization_Penalty_Charging>
0.10673

> <r_epik_Ionization_Penalty_Neutral>
0.0868166

> <r_epik_State_Penalty>
0.173595

> <r_epik_Charging_Adjusted_Penalty>
0.280326

> <i_epik_Tot_Q>
1

> <i_epik_Tot_abs_Q>
1

> <r_epik_Metal_State_Penalty>
0.164683

> <b_epik_Metal_Only>
0

> <s_lp_Force_Field>
OPLS_2005

> <r_lp_Energy>
64.1667

> <b_lp_Chiralities_Consistent>
1

> <s_lp_Variant>
AV-unprocessed.smi:1830-1

> <Gold.Version>
5.8.1

> <Gold.Id.Protein>
6NUR|6NUR_protein|mol2

> <Gold.PLP.Fitness>
52.9128

> <Gold.PLP.PLP>
-42.5606

> <Gold.PLP.part.hbond>
-3.4446

> <Gold.PLP.part.metal>
0.0000

> <Gold.PLP.part.buried>
-4.3503

> <Gold.PLP.part.nonpolar>
-35.2153

> <Gold.PLP.part.repulsive>
0.5167

> <Gold.PLP.ligand.clash>
0.0000

> <Gold.PLP.ligand.torsion>
0.5514

> <Gold.PLP.Chemscore.Hbond>
3.6640

> <Gold.PLP.Chemscore.CHOScore>
0.0000

> <Gold.PLP.Chemscore.Metal>
0.0000

> <Gold.Chemscore.Hbonds>
donor molecule, donor type, donor heavy atom, donor atom, acceptor molecule, acceptor atom, score
      L1  H     3    26       P1  8028  0.72
      L1  H     7    53       P1  7948  1.24
      P1  H  7989  7998       L1     1  1.00

> <Gold.PLP.Chemscore.Internal.Correction>
0.4630

> <Gold.Rescore>
     Score         DG    S(hbond)    S(metal)    S(lipo)     H(rot)  DE(clash)    DE(int)     intcor
     18.56     -22.27       2.31        0.00     108.42       1.41       0.37       3.35       ----

> <Gold.Chemscore.Fitness>
18.5557

> <Gold.Chemscore.DG>
-22.2724

> <Gold.Chemscore.ZeroCoef>
-5.4800

> <Gold.Chemscore.Hbond>
2.3079

> <Gold.Chemscore.Metal>
0.0000

> <Gold.Chemscore.Lipo>
108.4187

> <Gold.Chemscore.Internal_Hbond>
0.0000

> <Gold.Chemscore.DEClash>
0.3654

> <Gold.Chemscore.DEInternal>
3.3513

> <Gold.Chemscore.Rot>
1.4067

> <Gold.Chemscore.Internal.Correction>
   9.000000E+99

> <Gold.Chemscore.Hbonds>
donor molecule, donor type, donor heavy atom, donor atom, acceptor molecule, acceptor atom, score
      L1  H     3    26       P1  8028  0.68
      L1  H     7    53       P1  7948  0.58
      P1  H  7989  7998       L1     1  0.83

> <Gold.Chemscore.Hbond.Weighted>
-7.7085

> <Gold.Chemscore.Metal.Weighted>
-0.0000

> <Gold.Chemscore.Lipo.Weighted>
-12.6850

> <Gold.Chemscore.Internal_Hbond.Weighted>
0.0000

> <Gold.Chemscore.DEClash.Weighted>
0.3654

> <Gold.Chemscore.DEInternal.Weighted>
3.3513

> <Gold.Chemscore.Rot.Weighted>
3.6011

> <Gold.Chemscore.Internal.Correction.Weighted>
   9.000000E+99

> <Gold.Protein.RotatedTorsions>
[ 6907 6896 6895 6894 ] final  106.65 input  -60.11 | X-H torsion
[ 7974 7965 7964 7962 ] final    4.41 input  175.53 | X-H torsion
[ 8008 7997 7996 7995 ] final  -19.76 input   59.86 | X-H torsion
[ 10167 10162 10161 10158 ] final   11.94 input  -65.29 | X-H torsion
[ 10718 10713 10712 10709 ] final   53.46 input   66.30 | X-H torsion
[ 10763 10752 10751 10750 ] final  -11.17 input  -60.55 | X-H torsion
[ 11005 11000 10999 10996 ] final  170.68 input  -57.11 | X-H torsion

> <Gold.Protein.ActiveResidues>
 VAL166  LYS551  ARG553  GLY616  TRP617  ASP618  TYR619  PRO620  LYS621  CYS622 
 ASP623  PHE694  ASN695  SER759  ASP760  ASP761  ALA762  ILE779  LEU786  VAL792 
 PHE793  MET794  SER795  GLU796  ALA797  LYS798  CYS799  TRP800  GLU811  SER814 

> <Gold.Protein.RotatedAtoms>
  152.5185  133.9350  159.7598 H   0  0  0  0  0  0  0  0  0  0  0  0  # atno 6907 bound_to 6896
  150.9692  133.6353  159.2748 H   0  0  0  0  0  0  0  0  0  0  0  0  # atno 6908 bound_to 6896
  151.3571  135.0902  159.9475 H   0  0  0  0  0  0  0  0  0  0  0  0  # atno 6909 bound_to 6896
  146.2444  140.0538  142.8373 H   0  0  0  0  0  0  0  0  0  0  0  0  # atno 7974 bound_to 7965
  154.4815  140.2080  155.9754 H   0  0  0  0  0  0  0  0  0  0  0  0  # atno 8008 bound_to 7997
  156.1171  140.3219  155.8125 H   0  0  0  0  0  0  0  0  0  0  0  0  # atno 8009 bound_to 7997
  155.4533  140.0518  157.2989 H   0  0  0  0  0  0  0  0  0  0  0  0  # atno 8010 bound_to 7997
  140.6100  143.8428  150.7055 H   0  0  0  0  0  0  0  0  0  0  0  0  # atno 10167 bound_to 10162
  157.5169  130.8538  149.8507 H   0  0  0  0  0  0  0  0  0  0  0  0  # atno 10718 bound_to 10713
  153.4799  135.7017  153.5944 H   0  0  0  0  0  0  0  0  0  0  0  0  # atno 10763 bound_to 10752
  153.4162  135.3836  155.2082 H   0  0  0  0  0  0  0  0  0  0  0  0  # atno 10764 bound_to 10752
  154.8722  135.3916  154.4247 H   0  0  0  0  0  0  0  0  0  0  0  0  # atno 10765 bound_to 10752
  140.3110  134.7517  157.3991 H   0  0  0  0  0  0  0  0  0  0  0  0  # atno 11005 bound_to 11000
  145.0960  140.9315  143.4740 LP  0  0  0  0  0  0  0  0  0  0  0  0  # atno 17320 bound_to 7965
  145.0721  139.3024  143.5827 LP  0  0  0  0  0  0  0  0  0  0  0  0  # atno 17321 bound_to 7965
  140.1994  143.3971  152.1803 LP  0  0  0  0  0  0  0  0  0  0  0  0  # atno 17342 bound_to 10162
  139.5354  144.7203  151.4912 LP  0  0  0  0  0  0  0  0  0  0  0  0  # atno 17343 bound_to 10162
  156.0326  130.3760  150.1645 LP  0  0  0  0  0  0  0  0  0  0  0  0  # atno 17370 bound_to 10713
  156.9834  130.9871  151.3432 LP  0  0  0  0  0  0  0  0  0  0  0  0  # atno 17371 bound_to 10713
  140.1025  134.5454  155.8340 LP  0  0  0  0  0  0  0  0  0  0  0  0  # atno 17394 bound_to 11000
  141.2108  133.6699  156.6536 LP  0  0  0  0  0  0  0  0  0  0  0  0  # atno 17395 bound_to 11000

$$$$
