AV-unprocessed.smi:415|AV-procd|sdf|2524|dock8
  -GOLD-   2262022483D 1   1.00000     0.00000
 Structure written by MMmdl.
 53 54  0  0  0  0  0  0  0  0  1 V2000
  145.7378  143.0550  160.8794 C   0  0  0  0  0  0  0  0  0  0  0  0
  145.6639  141.9007  160.0576 O   0  0  0  0  0  0  0  0  0  0  0  0
  146.1161  142.1093  158.7267 C   0  0  0  0  0  0  0  0  0  0  0  0
  146.2820  140.7904  157.9443 C   0  0  0  0  0  0  0  0  0  0  0  0
  147.0627  140.9475  156.7313 N   0  0  0  0  0  0  0  0  0  0  0  0
  146.6851  141.7943  155.6927 C   0  0  0  0  0  0  0  0  0  0  0  0
  145.5039  142.5084  155.7879 N   0  0  0  0  0  0  0  0  0  0  0  0
  147.4536  141.9462  154.5915 C   0  0  0  0  0  0  0  0  0  0  0  0
  148.7174  141.2412  154.4322 C   0  0  0  0  0  0  0  0  0  0  0  0
  149.4368  141.3753  153.4419 O   0  0  0  0  0  0  0  0  0  0  0  0
  149.0842  140.3905  155.4999 N   0  0  0  0  0  0  0  0  0  0  0  0
  150.3756  139.6720  155.4287 C   0  0  0  0  0  0  0  0  0  0  0  0
  151.4415  140.2503  156.3716 C   0  0  0  0  0  0  0  0  0  0  0  0
  152.5727  139.7652  156.4239 O   0  0  0  0  0  0  0  0  0  0  0  0
  151.0563  141.2965  157.1171 N   0  0  0  0  0  0  0  0  0  0  0  0
  151.9090  142.0284  158.0504 C   0  0  2  0  0  0  0  0  0  0  0  0
  152.1556  141.1748  159.3095 C   0  0  0  0  0  0  0  0  0  0  0  0
  153.0717  141.9018  160.3051 C   0  0  0  0  0  0  0  0  0  0  0  0
  152.5239  143.2918  160.6651 C   0  0  0  0  0  0  0  0  0  0  0  0
  152.2748  144.1431  159.4036 C   0  0  2  0  0  0  0  0  0  0  0  0
  151.8275  145.5712  159.7571 C   0  0  0  0  0  0  0  0  0  0  0  0
  151.3266  143.4246  158.4069 C   0  0  2  0  0  0  0  0  0  0  0  0
  149.8559  143.3683  158.8835 C   0  0  0  0  0  0  0  0  0  0  0  0
  148.2870  140.2344  156.6570 C   0  0  0  0  0  0  0  0  0  0  0  0
  148.6649  139.4997  157.5738 O   0  0  0  0  0  0  0  0  0  0  0  0
  145.3575  142.8174  161.8728 H   0  0  0  0  0  0  0  0  0  0  0  0
  145.1426  143.8774  160.4833 H   0  0  0  0  0  0  0  0  0  0  0  0
  146.7690  143.3929  160.9883 H   0  0  0  0  0  0  0  0  0  0  0  0
  145.4427  142.7854  158.1977 H   0  0  0  0  0  0  0  0  0  0  0  0
  147.0768  142.6221  158.7784 H   0  0  0  0  0  0  0  0  0  0  0  0
  146.7084  139.9854  158.5435 H   0  0  0  0  0  0  0  0  0  0  0  0
  145.3114  140.4083  157.6290 H   0  0  0  0  0  0  0  0  0  0  0  0
  144.9012  142.4340  156.5950 H   0  0  0  0  0  0  0  0  0  0  0  0
  145.1552  143.0647  155.0206 H   0  0  0  0  0  0  0  0  0  0  0  0
  147.1330  142.6128  153.8036 H   0  0  0  0  0  0  0  0  0  0  0  0
  150.2341  138.6139  155.6568 H   0  0  0  0  0  0  0  0  0  0  0  0
  150.7824  139.6706  154.4166 H   0  0  0  0  0  0  0  0  0  0  0  0
  150.1074  141.6258  157.0153 H   0  0  0  0  0  0  0  0  0  0  0  0
  152.8782  142.1775  157.5699 H   0  0  0  0  0  0  0  0  0  0  0  0
  151.2090  140.9314  159.7931 H   0  0  0  0  0  0  0  0  0  0  0  0
  152.6091  140.2230  159.0300 H   0  0  0  0  0  0  0  0  0  0  0  0
  153.1898  141.3024  161.2081 H   0  0  0  0  0  0  0  0  0  0  0  0
  154.0675  142.0051  159.8720 H   0  0  0  0  0  0  0  0  0  0  0  0
  151.6022  143.1876  161.2381 H   0  0  0  0  0  0  0  0  0  0  0  0
  153.2329  143.7987  161.3205 H   0  0  0  0  0  0  0  0  0  0  0  0
  153.2367  144.2471  158.8988 H   0  0  0  0  0  0  0  0  0  0  0  0
  150.9179  145.5751  160.3575 H   0  0  0  0  0  0  0  0  0  0  0  0
  151.6410  146.1591  158.8579 H   0  0  0  0  0  0  0  0  0  0  0  0
  152.5971  146.0870  160.3320 H   0  0  0  0  0  0  0  0  0  0  0  0
  151.3250  144.0165  157.4902 H   0  0  0  0  0  0  0  0  0  0  0  0
  149.7484  142.8196  159.8184 H   0  0  0  0  0  0  0  0  0  0  0  0
  149.2126  142.8880  158.1463 H   0  0  0  0  0  0  0  0  0  0  0  0
  149.4478  144.3666  159.0373 H   0  0  0  0  0  0  0  0  0  0  0  0
  1  2  1  0  0  0  0
  1 26  1  0  0  0  0
  1 27  1  0  0  0  0
  1 28  1  0  0  0  0
  2  3  1  0  0  0  0
  3  4  1  0  0  0  0
  3 29  1  0  0  0  0
  3 30  1  0  0  0  0
  4  5  1  0  0  0  0
  4 31  1  0  0  0  0
  4 32  1  0  0  0  0
  5 24  1  0  0  0  0
  5  6  1  0  0  0  0
  6  7  1  0  0  0  0
  6  8  2  0  0  0  0
  7 33  1  0  0  0  0
  7 34  1  0  0  0  0
  8  9  1  0  0  0  0
  8 35  1  0  0  0  0
  9 10  2  0  0  0  0
  9 11  1  0  0  0  0
 11 12  1  0  0  0  0
 11 24  1  0  0  0  0
 12 13  1  0  0  0  0
 12 36  1  0  0  0  0
 12 37  1  0  0  0  0
 13 14  2  0  0  0  0
 13 15  1  0  0  0  0
 15 16  1  0  0  0  0
 15 38  1  0  0  0  0
 16 22  1  0  0  0  0
 16 17  1  0  0  0  0
 16 39  1  0  0  0  0
 17 18  1  0  0  0  0
 17 40  1  0  0  0  0
 17 41  1  0  0  0  0
 18 19  1  0  0  0  0
 18 42  1  0  0  0  0
 18 43  1  0  0  0  0
 19 20  1  0  0  0  0
 19 44  1  0  0  0  0
 19 45  1  0  0  0  0
 20 21  1  0  0  0  0
 20 22  1  0  0  0  0
 20 46  1  0  0  0  0
 21 47  1  0  0  0  0
 21 48  1  0  0  0  0
 21 49  1  0  0  0  0
 22 23  1  0  0  0  0
 22 50  1  0  0  0  0
 23 51  1  0  0  0  0
 23 52  1  0  0  0  0
 23 53  1  0  0  0  0
 24 25  2  0  0  0  0
M  END
> <s_m_source_file>
AV-unprocessed.smi

> <i_m_source_file_index>
415

> <i_lp_mmshare_version>
43012

> <i_f3d_flags>
0

> <s_epik_input>
W0NIM11PW0NIMl1bQ0gyXW4xYyhbTkgyXSlbY0hdYyg9TyluKGMxPU8pW0NIMl1DKD1PKVtOSF1bQ0BASF0yW0NIMl1bQ0gyXVtDSDJdW0NAQEhdKFtDSDNdKVtDQEhdMltDSDNd

> <s_epik_cmdline>
J2VwaWtfcHl0aG9uJywgJy1waCcsICc3LjAnLCAnLXRuJywgJzgnLCAnLW1hJywgJzIwMCcsICctbWV0YWxfYmluZGluZycsICctaW1hZScsICc8aW5maWxlLm1hZT4nLCAnLW9tYWUnLCAnPG91dGZpbGUubWFlPic=

> <r_lp_tautomer_probability>
1

> <r_epik_Ionization_Penalty>
8.6647e-06

> <r_epik_Ionization_Penalty_Charging>
1.81162e-08

> <r_epik_Ionization_Penalty_Neutral>
8.64658e-06

> <r_epik_State_Penalty>
-0

> <r_epik_Charging_Adjusted_Penalty>
1.81162e-08

> <i_epik_Tot_Q>
0

> <i_epik_Tot_abs_Q>
0

> <r_epik_Metal_State_Penalty>
-0

> <b_epik_Metal_Only>
0

> <s_lp_Force_Field>
OPLS_2005

> <r_lp_Energy>
23.9123

> <b_lp_Chiralities_Consistent>
1

> <s_lp_Variant>
AV-unprocessed.smi:415-7

> <Gold.Version>
5.8.1

> <Gold.Id.Protein>
6NUR|6NUR_protein|mol2

> <Gold.PLP.Fitness>
51.7149

> <Gold.PLP.PLP>
-43.4346

> <Gold.PLP.part.hbond>
-3.7789

> <Gold.PLP.part.metal>
0.0000

> <Gold.PLP.part.buried>
-6.0077

> <Gold.PLP.part.nonpolar>
-36.7357

> <Gold.PLP.part.repulsive>
3.4798

> <Gold.PLP.ligand.clash>
0.0000

> <Gold.PLP.ligand.torsion>
0.4342

> <Gold.PLP.Chemscore.Hbond>
3.0166

> <Gold.PLP.Chemscore.CHOScore>
0.0000

> <Gold.PLP.Chemscore.Metal>
0.0000

> <Gold.Chemscore.Hbonds>
donor molecule, donor type, donor heavy atom, donor atom, acceptor molecule, acceptor atom, score
      P1  H  6934  6946       L1     2  1.00
      P1  H  7989  7998       L1    10  0.05
      P1  H  7997  8008       L1    14  1.00
      P1  H  8011  8017       L1    10  0.96

> <Gold.PLP.Chemscore.Internal.Correction>
0.0990

> <Gold.Rescore>
     Score         DG    S(hbond)    S(metal)    S(lipo)     H(rot)  DE(clash)    DE(int)     intcor
     18.93     -21.21       2.94        0.00     100.11       2.26       1.71       0.58       ----

> <Gold.Chemscore.Fitness>
18.9257

> <Gold.Chemscore.DG>
-21.2143

> <Gold.Chemscore.ZeroCoef>
-5.4800

> <Gold.Chemscore.Hbond>
2.9399

> <Gold.Chemscore.Metal>
0.0000

> <Gold.Chemscore.Lipo>
100.1058

> <Gold.Chemscore.Internal_Hbond>
0.0000

> <Gold.Chemscore.DEClash>
1.7053

> <Gold.Chemscore.DEInternal>
0.5834

> <Gold.Chemscore.Rot>
2.2645

> <Gold.Chemscore.Internal.Correction>
   9.000000E+99

> <Gold.Chemscore.Hbonds>
donor molecule, donor type, donor heavy atom, donor atom, acceptor molecule, acceptor atom, score
      P1  H  6934  6946       L1     2  0.18
      P1  H  7989  7998       L1    10  0.07
      P1  H  7997  8008       L1    14  1.00
      P1  H  8011  8017       L1    10  0.89

> <Gold.Chemscore.Hbond.Weighted>
-9.8191

> <Gold.Chemscore.Metal.Weighted>
-0.0000

> <Gold.Chemscore.Lipo.Weighted>
-11.7124

> <Gold.Chemscore.Internal_Hbond.Weighted>
0.0000

> <Gold.Chemscore.DEClash.Weighted>
1.7053

> <Gold.Chemscore.DEInternal.Weighted>
0.5834

> <Gold.Chemscore.Rot.Weighted>
5.7972

> <Gold.Chemscore.Internal.Correction.Weighted>
   9.000000E+99

> <Gold.Protein.RotatedTorsions>
[ 6907 6896 6895 6894 ] final  132.63 input  -60.11 | X-H torsion
[ 7974 7965 7964 7962 ] final   36.88 input  175.53 | X-H torsion
[ 8008 7997 7996 7995 ] final  -44.87 input   59.86 | X-H torsion
[ 10167 10162 10161 10158 ] final -109.54 input  -65.29 | X-H torsion
[ 10718 10713 10712 10709 ] final   89.39 input   66.30 | X-H torsion
[ 10763 10752 10751 10750 ] final  170.09 input  -60.55 | X-H torsion
[ 11005 11000 10999 10996 ] final  -93.58 input  -57.11 | X-H torsion

> <Gold.Protein.ActiveResidues>
 VAL166  LYS551  ARG553  GLY616  TRP617  ASP618  TYR619  PRO620  LYS621  CYS622 
 ASP623  PHE694  ASN695  SER759  ASP760  ASP761  ALA762  ILE779  LEU786  VAL792 
 PHE793  MET794  SER795  GLU796  ALA797  LYS798  CYS799  TRP800  GLU811  SER814 

> <Gold.Protein.RotatedAtoms>
  152.3304  133.5952  159.5805 H   0  0  0  0  0  0  0  0  0  0  0  0  # atno 6907 bound_to 6896
  150.7420  133.9877  159.3605 H   0  0  0  0  0  0  0  0  0  0  0  0  # atno 6908 bound_to 6896
  151.7752  135.0776  160.0417 H   0  0  0  0  0  0  0  0  0  0  0  0  # atno 6909 bound_to 6896
  146.1179  139.5963  142.9309 H   0  0  0  0  0  0  0  0  0  0  0  0  # atno 7974 bound_to 7965
  154.3998  140.1411  156.3753 H   0  0  0  0  0  0  0  0  0  0  0  0  # atno 8008 bound_to 7997
  155.8054  140.3474  155.5406 H   0  0  0  0  0  0  0  0  0  0  0  0  # atno 8009 bound_to 7997
  155.8441  140.0931  157.1706 H   0  0  0  0  0  0  0  0  0  0  0  0  # atno 8010 bound_to 7997
  140.1542  143.4174  152.1473 H   0  0  0  0  0  0  0  0  0  0  0  0  # atno 10167 bound_to 10162
  157.6955  131.0331  150.3419 H   0  0  0  0  0  0  0  0  0  0  0  0  # atno 10718 bound_to 10713
  154.3925  135.2754  155.2146 H   0  0  0  0  0  0  0  0  0  0  0  0  # atno 10763 bound_to 10752
  154.4206  135.6001  153.6011 H   0  0  0  0  0  0  0  0  0  0  0  0  # atno 10764 bound_to 10752
  152.9832  135.5971  154.4182 H   0  0  0  0  0  0  0  0  0  0  0  0  # atno 10765 bound_to 10752
  141.1493  133.7897  157.0179 H   0  0  0  0  0  0  0  0  0  0  0  0  # atno 11005 bound_to 11000
  145.5528  141.0412  143.2269 LP  0  0  0  0  0  0  0  0  0  0  0  0  # atno 17320 bound_to 7965
  144.7570  139.7050  143.7250 LP  0  0  0  0  0  0  0  0  0  0  0  0  # atno 17321 bound_to 7965
  139.5411  144.7257  151.4729 LP  0  0  0  0  0  0  0  0  0  0  0  0  # atno 17342 bound_to 10162
  140.6684  143.8348  150.6969 LP  0  0  0  0  0  0  0  0  0  0  0  0  # atno 17343 bound_to 10162
  156.3879  130.3892  149.7052 LP  0  0  0  0  0  0  0  0  0  0  0  0  # atno 17370 bound_to 10713
  156.4412  130.7862  151.2883 LP  0  0  0  0  0  0  0  0  0  0  0  0  # atno 17371 bound_to 10713
  140.0835  134.9634  157.1662 LP  0  0  0  0  0  0  0  0  0  0  0  0  # atno 17394 bound_to 11000
  140.3544  134.2563  155.7194 LP  0  0  0  0  0  0  0  0  0  0  0  0  # atno 17395 bound_to 11000

$$$$
