AV-unprocessed.smi:157|AV-procd|sdf|1297|dock6
  -GOLD-   2262018583D 1   1.00000     0.00000
 Structure written by MMmdl.
 35 37  0  0  0  0  0  0  0  0  1 V2000
  151.7744  142.6097  161.6602 O   0  0  0  0  0  0  0  0  0  0  0  0
  152.7980  142.2962  160.7402 C   0  0  0  0  0  0  0  0  0  0  0  0
  152.2742  142.4391  159.3035 C   0  0  1  0  0  0  0  0  0  0  0  0
  151.0872  141.6688  159.1418 O   0  0  0  0  0  0  0  0  0  0  0  0
  150.3066  142.2006  158.1113 C   0  0  2  0  0  0  0  0  0  0  0  0
  150.4052  141.3049  156.9120 N   0  0  0  0  0  0  0  0  0  0  0  0
  151.5247  140.8944  156.2995 C   0  0  0  0  0  0  0  0  0  0  0  0
  151.3235  140.1117  155.2527 N   0  0  0  0  0  0  0  0  0  0  0  0
  149.9367  139.9971  155.1802 C   0  0  0  0  0  0  0  0  0  0  0  0
  149.3482  140.7270  156.2028 C   0  0  0  0  0  0  0  0  0  0  0  0
  148.0586  140.9938  156.6220 N   0  0  0  0  0  0  0  0  0  0  0  0
  147.1111  140.2118  156.2101 C   0  0  0  0  0  0  0  0  0  0  0  0
  147.1478  139.1580  155.3080 N   0  0  0  0  0  0  0  0  0  0  0  0
  147.7871  139.2440  154.0060 C   0  0  0  0  0  0  0  0  0  0  0  0
  149.3187  139.1955  154.0713 C   0  0  2  0  0  0  0  0  0  0  0  0
  149.7362  137.8568  154.2461 O   0  0  0  0  0  0  0  0  0  0  0  0
  150.8771  143.5848  157.7789 C   0  0  0  0  0  0  0  0  0  0  0  0
  151.7835  143.8473  158.9656 C   0  0  2  0  0  0  0  0  0  0  0  0
  152.8395  144.7182  158.6149 O   0  0  0  0  0  0  0  0  0  0  0  0
  153.0215  142.1223  158.5728 H   0  0  0  0  0  0  0  0  0  0  0  0
  149.2528  142.2006  158.3917 H   0  0  0  0  0  0  0  0  0  0  0  0
  149.7151  139.5265  153.1109 H   0  0  0  0  0  0  0  0  0  0  0  0
  151.2084  144.2643  159.7938 H   0  0  0  0  0  0  0  0  0  0  0  0
  152.1642  143.0297  162.4116 H   0  0  0  0  0  0  0  0  0  0  0  0
  153.6705  142.9278  160.9096 H   0  0  0  0  0  0  0  0  0  0  0  0
  153.1024  141.2661  160.9284 H   0  0  0  0  0  0  0  0  0  0  0  0
  152.5157  141.1773  156.6224 H   0  0  0  0  0  0  0  0  0  0  0  0
  146.1043  140.3692  156.5995 H   0  0  0  0  0  0  0  0  0  0  0  0
  146.3731  138.5103  155.2930 H   0  0  0  0  0  0  0  0  0  0  0  0
  147.4015  138.4623  153.3508 H   0  0  0  0  0  0  0  0  0  0  0  0
  147.4842  140.1921  153.5588 H   0  0  0  0  0  0  0  0  0  0  0  0
  149.5572  137.3854  153.4464 H   0  0  0  0  0  0  0  0  0  0  0  0
  151.4490  143.5377  156.8500 H   0  0  0  0  0  0  0  0  0  0  0  0
  150.0815  144.3221  157.6674 H   0  0  0  0  0  0  0  0  0  0  0  0
  153.4682  144.2358  158.0997 H   0  0  0  0  0  0  0  0  0  0  0  0
  1  2  1  0  0  0  0
  1 24  1  0  0  0  0
  2  3  1  0  0  0  0
  2 25  1  0  0  0  0
  2 26  1  0  0  0  0
  3 20  1  0  0  0  0
  3 18  1  0  0  0  0
  3  4  1  0  0  0  0
  4  5  1  0  0  0  0
  5 21  1  0  0  0  0
  5  6  1  0  0  0  0
  5 17  1  0  0  0  0
  6 10  1  0  0  0  0
  6  7  1  0  0  0  0
  7  8  2  0  0  0  0
  7 27  1  0  0  0  0
  8  9  1  0  0  0  0
  9 15  1  0  0  0  0
  9 10  2  0  0  0  0
 10 11  1  0  0  0  0
 11 12  2  0  0  0  0
 12 13  1  0  0  0  0
 12 28  1  0  0  0  0
 13 14  1  0  0  0  0
 13 29  1  0  0  0  0
 14 15  1  0  0  0  0
 14 30  1  0  0  0  0
 14 31  1  0  0  0  0
 15 22  1  0  0  0  0
 15 16  1  0  0  0  0
 16 32  1  0  0  0  0
 17 18  1  0  0  0  0
 17 33  1  0  0  0  0
 17 34  1  0  0  0  0
 18 23  1  0  0  0  0
 18 19  1  0  0  0  0
 19 35  1  0  0  0  0
M  END
> <s_m_source_file>
AV-unprocessed.smi

> <i_m_source_file_index>
157

> <i_lp_mmshare_version>
43012

> <i_f3d_flags>
0

> <s_epik_input>
W09IXVtDSDJdW0NASF0xT1tDQEhdKFtDSDJdW0NAQEhdMVtPSF0pbihbY0hdbjIpYyhjMjMpTj1bQ0hdW05IXVtDSDJdW0NASF0zW09IXQ==

> <s_epik_cmdline>
J2VwaWtfcHl0aG9uJywgJy1waCcsICc3LjAnLCAnLXRuJywgJzgnLCAnLW1hJywgJzIwMCcsICctbWV0YWxfYmluZGluZycsICctaW1hZScsICc8aW5maWxlLm1hZT4nLCAnLW9tYWUnLCAnPG91dGZpbGUubWFlPic=

> <r_lp_tautomer_probability>
1

> <r_epik_Ionization_Penalty>
0.0357149

> <r_epik_Ionization_Penalty_Charging>
0.0355056

> <r_epik_Ionization_Penalty_Neutral>
0.000209255

> <r_epik_State_Penalty>
0.0296046

> <r_epik_Charging_Adjusted_Penalty>
0.0651102

> <i_epik_Tot_Q>
0

> <i_epik_Tot_abs_Q>
0

> <r_epik_Metal_State_Penalty>
3.03559e-05

> <b_epik_Metal_Only>
0

> <s_epik_Chemistry_Notes>
This compound has an imine and may undergo hydrolysis. This compound contains an acetal/aminal-like group ( X-CH(R)-Y where X, Y are N, S, or O) that may be acid/base labile, releasing an aldehyde.

> <s_lp_Force_Field>
OPLS_2005

> <r_lp_Energy>
44.0158

> <b_lp_Chiralities_Consistent>
1

> <s_lp_Variant>
AV-unprocessed.smi:157-7

> <Gold.Version>
5.8.1

> <Gold.Id.Protein>
6NUR|6NUR_protein|mol2

> <Gold.PLP.Fitness>
37.9283

> <Gold.PLP.PLP>
-29.9078

> <Gold.PLP.part.hbond>
-3.4372

> <Gold.PLP.part.metal>
0.0000

> <Gold.PLP.part.buried>
-3.4772

> <Gold.PLP.part.nonpolar>
-23.1524

> <Gold.PLP.part.repulsive>
0.0793

> <Gold.PLP.ligand.clash>
0.0000

> <Gold.PLP.ligand.torsion>
0.0553

> <Gold.PLP.Chemscore.Hbond>
2.7040

> <Gold.PLP.Chemscore.CHOScore>
0.0000

> <Gold.PLP.Chemscore.Metal>
0.0000

> <Gold.Chemscore.Hbonds>
donor molecule, donor type, donor heavy atom, donor atom, acceptor molecule, acceptor atom, score
      L1  H    16    32       P1  7948  1.00
      P1  H  6933  6945       L1     1  0.69
      P1  H  7989  7998       L1     8  0.95

> <Gold.PLP.Chemscore.Internal.Correction>
0.0191

> <Gold.Rescore>
     Score         DG    S(hbond)    S(metal)    S(lipo)     H(rot)  DE(clash)    DE(int)     intcor
     10.50     -10.53       2.27        0.00      57.88       3.64       0.02       0.01       ----

> <Gold.Chemscore.Fitness>
10.4993

> <Gold.Chemscore.DG>
-10.5296

> <Gold.Chemscore.ZeroCoef>
-5.4800

> <Gold.Chemscore.Hbond>
2.2714

> <Gold.Chemscore.Metal>
0.0000

> <Gold.Chemscore.Lipo>
57.8779

> <Gold.Chemscore.Internal_Hbond>
0.0000

> <Gold.Chemscore.DEClash>
0.0166

> <Gold.Chemscore.DEInternal>
0.0137

> <Gold.Chemscore.Rot>
3.6362

> <Gold.Chemscore.Internal.Correction>
   9.000000E+99

> <Gold.Chemscore.Hbonds>
donor molecule, donor type, donor heavy atom, donor atom, acceptor molecule, acceptor atom, score
      L1  H    16    32       P1  7948  0.83
      P1  H  6933  6945       L1     1  0.44
      P1  H  7989  7998       L1     8  0.20

> <Gold.Chemscore.Hbond.Weighted>
-7.5866

> <Gold.Chemscore.Metal.Weighted>
-0.0000

> <Gold.Chemscore.Lipo.Weighted>
-6.7717

> <Gold.Chemscore.Internal_Hbond.Weighted>
0.0000

> <Gold.Chemscore.DEClash.Weighted>
0.0166

> <Gold.Chemscore.DEInternal.Weighted>
0.0137

> <Gold.Chemscore.Rot.Weighted>
9.3087

> <Gold.Chemscore.Internal.Correction.Weighted>
   9.000000E+99

> <Gold.Protein.RotatedTorsions>
[ 6907 6896 6895 6894 ] final  -34.85 input  -60.11 | X-H torsion
[ 7974 7965 7964 7962 ] final -164.18 input  175.53 | X-H torsion
[ 8008 7997 7996 7995 ] final  161.22 input   59.86 | X-H torsion
[ 10167 10162 10161 10158 ] final  -24.18 input  -65.29 | X-H torsion
[ 10718 10713 10712 10709 ] final -125.44 input   66.30 | X-H torsion
[ 10763 10752 10751 10750 ] final -163.42 input  -60.55 | X-H torsion
[ 11005 11000 10999 10996 ] final  -52.44 input  -57.11 | X-H torsion

> <Gold.Protein.ActiveResidues>
 VAL166  LYS551  ARG553  GLY616  TRP617  ASP618  TYR619  PRO620  LYS621  CYS622 
 ASP623  PHE694  ASN695  SER759  ASP760  ASP761  ALA762  ILE779  LEU786  VAL792 
 PHE793  MET794  SER795  GLU796  ALA797  LYS798  CYS799  TRP800  GLU811  SER814 

> <Gold.Protein.RotatedAtoms>
  151.0473  134.9648  159.8192 H   0  0  0  0  0  0  0  0  0  0  0  0  # atno 6907 bound_to 6896
  152.5374  134.2582  159.8935 H   0  0  0  0  0  0  0  0  0  0  0  0  # atno 6908 bound_to 6896
  151.2596  133.4266  159.2649 H   0  0  0  0  0  0  0  0  0  0  0  0  # atno 6909 bound_to 6896
  144.7304  140.2998  143.6206 H   0  0  0  0  0  0  0  0  0  0  0  0  # atno 7974 bound_to 7965
  156.2118  140.1783  156.7678 H   0  0  0  0  0  0  0  0  0  0  0  0  # atno 8008 bound_to 7997
  154.5733  140.0678  156.9027 H   0  0  0  0  0  0  0  0  0  0  0  0  # atno 8009 bound_to 7997
  155.2633  140.3337  155.4274 H   0  0  0  0  0  0  0  0  0  0  0  0  # atno 8010 bound_to 7997
  140.7288  143.4376  151.0705 H   0  0  0  0  0  0  0  0  0  0  0  0  # atno 10167 bound_to 10162
  156.1675  130.6645  151.0135 H   0  0  0  0  0  0  0  0  0  0  0  0  # atno 10718 bound_to 10713
  154.7123  135.3009  154.9177 H   0  0  0  0  0  0  0  0  0  0  0  0  # atno 10763 bound_to 10752
  154.0075  135.6699  153.4767 H   0  0  0  0  0  0  0  0  0  0  0  0  # atno 10764 bound_to 10752
  153.0765  135.5032  154.8329 H   0  0  0  0  0  0  0  0  0  0  0  0  # atno 10765 bound_to 10752
  141.0924  133.6630  156.4024 H   0  0  0  0  0  0  0  0  0  0  0  0  # atno 11005 bound_to 11000
  145.7772  139.1878  143.2178 LP  0  0  0  0  0  0  0  0  0  0  0  0  # atno 17320 bound_to 7965
  146.0863  140.7707  142.9617 LP  0  0  0  0  0  0  0  0  0  0  0  0  # atno 17321 bound_to 7965
  139.8040  143.8044  152.3165 LP  0  0  0  0  0  0  0  0  0  0  0  0  # atno 17342 bound_to 10162
  139.8070  144.7351  150.9748 LP  0  0  0  0  0  0  0  0  0  0  0  0  # atno 17343 bound_to 10162
  157.6779  131.0846  150.7447 LP  0  0  0  0  0  0  0  0  0  0  0  0  # atno 17370 bound_to 10713
  156.7508  130.4768  149.5457 LP  0  0  0  0  0  0  0  0  0  0  0  0  # atno 17371 bound_to 10713
  140.5220  134.6295  157.5321 LP  0  0  0  0  0  0  0  0  0  0  0  0  # atno 17394 bound_to 11000
  139.9753  134.7225  155.9962 LP  0  0  0  0  0  0  0  0  0  0  0  0  # atno 17395 bound_to 11000

$$$$
