AV-unprocessed.smi:2450|AV-procd|sdf|9665|dock2
  -GOLD-   2272013303D 1   1.00000     0.00000
 Structure written by MMmdl.
 41 42  0  0  0  0  0  0  0  0  1 V2000
  143.8883  143.8004  162.8181 C   0  0  0  0  0  0  0  0  0  0  0  0
  145.1946  143.7191  162.0145 C   0  0  0  0  0  0  0  0  0  0  0  0
  145.0417  144.1428  160.5417 C   0  0  2  0  0  0  0  0  0  0  0  0
  143.8498  143.4433  159.8707 C   0  0  0  0  0  0  0  0  0  0  0  0
  146.2674  143.8491  159.8025 N   0  0  0  0  0  0  0  0  0  0  0  0
  147.4763  144.3693  160.0571 C   0  0  0  0  0  0  0  0  0  0  0  0
  147.6973  145.1718  160.9641 O   0  0  0  0  0  0  0  0  0  0  0  0
  148.3964  143.8855  159.2059 N   0  0  0  0  0  0  0  0  0  0  0  0
  149.7991  144.1290  159.1857 C   0  0  0  0  0  0  0  0  0  0  0  0
  150.3967  145.1103  160.0144 C   0  0  0  0  0  0  0  0  0  0  0  0
  151.7760  145.3579  159.9060 C   0  0  0  0  0  0  0  0  0  0  0  0
  152.5101  144.6261  158.9583 C   0  0  0  0  0  0  0  0  0  0  0  0
  151.9546  143.6995  158.1524 N   0  0  0  0  0  0  0  0  0  0  0  0
  150.6279  143.4386  158.2552 C   0  0  0  0  0  0  0  0  0  0  0  0
  150.1042  142.4478  157.3928 N   0  0  0  0  0  0  0  0  0  0  0  0
  150.8645  142.0012  156.2306 C   0  0  0  0  0  0  0  0  0  0  0  0
  150.1826  140.7109  155.7859 C   0  0  0  0  0  0  0  0  0  0  0  0
  149.7622  140.0909  157.1149 C   0  0  0  0  0  0  0  0  0  0  0  0
  149.4265  141.3018  157.9923 C   0  0  0  0  0  0  0  0  0  0  0  0
  144.0406  143.4498  163.8388 H   0  0  0  0  0  0  0  0  0  0  0  0
  143.1110  143.1825  162.3678 H   0  0  0  0  0  0  0  0  0  0  0  0
  143.5134  144.8226  162.8740 H   0  0  0  0  0  0  0  0  0  0  0  0
  145.9546  144.3331  162.4994 H   0  0  0  0  0  0  0  0  0  0  0  0
  145.5633  142.6935  162.0550 H   0  0  0  0  0  0  0  0  0  0  0  0
  144.8558  145.2184  160.5248 H   0  0  0  0  0  0  0  0  0  0  0  0
  142.9198  143.6639  160.3950 H   0  0  0  0  0  0  0  0  0  0  0  0
  143.9784  142.3604  159.8618 H   0  0  0  0  0  0  0  0  0  0  0  0
  143.7297  143.7733  158.8383 H   0  0  0  0  0  0  0  0  0  0  0  0
  146.1868  143.1944  159.0383 H   0  0  0  0  0  0  0  0  0  0  0  0
  148.0759  143.1725  158.5669 H   0  0  0  0  0  0  0  0  0  0  0  0
  149.8190  145.6942  160.7140 H   0  0  0  0  0  0  0  0  0  0  0  0
  152.2560  146.1005  160.5259 H   0  0  0  0  0  0  0  0  0  0  0  0
  153.5702  144.7930  158.8390 H   0  0  0  0  0  0  0  0  0  0  0  0
  150.8641  142.7532  155.4411 H   0  0  0  0  0  0  0  0  0  0  0  0
  151.8993  141.7888  156.5026 H   0  0  0  0  0  0  0  0  0  0  0  0
  149.3010  140.9410  155.1860 H   0  0  0  0  0  0  0  0  0  0  0  0
  150.8357  140.0649  155.1990 H   0  0  0  0  0  0  0  0  0  0  0  0
  148.9284  139.3956  157.0157 H   0  0  0  0  0  0  0  0  0  0  0  0
  150.6036  139.5475  157.5465 H   0  0  0  0  0  0  0  0  0  0  0  0
  149.7307  141.1399  159.0275 H   0  0  0  0  0  0  0  0  0  0  0  0
  148.3511  141.4811  157.9795 H   0  0  0  0  0  0  0  0  0  0  0  0
  1  2  1  0  0  0  0
  1 20  1  0  0  0  0
  1 21  1  0  0  0  0
  1 22  1  0  0  0  0
  2  3  1  0  0  0  0
  2 23  1  0  0  0  0
  2 24  1  0  0  0  0
  3  4  1  0  0  0  0
  3  5  1  0  0  0  0
  3 25  1  0  0  0  0
  4 26  1  0  0  0  0
  4 27  1  0  0  0  0
  4 28  1  0  0  0  0
  5  6  1  0  0  0  0
  5 29  1  0  0  0  0
  6  7  2  0  0  0  0
  6  8  1  0  0  0  0
  8  9  1  0  0  0  0
  8 30  1  0  0  0  0
  9 14  1  0  0  0  0
  9 10  2  0  0  0  0
 10 11  1  0  0  0  0
 10 31  1  0  0  0  0
 11 12  2  0  0  0  0
 11 32  1  0  0  0  0
 12 13  1  0  0  0  0
 12 33  1  0  0  0  0
 13 14  2  0  0  0  0
 14 15  1  0  0  0  0
 15 19  1  0  0  0  0
 15 16  1  0  0  0  0
 16 17  1  0  0  0  0
 16 34  1  0  0  0  0
 16 35  1  0  0  0  0
 17 18  1  0  0  0  0
 17 36  1  0  0  0  0
 17 37  1  0  0  0  0
 18 19  1  0  0  0  0
 18 38  1  0  0  0  0
 18 39  1  0  0  0  0
 19 40  1  0  0  0  0
 19 41  1  0  0  0  0
M  END
> <s_m_source_file>
AV-unprocessed.smi

> <i_m_source_file_index>
2450

> <i_lp_mmshare_version>
43012

> <i_f3d_flags>
0

> <s_epik_input>
W0NIM11bQ0gyXVtDQEhdKFtDSDNdKVtOSF1DKD1PKVtOSF1jMVtjSF1bY0hdW2NIXW5jMU4yW0NIMl1bQ0gyXVtDSDJdW0NIMl0y

> <s_epik_cmdline>
J2VwaWtfcHl0aG9uJywgJy1waCcsICc3LjAnLCAnLXRuJywgJzgnLCAnLW1hJywgJzIwMCcsICctbWV0YWxfYmluZGluZycsICctaW1hZScsICc8aW5maWxlLm1hZT4nLCAnLW9tYWUnLCAnPG91dGZpbGUubWFlPic=

> <r_lp_tautomer_probability>
1

> <r_epik_Ionization_Penalty>
0.103391

> <r_epik_Ionization_Penalty_Charging>
0

> <r_epik_Ionization_Penalty_Neutral>
0.103391

> <r_epik_State_Penalty>
0.0927616

> <r_epik_Charging_Adjusted_Penalty>
0.0927616

> <i_epik_Tot_Q>
0

> <i_epik_Tot_abs_Q>
0

> <r_epik_Metal_State_Penalty>
0.0789158

> <b_epik_Metal_Only>
0

> <s_lp_Force_Field>
OPLS_2005

> <r_lp_Energy>
32.2235

> <b_lp_Chiralities_Consistent>
1

> <s_lp_Variant>
AV-unprocessed.smi:2450-1

> <Gold.Version>
5.8.1

> <Gold.Id.Protein>
6NUR|6NUR_protein|mol2

> <Gold.PLP.Fitness>
36.4763

> <Gold.PLP.PLP>
-36.6958

> <Gold.PLP.part.hbond>
-1.0000

> <Gold.PLP.part.metal>
0.0000

> <Gold.PLP.part.buried>
-7.5226

> <Gold.PLP.part.nonpolar>
-29.1559

> <Gold.PLP.part.repulsive>
0.7822

> <Gold.PLP.ligand.clash>
0.0000

> <Gold.PLP.ligand.torsion>
0.2810

> <Gold.PLP.Chemscore.Hbond>
0.0000

> <Gold.PLP.Chemscore.CHOScore>
0.0000

> <Gold.PLP.Chemscore.Metal>
0.0000

> <Gold.PLP.Chemscore.Internal.Correction>
0.3425

> <Gold.Rescore>
     Score         DG    S(hbond)    S(metal)    S(lipo)     H(rot)  DE(clash)    DE(int)     intcor
     11.06     -12.77       0.00        0.00      91.09       1.32       0.02       1.69       ----

> <Gold.Chemscore.Fitness>
11.0637

> <Gold.Chemscore.DG>
-12.7677

> <Gold.Chemscore.ZeroCoef>
-5.4800

> <Gold.Chemscore.Hbond>
0.0000

> <Gold.Chemscore.Metal>
0.0000

> <Gold.Chemscore.Lipo>
91.0878

> <Gold.Chemscore.Internal_Hbond>
0.0000

> <Gold.Chemscore.DEClash>
0.0186

> <Gold.Chemscore.DEInternal>
1.6853

> <Gold.Chemscore.Rot>
1.3163

> <Gold.Chemscore.Internal.Correction>
   9.000000E+99

> <Gold.Chemscore.Hbond.Weighted>
-0.0000

> <Gold.Chemscore.Metal.Weighted>
-0.0000

> <Gold.Chemscore.Lipo.Weighted>
-10.6573

> <Gold.Chemscore.Internal_Hbond.Weighted>
0.0000

> <Gold.Chemscore.DEClash.Weighted>
0.0186

> <Gold.Chemscore.DEInternal.Weighted>
1.6853

> <Gold.Chemscore.Rot.Weighted>
3.3696

> <Gold.Chemscore.Internal.Correction.Weighted>
   9.000000E+99

> <Gold.Protein.RotatedTorsions>
[ 6907 6896 6895 6894 ] final  -80.93 input  -60.11 | X-H torsion
[ 7974 7965 7964 7962 ] final -113.63 input  175.53 | X-H torsion
[ 8008 7997 7996 7995 ] final -110.98 input   59.86 | X-H torsion
[ 10167 10162 10161 10158 ] final  147.81 input  -65.29 | X-H torsion
[ 10718 10713 10712 10709 ] final  121.61 input   66.30 | X-H torsion
[ 10763 10752 10751 10750 ] final   63.87 input  -60.55 | X-H torsion
[ 11005 11000 10999 10996 ] final -103.19 input  -57.11 | X-H torsion

> <Gold.Protein.ActiveResidues>
 VAL166  LYS551  ARG553  GLY616  TRP617  ASP618  TYR619  PRO620  LYS621  CYS622 
 ASP623  PHE694  ASN695  SER759  ASP760  ASP761  ALA762  ILE779  LEU786  VAL792 
 PHE793  MET794  SER795  GLU796  ALA797  LYS798  CYS799  TRP800  GLU811  SER814 

> <Gold.Protein.RotatedAtoms>
  150.6920  134.3894  159.5069 H   0  0  0  0  0  0  0  0  0  0  0  0  # atno 6907 bound_to 6896
  152.1685  134.8851  160.0545 H   0  0  0  0  0  0  0  0  0  0  0  0  # atno 6908 bound_to 6896
  151.9886  133.3748  159.4172 H   0  0  0  0  0  0  0  0  0  0  0  0  # atno 6909 bound_to 6896
  145.1297  140.8717  143.3765 H   0  0  0  0  0  0  0  0  0  0  0  0  # atno 7974 bound_to 7965
  154.9828  140.0396  157.2285 H   0  0  0  0  0  0  0  0  0  0  0  0  # atno 8008 bound_to 7997
  154.7699  140.2800  155.6124 H   0  0  0  0  0  0  0  0  0  0  0  0  # atno 8009 bound_to 7997
  156.2919  140.2612  156.2498 H   0  0  0  0  0  0  0  0  0  0  0  0  # atno 8010 bound_to 7997
  139.4884  144.5727  151.7024 H   0  0  0  0  0  0  0  0  0  0  0  0  # atno 10167 bound_to 10162
  157.5805  131.1075  150.8197 H   0  0  0  0  0  0  0  0  0  0  0  0  # atno 10718 bound_to 10713
  153.0034  135.5413  154.6420 H   0  0  0  0  0  0  0  0  0  0  0  0  # atno 10763 bound_to 10752
  154.5673  135.2838  155.0864 H   0  0  0  0  0  0  0  0  0  0  0  0  # atno 10764 bound_to 10752
  154.2043  135.6478  153.5149 H   0  0  0  0  0  0  0  0  0  0  0  0  # atno 10765 bound_to 10752
  141.1156  133.8620  157.1455 H   0  0  0  0  0  0  0  0  0  0  0  0  # atno 11005 bound_to 11000
  145.0649  139.3076  143.5861 LP  0  0  0  0  0  0  0  0  0  0  0  0  # atno 17320 bound_to 7965
  146.3515  140.0104  142.8667 LP  0  0  0  0  0  0  0  0  0  0  0  0  # atno 17321 bound_to 7965
  140.5318  144.0719  150.6056 LP  0  0  0  0  0  0  0  0  0  0  0  0  # atno 17342 bound_to 10162
  140.3711  143.2854  152.0276 LP  0  0  0  0  0  0  0  0  0  0  0  0  # atno 17343 bound_to 10162
  156.8644  130.5124  149.5301 LP  0  0  0  0  0  0  0  0  0  0  0  0  # atno 17370 bound_to 10713
  156.0850  130.5851  150.9632 LP  0  0  0  0  0  0  0  0  0  0  0  0  # atno 17371 bound_to 10713
  140.0077  135.0001  157.0328 LP  0  0  0  0  0  0  0  0  0  0  0  0  # atno 17394 bound_to 11000
  140.4654  134.1441  155.7196 LP  0  0  0  0  0  0  0  0  0  0  0  0  # atno 17395 bound_to 11000

$$$$
