AV-unprocessed.smi:2779|AV-procd|sdf|10712|dock2
  -GOLD-   2272015153D 1   1.00000     0.00000
 Structure written by MMmdl.
 38 39  0  0  0  0  0  0  0  0  1 V2000
  153.1703  138.9120  159.5807 O   0  0  0  0  0  0  0  0  0  0  0  0
  152.9057  140.1120  159.5142 C   0  0  0  0  0  0  0  0  0  0  0  0
  153.4070  141.0959  160.4707 C   0  0  0  0  0  0  0  0  0  0  0  0
  153.1023  142.4071  160.3668 C   0  0  0  0  0  0  0  0  0  0  0  0
  152.2519  142.8605  159.2789 C   0  0  0  0  0  0  0  0  0  0  0  0
  151.8559  144.3022  159.0757 C   0  0  0  0  0  0  0  0  0  0  0  0
  150.5367  144.4207  158.9223 F   0  0  0  0  0  0  0  0  0  0  0  0
  152.2268  145.0322  160.1280 F   0  0  0  0  0  0  0  0  0  0  0  0
  152.4540  144.7924  157.9895 F   0  0  0  0  0  0  0  0  0  0  0  0
  151.8027  141.9934  158.4297 N   0  0  0  0  0  0  0  0  0  0  0  0
  152.1183  140.6494  158.5377 N   0  0  0  0  0  0  0  0  0  0  0  0
  151.5487  139.8147  157.4736 C   0  0  0  0  0  0  0  0  0  0  0  0
  151.2119  140.6444  156.2148 C   0  0  1  0  0  0  0  0  0  0  0  0
  151.9201  140.1189  155.1100 O   0  0  0  0  0  0  0  0  0  0  0  0
  149.7186  140.5863  155.8575 C   0  0  0  0  0  0  0  0  0  0  0  0
  148.9769  141.2889  156.8414 O   0  0  0  0  0  0  0  0  0  0  0  0
  147.6028  140.9423  156.8471 C   0  0  0  0  0  0  0  0  0  0  0  0
  146.7975  141.8764  155.9674 C   0  0  0  0  0  0  0  0  0  0  0  0
  147.1235  142.0124  154.6020 C   0  0  0  0  0  0  0  0  0  0  0  0
  146.3781  142.8796  153.7796 C   0  0  0  0  0  0  0  0  0  0  0  0
  145.3024  143.6112  154.3194 C   0  0  0  0  0  0  0  0  0  0  0  0
  144.9722  143.4750  155.6818 C   0  0  0  0  0  0  0  0  0  0  0  0
  145.7184  142.6089  156.5050 C   0  0  0  0  0  0  0  0  0  0  0  0
  151.5013  141.6876  156.3491 H   0  0  0  0  0  0  0  0  0  0  0  0
  154.0392  140.7633  161.2810 H   0  0  0  0  0  0  0  0  0  0  0  0
  153.4857  143.1162  161.0854 H   0  0  0  0  0  0  0  0  0  0  0  0
  152.1892  138.9655  157.2275 H   0  0  0  0  0  0  0  0  0  0  0  0
  150.6351  139.3635  157.8650 H   0  0  0  0  0  0  0  0  0  0  0  0
  151.9258  139.1763  155.1770 H   0  0  0  0  0  0  0  0  0  0  0  0
  149.5501  141.0508  154.8842 H   0  0  0  0  0  0  0  0  0  0  0  0
  149.3797  139.5509  155.7907 H   0  0  0  0  0  0  0  0  0  0  0  0
  147.4761  139.9146  156.5025 H   0  0  0  0  0  0  0  0  0  0  0  0
  147.2081  140.9903  157.8633 H   0  0  0  0  0  0  0  0  0  0  0  0
  147.9462  141.4518  154.1829 H   0  0  0  0  0  0  0  0  0  0  0  0
  146.6312  142.9835  152.7346 H   0  0  0  0  0  0  0  0  0  0  0  0
  144.7308  144.2760  153.6887 H   0  0  0  0  0  0  0  0  0  0  0  0
  144.1463  144.0346  156.0954 H   0  0  0  0  0  0  0  0  0  0  0  0
  145.4588  142.5084  157.5488 H   0  0  0  0  0  0  0  0  0  0  0  0
  1  2  2  0  0  0  0
  2 11  1  0  0  0  0
  2  3  1  0  0  0  0
  3  4  2  0  0  0  0
  3 25  1  0  0  0  0
  4  5  1  0  0  0  0
  4 26  1  0  0  0  0
  5  6  1  0  0  0  0
  5 10  2  0  0  0  0
  6  7  1  0  0  0  0
  6  8  1  0  0  0  0
  6  9  1  0  0  0  0
 10 11  1  0  0  0  0
 11 12  1  0  0  0  0
 12 13  1  0  0  0  0
 12 27  1  0  0  0  0
 12 28  1  0  0  0  0
 13 24  1  0  0  0  0
 13 14  1  0  0  0  0
 13 15  1  0  0  0  0
 14 29  1  0  0  0  0
 15 16  1  0  0  0  0
 15 30  1  0  0  0  0
 15 31  1  0  0  0  0
 16 17  1  0  0  0  0
 17 18  1  0  0  0  0
 17 32  1  0  0  0  0
 17 33  1  0  0  0  0
 18 23  1  0  0  0  0
 18 19  2  0  0  0  0
 19 20  1  0  0  0  0
 19 34  1  0  0  0  0
 20 21  2  0  0  0  0
 20 35  1  0  0  0  0
 21 22  1  0  0  0  0
 21 36  1  0  0  0  0
 22 23  2  0  0  0  0
 22 37  1  0  0  0  0
 23 38  1  0  0  0  0
M  END
> <s_m_source_file>
AV-unprocessed.smi

> <i_m_source_file_index>
2779

> <i_lp_mmshare_version>
43012

> <i_f3d_flags>
0

> <s_epik_input>
Tz1jMVtjSF1bY0hdYyhDKEYpKEYpRilubjFbQ0gyXVtDQEhdKFtPSF0pW0NIMl1PW0NIMl1jMltjSF1bY0hdW2NIXVtjSF1bY0hdMg==

> <s_epik_cmdline>
J2VwaWtfcHl0aG9uJywgJy1waCcsICc3LjAnLCAnLXRuJywgJzgnLCAnLW1hJywgJzIwMCcsICctbWV0YWxfYmluZGluZycsICctaW1hZScsICc8aW5maWxlLm1hZT4nLCAnLW9tYWUnLCAnPG91dGZpbGUubWFlPic=

> <r_lp_tautomer_probability>
1

> <r_epik_Ionization_Penalty>
6.7226e-08

> <r_epik_Ionization_Penalty_Charging>
6.11342e-09

> <r_epik_Ionization_Penalty_Neutral>
6.11126e-08

> <r_epik_State_Penalty>
-0

> <r_epik_Charging_Adjusted_Penalty>
6.11342e-09

> <i_epik_Tot_Q>
0

> <i_epik_Tot_abs_Q>
0

> <r_epik_Metal_State_Penalty>
-0

> <b_epik_Metal_Only>
0

> <s_lp_Force_Field>
OPLS_2005

> <r_lp_Energy>
32.3095

> <b_lp_Chiralities_Consistent>
1

> <s_lp_Variant>
AV-unprocessed.smi:2779-2

> <Gold.Version>
5.8.1

> <Gold.Id.Protein>
6NUR|6NUR_protein|mol2

> <Gold.PLP.Fitness>
51.9966

> <Gold.PLP.PLP>
-52.4567

> <Gold.PLP.part.hbond>
-1.0000

> <Gold.PLP.part.metal>
0.0000

> <Gold.PLP.part.buried>
-8.8557

> <Gold.PLP.part.nonpolar>
-42.6640

> <Gold.PLP.part.repulsive>
0.0847

> <Gold.PLP.ligand.clash>
0.0000

> <Gold.PLP.ligand.torsion>
1.6723

> <Gold.PLP.Chemscore.Hbond>
0.8320

> <Gold.PLP.Chemscore.CHOScore>
0.0000

> <Gold.PLP.Chemscore.Metal>
0.0000

> <Gold.Chemscore.Hbonds>
donor molecule, donor type, donor heavy atom, donor atom, acceptor molecule, acceptor atom, score
      P1  H  7989  7998       L1    14  0.85

> <Gold.PLP.Chemscore.Internal.Correction>
0.3885

> <Gold.Rescore>
     Score         DG    S(hbond)    S(metal)    S(lipo)     H(rot)  DE(clash)    DE(int)     intcor
     10.04     -11.68       0.80        0.00      91.40       2.80       0.06       1.58       ----

> <Gold.Chemscore.Fitness>
10.0442

> <Gold.Chemscore.DG>
-11.6819

> <Gold.Chemscore.ZeroCoef>
-5.4800

> <Gold.Chemscore.Hbond>
0.8030

> <Gold.Chemscore.Metal>
0.0000

> <Gold.Chemscore.Lipo>
91.3973

> <Gold.Chemscore.Internal_Hbond>
0.0000

> <Gold.Chemscore.DEClash>
0.0589

> <Gold.Chemscore.DEInternal>
1.5789

> <Gold.Chemscore.Rot>
2.8022

> <Gold.Chemscore.Internal.Correction>
   9.000000E+99

> <Gold.Chemscore.Hbonds>
donor molecule, donor type, donor heavy atom, donor atom, acceptor molecule, acceptor atom, score
      P1  H  7989  7998       L1    14  0.77

> <Gold.Chemscore.Hbond.Weighted>
-2.6820

> <Gold.Chemscore.Metal.Weighted>
-0.0000

> <Gold.Chemscore.Lipo.Weighted>
-10.6935

> <Gold.Chemscore.Internal_Hbond.Weighted>
0.0000

> <Gold.Chemscore.DEClash.Weighted>
0.0589

> <Gold.Chemscore.DEInternal.Weighted>
1.5789

> <Gold.Chemscore.Rot.Weighted>
7.1736

> <Gold.Chemscore.Internal.Correction.Weighted>
   9.000000E+99

> <Gold.Protein.RotatedTorsions>
[ 6907 6896 6895 6894 ] final  -89.94 input  -60.11 | X-H torsion
[ 7974 7965 7964 7962 ] final   -2.60 input  175.53 | X-H torsion
[ 8008 7997 7996 7995 ] final    0.52 input   59.86 | X-H torsion
[ 10167 10162 10161 10158 ] final -169.53 input  -65.29 | X-H torsion
[ 10718 10713 10712 10709 ] final  168.98 input   66.30 | X-H torsion
[ 10763 10752 10751 10750 ] final -154.99 input  -60.55 | X-H torsion
[ 11005 11000 10999 10996 ] final   56.42 input  -57.11 | X-H torsion

> <Gold.Protein.ActiveResidues>
 VAL166  LYS551  ARG553  GLY616  TRP617  ASP618  TYR619  PRO620  LYS621  CYS622 
 ASP623  PHE694  ASN695  SER759  ASP760  ASP761  ALA762  ILE779  LEU786  VAL792 
 PHE793  MET794  SER795  GLU796  ALA797  LYS798  CYS799  TRP800  GLU811  SER814 

> <Gold.Protein.RotatedAtoms>
  150.6877  134.2509  159.4509 H   0  0  0  0  0  0  0  0  0  0  0  0  # atno 6907 bound_to 6896
  152.0446  134.9688  160.0583 H   0  0  0  0  0  0  0  0  0  0  0  0  # atno 6908 bound_to 6896
  152.1176  133.4300  159.4697 H   0  0  0  0  0  0  0  0  0  0  0  0  # atno 6909 bound_to 6896
  146.2402  140.1596  142.8333 H   0  0  0  0  0  0  0  0  0  0  0  0  # atno 7974 bound_to 7965
  154.6690  140.2608  155.7027 H   0  0  0  0  0  0  0  0  0  0  0  0  # atno 8008 bound_to 7997
  156.2651  140.2833  156.1114 H   0  0  0  0  0  0  0  0  0  0  0  0  # atno 8009 bound_to 7997
  155.1196  140.0377  157.2736 H   0  0  0  0  0  0  0  0  0  0  0  0  # atno 8010 bound_to 7997
  139.5917  144.1199  152.1642 H   0  0  0  0  0  0  0  0  0  0  0  0  # atno 10167 bound_to 10162
  157.0293  131.0255  151.2749 H   0  0  0  0  0  0  0  0  0  0  0  0  # atno 10718 bound_to 10713
  154.7819  135.3177  154.7970 H   0  0  0  0  0  0  0  0  0  0  0  0  # atno 10763 bound_to 10752
  153.8680  135.6847  153.4781 H   0  0  0  0  0  0  0  0  0  0  0  0  # atno 10764 bound_to 10752
  153.1458  135.4720  154.9502 H   0  0  0  0  0  0  0  0  0  0  0  0  # atno 10765 bound_to 10752
  140.0530  134.5710  155.9241 H   0  0  0  0  0  0  0  0  0  0  0  0  # atno 11005 bound_to 11000
  145.0100  140.8706  143.5229 LP  0  0  0  0  0  0  0  0  0  0  0  0  # atno 17320 bound_to 7965
  145.1628  139.2449  143.5383 LP  0  0  0  0  0  0  0  0  0  0  0  0  # atno 17321 bound_to 7965
  140.0775  144.5728  150.7147 LP  0  0  0  0  0  0  0  0  0  0  0  0  # atno 17342 bound_to 10162
  140.7178  143.2561  151.4376 LP  0  0  0  0  0  0  0  0  0  0  0  0  # atno 17343 bound_to 10162
  157.5190  130.7986  149.7787 LP  0  0  0  0  0  0  0  0  0  0  0  0  # atno 17370 bound_to 10713
  156.0075  130.3848  150.2380 LP  0  0  0  0  0  0  0  0  0  0  0  0  # atno 17371 bound_to 10713
  141.1939  133.6581  156.5570 LP  0  0  0  0  0  0  0  0  0  0  0  0  # atno 17394 bound_to 11000
  140.3887  134.7459  157.4708 LP  0  0  0  0  0  0  0  0  0  0  0  0  # atno 17395 bound_to 11000

$$$$
