AV-unprocessed.smi:3181|AV-procd|sdf|12135|dock9
  -GOLD-   2272017573D 1   1.00000     0.00000
 Structure written by MMmdl.
 42 43  0  0  0  0  0  0  0  0  2 V2000
  149.2745  141.3319  156.5426 C   0  0  0  0  0  0  0  0  0  0  0  0
  150.7077  141.6657  156.0967 C   0  0  2  0  0  0  0  0  0  0  0  0
  151.7376  140.6082  156.5433 C   0  0  0  0  0  0  0  0  0  0  0  0
  151.7463  139.4315  155.6938 N   0  0  0  0  0  0  0  0  0  0  0  0
  152.4830  138.3206  155.7526 C   0  0  0  0  0  0  0  0  0  0  0  0
  152.2164  137.4506  154.7889 N   0  0  0  0  0  0  0  0  0  0  0  0
  151.2440  138.1399  154.1207 C   0  0  0  0  0  0  0  0  0  0  0  0
  150.9263  139.3341  154.6215 N   0  0  0  0  0  0  0  0  0  0  0  0
  151.0979  142.9938  156.6218 N   0  3  0  0  0  0  0  0  0  0  0  0
  151.2106  143.0958  158.0939 C   0  0  2  0  0  0  0  0  0  0  0  0
  150.4545  144.3405  158.5911 C   0  0  0  0  0  0  0  0  0  0  0  0
  150.5848  144.5150  160.1126 C   0  0  0  0  0  0  0  0  0  0  0  0
  152.0619  144.5694  160.5492 C   0  0  1  0  0  0  0  0  0  0  0  0
  152.2033  144.8303  162.0577 C   0  0  0  0  0  0  0  0  0  0  0  0
  152.8462  143.3233  160.0643 C   0  0  1  0  0  0  0  0  0  0  0  0
  152.4965  142.0235  160.8170 C   0  0  0  0  0  0  0  0  0  0  0  0
  152.6896  143.1568  158.5379 C   0  0  0  0  0  0  0  0  0  0  0  0
  148.9272  140.3949  156.1067 H   0  0  0  0  0  0  0  0  0  0  0  0
  148.5769  142.1096  156.2301 H   0  0  0  0  0  0  0  0  0  0  0  0
  149.2069  141.2404  157.6270 H   0  0  0  0  0  0  0  0  0  0  0  0
  150.7114  141.6949  155.0061 H   0  0  0  0  0  0  0  0  0  0  0  0
  152.7420  141.0343  156.5422 H   0  0  0  0  0  0  0  0  0  0  0  0
  151.5345  140.2899  157.5669 H   0  0  0  0  0  0  0  0  0  0  0  0
  153.2262  138.1424  156.5161 H   0  0  0  0  0  0  0  0  0  0  0  0
  150.7565  137.7505  153.2389 H   0  0  0  0  0  0  0  0  0  0  0  0
  151.9828  143.2601  156.2141 H   0  0  0  0  0  0  0  0  0  0  0  0
  150.7307  142.2168  158.5269 H   0  0  0  0  0  0  0  0  0  0  0  0
  150.8406  145.2314  158.0932 H   0  0  0  0  0  0  0  0  0  0  0  0
  149.4000  144.2707  158.3216 H   0  0  0  0  0  0  0  0  0  0  0  0
  150.0764  145.4314  160.4143 H   0  0  0  0  0  0  0  0  0  0  0  0
  150.0694  143.7010  160.6234 H   0  0  0  0  0  0  0  0  0  0  0  0
  152.5069  145.4320  160.0504 H   0  0  0  0  0  0  0  0  0  0  0  0
  151.7092  144.0602  162.6501 H   0  0  0  0  0  0  0  0  0  0  0  0
  151.7559  145.7864  162.3304 H   0  0  0  0  0  0  0  0  0  0  0  0
  153.2517  144.8632  162.3551 H   0  0  0  0  0  0  0  0  0  0  0  0
  153.9041  143.5102  160.2544 H   0  0  0  0  0  0  0  0  0  0  0  0
  151.4377  141.7767  160.7460 H   0  0  0  0  0  0  0  0  0  0  0  0
  152.7484  142.0945  161.8749 H   0  0  0  0  0  0  0  0  0  0  0  0
  153.0572  141.1789  160.4160 H   0  0  0  0  0  0  0  0  0  0  0  0
  153.2282  142.2663  158.2128 H   0  0  0  0  0  0  0  0  0  0  0  0
  153.1771  143.9963  158.0395 H   0  0  0  0  0  0  0  0  0  0  0  0
  150.3981  143.6557  156.3179 H   0  0  0  0  0  0  0  0  0  0  0  0
  1  2  1  0  0  0  0
  1 18  1  0  0  0  0
  1 19  1  0  0  0  0
  1 20  1  0  0  0  0
  2  3  1  0  0  0  0
  2  9  1  0  0  0  0
  2 21  1  0  0  0  0
  3  4  1  0  0  0  0
  3 22  1  0  0  0  0
  3 23  1  0  0  0  0
  4  8  1  0  0  0  0
  4  5  1  0  0  0  0
  5  6  2  0  0  0  0
  5 24  1  0  0  0  0
  6  7  1  0  0  0  0
  7  8  2  0  0  0  0
  7 25  1  0  0  0  0
  9 10  1  0  0  0  0
  9 26  1  0  0  0  0
  9 42  1  0  0  0  0
 10 17  1  0  0  0  0
 10 11  1  0  0  0  0
 10 27  1  0  0  0  0
 11 12  1  0  0  0  0
 11 28  1  0  0  0  0
 11 29  1  0  0  0  0
 12 13  1  0  0  0  0
 12 30  1  0  0  0  0
 12 31  1  0  0  0  0
 13 14  1  0  0  0  0
 13 15  1  0  0  0  0
 13 32  1  0  0  0  0
 14 33  1  0  0  0  0
 14 34  1  0  0  0  0
 14 35  1  0  0  0  0
 15 16  1  0  0  0  0
 15 17  1  0  0  0  0
 15 36  1  0  0  0  0
 16 37  1  0  0  0  0
 16 38  1  0  0  0  0
 16 39  1  0  0  0  0
 17 40  1  0  0  0  0
 17 41  1  0  0  0  0
M  CHG  1   9   1
M  END
> <s_m_source_file>
AV-unprocessed.smi

> <i_m_source_file_index>
3181

> <i_lp_mmshare_version>
43012

> <i_f3d_flags>
0

> <s_epik_input>
bjFbY0hdbltjSF1uMVtDSDJdW0NAQEhdKFtDSDNdKVtOSF1bQ0BASF0yW0NIMl1bQ0gyXVtDQEBIXShbQ0gzXSlbQ0BASF0oW0NIM10pW0NIMl0y

> <s_epik_cmdline>
J2VwaWtfcHl0aG9uJywgJy1waCcsICc3LjAnLCAnLXRuJywgJzgnLCAnLW1hJywgJzIwMCcsICctbWV0YWxfYmluZGluZycsICctaW1hZScsICc8aW5maWxlLm1hZT4nLCAnLW9tYWUnLCAnPG91dGZpbGUubWFlPic=

> <r_lp_tautomer_probability>
1

> <r_epik_Ionization_Penalty>
0.000617007

> <r_epik_Ionization_Penalty_Charging>
0.000616215

> <r_epik_Ionization_Penalty_Neutral>
7.92544e-07

> <r_epik_State_Penalty>
0.000388807

> <r_epik_Charging_Adjusted_Penalty>
0.00100502

> <i_epik_Tot_Q>
1

> <i_epik_Tot_abs_Q>
1

> <r_epik_Metal_State_Penalty>
-0

> <b_epik_Metal_Only>
0

> <s_lp_Force_Field>
OPLS_2005

> <r_lp_Energy>
21.1585

> <b_lp_Chiralities_Consistent>
1

> <s_lp_Variant>
AV-unprocessed.smi:3181-1

> <Gold.Version>
5.8.1

> <Gold.Id.Protein>
6NUR|6NUR_protein|mol2

> <Gold.PLP.Fitness>
49.9113

> <Gold.PLP.PLP>
-37.0955

> <Gold.PLP.part.hbond>
-3.0000

> <Gold.PLP.part.metal>
0.0000

> <Gold.PLP.part.buried>
-2.5279

> <Gold.PLP.part.nonpolar>
-32.4710

> <Gold.PLP.part.repulsive>
0.2672

> <Gold.PLP.ligand.clash>
0.0000

> <Gold.PLP.ligand.torsion>
0.8824

> <Gold.PLP.Chemscore.Hbond>
3.7680

> <Gold.PLP.Chemscore.CHOScore>
1.0834

> <Gold.PLP.Chemscore.Metal>
0.0000

> <Gold.Chemscore.Hbonds>
donor molecule, donor type, donor heavy atom, donor atom, acceptor molecule, acceptor atom, score
      L1  H     9    42       P1  8028  2.00
      P1  H  7989  7998       L1     8  1.00
      P1  H 10752 10764       L1     6  0.74
      L1  C     7    25       P1  7948  0.28
      L1  C     7    25       P1  7949  0.80

> <Gold.PLP.Chemscore.Internal.Correction>
0.0265

> <Gold.Rescore>
     Score         DG    S(hbond)    S(metal)    S(lipo)     H(rot)  DE(clash)    DE(int)     intcor
     18.36     -21.14       2.50        0.00     108.56       2.11       1.77       1.01       ----

> <Gold.Chemscore.Fitness>
18.3562

> <Gold.Chemscore.DG>
-21.1432

> <Gold.Chemscore.ZeroCoef>
-5.4800

> <Gold.Chemscore.Hbond>
2.5037

> <Gold.Chemscore.Metal>
0.0000

> <Gold.Chemscore.Lipo>
108.5587

> <Gold.Chemscore.Internal_Hbond>
0.0000

> <Gold.Chemscore.DEClash>
1.7725

> <Gold.Chemscore.DEInternal>
1.0145

> <Gold.Chemscore.Rot>
2.1095

> <Gold.Chemscore.Internal.Correction>
   9.000000E+99

> <Gold.Chemscore.Hbonds>
donor molecule, donor type, donor heavy atom, donor atom, acceptor molecule, acceptor atom, score
      L1  H     9    42       P1  8028  0.99
      P1  H  7989  7998       L1     8  0.20
      P1  H 10752 10764       L1     6  0.72

> <Gold.Chemscore.Hbond.Weighted>
-8.3622

> <Gold.Chemscore.Metal.Weighted>
-0.0000

> <Gold.Chemscore.Lipo.Weighted>
-12.7014

> <Gold.Chemscore.Internal_Hbond.Weighted>
0.0000

> <Gold.Chemscore.DEClash.Weighted>
1.7725

> <Gold.Chemscore.DEInternal.Weighted>
1.0145

> <Gold.Chemscore.Rot.Weighted>
5.4003

> <Gold.Chemscore.Internal.Correction.Weighted>
   9.000000E+99

> <Gold.Protein.RotatedTorsions>
[ 6907 6896 6895 6894 ] final  -55.65 input  -60.11 | X-H torsion
[ 7974 7965 7964 7962 ] final   59.48 input  175.53 | X-H torsion
[ 8008 7997 7996 7995 ] final -159.37 input   59.86 | X-H torsion
[ 10167 10162 10161 10158 ] final -154.04 input  -65.29 | X-H torsion
[ 10718 10713 10712 10709 ] final    2.52 input   66.30 | X-H torsion
[ 10763 10752 10751 10750 ] final  -65.92 input  -60.55 | X-H torsion
[ 11005 11000 10999 10996 ] final   42.73 input  -57.11 | X-H torsion

> <Gold.Protein.ActiveResidues>
 VAL166  LYS551  ARG553  GLY616  TRP617  ASP618  TYR619  PRO620  LYS621  CYS622 
 ASP623  PHE694  ASN695  SER759  ASP760  ASP761  ALA762  ILE779  LEU786  VAL792 
 PHE793  MET794  SER795  GLU796  ALA797  LYS798  CYS799  TRP800  GLU811  SER814 

> <Gold.Protein.RotatedAtoms>
  150.8233  134.7452  159.6791 H   0  0  0  0  0  0  0  0  0  0  0  0  # atno 6907 bound_to 6896
  152.4347  134.5707  159.9930 H   0  0  0  0  0  0  0  0  0  0  0  0  # atno 6908 bound_to 6896
  151.5885  133.3332  159.3059 H   0  0  0  0  0  0  0  0  0  0  0  0  # atno 6909 bound_to 6896
  145.9067  139.3622  143.0560 H   0  0  0  0  0  0  0  0  0  0  0  0  # atno 7974 bound_to 7965
  155.7616  140.0840  157.2152 H   0  0  0  0  0  0  0  0  0  0  0  0  # atno 8008 bound_to 7997
  154.4003  140.1542  156.2896 H   0  0  0  0  0  0  0  0  0  0  0  0  # atno 8009 bound_to 7997
  155.8834  140.3419  155.5906 H   0  0  0  0  0  0  0  0  0  0  0  0  # atno 8010 bound_to 7997
  139.7046  143.9207  152.2443 H   0  0  0  0  0  0  0  0  0  0  0  0  # atno 10167 bound_to 10162
  156.8642  130.5597  149.5661 H   0  0  0  0  0  0  0  0  0  0  0  0  # atno 10718 bound_to 10713
  154.3521  135.6134  153.5648 H   0  0  0  0  0  0  0  0  0  0  0  0  # atno 10763 bound_to 10752
  152.9797  135.5795  154.4731 H   0  0  0  0  0  0  0  0  0  0  0  0  # atno 10764 bound_to 10752
  154.4454  135.2851  155.1796 H   0  0  0  0  0  0  0  0  0  0  0  0  # atno 10765 bound_to 10752
  140.1712  134.4220  155.8256 H   0  0  0  0  0  0  0  0  0  0  0  0  # atno 11005 bound_to 11000
  145.8723  140.9412  143.0644 LP  0  0  0  0  0  0  0  0  0  0  0  0  # atno 17320 bound_to 7965
  144.6740  140.0671  143.7474 LP  0  0  0  0  0  0  0  0  0  0  0  0  # atno 17321 bound_to 7965
  139.9059  144.6885  150.8615 LP  0  0  0  0  0  0  0  0  0  0  0  0  # atno 17342 bound_to 10162
  140.7718  143.3479  151.2073 LP  0  0  0  0  0  0  0  0  0  0  0  0  # atno 17343 bound_to 10162
  156.0761  130.5782  150.9475 LP  0  0  0  0  0  0  0  0  0  0  0  0  # atno 17370 bound_to 10713
  157.6233  131.0928  150.8582 LP  0  0  0  0  0  0  0  0  0  0  0  0  # atno 17371 bound_to 10713
  141.2217  133.6957  156.7766 LP  0  0  0  0  0  0  0  0  0  0  0  0  # atno 17394 bound_to 11000
  140.2375  134.8638  157.3540 LP  0  0  0  0  0  0  0  0  0  0  0  0  # atno 17395 bound_to 11000

$$$$
