AV-unprocessed.smi:1703|AV-procd|sdf|6863|dock8
  -GOLD-   22720 8 53D 1   1.00000     0.00000
 Structure written by MMmdl.
 49 51  0  0  0  0  0  0  0  0  2 V2000
  145.4703  134.2453  155.2383 C   0  0  0  0  0  0  0  0  0  0  0  0
  146.0597  135.0129  154.0498 C   0  0  2  0  0  0  0  0  0  0  0  0
  146.4797  136.4441  154.4346 C   0  0  0  0  0  0  0  0  0  0  0  0
  146.9694  137.1813  153.2460 N   0  3  2  0  0  0  0  0  0  0  0  0
  147.4471  138.5459  153.5850 C   0  0  0  0  0  0  0  0  0  0  0  0
  148.6531  138.5338  154.5501 C   0  0  2  0  0  0  0  0  0  0  0  0
  148.2065  138.8710  155.8478 O   0  0  0  0  0  0  0  0  0  0  0  0
  149.7670  139.5276  154.1633 C   0  0  0  0  0  0  0  0  0  0  0  0
  150.7349  139.7326  155.2331 N   0  0  0  0  0  0  0  0  0  0  0  0
  151.9332  139.1221  155.4223 C   0  0  0  0  0  0  0  0  0  0  0  0
  152.4622  138.0784  154.4866 C   0  0  0  0  0  0  0  0  0  0  0  0
  151.5663  137.0030  154.3066 O   0  0  0  0  0  0  0  0  0  0  0  0
  152.6150  139.5059  156.5017 N   0  0  0  0  0  0  0  0  0  0  0  0
  151.7905  140.4628  157.0594 C   0  0  0  0  0  0  0  0  0  0  0  0
  151.9513  141.2490  158.2227 C   0  0  0  0  0  0  0  0  0  0  0  0
  150.9587  142.1772  158.5995 C   0  0  0  0  0  0  0  0  0  0  0  0
  149.7939  142.3324  157.8203 C   0  0  0  0  0  0  0  0  0  0  0  0
  149.6134  141.5579  156.6582 C   0  0  0  0  0  0  0  0  0  0  0  0
  150.6064  140.6317  156.2874 C   0  0  0  0  0  0  0  0  0  0  0  0
  145.9495  137.1552  152.1686 C   0  0  0  0  0  0  0  0  0  0  0  0
  145.5485  135.7040  151.8426 C   0  0  2  0  0  0  0  0  0  0  0  0
  144.4428  135.6327  150.7837 C   0  0  0  0  0  0  0  0  0  0  0  0
  145.0711  135.0767  153.0278 O   0  0  0  0  0  0  0  0  0  0  0  0
  146.1970  134.1530  156.0458 H   0  0  0  0  0  0  0  0  0  0  0  0
  145.1730  133.2388  154.9430 H   0  0  0  0  0  0  0  0  0  0  0  0
  144.5890  134.7487  155.6368 H   0  0  0  0  0  0  0  0  0  0  0  0
  146.9256  134.4629  153.6771 H   0  0  0  0  0  0  0  0  0  0  0  0
  145.6371  136.9816  154.8735 H   0  0  0  0  0  0  0  0  0  0  0  0
  147.2643  136.4042  155.1913 H   0  0  0  0  0  0  0  0  0  0  0  0
  147.6887  139.0688  152.6588 H   0  0  0  0  0  0  0  0  0  0  0  0
  146.6387  139.1112  154.0514 H   0  0  0  0  0  0  0  0  0  0  0  0
  149.0873  137.5361  154.5973 H   0  0  0  0  0  0  0  0  0  0  0  0
  148.7224  138.3935  156.4800 H   0  0  0  0  0  0  0  0  0  0  0  0
  150.2806  139.1908  153.2633 H   0  0  0  0  0  0  0  0  0  0  0  0
  149.3320  140.4968  153.9153 H   0  0  0  0  0  0  0  0  0  0  0  0
  152.6605  138.5324  153.5150 H   0  0  0  0  0  0  0  0  0  0  0  0
  153.4159  137.7012  154.8549 H   0  0  0  0  0  0  0  0  0  0  0  0
  151.4174  136.8859  153.3808 H   0  0  0  0  0  0  0  0  0  0  0  0
  152.8408  141.1392  158.8252 H   0  0  0  0  0  0  0  0  0  0  0  0
  151.0928  142.7742  159.4899 H   0  0  0  0  0  0  0  0  0  0  0  0
  149.0400  143.0479  158.1146 H   0  0  0  0  0  0  0  0  0  0  0  0
  148.7233  141.6773  156.0588 H   0  0  0  0  0  0  0  0  0  0  0  0
  145.0737  137.7266  152.4811 H   0  0  0  0  0  0  0  0  0  0  0  0
  146.3346  137.6312  151.2677 H   0  0  0  0  0  0  0  0  0  0  0  0
  146.4177  135.1574  151.4718 H   0  0  0  0  0  0  0  0  0  0  0  0
  144.7625  136.0961  149.8499 H   0  0  0  0  0  0  0  0  0  0  0  0
  143.5396  136.1435  151.1188 H   0  0  0  0  0  0  0  0  0  0  0  0
  144.1784  134.5978  150.5657 H   0  0  0  0  0  0  0  0  0  0  0  0
  147.7740  136.6731  152.9065 H   0  0  0  0  0  0  0  0  0  0  0  0
  1  2  1  0  0  0  0
  1 24  1  0  0  0  0
  1 25  1  0  0  0  0
  1 26  1  0  0  0  0
  2 23  1  0  0  0  0
  2  3  1  0  0  0  0
  2 27  1  0  0  0  0
  3  4  1  0  0  0  0
  3 28  1  0  0  0  0
  3 29  1  0  0  0  0
  4  5  1  0  0  0  0
  4 20  1  0  0  0  0
  4 49  1  0  0  0  0
  5  6  1  0  0  0  0
  5 30  1  0  0  0  0
  5 31  1  0  0  0  0
  6  7  1  0  0  0  0
  6  8  1  0  0  0  0
  6 32  1  0  0  0  0
  7 33  1  0  0  0  0
  8  9  1  0  0  0  0
  8 34  1  0  0  0  0
  8 35  1  0  0  0  0
  9 19  1  0  0  0  0
  9 10  1  0  0  0  0
 10 11  1  0  0  0  0
 10 13  2  0  0  0  0
 11 12  1  0  0  0  0
 11 36  1  0  0  0  0
 11 37  1  0  0  0  0
 12 38  1  0  0  0  0
 13 14  1  0  0  0  0
 14 19  2  0  0  0  0
 14 15  1  0  0  0  0
 15 16  2  0  0  0  0
 15 39  1  0  0  0  0
 16 17  1  0  0  0  0
 16 40  1  0  0  0  0
 17 18  2  0  0  0  0
 17 41  1  0  0  0  0
 18 19  1  0  0  0  0
 18 42  1  0  0  0  0
 20 21  1  0  0  0  0
 20 43  1  0  0  0  0
 20 44  1  0  0  0  0
 21 22  1  0  0  0  0
 21 23  1  0  0  0  0
 21 45  1  0  0  0  0
 22 46  1  0  0  0  0
 22 47  1  0  0  0  0
 22 48  1  0  0  0  0
M  CHG  1   4   1
M  END
> <s_m_source_file>
AV-unprocessed.smi

> <i_m_source_file_index>
1703

> <i_lp_mmshare_version>
43012

> <i_f3d_flags>
0

> <s_epik_input>
W0NIM11bQ0BASF0xW0NIMl1OKFtDSDJdW0NASF0oTzEpW0NIM10pW0NIMl1bQ0BIXShbT0hdKVtDSDJdbihjKG4yKVtDSDJdW09IXSljKGMyMylbY0hdW2NIXVtjSF1bY0hdMw==

> <s_epik_cmdline>
J2VwaWtfcHl0aG9uJywgJy1waCcsICc3LjAnLCAnLXRuJywgJzgnLCAnLW1hJywgJzIwMCcsICctbWV0YWxfYmluZGluZycsICctaW1hZScsICc8aW5maWxlLm1hZT4nLCAnLW9tYWUnLCAnPG91dGZpbGUubWFlPic=

> <r_epik_Ionization_Penalty>
0.655661

> <r_epik_Ionization_Penalty_Charging>
0.608065

> <r_epik_Ionization_Penalty_Neutral>
0.0475963

> <r_epik_State_Penalty>
0.695267

> <r_epik_Charging_Adjusted_Penalty>
1.30333

> <i_epik_Tot_Q>
1

> <i_epik_Tot_abs_Q>
1

> <r_epik_Metal_State_Penalty>
0.653591

> <b_epik_Metal_Only>
0

> <s_lp_Force_Field>
OPLS_2005

> <r_lp_Energy>
21.8251

> <b_lp_Chiralities_Consistent>
1

> <s_lp_Variant>
AV-unprocessed.smi:1703-11

> <Gold.Version>
5.8.1

> <Gold.Id.Protein>
6NUR|6NUR_protein|mol2

> <Gold.PLP.Fitness>
48.0623

> <Gold.PLP.PLP>
-35.2043

> <Gold.PLP.part.hbond>
-4.0000

> <Gold.PLP.part.metal>
0.0000

> <Gold.PLP.part.buried>
-0.5447

> <Gold.PLP.part.nonpolar>
-30.2924

> <Gold.PLP.part.repulsive>
0.0956

> <Gold.PLP.ligand.clash>
0.0000

> <Gold.PLP.ligand.torsion>
1.1040

> <Gold.PLP.Chemscore.Hbond>
5.0000

> <Gold.PLP.Chemscore.CHOScore>
0.0000

> <Gold.PLP.Chemscore.Metal>
0.0000

> <Gold.Chemscore.Hbonds>
donor molecule, donor type, donor heavy atom, donor atom, acceptor molecule, acceptor atom, score
      L1  H     4    49       P1  7948  2.00
      L1  H    12    38       P1  7949  0.81
      P1  H  7997  8010       L1    13  1.00
      P1  H 10752 10763       L1    12  0.49

> <Gold.PLP.Chemscore.Internal.Correction>
0.0661

> <Gold.Rescore>
     Score         DG    S(hbond)    S(metal)    S(lipo)     H(rot)  DE(clash)    DE(int)     intcor
     14.80     -16.98       2.80        0.00      83.20       2.96       0.26       1.92       ----

> <Gold.Chemscore.Fitness>
14.8049

> <Gold.Chemscore.DG>
-16.9810

> <Gold.Chemscore.ZeroCoef>
-5.4800

> <Gold.Chemscore.Hbond>
2.7985

> <Gold.Chemscore.Metal>
0.0000

> <Gold.Chemscore.Lipo>
83.1990

> <Gold.Chemscore.Internal_Hbond>
0.0000

> <Gold.Chemscore.DEClash>
0.2581

> <Gold.Chemscore.DEInternal>
1.9180

> <Gold.Chemscore.Rot>
2.9611

> <Gold.Chemscore.Internal.Correction>
   9.000000E+99

> <Gold.Chemscore.Hbonds>
donor molecule, donor type, donor heavy atom, donor atom, acceptor molecule, acceptor atom, score
      L1  H     4    49       P1  7948  0.98
      L1  H    12    38       P1  7949  0.66
      P1  H  7997  8010       L1    13  0.77
      P1  H 10752 10763       L1    12  0.01

> <Gold.Chemscore.Hbond.Weighted>
-9.3470

> <Gold.Chemscore.Metal.Weighted>
-0.0000

> <Gold.Chemscore.Lipo.Weighted>
-9.7343

> <Gold.Chemscore.Internal_Hbond.Weighted>
0.0000

> <Gold.Chemscore.DEClash.Weighted>
0.2581

> <Gold.Chemscore.DEInternal.Weighted>
1.9180

> <Gold.Chemscore.Rot.Weighted>
7.5803

> <Gold.Chemscore.Internal.Correction.Weighted>
   9.000000E+99

> <Gold.Protein.RotatedTorsions>
[ 6907 6896 6895 6894 ] final   43.19 input  -60.11 | X-H torsion
[ 7974 7965 7964 7962 ] final -110.44 input  175.53 | X-H torsion
[ 8008 7997 7996 7995 ] final   77.05 input   59.86 | X-H torsion
[ 10167 10162 10161 10158 ] final  -15.57 input  -65.29 | X-H torsion
[ 10718 10713 10712 10709 ] final   20.28 input   66.30 | X-H torsion
[ 10763 10752 10751 10750 ] final   47.33 input  -60.55 | X-H torsion
[ 11005 11000 10999 10996 ] final  111.03 input  -57.11 | X-H torsion

> <Gold.Protein.ActiveResidues>
 VAL166  LYS551  ARG553  GLY616  TRP617  ASP618  TYR619  PRO620  LYS621  CYS622 
 ASP623  PHE694  ASN695  SER759  ASP760  ASP761  ALA762  ILE779  LEU786  VAL792 
 PHE793  MET794  SER795  GLU796  ALA797  LYS798  CYS799  TRP800  GLU811  SER814 

> <Gold.Protein.RotatedAtoms>
  152.2172  134.8446  160.0490 H   0  0  0  0  0  0  0  0  0  0  0  0  # atno 6907 bound_to 6896
  151.9243  133.3589  159.3916 H   0  0  0  0  0  0  0  0  0  0  0  0  # atno 6908 bound_to 6896
  150.6991  134.4528  159.5388 H   0  0  0  0  0  0  0  0  0  0  0  0  # atno 6909 bound_to 6896
  145.1682  140.8913  143.3550 H   0  0  0  0  0  0  0  0  0  0  0  0  # atno 7974 bound_to 7965
  155.8361  140.3464  155.5602 H   0  0  0  0  0  0  0  0  0  0  0  0  # atno 8008 bound_to 7997
  155.8191  140.0910  157.1879 H   0  0  0  0  0  0  0  0  0  0  0  0  # atno 8009 bound_to 7997
  154.4004  140.1433  156.3465 H   0  0  0  0  0  0  0  0  0  0  0  0  # atno 8010 bound_to 7997
  140.7220  143.5204  150.9640 H   0  0  0  0  0  0  0  0  0  0  0  0  # atno 10167 bound_to 10162
  157.1223  130.6555  149.5927 H   0  0  0  0  0  0  0  0  0  0  0  0  # atno 10718 bound_to 10713
  152.9801  135.5979  154.3746 H   0  0  0  0  0  0  0  0  0  0  0  0  # atno 10763 bound_to 10752
  154.3416  135.2767  155.2421 H   0  0  0  0  0  0  0  0  0  0  0  0  # atno 10764 bound_to 10752
  154.4500  135.5992  153.6241 H   0  0  0  0  0  0  0  0  0  0  0  0  # atno 10765 bound_to 10752
  139.8894  134.9498  156.6369 H   0  0  0  0  0  0  0  0  0  0  0  0  # atno 11005 bound_to 11000
  145.0260  139.3382  143.6048 LP  0  0  0  0  0  0  0  0  0  0  0  0  # atno 17320 bound_to 7965
  146.3472  139.9579  142.8721 LP  0  0  0  0  0  0  0  0  0  0  0  0  # atno 17321 bound_to 7965
  139.8921  143.6940  152.3143 LP  0  0  0  0  0  0  0  0  0  0  0  0  # atno 17342 bound_to 10162
  139.7259  144.7593  151.0879 LP  0  0  0  0  0  0  0  0  0  0  0  0  # atno 17343 bound_to 10162
  155.9826  130.4840  150.6889 LP  0  0  0  0  0  0  0  0  0  0  0  0  # atno 17370 bound_to 10713
  157.4466  131.0867  151.0889 LP  0  0  0  0  0  0  0  0  0  0  0  0  # atno 17371 bound_to 10713
  140.7623  133.8807  155.8428 LP  0  0  0  0  0  0  0  0  0  0  0  0  # atno 17394 bound_to 11000
  140.9911  134.1277  157.4407 LP  0  0  0  0  0  0  0  0  0  0  0  0  # atno 17395 bound_to 11000

$$$$
