AV-unprocessed.smi:1419|AV-procd|sdf|5785|dock3
  -GOLD-   22720 5433D 1   1.00000     0.00000
 Structure written by MMmdl.
 41 42  0  0  0  0  0  0  0  0  1 V2000
  154.3206  140.8156  161.0057 C   0  0  0  0  0  0  0  0  0  0  0  0
  153.1147  141.5821  160.4382 C   0  0  1  0  0  0  0  0  0  0  0  0
  153.4726  143.0047  159.9538 C   0  0  0  0  0  0  0  0  0  0  0  0
  152.3072  143.8541  159.7962 N   0  0  0  0  0  0  0  0  0  0  0  0
  151.8624  144.4627  158.6299 C   0  0  0  0  0  0  0  0  0  0  0  0
  150.7247  145.1630  158.9619 C   0  0  0  0  0  0  0  0  0  0  0  0
  150.4502  144.9966  160.3174 N   0  0  0  0  0  0  0  0  0  0  0  0
  151.4279  144.2075  160.7437 C   0  0  0  0  0  0  0  0  0  0  0  0
  152.5334  140.8091  159.3450 N   0  0  0  0  0  0  0  0  0  0  0  0
  151.3321  141.0257  158.7829 C   0  0  0  0  0  0  0  0  0  0  0  0
  150.5849  141.9293  159.1605 O   0  0  0  0  0  0  0  0  0  0  0  0
  151.0187  140.1776  157.7721 N   0  0  0  0  0  0  0  0  0  0  0  0
  151.9160  139.2256  157.1040 C   0  0  0  0  0  0  0  0  0  0  0  0
  152.1737  139.7308  155.6716 C   0  0  1  0  0  0  0  0  0  0  0  0
  153.0485  138.7625  154.8680 C   0  0  0  0  0  0  0  0  0  0  0  0
  150.9276  139.8731  154.9843 O   0  0  0  0  0  0  0  0  0  0  0  0
  149.9539  140.7025  155.6273 C   0  0  2  0  0  0  0  0  0  0  0  0
  150.3245  142.1929  155.5154 C   0  0  0  0  0  0  0  0  0  0  0  0
  149.7305  140.2188  157.0762 C   0  0  0  0  0  0  0  0  0  0  0  0
  154.7306  141.3094  161.8870 H   0  0  0  0  0  0  0  0  0  0  0  0
  155.1194  140.7323  160.2683 H   0  0  0  0  0  0  0  0  0  0  0  0
  154.0372  139.8060  161.3052 H   0  0  0  0  0  0  0  0  0  0  0  0
  152.3738  141.6606  161.2361 H   0  0  0  0  0  0  0  0  0  0  0  0
  154.1561  143.4829  160.6569 H   0  0  0  0  0  0  0  0  0  0  0  0
  153.9907  142.9649  158.9945 H   0  0  0  0  0  0  0  0  0  0  0  0
  152.3789  144.3530  157.6877 H   0  0  0  0  0  0  0  0  0  0  0  0
  150.0870  145.7678  158.3343 H   0  0  0  0  0  0  0  0  0  0  0  0
  151.5086  143.8808  161.7702 H   0  0  0  0  0  0  0  0  0  0  0  0
  153.0901  140.0490  158.9821 H   0  0  0  0  0  0  0  0  0  0  0  0
  152.8631  139.0733  157.6215 H   0  0  0  0  0  0  0  0  0  0  0  0
  151.4391  138.2444  157.0762 H   0  0  0  0  0  0  0  0  0  0  0  0
  152.6816  140.6950  155.7098 H   0  0  0  0  0  0  0  0  0  0  0  0
  154.0210  138.6259  155.3414 H   0  0  0  0  0  0  0  0  0  0  0  0
  153.2201  139.1397  153.8596 H   0  0  0  0  0  0  0  0  0  0  0  0
  152.5773  137.7830  154.7814 H   0  0  0  0  0  0  0  0  0  0  0  0
  149.0215  140.5620  155.0798 H   0  0  0  0  0  0  0  0  0  0  0  0
  149.5327  142.8194  155.9267 H   0  0  0  0  0  0  0  0  0  0  0  0
  150.4642  142.4801  154.4732 H   0  0  0  0  0  0  0  0  0  0  0  0
  151.2409  142.4361  156.0523 H   0  0  0  0  0  0  0  0  0  0  0  0
  149.2983  139.2172  157.0699 H   0  0  0  0  0  0  0  0  0  0  0  0
  148.9961  140.8530  157.5750 H   0  0  0  0  0  0  0  0  0  0  0  0
  1  2  1  0  0  0  0
  1 20  1  0  0  0  0
  1 21  1  0  0  0  0
  1 22  1  0  0  0  0
  2  3  1  0  0  0  0
  2  9  1  0  0  0  0
  2 23  1  0  0  0  0
  3  4  1  0  0  0  0
  3 24  1  0  0  0  0
  3 25  1  0  0  0  0
  4  8  1  0  0  0  0
  4  5  1  0  0  0  0
  5  6  2  0  0  0  0
  5 26  1  0  0  0  0
  6  7  1  0  0  0  0
  6 27  1  0  0  0  0
  7  8  2  0  0  0  0
  8 28  1  0  0  0  0
  9 10  1  0  0  0  0
  9 29  1  0  0  0  0
 10 11  2  0  0  0  0
 10 12  1  0  0  0  0
 12 19  1  0  0  0  0
 12 13  1  0  0  0  0
 13 14  1  0  0  0  0
 13 30  1  0  0  0  0
 13 31  1  0  0  0  0
 14 15  1  0  0  0  0
 14 16  1  0  0  0  0
 14 32  1  0  0  0  0
 15 33  1  0  0  0  0
 15 34  1  0  0  0  0
 15 35  1  0  0  0  0
 16 17  1  0  0  0  0
 17 18  1  0  0  0  0
 17 19  1  0  0  0  0
 17 36  1  0  0  0  0
 18 37  1  0  0  0  0
 18 38  1  0  0  0  0
 18 39  1  0  0  0  0
 19 40  1  0  0  0  0
 19 41  1  0  0  0  0
M  END
> <s_m_source_file>
AV-unprocessed.smi

> <i_m_source_file_index>
1419

> <i_lp_mmshare_version>
43012

> <i_f3d_flags>
0

> <s_epik_input>
W2NIXTFuW2NIXVtjSF1uMVtDSDJdW0NAQEhdKFtDSDNdKVtOSF1DKD1PKU4yW0NIMl1bQ0BASF0oW0NIM10pT1tDQEBIXShbQ0gzXSlbQ0gyXTI=

> <s_epik_cmdline>
J2VwaWtfcHl0aG9uJywgJy1waCcsICc3LjAnLCAnLXRuJywgJzgnLCAnLW1hJywgJzIwMCcsICctbWV0YWxfYmluZGluZycsICctaW1hZScsICc8aW5maWxlLm1hZT4nLCAnLW9tYWUnLCAnPG91dGZpbGUubWFlPic=

> <r_lp_tautomer_probability>
1

> <r_epik_Ionization_Penalty>
0.625124

> <r_epik_Ionization_Penalty_Charging>
0.625093

> <r_epik_Ionization_Penalty_Neutral>
3.17415e-05

> <r_epik_State_Penalty>
0.641455

> <r_epik_Charging_Adjusted_Penalty>
1.26655

> <i_epik_Tot_Q>
0

> <i_epik_Tot_abs_Q>
0

> <r_epik_Metal_State_Penalty>
0.307717

> <b_epik_Metal_Only>
0

> <s_lp_Force_Field>
OPLS_2005

> <r_lp_Energy>
31.3243

> <b_lp_Chiralities_Consistent>
1

> <s_lp_Variant>
AV-unprocessed.smi:1419-12

> <Gold.Version>
5.8.1

> <Gold.Id.Protein>
6NUR|6NUR_protein|mol2

> <Gold.PLP.Fitness>
45.2851

> <Gold.PLP.PLP>
-39.9336

> <Gold.PLP.part.hbond>
-2.0000

> <Gold.PLP.part.metal>
0.0000

> <Gold.PLP.part.buried>
-2.6498

> <Gold.PLP.part.nonpolar>
-35.7627

> <Gold.PLP.part.repulsive>
0.3873

> <Gold.PLP.ligand.clash>
0.0000

> <Gold.PLP.ligand.torsion>
0.2718

> <Gold.PLP.Chemscore.Hbond>
0.9500

> <Gold.PLP.Chemscore.CHOScore>
1.0000

> <Gold.PLP.Chemscore.Metal>
0.0000

> <Gold.Chemscore.Hbonds>
donor molecule, donor type, donor heavy atom, donor atom, acceptor molecule, acceptor atom, score
      P1  H  7989  7998       L1    16  0.80
      L1  C     6    27       P1  8029  1.00

> <Gold.PLP.Chemscore.Internal.Correction>
0.0451

> <Gold.Rescore>
     Score         DG    S(hbond)    S(metal)    S(lipo)     H(rot)  DE(clash)    DE(int)     intcor
     10.77     -12.64       0.01        0.00      95.49       1.58       0.10       1.78       ----

> <Gold.Chemscore.Fitness>
10.7666

> <Gold.Chemscore.DG>
-12.6408

> <Gold.Chemscore.ZeroCoef>
-5.4800

> <Gold.Chemscore.Hbond>
0.0077

> <Gold.Chemscore.Metal>
0.0000

> <Gold.Chemscore.Lipo>
95.4880

> <Gold.Chemscore.Internal_Hbond>
0.0000

> <Gold.Chemscore.DEClash>
0.0953

> <Gold.Chemscore.DEInternal>
1.7789

> <Gold.Chemscore.Rot>
1.5769

> <Gold.Chemscore.Internal.Correction>
   9.000000E+99

> <Gold.Chemscore.Hbonds>
donor molecule, donor type, donor heavy atom, donor atom, acceptor molecule, acceptor atom, score
      P1  H  7989  7998       L1    16  0.07

> <Gold.Chemscore.Hbond.Weighted>
-0.0256

> <Gold.Chemscore.Metal.Weighted>
-0.0000

> <Gold.Chemscore.Lipo.Weighted>
-11.1721

> <Gold.Chemscore.Internal_Hbond.Weighted>
0.0000

> <Gold.Chemscore.DEClash.Weighted>
0.0953

> <Gold.Chemscore.DEInternal.Weighted>
1.7789

> <Gold.Chemscore.Rot.Weighted>
4.0369

> <Gold.Chemscore.Internal.Correction.Weighted>
   9.000000E+99

> <Gold.Protein.RotatedTorsions>
[ 6907 6896 6895 6894 ] final  -57.62 input  -60.11 | X-H torsion
[ 7974 7965 7964 7962 ] final   12.54 input  175.53 | X-H torsion
[ 8008 7997 7996 7995 ] final  -49.94 input   59.86 | X-H torsion
[ 10167 10162 10161 10158 ] final -156.11 input  -65.29 | X-H torsion
[ 10718 10713 10712 10709 ] final  -99.73 input   66.30 | X-H torsion
[ 10763 10752 10751 10750 ] final  -72.25 input  -60.55 | X-H torsion
[ 11005 11000 10999 10996 ] final  -78.87 input  -57.11 | X-H torsion

> <Gold.Protein.ActiveResidues>
 VAL166  LYS551  ARG553  GLY616  TRP617  ASP618  TYR619  PRO620  LYS621  CYS622 
 ASP623  PHE694  ASN695  SER759  ASP760  ASP761  ALA762  ILE779  LEU786  VAL792 
 PHE793  MET794  SER795  GLU796  ALA797  LYS798  CYS799  TRP800  GLU811  SER814 

> <Gold.Protein.RotatedAtoms>
  150.8071  134.7203  159.6654 H   0  0  0  0  0  0  0  0  0  0  0  0  # atno 6907 bound_to 6896
  152.4191  134.5985  160.0003 H   0  0  0  0  0  0  0  0  0  0  0  0  # atno 6908 bound_to 6896
  151.6205  133.3302  159.3123 H   0  0  0  0  0  0  0  0  0  0  0  0  # atno 6909 bound_to 6896
  146.2349  139.9321  142.8495 H   0  0  0  0  0  0  0  0  0  0  0  0  # atno 7974 bound_to 7965
  154.4053  140.1284  156.4585 H   0  0  0  0  0  0  0  0  0  0  0  0  # atno 8008 bound_to 7997
  155.7297  140.3491  155.5034 H   0  0  0  0  0  0  0  0  0  0  0  0  # atno 8009 bound_to 7997
  155.9139  140.1040  157.1249 H   0  0  0  0  0  0  0  0  0  0  0  0  # atno 8010 bound_to 7997
  139.6877  143.9474  152.2369 H   0  0  0  0  0  0  0  0  0  0  0  0  # atno 10167 bound_to 10162
  156.0142  130.5296  150.6713 H   0  0  0  0  0  0  0  0  0  0  0  0  # atno 10718 bound_to 10713
  154.4431  135.5936  153.6142 H   0  0  0  0  0  0  0  0  0  0  0  0  # atno 10763 bound_to 10752
  152.9807  135.6003  154.3698 H   0  0  0  0  0  0  0  0  0  0  0  0  # atno 10764 bound_to 10752
  154.3550  135.2841  155.2330 H   0  0  0  0  0  0  0  0  0  0  0  0  # atno 10765 bound_to 10752
  141.1666  133.7081  156.8037 H   0  0  0  0  0  0  0  0  0  0  0  0  # atno 11005 bound_to 11000
  145.2034  140.9864  143.4142 LP  0  0  0  0  0  0  0  0  0  0  0  0  # atno 17320 bound_to 7965
  144.9754  139.3837  143.6288 LP  0  0  0  0  0  0  0  0  0  0  0  0  # atno 17321 bound_to 7965
  139.9281  144.6758  150.8391 LP  0  0  0  0  0  0  0  0  0  0  0  0  # atno 17342 bound_to 10162
  140.7673  143.3327  151.2374 LP  0  0  0  0  0  0  0  0  0  0  0  0  # atno 17343 bound_to 10162
  157.4435  131.0864  151.0919 LP  0  0  0  0  0  0  0  0  0  0  0  0  # atno 17370 bound_to 10713
  157.1456  130.6162  149.5567 LP  0  0  0  0  0  0  0  0  0  0  0  0  # atno 17371 bound_to 10713
  140.2237  134.8737  157.3404 LP  0  0  0  0  0  0  0  0  0  0  0  0  # atno 17394 bound_to 11000
  140.1961  134.4312  155.7688 LP  0  0  0  0  0  0  0  0  0  0  0  0  # atno 17395 bound_to 11000

$$$$
