AV-unprocessed.smi:824|AV-procd|sdf|3849|dock7
  -GOLD-   22720 1293D 1   1.00000     0.00000
 Structure written by MMmdl.
 52 53  0  0  0  0  0  0  0  0  1 V2000
  147.2779  142.1421  154.7148 C   0  0  0  0  0  0  0  0  0  0  0  0
  148.6030  141.5019  155.0900 C   0  0  0  0  0  0  0  0  0  0  0  0
  149.3273  142.1954  156.0423 N   0  0  0  0  0  0  0  0  0  0  0  0
  150.5578  141.6981  156.4530 C   0  0  0  0  0  0  0  0  0  0  0  0
  151.1962  142.4733  157.4183 N   0  0  0  0  0  0  0  0  0  0  0  0
  151.5532  143.8556  157.1012 C   0  0  0  0  0  0  0  0  0  0  0  0
  151.8071  144.6735  158.3788 C   0  0  0  0  0  0  0  0  0  0  0  0
  152.8067  144.0368  159.1638 O   0  0  0  0  0  0  0  0  0  0  0  0
  152.4018  142.7345  159.5655 C   0  0  0  0  0  0  0  0  0  0  0  0
  152.1682  141.8598  158.3224 C   0  0  0  0  0  0  0  0  0  0  0  0
  151.0711  140.5964  155.9865 N   0  0  0  0  0  0  0  0  0  0  0  0
  150.3878  139.8518  155.0136 C   0  0  0  0  0  0  0  0  0  0  0  0
  150.8761  138.8162  154.5637 O   0  0  0  0  0  0  0  0  0  0  0  0
  149.0775  140.3540  154.5500 C   0  0  0  0  0  0  0  0  0  0  0  0
  148.3175  139.5506  153.4982 C   0  0  0  0  0  0  0  0  0  0  0  0
  146.9733  139.0223  154.0372 C   0  0  0  0  0  0  0  0  0  0  0  0
  146.1682  138.2038  153.0104 C   0  0  0  0  0  0  0  0  0  0  0  0
  146.5670  138.1515  151.8453 O   0  0  0  0  0  0  0  0  0  0  0  0
  145.0279  137.5841  153.4032 N   0  0  0  0  0  0  0  0  0  0  0  0
  144.6469  137.5874  154.8198 C   0  0  0  0  0  0  0  0  0  0  0  0
  144.1402  136.8229  152.5090 C   0  0  0  0  0  0  0  0  0  0  0  0
  144.7664  135.4985  152.0081 C   0  0  0  0  0  0  0  0  0  0  0  0
  145.6380  135.6864  150.7547 C   0  0  0  0  0  0  0  0  0  0  0  0
  143.6741  134.4503  151.7498 C   0  0  0  0  0  0  0  0  0  0  0  0
  148.9298  143.0462  156.4129 H   0  0  0  0  0  0  0  0  0  0  0  0
  147.2270  142.3121  153.6392 H   0  0  0  0  0  0  0  0  0  0  0  0
  147.1400  143.1027  155.2124 H   0  0  0  0  0  0  0  0  0  0  0  0
  146.4490  141.4945  155.0016 H   0  0  0  0  0  0  0  0  0  0  0  0
  150.7687  144.3372  156.5168 H   0  0  0  0  0  0  0  0  0  0  0  0
  152.4500  143.8518  156.4802 H   0  0  0  0  0  0  0  0  0  0  0  0
  152.1454  145.6771  158.1206 H   0  0  0  0  0  0  0  0  0  0  0  0
  150.8890  144.7864  158.9575 H   0  0  0  0  0  0  0  0  0  0  0  0
  153.1807  142.2978  160.1906 H   0  0  0  0  0  0  0  0  0  0  0  0
  151.4987  142.7929  160.1750 H   0  0  0  0  0  0  0  0  0  0  0  0
  153.1082  141.7120  157.7887 H   0  0  0  0  0  0  0  0  0  0  0  0
  151.8201  140.8740  158.6347 H   0  0  0  0  0  0  0  0  0  0  0  0
  148.9311  138.7161  153.1587 H   0  0  0  0  0  0  0  0  0  0  0  0
  148.1599  140.1692  152.6131 H   0  0  0  0  0  0  0  0  0  0  0  0
  147.1719  138.4169  154.9195 H   0  0  0  0  0  0  0  0  0  0  0  0
  146.3579  139.8621  154.3617 H   0  0  0  0  0  0  0  0  0  0  0  0
  144.6215  138.6043  155.2143 H   0  0  0  0  0  0  0  0  0  0  0  0
  145.3634  137.0117  155.4071 H   0  0  0  0  0  0  0  0  0  0  0  0
  143.6594  137.1571  154.9890 H   0  0  0  0  0  0  0  0  0  0  0  0
  143.1922  136.6201  153.0081 H   0  0  0  0  0  0  0  0  0  0  0  0
  143.8615  137.4379  151.6521 H   0  0  0  0  0  0  0  0  0  0  0  0
  145.4135  135.0972  152.7871 H   0  0  0  0  0  0  0  0  0  0  0  0
  145.0657  136.1215  149.9348 H   0  0  0  0  0  0  0  0  0  0  0  0
  146.0391  134.7330  150.4096 H   0  0  0  0  0  0  0  0  0  0  0  0
  146.4891  136.3380  150.9526 H   0  0  0  0  0  0  0  0  0  0  0  0
  142.9882  134.7770  150.9676 H   0  0  0  0  0  0  0  0  0  0  0  0
  143.0883  134.2627  152.6499 H   0  0  0  0  0  0  0  0  0  0  0  0
  144.1066  133.4994  151.4373 H   0  0  0  0  0  0  0  0  0  0  0  0
  1 26  1  0  0  0  0
  1 27  1  0  0  0  0
  1 28  1  0  0  0  0
  1  2  1  0  0  0  0
  2 14  2  0  0  0  0
  2  3  1  0  0  0  0
  3 25  1  0  0  0  0
  3  4  1  0  0  0  0
  4  5  1  0  0  0  0
  4 11  2  0  0  0  0
  5 10  1  0  0  0  0
  5  6  1  0  0  0  0
  6  7  1  0  0  0  0
  6 29  1  0  0  0  0
  6 30  1  0  0  0  0
  7  8  1  0  0  0  0
  7 31  1  0  0  0  0
  7 32  1  0  0  0  0
  8  9  1  0  0  0  0
  9 10  1  0  0  0  0
  9 33  1  0  0  0  0
  9 34  1  0  0  0  0
 10 35  1  0  0  0  0
 10 36  1  0  0  0  0
 11 12  1  0  0  0  0
 12 13  2  0  0  0  0
 12 14  1  0  0  0  0
 14 15  1  0  0  0  0
 15 16  1  0  0  0  0
 15 37  1  0  0  0  0
 15 38  1  0  0  0  0
 16 17  1  0  0  0  0
 16 39  1  0  0  0  0
 16 40  1  0  0  0  0
 17 18  2  0  0  0  0
 17 19  1  0  0  0  0
 19 20  1  0  0  0  0
 19 21  1  0  0  0  0
 20 41  1  0  0  0  0
 20 42  1  0  0  0  0
 20 43  1  0  0  0  0
 21 22  1  0  0  0  0
 21 44  1  0  0  0  0
 21 45  1  0  0  0  0
 22 23  1  0  0  0  0
 22 24  1  0  0  0  0
 22 46  1  0  0  0  0
 23 47  1  0  0  0  0
 23 48  1  0  0  0  0
 23 49  1  0  0  0  0
 24 50  1  0  0  0  0
 24 51  1  0  0  0  0
 24 52  1  0  0  0  0
M  END
> <s_m_source_file>
AV-unprocessed.smi

> <i_m_source_file_index>
824

> <i_lp_mmshare_version>
43012

> <i_f3d_flags>
0

> <s_epik_input>
W0NIMl0xW0NIMl1PW0NIMl1bQ0gyXU4xYyhuYzJbQ0gzXSlbbkhdYyg9TyljMltDSDJdW0NIMl1DKD1PKU4oW0NIM10pW0NIMl1bQ0hdKFtDSDNdKVtDSDNd

> <s_epik_cmdline>
J2VwaWtfcHl0aG9uJywgJy1waCcsICc3LjAnLCAnLXRuJywgJzgnLCAnLW1hJywgJzIwMCcsICctbWV0YWxfYmluZGluZycsICctaW1hZScsICc8aW5maWxlLm1hZT4nLCAnLW9tYWUnLCAnPG91dGZpbGUubWFlPic=

> <r_lp_tautomer_probability>
0.108306

> <r_epik_Ionization_Penalty>
0.0729191

> <r_epik_Ionization_Penalty_Charging>
0.0597558

> <r_epik_Ionization_Penalty_Neutral>
0.0131634

> <r_epik_State_Penalty>
1.71329

> <r_epik_Charging_Adjusted_Penalty>
1.77304

> <i_epik_Tot_Q>
0

> <i_epik_Tot_abs_Q>
0

> <r_epik_Metal_State_Penalty>
2.71696

> <b_epik_Metal_Only>
0

> <s_lp_Force_Field>
OPLS_2005

> <r_lp_Energy>
37.7489

> <b_lp_Chiralities_Consistent>
1

> <s_lp_Variant>
AV-unprocessed.smi:824-2

> <Gold.Version>
5.8.1

> <Gold.Id.Protein>
6NUR|6NUR_protein|mol2

> <Gold.PLP.Fitness>
42.1417

> <Gold.PLP.PLP>
-42.3676

> <Gold.PLP.part.hbond>
-1.0000

> <Gold.PLP.part.metal>
0.0000

> <Gold.PLP.part.buried>
-3.1200

> <Gold.PLP.part.nonpolar>
-39.2872

> <Gold.PLP.part.repulsive>
1.0191

> <Gold.PLP.ligand.clash>
0.0000

> <Gold.PLP.ligand.torsion>
1.2049

> <Gold.PLP.Chemscore.Hbond>
0.6080

> <Gold.PLP.Chemscore.CHOScore>
0.0000

> <Gold.PLP.Chemscore.Metal>
0.0000

> <Gold.Chemscore.Hbonds>
donor molecule, donor type, donor heavy atom, donor atom, acceptor molecule, acceptor atom, score
      L1  H     3    25       P1  8028  0.59

> <Gold.PLP.Chemscore.Internal.Correction>
0.3598

> <Gold.Rescore>
     Score         DG    S(hbond)    S(metal)    S(lipo)     H(rot)  DE(clash)    DE(int)     intcor
     10.40     -14.38       0.59        0.00      96.55       1.71       1.47       2.51       ----

> <Gold.Chemscore.Fitness>
10.4031

> <Gold.Chemscore.DG>
-14.3826

> <Gold.Chemscore.ZeroCoef>
-5.4800

> <Gold.Chemscore.Hbond>
0.5935

> <Gold.Chemscore.Metal>
0.0000

> <Gold.Chemscore.Lipo>
96.5490

> <Gold.Chemscore.Internal_Hbond>
0.0000

> <Gold.Chemscore.DEClash>
1.4729

> <Gold.Chemscore.DEInternal>
2.5066

> <Gold.Chemscore.Rot>
1.7093

> <Gold.Chemscore.Internal.Correction>
   9.000000E+99

> <Gold.Chemscore.Hbonds>
donor molecule, donor type, donor heavy atom, donor atom, acceptor molecule, acceptor atom, score
      L1  H     3    25       P1  8028  0.58

> <Gold.Chemscore.Hbond.Weighted>
-1.9822

> <Gold.Chemscore.Metal.Weighted>
-0.0000

> <Gold.Chemscore.Lipo.Weighted>
-11.2962

> <Gold.Chemscore.Internal_Hbond.Weighted>
0.0000

> <Gold.Chemscore.DEClash.Weighted>
1.4729

> <Gold.Chemscore.DEInternal.Weighted>
2.5066

> <Gold.Chemscore.Rot.Weighted>
4.3759

> <Gold.Chemscore.Internal.Correction.Weighted>
   9.000000E+99

> <Gold.Protein.RotatedTorsions>
[ 6907 6896 6895 6894 ] final  -87.46 input  -60.11 | X-H torsion
[ 7974 7965 7964 7962 ] final  -91.66 input  175.53 | X-H torsion
[ 8008 7997 7996 7995 ] final -176.47 input   59.86 | X-H torsion
[ 10167 10162 10161 10158 ] final  -77.67 input  -65.29 | X-H torsion
[ 10718 10713 10712 10709 ] final   95.94 input   66.30 | X-H torsion
[ 10763 10752 10751 10750 ] final  -51.92 input  -60.55 | X-H torsion
[ 11005 11000 10999 10996 ] final   31.10 input  -57.11 | X-H torsion

> <Gold.Protein.ActiveResidues>
 VAL166  LYS551  ARG553  GLY616  TRP617  ASP618  TYR619  PRO620  LYS621  CYS622 
 ASP623  PHE694  ASN695  SER759  ASP760  ASP761  ALA762  ILE779  LEU786  VAL792 
 PHE793  MET794  SER795  GLU796  ALA797  LYS798  CYS799  TRP800  GLU811  SER814 

> <Gold.Protein.RotatedAtoms>
  150.6866  134.2893  159.4659 H   0  0  0  0  0  0  0  0  0  0  0  0  # atno 6907 bound_to 6896
  152.0800  134.9475  160.0583 H   0  0  0  0  0  0  0  0  0  0  0  0  # atno 6908 bound_to 6896
  152.0831  133.4128  159.4547 H   0  0  0  0  0  0  0  0  0  0  0  0  # atno 6909 bound_to 6896
  145.4102  140.9544  143.2238 H   0  0  0  0  0  0  0  0  0  0  0  0  # atno 7974 bound_to 7965
  155.9952  140.1209  157.0600 H   0  0  0  0  0  0  0  0  0  0  0  0  # atno 8008 bound_to 7997
  154.4224  140.1117  156.5689 H   0  0  0  0  0  0  0  0  0  0  0  0  # atno 8009 bound_to 7997
  155.6288  140.3473  155.4678 H   0  0  0  0  0  0  0  0  0  0  0  0  # atno 8010 bound_to 7997
  140.4749  143.2417  151.8147 H   0  0  0  0  0  0  0  0  0  0  0  0  # atno 10167 bound_to 10162
  157.6933  131.0562  150.4416 H   0  0  0  0  0  0  0  0  0  0  0  0  # atno 10718 bound_to 10713
  154.1344  135.6515  153.4928 H   0  0  0  0  0  0  0  0  0  0  0  0  # atno 10763 bound_to 10752
  153.0185  135.5300  154.6969 H   0  0  0  0  0  0  0  0  0  0  0  0  # atno 10764 bound_to 10752
  154.6212  135.2965  155.0294 H   0  0  0  0  0  0  0  0  0  0  0  0  # atno 10765 bound_to 10752
  140.2874  134.2903  155.7784 H   0  0  0  0  0  0  0  0  0  0  0  0  # atno 11005 bound_to 11000
  144.8314  139.5622  143.6942 LP  0  0  0  0  0  0  0  0  0  0  0  0  # atno 17320 bound_to 7965
  146.2709  139.6632  142.9297 LP  0  0  0  0  0  0  0  0  0  0  0  0  # atno 17321 bound_to 7965
  139.4824  144.4845  151.9264 LP  0  0  0  0  0  0  0  0  0  0  0  0  # atno 17342 bound_to 10162
  140.3930  144.2591  150.5898 LP  0  0  0  0  0  0  0  0  0  0  0  0  # atno 17343 bound_to 10162
  156.4774  130.4066  149.6482 LP  0  0  0  0  0  0  0  0  0  0  0  0  # atno 17370 bound_to 10713
  156.3540  130.7447  151.2410 LP  0  0  0  0  0  0  0  0  0  0  0  0  # atno 17371 bound_to 10713
  141.2152  133.7564  156.9573 LP  0  0  0  0  0  0  0  0  0  0  0  0  # atno 17394 bound_to 11000
  140.1227  134.9407  157.2226 LP  0  0  0  0  0  0  0  0  0  0  0  0  # atno 17395 bound_to 11000

$$$$
