AV-unprocessed.smi:2623|AV-procd|sdf|10232|dock10
  -GOLD-   2272014243D 1   1.00000     0.00000
 Structure written by MMmdl.
 41 43  0  0  0  0  0  0  0  0  2 V2000
  149.9309  140.9479  153.5510 O   0  0  0  0  0  0  0  0  0  0  0  0
  149.4552  140.6027  154.8350 C   0  0  0  0  0  0  0  0  0  0  0  0
  150.2440  141.2248  155.9435 C   0  0  0  0  0  0  0  0  0  0  0  0
  150.3631  142.5590  156.2011 N   0  3  0  0  0  0  0  0  0  0  0  0
  151.1842  142.7569  157.3117 C   0  0  0  0  0  0  0  0  0  0  0  0
  151.5950  143.9250  157.9464 C   0  0  0  0  0  0  0  0  0  0  0  0
  152.4428  143.7734  159.0634 C   0  0  0  0  0  0  0  0  0  0  0  0
  152.8497  142.4987  159.5090 C   0  0  0  0  0  0  0  0  0  0  0  0
  152.4263  141.3217  158.8574 C   0  0  0  0  0  0  0  0  0  0  0  0
  151.5880  141.4808  157.7546 C   0  0  0  0  0  0  0  0  0  0  0  0
  150.9825  140.5678  156.8842 N   0  0  0  0  0  0  0  0  0  0  0  0
  151.2126  139.1281  157.0830 C   0  0  0  0  0  0  0  0  0  0  0  0
  152.3369  138.5675  156.1883 C   0  0  1  0  0  0  0  0  0  0  0  0
  152.9319  139.6360  155.4783 O   0  0  0  0  0  0  0  0  0  0  0  0
  153.4230  137.8567  157.0114 C   0  0  0  0  0  0  0  0  0  0  0  0
  154.0094  138.7944  157.9044 O   0  0  0  0  0  0  0  0  0  0  0  0
  153.9736  138.5215  159.2552 C   0  0  0  0  0  0  0  0  0  0  0  0
  154.4794  139.5130  160.1216 C   0  0  0  0  0  0  0  0  0  0  0  0
  154.4827  139.3191  161.5165 C   0  0  0  0  0  0  0  0  0  0  0  0
  153.9776  138.1245  162.0614 C   0  0  0  0  0  0  0  0  0  0  0  0
  153.4707  137.1259  161.2091 C   0  0  0  0  0  0  0  0  0  0  0  0
  153.4669  137.3204  159.8138 C   0  0  0  0  0  0  0  0  0  0  0  0
  149.7185  140.2461  152.9542 H   0  0  0  0  0  0  0  0  0  0  0  0
  148.4125  140.9105  154.9168 H   0  0  0  0  0  0  0  0  0  0  0  0
  149.4833  139.5181  154.9438 H   0  0  0  0  0  0  0  0  0  0  0  0
  151.2849  144.9021  157.6062 H   0  0  0  0  0  0  0  0  0  0  0  0
  152.7880  144.6521  159.5887 H   0  0  0  0  0  0  0  0  0  0  0  0
  153.5000  142.4220  160.3685 H   0  0  0  0  0  0  0  0  0  0  0  0
  152.7430  140.3499  159.2068 H   0  0  0  0  0  0  0  0  0  0  0  0
  151.4521  138.9710  158.1354 H   0  0  0  0  0  0  0  0  0  0  0  0
  150.2730  138.6041  156.9028 H   0  0  0  0  0  0  0  0  0  0  0  0
  151.9088  137.8666  155.4708 H   0  0  0  0  0  0  0  0  0  0  0  0
  152.2456  140.1935  155.1452 H   0  0  0  0  0  0  0  0  0  0  0  0
  153.0085  136.9972  157.5415 H   0  0  0  0  0  0  0  0  0  0  0  0
  154.2012  137.4909  156.3394 H   0  0  0  0  0  0  0  0  0  0  0  0
  154.8687  140.4337  159.7121 H   0  0  0  0  0  0  0  0  0  0  0  0
  154.8729  140.0874  162.1676 H   0  0  0  0  0  0  0  0  0  0  0  0
  153.9791  137.9742  163.1310 H   0  0  0  0  0  0  0  0  0  0  0  0
  153.0832  136.2079  161.6256 H   0  0  0  0  0  0  0  0  0  0  0  0
  153.0695  136.5313  159.1939 H   0  0  0  0  0  0  0  0  0  0  0  0
  149.9106  143.2777  155.6509 H   0  0  0  0  0  0  0  0  0  0  0  0
  1  2  1  0  0  0  0
  1 23  1  0  0  0  0
  2  3  1  0  0  0  0
  2 24  1  0  0  0  0
  2 25  1  0  0  0  0
  3 11  1  0  0  0  0
  3  4  2  0  0  0  0
  4  5  1  0  0  0  0
  4 41  1  0  0  0  0
  5 10  2  0  0  0  0
  5  6  1  0  0  0  0
  6  7  2  0  0  0  0
  6 26  1  0  0  0  0
  7  8  1  0  0  0  0
  7 27  1  0  0  0  0
  8  9  2  0  0  0  0
  8 28  1  0  0  0  0
  9 10  1  0  0  0  0
  9 29  1  0  0  0  0
 10 11  1  0  0  0  0
 11 12  1  0  0  0  0
 12 13  1  0  0  0  0
 12 30  1  0  0  0  0
 12 31  1  0  0  0  0
 13 14  1  0  0  0  0
 13 15  1  0  0  0  0
 13 32  1  0  0  0  0
 14 33  1  0  0  0  0
 15 16  1  0  0  0  0
 15 34  1  0  0  0  0
 15 35  1  0  0  0  0
 16 17  1  0  0  0  0
 17 22  1  0  0  0  0
 17 18  2  0  0  0  0
 18 19  1  0  0  0  0
 18 36  1  0  0  0  0
 19 20  2  0  0  0  0
 19 37  1  0  0  0  0
 20 21  1  0  0  0  0
 20 38  1  0  0  0  0
 21 22  2  0  0  0  0
 21 39  1  0  0  0  0
 22 40  1  0  0  0  0
M  CHG  1   4   1
M  END
> <s_m_source_file>
AV-unprocessed.smi

> <i_m_source_file_index>
2623

> <i_lp_mmshare_version>
43012

> <i_f3d_flags>
0

> <s_epik_input>
W2NIXTFbY0hdW2NIXVtjSF1jKGMxMiluKGMobjIpW0NIMl1bT0hdKVtDSDJdW0NASF0oW09IXSlbQ0gyXU9jM1tjSF1bY0hdW2NIXVtjSF1bY0hdMw==

> <s_epik_cmdline>
J2VwaWtfcHl0aG9uJywgJy1waCcsICc3LjAnLCAnLXRuJywgJzgnLCAnLW1hJywgJzIwMCcsICctbWV0YWxfYmluZGluZycsICctaW1hZScsICc8aW5maWxlLm1hZT4nLCAnLW9tYWUnLCAnPG91dGZpbGUubWFlPic=

> <r_lp_tautomer_probability>
1

> <r_epik_Ionization_Penalty>
1.40416

> <r_epik_Ionization_Penalty_Charging>
1.4033

> <r_epik_Ionization_Penalty_Neutral>
0.000858184

> <r_epik_State_Penalty>
1.48564

> <r_epik_Charging_Adjusted_Penalty>
2.88894

> <i_epik_Tot_Q>
1

> <i_epik_Tot_abs_Q>
1

> <r_epik_Metal_State_Penalty>
5.52809

> <b_epik_Metal_Only>
0

> <s_lp_Force_Field>
OPLS_2005

> <r_lp_Energy>
19.2357

> <b_lp_Chiralities_Consistent>
1

> <s_lp_Variant>
AV-unprocessed.smi:2623-4

> <Gold.Version>
5.8.1

> <Gold.Id.Protein>
6NUR|6NUR_protein|mol2

> <Gold.PLP.Fitness>
58.2497

> <Gold.PLP.PLP>
-44.3452

> <Gold.PLP.part.hbond>
-5.7619

> <Gold.PLP.part.metal>
0.0000

> <Gold.PLP.part.buried>
-4.1681

> <Gold.PLP.part.nonpolar>
-34.4496

> <Gold.PLP.part.repulsive>
0.1079

> <Gold.PLP.ligand.clash>
0.0000

> <Gold.PLP.ligand.torsion>
1.4741

> <Gold.PLP.Chemscore.Hbond>
5.6080

> <Gold.PLP.Chemscore.CHOScore>
0.0000

> <Gold.PLP.Chemscore.Metal>
0.0000

> <Gold.Chemscore.Hbonds>
donor molecule, donor type, donor heavy atom, donor atom, acceptor molecule, acceptor atom, score
      L1  H     1    23       P1  7957  0.72
      L1  H     4    41       P1  8028  1.89
      P1  H  7989  7998       L1     1  0.30
      P1  H  7997  8009       L1    16  0.75
      P1  H  7997  8010       L1    14  0.90
      P1  H  8011  8017       L1     1  0.94

> <Gold.PLP.Chemscore.Internal.Correction>
0.0286

> <Gold.Rescore>
     Score         DG    S(hbond)    S(metal)    S(lipo)     H(rot)  DE(clash)    DE(int)     intcor
     22.50     -24.04       3.67        0.00     122.47       3.13       0.10       1.43       ----

> <Gold.Chemscore.Fitness>
22.5015

> <Gold.Chemscore.DG>
-24.0384

> <Gold.Chemscore.ZeroCoef>
-5.4800

> <Gold.Chemscore.Hbond>
3.6656

> <Gold.Chemscore.Metal>
0.0000

> <Gold.Chemscore.Lipo>
122.4741

> <Gold.Chemscore.Internal_Hbond>
0.0000

> <Gold.Chemscore.DEClash>
0.1022

> <Gold.Chemscore.DEInternal>
1.4346

> <Gold.Chemscore.Rot>
3.1305

> <Gold.Chemscore.Internal.Correction>
   9.000000E+99

> <Gold.Chemscore.Hbonds>
donor molecule, donor type, donor heavy atom, donor atom, acceptor molecule, acceptor atom, score
      L1  H     1    23       P1  7957  0.72
      L1  H     4    41       P1  8028  0.91
      P1  H  7989  7998       L1     1  0.07
      P1  H  7997  8009       L1    16  0.72
      P1  H  7997  8010       L1    14  0.87
      P1  H  8011  8017       L1     1  0.20

> <Gold.Chemscore.Hbond.Weighted>
-12.2430

> <Gold.Chemscore.Metal.Weighted>
-0.0000

> <Gold.Chemscore.Lipo.Weighted>
-14.3295

> <Gold.Chemscore.Internal_Hbond.Weighted>
0.0000

> <Gold.Chemscore.DEClash.Weighted>
0.1022

> <Gold.Chemscore.DEInternal.Weighted>
1.4346

> <Gold.Chemscore.Rot.Weighted>
8.0141

> <Gold.Chemscore.Internal.Correction.Weighted>
   9.000000E+99

> <Gold.Protein.RotatedTorsions>
[ 6907 6896 6895 6894 ] final -121.72 input  -60.11 | X-H torsion
[ 7974 7965 7964 7962 ] final   86.76 input  175.53 | X-H torsion
[ 8008 7997 7996 7995 ] final  118.38 input   59.86 | X-H torsion
[ 10167 10162 10161 10158 ] final  -19.85 input  -65.29 | X-H torsion
[ 10718 10713 10712 10709 ] final  144.48 input   66.30 | X-H torsion
[ 10763 10752 10751 10750 ] final   29.54 input  -60.55 | X-H torsion
[ 11005 11000 10999 10996 ] final -101.69 input  -57.11 | X-H torsion

> <Gold.Protein.ActiveResidues>
 VAL166  LYS551  ARG553  GLY616  TRP617  ASP618  TYR619  PRO620  LYS621  CYS622 
 ASP623  PHE694  ASN695  SER759  ASP760  ASP761  ALA762  ILE779  LEU786  VAL792 
 PHE793  MET794  SER795  GLU796  ALA797  LYS798  CYS799  TRP800  GLU811  SER814 

> <Gold.Protein.RotatedAtoms>
  150.8509  133.7789  159.3025 H   0  0  0  0  0  0  0  0  0  0  0  0  # atno 6907 bound_to 6896
  151.5461  135.1066  159.9948 H   0  0  0  0  0  0  0  0  0  0  0  0  # atno 6908 bound_to 6896
  152.4552  133.7665  159.6831 H   0  0  0  0  0  0  0  0  0  0  0  0  # atno 6909 bound_to 6896
  145.5680  139.2310  143.2422 H   0  0  0  0  0  0  0  0  0  0  0  0  # atno 7974 bound_to 7965
  156.2543  140.2876  156.0825 H   0  0  0  0  0  0  0  0  0  0  0  0  # atno 8008 bound_to 7997
  155.1551  140.0398  157.2847 H   0  0  0  0  0  0  0  0  0  0  0  0  # atno 8009 bound_to 7997
  154.6433  140.2527  155.7304 H   0  0  0  0  0  0  0  0  0  0  0  0  # atno 8010 bound_to 7997
  140.7271  143.4779  151.0157 H   0  0  0  0  0  0  0  0  0  0  0  0  # atno 10167 bound_to 10162
  157.3567  131.0959  151.0952 H   0  0  0  0  0  0  0  0  0  0  0  0  # atno 10718 bound_to 10713
  153.0424  135.6486  154.0907 H   0  0  0  0  0  0  0  0  0  0  0  0  # atno 10763 bound_to 10752
  154.0611  135.2888  155.3326 H   0  0  0  0  0  0  0  0  0  0  0  0  # atno 10764 bound_to 10752
  154.6657  135.5375  153.8139 H   0  0  0  0  0  0  0  0  0  0  0  0  # atno 10765 bound_to 10752
  141.1220  133.8498  157.1264 H   0  0  0  0  0  0  0  0  0  0  0  0  # atno 11005 bound_to 11000
  146.1805  140.6505  142.9191 LP  0  0  0  0  0  0  0  0  0  0  0  0  # atno 17320 bound_to 7965
  144.7451  140.5047  143.6841 LP  0  0  0  0  0  0  0  0  0  0  0  0  # atno 17321 bound_to 7965
  139.8476  143.7481  152.3179 LP  0  0  0  0  0  0  0  0  0  0  0  0  # atno 17342 bound_to 10162
  139.7652  144.7494  151.0305 LP  0  0  0  0  0  0  0  0  0  0  0  0  # atno 17343 bound_to 10162
  157.2107  130.6436  149.5773 LP  0  0  0  0  0  0  0  0  0  0  0  0  # atno 17370 bound_to 10713
  155.9730  130.4661  150.6277 LP  0  0  0  0  0  0  0  0  0  0  0  0  # atno 17371 bound_to 10713
  140.0186  134.9956  157.0544 LP  0  0  0  0  0  0  0  0  0  0  0  0  # atno 17394 bound_to 11000
  140.4478  134.1614  155.7179 LP  0  0  0  0  0  0  0  0  0  0  0  0  # atno 17395 bound_to 11000

$$$$
