AV-unprocessed.smi:283|AV-procd|sdf|2151|dock1
  -GOLD-   2262021493D 1   1.00000     0.00000
 Structure written by MMmdl.
 48 51  0  0  0  0  0  0  0  0  1 V2000
  150.8201  142.3102  156.7285 C   0  0  0  0  0  0  0  0  0  0  0  0
  151.7548  141.5411  157.6798 C   0  0  2  0  0  0  0  0  0  0  0  0
  151.2013  140.2323  158.0261 N   0  0  0  0  0  0  0  0  0  0  0  0
  151.6721  139.0898  157.4783 C   0  0  0  0  0  0  0  0  0  0  0  0
  153.0052  138.8571  157.3618 N   0  0  0  0  0  0  0  0  0  0  0  0
  153.4392  137.7175  156.8166 C   0  0  0  0  0  0  0  0  0  0  0  0
  152.7245  136.6969  156.3384 N   0  0  0  0  0  0  0  0  0  0  0  0
  151.3835  136.9190  156.4592 C   0  0  0  0  0  0  0  0  0  0  0  0
  150.7844  138.0845  157.0148 C   0  0  0  0  0  0  0  0  0  0  0  0
  149.4019  137.9683  156.9755 N   0  0  0  0  0  0  0  0  0  0  0  0
  149.1999  136.8009  156.4269 C   0  0  0  0  0  0  0  0  0  0  0  0
  150.3354  136.0975  156.0891 N   0  0  0  0  0  0  0  0  0  0  0  0
  150.3964  134.7517  155.4341 C   0  0  1  0  0  0  0  0  0  0  0  0
  151.2017  133.9221  156.2198 O   0  0  0  0  0  0  0  0  0  0  0  0
  150.4509  132.8157  156.7133 C   0  0  2  0  0  0  0  0  0  0  0  0
  151.3629  131.5989  156.9527 C   0  0  0  0  0  0  0  0  0  0  0  0
  152.2803  131.8688  157.9915 O   0  0  0  0  0  0  0  0  0  0  0  0
  149.3128  132.6504  155.6969 C   0  0  2  0  0  0  0  0  0  0  0  0
  149.7427  131.8832  154.5826 O   0  0  0  0  0  0  0  0  0  0  0  0
  149.0086  134.0993  155.3271 C   0  0  2  0  0  0  0  0  0  0  0  0
  148.4376  134.1973  154.0363 O   0  0  0  0  0  0  0  0  0  0  0  0
  152.0580  142.3934  158.9111 C   0  0  0  0  0  0  0  0  0  0  0  0
  151.4842  143.6806  159.0376 C   0  0  0  0  0  0  0  0  0  0  0  0
  151.7594  144.4833  160.1606 C   0  0  0  0  0  0  0  0  0  0  0  0
  152.6179  144.0105  161.1690 C   0  0  0  0  0  0  0  0  0  0  0  0
  153.2043  142.7375  161.0487 C   0  0  0  0  0  0  0  0  0  0  0  0
  152.9332  141.9293  159.9261 C   0  0  0  0  0  0  0  0  0  0  0  0
  153.6980  140.3814  159.8255 Cl  0  0  0  0  0  0  0  0  0  0  0  0
  150.8776  134.9200  154.4697 H   0  0  0  0  0  0  0  0  0  0  0  0
  150.0183  133.1140  157.6679 H   0  0  0  0  0  0  0  0  0  0  0  0
  148.4457  132.1566  156.1372 H   0  0  0  0  0  0  0  0  0  0  0  0
  148.3313  134.5337  156.0625 H   0  0  0  0  0  0  0  0  0  0  0  0
  151.2623  143.2626  156.4345 H   0  0  0  0  0  0  0  0  0  0  0  0
  149.8614  142.5231  157.2026 H   0  0  0  0  0  0  0  0  0  0  0  0
  150.6200  141.7527  155.8139 H   0  0  0  0  0  0  0  0  0  0  0  0
  152.6987  141.3567  157.1680 H   0  0  0  0  0  0  0  0  0  0  0  0
  150.4240  140.2467  158.6707 H   0  0  0  0  0  0  0  0  0  0  0  0
  154.5118  137.6073  156.7555 H   0  0  0  0  0  0  0  0  0  0  0  0
  148.2052  136.4165  156.2529 H   0  0  0  0  0  0  0  0  0  0  0  0
  150.7870  130.7048  157.1919 H   0  0  0  0  0  0  0  0  0  0  0  0
  151.9265  131.3763  156.0464 H   0  0  0  0  0  0  0  0  0  0  0  0
  152.5725  131.0469  158.3559 H   0  0  0  0  0  0  0  0  0  0  0  0
  149.1518  132.0469  153.8631 H   0  0  0  0  0  0  0  0  0  0  0  0
  148.6622  135.0428  153.6781 H   0  0  0  0  0  0  0  0  0  0  0  0
  150.8298  144.0674  158.2702 H   0  0  0  0  0  0  0  0  0  0  0  0
  151.3133  145.4632  160.2464 H   0  0  0  0  0  0  0  0  0  0  0  0
  152.8306  144.6255  162.0308 H   0  0  0  0  0  0  0  0  0  0  0  0
  153.8695  142.3809  161.8213 H   0  0  0  0  0  0  0  0  0  0  0  0
  1  2  1  0  0  0  0
  1 33  1  0  0  0  0
  1 34  1  0  0  0  0
  1 35  1  0  0  0  0
  2  3  1  0  0  0  0
  2 22  1  0  0  0  0
  2 36  1  0  0  0  0
  3  4  1  0  0  0  0
  3 37  1  0  0  0  0
  4  9  1  0  0  0  0
  4  5  2  0  0  0  0
  5  6  1  0  0  0  0
  6  7  2  0  0  0  0
  6 38  1  0  0  0  0
  7  8  1  0  0  0  0
  8 12  1  0  0  0  0
  8  9  2  0  0  0  0
  9 10  1  0  0  0  0
 10 11  2  0  0  0  0
 11 12  1  0  0  0  0
 11 39  1  0  0  0  0
 12 13  1  0  0  0  0
 13 29  1  0  0  0  0
 13 20  1  0  0  0  0
 13 14  1  0  0  0  0
 14 15  1  0  0  0  0
 15 30  1  0  0  0  0
 15 16  1  0  0  0  0
 15 18  1  0  0  0  0
 16 17  1  0  0  0  0
 16 40  1  0  0  0  0
 16 41  1  0  0  0  0
 17 42  1  0  0  0  0
 18 31  1  0  0  0  0
 18 19  1  0  0  0  0
 18 20  1  0  0  0  0
 19 43  1  0  0  0  0
 20 32  1  0  0  0  0
 20 21  1  0  0  0  0
 21 44  1  0  0  0  0
 22 27  1  0  0  0  0
 22 23  2  0  0  0  0
 23 24  1  0  0  0  0
 23 45  1  0  0  0  0
 24 25  2  0  0  0  0
 24 46  1  0  0  0  0
 25 26  1  0  0  0  0
 25 47  1  0  0  0  0
 26 27  2  0  0  0  0
 26 48  1  0  0  0  0
 27 28  1  0  0  0  0
M  END
> <s_m_source_file>
AV-unprocessed.smi

> <i_m_source_file_index>
283

> <i_lp_mmshare_version>
43012

> <i_f3d_flags>
0

> <s_epik_input>
Q2xjMVtjSF1bY0hdW2NIXVtjSF1jMVtDQEhdKFtDSDNdKVtOSF1jKG5bY0hdbjIpYyhjMjMpbltjSF1uM1tDQEBIXTRPW0NASF0oW0NIMl1bT0hdKVtDQEBIXShbT0hdKVtDQEhdNFtPSF0=

> <s_epik_cmdline>
J2VwaWtfcHl0aG9uJywgJy1waCcsICc3LjAnLCAnLXRuJywgJzgnLCAnLW1hJywgJzIwMCcsICctbWV0YWxfYmluZGluZycsICctaW1hZScsICc8aW5maWxlLm1hZT4nLCAnLW9tYWUnLCAnPG91dGZpbGUubWFlPic=

> <r_lp_tautomer_probability>
1

> <r_epik_Ionization_Penalty>
0.000266407

> <r_epik_Ionization_Penalty_Charging>
0

> <r_epik_Ionization_Penalty_Neutral>
0.000266407

> <r_epik_State_Penalty>
-0

> <r_epik_Charging_Adjusted_Penalty>
0

> <i_epik_Tot_Q>
0

> <i_epik_Tot_abs_Q>
0

> <r_epik_Metal_State_Penalty>
-0

> <b_epik_Metal_Only>
0

> <s_epik_Chemistry_Notes>
This compound contains an acetal/aminal-like group ( X-CH(R)-Y where X, Y are N, S, or O) that may be acid/base labile, releasing an aldehyde.

> <s_lp_Force_Field>
OPLS_2005

> <r_lp_Energy>
49.1948

> <b_lp_Chiralities_Consistent>
1

> <s_lp_Variant>
AV-unprocessed.smi:283-27

> <Gold.Version>
5.8.1

> <Gold.Id.Protein>
6NUR|6NUR_protein|mol2

> <Gold.PLP.Fitness>
54.6637

> <Gold.PLP.PLP>
-44.1766

> <Gold.PLP.part.hbond>
-4.0000

> <Gold.PLP.part.metal>
0.0000

> <Gold.PLP.part.buried>
-5.8366

> <Gold.PLP.part.nonpolar>
-33.2883

> <Gold.PLP.part.repulsive>
0.1015

> <Gold.PLP.ligand.clash>
0.0000

> <Gold.PLP.ligand.torsion>
0.6516

> <Gold.PLP.Chemscore.Hbond>
3.8480

> <Gold.PLP.Chemscore.CHOScore>
0.0000

> <Gold.PLP.Chemscore.Metal>
0.0000

> <Gold.Chemscore.Hbonds>
donor molecule, donor type, donor heavy atom, donor atom, acceptor molecule, acceptor atom, score
      L1  H    21    44       P1  7948  0.61
      P1  H  6896  6907       L1    17  1.00
      P1  H  7997  8009       L1     5  0.95
      P1  H 10752 10765       L1     7  0.96

> <Gold.PLP.Chemscore.Internal.Correction>
0.2462

> <Gold.Rescore>
     Score         DG    S(hbond)    S(metal)    S(lipo)     H(rot)  DE(clash)    DE(int)     intcor
     17.49     -18.31       3.07        0.00     111.68       4.10       0.02       0.80       ----

> <Gold.Chemscore.Fitness>
17.4907

> <Gold.Chemscore.DG>
-18.3138

> <Gold.Chemscore.ZeroCoef>
-5.4800

> <Gold.Chemscore.Hbond>
3.0704

> <Gold.Chemscore.Metal>
0.0000

> <Gold.Chemscore.Lipo>
111.6798

> <Gold.Chemscore.Internal_Hbond>
0.0000

> <Gold.Chemscore.DEClash>
0.0211

> <Gold.Chemscore.DEInternal>
0.8020

> <Gold.Chemscore.Rot>
4.0968

> <Gold.Chemscore.Internal.Correction>
   9.000000E+99

> <Gold.Chemscore.Hbonds>
donor molecule, donor type, donor heavy atom, donor atom, acceptor molecule, acceptor atom, score
      L1  H    21    44       P1  7948  0.46
      P1  H  6896  6907       L1    17  0.87
      P1  H  7997  8009       L1     5  0.21
      P1  H 10752 10765       L1     7  0.91

> <Gold.Chemscore.Hbond.Weighted>
-10.2552

> <Gold.Chemscore.Metal.Weighted>
-0.0000

> <Gold.Chemscore.Lipo.Weighted>
-13.0665

> <Gold.Chemscore.Internal_Hbond.Weighted>
0.0000

> <Gold.Chemscore.DEClash.Weighted>
0.0211

> <Gold.Chemscore.DEInternal.Weighted>
0.8020

> <Gold.Chemscore.Rot.Weighted>
10.4879

> <Gold.Chemscore.Internal.Correction.Weighted>
   9.000000E+99

> <Gold.Protein.RotatedTorsions>
[ 6907 6896 6895 6894 ] final  169.07 input  -60.11 | X-H torsion
[ 7974 7965 7964 7962 ] final   96.16 input  175.53 | X-H torsion
[ 8008 7997 7996 7995 ] final  164.18 input   59.86 | X-H torsion
[ 10167 10162 10161 10158 ] final  -89.24 input  -65.29 | X-H torsion
[ 10718 10713 10712 10709 ] final    2.89 input   66.30 | X-H torsion
[ 10763 10752 10751 10750 ] final -130.15 input  -60.55 | X-H torsion
[ 11005 11000 10999 10996 ] final -173.78 input  -57.11 | X-H torsion

> <Gold.Protein.ActiveResidues>
 VAL166  LYS551  ARG553  GLY616  TRP617  ASP618  TYR619  PRO620  LYS621  CYS622 
 ASP623  PHE694  ASN695  SER759  ASP760  ASP761  ALA762  ILE779  LEU786  VAL792 
 PHE793  MET794  SER795  GLU796  ALA797  LYS798  CYS799  TRP800  GLU811  SER814 

> <Gold.Protein.RotatedAtoms>
  151.8377  133.3418  159.3633 H   0  0  0  0  0  0  0  0  0  0  0  0  # atno 6907 bound_to 6896
  150.7244  134.5421  159.5762 H   0  0  0  0  0  0  0  0  0  0  0  0  # atno 6908 bound_to 6896
  152.2888  134.7746  160.0433 H   0  0  0  0  0  0  0  0  0  0  0  0  # atno 6909 bound_to 6896
  145.4426  139.2300  143.3084 H   0  0  0  0  0  0  0  0  0  0  0  0  # atno 7974 bound_to 7965
  156.1900  140.1704  156.8110 H   0  0  0  0  0  0  0  0  0  0  0  0  # atno 8008 bound_to 7997
  154.5460  140.0727  156.8621 H   0  0  0  0  0  0  0  0  0  0  0  0  # atno 8009 bound_to 7997
  155.3121  140.3368  155.4246 H   0  0  0  0  0  0  0  0  0  0  0  0  # atno 8010 bound_to 7997
  140.3668  143.2814  151.9549 H   0  0  0  0  0  0  0  0  0  0  0  0  # atno 10167 bound_to 10162
  156.8696  130.5615  149.5658 H   0  0  0  0  0  0  0  0  0  0  0  0  # atno 10718 bound_to 10713
  154.8756  135.3872  154.4037 H   0  0  0  0  0  0  0  0  0  0  0  0  # atno 10763 bound_to 10752
  153.4758  135.7030  153.5972 H   0  0  0  0  0  0  0  0  0  0  0  0  # atno 10764 bound_to 10752
  153.4409  135.3856  155.2195 H   0  0  0  0  0  0  0  0  0  0  0  0  # atno 10765 bound_to 10752
  140.4819  134.6067  157.4922 H   0  0  0  0  0  0  0  0  0  0  0  0  # atno 11005 bound_to 11000
  146.2548  140.5176  142.8878 LP  0  0  0  0  0  0  0  0  0  0  0  0  # atno 17320 bound_to 7965
  144.8112  140.6388  143.6414 LP  0  0  0  0  0  0  0  0  0  0  0  0  # atno 17321 bound_to 7965
  139.4808  144.5943  151.7717 LP  0  0  0  0  0  0  0  0  0  0  0  0  # atno 17342 bound_to 10162
  140.5073  144.1078  150.5986 LP  0  0  0  0  0  0  0  0  0  0  0  0  # atno 17343 bound_to 10162
  156.0733  130.5761  150.9425 LP  0  0  0  0  0  0  0  0  0  0  0  0  # atno 17370 bound_to 10713
  157.6203  131.0930  150.8634 LP  0  0  0  0  0  0  0  0  0  0  0  0  # atno 17371 bound_to 10713
  139.9821  134.7120  155.9840 LP  0  0  0  0  0  0  0  0  0  0  0  0  # atno 17394 bound_to 11000
  141.1527  133.6546  156.4063 LP  0  0  0  0  0  0  0  0  0  0  0  0  # atno 17395 bound_to 11000

$$$$
