AV-unprocessed.smi:3248|AV-procd|sdf|12415|dock9
  -GOLD-   2272018293D 1   1.00000     0.00000
 Structure written by MMmdl.
 38 39  0  0  0  0  0  0  0  0  1 V2000
  146.2913  136.6638  158.4626 C   0  0  0  0  0  0  0  0  0  0  0  0
  147.7851  136.3865  158.2371 C   0  0  2  0  0  0  0  0  0  0  0  0
  148.6191  136.7217  159.4884 C   0  0  0  0  0  0  0  0  0  0  0  0
  148.0118  136.2141  160.7067 N   0  0  0  0  0  0  0  0  0  0  0  0
  147.7592  134.9042  161.0557 C   0  0  0  0  0  0  0  0  0  0  0  0
  147.1896  134.9172  162.2967 C   0  0  0  0  0  0  0  0  0  0  0  0
  147.1348  136.2997  162.6294 C   0  0  0  0  0  0  0  0  0  0  0  0
  147.6269  137.0738  161.6755 N   0  0  0  0  0  0  0  0  0  0  0  0
  148.2653  137.1606  157.0947 N   0  0  0  0  0  0  0  0  0  0  0  0
  148.3627  138.4992  157.0371 C   0  0  0  0  0  0  0  0  0  0  0  0
  148.0387  139.2259  157.9763 O   0  0  0  0  0  0  0  0  0  0  0  0
  148.7222  138.9552  155.8119 N   0  0  0  0  0  0  0  0  0  0  0  0
  149.6623  138.2034  154.9669 C   0  0  0  0  0  0  0  0  0  0  0  0
  151.0776  138.7709  155.1929 C   0  0  0  0  0  0  0  0  0  0  0  0
  151.0976  140.1639  154.8883 O   0  0  0  0  0  0  0  0  0  0  0  0
  150.1592  140.9242  155.6472 C   0  0  0  0  0  0  0  0  0  0  0  0
  148.7404  140.3729  155.4015 C   0  0  2  0  0  0  0  0  0  0  0  0
  147.6398  141.2603  156.0203 C   0  0  0  0  0  0  0  0  0  0  0  0
  145.9081  136.0849  159.3033 H   0  0  0  0  0  0  0  0  0  0  0  0
  145.7031  136.3949  157.5845 H   0  0  0  0  0  0  0  0  0  0  0  0
  146.1110  137.7181  158.6749 H   0  0  0  0  0  0  0  0  0  0  0  0
  147.9048  135.3212  158.0308 H   0  0  0  0  0  0  0  0  0  0  0  0
  149.6306  136.3216  159.3975 H   0  0  0  0  0  0  0  0  0  0  0  0
  148.7213  137.8028  159.5914 H   0  0  0  0  0  0  0  0  0  0  0  0
  148.0060  134.0818  160.4002 H   0  0  0  0  0  0  0  0  0  0  0  0
  146.8629  134.0684  162.8792 H   0  0  0  0  0  0  0  0  0  0  0  0
  146.7549  136.7605  163.5292 H   0  0  0  0  0  0  0  0  0  0  0  0
  148.5032  136.6383  156.2639 H   0  0  0  0  0  0  0  0  0  0  0  0
  149.6648  137.1320  155.1712 H   0  0  0  0  0  0  0  0  0  0  0  0
  149.3779  138.3025  153.9185 H   0  0  0  0  0  0  0  0  0  0  0  0
  151.4004  138.6126  156.2233 H   0  0  0  0  0  0  0  0  0  0  0  0
  151.7958  138.2598  154.5515 H   0  0  0  0  0  0  0  0  0  0  0  0
  150.4179  140.8928  156.7067 H   0  0  0  0  0  0  0  0  0  0  0  0
  150.2231  141.9661  155.3323 H   0  0  0  0  0  0  0  0  0  0  0  0
  148.5561  140.3954  154.3258 H   0  0  0  0  0  0  0  0  0  0  0  0
  147.5964  142.2224  155.5095 H   0  0  0  0  0  0  0  0  0  0  0  0
  147.8174  141.4740  157.0738 H   0  0  0  0  0  0  0  0  0  0  0  0
  146.6572  140.7971  155.9248 H   0  0  0  0  0  0  0  0  0  0  0  0
  1  2  1  0  0  0  0
  1 19  1  0  0  0  0
  1 20  1  0  0  0  0
  1 21  1  0  0  0  0
  2  3  1  0  0  0  0
  2  9  1  0  0  0  0
  2 22  1  0  0  0  0
  3  4  1  0  0  0  0
  3 23  1  0  0  0  0
  3 24  1  0  0  0  0
  4  8  1  0  0  0  0
  4  5  1  0  0  0  0
  5  6  2  0  0  0  0
  5 25  1  0  0  0  0
  6  7  1  0  0  0  0
  6 26  1  0  0  0  0
  7  8  2  0  0  0  0
  7 27  1  0  0  0  0
  9 10  1  0  0  0  0
  9 28  1  0  0  0  0
 10 11  2  0  0  0  0
 10 12  1  0  0  0  0
 12 17  1  0  0  0  0
 12 13  1  0  0  0  0
 13 14  1  0  0  0  0
 13 29  1  0  0  0  0
 13 30  1  0  0  0  0
 14 15  1  0  0  0  0
 14 31  1  0  0  0  0
 14 32  1  0  0  0  0
 15 16  1  0  0  0  0
 16 17  1  0  0  0  0
 16 33  1  0  0  0  0
 16 34  1  0  0  0  0
 17 18  1  0  0  0  0
 17 35  1  0  0  0  0
 18 36  1  0  0  0  0
 18 37  1  0  0  0  0
 18 38  1  0  0  0  0
M  END
> <s_m_source_file>
AV-unprocessed.smi

> <i_m_source_file_index>
3248

> <i_lp_mmshare_version>
43012

> <i_f3d_flags>
0

> <s_epik_input>
bjFbY0hdW2NIXVtjSF1uMVtDSDJdW0NAQEhdKFtDSDNdKVtOSF1DKD1PKU4yW0NIMl1bQ0gyXU9bQ0gyXVtDQEhdMltDSDNd

> <s_epik_cmdline>
J2VwaWtfcHl0aG9uJywgJy1waCcsICc3LjAnLCAnLXRuJywgJzgnLCAnLW1hJywgJzIwMCcsICctbWV0YWxfYmluZGluZycsICctaW1hZScsICc8aW5maWxlLm1hZT4nLCAnLW9tYWUnLCAnPG91dGZpbGUubWFlPic=

> <r_lp_tautomer_probability>
1

> <r_epik_Ionization_Penalty>
4.45233e-05

> <r_epik_Ionization_Penalty_Charging>
0

> <r_epik_Ionization_Penalty_Neutral>
4.45233e-05

> <r_epik_State_Penalty>
-0

> <r_epik_Charging_Adjusted_Penalty>
0

> <i_epik_Tot_Q>
0

> <i_epik_Tot_abs_Q>
0

> <r_epik_Metal_State_Penalty>
-0

> <b_epik_Metal_Only>
0

> <s_lp_Force_Field>
OPLS_2005

> <r_lp_Energy>
31.9687

> <b_lp_Chiralities_Consistent>
1

> <s_lp_Variant>
AV-unprocessed.smi:3248-3

> <Gold.Version>
5.8.1

> <Gold.Id.Protein>
6NUR|6NUR_protein|mol2

> <Gold.PLP.Fitness>
36.2634

> <Gold.PLP.PLP>
-28.3262

> <Gold.PLP.part.hbond>
-3.6386

> <Gold.PLP.part.metal>
0.0000

> <Gold.PLP.part.buried>
-5.0825

> <Gold.PLP.part.nonpolar>
-20.2424

> <Gold.PLP.part.repulsive>
0.0671

> <Gold.PLP.ligand.clash>
0.0000

> <Gold.PLP.ligand.torsion>
0.3513

> <Gold.PLP.Chemscore.Hbond>
2.7280

> <Gold.PLP.Chemscore.CHOScore>
0.0000

> <Gold.PLP.Chemscore.Metal>
0.0000

> <Gold.Chemscore.Hbonds>
donor molecule, donor type, donor heavy atom, donor atom, acceptor molecule, acceptor atom, score
      P1  H  6931  6943       L1     8  1.00
      P1  H  6934  6947       L1     8  0.59
      P1  H  7989  7998       L1    15  1.00

> <Gold.PLP.Chemscore.Internal.Correction>
0.4558

> <Gold.Rescore>
     Score         DG    S(hbond)    S(metal)    S(lipo)     H(rot)  DE(clash)    DE(int)     intcor
     14.26     -17.03       2.51        0.00      58.03       1.42       0.01       2.77       ----

> <Gold.Chemscore.Fitness>
14.2554

> <Gold.Chemscore.DG>
-17.0312

> <Gold.Chemscore.ZeroCoef>
-5.4800

> <Gold.Chemscore.Hbond>
2.5135

> <Gold.Chemscore.Metal>
0.0000

> <Gold.Chemscore.Lipo>
58.0262

> <Gold.Chemscore.Internal_Hbond>
0.0000

> <Gold.Chemscore.DEClash>
0.0073

> <Gold.Chemscore.DEInternal>
2.7684

> <Gold.Chemscore.Rot>
1.4191

> <Gold.Chemscore.Internal.Correction>
   9.000000E+99

> <Gold.Chemscore.Hbonds>
donor molecule, donor type, donor heavy atom, donor atom, acceptor molecule, acceptor atom, score
      P1  H  6931  6943       L1     8  0.58
      P1  H  6934  6947       L1     8  0.51
      P1  H  7989  7998       L1    15  0.92

> <Gold.Chemscore.Hbond.Weighted>
-8.3951

> <Gold.Chemscore.Metal.Weighted>
-0.0000

> <Gold.Chemscore.Lipo.Weighted>
-6.7891

> <Gold.Chemscore.Internal_Hbond.Weighted>
0.0000

> <Gold.Chemscore.DEClash.Weighted>
0.0073

> <Gold.Chemscore.DEInternal.Weighted>
2.7684

> <Gold.Chemscore.Rot.Weighted>
3.6330

> <Gold.Chemscore.Internal.Correction.Weighted>
   9.000000E+99

> <Gold.Protein.RotatedTorsions>
[ 6907 6896 6895 6894 ] final  -50.40 input  -60.11 | X-H torsion
[ 7974 7965 7964 7962 ] final -167.99 input  175.53 | X-H torsion
[ 8008 7997 7996 7995 ] final   10.28 input   59.86 | X-H torsion
[ 10167 10162 10161 10158 ] final  -78.34 input  -65.29 | X-H torsion
[ 10718 10713 10712 10709 ] final  169.87 input   66.30 | X-H torsion
[ 10763 10752 10751 10750 ] final   61.04 input  -60.55 | X-H torsion
[ 11005 11000 10999 10996 ] final   69.52 input  -57.11 | X-H torsion

> <Gold.Protein.ActiveResidues>
 VAL166  LYS551  ARG553  GLY616  TRP617  ASP618  TYR619  PRO620  LYS621  CYS622 
 ASP623  PHE694  ASN695  SER759  ASP760  ASP761  ALA762  ILE779  LEU786  VAL792 
 PHE793  MET794  SER795  GLU796  ALA797  LYS798  CYS799  TRP800  GLU811  SER814 

> <Gold.Protein.RotatedAtoms>
  150.8711  134.8085  159.7155 H   0  0  0  0  0  0  0  0  0  0  0  0  # atno 6907 bound_to 6896
  152.4715  134.4945  159.9715 H   0  0  0  0  0  0  0  0  0  0  0  0  # atno 6908 bound_to 6896
  151.5034  133.3461  159.2908 H   0  0  0  0  0  0  0  0  0  0  0  0  # atno 6909 bound_to 6896
  144.7212  140.2436  143.6288 H   0  0  0  0  0  0  0  0  0  0  0  0  # atno 7974 bound_to 7965
  154.7912  140.2836  155.5990 H   0  0  0  0  0  0  0  0  0  0  0  0  # atno 8008 bound_to 7997
  156.2964  140.2604  156.2689 H   0  0  0  0  0  0  0  0  0  0  0  0  # atno 8009 bound_to 7997
  154.9668  140.0376  157.2205 H   0  0  0  0  0  0  0  0  0  0  0  0  # atno 8010 bound_to 7997
  140.4690  143.2432  151.8233 H   0  0  0  0  0  0  0  0  0  0  0  0  # atno 10167 bound_to 10162
  157.0163  131.0219  151.2788 H   0  0  0  0  0  0  0  0  0  0  0  0  # atno 10718 bound_to 10713
  152.9938  135.5515  154.5969 H   0  0  0  0  0  0  0  0  0  0  0  0  # atno 10763 bound_to 10752
  154.5319  135.2814  155.1175 H   0  0  0  0  0  0  0  0  0  0  0  0  # atno 10764 bound_to 10752
  154.2486  135.6403  153.5285 H   0  0  0  0  0  0  0  0  0  0  0  0  # atno 10765 bound_to 10752
  139.9649  134.6998  156.0567 H   0  0  0  0  0  0  0  0  0  0  0  0  # atno 11005 bound_to 11000
  145.8295  139.2079  143.1891 LP  0  0  0  0  0  0  0  0  0  0  0  0  # atno 17320 bound_to 7965
  146.0443  140.8134  142.9813 LP  0  0  0  0  0  0  0  0  0  0  0  0  # atno 17321 bound_to 7965
  139.4816  144.4915  151.9179 LP  0  0  0  0  0  0  0  0  0  0  0  0  # atno 17342 bound_to 10162
  140.4000  144.2505  150.5893 LP  0  0  0  0  0  0  0  0  0  0  0  0  # atno 17343 bound_to 10162
  157.5283  130.8042  149.7887 LP  0  0  0  0  0  0  0  0  0  0  0  0  # atno 17370 bound_to 10713
  156.0118  130.3830  150.2240 LP  0  0  0  0  0  0  0  0  0  0  0  0  # atno 17371 bound_to 10713
  141.1328  133.6582  156.3511 LP  0  0  0  0  0  0  0  0  0  0  0  0  # atno 17394 bound_to 11000
  140.5419  134.6112  157.5382 LP  0  0  0  0  0  0  0  0  0  0  0  0  # atno 17395 bound_to 11000

$$$$
