AV-unprocessed.smi:302|AV-procd|sdf|2272|dock5
  -GOLD-   2262022163D 1   1.00000     0.00000
 Structure written by MMmdl.
 44 45  0  0  0  0  0  0  0  0  1 V2000
  144.8490  143.7566  154.5292 C   0  0  0  0  0  0  0  0  0  0  0  0
  146.0040  143.1408  153.7367 C   0  0  0  0  0  0  0  0  0  0  0  0
  146.8860  142.4914  154.6457 O   0  0  0  0  0  0  0  0  0  0  0  0
  148.0455  141.8986  154.0635 C   0  0  2  0  0  0  0  0  0  0  0  0
  147.5552  140.8118  153.0844 C   0  0  0  0  0  0  0  0  0  0  0  0
  146.8166  139.6450  153.7576 C   0  0  0  0  0  0  0  0  0  0  0  0
  148.9578  141.3323  155.1668 C   0  0  0  0  0  0  0  0  0  0  0  0
  149.2186  140.1296  155.1848 O   0  0  0  0  0  0  0  0  0  0  0  0
  149.3911  142.2222  156.0787 N   0  0  0  0  0  0  0  0  0  0  0  0
  150.2099  141.9955  157.2170 C   0  0  0  0  0  0  0  0  0  0  0  0
  150.6767  140.7243  157.6232 C   0  0  0  0  0  0  0  0  0  0  0  0
  151.4919  140.6311  158.7675 C   0  0  0  0  0  0  0  0  0  0  0  0
  151.8309  141.8085  159.4755 C   0  0  0  0  0  0  0  0  0  0  0  0
  152.6388  141.7364  160.6313 N   0  0  0  0  0  0  0  0  0  0  0  0
  153.9166  141.0452  160.4787 C   0  0  0  0  0  0  0  0  0  0  0  0
  154.5319  140.7502  161.8576 C   0  0  0  0  0  0  0  0  0  0  0  0
  154.6412  141.9562  162.6066 O   0  0  0  0  0  0  0  0  0  0  0  0
  153.3696  142.5533  162.8371 C   0  0  0  0  0  0  0  0  0  0  0  0
  152.7159  142.9148  161.4929 C   0  0  0  0  0  0  0  0  0  0  0  0
  151.3900  143.0266  159.0752 N   0  0  0  0  0  0  0  0  0  0  0  0
  150.6114  143.1117  157.9768 C   0  0  0  0  0  0  0  0  0  0  0  0
  144.1467  144.2618  153.8655 H   0  0  0  0  0  0  0  0  0  0  0  0
  145.2152  144.4895  155.2489 H   0  0  0  0  0  0  0  0  0  0  0  0
  144.2995  142.9916  155.0785 H   0  0  0  0  0  0  0  0  0  0  0  0
  145.6138  142.4227  153.0140 H   0  0  0  0  0  0  0  0  0  0  0  0
  146.5182  143.9243  153.1790 H   0  0  0  0  0  0  0  0  0  0  0  0
  148.5821  142.6578  153.4909 H   0  0  0  0  0  0  0  0  0  0  0  0
  146.9140  141.2553  152.3213 H   0  0  0  0  0  0  0  0  0  0  0  0
  148.4168  140.4106  152.5498 H   0  0  0  0  0  0  0  0  0  0  0  0
  146.5482  138.8849  153.0238 H   0  0  0  0  0  0  0  0  0  0  0  0
  145.8956  139.9744  154.2389 H   0  0  0  0  0  0  0  0  0  0  0  0
  147.4402  139.1691  154.5147 H   0  0  0  0  0  0  0  0  0  0  0  0
  149.0283  143.1600  155.9856 H   0  0  0  0  0  0  0  0  0  0  0  0
  150.4350  139.8242  157.0797 H   0  0  0  0  0  0  0  0  0  0  0  0
  151.8325  139.6600  159.0937 H   0  0  0  0  0  0  0  0  0  0  0  0
  153.8097  140.1100  159.9315 H   0  0  0  0  0  0  0  0  0  0  0  0
  154.5899  141.6769  159.8979 H   0  0  0  0  0  0  0  0  0  0  0  0
  153.9286  140.0238  162.4047 H   0  0  0  0  0  0  0  0  0  0  0  0
  155.5242  140.3148  161.7396 H   0  0  0  0  0  0  0  0  0  0  0  0
  152.7345  141.8739  163.4080 H   0  0  0  0  0  0  0  0  0  0  0  0
  153.5020  143.4495  163.4433 H   0  0  0  0  0  0  0  0  0  0  0  0
  153.2961  143.6909  160.9918 H   0  0  0  0  0  0  0  0  0  0  0  0
  151.7185  143.3172  161.6747 H   0  0  0  0  0  0  0  0  0  0  0  0
  150.2911  144.1061  157.7017 H   0  0  0  0  0  0  0  0  0  0  0  0
  1  2  1  0  0  0  0
  1 22  1  0  0  0  0
  1 23  1  0  0  0  0
  1 24  1  0  0  0  0
  2  3  1  0  0  0  0
  2 25  1  0  0  0  0
  2 26  1  0  0  0  0
  3  4  1  0  0  0  0
  4  5  1  0  0  0  0
  4  7  1  0  0  0  0
  4 27  1  0  0  0  0
  5  6  1  0  0  0  0
  5 28  1  0  0  0  0
  5 29  1  0  0  0  0
  6 30  1  0  0  0  0
  6 31  1  0  0  0  0
  6 32  1  0  0  0  0
  7  8  2  0  0  0  0
  7  9  1  0  0  0  0
  9 10  1  0  0  0  0
  9 33  1  0  0  0  0
 10 21  1  0  0  0  0
 10 11  2  0  0  0  0
 11 12  1  0  0  0  0
 11 34  1  0  0  0  0
 12 13  2  0  0  0  0
 12 35  1  0  0  0  0
 13 14  1  0  0  0  0
 13 20  1  0  0  0  0
 14 19  1  0  0  0  0
 14 15  1  0  0  0  0
 15 16  1  0  0  0  0
 15 36  1  0  0  0  0
 15 37  1  0  0  0  0
 16 17  1  0  0  0  0
 16 38  1  0  0  0  0
 16 39  1  0  0  0  0
 17 18  1  0  0  0  0
 18 19  1  0  0  0  0
 18 40  1  0  0  0  0
 18 41  1  0  0  0  0
 19 42  1  0  0  0  0
 19 43  1  0  0  0  0
 20 21  2  0  0  0  0
 21 44  1  0  0  0  0
M  END
> <s_m_source_file>
AV-unprocessed.smi

> <i_m_source_file_index>
302

> <i_lp_mmshare_version>
43012

> <i_f3d_flags>
0

> <s_epik_input>
W0NIM11bQ0gyXU9bQ0BIXShbQ0gyXVtDSDNdKUMoPU8pW05IXWMxW2NIXVtjSF1jKG5bY0hdMSlOMltDSDJdW0NIMl1PW0NIMl1bQ0gyXTI=

> <s_epik_cmdline>
J2VwaWtfcHl0aG9uJywgJy1waCcsICc3LjAnLCAnLXRuJywgJzgnLCAnLW1hJywgJzIwMCcsICctbWV0YWxfYmluZGluZycsICctaW1hZScsICc8aW5maWxlLm1hZT4nLCAnLW9tYWUnLCAnPG91dGZpbGUubWFlPic=

> <r_lp_tautomer_probability>
1

> <r_epik_Ionization_Penalty>
0.000497413

> <r_epik_Ionization_Penalty_Charging>
0

> <r_epik_Ionization_Penalty_Neutral>
0.000497413

> <r_epik_State_Penalty>
0.000308489

> <r_epik_Charging_Adjusted_Penalty>
0.000308489

> <i_epik_Tot_Q>
0

> <i_epik_Tot_abs_Q>
0

> <r_epik_Metal_State_Penalty>
-0

> <b_epik_Metal_Only>
0

> <s_lp_Force_Field>
OPLS_2005

> <r_lp_Energy>
24.0205

> <b_lp_Chiralities_Consistent>
1

> <s_lp_Variant>
AV-unprocessed.smi:302-1

> <Gold.Version>
5.8.1

> <Gold.Id.Protein>
6NUR|6NUR_protein|mol2

> <Gold.PLP.Fitness>
47.4425

> <Gold.PLP.PLP>
-41.6340

> <Gold.PLP.part.hbond>
-1.7362

> <Gold.PLP.part.metal>
0.0000

> <Gold.PLP.part.buried>
-3.4060

> <Gold.PLP.part.nonpolar>
-35.5416

> <Gold.PLP.part.repulsive>
0.3993

> <Gold.PLP.ligand.clash>
0.0000

> <Gold.PLP.ligand.torsion>
0.2158

> <Gold.PLP.Chemscore.Hbond>
1.0000

> <Gold.PLP.Chemscore.CHOScore>
0.9476

> <Gold.PLP.Chemscore.Metal>
0.0000

> <Gold.Chemscore.Hbonds>
donor molecule, donor type, donor heavy atom, donor atom, acceptor molecule, acceptor atom, score
      L1  H     9    33       P1  8028  1.00
      L1  C    21    44       P1  8028  0.95

> <Gold.PLP.Chemscore.Internal.Correction>
0.3975

> <Gold.Rescore>
     Score         DG    S(hbond)    S(metal)    S(lipo)     H(rot)  DE(clash)    DE(int)     intcor
     10.75     -15.20       1.00        0.00      90.14       1.63       1.45       3.00       ----

> <Gold.Chemscore.Fitness>
10.7549

> <Gold.Chemscore.DG>
-15.1981

> <Gold.Chemscore.ZeroCoef>
-5.4800

> <Gold.Chemscore.Hbond>
0.9983

> <Gold.Chemscore.Metal>
0.0000

> <Gold.Chemscore.Lipo>
90.1405

> <Gold.Chemscore.Internal_Hbond>
0.0000

> <Gold.Chemscore.DEClash>
1.4476

> <Gold.Chemscore.DEInternal>
2.9956

> <Gold.Chemscore.Rot>
1.6260

> <Gold.Chemscore.Internal.Correction>
   9.000000E+99

> <Gold.Chemscore.Hbonds>
donor molecule, donor type, donor heavy atom, donor atom, acceptor molecule, acceptor atom, score
      L1  H     9    33       P1  8028  0.98

> <Gold.Chemscore.Hbond.Weighted>
-3.3342

> <Gold.Chemscore.Metal.Weighted>
-0.0000

> <Gold.Chemscore.Lipo.Weighted>
-10.5464

> <Gold.Chemscore.Internal_Hbond.Weighted>
0.0000

> <Gold.Chemscore.DEClash.Weighted>
1.4476

> <Gold.Chemscore.DEInternal.Weighted>
2.9956

> <Gold.Chemscore.Rot.Weighted>
4.1626

> <Gold.Chemscore.Internal.Correction.Weighted>
   9.000000E+99

> <Gold.Protein.RotatedTorsions>
[ 6907 6896 6895 6894 ] final -156.47 input  -60.11 | X-H torsion
[ 7974 7965 7964 7962 ] final   10.83 input  175.53 | X-H torsion
[ 8008 7997 7996 7995 ] final  138.02 input   59.86 | X-H torsion
[ 10167 10162 10161 10158 ] final   28.54 input  -65.29 | X-H torsion
[ 10718 10713 10712 10709 ] final  127.84 input   66.30 | X-H torsion
[ 10763 10752 10751 10750 ] final   79.23 input  -60.55 | X-H torsion
[ 11005 11000 10999 10996 ] final  158.48 input  -57.11 | X-H torsion

> <Gold.Protein.ActiveResidues>
 VAL166  LYS551  ARG553  GLY616  TRP617  ASP618  TYR619  PRO620  LYS621  CYS622 
 ASP623  PHE694  ASN695  SER759  ASP760  ASP761  ALA762  ILE779  LEU786  VAL792 
 PHE793  MET794  SER795  GLU796  ALA797  LYS798  CYS799  TRP800  GLU811  SER814 

> <Gold.Protein.RotatedAtoms>
  151.2882  133.4178  159.2631 H   0  0  0  0  0  0  0  0  0  0  0  0  # atno 6907 bound_to 6896
  151.0301  134.9533  159.8116 H   0  0  0  0  0  0  0  0  0  0  0  0  # atno 6908 bound_to 6896
  152.5344  134.2843  159.9071 H   0  0  0  0  0  0  0  0  0  0  0  0  # atno 6909 bound_to 6896
  146.2382  139.9576  142.8462 H   0  0  0  0  0  0  0  0  0  0  0  0  # atno 7974 bound_to 7965
  156.2999  140.2404  156.4005 H   0  0  0  0  0  0  0  0  0  0  0  0  # atno 8008 bound_to 7997
  154.8531  140.0423  157.1637 H   0  0  0  0  0  0  0  0  0  0  0  0  # atno 8009 bound_to 7997
  154.8977  140.2972  155.5339 H   0  0  0  0  0  0  0  0  0  0  0  0  # atno 8010 bound_to 7997
  140.4844  144.0566  150.6275 H   0  0  0  0  0  0  0  0  0  0  0  0  # atno 10167 bound_to 10162
  157.5297  131.1098  150.9027 H   0  0  0  0  0  0  0  0  0  0  0  0  # atno 10718 bound_to 10713
  153.0936  135.4847  154.8737 H   0  0  0  0  0  0  0  0  0  0  0  0  # atno 10763 bound_to 10752
  154.7299  135.3058  154.8911 H   0  0  0  0  0  0  0  0  0  0  0  0  # atno 10764 bound_to 10752
  153.9550  135.6819  153.4797 H   0  0  0  0  0  0  0  0  0  0  0  0  # atno 10765 bound_to 10752
  140.1869  134.8435  157.2867 H   0  0  0  0  0  0  0  0  0  0  0  0  # atno 11005 bound_to 11000
  145.1801  140.9763  143.4271 LP  0  0  0  0  0  0  0  0  0  0  0  0  # atno 17320 bound_to 7965
  144.9949  139.3653  143.6196 LP  0  0  0  0  0  0  0  0  0  0  0  0  # atno 17321 bound_to 7965
  140.3817  143.2799  152.0162 LP  0  0  0  0  0  0  0  0  0  0  0  0  # atno 17342 bound_to 10162
  139.4839  144.6149  151.7364 LP  0  0  0  0  0  0  0  0  0  0  0  0  # atno 17343 bound_to 10162
  156.9612  130.5456  149.5286 LP  0  0  0  0  0  0  0  0  0  0  0  0  # atno 17370 bound_to 10713
  156.0413  130.5495  150.8778 LP  0  0  0  0  0  0  0  0  0  0  0  0  # atno 17371 bound_to 10713
  140.2204  134.4031  155.7569 LP  0  0  0  0  0  0  0  0  0  0  0  0  # atno 17394 bound_to 11000
  141.2225  133.7163  156.8481 LP  0  0  0  0  0  0  0  0  0  0  0  0  # atno 17395 bound_to 11000

$$$$
