AV-unprocessed.smi:306|AV-procd|sdf|2283|dock5
  -GOLD-   2262022183D 1   1.00000     0.00000
 Structure written by MMmdl.
 46 48  0  0  0  0  0  0  0  0  2 V2000
  151.7820  144.8744  159.4218 C   0  0  0  0  0  0  0  0  0  0  0  0
  152.0993  143.3790  159.5368 C   0  0  0  0  0  0  0  0  0  0  0  0
  151.3486  142.5658  158.5210 C   0  0  0  0  0  0  0  0  0  0  0  0
  151.2353  142.7943  157.1210 C   0  0  0  0  0  0  0  0  0  0  0  0
  150.4395  141.7766  156.6755 C   0  0  0  0  0  0  0  0  0  0  0  0
  149.9585  141.4647  155.2932 C   0  0  0  0  0  0  0  0  0  0  0  0
  148.4306  141.4263  155.1772 C   0  0  0  0  0  0  0  0  0  0  0  0
  150.1164  141.0108  157.7815 N   0  0  0  0  0  0  0  0  0  0  0  0
  149.3092  139.8580  157.8439 C   0  0  0  0  0  0  0  0  0  0  0  0
  148.0346  139.8232  157.4541 N   0  0  0  0  0  0  0  0  0  0  0  0
  147.6808  138.5050  157.7055 C   0  0  0  0  0  0  0  0  0  0  0  0
  148.7246  137.8003  158.2231 C   0  0  0  0  0  0  0  0  0  0  0  0
  148.6531  136.3666  158.5821 C   0  0  0  0  0  0  0  0  0  0  0  0
  149.6302  135.7738  159.0344 O   0  0  0  0  0  0  0  0  0  0  0  0
  147.4104  135.8375  158.3478 N   0  5  0  0  0  0  0  0  0  0  0  0
  146.3253  136.5134  157.8323 C   0  0  0  0  0  0  0  0  0  0  0  0
  145.2387  135.9605  157.6569 O   0  0  0  0  0  0  0  0  0  0  0  0
  146.4419  137.8383  157.5021 N   0  0  0  0  0  0  0  0  0  0  0  0
  145.3050  138.5813  156.9507 C   0  0  0  0  0  0  0  0  0  0  0  0
  149.8009  138.6874  158.3193 N   0  0  0  0  0  0  0  0  0  0  0  0
  151.1558  138.4364  158.8044 C   0  0  0  0  0  0  0  0  0  0  0  0
  152.2228  139.0784  157.9056 C   0  0  0  0  0  0  0  0  0  0  0  0
  153.4962  138.9965  158.5236 O   0  0  0  0  0  0  0  0  0  0  0  0
  153.5369  139.6534  159.7773 C   0  0  0  0  0  0  0  0  0  0  0  0
  150.6821  141.4906  158.9081 N   0  0  0  0  0  0  0  0  0  0  0  0
  152.3402  145.4481  160.1619 H   0  0  0  0  0  0  0  0  0  0  0  0
  150.7208  145.0664  159.5831 H   0  0  0  0  0  0  0  0  0  0  0  0
  152.0454  145.2570  158.4354 H   0  0  0  0  0  0  0  0  0  0  0  0
  153.1719  143.2275  159.4124 H   0  0  0  0  0  0  0  0  0  0  0  0
  151.8609  143.0324  160.5430 H   0  0  0  0  0  0  0  0  0  0  0  0
  151.6717  143.5876  156.5325 H   0  0  0  0  0  0  0  0  0  0  0  0
  150.3561  142.1968  154.5897 H   0  0  0  0  0  0  0  0  0  0  0  0
  150.3637  140.5017  154.9811 H   0  0  0  0  0  0  0  0  0  0  0  0
  148.1247  141.1841  154.1594 H   0  0  0  0  0  0  0  0  0  0  0  0
  147.9879  142.3882  155.4359 H   0  0  0  0  0  0  0  0  0  0  0  0
  148.0058  140.6732  155.8415 H   0  0  0  0  0  0  0  0  0  0  0  0
  144.9370  138.1019  156.0425 H   0  0  0  0  0  0  0  0  0  0  0  0
  145.5586  139.6093  156.6927 H   0  0  0  0  0  0  0  0  0  0  0  0
  144.4883  138.6166  157.6727 H   0  0  0  0  0  0  0  0  0  0  0  0
  151.2493  138.8244  159.8184 H   0  0  0  0  0  0  0  0  0  0  0  0
  151.3216  137.3647  158.8931 H   0  0  0  0  0  0  0  0  0  0  0  0
  152.2478  138.5729  156.9394 H   0  0  0  0  0  0  0  0  0  0  0  0
  151.9657  140.1216  157.7177 H   0  0  0  0  0  0  0  0  0  0  0  0
  154.5329  139.5556  160.2088 H   0  0  0  0  0  0  0  0  0  0  0  0
  152.8224  139.2160  160.4756 H   0  0  0  0  0  0  0  0  0  0  0  0
  153.3184  140.7167  159.6713 H   0  0  0  0  0  0  0  0  0  0  0  0
  1  2  1  0  0  0  0
  1 26  1  0  0  0  0
  1 27  1  0  0  0  0
  1 28  1  0  0  0  0
  2  3  1  0  0  0  0
  2 29  1  0  0  0  0
  2 30  1  0  0  0  0
  3 25  2  0  0  0  0
  3  4  1  0  0  0  0
  4  5  2  0  0  0  0
  4 31  1  0  0  0  0
  5  6  1  0  0  0  0
  5  8  1  0  0  0  0
  6  7  1  0  0  0  0
  6 32  1  0  0  0  0
  6 33  1  0  0  0  0
  7 34  1  0  0  0  0
  7 35  1  0  0  0  0
  7 36  1  0  0  0  0
  8  9  1  0  0  0  0
  8 25  1  0  0  0  0
  9 20  1  0  0  0  0
  9 10  2  0  0  0  0
 10 11  1  0  0  0  0
 11 18  1  0  0  0  0
 11 12  2  0  0  0  0
 12 13  1  0  0  0  0
 12 20  1  0  0  0  0
 13 14  2  0  0  0  0
 13 15  1  0  0  0  0
 15 16  1  0  0  0  0
 16 17  2  0  0  0  0
 16 18  1  0  0  0  0
 18 19  1  0  0  0  0
 19 37  1  0  0  0  0
 19 38  1  0  0  0  0
 19 39  1  0  0  0  0
 20 21  1  0  0  0  0
 21 22  1  0  0  0  0
 21 40  1  0  0  0  0
 21 41  1  0  0  0  0
 22 23  1  0  0  0  0
 22 42  1  0  0  0  0
 22 43  1  0  0  0  0
 23 24  1  0  0  0  0
 24 44  1  0  0  0  0
 24 45  1  0  0  0  0
 24 46  1  0  0  0  0
M  CHG  1  15  -1
M  END
> <s_m_source_file>
AV-unprocessed.smi

> <i_m_source_file_index>
306

> <i_lp_mmshare_version>
43012

> <i_f3d_flags>
0

> <s_epik_input>
W0NIM11bQ0gyXWMxW2NIXWMoW0NIMl1bQ0gzXSluKG4xKS1jKG4yKW4oW0NIMl1bQ0gyXU9bQ0gzXSljKGMyMyljKD1PKVtuSF1jKD1PKW4zW0NIM10=

> <s_epik_cmdline>
J2VwaWtfcHl0aG9uJywgJy1waCcsICc3LjAnLCAnLXRuJywgJzgnLCAnLW1hJywgJzIwMCcsICctbWV0YWxfYmluZGluZycsICctaW1hZScsICc8aW5maWxlLm1hZT4nLCAnLW9tYWUnLCAnPG91dGZpbGUubWFlPic=

> <r_lp_tautomer_probability>
1

> <r_epik_Ionization_Penalty>
3.98741

> <r_epik_Ionization_Penalty_Charging>
0.0180637

> <r_epik_Ionization_Penalty_Neutral>
3.96934

> <r_epik_State_Penalty>
3.96767

> <r_epik_Charging_Adjusted_Penalty>
3.98573

> <i_epik_Tot_Q>
-1

> <i_epik_Tot_abs_Q>
1

> <r_epik_Metal_State_Penalty>
0.612217

> <b_epik_Metal_Only>
1

> <s_lp_Force_Field>
OPLS_2005

> <r_lp_Energy>
26.8748

> <b_lp_Chiralities_Consistent>
1

> <s_lp_Variant>
AV-unprocessed.smi:306-2

> <Gold.Version>
5.8.1

> <Gold.Id.Protein>
6NUR|6NUR_protein|mol2

> <Gold.PLP.Fitness>
37.3804

> <Gold.PLP.PLP>
-33.3235

> <Gold.PLP.part.hbond>
-2.2137

> <Gold.PLP.part.metal>
0.0000

> <Gold.PLP.part.buried>
-5.7310

> <Gold.PLP.part.nonpolar>
-26.0016

> <Gold.PLP.part.repulsive>
0.0024

> <Gold.PLP.ligand.clash>
0.0000

> <Gold.PLP.ligand.torsion>
1.4377

> <Gold.PLP.Chemscore.Hbond>
2.0000

> <Gold.PLP.Chemscore.CHOScore>
0.0000

> <Gold.PLP.Chemscore.Metal>
0.0000

> <Gold.Chemscore.Hbonds>
donor molecule, donor type, donor heavy atom, donor atom, acceptor molecule, acceptor atom, score
      P1  H  6896  6909       L1    14  1.00
      P1  H  7997  8009       L1    23  0.78

> <Gold.PLP.Chemscore.Internal.Correction>
0.9323

> <Gold.Rescore>
     Score         DG    S(hbond)    S(metal)    S(lipo)     H(rot)  DE(clash)    DE(int)     intcor
     12.32     -16.45       1.74        0.00      83.72       1.81       0.31       3.82       ----

> <Gold.Chemscore.Fitness>
12.3250

> <Gold.Chemscore.DG>
-16.4481

> <Gold.Chemscore.ZeroCoef>
-5.4800

> <Gold.Chemscore.Hbond>
1.7413

> <Gold.Chemscore.Metal>
0.0000

> <Gold.Chemscore.Lipo>
83.7180

> <Gold.Chemscore.Internal_Hbond>
0.0000

> <Gold.Chemscore.DEClash>
0.3063

> <Gold.Chemscore.DEInternal>
3.8168

> <Gold.Chemscore.Rot>
1.8136

> <Gold.Chemscore.Internal.Correction>
   9.000000E+99

> <Gold.Chemscore.Hbonds>
donor molecule, donor type, donor heavy atom, donor atom, acceptor molecule, acceptor atom, score
      P1  H  6896  6909       L1    14  1.00
      P1  H  7997  8009       L1    23  0.26

> <Gold.Chemscore.Hbond.Weighted>
-5.8158

> <Gold.Chemscore.Metal.Weighted>
-0.0000

> <Gold.Chemscore.Lipo.Weighted>
-9.7950

> <Gold.Chemscore.Internal_Hbond.Weighted>
0.0000

> <Gold.Chemscore.DEClash.Weighted>
0.3063

> <Gold.Chemscore.DEInternal.Weighted>
3.8168

> <Gold.Chemscore.Rot.Weighted>
4.6427

> <Gold.Chemscore.Internal.Correction.Weighted>
   9.000000E+99

> <Gold.Protein.RotatedTorsions>
[ 6907 6896 6895 6894 ] final   66.77 input  -60.11 | X-H torsion
[ 7974 7965 7964 7962 ] final  -97.13 input  175.53 | X-H torsion
[ 8008 7997 7996 7995 ] final  138.60 input   59.86 | X-H torsion
[ 10167 10162 10161 10158 ] final  -63.95 input  -65.29 | X-H torsion
[ 10718 10713 10712 10709 ] final   85.85 input   66.30 | X-H torsion
[ 10763 10752 10751 10750 ] final  130.56 input  -60.55 | X-H torsion
[ 11005 11000 10999 10996 ] final  112.60 input  -57.11 | X-H torsion

> <Gold.Protein.ActiveResidues>
 VAL166  LYS551  ARG553  GLY616  TRP617  ASP618  TYR619  PRO620  LYS621  CYS622 
 ASP623  PHE694  ASN695  SER759  ASP760  ASP761  ALA762  ILE779  LEU786  VAL792 
 PHE793  MET794  SER795  GLU796  ALA797  LYS798  CYS799  TRP800  GLU811  SER814 

> <Gold.Protein.RotatedAtoms>
  152.4505  134.5404  159.9837 H   0  0  0  0  0  0  0  0  0  0  0  0  # atno 6907 bound_to 6896
  151.5478  133.3416  159.2955 H   0  0  0  0  0  0  0  0  0  0  0  0  # atno 6908 bound_to 6896
  150.8432  134.7764  159.7013 H   0  0  0  0  0  0  0  0  0  0  0  0  # atno 6909 bound_to 6896
  145.3378  140.9454  143.2625 H   0  0  0  0  0  0  0  0  0  0  0  0  # atno 7974 bound_to 7965
  156.2996  140.2389  156.4100 H   0  0  0  0  0  0  0  0  0  0  0  0  # atno 8008 bound_to 7997
  154.8450  140.0426  157.1586 H   0  0  0  0  0  0  0  0  0  0  0  0  # atno 8009 bound_to 7997
  154.9061  140.2984  155.5295 H   0  0  0  0  0  0  0  0  0  0  0  0  # atno 8010 bound_to 7997
  140.5835  143.2330  151.6293 H   0  0  0  0  0  0  0  0  0  0  0  0  # atno 10167 bound_to 10162
  157.6920  131.0191  150.2884 H   0  0  0  0  0  0  0  0  0  0  0  0  # atno 10718 bound_to 10713
  153.7600  135.3197  155.3335 H   0  0  0  0  0  0  0  0  0  0  0  0  # atno 10763 bound_to 10752
  154.8233  135.4587  154.0847 H   0  0  0  0  0  0  0  0  0  0  0  0  # atno 10764 bound_to 10752
  153.2075  135.6931  153.8238 H   0  0  0  0  0  0  0  0  0  0  0  0  # atno 10765 bound_to 10752
  139.8931  134.9533  156.6611 H   0  0  0  0  0  0  0  0  0  0  0  0  # atno 11005 bound_to 11000
  144.8814  139.4899  143.6721 LP  0  0  0  0  0  0  0  0  0  0  0  0  # atno 17320 bound_to 7965
  146.3020  139.7456  142.9084 LP  0  0  0  0  0  0  0  0  0  0  0  0  # atno 17321 bound_to 7965
  139.5183  144.3287  152.0846 LP  0  0  0  0  0  0  0  0  0  0  0  0  # atno 17342 bound_to 10162
  140.2441  144.4239  150.6248 LP  0  0  0  0  0  0  0  0  0  0  0  0  # atno 17343 bound_to 10162
  156.3419  130.3817  149.7401 LP  0  0  0  0  0  0  0  0  0  0  0  0  # atno 17370 bound_to 10713
  156.4908  130.8084  151.3093 LP  0  0  0  0  0  0  0  0  0  0  0  0  # atno 17371 bound_to 10713
  140.7446  133.8948  155.8303 LP  0  0  0  0  0  0  0  0  0  0  0  0  # atno 17394 bound_to 11000
  141.0050  134.1099  157.4279 LP  0  0  0  0  0  0  0  0  0  0  0  0  # atno 17395 bound_to 11000

$$$$
