AV-unprocessed.smi:670|AV-procd|sdf|3268|dock6
  -GOLD-   22720 0223D 1   1.00000     0.00000
 Structure written by MMmdl.
 44 45  0  0  0  0  0  0  0  0  2 V2000
  151.0978  145.3345  159.6674 C   0  0  0  0  0  0  0  0  0  0  0  0
  152.0155  144.1014  159.6741 C   0  0  1  0  0  0  0  0  0  0  0  0
  152.2820  143.6266  161.1173 C   0  0  0  0  0  0  0  0  0  0  0  0
  153.1947  142.3911  161.1525 C   0  0  0  0  0  0  0  0  0  0  0  0
  152.6072  141.2501  160.3110 C   0  0  0  0  0  0  0  0  0  0  0  0
  152.3499  141.7117  158.8706 C   0  0  0  0  0  0  0  0  0  0  0  0
  151.4341  142.9520  158.8205 C   0  0  2  0  0  0  0  0  0  0  0  0
  151.3546  143.3953  157.4731 O   0  0  0  0  0  0  0  0  0  0  0  0
  151.0070  142.3815  156.5409 C   0  0  0  0  0  0  0  0  0  0  0  0
  149.6718  141.7643  156.9671 C   0  0  0  0  0  0  0  0  0  0  0  0
  148.7435  141.7936  155.8443 N   0  0  0  0  0  0  0  0  0  0  0  0
  148.9294  141.2318  154.6392 C   0  0  0  0  0  0  0  0  0  0  0  0
  149.9244  140.5652  154.3549 O   0  0  0  0  0  0  0  0  0  0  0  0
  147.8444  141.4584  153.5718 C   0  0  0  0  0  0  0  0  0  0  0  0
  146.6125  142.0931  154.0711 N   0  0  0  0  0  0  0  0  0  0  0  0
  146.2785  143.3484  153.4040 N   0  5  0  0  0  0  0  0  0  0  0  0
  145.1517  144.0147  153.7711 C   0  0  0  0  0  0  0  0  0  0  0  0
  144.7957  145.0643  153.2413 O   0  0  0  0  0  0  0  0  0  0  0  0
  144.3414  143.4526  154.8387 C   0  0  0  0  0  0  0  0  0  0  0  0
  144.6765  142.2945  155.4407 C   0  0  0  0  0  0  0  0  0  0  0  0
  145.8596  141.5324  155.0606 C   0  0  0  0  0  0  0  0  0  0  0  0
  146.1557  140.4603  155.5877 O   0  0  0  0  0  0  0  0  0  0  0  0
  150.1157  145.0998  160.0789 H   0  0  0  0  0  0  0  0  0  0  0  0
  150.9524  145.7150  158.6560 H   0  0  0  0  0  0  0  0  0  0  0  0
  151.5237  146.1430  160.2620 H   0  0  0  0  0  0  0  0  0  0  0  0
  152.9715  144.3969  159.2384 H   0  0  0  0  0  0  0  0  0  0  0  0
  152.7376  144.4307  161.6965 H   0  0  0  0  0  0  0  0  0  0  0  0
  151.3367  143.3913  161.6082 H   0  0  0  0  0  0  0  0  0  0  0  0
  154.1830  142.6541  160.7732 H   0  0  0  0  0  0  0  0  0  0  0  0
  153.3355  142.0599  162.1817 H   0  0  0  0  0  0  0  0  0  0  0  0
  153.2872  140.3978  160.3115 H   0  0  0  0  0  0  0  0  0  0  0  0
  151.6741  140.9047  160.7578 H   0  0  0  0  0  0  0  0  0  0  0  0
  153.3007  141.9542  158.3956 H   0  0  0  0  0  0  0  0  0  0  0  0
  151.9230  140.8890  158.2974 H   0  0  0  0  0  0  0  0  0  0  0  0
  150.4410  142.7008  159.1990 H   0  0  0  0  0  0  0  0  0  0  0  0
  150.9185  142.7734  155.5267 H   0  0  0  0  0  0  0  0  0  0  0  0
  151.7931  141.6260  156.5261 H   0  0  0  0  0  0  0  0  0  0  0  0
  149.8392  140.7440  157.3152 H   0  0  0  0  0  0  0  0  0  0  0  0
  149.2429  142.3198  157.8016 H   0  0  0  0  0  0  0  0  0  0  0  0
  147.8844  142.3077  155.9833 H   0  0  0  0  0  0  0  0  0  0  0  0
  148.2680  142.0534  152.7611 H   0  0  0  0  0  0  0  0  0  0  0  0
  147.6089  140.4912  153.1249 H   0  0  0  0  0  0  0  0  0  0  0  0
  143.4502  143.9741  155.1550 H   0  0  0  0  0  0  0  0  0  0  0  0
  144.0429  141.9121  156.2268 H   0  0  0  0  0  0  0  0  0  0  0  0
  1  2  1  0  0  0  0
  1 23  1  0  0  0  0
  1 24  1  0  0  0  0
  1 25  1  0  0  0  0
  2  7  1  0  0  0  0
  2  3  1  0  0  0  0
  2 26  1  0  0  0  0
  3  4  1  0  0  0  0
  3 27  1  0  0  0  0
  3 28  1  0  0  0  0
  4  5  1  0  0  0  0
  4 29  1  0  0  0  0
  4 30  1  0  0  0  0
  5  6  1  0  0  0  0
  5 31  1  0  0  0  0
  5 32  1  0  0  0  0
  6  7  1  0  0  0  0
  6 33  1  0  0  0  0
  6 34  1  0  0  0  0
  7  8  1  0  0  0  0
  7 35  1  0  0  0  0
  8  9  1  0  0  0  0
  9 10  1  0  0  0  0
  9 36  1  0  0  0  0
  9 37  1  0  0  0  0
 10 11  1  0  0  0  0
 10 38  1  0  0  0  0
 10 39  1  0  0  0  0
 11 12  1  0  0  0  0
 11 40  1  0  0  0  0
 12 13  2  0  0  0  0
 12 14  1  0  0  0  0
 14 41  1  0  0  0  0
 14 42  1  0  0  0  0
 14 15  1  0  0  0  0
 15 16  1  0  0  0  0
 15 21  1  0  0  0  0
 16 17  1  0  0  0  0
 17 18  2  0  0  0  0
 17 19  1  0  0  0  0
 19 43  1  0  0  0  0
 19 20  2  0  0  0  0
 20 44  1  0  0  0  0
 20 21  1  0  0  0  0
 21 22  2  0  0  0  0
M  CHG  1  16  -1
M  END
> <s_m_source_file>
AV-unprocessed.smi

> <i_m_source_file_index>
670

> <i_lp_mmshare_version>
43012

> <i_f3d_flags>
0

> <s_epik_input>
W0NIM11bQ0BASF0xW0NIMl1bQ0gyXVtDSDJdW0NIMl1bQ0BIXTFPW0NIMl1bQ0gyXVtOSF1DKD1PKVtDSDJdbjJbbkhdYyg9TylbY0hdW2NIXWMyPU8=

> <s_epik_cmdline>
J2VwaWtfcHl0aG9uJywgJy1waCcsICc3LjAnLCAnLXRuJywgJzgnLCAnLW1hJywgJzIwMCcsICctbWV0YWxfYmluZGluZycsICctaW1hZScsICc8aW5maWxlLm1hZT4nLCAnLW9tYWUnLCAnPG91dGZpbGUubWFlPic=

> <r_lp_tautomer_probability>
1

> <r_epik_Ionization_Penalty>
0.0975638

> <r_epik_Ionization_Penalty_Charging>
0.0975637

> <r_epik_Ionization_Penalty_Neutral>
2.78599e-08

> <r_epik_State_Penalty>
0.0343507

> <r_epik_Charging_Adjusted_Penalty>
0.131914

> <i_epik_Tot_Q>
-1

> <i_epik_Tot_abs_Q>
1

> <r_epik_Metal_State_Penalty>
0.0343507

> <b_epik_Metal_Only>
0

> <s_lp_Force_Field>
OPLS_2005

> <r_lp_Energy>
24.2447

> <b_lp_Chiralities_Consistent>
1

> <s_lp_Variant>
AV-unprocessed.smi:670-4

> <Gold.Version>
5.8.1

> <Gold.Id.Protein>
6NUR|6NUR_protein|mol2

> <Gold.PLP.Fitness>
47.3693

> <Gold.PLP.PLP>
-46.0580

> <Gold.PLP.part.hbond>
-2.4844

> <Gold.PLP.part.metal>
0.0000

> <Gold.PLP.part.buried>
-7.7025

> <Gold.PLP.part.nonpolar>
-36.9340

> <Gold.PLP.part.repulsive>
0.6909

> <Gold.PLP.ligand.clash>
0.0022

> <Gold.PLP.ligand.torsion>
0.4807

> <Gold.PLP.Chemscore.Hbond>
0.7360

> <Gold.PLP.Chemscore.CHOScore>
0.0000

> <Gold.PLP.Chemscore.Metal>
0.0000

> <Gold.Chemscore.Hbonds>
donor molecule, donor type, donor heavy atom, donor atom, acceptor molecule, acceptor atom, score
      P1  H  7989  7998       L1    13  0.78

> <Gold.PLP.Chemscore.Internal.Correction>
0.0669

> <Gold.Rescore>
     Score         DG    S(hbond)    S(metal)    S(lipo)     H(rot)  DE(clash)    DE(int)     intcor
     13.63     -14.33       0.84        0.00     105.31       2.45       0.07       0.63       ----

> <Gold.Chemscore.Fitness>
13.6314

> <Gold.Chemscore.DG>
-14.3273

> <Gold.Chemscore.ZeroCoef>
-5.4800

> <Gold.Chemscore.Hbond>
0.8369

> <Gold.Chemscore.Metal>
0.0000

> <Gold.Chemscore.Lipo>
105.3108

> <Gold.Chemscore.Internal_Hbond>
0.0000

> <Gold.Chemscore.DEClash>
0.0653

> <Gold.Chemscore.DEInternal>
0.6307

> <Gold.Chemscore.Rot>
2.4490

> <Gold.Chemscore.Internal.Correction>
   9.000000E+99

> <Gold.Chemscore.Hbonds>
donor molecule, donor type, donor heavy atom, donor atom, acceptor molecule, acceptor atom, score
      P1  H  7989  7998       L1    13  0.77

> <Gold.Chemscore.Hbond.Weighted>
-2.7954

> <Gold.Chemscore.Metal.Weighted>
-0.0000

> <Gold.Chemscore.Lipo.Weighted>
-12.3214

> <Gold.Chemscore.Internal_Hbond.Weighted>
0.0000

> <Gold.Chemscore.DEClash.Weighted>
0.0653

> <Gold.Chemscore.DEInternal.Weighted>
0.6307

> <Gold.Chemscore.Rot.Weighted>
6.2694

> <Gold.Chemscore.Internal.Correction.Weighted>
   9.000000E+99

> <Gold.Protein.RotatedTorsions>
[ 6907 6896 6895 6894 ] final -159.32 input  -60.11 | X-H torsion
[ 7974 7965 7964 7962 ] final   12.30 input  175.53 | X-H torsion
[ 8008 7997 7996 7995 ] final -106.24 input   59.86 | X-H torsion
[ 10167 10162 10161 10158 ] final  -14.08 input  -65.29 | X-H torsion
[ 10718 10713 10712 10709 ] final -151.17 input   66.30 | X-H torsion
[ 10763 10752 10751 10750 ] final  -73.16 input  -60.55 | X-H torsion
[ 11005 11000 10999 10996 ] final  -24.40 input  -57.11 | X-H torsion

> <Gold.Protein.ActiveResidues>
 VAL166  LYS551  ARG553  GLY616  TRP617  ASP618  TYR619  PRO620  LYS621  CYS622 
 ASP623  PHE694  ASN695  SER759  ASP760  ASP761  ALA762  ILE779  LEU786  VAL792 
 PHE793  MET794  SER795  GLU796  ALA797  LYS798  CYS799  TRP800  GLU811  SER814 

> <Gold.Protein.RotatedAtoms>
  151.3318  133.3997  159.2663 H   0  0  0  0  0  0  0  0  0  0  0  0  # atno 6907 bound_to 6896
  150.9949  134.9276  159.7931 H   0  0  0  0  0  0  0  0  0  0  0  0  # atno 6908 bound_to 6896
  152.5258  134.3283  159.9226 H   0  0  0  0  0  0  0  0  0  0  0  0  # atno 6909 bound_to 6896
  146.2354  139.9357  142.8490 H   0  0  0  0  0  0  0  0  0  0  0  0  # atno 7974 bound_to 7965
  154.9116  140.0410  157.1949 H   0  0  0  0  0  0  0  0  0  0  0  0  # atno 8008 bound_to 7997
  154.8343  140.2904  155.5680 H   0  0  0  0  0  0  0  0  0  0  0  0  # atno 8009 bound_to 7997
  156.2988  140.2495  156.3274 H   0  0  0  0  0  0  0  0  0  0  0  0  # atno 8010 bound_to 7997
  140.7194  143.5359  150.9466 H   0  0  0  0  0  0  0  0  0  0  0  0  # atno 10167 bound_to 10162
  156.4557  130.8189  151.2420 H   0  0  0  0  0  0  0  0  0  0  0  0  # atno 10718 bound_to 10713
  154.4556  135.5906  153.6221 H   0  0  0  0  0  0  0  0  0  0  0  0  # atno 10763 bound_to 10752
  152.9818  135.6031  154.3550 H   0  0  0  0  0  0  0  0  0  0  0  0  # atno 10764 bound_to 10752
  154.3416  135.2841  155.2398 H   0  0  0  0  0  0  0  0  0  0  0  0  # atno 10765 bound_to 10752
  140.8841  133.7633  156.0339 H   0  0  0  0  0  0  0  0  0  0  0  0  # atno 11005 bound_to 11000
  145.2001  140.9851  143.4160 LP  0  0  0  0  0  0  0  0  0  0  0  0  # atno 17320 bound_to 7965
  144.9781  139.3811  143.6276 LP  0  0  0  0  0  0  0  0  0  0  0  0  # atno 17321 bound_to 7965
  139.9080  143.6755  152.3120 LP  0  0  0  0  0  0  0  0  0  0  0  0  # atno 17342 bound_to 10162
  139.7128  144.7617  151.1084 LP  0  0  0  0  0  0  0  0  0  0  0  0  # atno 17343 bound_to 10162
  157.7500  131.0123  150.3380 LP  0  0  0  0  0  0  0  0  0  0  0  0  # atno 17370 bound_to 10713
  156.3769  130.3873  149.7132 LP  0  0  0  0  0  0  0  0  0  0  0  0  # atno 17371 bound_to 10713
  140.8426  134.3049  157.5307 LP  0  0  0  0  0  0  0  0  0  0  0  0  # atno 17394 bound_to 11000
  139.8722  134.9424  156.3824 LP  0  0  0  0  0  0  0  0  0  0  0  0  # atno 17395 bound_to 11000

$$$$
