AV-unprocessed.smi:1762|AV-procd|sdf|7126|dock9
  -GOLD-   22720 8363D 1   1.00000     0.00000
 Structure written by MMmdl.
 52 53  0  0  0  0  0  0  0  0  3 V2000
  147.7320  135.1838  154.2058 C   0  0  0  0  0  0  0  0  0  0  0  0
  147.3304  136.3923  155.0704 C   0  0  1  0  0  0  0  0  0  0  0  0
  148.4562  137.4285  155.2382 C   0  0  0  0  0  0  0  0  0  0  0  0
  148.6872  138.2044  153.9848 N   0  3  2  0  0  0  0  0  0  0  0  0
  149.8477  139.1537  154.0844 C   0  0  1  0  0  0  0  0  0  0  0  0
  149.3955  140.5078  154.6847 C   0  0  0  0  0  0  0  0  0  0  0  0
  149.3424  141.4938  153.9410 O   0  0  0  0  0  0  0  0  0  0  0  0
  149.1502  140.4019  156.0202 N   0  5  0  0  0  0  0  0  0  0  0  0
  149.3346  141.4949  156.9733 C   0  0  0  0  0  0  0  0  0  0  0  0
  150.8015  141.9840  156.9496 C   0  0  0  0  0  0  0  0  0  0  0  0
  151.2405  142.7172  158.2129 C   0  0  0  0  0  0  0  0  0  0  0  0
  152.3421  142.2523  158.9671 C   0  0  0  0  0  0  0  0  0  0  0  0
  152.7233  142.9690  160.1179 C   0  0  0  0  0  0  0  0  0  0  0  0
  151.9966  144.1222  160.4707 C   0  0  0  0  0  0  0  0  0  0  0  0
  150.9175  144.5104  159.6523 C   0  0  0  0  0  0  0  0  0  0  0  0
  150.5445  143.8320  158.5460 N   0  0  0  0  0  0  0  0  0  0  0  0
  151.0936  138.5858  154.8465 C   0  0  0  0  0  0  0  0  0  0  0  0
  152.0087  139.6605  155.4710 C   0  0  0  0  0  0  0  0  0  0  0  0
  151.9288  137.6120  153.9920 C   0  0  0  0  0  0  0  0  0  0  0  0
  147.4014  138.8211  153.5580 C   0  0  0  0  0  0  0  0  0  0  0  0
  146.3054  137.7531  153.3885 C   0  0  2  0  0  0  0  0  0  0  0  0
  144.9501  138.3734  153.0309 C   0  0  0  0  0  0  0  0  0  0  0  0
  146.1445  137.0290  154.6027 O   0  0  0  0  0  0  0  0  0  0  0  0
  148.5553  134.6373  154.6669 H   0  0  0  0  0  0  0  0  0  0  0  0
  148.0596  135.4765  153.2085 H   0  0  0  0  0  0  0  0  0  0  0  0
  146.8983  134.4902  154.0956 H   0  0  0  0  0  0  0  0  0  0  0  0
  147.0897  136.0029  156.0601 H   0  0  0  0  0  0  0  0  0  0  0  0
  148.1967  138.1227  156.0393 H   0  0  0  0  0  0  0  0  0  0  0  0
  149.3537  136.9046  155.5659 H   0  0  0  0  0  0  0  0  0  0  0  0
  150.1756  139.3128  153.0538 H   0  0  0  0  0  0  0  0  0  0  0  0
  148.6676  142.3338  156.7700 H   0  0  0  0  0  0  0  0  0  0  0  0
  149.0908  141.1685  157.9845 H   0  0  0  0  0  0  0  0  0  0  0  0
  151.4690  141.1349  156.7949 H   0  0  0  0  0  0  0  0  0  0  0  0
  150.9580  142.6460  156.0963 H   0  0  0  0  0  0  0  0  0  0  0  0
  152.8808  141.3638  158.6716 H   0  0  0  0  0  0  0  0  0  0  0  0
  153.5589  142.6406  160.7182 H   0  0  0  0  0  0  0  0  0  0  0  0
  152.2603  144.6965  161.3465 H   0  0  0  0  0  0  0  0  0  0  0  0
  150.3400  145.3912  159.8912 H   0  0  0  0  0  0  0  0  0  0  0  0
  150.7241  137.9649  155.6617 H   0  0  0  0  0  0  0  0  0  0  0  0
  152.5395  140.2321  154.7100 H   0  0  0  0  0  0  0  0  0  0  0  0
  152.7636  139.2001  156.1086 H   0  0  0  0  0  0  0  0  0  0  0  0
  151.4533  140.3671  156.0865 H   0  0  0  0  0  0  0  0  0  0  0  0
  152.4436  138.1214  153.1769 H   0  0  0  0  0  0  0  0  0  0  0  0
  151.3010  136.8350  153.5551 H   0  0  0  0  0  0  0  0  0  0  0  0
  152.6892  137.1169  154.5963 H   0  0  0  0  0  0  0  0  0  0  0  0
  147.0975  139.5710  154.2901 H   0  0  0  0  0  0  0  0  0  0  0  0
  147.5015  139.3279  152.6006 H   0  0  0  0  0  0  0  0  0  0  0  0
  146.5828  137.0698  152.5858 H   0  0  0  0  0  0  0  0  0  0  0  0
  145.0062  138.9267  152.0931 H   0  0  0  0  0  0  0  0  0  0  0  0
  144.6130  139.0618  153.8065 H   0  0  0  0  0  0  0  0  0  0  0  0
  144.1877  137.6027  152.9157 H   0  0  0  0  0  0  0  0  0  0  0  0
  148.9400  137.5361  153.2709 H   0  0  0  0  0  0  0  0  0  0  0  0
  1  2  1  0  0  0  0
  1 24  1  0  0  0  0
  1 25  1  0  0  0  0
  1 26  1  0  0  0  0
  2 23  1  0  0  0  0
  2  3  1  0  0  0  0
  2 27  1  0  0  0  0
  3  4  1  0  0  0  0
  3 28  1  0  0  0  0
  3 29  1  0  0  0  0
  4  5  1  0  0  0  0
  4 20  1  0  0  0  0
  4 52  1  0  0  0  0
  5  6  1  0  0  0  0
  5 17  1  0  0  0  0
  5 30  1  0  0  0  0
  6  7  2  0  0  0  0
  6  8  1  0  0  0  0
  8  9  1  0  0  0  0
  9 10  1  0  0  0  0
  9 31  1  0  0  0  0
  9 32  1  0  0  0  0
 10 11  1  0  0  0  0
 10 33  1  0  0  0  0
 10 34  1  0  0  0  0
 11 16  1  0  0  0  0
 11 12  2  0  0  0  0
 12 13  1  0  0  0  0
 12 35  1  0  0  0  0
 13 14  2  0  0  0  0
 13 36  1  0  0  0  0
 14 15  1  0  0  0  0
 14 37  1  0  0  0  0
 15 16  2  0  0  0  0
 15 38  1  0  0  0  0
 17 18  1  0  0  0  0
 17 19  1  0  0  0  0
 17 39  1  0  0  0  0
 18 40  1  0  0  0  0
 18 41  1  0  0  0  0
 18 42  1  0  0  0  0
 19 43  1  0  0  0  0
 19 44  1  0  0  0  0
 19 45  1  0  0  0  0
 20 21  1  0  0  0  0
 20 46  1  0  0  0  0
 20 47  1  0  0  0  0
 21 22  1  0  0  0  0
 21 23  1  0  0  0  0
 21 48  1  0  0  0  0
 22 49  1  0  0  0  0
 22 50  1  0  0  0  0
 22 51  1  0  0  0  0
M  CHG  1   4   1
M  CHG  1   8  -1
M  END
> <s_m_source_file>
AV-unprocessed.smi

> <i_m_source_file_index>
1762

> <i_lp_mmshare_version>
43012

> <i_f3d_flags>
0

> <s_epik_input>
W0NIM11bQ0BASF0xW0NIMl1OKFtDSDJdW0NASF0oTzEpW0NIM10pW0NAQEhdKFtDSF0oW0NIM10pW0NIM10pQyg9TylbTkhdW0NIMl1bQ0gyXWMyW2NIXVtjSF1bY0hdW2NIXW4y

> <s_epik_cmdline>
J2VwaWtfcHl0aG9uJywgJy1waCcsICc3LjAnLCAnLXRuJywgJzgnLCAnLW1hJywgJzIwMCcsICctbWV0YWxfYmluZGluZycsICctaW1hZScsICc8aW5maWxlLm1hZT4nLCAnLW9tYWUnLCAnPG91dGZpbGUubWFlPic=

> <r_epik_Ionization_Penalty>
7.82966

> <r_epik_Ionization_Penalty_Charging>
7.7461

> <r_epik_Ionization_Penalty_Neutral>
0.0835571

> <r_epik_State_Penalty>
8.52273

> <r_epik_Charging_Adjusted_Penalty>
16.2688

> <i_epik_Tot_Q>
0

> <i_epik_Tot_abs_Q>
2

> <r_epik_Metal_State_Penalty>
4.47451

> <b_epik_Metal_Only>
1

> <s_lp_Force_Field>
OPLS_2005

> <r_lp_Energy>
24.57

> <b_lp_Chiralities_Consistent>
1

> <s_lp_Variant>
AV-unprocessed.smi:1762-28

> <Gold.Version>
5.8.1

> <Gold.Id.Protein>
6NUR|6NUR_protein|mol2

> <Gold.PLP.Fitness>
44.0834

> <Gold.PLP.PLP>
-38.2662

> <Gold.PLP.part.hbond>
-3.0000

> <Gold.PLP.part.metal>
0.0000

> <Gold.PLP.part.buried>
-0.9783

> <Gold.PLP.part.nonpolar>
-35.3276

> <Gold.PLP.part.repulsive>
0.7974

> <Gold.PLP.ligand.clash>
0.0000

> <Gold.PLP.ligand.torsion>
1.3611

> <Gold.PLP.Chemscore.Hbond>
2.7680

> <Gold.PLP.Chemscore.CHOScore>
0.0000

> <Gold.PLP.Chemscore.Metal>
0.0000

> <Gold.Chemscore.Hbonds>
donor molecule, donor type, donor heavy atom, donor atom, acceptor molecule, acceptor atom, score
      L1  H     4    52       P1  7948  2.00
      P1  H  7989  7998       L1     7  0.01
      P1  H  8011  8017       L1     7  0.70

> <Gold.PLP.Chemscore.Internal.Correction>
0.2354

> <Gold.Rescore>
     Score         DG    S(hbond)    S(metal)    S(lipo)     H(rot)  DE(clash)    DE(int)     intcor
     16.95     -21.28       1.86        0.00     117.04       1.60       2.67       1.66       ----

> <Gold.Chemscore.Fitness>
16.9531

> <Gold.Chemscore.DG>
-21.2815

> <Gold.Chemscore.ZeroCoef>
-5.4800

> <Gold.Chemscore.Hbond>
1.8583

> <Gold.Chemscore.Metal>
0.0000

> <Gold.Chemscore.Lipo>
117.0399

> <Gold.Chemscore.Internal_Hbond>
0.0000

> <Gold.Chemscore.DEClash>
2.6673

> <Gold.Chemscore.DEInternal>
1.6610

> <Gold.Chemscore.Rot>
1.6012

> <Gold.Chemscore.Internal.Correction>
   9.000000E+99

> <Gold.Chemscore.Hbonds>
donor molecule, donor type, donor heavy atom, donor atom, acceptor molecule, acceptor atom, score
      L1  H     4    52       P1  7948  1.00
      P1  H  8011  8017       L1     7  0.70

> <Gold.Chemscore.Hbond.Weighted>
-6.2068

> <Gold.Chemscore.Metal.Weighted>
-0.0000

> <Gold.Chemscore.Lipo.Weighted>
-13.6937

> <Gold.Chemscore.Internal_Hbond.Weighted>
0.0000

> <Gold.Chemscore.DEClash.Weighted>
2.6673

> <Gold.Chemscore.DEInternal.Weighted>
1.6610

> <Gold.Chemscore.Rot.Weighted>
4.0990

> <Gold.Chemscore.Internal.Correction.Weighted>
   9.000000E+99

> <Gold.Protein.RotatedTorsions>
[ 6907 6896 6895 6894 ] final -105.65 input  -60.11 | X-H torsion
[ 7974 7965 7964 7962 ] final   18.59 input  175.53 | X-H torsion
[ 8008 7997 7996 7995 ] final  147.99 input   59.86 | X-H torsion
[ 10167 10162 10161 10158 ] final   35.64 input  -65.29 | X-H torsion
[ 10718 10713 10712 10709 ] final  -41.40 input   66.30 | X-H torsion
[ 10763 10752 10751 10750 ] final -105.08 input  -60.55 | X-H torsion
[ 11005 11000 10999 10996 ] final -123.84 input  -57.11 | X-H torsion

> <Gold.Protein.ActiveResidues>
 VAL166  LYS551  ARG553  GLY616  TRP617  ASP618  TYR619  PRO620  LYS621  CYS622 
 ASP623  PHE694  ASN695  SER759  ASP760  ASP761  ALA762  ILE779  LEU786  VAL792 
 PHE793  MET794  SER795  GLU796  ALA797  LYS798  CYS799  TRP800  GLU811  SER814 

> <Gold.Protein.RotatedAtoms>
  150.7348  134.0095  159.3664 H   0  0  0  0  0  0  0  0  0  0  0  0  # atno 6907 bound_to 6896
  151.8054  135.0694  160.0415 H   0  0  0  0  0  0  0  0  0  0  0  0  # atno 6908 bound_to 6896
  152.3111  133.5717  159.5718 H   0  0  0  0  0  0  0  0  0  0  0  0  # atno 6909 bound_to 6896
  146.2179  139.8435  142.8636 H   0  0  0  0  0  0  0  0  0  0  0  0  # atno 7974 bound_to 7965
  156.2806  140.2141  156.5626 H   0  0  0  0  0  0  0  0  0  0  0  0  # atno 8008 bound_to 7997
  154.7201  140.0504  157.0654 H   0  0  0  0  0  0  0  0  0  0  0  0  # atno 8009 bound_to 7997
  155.0490  140.3154  155.4701 H   0  0  0  0  0  0  0  0  0  0  0  0  # atno 8010 bound_to 7997
  140.4203  144.1469  150.6147 H   0  0  0  0  0  0  0  0  0  0  0  0  # atno 10167 bound_to 10162
  156.2707  130.4206  149.8441 H   0  0  0  0  0  0  0  0  0  0  0  0  # atno 10718 bound_to 10713
  154.7922  135.4762  154.0078 H   0  0  0  0  0  0  0  0  0  0  0  0  # atno 10763 bound_to 10752
  153.1648  135.6815  153.8698 H   0  0  0  0  0  0  0  0  0  0  0  0  # atno 10764 bound_to 10752
  153.8299  135.3193  155.3396 H   0  0  0  0  0  0  0  0  0  0  0  0  # atno 10765 bound_to 10752
  140.9888  134.0569  157.3679 H   0  0  0  0  0  0  0  0  0  0  0  0  # atno 11005 bound_to 11000
  145.2874  141.0157  143.3682 LP  0  0  0  0  0  0  0  0  0  0  0  0  # atno 17320 bound_to 7965
  144.9103  139.4537  143.6590 LP  0  0  0  0  0  0  0  0  0  0  0  0  # atno 17321 bound_to 7965
  140.4541  143.2475  151.9308 LP  0  0  0  0  0  0  0  0  0  0  0  0  # atno 17342 bound_to 10162
  139.4782  144.5533  151.8352 LP  0  0  0  0  0  0  0  0  0  0  0  0  # atno 17343 bound_to 10162
  156.5923  130.8511  151.3411 LP  0  0  0  0  0  0  0  0  0  0  0  0  # atno 17370 bound_to 10713
  157.7283  130.9655  150.1736 LP  0  0  0  0  0  0  0  0  0  0  0  0  # atno 17371 bound_to 10713
  139.8982  135.0154  156.7139 LP  0  0  0  0  0  0  0  0  0  0  0  0  # atno 17394 bound_to 11000
  140.7073  133.9254  155.8062 LP  0  0  0  0  0  0  0  0  0  0  0  0  # atno 17395 bound_to 11000

$$$$
