AV-unprocessed.smi:1369|AV-procd|sdf|5579|dock7
  -GOLD-   22720 5173D 1   1.00000     0.00000
 Structure written by MMmdl.
 39 41  0  0  0  0  0  0  0  0  1 V2000
  145.9929  134.6118  151.7265 C   0  0  0  0  0  0  0  0  0  0  0  0
  146.8731  133.6230  152.4831 C   0  0  0  0  0  0  0  0  0  0  0  0
  146.4418  132.4982  152.7327 O   0  0  0  0  0  0  0  0  0  0  0  0
  148.0821  134.0850  152.8500 N   0  0  0  0  0  0  0  0  0  0  0  0
  149.1177  133.4099  153.5559 C   0  0  0  0  0  0  0  0  0  0  0  0
  149.3540  132.0196  153.4224 C   0  0  0  0  0  0  0  0  0  0  0  0
  150.4071  131.4062  154.1242 C   0  0  0  0  0  0  0  0  0  0  0  0
  151.2386  132.1758  154.9554 C   0  0  0  0  0  0  0  0  0  0  0  0
  151.0220  133.5603  155.0809 C   0  0  0  0  0  0  0  0  0  0  0  0
  149.9639  134.1917  154.3789 C   0  0  0  0  0  0  0  0  0  0  0  0
  149.6993  135.5437  154.4574 O   0  0  0  0  0  0  0  0  0  0  0  0
  150.5443  136.3585  155.2585 C   0  0  0  0  0  0  0  0  0  0  0  0
  151.3305  137.3030  154.3392 C   0  0  0  0  0  0  0  0  0  0  0  0
  150.9424  138.6947  154.5509 N   0  0  0  0  0  0  0  0  0  0  0  0
  151.7890  139.7089  155.0058 C   0  0  0  0  0  0  0  0  0  0  0  0
  152.9752  139.6243  155.3186 O   0  0  0  0  0  0  0  0  0  0  0  0
  151.0446  140.8598  155.0397 O   0  0  0  0  0  0  0  0  0  0  0  0
  149.7795  140.5806  154.6122 C   0  0  0  0  0  0  0  0  0  0  0  0
  148.6778  141.4409  154.4709 C   0  0  0  0  0  0  0  0  0  0  0  0
  147.4668  140.8844  153.9962 C   0  0  0  0  0  0  0  0  0  0  0  0
  147.3788  139.5056  153.6755 C   0  0  0  0  0  0  0  0  0  0  0  0
  148.5008  138.6577  153.8203 C   0  0  0  0  0  0  0  0  0  0  0  0
  149.6865  139.2413  154.2987 C   0  0  0  0  0  0  0  0  0  0  0  0
  146.5428  135.0606  150.8987 H   0  0  0  0  0  0  0  0  0  0  0  0
  145.6586  135.4062  152.3938 H   0  0  0  0  0  0  0  0  0  0  0  0
  145.1120  134.1148  151.3191 H   0  0  0  0  0  0  0  0  0  0  0  0
  148.2569  135.0619  152.6633 H   0  0  0  0  0  0  0  0  0  0  0  0
  148.7488  131.4049  152.7744 H   0  0  0  0  0  0  0  0  0  0  0  0
  150.5802  130.3452  154.0195 H   0  0  0  0  0  0  0  0  0  0  0  0
  152.0479  131.7051  155.4940 H   0  0  0  0  0  0  0  0  0  0  0  0
  151.6844  134.1171  155.7257 H   0  0  0  0  0  0  0  0  0  0  0  0
  149.9434  136.9477  155.9526 H   0  0  0  0  0  0  0  0  0  0  0  0
  151.2332  135.7462  155.8429 H   0  0  0  0  0  0  0  0  0  0  0  0
  152.4017  137.1834  154.5029 H   0  0  0  0  0  0  0  0  0  0  0  0
  151.1513  137.0358  153.2968 H   0  0  0  0  0  0  0  0  0  0  0  0
  148.7531  142.4900  154.7161 H   0  0  0  0  0  0  0  0  0  0  0  0
  146.5996  141.5170  153.8761 H   0  0  0  0  0  0  0  0  0  0  0  0
  146.4454  139.0997  153.3141 H   0  0  0  0  0  0  0  0  0  0  0  0
  148.4440  137.6081  153.5721 H   0  0  0  0  0  0  0  0  0  0  0  0
  1  2  1  0  0  0  0
  1 24  1  0  0  0  0
  1 25  1  0  0  0  0
  1 26  1  0  0  0  0
  2  3  2  0  0  0  0
  2  4  1  0  0  0  0
  4  5  1  0  0  0  0
  4 27  1  0  0  0  0
  5 10  1  0  0  0  0
  5  6  2  0  0  0  0
  6  7  1  0  0  0  0
  6 28  1  0  0  0  0
  7  8  2  0  0  0  0
  7 29  1  0  0  0  0
  8  9  1  0  0  0  0
  8 30  1  0  0  0  0
  9 10  2  0  0  0  0
  9 31  1  0  0  0  0
 10 11  1  0  0  0  0
 11 12  1  0  0  0  0
 12 13  1  0  0  0  0
 12 32  1  0  0  0  0
 12 33  1  0  0  0  0
 13 14  1  0  0  0  0
 13 34  1  0  0  0  0
 13 35  1  0  0  0  0
 14 23  1  0  0  0  0
 14 15  1  0  0  0  0
 15 16  2  0  0  0  0
 15 17  1  0  0  0  0
 17 18  1  0  0  0  0
 18 23  2  0  0  0  0
 18 19  1  0  0  0  0
 19 20  2  0  0  0  0
 19 36  1  0  0  0  0
 20 21  1  0  0  0  0
 20 37  1  0  0  0  0
 21 22  2  0  0  0  0
 21 38  1  0  0  0  0
 22 23  1  0  0  0  0
 22 39  1  0  0  0  0
M  END
> <s_m_source_file>
AV-unprocessed.smi

> <i_m_source_file_index>
1369

> <i_lp_mmshare_version>
43012

> <i_f3d_flags>
0

> <s_epik_input>
W0NIM11DKD1PKVtOSF1jMVtjSF1bY0hdW2NIXVtjSF1jMU9bQ0gyXVtDSDJdbihjKD1PKW8yKWMoYzIzKVtjSF1bY0hdW2NIXVtjSF0z

> <s_epik_cmdline>
J2VwaWtfcHl0aG9uJywgJy1waCcsICc3LjAnLCAnLXRuJywgJzgnLCAnLW1hJywgJzIwMCcsICctbWV0YWxfYmluZGluZycsICctaW1hZScsICc8aW5maWxlLm1hZT4nLCAnLW9tYWUnLCAnPG91dGZpbGUubWFlPic=

> <r_lp_tautomer_probability>
1

> <r_epik_Ionization_Penalty>
9.24277e-08

> <r_epik_Ionization_Penalty_Charging>
1.02615e-14

> <r_epik_Ionization_Penalty_Neutral>
9.24277e-08

> <r_epik_State_Penalty>
-0

> <r_epik_Charging_Adjusted_Penalty>
1.02615e-14

> <i_epik_Tot_Q>
0

> <i_epik_Tot_abs_Q>
0

> <r_epik_Metal_State_Penalty>
-0

> <b_epik_Metal_Only>
0

> <s_lp_Force_Field>
OPLS_2005

> <r_lp_Energy>
36.4772

> <b_lp_Chiralities_Consistent>
1

> <s_lp_Variant>
AV-unprocessed.smi:1369-1

> <Gold.Version>
5.8.1

> <Gold.Id.Protein>
6NUR|6NUR_protein|mol2

> <Gold.PLP.Fitness>
48.5845

> <Gold.PLP.PLP>
-44.1088

> <Gold.PLP.part.hbond>
-3.0000

> <Gold.PLP.part.metal>
0.0000

> <Gold.PLP.part.buried>
-1.6752

> <Gold.PLP.part.nonpolar>
-40.1354

> <Gold.PLP.part.repulsive>
2.0300

> <Gold.PLP.ligand.clash>
0.0000

> <Gold.PLP.ligand.torsion>
0.9469

> <Gold.PLP.Chemscore.Hbond>
2.1065

> <Gold.PLP.Chemscore.CHOScore>
0.0000

> <Gold.PLP.Chemscore.Metal>
0.0000

> <Gold.Chemscore.Hbonds>
donor molecule, donor type, donor heavy atom, donor atom, acceptor molecule, acceptor atom, score
      L1  H     4    27       P1  7948  1.00
      P1  H  7997  8010       L1    16  1.00

> <Gold.PLP.Chemscore.Internal.Correction>
0.0501

> <Gold.Rescore>
     Score         DG    S(hbond)    S(metal)    S(lipo)     H(rot)  DE(clash)    DE(int)     intcor
     15.87     -17.49       1.92        0.00      85.11       1.70       0.03       1.59       ----

> <Gold.Chemscore.Fitness>
15.8651

> <Gold.Chemscore.DG>
-17.4868

> <Gold.Chemscore.ZeroCoef>
-5.4800

> <Gold.Chemscore.Hbond>
1.9180

> <Gold.Chemscore.Metal>
0.0000

> <Gold.Chemscore.Lipo>
85.1071

> <Gold.Chemscore.Internal_Hbond>
0.0000

> <Gold.Chemscore.DEClash>
0.0304

> <Gold.Chemscore.DEInternal>
1.5914

> <Gold.Chemscore.Rot>
1.7019

> <Gold.Chemscore.Internal.Correction>
   9.000000E+99

> <Gold.Chemscore.Hbonds>
donor molecule, donor type, donor heavy atom, donor atom, acceptor molecule, acceptor atom, score
      L1  H     4    27       P1  7948  0.73
      P1  H  7997  8010       L1    16  0.99

> <Gold.Chemscore.Hbond.Weighted>
-6.4062

> <Gold.Chemscore.Metal.Weighted>
-0.0000

> <Gold.Chemscore.Lipo.Weighted>
-9.9575

> <Gold.Chemscore.Internal_Hbond.Weighted>
0.0000

> <Gold.Chemscore.DEClash.Weighted>
0.0304

> <Gold.Chemscore.DEInternal.Weighted>
1.5914

> <Gold.Chemscore.Rot.Weighted>
4.3569

> <Gold.Chemscore.Internal.Correction.Weighted>
   9.000000E+99

> <Gold.Protein.RotatedTorsions>
[ 6907 6896 6895 6894 ] final   21.19 input  -60.11 | X-H torsion
[ 7974 7965 7964 7962 ] final  156.30 input  175.53 | X-H torsion
[ 8008 7997 7996 7995 ] final   82.60 input   59.86 | X-H torsion
[ 10167 10162 10161 10158 ] final -114.06 input  -65.29 | X-H torsion
[ 10718 10713 10712 10709 ] final   50.13 input   66.30 | X-H torsion
[ 10763 10752 10751 10750 ] final -124.36 input  -60.55 | X-H torsion
[ 11005 11000 10999 10996 ] final  117.59 input  -57.11 | X-H torsion

> <Gold.Protein.ActiveResidues>
 VAL166  LYS551  ARG553  GLY616  TRP617  ASP618  TYR619  PRO620  LYS621  CYS622 
 ASP623  PHE694  ASN695  SER759  ASP760  ASP761  ALA762  ILE779  LEU786  VAL792 
 PHE793  MET794  SER795  GLU796  ALA797  LYS798  CYS799  TRP800  GLU811  SER814 

> <Gold.Protein.RotatedAtoms>
  151.9079  135.0351  160.0511 H   0  0  0  0  0  0  0  0  0  0  0  0  # atno 6907 bound_to 6896
  152.2303  133.5049  159.5220 H   0  0  0  0  0  0  0  0  0  0  0  0  # atno 6908 bound_to 6896
  150.7024  134.1141  159.4053 H   0  0  0  0  0  0  0  0  0  0  0  0  # atno 6909 bound_to 6896
  144.7972  139.7184  143.6197 H   0  0  0  0  0  0  0  0  0  0  0  0  # atno 7974 bound_to 7965
  155.9128  140.3426  155.6112 H   0  0  0  0  0  0  0  0  0  0  0  0  # atno 8008 bound_to 7997
  155.7367  140.0802  157.2283 H   0  0  0  0  0  0  0  0  0  0  0  0  # atno 8009 bound_to 7997
  154.4058  140.1578  156.2557 H   0  0  0  0  0  0  0  0  0  0  0  0  # atno 8010 bound_to 7997
  140.1051  143.4578  152.1788 H   0  0  0  0  0  0  0  0  0  0  0  0  # atno 10167 bound_to 10162
  157.4855  130.8342  149.8142 H   0  0  0  0  0  0  0  0  0  0  0  0  # atno 10718 bound_to 10713
  154.8722  135.4066  154.3093 H   0  0  0  0  0  0  0  0  0  0  0  0  # atno 10763 bound_to 10752
  153.3939  135.7016  153.6480 H   0  0  0  0  0  0  0  0  0  0  0  0  # atno 10764 bound_to 10752
  153.5251  135.3679  155.2621 H   0  0  0  0  0  0  0  0  0  0  0  0  # atno 10765 bound_to 10752
  139.9080  134.9612  156.7374 H   0  0  0  0  0  0  0  0  0  0  0  0  # atno 11005 bound_to 11000
  146.2243  139.5694  142.9597 LP  0  0  0  0  0  0  0  0  0  0  0  0  # atno 17320 bound_to 7965
  145.5644  141.0401  143.2208 LP  0  0  0  0  0  0  0  0  0  0  0  0  # atno 17321 bound_to 7965
  139.5650  144.7429  151.4049 LP  0  0  0  0  0  0  0  0  0  0  0  0  # atno 17342 bound_to 10162
  140.6956  143.7756  150.7322 LP  0  0  0  0  0  0  0  0  0  0  0  0  # atno 17343 bound_to 10162
  156.0144  130.3819  150.2157 LP  0  0  0  0  0  0  0  0  0  0  0  0  # atno 17370 bound_to 10713
  157.0345  131.0017  151.3302 LP  0  0  0  0  0  0  0  0  0  0  0  0  # atno 17371 bound_to 10713
  140.6877  133.9418  155.7947 LP  0  0  0  0  0  0  0  0  0  0  0  0  # atno 17394 bound_to 11000
  141.0464  134.0547  157.3838 LP  0  0  0  0  0  0  0  0  0  0  0  0  # atno 17395 bound_to 11000

$$$$
