AV-unprocessed.smi:1554|AV-procd|sdf|6243|dock7
  -GOLD-   22720 6423D 1   1.00000     0.00000
 Structure written by MMmdl.
 47 49  0  0  0  0  0  0  0  0  1 V2000
  153.3720  142.6286  162.1032 C   0  0  0  0  0  0  0  0  0  0  0  0
  152.7966  142.3302  160.7298 C   0  0  0  0  0  0  0  0  0  0  0  0
  153.1877  141.1473  160.0630 C   0  0  0  0  0  0  0  0  0  0  0  0
  152.6744  140.8323  158.7857 C   0  0  0  0  0  0  0  0  0  0  0  0
  152.9130  139.7432  157.9649 N   0  0  0  0  0  0  0  0  0  0  0  0
  152.1460  140.0256  156.9158 C   0  0  0  0  0  0  0  0  0  0  0  0
  151.4393  141.1713  156.9586 N   0  0  0  0  0  0  0  0  0  0  0  0
  150.5466  141.6849  155.9345 C   0  0  0  0  0  0  0  0  0  0  0  0
  149.1034  141.1687  156.0912 C   0  0  1  0  0  0  0  0  0  0  0  0
  148.2040  142.1295  155.5737 O   0  0  0  0  0  0  0  0  0  0  0  0
  148.8931  139.8454  155.3282 C   0  0  0  0  0  0  0  0  0  0  0  0
  149.9779  138.8685  155.4426 N   0  0  0  0  0  0  0  0  0  0  0  0
  150.9560  138.9775  154.3621 C   0  0  0  0  0  0  0  0  0  0  0  0
  152.0664  137.9201  154.4850 C   0  0  0  0  0  0  0  0  0  0  0  0
  151.4882  136.6199  154.5225 O   0  0  0  0  0  0  0  0  0  0  0  0
  150.5650  136.4531  155.5945 C   0  0  2  0  0  0  0  0  0  0  0  0
  150.0180  135.0227  155.5420 C   0  0  0  0  0  0  0  0  0  0  0  0
  149.4497  137.5085  155.4638 C   0  0  0  0  0  0  0  0  0  0  0  0
  151.7555  141.7427  158.1866 C   0  0  0  0  0  0  0  0  0  0  0  0
  151.3582  142.9223  158.8405 C   0  0  0  0  0  0  0  0  0  0  0  0
  151.8761  143.2191  160.1185 C   0  0  0  0  0  0  0  0  0  0  0  0
  151.4341  144.4919  160.8187 C   0  0  0  0  0  0  0  0  0  0  0  0
  154.1305  141.8974  162.3839 H   0  0  0  0  0  0  0  0  0  0  0  0
  152.5860  142.6044  162.8581 H   0  0  0  0  0  0  0  0  0  0  0  0
  153.8384  143.6137  162.1192 H   0  0  0  0  0  0  0  0  0  0  0  0
  153.8867  140.4688  160.5294 H   0  0  0  0  0  0  0  0  0  0  0  0
  152.0956  139.3619  156.0651 H   0  0  0  0  0  0  0  0  0  0  0  0
  150.5706  142.7750  155.9646 H   0  0  0  0  0  0  0  0  0  0  0  0
  150.9446  141.3934  154.9617 H   0  0  0  0  0  0  0  0  0  0  0  0
  148.8992  141.0403  157.1535 H   0  0  0  0  0  0  0  0  0  0  0  0
  148.6726  142.9424  155.4580 H   0  0  0  0  0  0  0  0  0  0  0  0
  147.9661  139.3957  155.6875 H   0  0  0  0  0  0  0  0  0  0  0  0
  148.7233  140.0644  154.2729 H   0  0  0  0  0  0  0  0  0  0  0  0
  150.4572  138.8659  153.3982 H   0  0  0  0  0  0  0  0  0  0  0  0
  151.4195  139.9628  154.3629 H   0  0  0  0  0  0  0  0  0  0  0  0
  152.7461  137.9836  153.6350 H   0  0  0  0  0  0  0  0  0  0  0  0
  152.6612  138.0877  155.3842 H   0  0  0  0  0  0  0  0  0  0  0  0
  151.0920  136.5927  156.5401 H   0  0  0  0  0  0  0  0  0  0  0  0
  149.3116  134.8424  156.3527 H   0  0  0  0  0  0  0  0  0  0  0  0
  150.8233  134.2939  155.6347 H   0  0  0  0  0  0  0  0  0  0  0  0
  149.5028  134.8320  154.6002 H   0  0  0  0  0  0  0  0  0  0  0  0
  148.7525  137.3984  156.2956 H   0  0  0  0  0  0  0  0  0  0  0  0
  148.8786  137.3213  154.5529 H   0  0  0  0  0  0  0  0  0  0  0  0
  150.6557  143.5895  158.3632 H   0  0  0  0  0  0  0  0  0  0  0  0
  150.6828  145.0257  160.2360 H   0  0  0  0  0  0  0  0  0  0  0  0
  152.2823  145.1607  160.9656 H   0  0  0  0  0  0  0  0  0  0  0  0
  151.0002  144.2625  161.7921 H   0  0  0  0  0  0  0  0  0  0  0  0
  1  2  1  0  0  0  0
  1 23  1  0  0  0  0
  1 24  1  0  0  0  0
  1 25  1  0  0  0  0
  2 21  1  0  0  0  0
  2  3  2  0  0  0  0
  3  4  1  0  0  0  0
  3 26  1  0  0  0  0
  4 19  2  0  0  0  0
  4  5  1  0  0  0  0
  5  6  2  0  0  0  0
  6  7  1  0  0  0  0
  6 27  1  0  0  0  0
  7  8  1  0  0  0  0
  7 19  1  0  0  0  0
  8  9  1  0  0  0  0
  8 28  1  0  0  0  0
  8 29  1  0  0  0  0
  9 10  1  0  0  0  0
  9 11  1  0  0  0  0
  9 30  1  0  0  0  0
 10 31  1  0  0  0  0
 11 12  1  0  0  0  0
 11 32  1  0  0  0  0
 11 33  1  0  0  0  0
 12 18  1  0  0  0  0
 12 13  1  0  0  0  0
 13 14  1  0  0  0  0
 13 34  1  0  0  0  0
 13 35  1  0  0  0  0
 14 15  1  0  0  0  0
 14 36  1  0  0  0  0
 14 37  1  0  0  0  0
 15 16  1  0  0  0  0
 16 17  1  0  0  0  0
 16 18  1  0  0  0  0
 16 38  1  0  0  0  0
 17 39  1  0  0  0  0
 17 40  1  0  0  0  0
 17 41  1  0  0  0  0
 18 42  1  0  0  0  0
 18 43  1  0  0  0  0
 19 20  1  0  0  0  0
 20 21  2  0  0  0  0
 20 44  1  0  0  0  0
 21 22  1  0  0  0  0
 22 45  1  0  0  0  0
 22 46  1  0  0  0  0
 22 47  1  0  0  0  0
M  END
> <s_m_source_file>
AV-unprocessed.smi

> <i_m_source_file_index>
1554

> <i_lp_mmshare_version>
43012

> <i_f3d_flags>
0

> <s_epik_input>
W0NIM11jKFtjSF0xKWMoW0NIM10pW2NIXWMoYzEyKW4oW2NIXW4yKVtDSDJdW0NASF0oW09IXSlbQ0gyXU4zW0NIMl1bQ0gyXU9bQ0BASF0oW0NIM10pW0NIMl0z

> <s_epik_cmdline>
J2VwaWtfcHl0aG9uJywgJy1waCcsICc3LjAnLCAnLXRuJywgJzgnLCAnLW1hJywgJzIwMCcsICctbWV0YWxfYmluZGluZycsICctaW1hZScsICc8aW5maWxlLm1hZT4nLCAnLW9tYWUnLCAnPG91dGZpbGUubWFlPic=

> <r_epik_Ionization_Penalty>
0.345108

> <r_epik_Ionization_Penalty_Charging>
0

> <r_epik_Ionization_Penalty_Neutral>
0.345108

> <r_epik_State_Penalty>
0.314544

> <r_epik_Charging_Adjusted_Penalty>
0.314544

> <i_epik_Tot_Q>
0

> <i_epik_Tot_abs_Q>
0

> <r_epik_Metal_State_Penalty>
0.239719

> <b_epik_Metal_Only>
0

> <s_lp_Force_Field>
OPLS_2005

> <r_lp_Energy>
29.2504

> <b_lp_Chiralities_Consistent>
1

> <s_lp_Variant>
AV-unprocessed.smi:1554-4

> <Gold.Version>
5.8.1

> <Gold.Id.Protein>
6NUR|6NUR_protein|mol2

> <Gold.PLP.Fitness>
50.2750

> <Gold.PLP.PLP>
-43.9281

> <Gold.PLP.part.hbond>
-3.0000

> <Gold.PLP.part.metal>
0.0000

> <Gold.PLP.part.buried>
-5.9227

> <Gold.PLP.part.nonpolar>
-35.0052

> <Gold.PLP.part.repulsive>
0.6763

> <Gold.PLP.ligand.clash>
0.0000

> <Gold.PLP.ligand.torsion>
1.3323

> <Gold.PLP.Chemscore.Hbond>
3.0000

> <Gold.PLP.Chemscore.CHOScore>
0.0000

> <Gold.PLP.Chemscore.Metal>
0.0000

> <Gold.Chemscore.Hbonds>
donor molecule, donor type, donor heavy atom, donor atom, acceptor molecule, acceptor atom, score
      L1  H    10    31       P1  8028  1.00
      P1  H  7997  8009       L1     5  0.90
      P1  H 10752 10763       L1    15  1.00

> <Gold.PLP.Chemscore.Internal.Correction>
0.0115

> <Gold.Rescore>
     Score         DG    S(hbond)    S(metal)    S(lipo)     H(rot)  DE(clash)    DE(int)     intcor
     18.29     -21.08       1.82        0.00     124.93       1.98       0.15       2.64       ----

> <Gold.Chemscore.Fitness>
18.2934

> <Gold.Chemscore.DG>
-21.0841

> <Gold.Chemscore.ZeroCoef>
-5.4800

> <Gold.Chemscore.Hbond>
1.8168

> <Gold.Chemscore.Metal>
0.0000

> <Gold.Chemscore.Lipo>
124.9300

> <Gold.Chemscore.Internal_Hbond>
0.0000

> <Gold.Chemscore.DEClash>
0.1544

> <Gold.Chemscore.DEInternal>
2.6363

> <Gold.Chemscore.Rot>
1.9848

> <Gold.Chemscore.Internal.Correction>
   9.000000E+99

> <Gold.Chemscore.Hbonds>
donor molecule, donor type, donor heavy atom, donor atom, acceptor molecule, acceptor atom, score
      L1  H    10    31       P1  8028  0.97
      P1  H  7997  8009       L1     5  0.10
      P1  H 10752 10763       L1    15  0.27

> <Gold.Chemscore.Hbond.Weighted>
-6.0683

> <Gold.Chemscore.Metal.Weighted>
-0.0000

> <Gold.Chemscore.Lipo.Weighted>
-14.6168

> <Gold.Chemscore.Internal_Hbond.Weighted>
0.0000

> <Gold.Chemscore.DEClash.Weighted>
0.1544

> <Gold.Chemscore.DEInternal.Weighted>
2.6363

> <Gold.Chemscore.Rot.Weighted>
5.0810

> <Gold.Chemscore.Internal.Correction.Weighted>
   9.000000E+99

> <Gold.Protein.RotatedTorsions>
[ 6907 6896 6895 6894 ] final -112.00 input  -60.11 | X-H torsion
[ 7974 7965 7964 7962 ] final   49.21 input  175.53 | X-H torsion
[ 8008 7997 7996 7995 ] final  146.76 input   59.86 | X-H torsion
[ 10167 10162 10161 10158 ] final  156.95 input  -65.29 | X-H torsion
[ 10718 10713 10712 10709 ] final   44.44 input   66.30 | X-H torsion
[ 10763 10752 10751 10750 ] final   61.91 input  -60.55 | X-H torsion
[ 11005 11000 10999 10996 ] final  -87.39 input  -57.11 | X-H torsion

> <Gold.Protein.ActiveResidues>
 VAL166  LYS551  ARG553  GLY616  TRP617  ASP618  TYR619  PRO620  LYS621  CYS622 
 ASP623  PHE694  ASN695  SER759  ASP760  ASP761  ALA762  ILE779  LEU786  VAL792 
 PHE793  MET794  SER795  GLU796  ALA797  LYS798  CYS799  TRP800  GLU811  SER814 

> <Gold.Protein.RotatedAtoms>
  150.7728  133.9153  159.3381 H   0  0  0  0  0  0  0  0  0  0  0  0  # atno 6907 bound_to 6896
  151.7035  135.0924  160.0264 H   0  0  0  0  0  0  0  0  0  0  0  0  # atno 6908 bound_to 6896
  152.3753  133.6435  159.6154 H   0  0  0  0  0  0  0  0  0  0  0  0  # atno 6909 bound_to 6896
  146.0131  139.4565  142.9944 H   0  0  0  0  0  0  0  0  0  0  0  0  # atno 7974 bound_to 7965
  156.2845  140.2173  156.5429 H   0  0  0  0  0  0  0  0  0  0  0  0  # atno 8008 bound_to 7997
  154.7354  140.0492  157.0786 H   0  0  0  0  0  0  0  0  0  0  0  0  # atno 8009 bound_to 7997
  155.0299  140.3134  155.4765 H   0  0  0  0  0  0  0  0  0  0  0  0  # atno 8010 bound_to 7997
  139.4822  144.4962  151.8235 H   0  0  0  0  0  0  0  0  0  0  0  0  # atno 10167 bound_to 10162
  157.4268  130.8001  149.7566 H   0  0  0  0  0  0  0  0  0  0  0  0  # atno 10718 bound_to 10713
  152.9965  135.5484  154.6109 H   0  0  0  0  0  0  0  0  0  0  0  0  # atno 10763 bound_to 10752
  154.5430  135.2821  155.1081 H   0  0  0  0  0  0  0  0  0  0  0  0  # atno 10764 bound_to 10752
  154.2351  135.6426  153.5241 H   0  0  0  0  0  0  0  0  0  0  0  0  # atno 10765 bound_to 10752
  141.1617  133.7509  156.9300 H   0  0  0  0  0  0  0  0  0  0  0  0  # atno 11005 bound_to 11000
  145.7311  141.0042  143.1351 LP  0  0  0  0  0  0  0  0  0  0  0  0  # atno 17320 bound_to 7965
  144.6960  139.8986  143.7457 LP  0  0  0  0  0  0  0  0  0  0  0  0  # atno 17321 bound_to 7965
  140.4451  144.1933  150.5893 LP  0  0  0  0  0  0  0  0  0  0  0  0  # atno 17342 bound_to 10162
  140.4643  143.2437  151.9177 LP  0  0  0  0  0  0  0  0  0  0  0  0  # atno 17343 bound_to 10162
  155.9899  130.3948  150.3051 LP  0  0  0  0  0  0  0  0  0  0  0  0  # atno 17370 bound_to 10713
  157.1204  131.0245  151.3011 LP  0  0  0  0  0  0  0  0  0  0  0  0  # atno 17371 bound_to 10713
  140.1393  134.9304  157.2444 LP  0  0  0  0  0  0  0  0  0  0  0  0  # atno 17394 bound_to 11000
  140.2857  134.3299  155.7330 LP  0  0  0  0  0  0  0  0  0  0  0  0  # atno 17395 bound_to 11000

$$$$
