AV-unprocessed.smi:1815|AV-procd|sdf|7359|dock4
  -GOLD-   22720 9 23D 1   1.00000     0.00000
 Structure written by MMmdl.
 38 39  0  0  0  0  0  0  0  0  2 V2000
  152.2689  138.9304  155.9251 C   0  0  0  0  0  0  0  0  0  0  0  0
  151.3885  138.6264  154.7007 C   0  0  1  0  0  0  0  0  0  0  0  0
  150.4154  137.4562  154.9337 C   0  0  0  0  0  0  0  0  0  0  0  0
  149.3150  137.8136  155.8283 N   0  0  0  0  0  0  0  0  0  0  0  0
  148.4144  136.6875  156.0871 C   0  0  0  0  0  0  0  0  0  0  0  0
  148.7475  135.8523  157.3413 C   0  0  0  0  0  0  0  0  0  0  0  0
  148.1299  136.3596  158.5633 N   0  0  0  0  0  0  0  0  0  0  0  0
  148.7806  136.7560  159.6679 C   0  0  0  0  0  0  0  0  0  0  0  0
  150.0136  136.7368  159.6997 O   0  0  0  0  0  0  0  0  0  0  0  0
  147.9617  137.1245  160.6791 N   0  5  0  0  0  0  0  0  0  0  0  0
  147.2667  136.1904  161.3481 C   0  0  0  0  0  0  0  0  0  0  0  0
  147.6586  134.9136  161.4315 N   0  0  0  0  0  0  0  0  0  0  0  0
  146.7907  134.1139  162.1768 C   0  0  0  0  0  0  0  0  0  0  0  0
  145.7083  134.7959  162.6655 C   0  0  0  0  0  0  0  0  0  0  0  0
  145.7465  136.4730  162.2004 S   0  0  0  0  0  0  0  0  0  0  0  0
  148.6169  138.9531  155.2489 C   0  0  0  0  0  0  0  0  0  0  0  0
  149.5591  140.1581  155.0640 C   0  0  2  0  0  0  0  0  0  0  0  0
  148.8585  141.3414  154.3883 C   0  0  0  0  0  0  0  0  0  0  0  0
  150.6711  139.7793  154.2537 O   0  0  0  0  0  0  0  0  0  0  0  0
  152.8759  138.0633  156.1885 H   0  0  0  0  0  0  0  0  0  0  0  0
  151.6763  139.1871  156.8031 H   0  0  0  0  0  0  0  0  0  0  0  0
  152.9461  139.7598  155.7224 H   0  0  0  0  0  0  0  0  0  0  0  0
  152.0591  138.3477  153.8876 H   0  0  0  0  0  0  0  0  0  0  0  0
  150.0096  137.1411  153.9714 H   0  0  0  0  0  0  0  0  0  0  0  0
  150.9742  136.6045  155.3099 H   0  0  0  0  0  0  0  0  0  0  0  0
  147.4068  137.0736  156.2465 H   0  0  0  0  0  0  0  0  0  0  0  0
  148.3401  136.0476  155.2065 H   0  0  0  0  0  0  0  0  0  0  0  0
  148.5005  134.8035  157.1699 H   0  0  0  0  0  0  0  0  0  0  0  0
  149.8255  135.8774  157.5007 H   0  0  0  0  0  0  0  0  0  0  0  0
  147.1213  136.3894  158.5855 H   0  0  0  0  0  0  0  0  0  0  0  0
  147.0221  133.0674  162.3082 H   0  0  0  0  0  0  0  0  0  0  0  0
  144.8951  134.4175  163.2661 H   0  0  0  0  0  0  0  0  0  0  0  0
  148.1796  138.6717  154.2895 H   0  0  0  0  0  0  0  0  0  0  0  0
  147.7893  139.2468  155.8957 H   0  0  0  0  0  0  0  0  0  0  0  0
  149.9223  140.4861  156.0385 H   0  0  0  0  0  0  0  0  0  0  0  0
  148.0069  141.6817  154.9778 H   0  0  0  0  0  0  0  0  0  0  0  0
  148.4941  141.0708  153.3970 H   0  0  0  0  0  0  0  0  0  0  0  0
  149.5412  142.1836  154.2747 H   0  0  0  0  0  0  0  0  0  0  0  0
  1  2  1  0  0  0  0
  1 20  1  0  0  0  0
  1 21  1  0  0  0  0
  1 22  1  0  0  0  0
  2 19  1  0  0  0  0
  2  3  1  0  0  0  0
  2 23  1  0  0  0  0
  3  4  1  0  0  0  0
  3 24  1  0  0  0  0
  3 25  1  0  0  0  0
  4  5  1  0  0  0  0
  4 16  1  0  0  0  0
  5  6  1  0  0  0  0
  5 26  1  0  0  0  0
  5 27  1  0  0  0  0
  6  7  1  0  0  0  0
  6 28  1  0  0  0  0
  6 29  1  0  0  0  0
  7  8  1  0  0  0  0
  7 30  1  0  0  0  0
  8  9  2  0  0  0  0
  8 10  1  0  0  0  0
 10 11  1  0  0  0  0
 11 15  1  0  0  0  0
 11 12  2  0  0  0  0
 12 13  1  0  0  0  0
 13 14  2  0  0  0  0
 13 31  1  0  0  0  0
 14 15  1  0  0  0  0
 14 32  1  0  0  0  0
 16 17  1  0  0  0  0
 16 33  1  0  0  0  0
 16 34  1  0  0  0  0
 17 18  1  0  0  0  0
 17 19  1  0  0  0  0
 17 35  1  0  0  0  0
 18 36  1  0  0  0  0
 18 37  1  0  0  0  0
 18 38  1  0  0  0  0
M  CHG  1  10  -1
M  END
> <s_m_source_file>
AV-unprocessed.smi

> <i_m_source_file_index>
1815

> <i_lp_mmshare_version>
43012

> <i_f3d_flags>
0

> <s_epik_input>
W0NIM11bQ0BASF0xW0NIMl1OKFtDSDJdW0NASF0oTzEpW0NIM10pW0NIMl1bQ0gyXVtOSF1DKD1PKVtOSF1jMm5bY0hdW2NIXXMy

> <s_epik_cmdline>
J2VwaWtfcHl0aG9uJywgJy1waCcsICc3LjAnLCAnLXRuJywgJzgnLCAnLW1hJywgJzIwMCcsICctbWV0YWxfYmluZGluZycsICctaW1hZScsICc8aW5maWxlLm1hZT4nLCAnLW9tYWUnLCAnPG91dGZpbGUubWFlPic=

> <r_lp_tautomer_probability>
0.999

> <r_epik_Ionization_Penalty>
7.22374

> <r_epik_Ionization_Penalty_Charging>
5.82415

> <r_epik_Ionization_Penalty_Neutral>
1.39959

> <r_epik_State_Penalty>
6.03347

> <r_epik_Charging_Adjusted_Penalty>
11.8576

> <i_epik_Tot_Q>
-1

> <i_epik_Tot_abs_Q>
1

> <r_epik_Metal_State_Penalty>
2.01024

> <b_epik_Metal_Only>
1

> <s_lp_Force_Field>
OPLS_2005

> <r_lp_Energy>
24.221

> <b_lp_Chiralities_Consistent>
1

> <s_lp_Variant>
AV-unprocessed.smi:1815-10

> <Gold.Version>
5.8.1

> <Gold.Id.Protein>
6NUR|6NUR_protein|mol2

> <Gold.PLP.Fitness>
44.6937

> <Gold.PLP.PLP>
-31.6760

> <Gold.PLP.part.hbond>
-4.0723

> <Gold.PLP.part.metal>
0.0000

> <Gold.PLP.part.buried>
-5.0455

> <Gold.PLP.part.nonpolar>
-24.1096

> <Gold.PLP.part.repulsive>
0.2613

> <Gold.PLP.ligand.clash>
0.0000

> <Gold.PLP.ligand.torsion>
1.4309

> <Gold.PLP.Chemscore.Hbond>
5.2640

> <Gold.PLP.Chemscore.CHOScore>
0.0000

> <Gold.PLP.Chemscore.Metal>
0.0000

> <Gold.Chemscore.Hbonds>
donor molecule, donor type, donor heavy atom, donor atom, acceptor molecule, acceptor atom, score
      P1  H  6896  6908       L1     9  1.00
      P1  H  6931  6943       L1    10  1.70
      P1  H  6934  6947       L1    10  1.48
      P1  H  7989  7998       L1    19  1.00

> <Gold.PLP.Chemscore.Internal.Correction>
0.0875

> <Gold.Rescore>
     Score         DG    S(hbond)    S(metal)    S(lipo)     H(rot)  DE(clash)    DE(int)     intcor
     17.58     -18.92       2.93        0.00      65.67       1.57       0.02       1.32       ----

> <Gold.Chemscore.Fitness>
17.5796

> <Gold.Chemscore.DG>
-18.9234

> <Gold.Chemscore.ZeroCoef>
-5.4800

> <Gold.Chemscore.Hbond>
2.9261

> <Gold.Chemscore.Metal>
0.0000

> <Gold.Chemscore.Lipo>
65.6676

> <Gold.Chemscore.Internal_Hbond>
0.0000

> <Gold.Chemscore.DEClash>
0.0210

> <Gold.Chemscore.DEInternal>
1.3227

> <Gold.Chemscore.Rot>
1.5676

> <Gold.Chemscore.Internal.Correction>
   9.000000E+99

> <Gold.Chemscore.Hbonds>
donor molecule, donor type, donor heavy atom, donor atom, acceptor molecule, acceptor atom, score
      P1  H  6896  6908       L1     9  0.96
      P1  H  6931  6943       L1    10  0.37
      P1  H  6934  6947       L1    10  0.60
      P1  H  7989  7998       L1    19  0.84

> <Gold.Chemscore.Hbond.Weighted>
-9.7733

> <Gold.Chemscore.Metal.Weighted>
-0.0000

> <Gold.Chemscore.Lipo.Weighted>
-7.6831

> <Gold.Chemscore.Internal_Hbond.Weighted>
0.0000

> <Gold.Chemscore.DEClash.Weighted>
0.0210

> <Gold.Chemscore.DEInternal.Weighted>
1.3227

> <Gold.Chemscore.Rot.Weighted>
4.0130

> <Gold.Chemscore.Internal.Correction.Weighted>
   9.000000E+99

> <Gold.Protein.RotatedTorsions>
[ 6907 6896 6895 6894 ] final -154.89 input  -60.11 | X-H torsion
[ 7974 7965 7964 7962 ] final   96.54 input  175.53 | X-H torsion
[ 8008 7997 7996 7995 ] final  -69.01 input   59.86 | X-H torsion
[ 10167 10162 10161 10158 ] final  -92.20 input  -65.29 | X-H torsion
[ 10718 10713 10712 10709 ] final -134.82 input   66.30 | X-H torsion
[ 10763 10752 10751 10750 ] final  143.46 input  -60.55 | X-H torsion
[ 11005 11000 10999 10996 ] final   65.01 input  -57.11 | X-H torsion

> <Gold.Protein.ActiveResidues>
 VAL166  LYS551  ARG553  GLY616  TRP617  ASP618  TYR619  PRO620  LYS621  CYS622 
 ASP623  PHE694  ASN695  SER759  ASP760  ASP761  ALA762  ILE779  LEU786  VAL792 
 PHE793  MET794  SER795  GLU796  ALA797  LYS798  CYS799  TRP800  GLU811  SER814 

> <Gold.Protein.RotatedAtoms>
  151.2642  133.4287  159.2617 H   0  0  0  0  0  0  0  0  0  0  0  0  # atno 6907 bound_to 6896
  151.0503  134.9668  159.8218 H   0  0  0  0  0  0  0  0  0  0  0  0  # atno 6908 bound_to 6896
  152.5381  134.2597  159.8983 H   0  0  0  0  0  0  0  0  0  0  0  0  # atno 6909 bound_to 6896
  145.4374  139.2304  143.3110 H   0  0  0  0  0  0  0  0  0  0  0  0  # atno 7974 bound_to 7965
  154.4908  140.0862  156.7590 H   0  0  0  0  0  0  0  0  0  0  0  0  # atno 8008 bound_to 7997
  155.4236  140.3447  155.4255 H   0  0  0  0  0  0  0  0  0  0  0  0  # atno 8009 bound_to 7997
  156.1327  140.1506  156.9029 H   0  0  0  0  0  0  0  0  0  0  0  0  # atno 8010 bound_to 7997
  140.3372  143.2962  151.9876 H   0  0  0  0  0  0  0  0  0  0  0  0  # atno 10167 bound_to 10162
  156.2595  130.7201  151.1130 H   0  0  0  0  0  0  0  0  0  0  0  0  # atno 10718 bound_to 10713
  153.9727  135.2949  155.3426 H   0  0  0  0  0  0  0  0  0  0  0  0  # atno 10763 bound_to 10752
  154.7313  135.5066  153.8972 H   0  0  0  0  0  0  0  0  0  0  0  0  # atno 10764 bound_to 10752
  153.0892  135.6702  154.0000 H   0  0  0  0  0  0  0  0  0  0  0  0  # atno 10765 bound_to 10752
  139.9922  134.6574  156.0072 H   0  0  0  0  0  0  0  0  0  0  0  0  # atno 11005 bound_to 11000
  146.2574  140.5119  142.8868 LP  0  0  0  0  0  0  0  0  0  0  0  0  # atno 17320 bound_to 7965
  144.8143  140.6441  143.6394 LP  0  0  0  0  0  0  0  0  0  0  0  0  # atno 17321 bound_to 7965
  139.4846  144.6187  151.7297 LP  0  0  0  0  0  0  0  0  0  0  0  0  # atno 17342 bound_to 10162
  140.5343  144.0681  150.6064 LP  0  0  0  0  0  0  0  0  0  0  0  0  # atno 17343 bound_to 10162
  157.7245  131.0659  150.5992 LP  0  0  0  0  0  0  0  0  0  0  0  0  # atno 17370 bound_to 10713
  156.6079  130.4372  149.5871 LP  0  0  0  0  0  0  0  0  0  0  0  0  # atno 17371 bound_to 10713
  141.1575  133.6541  156.4208 LP  0  0  0  0  0  0  0  0  0  0  0  0  # atno 17394 bound_to 11000
  140.4887  134.6596  157.5202 LP  0  0  0  0  0  0  0  0  0  0  0  0  # atno 17395 bound_to 11000

$$$$
