AV-unprocessed.smi:1012|AV-procd|sdf|4424|dock3
  -GOLD-   22720 2373D 1   1.00000     0.00000
 Structure written by MMmdl.
 44 46  0  0  0  0  0  0  0  0  2 V2000
  150.3724  130.8030  154.9570 C   0  0  0  0  0  0  0  0  0  0  0  0
  150.3613  132.2205  155.0446 O   0  0  0  0  0  0  0  0  0  0  0  0
  149.2295  132.8977  154.6370 C   0  0  0  0  0  0  0  0  0  0  0  0
  148.0701  132.2453  154.1428 C   0  0  0  0  0  0  0  0  0  0  0  0
  146.9432  132.9871  153.7415 C   0  0  0  0  0  0  0  0  0  0  0  0
  146.9551  134.3897  153.8274 C   0  0  0  0  0  0  0  0  0  0  0  0
  148.0972  135.0488  154.3152 C   0  0  0  0  0  0  0  0  0  0  0  0
  149.2323  134.3134  154.7168 C   0  0  0  0  0  0  0  0  0  0  0  0
  150.4347  135.0777  155.2469 C   0  0  0  0  0  0  0  0  0  0  0  0
  150.2179  136.4784  155.2002 O   0  0  0  0  0  0  0  0  0  0  0  0
  151.3371  137.2228  155.6516 C   0  0  0  0  0  0  0  0  0  0  0  0
  150.9832  138.7163  155.6330 C   0  0  2  0  0  0  0  0  0  0  0  0
  151.1510  139.2068  154.3176 O   0  0  0  0  0  0  0  0  0  0  0  0
  151.8482  139.5399  156.6076 C   0  0  0  0  0  0  0  0  0  0  0  0
  151.3761  140.9230  156.7529 N   0  0  0  0  0  0  0  0  0  0  0  0
  150.5953  141.6747  155.9303 C   0  0  0  0  0  0  0  0  0  0  0  0
  150.4352  142.8934  156.5172 N   0  3  0  0  0  0  0  0  0  0  0  0
  151.1248  142.9203  157.7318 C   0  0  0  0  0  0  0  0  0  0  0  0
  151.2595  143.9262  158.6831 C   0  0  0  0  0  0  0  0  0  0  0  0
  152.0369  143.6247  159.8210 C   0  0  0  0  0  0  0  0  0  0  0  0
  152.1998  144.5683  160.7783 F   0  0  0  0  0  0  0  0  0  0  0  0
  152.6463  142.3616  159.9802 C   0  0  0  0  0  0  0  0  0  0  0  0
  153.3841  142.1137  161.0883 F   0  0  0  0  0  0  0  0  0  0  0  0
  152.5028  141.3495  159.0084 C   0  0  0  0  0  0  0  0  0  0  0  0
  151.7324  141.6573  157.8883 C   0  0  0  0  0  0  0  0  0  0  0  0
  151.3329  130.4297  155.3117 H   0  0  0  0  0  0  0  0  0  0  0  0
  150.2484  130.4651  153.9273 H   0  0  0  0  0  0  0  0  0  0  0  0
  149.5959  130.3585  155.5810 H   0  0  0  0  0  0  0  0  0  0  0  0
  148.0174  131.1704  154.0611 H   0  0  0  0  0  0  0  0  0  0  0  0
  146.0674  132.4773  153.3680 H   0  0  0  0  0  0  0  0  0  0  0  0
  146.0897  134.9591  153.5215 H   0  0  0  0  0  0  0  0  0  0  0  0
  148.1013  136.1271  154.3817 H   0  0  0  0  0  0  0  0  0  0  0  0
  150.6032  134.7672  156.2793 H   0  0  0  0  0  0  0  0  0  0  0  0
  151.3404  134.8307  154.6930 H   0  0  0  0  0  0  0  0  0  0  0  0
  151.6266  136.9096  156.6562 H   0  0  0  0  0  0  0  0  0  0  0  0
  152.1846  137.0325  154.9908 H   0  0  0  0  0  0  0  0  0  0  0  0
  149.9293  138.8297  155.8893 H   0  0  0  0  0  0  0  0  0  0  0  0
  151.1559  138.4728  153.7224 H   0  0  0  0  0  0  0  0  0  0  0  0
  151.8725  139.0805  157.5967 H   0  0  0  0  0  0  0  0  0  0  0  0
  152.8816  139.5792  156.2601 H   0  0  0  0  0  0  0  0  0  0  0  0
  150.1745  141.3597  154.9861 H   0  0  0  0  0  0  0  0  0  0  0  0
  150.7940  144.8937  158.5657 H   0  0  0  0  0  0  0  0  0  0  0  0
  152.9707  140.3849  159.1397 H   0  0  0  0  0  0  0  0  0  0  0  0
  149.8917  143.6476  156.1168 H   0  0  0  0  0  0  0  0  0  0  0  0
  1  2  1  0  0  0  0
  1 26  1  0  0  0  0
  1 27  1  0  0  0  0
  1 28  1  0  0  0  0
  2  3  1  0  0  0  0
  3  8  1  0  0  0  0
  3  4  2  0  0  0  0
  4  5  1  0  0  0  0
  4 29  1  0  0  0  0
  5  6  2  0  0  0  0
  5 30  1  0  0  0  0
  6  7  1  0  0  0  0
  6 31  1  0  0  0  0
  7  8  2  0  0  0  0
  7 32  1  0  0  0  0
  8  9  1  0  0  0  0
  9 10  1  0  0  0  0
  9 33  1  0  0  0  0
  9 34  1  0  0  0  0
 10 11  1  0  0  0  0
 11 12  1  0  0  0  0
 11 35  1  0  0  0  0
 11 36  1  0  0  0  0
 12 13  1  0  0  0  0
 12 14  1  0  0  0  0
 12 37  1  0  0  0  0
 13 38  1  0  0  0  0
 14 15  1  0  0  0  0
 14 39  1  0  0  0  0
 14 40  1  0  0  0  0
 15 25  1  0  0  0  0
 15 16  1  0  0  0  0
 16 17  2  0  0  0  0
 16 41  1  0  0  0  0
 17 18  1  0  0  0  0
 17 44  1  0  0  0  0
 18 25  2  0  0  0  0
 18 19  1  0  0  0  0
 19 20  2  0  0  0  0
 19 42  1  0  0  0  0
 20 21  1  0  0  0  0
 20 22  1  0  0  0  0
 22 23  1  0  0  0  0
 22 24  2  0  0  0  0
 24 25  1  0  0  0  0
 24 43  1  0  0  0  0
M  CHG  1  17   1
M  END
> <s_m_source_file>
AV-unprocessed.smi

> <i_m_source_file_index>
1012

> <i_lp_mmshare_version>
43012

> <i_f3d_flags>
0

> <s_epik_input>
W0NIM11PYzFbY0hdW2NIXVtjSF1bY0hdYzFbQ0gyXU9bQ0gyXVtDQEhdKFtPSF0pW0NIMl1uKFtjSF1uMiljKGMyMylbY0hdYyhGKWMoRilbY0hdMw==

> <s_epik_cmdline>
J2VwaWtfcHl0aG9uJywgJy1waCcsICc3LjAnLCAnLXRuJywgJzgnLCAnLW1hJywgJzIwMCcsICctbWV0YWxfYmluZGluZycsICctaW1hZScsICc8aW5maWxlLm1hZT4nLCAnLW9tYWUnLCAnPG91dGZpbGUubWFlPic=

> <r_lp_tautomer_probability>
1

> <r_epik_Ionization_Penalty>
2.14697

> <r_epik_Ionization_Penalty_Charging>
2.14697

> <r_epik_Ionization_Penalty_Neutral>
1.07667e-06

> <r_epik_State_Penalty>
2.28651

> <r_epik_Charging_Adjusted_Penalty>
4.43348

> <i_epik_Tot_Q>
1

> <i_epik_Tot_abs_Q>
1

> <r_epik_Metal_State_Penalty>
6.36664

> <b_epik_Metal_Only>
0

> <s_lp_Force_Field>
OPLS_2005

> <r_lp_Energy>
22.239

> <b_lp_Chiralities_Consistent>
1

> <s_lp_Variant>
AV-unprocessed.smi:1012-3

> <Gold.Version>
5.8.1

> <Gold.Id.Protein>
6NUR|6NUR_protein|mol2

> <Gold.PLP.Fitness>
55.6489

> <Gold.PLP.PLP>
-47.7285

> <Gold.PLP.part.hbond>
-2.0000

> <Gold.PLP.part.metal>
0.0000

> <Gold.PLP.part.buried>
-3.4519

> <Gold.PLP.part.nonpolar>
-42.2303

> <Gold.PLP.part.repulsive>
0.2064

> <Gold.PLP.ligand.clash>
0.0000

> <Gold.PLP.ligand.torsion>
0.5852

> <Gold.PLP.Chemscore.Hbond>
3.0000

> <Gold.PLP.Chemscore.CHOScore>
0.0000

> <Gold.PLP.Chemscore.Metal>
0.0000

> <Gold.Chemscore.Hbonds>
donor molecule, donor type, donor heavy atom, donor atom, acceptor molecule, acceptor atom, score
      L1  H    17    44       P1  8028  2.00
      P1  H  7989  7998       L1    13  1.00

> <Gold.PLP.Chemscore.Internal.Correction>
0.0908

> <Gold.Rescore>
     Score         DG    S(hbond)    S(metal)    S(lipo)     H(rot)  DE(clash)    DE(int)     intcor
     16.07     -16.90       1.94        0.00     108.57       3.03       0.21       0.62       ----

> <Gold.Chemscore.Fitness>
16.0680

> <Gold.Chemscore.DG>
-16.8990

> <Gold.Chemscore.ZeroCoef>
-5.4800

> <Gold.Chemscore.Hbond>
1.9363

> <Gold.Chemscore.Metal>
0.0000

> <Gold.Chemscore.Lipo>
108.5724

> <Gold.Chemscore.Internal_Hbond>
0.0000

> <Gold.Chemscore.DEClash>
0.2106

> <Gold.Chemscore.DEInternal>
0.6205

> <Gold.Chemscore.Rot>
3.0278

> <Gold.Chemscore.Internal.Correction>
   9.000000E+99

> <Gold.Chemscore.Hbonds>
donor molecule, donor type, donor heavy atom, donor atom, acceptor molecule, acceptor atom, score
      L1  H    17    44       P1  8028  0.93
      P1  H  7989  7998       L1    13  0.85

> <Gold.Chemscore.Hbond.Weighted>
-6.4672

> <Gold.Chemscore.Metal.Weighted>
-0.0000

> <Gold.Chemscore.Lipo.Weighted>
-12.7030

> <Gold.Chemscore.Internal_Hbond.Weighted>
0.0000

> <Gold.Chemscore.DEClash.Weighted>
0.2106

> <Gold.Chemscore.DEInternal.Weighted>
0.6205

> <Gold.Chemscore.Rot.Weighted>
7.7512

> <Gold.Chemscore.Internal.Correction.Weighted>
   9.000000E+99

> <Gold.Protein.RotatedTorsions>
[ 6907 6896 6895 6894 ] final  -26.21 input  -60.11 | X-H torsion
[ 7974 7965 7964 7962 ] final   85.27 input  175.53 | X-H torsion
[ 8008 7997 7996 7995 ] final -131.93 input   59.86 | X-H torsion
[ 10167 10162 10161 10158 ] final  -30.67 input  -65.29 | X-H torsion
[ 10718 10713 10712 10709 ] final  -96.63 input   66.30 | X-H torsion
[ 10763 10752 10751 10750 ] final  126.17 input  -60.55 | X-H torsion
[ 11005 11000 10999 10996 ] final   66.36 input  -57.11 | X-H torsion

> <Gold.Protein.ActiveResidues>
 VAL166  LYS551  ARG553  GLY616  TRP617  ASP618  TYR619  PRO620  LYS621  CYS622 
 ASP623  PHE694  ASN695  SER759  ASP760  ASP761  ALA762  ILE779  LEU786  VAL792 
 PHE793  MET794  SER795  GLU796  ALA797  LYS798  CYS799  TRP800  GLU811  SER814 

> <Gold.Protein.RotatedAtoms>
  151.1643  135.0288  159.8723 H   0  0  0  0  0  0  0  0  0  0  0  0  # atno 6907 bound_to 6896
  152.5450  134.1244  159.8422 H   0  0  0  0  0  0  0  0  0  0  0  0  # atno 6908 bound_to 6896
  151.1342  133.4969  159.2631 H   0  0  0  0  0  0  0  0  0  0  0  0  # atno 6909 bound_to 6896
  145.5877  139.2333  143.2317 H   0  0  0  0  0  0  0  0  0  0  0  0  # atno 7974 bound_to 7965
  155.3205  140.0462  157.3039 H   0  0  0  0  0  0  0  0  0  0  0  0  # atno 8008 bound_to 7997
  154.5383  140.2279  155.8651 H   0  0  0  0  0  0  0  0  0  0  0  0  # atno 8009 bound_to 7997
  156.1856  140.3063  155.9239 H   0  0  0  0  0  0  0  0  0  0  0  0  # atno 8010 bound_to 7997
  140.7246  143.3831  151.1565 H   0  0  0  0  0  0  0  0  0  0  0  0  # atno 10167 bound_to 10162
  156.0066  130.5159  150.6254 H   0  0  0  0  0  0  0  0  0  0  0  0  # atno 10718 bound_to 10713
  153.6891  135.3302  155.3197 H   0  0  0  0  0  0  0  0  0  0  0  0  # atno 10763 bound_to 10752
  154.8445  135.4427  154.1527 H   0  0  0  0  0  0  0  0  0  0  0  0  # atno 10764 bound_to 10752
  153.2564  135.6986  153.7702 H   0  0  0  0  0  0  0  0  0  0  0  0  # atno 10765 bound_to 10752
  139.9837  134.6703  156.0216 H   0  0  0  0  0  0  0  0  0  0  0  0  # atno 11005 bound_to 11000
  146.1670  140.6704  142.9251 LP  0  0  0  0  0  0  0  0  0  0  0  0  # atno 17320 bound_to 7965
  144.7365  140.4823  143.6900 LP  0  0  0  0  0  0  0  0  0  0  0  0  # atno 17321 bound_to 7965
  139.7423  143.8905  152.3053 LP  0  0  0  0  0  0  0  0  0  0  0  0  # atno 17342 bound_to 10162
  139.8731  144.7058  150.8965 LP  0  0  0  0  0  0  0  0  0  0  0  0  # atno 17343 bound_to 10162
  157.4062  131.0817  151.1263 LP  0  0  0  0  0  0  0  0  0  0  0  0  # atno 17370 bound_to 10713
  157.1909  130.6351  149.5704 LP  0  0  0  0  0  0  0  0  0  0  0  0  # atno 17371 bound_to 10713
  141.1505  133.6549  156.3999 LP  0  0  0  0  0  0  0  0  0  0  0  0  # atno 17394 bound_to 11000
  140.5046  134.6453  157.5261 LP  0  0  0  0  0  0  0  0  0  0  0  0  # atno 17395 bound_to 11000

$$$$
