AV-unprocessed.smi:1191|AV-procd|sdf|4987|dock6
  -GOLD-   22720 3583D 1   1.00000     0.00000
 Structure written by MMmdl.
 47 48  0  0  0  0  0  0  0  0  2 V2000
  152.7533  141.3163  156.7645 C   0  0  0  0  0  0  0  0  0  0  0  0
  151.7085  140.8142  155.8119 C   0  0  0  0  0  0  0  0  0  0  0  0
  150.3850  141.2988  155.6183 C   0  0  0  0  0  0  0  0  0  0  0  0
  149.8678  140.4902  154.6458 C   0  0  0  0  0  0  0  0  0  0  0  0
  148.5144  140.4929  154.0136 C   0  0  0  0  0  0  0  0  0  0  0  0
  150.8602  139.5871  154.3048 N   0  0  0  0  0  0  0  0  0  0  0  0
  150.8293  138.5104  153.3266 C   0  0  0  0  0  0  0  0  0  0  0  0
  151.3007  137.1901  153.9396 C   0  0  0  0  0  0  0  0  0  0  0  0
  152.3794  137.1312  154.5305 O   0  0  0  0  0  0  0  0  0  0  0  0
  150.4769  136.1388  153.8079 N   0  0  0  0  0  0  0  0  0  0  0  0
  150.7267  134.8143  154.3624 C   0  0  0  0  0  0  0  0  0  0  0  0
  150.0247  133.7214  153.5333 C   0  0  0  0  0  0  0  0  0  0  0  0
  148.6150  134.0649  153.2201 N   0  3  2  0  0  0  0  0  0  0  0  0
  147.8617  134.4903  154.4280 C   0  0  0  0  0  0  0  0  0  0  0  0
  146.4488  134.9692  154.0596 C   0  0  0  0  0  0  0  0  0  0  0  0
  145.6824  133.8814  153.2971 C   0  0  0  0  0  0  0  0  0  0  0  0
  146.4843  133.4279  152.0659 C   0  0  2  0  0  0  0  0  0  0  0  0
  145.7521  132.3173  151.2995 C   0  0  0  0  0  0  0  0  0  0  0  0
  147.9015  132.9858  152.4842 C   0  0  0  0  0  0  0  0  0  0  0  0
  151.9870  139.7912  155.0213 N   0  0  0  0  0  0  0  0  0  0  0  0
  152.3655  142.1243  157.3849 H   0  0  0  0  0  0  0  0  0  0  0  0
  153.6227  141.6974  156.2285 H   0  0  0  0  0  0  0  0  0  0  0  0
  153.0925  140.5219  157.4298 H   0  0  0  0  0  0  0  0  0  0  0  0
  149.8896  142.1169  156.1198 H   0  0  0  0  0  0  0  0  0  0  0  0
  147.9476  141.3744  154.3137 H   0  0  0  0  0  0  0  0  0  0  0  0
  147.9457  139.6122  154.3123 H   0  0  0  0  0  0  0  0  0  0  0  0
  148.5886  140.4989  152.9262 H   0  0  0  0  0  0  0  0  0  0  0  0
  149.8158  138.4198  152.9335 H   0  0  0  0  0  0  0  0  0  0  0  0
  151.4732  138.7650  152.4832 H   0  0  0  0  0  0  0  0  0  0  0  0
  149.6138  136.2706  153.3002 H   0  0  0  0  0  0  0  0  0  0  0  0
  151.8038  134.6447  154.3652 H   0  0  0  0  0  0  0  0  0  0  0  0
  150.4077  134.7969  155.4050 H   0  0  0  0  0  0  0  0  0  0  0  0
  150.5646  133.5192  152.6068 H   0  0  0  0  0  0  0  0  0  0  0  0
  150.0521  132.7958  154.1104 H   0  0  0  0  0  0  0  0  0  0  0  0
  147.8066  133.6613  155.1355 H   0  0  0  0  0  0  0  0  0  0  0  0
  148.3924  135.3012  154.9286 H   0  0  0  0  0  0  0  0  0  0  0  0
  145.9024  135.2472  154.9614 H   0  0  0  0  0  0  0  0  0  0  0  0
  146.5147  135.8699  153.4478 H   0  0  0  0  0  0  0  0  0  0  0  0
  145.4985  133.0318  153.9566 H   0  0  0  0  0  0  0  0  0  0  0  0
  144.7049  134.2590  152.9952 H   0  0  0  0  0  0  0  0  0  0  0  0
  146.5820  134.2810  151.3927 H   0  0  0  0  0  0  0  0  0  0  0  0
  145.6191  131.4292  151.9185 H   0  0  0  0  0  0  0  0  0  0  0  0
  146.3072  132.0222  150.4087 H   0  0  0  0  0  0  0  0  0  0  0  0
  144.7646  132.6482  150.9765 H   0  0  0  0  0  0  0  0  0  0  0  0
  148.4623  132.7078  151.5924 H   0  0  0  0  0  0  0  0  0  0  0  0
  147.8486  132.0938  153.1108 H   0  0  0  0  0  0  0  0  0  0  0  0
  148.6444  134.8697  152.6106 H   0  0  0  0  0  0  0  0  0  0  0  0
  1  2  1  0  0  0  0
  1 21  1  0  0  0  0
  1 22  1  0  0  0  0
  1 23  1  0  0  0  0
  2 20  2  0  0  0  0
  2  3  1  0  0  0  0
  3  4  2  0  0  0  0
  3 24  1  0  0  0  0
  4  5  1  0  0  0  0
  4  6  1  0  0  0  0
  5 25  1  0  0  0  0
  5 26  1  0  0  0  0
  5 27  1  0  0  0  0
  6  7  1  0  0  0  0
  6 20  1  0  0  0  0
  7  8  1  0  0  0  0
  7 28  1  0  0  0  0
  7 29  1  0  0  0  0
  8  9  2  0  0  0  0
  8 10  1  0  0  0  0
 10 11  1  0  0  0  0
 10 30  1  0  0  0  0
 11 12  1  0  0  0  0
 11 31  1  0  0  0  0
 11 32  1  0  0  0  0
 12 13  1  0  0  0  0
 12 33  1  0  0  0  0
 12 34  1  0  0  0  0
 13 19  1  0  0  0  0
 13 14  1  0  0  0  0
 13 47  1  0  0  0  0
 14 15  1  0  0  0  0
 14 35  1  0  0  0  0
 14 36  1  0  0  0  0
 15 16  1  0  0  0  0
 15 37  1  0  0  0  0
 15 38  1  0  0  0  0
 16 17  1  0  0  0  0
 16 39  1  0  0  0  0
 16 40  1  0  0  0  0
 17 18  1  0  0  0  0
 17 19  1  0  0  0  0
 17 41  1  0  0  0  0
 18 42  1  0  0  0  0
 18 43  1  0  0  0  0
 18 44  1  0  0  0  0
 19 45  1  0  0  0  0
 19 46  1  0  0  0  0
M  CHG  1  13   1
M  END
> <s_m_source_file>
AV-unprocessed.smi

> <i_m_source_file_index>
1191

> <i_lp_mmshare_version>
43012

> <i_f3d_flags>
0

> <s_epik_input>
W0NIM11jMVtjSF1jKFtDSDNdKW4objEpW0NIMl1DKD1PKVtOSF1bQ0gyXVtDSDJdTjJbQ0gyXVtDSDJdW0NIMl1bQ0BASF0oW0NIM10pW0NIMl0y

> <s_epik_cmdline>
J2VwaWtfcHl0aG9uJywgJy1waCcsICc3LjAnLCAnLXRuJywgJzgnLCAnLW1hJywgJzIwMCcsICctbWV0YWxfYmluZGluZycsICctaW1hZScsICc8aW5maWxlLm1hZT4nLCAnLW9tYWUnLCAnPG91dGZpbGUubWFlPic=

> <r_lp_tautomer_probability>
1

> <r_epik_Ionization_Penalty>
0.00249932

> <r_epik_Ionization_Penalty_Charging>
0.00230623

> <r_epik_Ionization_Penalty_Neutral>
0.000193092

> <r_epik_State_Penalty>
-0

> <r_epik_Charging_Adjusted_Penalty>
0.00230623

> <i_epik_Tot_Q>
1

> <i_epik_Tot_abs_Q>
1

> <r_epik_Metal_State_Penalty>
-0

> <b_epik_Metal_Only>
0

> <s_lp_Force_Field>
OPLS_2005

> <r_lp_Energy>
14.4812

> <b_lp_Chiralities_Consistent>
1

> <s_lp_Variant>
AV-unprocessed.smi:1191-4

> <Gold.Version>
5.8.1

> <Gold.Id.Protein>
6NUR|6NUR_protein|mol2

> <Gold.PLP.Fitness>
48.5763

> <Gold.PLP.PLP>
-37.3394

> <Gold.PLP.part.hbond>
-3.5161

> <Gold.PLP.part.metal>
0.0000

> <Gold.PLP.part.buried>
-2.9194

> <Gold.PLP.part.nonpolar>
-30.4462

> <Gold.PLP.part.repulsive>
0.0987

> <Gold.PLP.ligand.clash>
0.0000

> <Gold.PLP.ligand.torsion>
0.3844

> <Gold.PLP.Chemscore.Hbond>
3.9920

> <Gold.PLP.Chemscore.CHOScore>
0.0000

> <Gold.PLP.Chemscore.Metal>
0.0000

> <Gold.Chemscore.Hbonds>
donor molecule, donor type, donor heavy atom, donor atom, acceptor molecule, acceptor atom, score
      L1  H    10    30       P1  7948  0.83
      L1  H    13    47       P1  7948  1.70
      P1  H 10752 10764       L1     9  0.43

> <Gold.PLP.Chemscore.Internal.Correction>
0.0297

> <Gold.Rescore>
     Score         DG    S(hbond)    S(metal)    S(lipo)     H(rot)  DE(clash)    DE(int)     intcor
     16.26     -17.88       2.49        0.00      71.30       1.67       0.05       1.57       ----

> <Gold.Chemscore.Fitness>
16.2630

> <Gold.Chemscore.DG>
-17.8841

> <Gold.Chemscore.ZeroCoef>
-5.4800

> <Gold.Chemscore.Hbond>
2.4927

> <Gold.Chemscore.Metal>
0.0000

> <Gold.Chemscore.Lipo>
71.3035

> <Gold.Chemscore.Internal_Hbond>
0.0000

> <Gold.Chemscore.DEClash>
0.0549

> <Gold.Chemscore.DEInternal>
1.5662

> <Gold.Chemscore.Rot>
1.6657

> <Gold.Chemscore.Internal.Correction>
   9.000000E+99

> <Gold.Chemscore.Hbonds>
donor molecule, donor type, donor heavy atom, donor atom, acceptor molecule, acceptor atom, score
      L1  H    10    30       P1  7948  0.24
      L1  H    13    47       P1  7948  0.14
      P1  H 10752 10764       L1     9  0.42

> <Gold.Chemscore.Hbond.Weighted>
-8.3256

> <Gold.Chemscore.Metal.Weighted>
-0.0000

> <Gold.Chemscore.Lipo.Weighted>
-8.3425

> <Gold.Chemscore.Internal_Hbond.Weighted>
0.0000

> <Gold.Chemscore.DEClash.Weighted>
0.0549

> <Gold.Chemscore.DEInternal.Weighted>
1.5662

> <Gold.Chemscore.Rot.Weighted>
4.2641

> <Gold.Chemscore.Internal.Correction.Weighted>
   9.000000E+99

> <Gold.Protein.RotatedTorsions>
[ 6907 6896 6895 6894 ] final    6.75 input  -60.11 | X-H torsion
[ 7974 7965 7964 7962 ] final -104.27 input  175.53 | X-H torsion
[ 8008 7997 7996 7995 ] final  107.62 input   59.86 | X-H torsion
[ 10167 10162 10161 10158 ] final   65.26 input  -65.29 | X-H torsion
[ 10718 10713 10712 10709 ] final -161.87 input   66.30 | X-H torsion
[ 10763 10752 10751 10750 ] final  -42.43 input  -60.55 | X-H torsion
[ 11005 11000 10999 10996 ] final  -12.30 input  -57.11 | X-H torsion

> <Gold.Protein.ActiveResidues>
 VAL166  LYS551  ARG553  GLY616  TRP617  ASP618  TYR619  PRO620  LYS621  CYS622 
 ASP623  PHE694  ASN695  SER759  ASP760  ASP761  ALA762  ILE779  LEU786  VAL792 
 PHE793  MET794  SER795  GLU796  ALA797  LYS798  CYS799  TRP800  GLU811  SER814 

> <Gold.Protein.RotatedAtoms>
  151.6787  135.0965  160.0211 H   0  0  0  0  0  0  0  0  0  0  0  0  # atno 6907 bound_to 6896
  152.3848  133.6592  159.6199 H   0  0  0  0  0  0  0  0  0  0  0  0  # atno 6908 bound_to 6896
  150.7776  133.8969  159.3371 H   0  0  0  0  0  0  0  0  0  0  0  0  # atno 6909 bound_to 6896
  145.2452  140.9219  143.3127 H   0  0  0  0  0  0  0  0  0  0  0  0  # atno 7974 bound_to 7965
  156.1838  140.3091  155.9200 H   0  0  0  0  0  0  0  0  0  0  0  0  # atno 8008 bound_to 7997
  155.3325  140.0461  157.3060 H   0  0  0  0  0  0  0  0  0  0  0  0  # atno 8009 bound_to 7997
  154.5373  140.2250  155.8711 H   0  0  0  0  0  0  0  0  0  0  0  0  # atno 8010 bound_to 7997
  140.1133  144.4798  150.6965 H   0  0  0  0  0  0  0  0  0  0  0  0  # atno 10167 bound_to 10162
  156.6023  130.8816  151.2917 H   0  0  0  0  0  0  0  0  0  0  0  0  # atno 10718 bound_to 10713
  153.9788  135.6719  153.4749 H   0  0  0  0  0  0  0  0  0  0  0  0  # atno 10763 bound_to 10752
  153.0758  135.4949  154.8397 H   0  0  0  0  0  0  0  0  0  0  0  0  # atno 10764 bound_to 10752
  154.7176  135.3110  154.9060 H   0  0  0  0  0  0  0  0  0  0  0  0  # atno 10765 bound_to 10752
  140.7643  133.8489  155.9152 H   0  0  0  0  0  0  0  0  0  0  0  0  # atno 11005 bound_to 11000
  144.9552  139.4039  143.6382 LP  0  0  0  0  0  0  0  0  0  0  0  0  # atno 17320 bound_to 7965
  146.3317  139.8579  142.8861 LP  0  0  0  0  0  0  0  0  0  0  0  0  # atno 17321 bound_to 7965
  140.6913  143.2378  151.5122 LP  0  0  0  0  0  0  0  0  0  0  0  0  # atno 17342 bound_to 10162
  139.5608  144.2162  152.1687 LP  0  0  0  0  0  0  0  0  0  0  0  0  # atno 17343 bound_to 10162
  157.7276  130.9645  150.1706 LP  0  0  0  0  0  0  0  0  0  0  0  0  # atno 17370 bound_to 10713
  156.2458  130.3695  149.8286 LP  0  0  0  0  0  0  0  0  0  0  0  0  # atno 17371 bound_to 10713
  140.9633  134.1626  157.4636 LP  0  0  0  0  0  0  0  0  0  0  0  0  # atno 17394 bound_to 11000
  139.8765  134.9953  156.5735 LP  0  0  0  0  0  0  0  0  0  0  0  0  # atno 17395 bound_to 11000

$$$$
