AV-unprocessed.smi:2356|AV-procd|sdf|9393|dock4
  -GOLD-   2272013 23D 1   1.00000     0.00000
 Structure written by MMmdl.
 53 56  0  0  0  0  0  0  0  0  1 V2000
  152.5525  139.0466  154.5115 C   0  0  0  0  0  0  0  0  0  0  0  0
  152.0744  139.1317  155.9512 C   0  0  0  0  0  0  0  0  0  0  0  0
  152.4557  140.2402  156.6214 N   0  0  0  0  0  0  0  0  0  0  0  0
  152.0817  140.3941  157.9128 C   0  0  0  0  0  0  0  0  0  0  0  0
  152.5055  141.5663  158.5703 N   0  0  0  0  0  0  0  0  0  0  0  0
  151.7988  142.8292  158.4312 C   0  0  0  0  0  0  0  0  0  0  0  0
  152.4842  143.7706  159.4211 C   0  0  0  0  0  0  0  0  0  0  0  0
  152.9256  142.8326  160.5439 C   0  0  0  0  0  0  0  0  0  0  0  0
  153.2478  141.5184  159.8241 C   0  0  0  0  0  0  0  0  0  0  0  0
  151.2924  139.4256  158.5753 C   0  0  0  0  0  0  0  0  0  0  0  0
  150.8953  138.2689  157.8784 C   0  0  0  0  0  0  0  0  0  0  0  0
  151.2881  138.1070  156.5287 C   0  0  0  0  0  0  0  0  0  0  0  0
  150.9670  136.9731  155.7307 N   0  0  0  0  0  0  0  0  0  0  0  0
  149.8515  136.2186  155.6977 C   0  0  0  0  0  0  0  0  0  0  0  0
  148.8323  136.4353  156.3485 O   0  0  0  0  0  0  0  0  0  0  0  0
  149.9257  135.1758  154.8499 N   0  0  0  0  0  0  0  0  0  0  0  0
  148.9056  134.1621  154.5679 C   0  0  2  0  0  0  0  0  0  0  0  0
  148.7296  133.2169  155.7677 C   0  0  0  0  0  0  0  0  0  0  0  0
  147.7633  132.0742  155.4227 C   0  0  0  0  0  0  0  0  0  0  0  0
  148.2172  131.3694  154.2694 O   0  0  0  0  0  0  0  0  0  0  0  0
  148.3515  132.1601  153.0876 C   0  0  1  0  0  0  0  0  0  0  0  0
  146.9961  132.5830  152.5355 C   0  0  0  0  0  0  0  0  0  0  0  0
  146.9005  133.6619  151.4833 C   0  0  0  0  0  0  0  0  0  0  0  0
  146.4006  133.9270  152.8837 C   0  0  0  0  0  0  0  0  0  0  0  0
  149.3122  133.3409  153.3347 C   0  0  0  0  0  0  0  0  0  0  0  0
  151.7028  138.9695  153.8325 H   0  0  0  0  0  0  0  0  0  0  0  0
  153.1855  138.1695  154.3732 H   0  0  0  0  0  0  0  0  0  0  0  0
  153.1302  139.9273  154.2279 H   0  0  0  0  0  0  0  0  0  0  0  0
  151.8537  143.2123  157.4118 H   0  0  0  0  0  0  0  0  0  0  0  0
  150.7498  142.6896  158.6959 H   0  0  0  0  0  0  0  0  0  0  0  0
  153.3607  144.2230  158.9552 H   0  0  0  0  0  0  0  0  0  0  0  0
  151.8321  144.5734  159.7660 H   0  0  0  0  0  0  0  0  0  0  0  0
  153.7692  143.2194  161.1161 H   0  0  0  0  0  0  0  0  0  0  0  0
  152.0953  142.6771  161.2341 H   0  0  0  0  0  0  0  0  0  0  0  0
  152.9747  140.6603  160.4397 H   0  0  0  0  0  0  0  0  0  0  0  0
  154.3125  141.4522  159.5978 H   0  0  0  0  0  0  0  0  0  0  0  0
  150.9898  139.5471  159.6045 H   0  0  0  0  0  0  0  0  0  0  0  0
  150.3091  137.5329  158.4040 H   0  0  0  0  0  0  0  0  0  0  0  0
  151.6926  136.6912  155.0882 H   0  0  0  0  0  0  0  0  0  0  0  0
  150.7902  135.0789  154.3369 H   0  0  0  0  0  0  0  0  0  0  0  0
  147.9542  134.6480  154.3479 H   0  0  0  0  0  0  0  0  0  0  0  0
  149.6950  132.7958  156.0520 H   0  0  0  0  0  0  0  0  0  0  0  0
  148.3603  133.7629  156.6362 H   0  0  0  0  0  0  0  0  0  0  0  0
  147.7069  131.3731  156.2555 H   0  0  0  0  0  0  0  0  0  0  0  0
  146.7527  132.4533  155.2700 H   0  0  0  0  0  0  0  0  0  0  0  0
  148.8121  131.5106  152.3422 H   0  0  0  0  0  0  0  0  0  0  0  0
  146.2801  131.7709  152.4298 H   0  0  0  0  0  0  0  0  0  0  0  0
  147.8214  134.1543  151.1772 H   0  0  0  0  0  0  0  0  0  0  0  0
  146.1581  133.5316  150.6987 H   0  0  0  0  0  0  0  0  0  0  0  0
  145.3238  133.9754  153.0325 H   0  0  0  0  0  0  0  0  0  0  0  0
  146.9882  134.5974  153.5078 H   0  0  0  0  0  0  0  0  0  0  0  0
  149.3605  133.9784  152.4509 H   0  0  0  0  0  0  0  0  0  0  0  0
  150.3185  132.9454  153.4817 H   0  0  0  0  0  0  0  0  0  0  0  0
  1  2  1  0  0  0  0
  1 26  1  0  0  0  0
  1 27  1  0  0  0  0
  1 28  1  0  0  0  0
  2 12  1  0  0  0  0
  2  3  2  0  0  0  0
  3  4  1  0  0  0  0
  4  5  1  0  0  0  0
  4 10  2  0  0  0  0
  5  9  1  0  0  0  0
  5  6  1  0  0  0  0
  6  7  1  0  0  0  0
  6 29  1  0  0  0  0
  6 30  1  0  0  0  0
  7  8  1  0  0  0  0
  7 31  1  0  0  0  0
  7 32  1  0  0  0  0
  8  9  1  0  0  0  0
  8 33  1  0  0  0  0
  8 34  1  0  0  0  0
  9 35  1  0  0  0  0
  9 36  1  0  0  0  0
 10 11  1  0  0  0  0
 10 37  1  0  0  0  0
 11 12  2  0  0  0  0
 11 38  1  0  0  0  0
 12 13  1  0  0  0  0
 13 14  1  0  0  0  0
 13 39  1  0  0  0  0
 14 15  2  0  0  0  0
 14 16  1  0  0  0  0
 16 17  1  0  0  0  0
 16 40  1  0  0  0  0
 17 25  1  0  0  0  0
 17 18  1  0  0  0  0
 17 41  1  0  0  0  0
 18 19  1  0  0  0  0
 18 42  1  0  0  0  0
 18 43  1  0  0  0  0
 19 20  1  0  0  0  0
 19 44  1  0  0  0  0
 19 45  1  0  0  0  0
 20 21  1  0  0  0  0
 21 22  1  0  0  0  0
 21 25  1  0  0  0  0
 21 46  1  0  0  0  0
 22 24  1  0  0  0  0
 22 23  1  0  0  0  0
 22 47  1  0  0  0  0
 23 24  1  0  0  0  0
 23 48  1  0  0  0  0
 23 49  1  0  0  0  0
 24 50  1  0  0  0  0
 24 51  1  0  0  0  0
 25 52  1  0  0  0  0
 25 53  1  0  0  0  0
M  END
> <s_m_source_file>
AV-unprocessed.smi

> <i_m_source_file_index>
2356

> <i_lp_mmshare_version>
43012

> <i_f3d_flags>
0

> <s_epik_input>
W0NIMl0xW0NIMl1bQ0gyXVtDSDJdTjFjKG5jMltDSDNdKVtjSF1bY0hdYzJbTkhdQyg9TylbTkhdW0NAQEhdM1tDSDJdW0NIMl1PW0NASF0oW0NIMl0zKVtDSF00W0NIMl1bQ0gyXTQ=

> <s_epik_cmdline>
J2VwaWtfcHl0aG9uJywgJy1waCcsICc3LjAnLCAnLXRuJywgJzgnLCAnLW1hJywgJzIwMCcsICctbWV0YWxfYmluZGluZycsICctaW1hZScsICc8aW5maWxlLm1hZT4nLCAnLW9tYWUnLCAnPG91dGZpbGUubWFlPic=

> <r_lp_tautomer_probability>
1

> <r_epik_Ionization_Penalty>
0.308781

> <r_epik_Ionization_Penalty_Charging>
0

> <r_epik_Ionization_Penalty_Neutral>
0.308781

> <r_epik_State_Penalty>
0.302092

> <r_epik_Charging_Adjusted_Penalty>
0.302092

> <i_epik_Tot_Q>
0

> <i_epik_Tot_abs_Q>
0

> <r_epik_Metal_State_Penalty>
0.197467

> <b_epik_Metal_Only>
0

> <s_lp_Force_Field>
OPLS_2005

> <r_lp_Energy>
55.4092

> <b_lp_Chiralities_Consistent>
1

> <s_lp_Variant>
AV-unprocessed.smi:2356-1

> <Gold.Version>
5.8.1

> <Gold.Id.Protein>
6NUR|6NUR_protein|mol2

> <Gold.PLP.Fitness>
41.6651

> <Gold.PLP.PLP>
-41.7540

> <Gold.PLP.part.hbond>
-1.0000

> <Gold.PLP.part.metal>
0.0000

> <Gold.PLP.part.buried>
-3.7001

> <Gold.PLP.part.nonpolar>
-35.0258

> <Gold.PLP.part.repulsive>
0.1796

> <Gold.PLP.ligand.clash>
0.0000

> <Gold.PLP.ligand.torsion>
2.1680

> <Gold.PLP.Chemscore.Hbond>
1.0000

> <Gold.PLP.Chemscore.CHOScore>
0.0000

> <Gold.PLP.Chemscore.Metal>
0.0000

> <Gold.Chemscore.Hbonds>
donor molecule, donor type, donor heavy atom, donor atom, acceptor molecule, acceptor atom, score
      P1  H  7997  8009       L1     3  0.99

> <Gold.PLP.Chemscore.Internal.Correction>
1.2471

> <Gold.Rescore>
     Score         DG    S(hbond)    S(metal)    S(lipo)     H(rot)  DE(clash)    DE(int)     intcor
     14.73     -17.88       0.75        0.00     109.51       1.14       0.05       3.10       ----

> <Gold.Chemscore.Fitness>
14.7253

> <Gold.Chemscore.DG>
-17.8796

> <Gold.Chemscore.ZeroCoef>
-5.4800

> <Gold.Chemscore.Hbond>
0.7498

> <Gold.Chemscore.Metal>
0.0000

> <Gold.Chemscore.Lipo>
109.5062

> <Gold.Chemscore.Internal_Hbond>
0.0000

> <Gold.Chemscore.DEClash>
0.0536

> <Gold.Chemscore.DEInternal>
3.1006

> <Gold.Chemscore.Rot>
1.1395

> <Gold.Chemscore.Internal.Correction>
   9.000000E+99

> <Gold.Chemscore.Hbonds>
donor molecule, donor type, donor heavy atom, donor atom, acceptor molecule, acceptor atom, score
      P1  H  7997  8009       L1     3  0.22

> <Gold.Chemscore.Hbond.Weighted>
-2.5045

> <Gold.Chemscore.Metal.Weighted>
-0.0000

> <Gold.Chemscore.Lipo.Weighted>
-12.8122

> <Gold.Chemscore.Internal_Hbond.Weighted>
0.0000

> <Gold.Chemscore.DEClash.Weighted>
0.0536

> <Gold.Chemscore.DEInternal.Weighted>
3.1006

> <Gold.Chemscore.Rot.Weighted>
2.9171

> <Gold.Chemscore.Internal.Correction.Weighted>
   9.000000E+99

> <Gold.Protein.RotatedTorsions>
[ 6907 6896 6895 6894 ] final   13.83 input  -60.11 | X-H torsion
[ 7974 7965 7964 7962 ] final -150.67 input  175.53 | X-H torsion
[ 8008 7997 7996 7995 ] final -179.09 input   59.86 | X-H torsion
[ 10167 10162 10161 10158 ] final   93.75 input  -65.29 | X-H torsion
[ 10718 10713 10712 10709 ] final  -70.63 input   66.30 | X-H torsion
[ 10763 10752 10751 10750 ] final -163.73 input  -60.55 | X-H torsion
[ 11005 11000 10999 10996 ] final   -7.08 input  -57.11 | X-H torsion

> <Gold.Protein.ActiveResidues>
 VAL166  LYS551  ARG553  GLY616  TRP617  ASP618  TYR619  PRO620  LYS621  CYS622 
 ASP623  PHE694  ASN695  SER759  ASP760  ASP761  ALA762  ILE779  LEU786  VAL792 
 PHE793  MET794  SER795  GLU796  ALA797  LYS798  CYS799  TRP800  GLU811  SER814 

> <Gold.Protein.RotatedAtoms>
  151.7925  135.0732  160.0388 H   0  0  0  0  0  0  0  0  0  0  0  0  # atno 6907 bound_to 6896
  152.3146  133.5785  159.5712 H   0  0  0  0  0  0  0  0  0  0  0  0  # atno 6908 bound_to 6896
  150.7337  134.0017  159.3682 H   0  0  0  0  0  0  0  0  0  0  0  0  # atno 6909 bound_to 6896
  144.7894  140.4901  143.5783 H   0  0  0  0  0  0  0  0  0  0  0  0  # atno 7974 bound_to 7965
  156.0264  140.1272  157.0304 H   0  0  0  0  0  0  0  0  0  0  0  0  # atno 8008 bound_to 7997
  154.4332  140.1058  156.6107 H   0  0  0  0  0  0  0  0  0  0  0  0  # atno 8009 bound_to 7997
  155.5870  140.3469  155.4558 H   0  0  0  0  0  0  0  0  0  0  0  0  # atno 8010 bound_to 7997
  139.8149  144.6757  150.9592 H   0  0  0  0  0  0  0  0  0  0  0  0  # atno 10167 bound_to 10162
  156.0399  130.4335  150.2324 H   0  0  0  0  0  0  0  0  0  0  0  0  # atno 10718 bound_to 10713
  154.7095  135.3003  154.9219 H   0  0  0  0  0  0  0  0  0  0  0  0  # atno 10763 bound_to 10752
  154.0126  135.6693  153.4770 H   0  0  0  0  0  0  0  0  0  0  0  0  # atno 10764 bound_to 10752
  153.0743  135.5043  154.8285 H   0  0  0  0  0  0  0  0  0  0  0  0  # atno 10765 bound_to 10752
  140.7089  133.8926  155.8736 H   0  0  0  0  0  0  0  0  0  0  0  0  # atno 11005 bound_to 11000
  145.5834  139.1490  143.3222 LP  0  0  0  0  0  0  0  0  0  0  0  0  # atno 17320 bound_to 7965
  146.2140  140.5963  142.9047 LP  0  0  0  0  0  0  0  0  0  0  0  0  # atno 17321 bound_to 7965
  140.7816  143.4148  151.0935 LP  0  0  0  0  0  0  0  0  0  0  0  0  # atno 17342 bound_to 10162
  139.7812  143.8352  152.3138 LP  0  0  0  0  0  0  0  0  0  0  0  0  # atno 17343 bound_to 10162
  157.0420  131.0038  151.3280 LP  0  0  0  0  0  0  0  0  0  0  0  0  # atno 17370 bound_to 10713
  157.5202  130.7993  149.7801 LP  0  0  0  0  0  0  0  0  0  0  0  0  # atno 17371 bound_to 10713
  141.0101  134.1032  157.4230 LP  0  0  0  0  0  0  0  0  0  0  0  0  # atno 17394 bound_to 11000
  139.8877  135.0092  156.6575 LP  0  0  0  0  0  0  0  0  0  0  0  0  # atno 17395 bound_to 11000

$$$$
