AV-unprocessed.smi:1244|AV-procd|sdf|5230|dock5
  -GOLD-   22720 4333D 1   1.00000     0.00000
 Structure written by MMmdl.
 55 57  0  0  0  0  0  0  0  0  2 V2000
  148.4733  141.7641  153.9096 C   0  0  0  0  0  0  0  0  0  0  0  0
  148.6449  140.8160  155.1092 C   0  0  1  0  0  0  0  0  0  0  0  0
  149.3552  139.4981  154.7415 C   0  0  0  0  0  0  0  0  0  0  0  0
  150.7779  139.6900  154.4932 N   0  0  0  0  0  0  0  0  0  0  0  0
  151.4320  138.4426  154.0940 C   0  0  0  0  0  0  0  0  0  0  0  0
  151.0949  137.2205  154.9752 C   0  0  0  0  0  0  0  0  0  0  0  0
  149.9283  136.5037  154.4716 N   0  0  0  0  0  0  0  0  0  0  0  0
  148.9417  136.0115  155.2316 C   0  0  0  0  0  0  0  0  0  0  0  0
  148.9904  135.9279  156.4589 O   0  0  0  0  0  0  0  0  0  0  0  0
  147.8815  135.6729  154.4840 N   0  0  0  0  0  0  0  0  0  0  0  0
  146.5868  135.3790  154.9783 C   0  0  0  0  0  0  0  0  0  0  0  0
  146.0524  136.1493  156.0395 C   0  0  0  0  0  0  0  0  0  0  0  0
  144.7639  135.8655  156.5289 C   0  0  0  0  0  0  0  0  0  0  0  0
  144.0344  134.8142  155.9469 C   0  0  0  0  0  0  0  0  0  0  0  0
  144.5781  134.0967  154.9411 N   0  3  0  0  0  0  0  0  0  0  0  0
  145.8163  134.3126  154.4303 C   0  0  0  0  0  0  0  0  0  0  0  0
  146.2506  133.4901  153.3630 N   0  0  0  0  0  0  0  0  0  0  0  0
  145.8583  132.0854  153.3322 C   0  0  0  0  0  0  0  0  0  0  0  0
  146.0696  131.6253  151.8903 C   0  0  0  0  0  0  0  0  0  0  0  0
  145.8271  132.8946  151.0835 C   0  0  0  0  0  0  0  0  0  0  0  0
  146.3517  134.0043  151.9966 C   0  0  0  0  0  0  0  0  0  0  0  0
  151.3902  140.3046  155.6650 C   0  0  0  0  0  0  0  0  0  0  0  0
  150.7240  141.6490  156.0106 C   0  0  2  0  0  0  0  0  0  0  0  0
  151.2925  142.2621  157.2948 C   0  0  0  0  0  0  0  0  0  0  0  0
  149.3222  141.4544  156.1940 O   0  0  0  0  0  0  0  0  0  0  0  0
  147.8554  141.3055  153.1373 H   0  0  0  0  0  0  0  0  0  0  0  0
  149.4286  142.0172  153.4511 H   0  0  0  0  0  0  0  0  0  0  0  0
  147.9904  142.6932  154.2121 H   0  0  0  0  0  0  0  0  0  0  0  0
  147.6457  140.5716  155.4706 H   0  0  0  0  0  0  0  0  0  0  0  0
  149.2220  138.7813  155.5537 H   0  0  0  0  0  0  0  0  0  0  0  0
  148.8772  139.0607  153.8639 H   0  0  0  0  0  0  0  0  0  0  0  0
  151.2053  138.2177  153.0509 H   0  0  0  0  0  0  0  0  0  0  0  0
  152.5125  138.5881  154.1366 H   0  0  0  0  0  0  0  0  0  0  0  0
  151.9353  136.5268  154.9950 H   0  0  0  0  0  0  0  0  0  0  0  0
  150.9310  137.5308  156.0082 H   0  0  0  0  0  0  0  0  0  0  0  0
  149.7989  136.5077  153.4705 H   0  0  0  0  0  0  0  0  0  0  0  0
  147.9452  135.8826  153.4988 H   0  0  0  0  0  0  0  0  0  0  0  0
  146.6229  136.9551  156.4781 H   0  0  0  0  0  0  0  0  0  0  0  0
  144.3421  136.4472  157.3354 H   0  0  0  0  0  0  0  0  0  0  0  0
  143.0391  134.5261  156.2525 H   0  0  0  0  0  0  0  0  0  0  0  0
  146.4562  131.4740  154.0070 H   0  0  0  0  0  0  0  0  0  0  0  0
  144.8094  131.9938  153.6180 H   0  0  0  0  0  0  0  0  0  0  0  0
  147.0998  131.2934  151.7533 H   0  0  0  0  0  0  0  0  0  0  0  0
  145.4106  130.8045  151.6057 H   0  0  0  0  0  0  0  0  0  0  0  0
  146.3159  132.8812  150.1090 H   0  0  0  0  0  0  0  0  0  0  0  0
  144.7564  133.0258  150.9217 H   0  0  0  0  0  0  0  0  0  0  0  0
  145.8077  134.9303  151.8143 H   0  0  0  0  0  0  0  0  0  0  0  0
  147.4035  134.1990  151.7866 H   0  0  0  0  0  0  0  0  0  0  0  0
  151.3190  139.6267  156.5173 H   0  0  0  0  0  0  0  0  0  0  0  0
  152.4522  140.4753  155.4896 H   0  0  0  0  0  0  0  0  0  0  0  0
  150.8862  142.3537  155.1942 H   0  0  0  0  0  0  0  0  0  0  0  0
  152.3634  142.4444  157.2025 H   0  0  0  0  0  0  0  0  0  0  0  0
  151.1369  141.6024  158.1492 H   0  0  0  0  0  0  0  0  0  0  0  0
  150.8112  143.2148  157.5174 H   0  0  0  0  0  0  0  0  0  0  0  0
  144.0213  133.3413  154.5409 H   0  0  0  0  0  0  0  0  0  0  0  0
  1  2  1  0  0  0  0
  1 26  1  0  0  0  0
  1 27  1  0  0  0  0
  1 28  1  0  0  0  0
  2 25  1  0  0  0  0
  2  3  1  0  0  0  0
  2 29  1  0  0  0  0
  3  4  1  0  0  0  0
  3 30  1  0  0  0  0
  3 31  1  0  0  0  0
  4  5  1  0  0  0  0
  4 22  1  0  0  0  0
  5  6  1  0  0  0  0
  5 32  1  0  0  0  0
  5 33  1  0  0  0  0
  6  7  1  0  0  0  0
  6 34  1  0  0  0  0
  6 35  1  0  0  0  0
  7  8  1  0  0  0  0
  7 36  1  0  0  0  0
  8  9  2  0  0  0  0
  8 10  1  0  0  0  0
 10 11  1  0  0  0  0
 10 37  1  0  0  0  0
 11 16  1  0  0  0  0
 11 12  2  0  0  0  0
 12 13  1  0  0  0  0
 12 38  1  0  0  0  0
 13 14  2  0  0  0  0
 13 39  1  0  0  0  0
 14 15  1  0  0  0  0
 14 40  1  0  0  0  0
 15 16  2  0  0  0  0
 15 55  1  0  0  0  0
 16 17  1  0  0  0  0
 17 21  1  0  0  0  0
 17 18  1  0  0  0  0
 18 19  1  0  0  0  0
 18 41  1  0  0  0  0
 18 42  1  0  0  0  0
 19 20  1  0  0  0  0
 19 43  1  0  0  0  0
 19 44  1  0  0  0  0
 20 21  1  0  0  0  0
 20 45  1  0  0  0  0
 20 46  1  0  0  0  0
 21 47  1  0  0  0  0
 21 48  1  0  0  0  0
 22 23  1  0  0  0  0
 22 49  1  0  0  0  0
 22 50  1  0  0  0  0
 23 24  1  0  0  0  0
 23 25  1  0  0  0  0
 23 51  1  0  0  0  0
 24 52  1  0  0  0  0
 24 53  1  0  0  0  0
 24 54  1  0  0  0  0
M  CHG  1  15   1
M  END
> <s_m_source_file>
AV-unprocessed.smi

> <i_m_source_file_index>
1244

> <i_lp_mmshare_version>
43012

> <i_f3d_flags>
0

> <s_epik_input>
W0NIM11bQ0BASF0xW0NIMl1OKFtDSDJdW0NASF0oTzEpW0NIM10pW0NIMl1bQ0gyXVtOSF1DKD1PKVtOSF1jMltjSF1bY0hdW2NIXW5jMk4zW0NIMl1bQ0gyXVtDSDJdW0NIMl0z

> <s_epik_cmdline>
J2VwaWtfcHl0aG9uJywgJy1waCcsICc3LjAnLCAnLXRuJywgJzgnLCAnLW1hJywgJzIwMCcsICctbWV0YWxfYmluZGluZycsICctaW1hZScsICc8aW5maWxlLm1hZT4nLCAnLW9tYWUnLCAnPG91dGZpbGUubWFlPic=

> <r_epik_Ionization_Penalty>
1.38385

> <r_epik_Ionization_Penalty_Charging>
1.11784

> <r_epik_Ionization_Penalty_Neutral>
0.26601

> <r_epik_State_Penalty>
1.46794

> <r_epik_Charging_Adjusted_Penalty>
2.58578

> <i_epik_Tot_Q>
1

> <i_epik_Tot_abs_Q>
1

> <r_epik_Metal_State_Penalty>
1.54908

> <b_epik_Metal_Only>
0

> <s_lp_Force_Field>
OPLS_2005

> <r_lp_Energy>
60.8331

> <b_lp_Chiralities_Consistent>
1

> <s_lp_Variant>
AV-unprocessed.smi:1244-10

> <Gold.Version>
5.8.1

> <Gold.Id.Protein>
6NUR|6NUR_protein|mol2

> <Gold.PLP.Fitness>
44.8212

> <Gold.PLP.PLP>
-33.6301

> <Gold.PLP.part.hbond>
-4.1094

> <Gold.PLP.part.metal>
0.0000

> <Gold.PLP.part.buried>
-4.7371

> <Gold.PLP.part.nonpolar>
-25.3535

> <Gold.PLP.part.repulsive>
0.2541

> <Gold.PLP.ligand.clash>
0.0000

> <Gold.PLP.ligand.torsion>
1.6464

> <Gold.PLP.Chemscore.Hbond>
4.4825

> <Gold.PLP.Chemscore.CHOScore>
0.0000

> <Gold.PLP.Chemscore.Metal>
0.0000

> <Gold.Chemscore.Hbonds>
donor molecule, donor type, donor heavy atom, donor atom, acceptor molecule, acceptor atom, score
      L1  H     7    36       P1  7948  1.00
      L1  H    10    37       P1  7948  1.00
      L1  H    15    55       P1 10957  1.68
      P1  H  7989  7998       L1     4  0.45

> <Gold.PLP.Chemscore.Internal.Correction>
1.0364

> <Gold.Rescore>
     Score         DG    S(hbond)    S(metal)    S(lipo)     H(rot)  DE(clash)    DE(int)     intcor
     16.19     -18.95       2.26        0.00      81.30       1.40       0.03       2.72       ----

> <Gold.Chemscore.Fitness>
16.1918

> <Gold.Chemscore.DG>
-18.9477

> <Gold.Chemscore.ZeroCoef>
-5.4800

> <Gold.Chemscore.Hbond>
2.2590

> <Gold.Chemscore.Metal>
0.0000

> <Gold.Chemscore.Lipo>
81.3042

> <Gold.Chemscore.Internal_Hbond>
0.0000

> <Gold.Chemscore.DEClash>
0.0328

> <Gold.Chemscore.DEInternal>
2.7231

> <Gold.Chemscore.Rot>
1.4023

> <Gold.Chemscore.Internal.Correction>
   9.000000E+99

> <Gold.Chemscore.Hbonds>
donor molecule, donor type, donor heavy atom, donor atom, acceptor molecule, acceptor atom, score
      L1  H     7    36       P1  7948  0.30
      L1  H    10    37       P1  7948  0.95
      L1  H    15    55       P1 10957  0.78

> <Gold.Chemscore.Hbond.Weighted>
-7.5450

> <Gold.Chemscore.Metal.Weighted>
-0.0000

> <Gold.Chemscore.Lipo.Weighted>
-9.5126

> <Gold.Chemscore.Internal_Hbond.Weighted>
0.0000

> <Gold.Chemscore.DEClash.Weighted>
0.0328

> <Gold.Chemscore.DEInternal.Weighted>
2.7231

> <Gold.Chemscore.Rot.Weighted>
3.5899

> <Gold.Chemscore.Internal.Correction.Weighted>
   9.000000E+99

> <Gold.Protein.RotatedTorsions>
[ 6907 6896 6895 6894 ] final  -47.91 input  -60.11 | X-H torsion
[ 7974 7965 7964 7962 ] final  -67.55 input  175.53 | X-H torsion
[ 8008 7997 7996 7995 ] final   72.70 input   59.86 | X-H torsion
[ 10167 10162 10161 10158 ] final   37.39 input  -65.29 | X-H torsion
[ 10718 10713 10712 10709 ] final  -84.36 input   66.30 | X-H torsion
[ 10763 10752 10751 10750 ] final  177.45 input  -60.55 | X-H torsion
[ 11005 11000 10999 10996 ] final -128.07 input  -57.11 | X-H torsion

> <Gold.Protein.ActiveResidues>
 VAL166  LYS551  ARG553  GLY616  TRP617  ASP618  TYR619  PRO620  LYS621  CYS622 
 ASP623  PHE694  ASN695  SER759  ASP760  ASP761  ALA762  ILE779  LEU786  VAL792 
 PHE793  MET794  SER795  GLU796  ALA797  LYS798  CYS799  TRP800  GLU811  SER814 

> <Gold.Protein.RotatedAtoms>
  150.8959  134.8367  159.7325 H   0  0  0  0  0  0  0  0  0  0  0  0  # atno 6907 bound_to 6896
  152.4864  134.4576  159.9605 H   0  0  0  0  0  0  0  0  0  0  0  0  # atno 6908 bound_to 6896
  151.4634  133.3548  159.2848 H   0  0  0  0  0  0  0  0  0  0  0  0  # atno 6909 bound_to 6896
  145.7277  140.9010  143.0596 H   0  0  0  0  0  0  0  0  0  0  0  0  # atno 7974 bound_to 7965
  155.7727  140.3484  155.5255 H   0  0  0  0  0  0  0  0  0  0  0  0  # atno 8008 bound_to 7997
  155.8806  140.1001  157.1509 H   0  0  0  0  0  0  0  0  0  0  0  0  # atno 8009 bound_to 7997
  154.4024  140.1323  156.4178 H   0  0  0  0  0  0  0  0  0  0  0  0  # atno 8010 bound_to 7997
  140.4037  144.1688  150.6135 H   0  0  0  0  0  0  0  0  0  0  0  0  # atno 10167 bound_to 10162
  156.0007  130.4695  150.4398 H   0  0  0  0  0  0  0  0  0  0  0  0  # atno 10718 bound_to 10713
  154.4946  135.2780  155.1469 H   0  0  0  0  0  0  0  0  0  0  0  0  # atno 10763 bound_to 10752
  154.3127  135.6225  153.5476 H   0  0  0  0  0  0  0  0  0  0  0  0  # atno 10764 bound_to 10752
  152.9893  135.5723  154.5375 H   0  0  0  0  0  0  0  0  0  0  0  0  # atno 10765 bound_to 10752
  140.9547  134.1018  157.4028 H   0  0  0  0  0  0  0  0  0  0  0  0  # atno 11005 bound_to 11000
  144.6900  139.9289  143.7471 LP  0  0  0  0  0  0  0  0  0  0  0  0  # atno 17320 bound_to 7965
  146.0566  139.3563  143.0607 LP  0  0  0  0  0  0  0  0  0  0  0  0  # atno 17321 bound_to 7965
  140.4712  143.2412  151.9086 LP  0  0  0  0  0  0  0  0  0  0  0  0  # atno 17342 bound_to 10162
  139.4784  144.5367  151.8587 LP  0  0  0  0  0  0  0  0  0  0  0  0  # atno 17343 bound_to 10162
  157.2440  131.0531  151.2420 LP  0  0  0  0  0  0  0  0  0  0  0  0  # atno 17370 bound_to 10713
  157.3593  130.7123  149.6491 LP  0  0  0  0  0  0  0  0  0  0  0  0  # atno 17371 bound_to 10713
  139.8858  135.0076  156.6460 LP  0  0  0  0  0  0  0  0  0  0  0  0  # atno 17394 bound_to 11000
  140.7553  133.8863  155.8377 LP  0  0  0  0  0  0  0  0  0  0  0  0  # atno 17395 bound_to 11000

$$$$
