AV-unprocessed.smi:2789|AV-procd|sdf|10762|dock3
  -GOLD-   2272015193D 1   1.00000     0.00000
 Structure written by MMmdl.
 35 36  0  0  0  0  0  0  0  0  1 V2000
  142.5778  136.1436  153.6893 C   0  0  0  0  0  0  0  0  0  0  0  0
  143.3755  137.1111  153.0257 O   0  0  0  0  0  0  0  0  0  0  0  0
  144.3997  136.5514  152.2146 C   0  0  2  0  0  0  0  0  0  0  0  0
  143.8606  135.4728  151.2653 C   0  0  0  0  0  0  0  0  0  0  0  0
  145.0249  134.5050  151.0892 C   0  0  0  0  0  0  0  0  0  0  0  0
  145.6662  134.4487  152.4747 C   0  0  0  0  0  0  0  0  0  0  0  0
  145.4497  135.8426  153.0975 C   0  0  1  0  0  0  0  0  0  0  0  0
  146.6955  136.6052  153.1297 N   0  0  0  0  0  0  0  0  0  0  0  0
  146.8966  137.7233  153.8412 C   0  0  0  0  0  0  0  0  0  0  0  0
  146.0386  138.2296  154.5647 O   0  0  0  0  0  0  0  0  0  0  0  0
  148.1416  138.1964  153.6579 N   0  0  0  0  0  0  0  0  0  0  0  0
  148.7184  139.3031  154.1975 C   0  0  0  0  0  0  0  0  0  0  0  0
  148.1924  140.5558  154.3600 C   0  0  0  0  0  0  0  0  0  0  0  0
  149.2667  141.2643  154.9704 C   0  0  0  0  0  0  0  0  0  0  0  0
  150.3439  140.5129  155.1604 N   0  0  0  0  0  0  0  0  0  0  0  0
  150.0088  139.2950  154.6809 N   0  0  0  0  0  0  0  0  0  0  0  0
  150.9665  138.2074  154.7285 C   0  0  0  0  0  0  0  0  0  0  0  0
  141.8042  136.6467  154.2695 H   0  0  0  0  0  0  0  0  0  0  0  0
  143.1682  135.5378  154.3772 H   0  0  0  0  0  0  0  0  0  0  0  0
  142.0841  135.4828  152.9759 H   0  0  0  0  0  0  0  0  0  0  0  0
  144.8829  137.3347  151.6264 H   0  0  0  0  0  0  0  0  0  0  0  0
  143.0258  134.9491  151.7332 H   0  0  0  0  0  0  0  0  0  0  0  0
  143.5083  135.8822  150.3182 H   0  0  0  0  0  0  0  0  0  0  0  0
  144.7077  133.5247  150.7326 H   0  0  0  0  0  0  0  0  0  0  0  0
  145.7364  134.9107  150.3688 H   0  0  0  0  0  0  0  0  0  0  0  0
  145.1471  133.7036  153.0791 H   0  0  0  0  0  0  0  0  0  0  0  0
  146.7136  134.1475  152.4290 H   0  0  0  0  0  0  0  0  0  0  0  0
  145.0658  135.7267  154.1133 H   0  0  0  0  0  0  0  0  0  0  0  0
  147.4543  136.2575  152.5623 H   0  0  0  0  0  0  0  0  0  0  0  0
  148.7333  137.6614  153.0394 H   0  0  0  0  0  0  0  0  0  0  0  0
  147.2128  140.9239  154.0951 H   0  0  0  0  0  0  0  0  0  0  0  0
  149.2964  142.2987  155.2796 H   0  0  0  0  0  0  0  0  0  0  0  0
  150.5925  137.4198  155.3827 H   0  0  0  0  0  0  0  0  0  0  0  0
  151.9273  138.5570  155.1085 H   0  0  0  0  0  0  0  0  0  0  0  0
  151.1107  137.8015  153.7268 H   0  0  0  0  0  0  0  0  0  0  0  0
  1  2  1  0  0  0  0
  1 18  1  0  0  0  0
  1 19  1  0  0  0  0
  1 20  1  0  0  0  0
  2  3  1  0  0  0  0
  3  7  1  0  0  0  0
  3  4  1  0  0  0  0
  3 21  1  0  0  0  0
  4  5  1  0  0  0  0
  4 22  1  0  0  0  0
  4 23  1  0  0  0  0
  5  6  1  0  0  0  0
  5 24  1  0  0  0  0
  5 25  1  0  0  0  0
  6  7  1  0  0  0  0
  6 26  1  0  0  0  0
  6 27  1  0  0  0  0
  7  8  1  0  0  0  0
  7 28  1  0  0  0  0
  8  9  1  0  0  0  0
  8 29  1  0  0  0  0
  9 10  2  0  0  0  0
  9 11  1  0  0  0  0
 11 12  1  0  0  0  0
 11 30  1  0  0  0  0
 12 16  1  0  0  0  0
 12 13  2  0  0  0  0
 13 14  1  0  0  0  0
 13 31  1  0  0  0  0
 14 15  2  0  0  0  0
 14 32  1  0  0  0  0
 15 16  1  0  0  0  0
 16 17  1  0  0  0  0
 17 33  1  0  0  0  0
 17 34  1  0  0  0  0
 17 35  1  0  0  0  0
M  END
> <s_m_source_file>
AV-unprocessed.smi

> <i_m_source_file_index>
2789

> <i_lp_mmshare_version>
43012

> <i_f3d_flags>
0

> <s_epik_input>
W0NIM11PW0NAQEhdMVtDSDJdW0NIMl1bQ0gyXVtDQEhdMVtOSF1DKD1PKVtOSF1jMltjSF1bY0hdbm4yW0NIM10=

> <s_epik_cmdline>
J2VwaWtfcHl0aG9uJywgJy1waCcsICc3LjAnLCAnLXRuJywgJzgnLCAnLW1hJywgJzIwMCcsICctbWV0YWxfYmluZGluZycsICctaW1hZScsICc8aW5maWxlLm1hZT4nLCAnLW9tYWUnLCAnPG91dGZpbGUubWFlPic=

> <r_lp_tautomer_probability>
1

> <r_epik_Ionization_Penalty>
4.40608e-05

> <r_epik_Ionization_Penalty_Charging>
0

> <r_epik_Ionization_Penalty_Neutral>
4.40608e-05

> <r_epik_State_Penalty>
-0

> <r_epik_Charging_Adjusted_Penalty>
0

> <i_epik_Tot_Q>
0

> <i_epik_Tot_abs_Q>
0

> <r_epik_Metal_State_Penalty>
-0

> <b_epik_Metal_Only>
0

> <s_lp_Force_Field>
OPLS_2005

> <r_lp_Energy>
20.8704

> <b_lp_Chiralities_Consistent>
1

> <s_lp_Variant>
AV-unprocessed.smi:2789-1

> <Gold.Version>
5.8.1

> <Gold.Id.Protein>
6NUR|6NUR_protein|mol2

> <Gold.PLP.Fitness>
36.8009

> <Gold.PLP.PLP>
-26.7149

> <Gold.PLP.part.hbond>
-3.2304

> <Gold.PLP.part.metal>
0.0000

> <Gold.PLP.part.buried>
-1.9413

> <Gold.PLP.part.nonpolar>
-21.3236

> <Gold.PLP.part.repulsive>
0.3693

> <Gold.PLP.ligand.clash>
0.0000

> <Gold.PLP.ligand.torsion>
0.5758

> <Gold.PLP.Chemscore.Hbond>
2.7440

> <Gold.PLP.Chemscore.CHOScore>
1.0000

> <Gold.PLP.Chemscore.Metal>
0.0000

> <Gold.Chemscore.Hbonds>
donor molecule, donor type, donor heavy atom, donor atom, acceptor molecule, acceptor atom, score
      L1  H     8    29       P1  7948  1.00
      L1  H    11    30       P1  7948  1.00
      P1  H  7989  7998       L1    15  0.44
      L1  C    14    32       P1  8028  1.00

> <Gold.PLP.Chemscore.Internal.Correction>
0.0056

> <Gold.Rescore>
     Score         DG    S(hbond)    S(metal)    S(lipo)     H(rot)  DE(clash)    DE(int)     intcor
     15.27     -15.75       2.49        0.00      44.63       1.27       0.04       0.45       ----

> <Gold.Chemscore.Fitness>
15.2672

> <Gold.Chemscore.DG>
-15.7496

> <Gold.Chemscore.ZeroCoef>
-5.4800

> <Gold.Chemscore.Hbond>
2.4857

> <Gold.Chemscore.Metal>
0.0000

> <Gold.Chemscore.Lipo>
44.6295

> <Gold.Chemscore.Internal_Hbond>
0.0000

> <Gold.Chemscore.DEClash>
0.0363

> <Gold.Chemscore.DEInternal>
0.4461

> <Gold.Chemscore.Rot>
1.2712

> <Gold.Chemscore.Internal.Correction>
   9.000000E+99

> <Gold.Chemscore.Hbonds>
donor molecule, donor type, donor heavy atom, donor atom, acceptor molecule, acceptor atom, score
      L1  H     8    29       P1  7948  0.99
      L1  H    11    30       P1  7948  0.95
      P1  H  7989  7998       L1    15  0.02

> <Gold.Chemscore.Hbond.Weighted>
-8.3023

> <Gold.Chemscore.Metal.Weighted>
-0.0000

> <Gold.Chemscore.Lipo.Weighted>
-5.2217

> <Gold.Chemscore.Internal_Hbond.Weighted>
0.0000

> <Gold.Chemscore.DEClash.Weighted>
0.0363

> <Gold.Chemscore.DEInternal.Weighted>
0.4461

> <Gold.Chemscore.Rot.Weighted>
3.2544

> <Gold.Chemscore.Internal.Correction.Weighted>
   9.000000E+99

> <Gold.Protein.RotatedTorsions>
[ 6907 6896 6895 6894 ] final   26.12 input  -60.11 | X-H torsion
[ 7974 7965 7964 7962 ] final  151.22 input  175.53 | X-H torsion
[ 8008 7997 7996 7995 ] final   -7.40 input   59.86 | X-H torsion
[ 10167 10162 10161 10158 ] final  153.60 input  -65.29 | X-H torsion
[ 10718 10713 10712 10709 ] final -172.94 input   66.30 | X-H torsion
[ 10763 10752 10751 10750 ] final  -18.64 input  -60.55 | X-H torsion
[ 11005 11000 10999 10996 ] final  -64.70 input  -57.11 | X-H torsion

> <Gold.Protein.ActiveResidues>
 VAL166  LYS551  ARG553  GLY616  TRP617  ASP618  TYR619  PRO620  LYS621  CYS622 
 ASP623  PHE694  ASN695  SER759  ASP760  ASP761  ALA762  ILE779  LEU786  VAL792 
 PHE793  MET794  SER795  GLU796  ALA797  LYS798  CYS799  TRP800  GLU811  SER814 

> <Gold.Protein.RotatedAtoms>
  151.9828  135.0020  160.0557 H   0  0  0  0  0  0  0  0  0  0  0  0  # atno 6907 bound_to 6896
  152.1681  133.4620  159.4903 H   0  0  0  0  0  0  0  0  0  0  0  0  # atno 6908 bound_to 6896
  150.6897  134.1906  159.4326 H   0  0  0  0  0  0  0  0  0  0  0  0  # atno 6909 bound_to 6896
  144.8308  139.6509  143.6060 H   0  0  0  0  0  0  0  0  0  0  0  0  # atno 7974 bound_to 7965
  154.5842  140.2408  155.8011 H   0  0  0  0  0  0  0  0  0  0  0  0  # atno 8008 bound_to 7997
  156.2201  140.3000  155.9887 H   0  0  0  0  0  0  0  0  0  0  0  0  # atno 8009 bound_to 7997
  155.2488  140.0410  157.2974 H   0  0  0  0  0  0  0  0  0  0  0  0  # atno 8010 bound_to 7997
  139.4826  144.5259  151.7802 H   0  0  0  0  0  0  0  0  0  0  0  0  # atno 10167 bound_to 10162
  156.7630  130.9420  151.3118 H   0  0  0  0  0  0  0  0  0  0  0  0  # atno 10718 bound_to 10713
  153.5924  135.7002  153.5418 H   0  0  0  0  0  0  0  0  0  0  0  0  # atno 10763 bound_to 10752
  153.3167  135.4086  155.1382 H   0  0  0  0  0  0  0  0  0  0  0  0  # atno 10764 bound_to 10752
  154.8598  135.3685  154.5456 H   0  0  0  0  0  0  0  0  0  0  0  0  # atno 10765 bound_to 10752
  141.1433  133.6670  156.5874 H   0  0  0  0  0  0  0  0  0  0  0  0  # atno 11005 bound_to 11000
  146.2611  139.6412  142.9361 LP  0  0  0  0  0  0  0  0  0  0  0  0  # atno 17320 bound_to 7965
  145.4900  141.0438  143.2598 LP  0  0  0  0  0  0  0  0  0  0  0  0  # atno 17321 bound_to 7965
  140.4778  144.1493  150.5928 LP  0  0  0  0  0  0  0  0  0  0  0  0  # atno 17342 bound_to 10162
  140.4311  143.2568  151.9594 LP  0  0  0  0  0  0  0  0  0  0  0  0  # atno 17343 bound_to 10162
  157.6726  130.9065  150.0075 LP  0  0  0  0  0  0  0  0  0  0  0  0  # atno 17370 bound_to 10713
  156.1327  130.3643  149.9706 LP  0  0  0  0  0  0  0  0  0  0  0  0  # atno 17371 bound_to 10713
  140.3790  134.7540  157.4649 LP  0  0  0  0  0  0  0  0  0  0  0  0  # atno 17394 bound_to 11000
  140.0652  134.5939  155.8703 LP  0  0  0  0  0  0  0  0  0  0  0  0  # atno 17395 bound_to 11000

$$$$
