AV-unprocessed.smi:2911|AV-procd|sdf|11179|dock7
  -GOLD-   2272016 73D 1   1.00000     0.00000
 Structure written by MMmdl.
 41 42  0  0  0  0  0  0  0  0  1 V2000
  152.7064  129.7705  155.8467 C   0  0  0  0  0  0  0  0  0  0  0  0
  151.9970  131.0346  156.1944 C   0  0  0  0  0  0  0  0  0  0  0  0
  152.2383  131.6657  157.3369 N   0  0  0  0  0  0  0  0  0  0  0  0
  151.3795  132.7731  157.2820 O   0  0  0  0  0  0  0  0  0  0  0  0
  150.7325  132.6800  156.0952 C   0  0  0  0  0  0  0  0  0  0  0  0
  149.6982  133.6998  155.7547 C   0  0  0  0  0  0  0  0  0  0  0  0
  149.8523  134.2335  154.3216 C   0  0  0  0  0  0  0  0  0  0  0  0
  150.1440  135.6625  154.3091 N   0  0  0  0  0  0  0  0  0  0  0  0
  151.0309  136.2835  155.1057 C   0  0  0  0  0  0  0  0  0  0  0  0
  151.6718  135.6705  155.9610 O   0  0  0  0  0  0  0  0  0  0  0  0
  151.1168  137.6294  154.9292 N   0  0  0  0  0  0  0  0  0  0  0  0
  150.2456  138.4229  154.0339 C   0  0  0  0  0  0  0  0  0  0  0  0
  149.6426  139.6236  154.7765 C   0  0  0  0  0  0  0  0  0  0  0  0
  150.7477  140.5159  155.3603 C   0  0  1  0  0  0  0  0  0  0  0  0
  150.1658  141.7137  156.1241 C   0  0  0  0  0  0  0  0  0  0  0  0
  151.6781  139.6733  156.2483 C   0  0  0  0  0  0  0  0  0  0  0  0
  152.2151  138.4084  155.5427 C   0  0  2  0  0  0  0  0  0  0  0  0
  153.3469  138.6844  154.5359 C   0  0  0  0  0  0  0  0  0  0  0  0
  151.0644  131.6055  155.3836 N   0  0  0  0  0  0  0  0  0  0  0  0
  153.7561  129.8287  156.1363 H   0  0  0  0  0  0  0  0  0  0  0  0
  152.6568  129.5847  154.7735 H   0  0  0  0  0  0  0  0  0  0  0  0
  152.2482  128.9283  156.3654 H   0  0  0  0  0  0  0  0  0  0  0  0
  148.7136  133.2510  155.8904 H   0  0  0  0  0  0  0  0  0  0  0  0
  149.7698  134.5191  156.4710 H   0  0  0  0  0  0  0  0  0  0  0  0
  150.6732  133.7192  153.8212 H   0  0  0  0  0  0  0  0  0  0  0  0
  148.9542  134.0271  153.7365 H   0  0  0  0  0  0  0  0  0  0  0  0
  149.6327  136.2257  153.6451 H   0  0  0  0  0  0  0  0  0  0  0  0
  150.8373  138.7727  153.1879 H   0  0  0  0  0  0  0  0  0  0  0  0
  149.4303  137.8554  153.5861 H   0  0  0  0  0  0  0  0  0  0  0  0
  149.0189  140.2020  154.0939 H   0  0  0  0  0  0  0  0  0  0  0  0
  148.9863  139.2693  155.5727 H   0  0  0  0  0  0  0  0  0  0  0  0
  151.3358  140.9113  154.5312 H   0  0  0  0  0  0  0  0  0  0  0  0
  149.5595  141.3890  156.9704 H   0  0  0  0  0  0  0  0  0  0  0  0
  149.5346  142.3230  155.4766 H   0  0  0  0  0  0  0  0  0  0  0  0
  150.9587  142.3554  156.5092 H   0  0  0  0  0  0  0  0  0  0  0  0
  152.5097  140.2818  156.6056 H   0  0  0  0  0  0  0  0  0  0  0  0
  151.1284  139.3654  157.1393 H   0  0  0  0  0  0  0  0  0  0  0  0
  152.6746  137.8265  156.3436 H   0  0  0  0  0  0  0  0  0  0  0  0
  154.1886  139.1763  155.0238 H   0  0  0  0  0  0  0  0  0  0  0  0
  153.0227  139.3283  153.7190 H   0  0  0  0  0  0  0  0  0  0  0  0
  153.7185  137.7563  154.1008 H   0  0  0  0  0  0  0  0  0  0  0  0
  1  2  1  0  0  0  0
  1 20  1  0  0  0  0
  1 21  1  0  0  0  0
  1 22  1  0  0  0  0
  2 19  1  0  0  0  0
  2  3  2  0  0  0  0
  3  4  1  0  0  0  0
  4  5  1  0  0  0  0
  5  6  1  0  0  0  0
  5 19  2  0  0  0  0
  6  7  1  0  0  0  0
  6 23  1  0  0  0  0
  6 24  1  0  0  0  0
  7  8  1  0  0  0  0
  7 25  1  0  0  0  0
  7 26  1  0  0  0  0
  8  9  1  0  0  0  0
  8 27  1  0  0  0  0
  9 10  2  0  0  0  0
  9 11  1  0  0  0  0
 11 17  1  0  0  0  0
 11 12  1  0  0  0  0
 12 13  1  0  0  0  0
 12 28  1  0  0  0  0
 12 29  1  0  0  0  0
 13 14  1  0  0  0  0
 13 30  1  0  0  0  0
 13 31  1  0  0  0  0
 14 15  1  0  0  0  0
 14 16  1  0  0  0  0
 14 32  1  0  0  0  0
 15 33  1  0  0  0  0
 15 34  1  0  0  0  0
 15 35  1  0  0  0  0
 16 17  1  0  0  0  0
 16 36  1  0  0  0  0
 16 37  1  0  0  0  0
 17 18  1  0  0  0  0
 17 38  1  0  0  0  0
 18 39  1  0  0  0  0
 18 40  1  0  0  0  0
 18 41  1  0  0  0  0
M  END
> <s_m_source_file>
AV-unprocessed.smi

> <i_m_source_file_index>
2911

> <i_lp_mmshare_version>
43012

> <i_f3d_flags>
0

> <s_epik_input>
W0NIM11jMW5vYyhuMSlbQ0gyXVtDSDJdW05IXUMoPU8pTjJbQ0gyXVtDSDJdW0NAQEhdKFtDSDNdKVtDSDJdW0NASF0yW0NIM10=

> <s_epik_cmdline>
J2VwaWtfcHl0aG9uJywgJy1waCcsICc3LjAnLCAnLXRuJywgJzgnLCAnLW1hJywgJzIwMCcsICctbWV0YWxfYmluZGluZycsICctaW1hZScsICc8aW5maWxlLm1hZT4nLCAnLW9tYWUnLCAnPG91dGZpbGUubWFlPic=

> <r_lp_tautomer_probability>
1

> <r_epik_Ionization_Penalty>
6.61671e-05

> <r_epik_Ionization_Penalty_Charging>
0

> <r_epik_Ionization_Penalty_Neutral>
6.61671e-05

> <r_epik_State_Penalty>
-0

> <r_epik_Charging_Adjusted_Penalty>
0

> <i_epik_Tot_Q>
0

> <i_epik_Tot_abs_Q>
0

> <r_epik_Metal_State_Penalty>
-0

> <b_epik_Metal_Only>
0

> <s_lp_Force_Field>
OPLS_2005

> <r_lp_Energy>
30.51

> <b_lp_Chiralities_Consistent>
1

> <s_lp_Variant>
AV-unprocessed.smi:2911-3

> <Gold.Version>
5.8.1

> <Gold.Id.Protein>
6NUR|6NUR_protein|mol2

> <Gold.PLP.Fitness>
39.5329

> <Gold.PLP.PLP>
-32.6431

> <Gold.PLP.part.hbond>
-3.7949

> <Gold.PLP.part.metal>
0.0000

> <Gold.PLP.part.buried>
-0.5959

> <Gold.PLP.part.nonpolar>
-28.4709

> <Gold.PLP.part.repulsive>
0.0901

> <Gold.PLP.ligand.clash>
0.0000

> <Gold.PLP.ligand.torsion>
0.6472

> <Gold.PLP.Chemscore.Hbond>
2.7195

> <Gold.PLP.Chemscore.CHOScore>
0.0000

> <Gold.PLP.Chemscore.Metal>
0.0000

> <Gold.Chemscore.Hbonds>
donor molecule, donor type, donor heavy atom, donor atom, acceptor molecule, acceptor atom, score
      L1  H     8    27       P1  7948  0.83
      P1  H  6896  6907       L1     4  0.98
      P1  H 10752 10765       L1    10  0.90

> <Gold.PLP.Chemscore.Internal.Correction>
0.0258

> <Gold.Rescore>
     Score         DG    S(hbond)    S(metal)    S(lipo)     H(rot)  DE(clash)    DE(int)     intcor
     13.92     -15.77       2.10        0.00      63.23       1.61       0.04       1.81       ----

> <Gold.Chemscore.Fitness>
13.9233

> <Gold.Chemscore.DG>
-15.7736

> <Gold.Chemscore.ZeroCoef>
-5.4800

> <Gold.Chemscore.Hbond>
2.0999

> <Gold.Chemscore.Metal>
0.0000

> <Gold.Chemscore.Lipo>
63.2348

> <Gold.Chemscore.Internal_Hbond>
0.0000

> <Gold.Chemscore.DEClash>
0.0382

> <Gold.Chemscore.DEInternal>
1.8120

> <Gold.Chemscore.Rot>
1.6088

> <Gold.Chemscore.Internal.Correction>
   9.000000E+99

> <Gold.Chemscore.Hbonds>
donor molecule, donor type, donor heavy atom, donor atom, acceptor molecule, acceptor atom, score
      L1  H     8    27       P1  7948  0.37
      P1  H  6896  6907       L1     4  0.39
      P1  H 10752 10765       L1    10  0.18

> <Gold.Chemscore.Hbond.Weighted>
-7.0138

> <Gold.Chemscore.Metal.Weighted>
-0.0000

> <Gold.Chemscore.Lipo.Weighted>
-7.3985

> <Gold.Chemscore.Internal_Hbond.Weighted>
0.0000

> <Gold.Chemscore.DEClash.Weighted>
0.0382

> <Gold.Chemscore.DEInternal.Weighted>
1.8120

> <Gold.Chemscore.Rot.Weighted>
4.1186

> <Gold.Chemscore.Internal.Correction.Weighted>
   9.000000E+99

> <Gold.Protein.RotatedTorsions>
[ 6907 6896 6895 6894 ] final -154.52 input  -60.11 | X-H torsion
[ 7974 7965 7964 7962 ] final  -85.63 input  175.53 | X-H torsion
[ 8008 7997 7996 7995 ] final  106.41 input   59.86 | X-H torsion
[ 10167 10162 10161 10158 ] final  -29.00 input  -65.29 | X-H torsion
[ 10718 10713 10712 10709 ] final  -41.83 input   66.30 | X-H torsion
[ 10763 10752 10751 10750 ] final -148.48 input  -60.55 | X-H torsion
[ 11005 11000 10999 10996 ] final  124.60 input  -57.11 | X-H torsion

> <Gold.Protein.ActiveResidues>
 VAL166  LYS551  ARG553  GLY616  TRP617  ASP618  TYR619  PRO620  LYS621  CYS622 
 ASP623  PHE694  ASN695  SER759  ASP760  ASP761  ALA762  ILE779  LEU786  VAL792 
 PHE793  MET794  SER795  GLU796  ALA797  LYS798  CYS799  TRP800  GLU811  SER814 

> <Gold.Protein.RotatedAtoms>
  151.2587  133.4313  159.2614 H   0  0  0  0  0  0  0  0  0  0  0  0  # atno 6907 bound_to 6896
  151.0550  134.9699  159.8241 H   0  0  0  0  0  0  0  0  0  0  0  0  # atno 6908 bound_to 6896
  152.5389  134.2540  159.8962 H   0  0  0  0  0  0  0  0  0  0  0  0  # atno 6909 bound_to 6896
  145.4906  140.9553  143.1814 H   0  0  0  0  0  0  0  0  0  0  0  0  # atno 7974 bound_to 7965
  156.1741  140.3113  155.9026 H   0  0  0  0  0  0  0  0  0  0  0  0  # atno 8008 bound_to 7997
  155.3525  140.0472  157.3063 H   0  0  0  0  0  0  0  0  0  0  0  0  # atno 8009 bound_to 7997
  154.5271  140.2218  155.8880 H   0  0  0  0  0  0  0  0  0  0  0  0  # atno 8010 bound_to 7997
  140.7265  143.3964  151.1340 H   0  0  0  0  0  0  0  0  0  0  0  0  # atno 10167 bound_to 10162
  156.2661  130.4202  149.8488 H   0  0  0  0  0  0  0  0  0  0  0  0  # atno 10718 bound_to 10713
  154.8230  135.3333  154.6980 H   0  0  0  0  0  0  0  0  0  0  0  0  # atno 10763 bound_to 10752
  153.7610  135.6932  153.4930 H   0  0  0  0  0  0  0  0  0  0  0  0  # atno 10764 bound_to 10752
  153.2110  135.4482  155.0329 H   0  0  0  0  0  0  0  0  0  0  0  0  # atno 10765 bound_to 10752
  139.9366  134.9639  156.8433 H   0  0  0  0  0  0  0  0  0  0  0  0  # atno 11005 bound_to 11000
  144.7836  139.6474  143.7144 LP  0  0  0  0  0  0  0  0  0  0  0  0  # atno 17320 bound_to 7965
  146.2286  139.5770  142.9570 LP  0  0  0  0  0  0  0  0  0  0  0  0  # atno 17321 bound_to 7965
  139.7577  143.8682  152.3093 LP  0  0  0  0  0  0  0  0  0  0  0  0  # atno 17342 bound_to 10162
  139.8558  144.7142  150.9159 LP  0  0  0  0  0  0  0  0  0  0  0  0  # atno 17343 bound_to 10162
  156.5986  130.8537  151.3426 LP  0  0  0  0  0  0  0  0  0  0  0  0  # atno 17370 bound_to 10713
  157.7268  130.9634  150.1671 LP  0  0  0  0  0  0  0  0  0  0  0  0  # atno 17371 bound_to 10713
  140.6060  134.0127  155.7556 LP  0  0  0  0  0  0  0  0  0  0  0  0  # atno 17394 bound_to 11000
  141.0982  133.9809  157.3123 LP  0  0  0  0  0  0  0  0  0  0  0  0  # atno 17395 bound_to 11000

$$$$
