AV-unprocessed.smi:34|AV-procd|sdf|238|dock4
  -GOLD-   2262015583D 1   1.00000     0.00000
 Structure written by MMmdl.
 54 58  0  0  0  0  0  0  0  0  2 V2000
  146.0703  132.4392  162.1449 O   0  0  0  0  0  0  0  0  0  0  0  0
  146.2582  133.6449  161.9691 C   0  0  0  0  0  0  0  0  0  0  0  0
  147.4034  134.2621  161.5829 N   0  5  0  0  0  0  0  0  0  0  0  0
  147.7059  134.3611  160.2796 C   0  0  0  0  0  0  0  0  0  0  0  0
  147.5655  133.2885  159.4601 N   0  0  0  0  0  0  0  0  0  0  0  0
  147.8785  133.3841  158.1631 C   0  0  0  0  0  0  0  0  0  0  0  0
  148.3476  134.4376  157.4882 N   0  0  0  0  0  0  0  0  0  0  0  0
  148.5007  135.5233  158.3009 C   0  0  0  0  0  0  0  0  0  0  0  0
  148.2043  135.5579  159.6953 C   0  0  0  0  0  0  0  0  0  0  0  0
  148.4715  136.8110  160.2257 N   0  0  0  0  0  0  0  0  0  0  0  0
  148.9058  137.4683  159.1536 C   0  0  0  0  0  0  0  0  0  0  0  0
  148.9546  136.7964  157.9860 N   0  0  0  0  0  0  0  0  0  0  0  0
  149.4111  137.3362  156.6635 C   0  0  1  0  0  0  0  0  0  0  0  0
  149.9622  138.6086  156.8425 O   0  0  0  0  0  0  0  0  0  0  0  0
  151.3355  138.6038  156.4639 C   0  0  2  0  0  0  0  0  0  0  0  0
  151.7687  139.9911  155.9747 C   0  0  0  0  0  0  0  0  0  0  0  0
  151.4714  140.9574  156.9700 O   0  0  0  0  0  0  0  0  0  0  0  0
  152.2718  141.0849  158.0464 C   0  0  0  0  0  0  0  0  0  0  0  0
  153.0820  140.2257  158.4000 O   0  0  0  0  0  0  0  0  0  0  0  0
  152.0697  142.3728  158.7706 C   0  0  0  0  0  0  0  0  0  0  0  0
  151.4479  143.4533  158.1020 C   0  0  0  0  0  0  0  0  0  0  0  0
  151.2455  144.6828  158.7586 C   0  0  0  0  0  0  0  0  0  0  0  0
  151.6606  144.8464  160.0931 C   0  0  0  0  0  0  0  0  0  0  0  0
  152.2789  143.7789  160.7700 C   0  0  0  0  0  0  0  0  0  0  0  0
  152.4837  142.5490  160.1143 C   0  0  0  0  0  0  0  0  0  0  0  0
  151.4355  137.4854  155.4254 C   0  0  2  0  0  0  0  0  0  0  0  0
  151.0071  137.9061  154.2333 F   0  0  0  0  0  0  0  0  0  0  0  0
  150.4678  136.4504  155.9696 C   0  0  1  0  0  0  0  0  0  0  0  0
  151.1306  135.5371  156.8258 O   0  0  0  0  0  0  0  0  0  0  0  0
  145.1356  134.6049  162.2611 C   0  0  0  0  0  0  0  0  0  0  0  0
  143.8924  134.1112  162.7188 C   0  0  0  0  0  0  0  0  0  0  0  0
  142.8221  134.9909  162.9731 C   0  0  0  0  0  0  0  0  0  0  0  0
  142.9804  136.3737  162.7639 C   0  0  0  0  0  0  0  0  0  0  0  0
  144.2087  136.8757  162.2952 C   0  0  0  0  0  0  0  0  0  0  0  0
  145.2796  135.9967  162.0406 C   0  0  0  0  0  0  0  0  0  0  0  0
  147.7328  132.4857  157.5819 H   0  0  0  0  0  0  0  0  0  0  0  0
  149.2065  138.5035  159.2215 H   0  0  0  0  0  0  0  0  0  0  0  0
  148.4967  137.4348  156.0771 H   0  0  0  0  0  0  0  0  0  0  0  0
  151.9287  138.3301  157.3363 H   0  0  0  0  0  0  0  0  0  0  0  0
  152.8338  139.9944  155.7388 H   0  0  0  0  0  0  0  0  0  0  0  0
  151.2321  140.2471  155.0604 H   0  0  0  0  0  0  0  0  0  0  0  0
  151.1222  143.3517  157.0765 H   0  0  0  0  0  0  0  0  0  0  0  0
  150.7712  145.5009  158.2366 H   0  0  0  0  0  0  0  0  0  0  0  0
  151.5047  145.7891  160.5968 H   0  0  0  0  0  0  0  0  0  0  0  0
  152.5971  143.9028  161.7947 H   0  0  0  0  0  0  0  0  0  0  0  0
  152.9600  141.7497  160.6633 H   0  0  0  0  0  0  0  0  0  0  0  0
  152.4512  137.1115  155.2899 H   0  0  0  0  0  0  0  0  0  0  0  0
  149.9944  135.8783  155.1707 H   0  0  0  0  0  0  0  0  0  0  0  0
  150.7497  134.6804  156.7049 H   0  0  0  0  0  0  0  0  0  0  0  0
  143.7539  133.0521  162.8831 H   0  0  0  0  0  0  0  0  0  0  0  0
  141.8784  134.6033  163.3278 H   0  0  0  0  0  0  0  0  0  0  0  0
  142.1596  137.0478  162.9584 H   0  0  0  0  0  0  0  0  0  0  0  0
  144.3301  137.9356  162.1277 H   0  0  0  0  0  0  0  0  0  0  0  0
  146.2105  136.4019  161.6708 H   0  0  0  0  0  0  0  0  0  0  0  0
  1  2  2  0  0  0  0
  2  3  1  0  0  0  0
  2 30  1  0  0  0  0
  3  4  1  0  0  0  0
  4  9  1  0  0  0  0
  4  5  2  0  0  0  0
  5  6  1  0  0  0  0
  6  7  2  0  0  0  0
  6 36  1  0  0  0  0
  7  8  1  0  0  0  0
  8 12  1  0  0  0  0
  8  9  2  0  0  0  0
  9 10  1  0  0  0  0
 10 11  2  0  0  0  0
 11 12  1  0  0  0  0
 11 37  1  0  0  0  0
 12 13  1  0  0  0  0
 13 28  1  0  0  0  0
 13 14  1  0  0  0  0
 13 38  1  0  0  0  0
 14 15  1  0  0  0  0
 15 16  1  0  0  0  0
 15 26  1  0  0  0  0
 15 39  1  0  0  0  0
 16 17  1  0  0  0  0
 16 40  1  0  0  0  0
 16 41  1  0  0  0  0
 17 18  1  0  0  0  0
 18 19  2  0  0  0  0
 18 20  1  0  0  0  0
 20 25  1  0  0  0  0
 20 21  2  0  0  0  0
 21 22  1  0  0  0  0
 21 42  1  0  0  0  0
 22 23  2  0  0  0  0
 22 43  1  0  0  0  0
 23 24  1  0  0  0  0
 23 44  1  0  0  0  0
 24 25  2  0  0  0  0
 24 45  1  0  0  0  0
 25 46  1  0  0  0  0
 26 27  1  0  0  0  0
 26 28  1  0  0  0  0
 26 47  1  0  0  0  0
 28 29  1  0  0  0  0
 28 48  1  0  0  0  0
 29 49  1  0  0  0  0
 30 35  1  0  0  0  0
 30 31  2  0  0  0  0
 31 32  1  0  0  0  0
 31 50  1  0  0  0  0
 32 33  2  0  0  0  0
 32 51  1  0  0  0  0
 33 34  1  0  0  0  0
 33 52  1  0  0  0  0
 34 35  2  0  0  0  0
 34 53  1  0  0  0  0
 35 54  1  0  0  0  0
M  CHG  1   3  -1
M  END
> <s_m_source_file>
AV-unprocessed.smi

> <i_m_source_file_index>
34

> <i_lp_mmshare_version>
43012

> <i_f3d_flags>
0

> <s_epik_input>
W2NIXTFbY0hdW2NIXVtjSF1bY0hdYzFDKD1PKVtOSF1jKG5bY0hdbjIpYyhjMjMpbltjSF1uM1tDQEBIXTRPW0NASF0oW0NAQEhdKEYpW0NASF00W09IXSlbQ0gyXU9DKD1PKWM1W2NIXVtjSF1bY0hdW2NIXVtjSF01

> <s_epik_cmdline>
J2VwaWtfcHl0aG9uJywgJy1waCcsICc3LjAnLCAnLXRuJywgJzgnLCAnLW1hJywgJzIwMCcsICctbWV0YWxfYmluZGluZycsICctaW1hZScsICc8aW5maWxlLm1hZT4nLCAnLW9tYWUnLCAnPG91dGZpbGUubWFlPic=

> <r_lp_tautomer_probability>
1

> <r_epik_Ionization_Penalty>
4.33227

> <r_epik_Ionization_Penalty_Charging>
3.41027

> <r_epik_Ionization_Penalty_Neutral>
0.922001

> <r_epik_State_Penalty>
3.41358

> <r_epik_Charging_Adjusted_Penalty>
6.82385

> <i_epik_Tot_Q>
-1

> <i_epik_Tot_abs_Q>
1

> <r_epik_Metal_State_Penalty>
0.496292

> <b_epik_Metal_Only>
1

> <s_epik_Chemistry_Notes>
This compound has an ester and may undergo hydrolysis at high or low pH. This compound contains an acetal/aminal-like group ( X-CH(R)-Y where X, Y are N, S, or O) that may be acid/base labile, releasing an aldehyde.

> <s_lp_Force_Field>
OPLS_2005

> <r_lp_Energy>
49.908

> <b_lp_Chiralities_Consistent>
1

> <s_lp_Variant>
AV-unprocessed.smi:34-24

> <Gold.Version>
5.8.1

> <Gold.Id.Protein>
6NUR|6NUR_protein|mol2

> <Gold.PLP.Fitness>
60.0334

> <Gold.PLP.PLP>
-58.0107

> <Gold.PLP.part.hbond>
-2.6966

> <Gold.PLP.part.metal>
0.0000

> <Gold.PLP.part.buried>
-7.3174

> <Gold.PLP.part.nonpolar>
-47.9395

> <Gold.PLP.part.repulsive>
0.0628

> <Gold.PLP.ligand.clash>
0.0000

> <Gold.PLP.ligand.torsion>
1.7525

> <Gold.PLP.Chemscore.Hbond>
1.6825

> <Gold.PLP.Chemscore.CHOScore>
0.0000

> <Gold.PLP.Chemscore.Metal>
0.0000

> <Gold.Chemscore.Hbonds>
donor molecule, donor type, donor heavy atom, donor atom, acceptor molecule, acceptor atom, score
      P1  H  6931  6943       L1    10  0.30
      P1  H  7997  8010       L1    19  0.86

> <Gold.PLP.Chemscore.Internal.Correction>
0.4803

> <Gold.Rescore>
     Score         DG    S(hbond)    S(metal)    S(lipo)     H(rot)  DE(clash)    DE(int)     intcor
     14.81     -16.43       0.71        0.00     132.19       2.69       0.04       1.57       ----

> <Gold.Chemscore.Fitness>
14.8121

> <Gold.Chemscore.DG>
-16.4275

> <Gold.Chemscore.ZeroCoef>
-5.4800

> <Gold.Chemscore.Hbond>
0.7124

> <Gold.Chemscore.Metal>
0.0000

> <Gold.Chemscore.Lipo>
132.1857

> <Gold.Chemscore.Internal_Hbond>
0.0000

> <Gold.Chemscore.DEClash>
0.0414

> <Gold.Chemscore.DEInternal>
1.5740

> <Gold.Chemscore.Rot>
2.6944

> <Gold.Chemscore.Internal.Correction>
   9.000000E+99

> <Gold.Chemscore.Hbonds>
donor molecule, donor type, donor heavy atom, donor atom, acceptor molecule, acceptor atom, score
      P1  H  6931  6943       L1    10  0.09
      P1  H  7997  8010       L1    19  0.69

> <Gold.Chemscore.Hbond.Weighted>
-2.3794

> <Gold.Chemscore.Metal.Weighted>
-0.0000

> <Gold.Chemscore.Lipo.Weighted>
-15.4657

> <Gold.Chemscore.Internal_Hbond.Weighted>
0.0000

> <Gold.Chemscore.DEClash.Weighted>
0.0414

> <Gold.Chemscore.DEInternal.Weighted>
1.5740

> <Gold.Chemscore.Rot.Weighted>
6.8975

> <Gold.Chemscore.Internal.Correction.Weighted>
   9.000000E+99

> <Gold.Protein.RotatedTorsions>
[ 6907 6896 6895 6894 ] final  104.63 input  -60.11 | X-H torsion
[ 7974 7965 7964 7962 ] final   62.77 input  175.53 | X-H torsion
[ 8008 7997 7996 7995 ] final   27.26 input   59.86 | X-H torsion
[ 10167 10162 10161 10158 ] final  -43.00 input  -65.29 | X-H torsion
[ 10718 10713 10712 10709 ] final   94.66 input   66.30 | X-H torsion
[ 10763 10752 10751 10750 ] final -150.33 input  -60.55 | X-H torsion
[ 11005 11000 10999 10996 ] final -122.13 input  -57.11 | X-H torsion

> <Gold.Protein.ActiveResidues>
 VAL166  LYS551  ARG553  GLY616  TRP617  ASP618  TYR619  PRO620  LYS621  CYS622 
 ASP623  PHE694  ASN695  SER759  ASP760  ASP761  ALA762  ILE779  LEU786  VAL792 
 PHE793  MET794  SER795  GLU796  ALA797  LYS798  CYS799  TRP800  GLU811  SER814 

> <Gold.Protein.RotatedAtoms>
  152.5258  133.9647  159.7733 H   0  0  0  0  0  0  0  0  0  0  0  0  # atno 6907 bound_to 6896
  150.9931  133.6122  159.2712 H   0  0  0  0  0  0  0  0  0  0  0  0  # atno 6908 bound_to 6896
  151.3258  135.0836  159.9374 H   0  0  0  0  0  0  0  0  0  0  0  0  # atno 6909 bound_to 6896
  145.8695  139.3368  143.0771 H   0  0  0  0  0  0  0  0  0  0  0  0  # atno 7974 bound_to 7965
  155.0402  140.3168  155.4727 H   0  0  0  0  0  0  0  0  0  0  0  0  # atno 8008 bound_to 7997
  156.2856  140.2164  156.5468 H   0  0  0  0  0  0  0  0  0  0  0  0  # atno 8009 bound_to 7997
  154.7296  140.0482  157.0702 H   0  0  0  0  0  0  0  0  0  0  0  0  # atno 8010 bound_to 7997
  140.6949  143.3007  151.3289 H   0  0  0  0  0  0  0  0  0  0  0  0  # atno 10167 bound_to 10162
  157.6946  131.0519  150.4220 H   0  0  0  0  0  0  0  0  0  0  0  0  # atno 10718 bound_to 10713
  154.8125  135.3287  154.7266 H   0  0  0  0  0  0  0  0  0  0  0  0  # atno 10763 bound_to 10752
  153.7913  135.6911  153.4875 H   0  0  0  0  0  0  0  0  0  0  0  0  # atno 10764 bound_to 10752
  153.1915  135.4549  155.0101 H   0  0  0  0  0  0  0  0  0  0  0  0  # atno 10765 bound_to 10752
  141.0018  134.0392  157.3528 H   0  0  0  0  0  0  0  0  0  0  0  0  # atno 11005 bound_to 11000
  145.9153  140.9152  143.0433 LP  0  0  0  0  0  0  0  0  0  0  0  0  # atno 17320 bound_to 7965
  144.6726  140.1215  143.7449 LP  0  0  0  0  0  0  0  0  0  0  0  0  # atno 17321 bound_to 7965
  139.6393  144.0569  152.2542 LP  0  0  0  0  0  0  0  0  0  0  0  0  # atno 17342 bound_to 10162
  140.0069  144.6252  150.7681 LP  0  0  0  0  0  0  0  0  0  0  0  0  # atno 17343 bound_to 10162
  156.4594  130.4028  149.6586 LP  0  0  0  0  0  0  0  0  0  0  0  0  # atno 17370 bound_to 10713
  156.3706  130.7528  151.2511 LP  0  0  0  0  0  0  0  0  0  0  0  0  # atno 17371 bound_to 10713
  139.9042  135.0175  156.7412 LP  0  0  0  0  0  0  0  0  0  0  0  0  # atno 17394 bound_to 11000
  140.6877  133.9418  155.7947 LP  0  0  0  0  0  0  0  0  0  0  0  0  # atno 17395 bound_to 11000

$$$$
