AV-unprocessed.smi:2976|AV-procd|sdf|11366|dock9
  -GOLD-   2272016283D 1   1.00000     0.00000
 Structure written by MMmdl.
 40 41  0  0  0  0  0  0  0  0  1 V2000
  150.4131  142.2610  158.0355 C   0  0  0  0  0  0  0  0  0  0  0  0
  150.4108  140.9937  157.1621 C   0  0  1  0  0  0  0  0  0  0  0  0
  149.7294  141.2949  155.8109 C   0  0  0  0  0  0  0  0  0  0  0  0
  149.6874  140.0644  154.8955 C   0  0  0  0  0  0  0  0  0  0  0  0
  151.0980  139.5023  154.6684 C   0  0  0  0  0  0  0  0  0  0  0  0
  151.8019  139.1745  155.9997 C   0  0  2  0  0  0  0  0  0  0  0  0
  151.1555  138.0415  156.6572 N   0  0  0  0  0  0  0  0  0  0  0  0
  151.1225  136.7721  156.2198 C   0  0  0  0  0  0  0  0  0  0  0  0
  151.6507  136.4123  155.1687 O   0  0  0  0  0  0  0  0  0  0  0  0
  150.3826  135.7366  157.0855 C   0  0  0  0  0  0  0  0  0  0  0  0
  150.2907  134.3937  156.4866 N   0  0  0  0  0  0  0  0  0  0  0  0
  150.9525  133.4114  157.2031 N   0  0  0  0  0  0  0  0  0  0  0  0
  150.9819  132.2060  156.7490 C   0  0  0  0  0  0  0  0  0  0  0  0
  150.3392  131.8347  155.5079 C   0  0  0  0  0  0  0  0  0  0  0  0
  150.4146  130.2016  154.9476 Cl  0  0  0  0  0  0  0  0  0  0  0  0
  149.6871  132.8032  154.8171 C   0  0  0  0  0  0  0  0  0  0  0  0
  148.8969  132.4365  153.3221 Cl  0  0  0  0  0  0  0  0  0  0  0  0
  149.6343  134.1888  155.3029 C   0  0  0  0  0  0  0  0  0  0  0  0
  149.0666  135.0987  154.6976 O   0  0  0  0  0  0  0  0  0  0  0  0
  151.8340  140.4054  156.9429 C   0  0  2  0  0  0  0  0  0  0  0  0
  152.5582  140.0751  158.2647 C   0  0  0  0  0  0  0  0  0  0  0  0
  151.0540  143.0341  157.6107 H   0  0  0  0  0  0  0  0  0  0  0  0
  150.7592  142.0552  159.0479 H   0  0  0  0  0  0  0  0  0  0  0  0
  149.4088  142.6760  158.1238 H   0  0  0  0  0  0  0  0  0  0  0  0
  149.8063  140.2468  157.6789 H   0  0  0  0  0  0  0  0  0  0  0  0
  148.7129  141.6532  155.9777 H   0  0  0  0  0  0  0  0  0  0  0  0
  150.2590  142.1030  155.3042 H   0  0  0  0  0  0  0  0  0  0  0  0
  149.0469  139.2992  155.3359 H   0  0  0  0  0  0  0  0  0  0  0  0
  149.2362  140.3289  153.9391 H   0  0  0  0  0  0  0  0  0  0  0  0
  151.0495  138.6168  154.0338 H   0  0  0  0  0  0  0  0  0  0  0  0
  151.6918  140.2342  154.1195 H   0  0  0  0  0  0  0  0  0  0  0  0
  152.8340  138.8963  155.7775 H   0  0  0  0  0  0  0  0  0  0  0  0
  150.6907  138.2412  157.5309 H   0  0  0  0  0  0  0  0  0  0  0  0
  150.8959  135.6769  158.0468 H   0  0  0  0  0  0  0  0  0  0  0  0
  149.3870  136.1198  157.3161 H   0  0  0  0  0  0  0  0  0  0  0  0
  151.4935  131.4010  157.2766 H   0  0  0  0  0  0  0  0  0  0  0  0
  152.4294  141.1703  156.4416 H   0  0  0  0  0  0  0  0  0  0  0  0
  151.9643  139.4140  158.8972 H   0  0  0  0  0  0  0  0  0  0  0  0
  152.7774  140.9748  158.8389 H   0  0  0  0  0  0  0  0  0  0  0  0
  153.5122  139.5824  158.0748 H   0  0  0  0  0  0  0  0  0  0  0  0
  1  2  1  0  0  0  0
  1 22  1  0  0  0  0
  1 23  1  0  0  0  0
  1 24  1  0  0  0  0
  2 20  1  0  0  0  0
  2  3  1  0  0  0  0
  2 25  1  0  0  0  0
  3  4  1  0  0  0  0
  3 26  1  0  0  0  0
  3 27  1  0  0  0  0
  4  5  1  0  0  0  0
  4 28  1  0  0  0  0
  4 29  1  0  0  0  0
  5  6  1  0  0  0  0
  5 30  1  0  0  0  0
  5 31  1  0  0  0  0
  6  7  1  0  0  0  0
  6 20  1  0  0  0  0
  6 32  1  0  0  0  0
  7  8  1  0  0  0  0
  7 33  1  0  0  0  0
  8  9  2  0  0  0  0
  8 10  1  0  0  0  0
 10 11  1  0  0  0  0
 10 34  1  0  0  0  0
 10 35  1  0  0  0  0
 11 18  1  0  0  0  0
 11 12  1  0  0  0  0
 12 13  2  0  0  0  0
 13 14  1  0  0  0  0
 13 36  1  0  0  0  0
 14 15  1  0  0  0  0
 14 16  2  0  0  0  0
 16 17  1  0  0  0  0
 16 18  1  0  0  0  0
 18 19  2  0  0  0  0
 20 21  1  0  0  0  0
 20 37  1  0  0  0  0
 21 38  1  0  0  0  0
 21 39  1  0  0  0  0
 21 40  1  0  0  0  0
M  END
> <s_m_source_file>
AV-unprocessed.smi

> <i_m_source_file_index>
2976

> <i_lp_mmshare_version>
43012

> <i_f3d_flags>
0

> <s_epik_input>
W0NIM11bQ0BASF0xW0NIMl1bQ0gyXVtDSDJdW0NASF0oW0NASF0xW0NIM10pW05IXUMoPU8pW0NIMl1uMm5bY0hdYyhDbCljKENsKWMyPU8=

> <s_epik_cmdline>
J2VwaWtfcHl0aG9uJywgJy1waCcsICc3LjAnLCAnLXRuJywgJzgnLCAnLW1hJywgJzIwMCcsICctbWV0YWxfYmluZGluZycsICctaW1hZScsICc8aW5maWxlLm1hZT4nLCAnLW9tYWUnLCAnPG91dGZpbGUubWFlPic=

> <r_lp_tautomer_probability>
1

> <r_epik_Ionization_Penalty>
1.90777e-08

> <r_epik_Ionization_Penalty_Charging>
3.07942e-11

> <r_epik_Ionization_Penalty_Neutral>
1.90469e-08

> <r_epik_State_Penalty>
-0

> <r_epik_Charging_Adjusted_Penalty>
3.07942e-11

> <i_epik_Tot_Q>
0

> <i_epik_Tot_abs_Q>
0

> <r_epik_Metal_State_Penalty>
-0

> <b_epik_Metal_Only>
0

> <s_lp_Force_Field>
OPLS_2005

> <r_lp_Energy>
24.1651

> <b_lp_Chiralities_Consistent>
1

> <s_lp_Variant>
AV-unprocessed.smi:2976-8

> <Gold.Version>
5.8.1

> <Gold.Id.Protein>
6NUR|6NUR_protein|mol2

> <Gold.PLP.Fitness>
39.0077

> <Gold.PLP.PLP>
-33.8456

> <Gold.PLP.part.hbond>
-2.0000

> <Gold.PLP.part.metal>
0.0000

> <Gold.PLP.part.buried>
-2.9068

> <Gold.PLP.part.nonpolar>
-30.4339

> <Gold.PLP.part.repulsive>
0.9276

> <Gold.PLP.ligand.clash>
0.0000

> <Gold.PLP.ligand.torsion>
0.1002

> <Gold.PLP.Chemscore.Hbond>
1.7840

> <Gold.PLP.Chemscore.CHOScore>
0.0000

> <Gold.PLP.Chemscore.Metal>
0.0000

> <Gold.Chemscore.Hbonds>
donor molecule, donor type, donor heavy atom, donor atom, acceptor molecule, acceptor atom, score
      P1  H  6896  6909       L1    12  0.78
      P1  H 10752 10764       L1     9  1.00

> <Gold.PLP.Chemscore.Internal.Correction>
0.0105

> <Gold.Rescore>
     Score         DG    S(hbond)    S(metal)    S(lipo)     H(rot)  DE(clash)    DE(int)     intcor
     16.73     -16.94       1.79        0.00      79.35       1.49       0.01       0.20       ----

> <Gold.Chemscore.Fitness>
16.7258

> <Gold.Chemscore.DG>
-16.9382

> <Gold.Chemscore.ZeroCoef>
-5.4800

> <Gold.Chemscore.Hbond>
1.7902

> <Gold.Chemscore.Metal>
0.0000

> <Gold.Chemscore.Lipo>
79.3549

> <Gold.Chemscore.Internal_Hbond>
0.0000

> <Gold.Chemscore.DEClash>
0.0116

> <Gold.Chemscore.DEInternal>
0.2008

> <Gold.Chemscore.Rot>
1.4866

> <Gold.Chemscore.Internal.Correction>
   9.000000E+99

> <Gold.Chemscore.Hbonds>
donor molecule, donor type, donor heavy atom, donor atom, acceptor molecule, acceptor atom, score
      P1  H  6896  6909       L1    12  0.65
      P1  H 10752 10764       L1     9  0.99

> <Gold.Chemscore.Hbond.Weighted>
-5.9793

> <Gold.Chemscore.Metal.Weighted>
-0.0000

> <Gold.Chemscore.Lipo.Weighted>
-9.2845

> <Gold.Chemscore.Internal_Hbond.Weighted>
0.0000

> <Gold.Chemscore.DEClash.Weighted>
0.0116

> <Gold.Chemscore.DEInternal.Weighted>
0.2008

> <Gold.Chemscore.Rot.Weighted>
3.8057

> <Gold.Chemscore.Internal.Correction.Weighted>
   9.000000E+99

> <Gold.Protein.RotatedTorsions>
[ 6907 6896 6895 6894 ] final  -23.23 input  -60.11 | X-H torsion
[ 7974 7965 7964 7962 ] final -148.41 input  175.53 | X-H torsion
[ 8008 7997 7996 7995 ] final   75.72 input   59.86 | X-H torsion
[ 10167 10162 10161 10158 ] final   88.45 input  -65.29 | X-H torsion
[ 10718 10713 10712 10709 ] final  -43.68 input   66.30 | X-H torsion
[ 10763 10752 10751 10750 ] final  -43.77 input  -60.55 | X-H torsion
[ 11005 11000 10999 10996 ] final  -30.44 input  -57.11 | X-H torsion

> <Gold.Protein.ActiveResidues>
 VAL166  LYS551  ARG553  GLY616  TRP617  ASP618  TYR619  PRO620  LYS621  CYS622 
 ASP623  PHE694  ASN695  SER759  ASP760  ASP761  ALA762  ILE779  LEU786  VAL792 
 PHE793  MET794  SER795  GLU796  ALA797  LYS798  CYS799  TRP800  GLU811  SER814 

> <Gold.Protein.RotatedAtoms>
  151.2070  135.0466  159.8895 H   0  0  0  0  0  0  0  0  0  0  0  0  # atno 6907 bound_to 6896
  152.5428  134.0787  159.8236 H   0  0  0  0  0  0  0  0  0  0  0  0  # atno 6908 bound_to 6896
  151.0935  133.5250  159.2645 H   0  0  0  0  0  0  0  0  0  0  0  0  # atno 6909 bound_to 6896
  144.8031  140.5199  143.5693 H   0  0  0  0  0  0  0  0  0  0  0  0  # atno 7974 bound_to 7965
  155.8169  140.3471  155.5491 H   0  0  0  0  0  0  0  0  0  0  0  0  # atno 8008 bound_to 7997
  155.8382  140.0937  157.1771 H   0  0  0  0  0  0  0  0  0  0  0  0  # atno 8009 bound_to 7997
  154.4004  140.1399  156.3684 H   0  0  0  0  0  0  0  0  0  0  0  0  # atno 8010 bound_to 7997
  139.8671  144.6513  150.8991 H   0  0  0  0  0  0  0  0  0  0  0  0  # atno 10167 bound_to 10162
  156.2464  130.4184  149.8700 H   0  0  0  0  0  0  0  0  0  0  0  0  # atno 10718 bound_to 10713
  154.0010  135.6693  153.4759 H   0  0  0  0  0  0  0  0  0  0  0  0  # atno 10763 bound_to 10752
  153.0662  135.4999  154.8201 H   0  0  0  0  0  0  0  0  0  0  0  0  # atno 10764 bound_to 10752
  154.7052  135.3086  154.9244 H   0  0  0  0  0  0  0  0  0  0  0  0  # atno 10765 bound_to 10752
  140.9383  133.7295  156.1037 H   0  0  0  0  0  0  0  0  0  0  0  0  # atno 11005 bound_to 11000
  145.5505  139.1476  143.3397 LP  0  0  0  0  0  0  0  0  0  0  0  0  # atno 17320 bound_to 7965
  146.2317  140.5643  142.8972 LP  0  0  0  0  0  0  0  0  0  0  0  0  # atno 17321 bound_to 7965
  140.7766  143.3695  151.1676 LP  0  0  0  0  0  0  0  0  0  0  0  0  # atno 17342 bound_to 10162
  139.7318  143.9060  152.3022 LP  0  0  0  0  0  0  0  0  0  0  0  0  # atno 17343 bound_to 10162
  156.6263  130.8647  151.3486 LP  0  0  0  0  0  0  0  0  0  0  0  0  # atno 17370 bound_to 10713
  157.7197  130.9542  150.1389 LP  0  0  0  0  0  0  0  0  0  0  0  0  # atno 17371 bound_to 10713
  140.7769  134.3769  157.5496 LP  0  0  0  0  0  0  0  0  0  0  0  0  # atno 17394 bound_to 11000
  139.8813  134.9057  156.2907 LP  0  0  0  0  0  0  0  0  0  0  0  0  # atno 17395 bound_to 11000

$$$$
