AV-unprocessed.smi:739|AV-procd|sdf|3542|dock6
  -GOLD-   22720 0533D 1   1.00000     0.00000
 Structure written by MMmdl.
 32 34  0  0  0  0  0  0  0  0  1 V2000
  149.2488  142.2777  156.0332 O   0  0  0  0  0  0  0  0  0  0  0  0
  150.0183  141.4859  156.9146 C   0  0  2  0  0  0  0  0  0  0  0  0
  151.3704  142.1907  157.1414 C   0  0  0  0  0  0  0  0  0  0  0  0
  151.3646  143.0166  158.3357 N   0  0  0  0  0  0  0  0  0  0  0  0
  150.6906  144.1680  158.5201 C   0  0  0  0  0  0  0  0  0  0  0  0
  150.8107  144.7614  159.7041 N   0  0  0  0  0  0  0  0  0  0  0  0
  151.6645  143.8957  160.3658 C   0  0  0  0  0  0  0  0  0  0  0  0
  152.1889  143.9489  161.6769 C   0  0  0  0  0  0  0  0  0  0  0  0
  153.0520  142.9358  162.1437 C   0  0  0  0  0  0  0  0  0  0  0  0
  153.5447  143.0021  163.4034 F   0  0  0  0  0  0  0  0  0  0  0  0
  153.4038  141.8558  161.3068 C   0  0  0  0  0  0  0  0  0  0  0  0
  154.2318  140.8861  161.7627 F   0  0  0  0  0  0  0  0  0  0  0  0
  152.8951  141.7824  159.9963 C   0  0  0  0  0  0  0  0  0  0  0  0
  152.0332  142.7947  159.5354 C   0  0  0  0  0  0  0  0  0  0  0  0
  150.1873  140.0596  156.4084 C   0  0  0  0  0  0  0  0  0  0  0  0
  150.9108  139.8146  155.2209 C   0  0  0  0  0  0  0  0  0  0  0  0
  151.0446  138.5019  154.7286 C   0  0  0  0  0  0  0  0  0  0  0  0
  150.4576  137.4261  155.4215 C   0  0  0  0  0  0  0  0  0  0  0  0
  150.5857  136.1642  154.9476 F   0  0  0  0  0  0  0  0  0  0  0  0
  149.7364  137.6634  156.6071 C   0  0  0  0  0  0  0  0  0  0  0  0
  149.6008  138.9760  157.0993 C   0  0  0  0  0  0  0  0  0  0  0  0
  149.5740  143.1645  156.0659 H   0  0  0  0  0  0  0  0  0  0  0  0
  149.4718  141.4583  157.8585 H   0  0  0  0  0  0  0  0  0  0  0  0
  152.1811  141.4647  157.2156 H   0  0  0  0  0  0  0  0  0  0  0  0
  151.6056  142.8335  156.2918 H   0  0  0  0  0  0  0  0  0  0  0  0
  150.0719  144.5913  157.7422 H   0  0  0  0  0  0  0  0  0  0  0  0
  151.9260  144.7705  162.3267 H   0  0  0  0  0  0  0  0  0  0  0  0
  153.1613  140.9552  159.3555 H   0  0  0  0  0  0  0  0  0  0  0  0
  151.3568  140.6344  154.6772 H   0  0  0  0  0  0  0  0  0  0  0  0
  151.5952  138.3206  153.8173 H   0  0  0  0  0  0  0  0  0  0  0  0
  149.2839  136.8388  157.1378 H   0  0  0  0  0  0  0  0  0  0  0  0
  149.0363  139.1492  158.0038 H   0  0  0  0  0  0  0  0  0  0  0  0
  1  2  1  0  0  0  0
  1 22  1  0  0  0  0
  2  3  1  0  0  0  0
  2 15  1  0  0  0  0
  2 23  1  0  0  0  0
  3  4  1  0  0  0  0
  3 24  1  0  0  0  0
  3 25  1  0  0  0  0
  4 14  1  0  0  0  0
  4  5  1  0  0  0  0
  5  6  2  0  0  0  0
  5 26  1  0  0  0  0
  6  7  1  0  0  0  0
  7 14  2  0  0  0  0
  7  8  1  0  0  0  0
  8  9  2  0  0  0  0
  8 27  1  0  0  0  0
  9 10  1  0  0  0  0
  9 11  1  0  0  0  0
 11 12  1  0  0  0  0
 11 13  2  0  0  0  0
 13 14  1  0  0  0  0
 13 28  1  0  0  0  0
 15 21  1  0  0  0  0
 15 16  2  0  0  0  0
 16 17  1  0  0  0  0
 16 29  1  0  0  0  0
 17 18  2  0  0  0  0
 17 30  1  0  0  0  0
 18 19  1  0  0  0  0
 18 20  1  0  0  0  0
 20 21  2  0  0  0  0
 20 31  1  0  0  0  0
 21 32  1  0  0  0  0
M  END
> <s_m_source_file>
AV-unprocessed.smi

> <i_m_source_file_index>
739

> <i_lp_mmshare_version>
43012

> <i_f3d_flags>
0

> <s_epik_input>
W2NIXTFbY0hdYyhGKVtjSF1bY0hdYzFbQ0BIXShbT0hdKVtDSDJdbihbY0hdbjIpYyhjMjMpW2NIXWMoRiljKEYpW2NIXTM=

> <s_epik_cmdline>
J2VwaWtfcHl0aG9uJywgJy1waCcsICc3LjAnLCAnLXRuJywgJzgnLCAnLW1hJywgJzIwMCcsICctbWV0YWxfYmluZGluZycsICctaW1hZScsICc8aW5maWxlLm1hZT4nLCAnLW9tYWUnLCAnPG91dGZpbGUubWFlPic=

> <r_epik_Ionization_Penalty>
0.0156356

> <r_epik_Ionization_Penalty_Charging>
0

> <r_epik_Ionization_Penalty_Neutral>
0.0156356

> <r_epik_State_Penalty>
0.0122974

> <r_epik_Charging_Adjusted_Penalty>
0.0122974

> <i_epik_Tot_Q>
0

> <i_epik_Tot_abs_Q>
0

> <r_epik_Metal_State_Penalty>
1.24258e-05

> <b_epik_Metal_Only>
0

> <s_lp_Force_Field>
OPLS_2005

> <r_lp_Energy>
11.0566

> <b_lp_Chiralities_Consistent>
1

> <s_lp_Variant>
AV-unprocessed.smi:739-1

> <Gold.Version>
5.8.1

> <Gold.Id.Protein>
6NUR|6NUR_protein|mol2

> <Gold.PLP.Fitness>
52.8769

> <Gold.PLP.PLP>
-48.5812

> <Gold.PLP.part.hbond>
-0.8337

> <Gold.PLP.part.metal>
0.0000

> <Gold.PLP.part.buried>
-5.4681

> <Gold.PLP.part.nonpolar>
-41.9646

> <Gold.PLP.part.repulsive>
0.1407

> <Gold.PLP.ligand.clash>
0.0000

> <Gold.PLP.ligand.torsion>
0.6566

> <Gold.PLP.Chemscore.Hbond>
0.7360

> <Gold.PLP.Chemscore.CHOScore>
1.1264

> <Gold.PLP.Chemscore.Metal>
0.0000

> <Gold.Chemscore.Hbonds>
donor molecule, donor type, donor heavy atom, donor atom, acceptor molecule, acceptor atom, score
      L1  H     1    22       P1  8028  0.67
      L1  C     5    26       P1  8028  0.81
      L1  C     5    26       P1  8029  0.25

> <Gold.PLP.Chemscore.Internal.Correction>
0.0216

> <Gold.Rescore>
     Score         DG    S(hbond)    S(metal)    S(lipo)     H(rot)  DE(clash)    DE(int)     intcor
     14.88     -15.55       0.83        0.00     107.62       2.07       0.04       0.64       ----

> <Gold.Chemscore.Fitness>
14.8762

> <Gold.Chemscore.DG>
-15.5498

> <Gold.Chemscore.ZeroCoef>
-5.4800

> <Gold.Chemscore.Hbond>
0.8315

> <Gold.Chemscore.Metal>
0.0000

> <Gold.Chemscore.Lipo>
107.6234

> <Gold.Chemscore.Internal_Hbond>
0.0000

> <Gold.Chemscore.DEClash>
0.0361

> <Gold.Chemscore.DEInternal>
0.6375

> <Gold.Chemscore.Rot>
2.0700

> <Gold.Chemscore.Internal.Correction>
   9.000000E+99

> <Gold.Chemscore.Hbonds>
donor molecule, donor type, donor heavy atom, donor atom, acceptor molecule, acceptor atom, score
      L1  H     1    22       P1  8028  0.68

> <Gold.Chemscore.Hbond.Weighted>
-2.7771

> <Gold.Chemscore.Metal.Weighted>
-0.0000

> <Gold.Chemscore.Lipo.Weighted>
-12.5919

> <Gold.Chemscore.Internal_Hbond.Weighted>
0.0000

> <Gold.Chemscore.DEClash.Weighted>
0.0361

> <Gold.Chemscore.DEInternal.Weighted>
0.6375

> <Gold.Chemscore.Rot.Weighted>
5.2992

> <Gold.Chemscore.Internal.Correction.Weighted>
   9.000000E+99

> <Gold.Protein.RotatedTorsions>
[ 6907 6896 6895 6894 ] final   85.96 input  -60.11 | X-H torsion
[ 7974 7965 7964 7962 ] final -133.61 input  175.53 | X-H torsion
[ 8008 7997 7996 7995 ] final   64.69 input   59.86 | X-H torsion
[ 10167 10162 10161 10158 ] final   33.08 input  -65.29 | X-H torsion
[ 10718 10713 10712 10709 ] final  -89.75 input   66.30 | X-H torsion
[ 10763 10752 10751 10750 ] final  155.36 input  -60.55 | X-H torsion
[ 11005 11000 10999 10996 ] final   42.18 input  -57.11 | X-H torsion

> <Gold.Protein.ActiveResidues>
 VAL166  LYS551  ARG553  GLY616  TRP617  ASP618  TYR619  PRO620  LYS621  CYS622 
 ASP623  PHE694  ASN695  SER759  ASP760  ASP761  ALA762  ILE779  LEU786  VAL792 
 PHE793  MET794  SER795  GLU796  ALA797  LYS798  CYS799  TRP800  GLU811  SER814 

> <Gold.Protein.RotatedAtoms>
  152.5385  134.2506  159.8896 H   0  0  0  0  0  0  0  0  0  0  0  0  # atno 6907 bound_to 6896
  151.2469  133.4363  159.2617 H   0  0  0  0  0  0  0  0  0  0  0  0  # atno 6908 bound_to 6896
  151.0575  134.9728  159.8299 H   0  0  0  0  0  0  0  0  0  0  0  0  # atno 6909 bound_to 6896
  144.9177  140.6976  143.4985 H   0  0  0  0  0  0  0  0  0  0  0  0  # atno 7974 bound_to 7965
  155.6499  140.3497  155.4744 H   0  0  0  0  0  0  0  0  0  0  0  0  # atno 8008 bound_to 7997
  155.9856  140.1183  157.0709 H   0  0  0  0  0  0  0  0  0  0  0  0  # atno 8009 bound_to 7997
  154.4204  140.1129  156.5481 H   0  0  0  0  0  0  0  0  0  0  0  0  # atno 8010 bound_to 7997
  140.4440  144.1146  150.6179 H   0  0  0  0  0  0  0  0  0  0  0  0  # atno 10167 bound_to 10162
  155.9985  130.4884  150.5219 H   0  0  0  0  0  0  0  0  0  0  0  0  # atno 10718 bound_to 10713
  154.1670  135.2806  155.3092 H   0  0  0  0  0  0  0  0  0  0  0  0  # atno 10763 bound_to 10752
  154.6103  135.5501  153.7470 H   0  0  0  0  0  0  0  0  0  0  0  0  # atno 10764 bound_to 10752
  153.0175  135.6414  154.1811 H   0  0  0  0  0  0  0  0  0  0  0  0  # atno 10765 bound_to 10752
  140.1764  134.4158  155.8226 H   0  0  0  0  0  0  0  0  0  0  0  0  # atno 11005 bound_to 11000
  145.3347  139.1749  143.4518 LP  0  0  0  0  0  0  0  0  0  0  0  0  # atno 17320 bound_to 7965
  146.3190  140.3381  142.8646 LP  0  0  0  0  0  0  0  0  0  0  0  0  # atno 17321 bound_to 7965
  140.4285  143.2579  151.9625 LP  0  0  0  0  0  0  0  0  0  0  0  0  # atno 17342 bound_to 10162
  139.4791  144.5765  151.8002 LP  0  0  0  0  0  0  0  0  0  0  0  0  # atno 17343 bound_to 10162
  157.3179  131.0676  151.1953 LP  0  0  0  0  0  0  0  0  0  0  0  0  # atno 17370 bound_to 10713
  157.2876  130.6780  149.6098 LP  0  0  0  0  0  0  0  0  0  0  0  0  # atno 17371 bound_to 10713
  141.2220  133.6980  156.7853 LP  0  0  0  0  0  0  0  0  0  0  0  0  # atno 17394 bound_to 11000
  140.2318  134.8680  157.3484 LP  0  0  0  0  0  0  0  0  0  0  0  0  # atno 17395 bound_to 11000

$$$$
