AV-unprocessed.smi:2525|AV-procd|sdf|9931|dock8
  -GOLD-   2272013573D 1   1.00000     0.00000
 Structure written by MMmdl.
 44 45  0  0  0  0  0  0  0  0  1 V2000
  152.0148  139.5124  155.2257 C   0  0  0  0  0  0  0  0  0  0  0  0
  151.0993  140.4934  155.9775 C   0  0  0  0  0  0  0  0  0  0  0  0
  150.9470  140.2802  157.5036 C   0  0  0  0  0  0  0  0  0  0  0  0
  149.7559  141.1669  157.9685 C   0  0  0  0  0  0  0  0  0  0  0  0
  149.9948  142.6889  157.9639 C   0  0  0  0  0  0  0  0  0  0  0  0
  150.9267  138.8085  158.0142 C   0  0  2  0  0  0  0  0  0  0  0  0
  149.5956  138.3073  158.3396 N   0  0  0  0  0  0  0  0  0  0  0  0
  149.3430  137.1192  158.9075 C   0  0  0  0  0  0  0  0  0  0  0  0
  150.2217  136.3249  159.2414 O   0  0  0  0  0  0  0  0  0  0  0  0
  147.8709  136.7700  159.1290 C   0  0  0  0  0  0  0  0  0  0  0  0
  147.6233  136.4029  160.5118 N   0  0  0  0  0  0  0  0  0  0  0  0
  147.2803  135.1691  161.0270 C   0  0  0  0  0  0  0  0  0  0  0  0
  147.1861  135.4008  162.3696 C   0  0  0  0  0  0  0  0  0  0  0  0
  147.4706  136.7436  162.6125 N   0  0  0  0  0  0  0  0  0  0  0  0
  147.7311  137.3353  161.4893 N   0  0  0  0  0  0  0  0  0  0  0  0
  151.7348  139.2335  159.2465 C   0  0  1  0  0  0  0  0  0  0  0  0
  152.7165  138.2408  159.8572 C   0  0  0  0  0  0  0  0  0  0  0  0
  152.2512  140.3692  158.3473 C   0  0  2  0  0  0  0  0  0  0  0  0
  152.4174  141.6135  159.0087 O   0  0  0  0  0  0  0  0  0  0  0  0
  153.4107  141.5892  160.0184 C   0  0  0  0  0  0  0  0  0  0  0  0
  152.1248  139.8205  154.1858 H   0  0  0  0  0  0  0  0  0  0  0  0
  151.6005  138.5043  155.2133 H   0  0  0  0  0  0  0  0  0  0  0  0
  153.0143  139.4681  155.6565 H   0  0  0  0  0  0  0  0  0  0  0  0
  151.4863  141.4959  155.7932 H   0  0  0  0  0  0  0  0  0  0  0  0
  150.1219  140.4608  155.4941 H   0  0  0  0  0  0  0  0  0  0  0  0
  148.8825  140.9692  157.3459 H   0  0  0  0  0  0  0  0  0  0  0  0
  149.4505  140.8894  158.9772 H   0  0  0  0  0  0  0  0  0  0  0  0
  149.1390  143.2061  158.3979 H   0  0  0  0  0  0  0  0  0  0  0  0
  150.1202  143.0773  156.9535 H   0  0  0  0  0  0  0  0  0  0  0  0
  150.8711  142.9751  158.5431 H   0  0  0  0  0  0  0  0  0  0  0  0
  151.5086  138.1197  157.4006 H   0  0  0  0  0  0  0  0  0  0  0  0
  148.8128  138.8980  158.0997 H   0  0  0  0  0  0  0  0  0  0  0  0
  147.2388  137.6187  158.8628 H   0  0  0  0  0  0  0  0  0  0  0  0
  147.5822  135.9392  158.4836 H   0  0  0  0  0  0  0  0  0  0  0  0
  147.1430  134.2823  160.4259 H   0  0  0  0  0  0  0  0  0  0  0  0
  146.9411  134.7215  163.1728 H   0  0  0  0  0  0  0  0  0  0  0  0
  151.0741  139.6411  160.0138 H   0  0  0  0  0  0  0  0  0  0  0  0
  153.4232  137.8709  159.1141 H   0  0  0  0  0  0  0  0  0  0  0  0
  152.1947  137.3780  160.2711 H   0  0  0  0  0  0  0  0  0  0  0  0
  153.2913  138.6903  160.6657 H   0  0  0  0  0  0  0  0  0  0  0  0
  153.1360  140.0801  157.7769 H   0  0  0  0  0  0  0  0  0  0  0  0
  153.5136  142.5846  160.4501 H   0  0  0  0  0  0  0  0  0  0  0  0
  154.3804  141.2975  159.6131 H   0  0  0  0  0  0  0  0  0  0  0  0
  153.1447  140.9047  160.8232 H   0  0  0  0  0  0  0  0  0  0  0  0
  1  2  1  0  0  0  0
  1 21  1  0  0  0  0
  1 22  1  0  0  0  0
  1 23  1  0  0  0  0
  2  3  1  0  0  0  0
  2 24  1  0  0  0  0
  2 25  1  0  0  0  0
  3 18  1  0  0  0  0
  3  4  1  0  0  0  0
  3  6  1  0  0  0  0
  4  5  1  0  0  0  0
  4 26  1  0  0  0  0
  4 27  1  0  0  0  0
  5 28  1  0  0  0  0
  5 29  1  0  0  0  0
  5 30  1  0  0  0  0
  6  7  1  0  0  0  0
  6 16  1  0  0  0  0
  6 31  1  0  0  0  0
  7  8  1  0  0  0  0
  7 32  1  0  0  0  0
  8  9  2  0  0  0  0
  8 10  1  0  0  0  0
 10 11  1  0  0  0  0
 10 33  1  0  0  0  0
 10 34  1  0  0  0  0
 11 15  1  0  0  0  0
 11 12  1  0  0  0  0
 12 13  2  0  0  0  0
 12 35  1  0  0  0  0
 13 14  1  0  0  0  0
 13 36  1  0  0  0  0
 14 15  2  0  0  0  0
 16 17  1  0  0  0  0
 16 18  1  0  0  0  0
 16 37  1  0  0  0  0
 17 38  1  0  0  0  0
 17 39  1  0  0  0  0
 17 40  1  0  0  0  0
 18 19  1  0  0  0  0
 18 41  1  0  0  0  0
 19 20  1  0  0  0  0
 20 42  1  0  0  0  0
 20 43  1  0  0  0  0
 20 44  1  0  0  0  0
M  END
> <s_m_source_file>
AV-unprocessed.smi

> <i_m_source_file_index>
2525

> <i_lp_mmshare_version>
43012

> <i_f3d_flags>
0

> <s_epik_input>
W0NIM11PW0NAQEhdMVtDQEhdKFtDSDNdKVtDQEBIXShDMShbQ0gyXVtDSDNdKVtDSDJdW0NIM10pW05IXUMoPU8pW0NIMl1uMltjSF1bY0hdbm4y

> <s_epik_cmdline>
J2VwaWtfcHl0aG9uJywgJy1waCcsICc3LjAnLCAnLXRuJywgJzgnLCAnLW1hJywgJzIwMCcsICctbWV0YWxfYmluZGluZycsICctaW1hZScsICc8aW5maWxlLm1hZT4nLCAnLW9tYWUnLCAnPG91dGZpbGUubWFlPic=

> <r_lp_tautomer_probability>
1

> <r_epik_Ionization_Penalty>
1.18045e-06

> <r_epik_Ionization_Penalty_Charging>
0

> <r_epik_Ionization_Penalty_Neutral>
1.18045e-06

> <r_epik_State_Penalty>
-0

> <r_epik_Charging_Adjusted_Penalty>
0

> <i_epik_Tot_Q>
0

> <i_epik_Tot_abs_Q>
0

> <r_epik_Metal_State_Penalty>
-0

> <b_epik_Metal_Only>
0

> <s_lp_Force_Field>
OPLS_2005

> <r_lp_Energy>
27.6116

> <b_lp_Chiralities_Consistent>
1

> <s_lp_Variant>
AV-unprocessed.smi:2525-6

> <Gold.Version>
5.8.1

> <Gold.Id.Protein>
6NUR|6NUR_protein|mol2

> <Gold.PLP.Fitness>
42.8289

> <Gold.PLP.PLP>
-35.2890

> <Gold.PLP.part.hbond>
-3.5052

> <Gold.PLP.part.metal>
0.0000

> <Gold.PLP.part.buried>
-4.0907

> <Gold.PLP.part.nonpolar>
-27.6482

> <Gold.PLP.part.repulsive>
0.1470

> <Gold.PLP.ligand.clash>
0.0000

> <Gold.PLP.ligand.torsion>
0.5661

> <Gold.PLP.Chemscore.Hbond>
2.6880

> <Gold.PLP.Chemscore.CHOScore>
0.0000

> <Gold.PLP.Chemscore.Metal>
0.0000

> <Gold.Chemscore.Hbonds>
donor molecule, donor type, donor heavy atom, donor atom, acceptor molecule, acceptor atom, score
      P1  H  6896  6908       L1     9  1.00
      P1  H  6931  6943       L1    15  0.94
      P1  H  6934  6947       L1    15  0.74

> <Gold.PLP.Chemscore.Internal.Correction>
0.6082

> <Gold.Rescore>
     Score         DG    S(hbond)    S(metal)    S(lipo)     H(rot)  DE(clash)    DE(int)     intcor
     14.84     -16.17       2.16        0.00      72.96       1.98       0.00       1.33       ----

> <Gold.Chemscore.Fitness>
14.8423

> <Gold.Chemscore.DG>
-16.1738

> <Gold.Chemscore.ZeroCoef>
-5.4800

> <Gold.Chemscore.Hbond>
2.1647

> <Gold.Chemscore.Metal>
0.0000

> <Gold.Chemscore.Lipo>
72.9632

> <Gold.Chemscore.Internal_Hbond>
0.0000

> <Gold.Chemscore.DEClash>
0.0004

> <Gold.Chemscore.DEInternal>
1.3311

> <Gold.Chemscore.Rot>
1.9817

> <Gold.Chemscore.Internal.Correction>
   9.000000E+99

> <Gold.Chemscore.Hbonds>
donor molecule, donor type, donor heavy atom, donor atom, acceptor molecule, acceptor atom, score
      P1  H  6896  6908       L1     9  0.99
      P1  H  6931  6943       L1    15  0.27
      P1  H  6934  6947       L1    15  0.61

> <Gold.Chemscore.Hbond.Weighted>
-7.2302

> <Gold.Chemscore.Metal.Weighted>
-0.0000

> <Gold.Chemscore.Lipo.Weighted>
-8.5367

> <Gold.Chemscore.Internal_Hbond.Weighted>
0.0000

> <Gold.Chemscore.DEClash.Weighted>
0.0004

> <Gold.Chemscore.DEInternal.Weighted>
1.3311

> <Gold.Chemscore.Rot.Weighted>
5.0731

> <Gold.Chemscore.Internal.Correction.Weighted>
   9.000000E+99

> <Gold.Protein.RotatedTorsions>
[ 6907 6896 6895 6894 ] final -168.16 input  -60.11 | X-H torsion
[ 7974 7965 7964 7962 ] final   39.25 input  175.53 | X-H torsion
[ 8008 7997 7996 7995 ] final  -19.21 input   59.86 | X-H torsion
[ 10167 10162 10161 10158 ] final -107.31 input  -65.29 | X-H torsion
[ 10718 10713 10712 10709 ] final  -75.70 input   66.30 | X-H torsion
[ 10763 10752 10751 10750 ] final -101.71 input  -60.55 | X-H torsion
[ 11005 11000 10999 10996 ] final  -50.39 input  -57.11 | X-H torsion

> <Gold.Protein.ActiveResidues>
 VAL166  LYS551  ARG553  GLY616  TRP617  ASP618  TYR619  PRO620  LYS621  CYS622 
 ASP623  PHE694  ASN695  SER759  ASP760  ASP761  ALA762  ILE779  LEU786  VAL792 
 PHE793  MET794  SER795  GLU796  ALA797  LYS798  CYS799  TRP800  GLU811  SER814 

> <Gold.Protein.RotatedAtoms>
  151.4712  133.3569  159.2823 H   0  0  0  0  0  0  0  0  0  0  0  0  # atno 6907 bound_to 6896
  150.8960  134.8370  159.7337 H   0  0  0  0  0  0  0  0  0  0  0  0  # atno 6908 bound_to 6896
  152.4851  134.4627  159.9662 H   0  0  0  0  0  0  0  0  0  0  0  0  # atno 6909 bound_to 6896
  146.0999  139.5674  142.9421 H   0  0  0  0  0  0  0  0  0  0  0  0  # atno 7974 bound_to 7965
  154.4852  140.2095  155.9671 H   0  0  0  0  0  0  0  0  0  0  0  0  # atno 8008 bound_to 7997
  156.1226  140.3211  155.8199 H   0  0  0  0  0  0  0  0  0  0  0  0  # atno 8009 bound_to 7997
  155.4441  140.0512  157.2998 H   0  0  0  0  0  0  0  0  0  0  0  0  # atno 8010 bound_to 7997
  140.1783  143.3987  152.1301 H   0  0  0  0  0  0  0  0  0  0  0  0  # atno 10167 bound_to 10162
  156.0199  130.4447  150.3082 H   0  0  0  0  0  0  0  0  0  0  0  0  # atno 10718 bound_to 10713
  154.7679  135.4887  153.9590 H   0  0  0  0  0  0  0  0  0  0  0  0  # atno 10763 bound_to 10752
  153.1330  135.6757  153.9155 H   0  0  0  0  0  0  0  0  0  0  0  0  # atno 10764 bound_to 10752
  153.8853  135.3127  155.3425 H   0  0  0  0  0  0  0  0  0  0  0  0  # atno 10765 bound_to 10752
  141.0813  133.6653  156.3723 H   0  0  0  0  0  0  0  0  0  0  0  0  # atno 11005 bound_to 11000
  145.5876  141.0374  143.2088 LP  0  0  0  0  0  0  0  0  0  0  0  0  # atno 17320 bound_to 7965
  144.7424  139.7412  143.7305 LP  0  0  0  0  0  0  0  0  0  0  0  0  # atno 17321 bound_to 7965
  139.5307  144.7156  151.5066 LP  0  0  0  0  0  0  0  0  0  0  0  0  # atno 17342 bound_to 10162
  140.6536  143.8645  150.6812 LP  0  0  0  0  0  0  0  0  0  0  0  0  # atno 17343 bound_to 10162
  157.1184  131.0240  151.3019 LP  0  0  0  0  0  0  0  0  0  0  0  0  # atno 17370 bound_to 10713
  157.4648  130.7674  149.7269 LP  0  0  0  0  0  0  0  0  0  0  0  0  # atno 17371 bound_to 10713
  140.5462  134.6072  157.5394 LP  0  0  0  0  0  0  0  0  0  0  0  0  # atno 17394 bound_to 11000
  139.9627  134.7425  156.0203 LP  0  0  0  0  0  0  0  0  0  0  0  0  # atno 17395 bound_to 11000

$$$$
