AV-unprocessed.smi:1762|AV-procd|sdf|7124|dock4
  -GOLD-   22720 8363D 1   1.00000     0.00000
 Structure written by MMmdl.
 52 53  0  0  0  0  0  0  0  0  3 V2000
  148.2062  141.1363  155.7379 C   0  0  0  0  0  0  0  0  0  0  0  0
  149.5671  141.4345  155.0833 C   0  0  1  0  0  0  0  0  0  0  0  0
  150.6081  142.0002  156.0695 C   0  0  0  0  0  0  0  0  0  0  0  0
  151.1177  140.9478  156.9921 N   0  3  2  0  0  0  0  0  0  0  0  0
  152.0888  141.4276  158.0323 C   0  0  2  0  0  0  0  0  0  0  0  0
  152.4375  140.2894  159.0230 C   0  0  0  0  0  0  0  0  0  0  0  0
  151.5142  139.6917  159.5863 O   0  0  0  0  0  0  0  0  0  0  0  0
  153.7822  140.0961  159.0953 N   0  5  0  0  0  0  0  0  0  0  0  0
  154.4875  139.6518  160.2959 C   0  0  0  0  0  0  0  0  0  0  0  0
  153.7214  138.4893  160.9689 C   0  0  0  0  0  0  0  0  0  0  0  0
  154.1336  138.1788  162.4066 C   0  0  0  0  0  0  0  0  0  0  0  0
  153.5576  137.0893  163.0999 C   0  0  0  0  0  0  0  0  0  0  0  0
  153.9557  136.8469  164.4283 C   0  0  0  0  0  0  0  0  0  0  0  0
  154.9058  137.7019  165.0182 C   0  0  0  0  0  0  0  0  0  0  0  0
  155.4168  138.7666  164.2498 C   0  0  0  0  0  0  0  0  0  0  0  0
  155.0418  139.0093  162.9757 N   0  0  0  0  0  0  0  0  0  0  0  0
  151.6456  142.7227  158.7948 C   0  0  0  0  0  0  0  0  0  0  0  0
  151.8131  144.0018  157.9510 C   0  0  0  0  0  0  0  0  0  0  0  0
  152.3034  142.9100  160.1784 C   0  0  0  0  0  0  0  0  0  0  0  0
  151.6425  139.8135  156.1797 C   0  0  0  0  0  0  0  0  0  0  0  0
  150.5596  139.2604  155.2395 C   0  0  2  0  0  0  0  0  0  0  0  0
  151.0960  138.1334  154.3497 C   0  0  0  0  0  0  0  0  0  0  0  0
  150.0945  140.3046  154.3922 O   0  0  0  0  0  0  0  0  0  0  0  0
  147.7595  142.0495  156.1319 H   0  0  0  0  0  0  0  0  0  0  0  0
  148.2899  140.4354  156.5681 H   0  0  0  0  0  0  0  0  0  0  0  0
  147.5089  140.7160  155.0129 H   0  0  0  0  0  0  0  0  0  0  0  0
  149.3879  142.1934  154.3211 H   0  0  0  0  0  0  0  0  0  0  0  0
  151.4485  142.4248  155.5181 H   0  0  0  0  0  0  0  0  0  0  0  0
  150.1369  142.8204  156.6070 H   0  0  0  0  0  0  0  0  0  0  0  0
  152.9880  141.7042  157.4757 H   0  0  0  0  0  0  0  0  0  0  0  0
  155.5048  139.3327  160.0684 H   0  0  0  0  0  0  0  0  0  0  0  0
  154.5887  140.4552  161.0272 H   0  0  0  0  0  0  0  0  0  0  0  0
  152.6556  138.7212  160.9650 H   0  0  0  0  0  0  0  0  0  0  0  0
  153.8248  137.5846  160.3679 H   0  0  0  0  0  0  0  0  0  0  0  0
  152.8334  136.4485  162.6186 H   0  0  0  0  0  0  0  0  0  0  0  0
  153.5391  136.0201  164.9843 H   0  0  0  0  0  0  0  0  0  0  0  0
  155.2347  137.5454  166.0348 H   0  0  0  0  0  0  0  0  0  0  0  0
  156.1453  139.4432  164.6714 H   0  0  0  0  0  0  0  0  0  0  0  0
  150.5706  142.6552  158.9567 H   0  0  0  0  0  0  0  0  0  0  0  0
  152.8625  144.2507  157.7886 H   0  0  0  0  0  0  0  0  0  0  0  0
  151.3501  144.8574  158.4432 H   0  0  0  0  0  0  0  0  0  0  0  0
  151.3428  143.8922  156.9733 H   0  0  0  0  0  0  0  0  0  0  0  0
  153.3663  143.1354  160.0942 H   0  0  0  0  0  0  0  0  0  0  0  0
  152.2024  142.0249  160.8053 H   0  0  0  0  0  0  0  0  0  0  0  0
  151.8424  143.7401  160.7142 H   0  0  0  0  0  0  0  0  0  0  0  0
  152.5076  140.1498  155.6055 H   0  0  0  0  0  0  0  0  0  0  0  0
  151.9869  138.9947  156.8107 H   0  0  0  0  0  0  0  0  0  0  0  0
  149.7328  138.8609  155.8273 H   0  0  0  0  0  0  0  0  0  0  0  0
  151.4596  137.2989  154.9500 H   0  0  0  0  0  0  0  0  0  0  0  0
  151.9203  138.4807  153.7259 H   0  0  0  0  0  0  0  0  0  0  0  0
  150.3161  137.7521  153.6902 H   0  0  0  0  0  0  0  0  0  0  0  0
  150.3201  140.5968  157.5026 H   0  0  0  0  0  0  0  0  0  0  0  0
  1  2  1  0  0  0  0
  1 24  1  0  0  0  0
  1 25  1  0  0  0  0
  1 26  1  0  0  0  0
  2 23  1  0  0  0  0
  2  3  1  0  0  0  0
  2 27  1  0  0  0  0
  3  4  1  0  0  0  0
  3 28  1  0  0  0  0
  3 29  1  0  0  0  0
  4  5  1  0  0  0  0
  4 20  1  0  0  0  0
  4 52  1  0  0  0  0
  5  6  1  0  0  0  0
  5 17  1  0  0  0  0
  5 30  1  0  0  0  0
  6  7  2  0  0  0  0
  6  8  1  0  0  0  0
  8  9  1  0  0  0  0
  9 10  1  0  0  0  0
  9 31  1  0  0  0  0
  9 32  1  0  0  0  0
 10 11  1  0  0  0  0
 10 33  1  0  0  0  0
 10 34  1  0  0  0  0
 11 16  1  0  0  0  0
 11 12  2  0  0  0  0
 12 13  1  0  0  0  0
 12 35  1  0  0  0  0
 13 14  2  0  0  0  0
 13 36  1  0  0  0  0
 14 15  1  0  0  0  0
 14 37  1  0  0  0  0
 15 16  2  0  0  0  0
 15 38  1  0  0  0  0
 17 18  1  0  0  0  0
 17 19  1  0  0  0  0
 17 39  1  0  0  0  0
 18 40  1  0  0  0  0
 18 41  1  0  0  0  0
 18 42  1  0  0  0  0
 19 43  1  0  0  0  0
 19 44  1  0  0  0  0
 19 45  1  0  0  0  0
 20 21  1  0  0  0  0
 20 46  1  0  0  0  0
 20 47  1  0  0  0  0
 21 22  1  0  0  0  0
 21 23  1  0  0  0  0
 21 48  1  0  0  0  0
 22 49  1  0  0  0  0
 22 50  1  0  0  0  0
 22 51  1  0  0  0  0
M  CHG  1   4   1
M  CHG  1   8  -1
M  END
> <s_m_source_file>
AV-unprocessed.smi

> <i_m_source_file_index>
1762

> <i_lp_mmshare_version>
43012

> <i_f3d_flags>
0

> <s_epik_input>
W0NIM11bQ0BASF0xW0NIMl1OKFtDSDJdW0NASF0oTzEpW0NIM10pW0NAQEhdKFtDSF0oW0NIM10pW0NIM10pQyg9TylbTkhdW0NIMl1bQ0gyXWMyW2NIXVtjSF1bY0hdW2NIXW4y

> <s_epik_cmdline>
J2VwaWtfcHl0aG9uJywgJy1waCcsICc3LjAnLCAnLXRuJywgJzgnLCAnLW1hJywgJzIwMCcsICctbWV0YWxfYmluZGluZycsICctaW1hZScsICc8aW5maWxlLm1hZT4nLCAnLW9tYWUnLCAnPG91dGZpbGUubWFlPic=

> <r_epik_Ionization_Penalty>
7.82966

> <r_epik_Ionization_Penalty_Charging>
7.7461

> <r_epik_Ionization_Penalty_Neutral>
0.0835571

> <r_epik_State_Penalty>
8.52273

> <r_epik_Charging_Adjusted_Penalty>
16.2688

> <i_epik_Tot_Q>
0

> <i_epik_Tot_abs_Q>
2

> <r_epik_Metal_State_Penalty>
4.47451

> <b_epik_Metal_Only>
1

> <s_lp_Force_Field>
OPLS_2005

> <r_lp_Energy>
24.9826

> <b_lp_Chiralities_Consistent>
1

> <s_lp_Variant>
AV-unprocessed.smi:1762-26

> <Gold.Version>
5.8.1

> <Gold.Id.Protein>
6NUR|6NUR_protein|mol2

> <Gold.PLP.Fitness>
54.1345

> <Gold.PLP.PLP>
-47.1615

> <Gold.PLP.part.hbond>
-2.1091

> <Gold.PLP.part.metal>
0.0000

> <Gold.PLP.part.buried>
-5.3595

> <Gold.PLP.part.nonpolar>
-39.6096

> <Gold.PLP.part.repulsive>
0.2066

> <Gold.PLP.ligand.clash>
0.0085

> <Gold.PLP.ligand.torsion>
1.1493

> <Gold.PLP.Chemscore.Hbond>
2.9760

> <Gold.PLP.Chemscore.CHOScore>
0.0000

> <Gold.PLP.Chemscore.Metal>
0.0000

> <Gold.Chemscore.Hbonds>
donor molecule, donor type, donor heavy atom, donor atom, acceptor molecule, acceptor atom, score
      P1  H  7989  7998       L1    23  0.96
      P1  H  7997  8009       L1     8  1.36

> <Gold.PLP.Chemscore.Internal.Correction>
0.3521

> <Gold.Rescore>
     Score         DG    S(hbond)    S(metal)    S(lipo)     H(rot)  DE(clash)    DE(int)     intcor
     17.45     -21.25       1.07        0.00     139.28       1.60       0.33       3.47       ----

> <Gold.Chemscore.Fitness>
17.4450

> <Gold.Chemscore.DG>
-21.2477

> <Gold.Chemscore.ZeroCoef>
-5.4800

> <Gold.Chemscore.Hbond>
1.0690

> <Gold.Chemscore.Metal>
0.0000

> <Gold.Chemscore.Lipo>
139.2839

> <Gold.Chemscore.Internal_Hbond>
0.0000

> <Gold.Chemscore.DEClash>
0.3281

> <Gold.Chemscore.DEInternal>
3.4746

> <Gold.Chemscore.Rot>
1.6012

> <Gold.Chemscore.Internal.Correction>
   9.000000E+99

> <Gold.Chemscore.Hbonds>
donor molecule, donor type, donor heavy atom, donor atom, acceptor molecule, acceptor atom, score
      P1  H  7989  7998       L1    23  0.28
      P1  H  7997  8009       L1     8  0.58

> <Gold.Chemscore.Hbond.Weighted>
-3.5705

> <Gold.Chemscore.Metal.Weighted>
-0.0000

> <Gold.Chemscore.Lipo.Weighted>
-16.2962

> <Gold.Chemscore.Internal_Hbond.Weighted>
0.0000

> <Gold.Chemscore.DEClash.Weighted>
0.3281

> <Gold.Chemscore.DEInternal.Weighted>
3.4746

> <Gold.Chemscore.Rot.Weighted>
4.0990

> <Gold.Chemscore.Internal.Correction.Weighted>
   9.000000E+99

> <Gold.Protein.RotatedTorsions>
[ 6907 6896 6895 6894 ] final -106.06 input  -60.11 | X-H torsion
[ 7974 7965 7964 7962 ] final  -89.48 input  175.53 | X-H torsion
[ 8008 7997 7996 7995 ] final  129.64 input   59.86 | X-H torsion
[ 10167 10162 10161 10158 ] final -110.82 input  -65.29 | X-H torsion
[ 10718 10713 10712 10709 ] final  -67.14 input   66.30 | X-H torsion
[ 10763 10752 10751 10750 ] final   72.88 input  -60.55 | X-H torsion
[ 11005 11000 10999 10996 ] final -143.94 input  -57.11 | X-H torsion

> <Gold.Protein.ActiveResidues>
 VAL166  LYS551  ARG553  GLY616  TRP617  ASP618  TYR619  PRO620  LYS621  CYS622 
 ASP623  PHE694  ASN695  SER759  ASP760  ASP761  ALA762  ILE779  LEU786  VAL792 
 PHE793  MET794  SER795  GLU796  ALA797  LYS798  CYS799  TRP800  GLU811  SER814 

> <Gold.Protein.RotatedAtoms>
  150.7369  134.0033  159.3645 H   0  0  0  0  0  0  0  0  0  0  0  0  # atno 6907 bound_to 6896
  151.7988  135.0712  160.0407 H   0  0  0  0  0  0  0  0  0  0  0  0  # atno 6908 bound_to 6896
  152.3155  133.5762  159.5746 H   0  0  0  0  0  0  0  0  0  0  0  0  # atno 6909 bound_to 6896
  145.4393  140.9558  143.2084 H   0  0  0  0  0  0  0  0  0  0  0  0  # atno 7974 bound_to 7965
  156.2940  140.2615  156.2632 H   0  0  0  0  0  0  0  0  0  0  0  0  # atno 8008 bound_to 7997
  154.9768  140.0390  157.2278 H   0  0  0  0  0  0  0  0  0  0  0  0  # atno 8009 bound_to 7997
  154.7808  140.2794  155.6070 H   0  0  0  0  0  0  0  0  0  0  0  0  # atno 8010 bound_to 7997
  140.1403  143.4284  152.1566 H   0  0  0  0  0  0  0  0  0  0  0  0  # atno 10167 bound_to 10162
  156.0574  130.4273  150.1811 H   0  0  0  0  0  0  0  0  0  0  0  0  # atno 10718 bound_to 10713
  153.0486  135.5083  154.7810 H   0  0  0  0  0  0  0  0  0  0  0  0  # atno 10763 bound_to 10752
  154.6690  135.2950  154.9769 H   0  0  0  0  0  0  0  0  0  0  0  0  # atno 10764 bound_to 10752
  154.0594  135.6693  153.4862 H   0  0  0  0  0  0  0  0  0  0  0  0  # atno 10765 bound_to 10752
  140.8074  134.2785  157.4954 H   0  0  0  0  0  0  0  0  0  0  0  0  # atno 11005 bound_to 11000
  144.8132  139.5924  143.7020 LP  0  0  0  0  0  0  0  0  0  0  0  0  # atno 17320 bound_to 7965
  146.2565  139.6314  142.9391 LP  0  0  0  0  0  0  0  0  0  0  0  0  # atno 17321 bound_to 7965
  139.5475  144.7311  151.4537 LP  0  0  0  0  0  0  0  0  0  0  0  0  # atno 17342 bound_to 10162
  140.6764  143.8180  150.7064 LP  0  0  0  0  0  0  0  0  0  0  0  0  # atno 17343 bound_to 10162
  156.9885  130.9886  151.3420 LP  0  0  0  0  0  0  0  0  0  0  0  0  # atno 17370 bound_to 10713
  157.5555  130.8210  149.8198 LP  0  0  0  0  0  0  0  0  0  0  0  0  # atno 17371 bound_to 10713
  139.8716  134.9464  156.3937 LP  0  0  0  0  0  0  0  0  0  0  0  0  # atno 17394 bound_to 11000
  140.9233  133.7630  155.9933 LP  0  0  0  0  0  0  0  0  0  0  0  0  # atno 17395 bound_to 11000

$$$$
