AV-unprocessed.smi:1336|AV-procd|sdf|5496|dock9
  -GOLD-   22720 5 73D 1   1.00000     0.00000
 Structure written by MMmdl.
 43 43  0  0  0  0  0  0  0  0  1 V2000
  142.0520  137.8310  153.3215 C   0  0  0  0  0  0  0  0  0  0  0  0
  143.3016  136.9750  153.0716 C   0  0  0  0  0  0  0  0  0  0  0  0
  144.4535  137.2699  154.0454 C   0  0  0  0  0  0  0  0  0  0  0  0
  145.1952  138.4594  153.6403 N   0  0  0  0  0  0  0  0  0  0  0  0
  146.5044  138.6721  153.8405 C   0  0  0  0  0  0  0  0  0  0  0  0
  147.2427  137.8697  154.4153 O   0  0  0  0  0  0  0  0  0  0  0  0
  147.0643  139.9917  153.2832 C   0  0  2  0  0  0  0  0  0  0  0  0
  146.9250  139.9551  151.7523 C   0  0  0  0  0  0  0  0  0  0  0  0
  148.4839  140.1143  153.6049 N   0  0  0  0  0  0  0  0  0  0  0  0
  148.9868  140.3616  154.8261 C   0  0  0  0  0  0  0  0  0  0  0  0
  148.2866  140.6058  155.8087 O   0  0  0  0  0  0  0  0  0  0  0  0
  150.5121  140.3202  154.9642 C   0  0  0  0  0  0  0  0  0  0  0  0
  150.9353  140.7818  156.3315 C   0  0  0  0  0  0  0  0  0  0  0  0
  151.2639  139.9877  157.4022 C   0  0  0  0  0  0  0  0  0  0  0  0
  151.6460  140.9290  158.8175 S   0  0  0  0  0  0  0  0  0  0  0  0
  151.3488  142.3940  157.8882 C   0  0  0  0  0  0  0  0  0  0  0  0
  151.4566  143.7696  158.4657 C   0  0  0  0  0  0  0  0  0  0  0  0
  152.4531  144.6413  157.6867 C   0  0  0  0  0  0  0  0  0  0  0  0
  151.7309  143.7432  159.9762 C   0  0  0  0  0  0  0  0  0  0  0  0
  151.0087  142.1490  156.6198 N   0  0  0  0  0  0  0  0  0  0  0  0
  141.2825  137.6173  152.5794 H   0  0  0  0  0  0  0  0  0  0  0  0
  142.2856  138.8943  153.2622 H   0  0  0  0  0  0  0  0  0  0  0  0
  141.6236  137.6362  154.3049 H   0  0  0  0  0  0  0  0  0  0  0  0
  143.0345  135.9191  153.1270 H   0  0  0  0  0  0  0  0  0  0  0  0
  143.6488  137.1462  152.0521 H   0  0  0  0  0  0  0  0  0  0  0  0
  144.0545  137.4438  155.0450 H   0  0  0  0  0  0  0  0  0  0  0  0
  145.1012  136.3949  154.1189 H   0  0  0  0  0  0  0  0  0  0  0  0
  144.6718  139.1759  153.1587 H   0  0  0  0  0  0  0  0  0  0  0  0
  146.5095  140.8423  153.6845 H   0  0  0  0  0  0  0  0  0  0  0  0
  145.8804  139.8641  151.4517 H   0  0  0  0  0  0  0  0  0  0  0  0
  147.4719  139.1191  151.3135 H   0  0  0  0  0  0  0  0  0  0  0  0
  147.3112  140.8718  151.3051 H   0  0  0  0  0  0  0  0  0  0  0  0
  149.1350  139.9213  152.8578 H   0  0  0  0  0  0  0  0  0  0  0  0
  150.8529  139.3017  154.7750 H   0  0  0  0  0  0  0  0  0  0  0  0
  150.9641  140.9471  154.1946 H   0  0  0  0  0  0  0  0  0  0  0  0
  151.2905  138.9092  157.4486 H   0  0  0  0  0  0  0  0  0  0  0  0
  150.4775  144.2331  158.3388 H   0  0  0  0  0  0  0  0  0  0  0  0
  152.1814  144.7008  156.6323 H   0  0  0  0  0  0  0  0  0  0  0  0
  153.4645  144.2373  157.7458 H   0  0  0  0  0  0  0  0  0  0  0  0
  152.4778  145.6576  158.0802 H   0  0  0  0  0  0  0  0  0  0  0  0
  150.9619  143.1787  160.5044 H   0  0  0  0  0  0  0  0  0  0  0  0
  151.7434  144.7517  160.3904 H   0  0  0  0  0  0  0  0  0  0  0  0
  152.6941  143.2819  160.1961 H   0  0  0  0  0  0  0  0  0  0  0  0
  1  2  1  0  0  0  0
  1 21  1  0  0  0  0
  1 22  1  0  0  0  0
  1 23  1  0  0  0  0
  2  3  1  0  0  0  0
  2 24  1  0  0  0  0
  2 25  1  0  0  0  0
  3  4  1  0  0  0  0
  3 26  1  0  0  0  0
  3 27  1  0  0  0  0
  4  5  1  0  0  0  0
  4 28  1  0  0  0  0
  5  6  2  0  0  0  0
  5  7  1  0  0  0  0
  7  8  1  0  0  0  0
  7  9  1  0  0  0  0
  7 29  1  0  0  0  0
  8 30  1  0  0  0  0
  8 31  1  0  0  0  0
  8 32  1  0  0  0  0
  9 10  1  0  0  0  0
  9 33  1  0  0  0  0
 10 11  2  0  0  0  0
 10 12  1  0  0  0  0
 12 13  1  0  0  0  0
 12 34  1  0  0  0  0
 12 35  1  0  0  0  0
 13 20  1  0  0  0  0
 13 14  2  0  0  0  0
 14 15  1  0  0  0  0
 14 36  1  0  0  0  0
 15 16  1  0  0  0  0
 16 17  1  0  0  0  0
 16 20  2  0  0  0  0
 17 18  1  0  0  0  0
 17 19  1  0  0  0  0
 17 37  1  0  0  0  0
 18 38  1  0  0  0  0
 18 39  1  0  0  0  0
 18 40  1  0  0  0  0
 19 41  1  0  0  0  0
 19 42  1  0  0  0  0
 19 43  1  0  0  0  0
M  END
> <s_m_source_file>
AV-unprocessed.smi

> <i_m_source_file_index>
1336

> <i_lp_mmshare_version>
43012

> <i_f3d_flags>
0

> <s_epik_input>
W0NIM11bQ0gyXVtDSDJdW05IXUMoPU8pW0NASF0oW0NIM10pW05IXUMoPU8pW0NIMl1jMVtjSF1zYyhuMSlbQ0hdKFtDSDNdKVtDSDNd

> <s_epik_cmdline>
J2VwaWtfcHl0aG9uJywgJy1waCcsICc3LjAnLCAnLXRuJywgJzgnLCAnLW1hJywgJzIwMCcsICctbWV0YWxfYmluZGluZycsICctaW1hZScsICc8aW5maWxlLm1hZT4nLCAnLW9tYWUnLCAnPG91dGZpbGUubWFlPic=

> <r_lp_tautomer_probability>
1

> <r_epik_Ionization_Penalty>
3.10785e-05

> <r_epik_Ionization_Penalty_Charging>
0

> <r_epik_Ionization_Penalty_Neutral>
3.10785e-05

> <r_epik_State_Penalty>
-0

> <r_epik_Charging_Adjusted_Penalty>
0

> <i_epik_Tot_Q>
0

> <i_epik_Tot_abs_Q>
0

> <r_epik_Metal_State_Penalty>
-0

> <b_epik_Metal_Only>
0

> <s_lp_Force_Field>
OPLS_2005

> <r_lp_Energy>
-3.8093

> <b_lp_Chiralities_Consistent>
1

> <s_lp_Variant>
AV-unprocessed.smi:1336-1

> <Gold.Version>
5.8.1

> <Gold.Id.Protein>
6NUR|6NUR_protein|mol2

> <Gold.PLP.Fitness>
39.1569

> <Gold.PLP.PLP>
-34.6103

> <Gold.PLP.part.hbond>
-2.0000

> <Gold.PLP.part.metal>
0.0000

> <Gold.PLP.part.buried>
1.3550

> <Gold.PLP.part.nonpolar>
-33.4132

> <Gold.PLP.part.repulsive>
0.3693

> <Gold.PLP.ligand.clash>
0.0000

> <Gold.PLP.ligand.torsion>
0.8073

> <Gold.PLP.Chemscore.Hbond>
2.0000

> <Gold.PLP.Chemscore.CHOScore>
0.0000

> <Gold.PLP.Chemscore.Metal>
0.0000

> <Gold.Chemscore.Hbonds>
donor molecule, donor type, donor heavy atom, donor atom, acceptor molecule, acceptor atom, score
      L1  H     4    28       P1 10175  1.00
      L1  H     9    33       P1  7957  1.00

> <Gold.PLP.Chemscore.Internal.Correction>
0.1612

> <Gold.Rescore>
     Score         DG    S(hbond)    S(metal)    S(lipo)     H(rot)  DE(clash)    DE(int)     intcor
     15.42     -18.60       1.99        0.00      99.98       2.04       2.33       0.85       ----

> <Gold.Chemscore.Fitness>
15.4237

> <Gold.Chemscore.DG>
-18.5975

> <Gold.Chemscore.ZeroCoef>
-5.4800

> <Gold.Chemscore.Hbond>
1.9850

> <Gold.Chemscore.Metal>
0.0000

> <Gold.Chemscore.Lipo>
99.9813

> <Gold.Chemscore.Internal_Hbond>
0.0000

> <Gold.Chemscore.DEClash>
2.3262

> <Gold.Chemscore.DEInternal>
0.8475

> <Gold.Chemscore.Rot>
2.0353

> <Gold.Chemscore.Internal.Correction>
   9.000000E+99

> <Gold.Chemscore.Hbonds>
donor molecule, donor type, donor heavy atom, donor atom, acceptor molecule, acceptor atom, score
      L1  H     4    28       P1 10175  1.00
      L1  H     9    33       P1  7957  0.95

> <Gold.Chemscore.Hbond.Weighted>
-6.6301

> <Gold.Chemscore.Metal.Weighted>
-0.0000

> <Gold.Chemscore.Lipo.Weighted>
-11.6978

> <Gold.Chemscore.Internal_Hbond.Weighted>
0.0000

> <Gold.Chemscore.DEClash.Weighted>
2.3262

> <Gold.Chemscore.DEInternal.Weighted>
0.8475

> <Gold.Chemscore.Rot.Weighted>
5.2104

> <Gold.Chemscore.Internal.Correction.Weighted>
   9.000000E+99

> <Gold.Protein.RotatedTorsions>
[ 6907 6896 6895 6894 ] final  128.17 input  -60.11 | X-H torsion
[ 7974 7965 7964 7962 ] final  159.66 input  175.53 | X-H torsion
[ 8008 7997 7996 7995 ] final  -48.67 input   59.86 | X-H torsion
[ 10167 10162 10161 10158 ] final -133.12 input  -65.29 | X-H torsion
[ 10718 10713 10712 10709 ] final -134.32 input   66.30 | X-H torsion
[ 10763 10752 10751 10750 ] final -150.74 input  -60.55 | X-H torsion
[ 11005 11000 10999 10996 ] final  -25.59 input  -57.11 | X-H torsion

> <Gold.Protein.ActiveResidues>
 VAL166  LYS551  ARG553  GLY616  TRP617  ASP618  TYR619  PRO620  LYS621  CYS622 
 ASP623  PHE694  ASN695  SER759  ASP760  ASP761  ALA762  ILE779  LEU786  VAL792 
 PHE793  MET794  SER795  GLU796  ALA797  LYS798  CYS799  TRP800  GLU811  SER814 

> <Gold.Protein.RotatedAtoms>
  152.3744  133.6462  159.6111 H   0  0  0  0  0  0  0  0  0  0  0  0  # atno 6907 bound_to 6896
  150.7693  133.9217  159.3409 H   0  0  0  0  0  0  0  0  0  0  0  0  # atno 6908 bound_to 6896
  151.7034  135.0927  160.0306 H   0  0  0  0  0  0  0  0  0  0  0  0  # atno 6909 bound_to 6896
  144.7778  139.7648  143.6272 H   0  0  0  0  0  0  0  0  0  0  0  0  # atno 7974 bound_to 7965
  154.4032  140.1315  156.4377 H   0  0  0  0  0  0  0  0  0  0  0  0  # atno 8008 bound_to 7997
  155.7489  140.3488  155.5120 H   0  0  0  0  0  0  0  0  0  0  0  0  # atno 8009 bound_to 7997
  155.8968  140.1012  157.1369 H   0  0  0  0  0  0  0  0  0  0  0  0  # atno 8010 bound_to 7997
  139.9016  143.6601  152.2594 H   0  0  0  0  0  0  0  0  0  0  0  0  # atno 10167 bound_to 10162
  156.2542  130.7171  151.1081 H   0  0  0  0  0  0  0  0  0  0  0  0  # atno 10718 bound_to 10713
  154.8100  135.3277  154.7330 H   0  0  0  0  0  0  0  0  0  0  0  0  # atno 10763 bound_to 10752
  153.7981  135.6905  153.4864 H   0  0  0  0  0  0  0  0  0  0  0  0  # atno 10764 bound_to 10752
  153.1872  135.4564  155.0050 H   0  0  0  0  0  0  0  0  0  0  0  0  # atno 10765 bound_to 10752
  140.8951  133.7562  156.0471 H   0  0  0  0  0  0  0  0  0  0  0  0  # atno 11005 bound_to 11000
  146.1968  139.5240  142.9769 LP  0  0  0  0  0  0  0  0  0  0  0  0  # atno 17320 bound_to 7965
  145.6136  141.0335  143.1953 LP  0  0  0  0  0  0  0  0  0  0  0  0  # atno 17321 bound_to 7965
  139.7020  144.7633  151.1256 LP  0  0  0  0  0  0  0  0  0  0  0  0  # atno 17342 bound_to 10162
  140.7705  143.5444  150.9275 LP  0  0  0  0  0  0  0  0  0  0  0  0  # atno 17343 bound_to 10162
  157.7226  131.0671  150.6071 LP  0  0  0  0  0  0  0  0  0  0  0  0  # atno 17370 bound_to 10713
  156.6153  130.4391  149.5843 LP  0  0  0  0  0  0  0  0  0  0  0  0  # atno 17371 bound_to 10713
  140.8299  134.3191  157.5352 LP  0  0  0  0  0  0  0  0  0  0  0  0  # atno 17394 bound_to 11000
  139.8734  134.9357  156.3641 LP  0  0  0  0  0  0  0  0  0  0  0  0  # atno 17395 bound_to 11000

$$$$
