AV-unprocessed.smi:314|AV-procd|sdf|2314|dock1
  -GOLD-   2262022213D 1   1.00000     0.00000
 Structure written by MMmdl.
 48 49  0  0  0  0  0  0  0  0  1 V2000
  154.0955  140.7684  161.3254 C   0  0  0  0  0  0  0  0  0  0  0  0
  153.7021  142.0810  160.9401 O   0  0  0  0  0  0  0  0  0  0  0  0
  152.8436  142.2195  159.8688 C   0  0  0  0  0  0  0  0  0  0  0  0
  152.5051  143.5183  159.4398 C   0  0  0  0  0  0  0  0  0  0  0  0
  151.6352  143.6685  158.3430 C   0  0  0  0  0  0  0  0  0  0  0  0
  151.1349  142.5093  157.7043 C   0  0  0  0  0  0  0  0  0  0  0  0
  150.2378  142.5339  156.6037 N   0  0  0  0  0  0  0  0  0  0  0  0
  149.9529  141.5405  155.7449 C   0  0  0  0  0  0  0  0  0  0  0  0
  150.4206  140.4028  155.7939 O   0  0  0  0  0  0  0  0  0  0  0  0
  149.0600  141.9345  154.8258 N   0  0  0  0  0  0  0  0  0  0  0  0
  148.5149  141.0839  153.7739 C   0  0  0  0  0  0  0  0  0  0  0  0
  146.9730  141.0864  153.7948 C   0  0  0  0  0  0  0  0  0  0  0  0
  146.3686  141.2760  155.1964 C   0  0  0  0  0  0  0  0  0  0  0  0
  146.2978  140.3068  155.9537 O   0  0  0  0  0  0  0  0  0  0  0  0
  145.9381  142.5079  155.5601 N   0  0  0  0  0  0  0  0  0  0  0  0
  145.3092  142.8642  156.8357 C   0  0  0  0  0  0  0  0  0  0  0  0
  143.8464  143.2844  156.5801 C   0  0  2  0  0  0  0  0  0  0  0  0
  142.9198  142.1166  156.1963 C   0  0  0  0  0  0  0  0  0  0  0  0
  143.8061  144.3289  155.6024 O   0  0  0  0  0  0  0  0  0  0  0  0
  144.4761  144.0508  154.3701 C   0  0  1  0  0  0  0  0  0  0  0  0
  144.3739  145.2972  153.4842 C   0  0  0  0  0  0  0  0  0  0  0  0
  145.9391  143.6599  154.6566 C   0  0  0  0  0  0  0  0  0  0  0  0
  151.5187  141.2554  158.2226 C   0  0  0  0  0  0  0  0  0  0  0  0
  152.3548  141.1045  159.2712 N   0  0  0  0  0  0  0  0  0  0  0  0
  154.7759  140.8302  162.1746 H   0  0  0  0  0  0  0  0  0  0  0  0
  154.6209  140.2565  160.5177 H   0  0  0  0  0  0  0  0  0  0  0  0
  153.2376  140.1683  161.6319 H   0  0  0  0  0  0  0  0  0  0  0  0
  152.9035  144.3857  159.9453 H   0  0  0  0  0  0  0  0  0  0  0  0
  151.3594  144.6616  158.0237 H   0  0  0  0  0  0  0  0  0  0  0  0
  149.7030  143.3834  156.4977 H   0  0  0  0  0  0  0  0  0  0  0  0
  148.7268  142.8868  154.8605 H   0  0  0  0  0  0  0  0  0  0  0  0
  148.8786  141.4601  152.8171 H   0  0  0  0  0  0  0  0  0  0  0  0
  148.9053  140.0698  153.8799 H   0  0  0  0  0  0  0  0  0  0  0  0
  146.6077  141.8894  153.1533 H   0  0  0  0  0  0  0  0  0  0  0  0
  146.6080  140.1468  153.3782 H   0  0  0  0  0  0  0  0  0  0  0  0
  145.3434  142.0740  157.5840 H   0  0  0  0  0  0  0  0  0  0  0  0
  145.8583  143.6991  157.2734 H   0  0  0  0  0  0  0  0  0  0  0  0
  143.4552  143.7137  157.5028 H   0  0  0  0  0  0  0  0  0  0  0  0
  142.8826  141.3747  156.9943 H   0  0  0  0  0  0  0  0  0  0  0  0
  143.2487  141.6037  155.2930 H   0  0  0  0  0  0  0  0  0  0  0  0
  141.9023  142.4692  156.0271 H   0  0  0  0  0  0  0  0  0  0  0  0
  143.9722  143.2298  153.8591 H   0  0  0  0  0  0  0  0  0  0  0  0
  144.8568  145.1345  152.5203 H   0  0  0  0  0  0  0  0  0  0  0  0
  144.8488  146.1576  153.9564 H   0  0  0  0  0  0  0  0  0  0  0  0
  143.3318  145.5546  153.2937 H   0  0  0  0  0  0  0  0  0  0  0  0
  146.4705  144.4884  155.1274 H   0  0  0  0  0  0  0  0  0  0  0  0
  146.4612  143.4613  153.7198 H   0  0  0  0  0  0  0  0  0  0  0  0
  151.1504  140.3421  157.7784 H   0  0  0  0  0  0  0  0  0  0  0  0
  1  2  1  0  0  0  0
  1 25  1  0  0  0  0
  1 26  1  0  0  0  0
  1 27  1  0  0  0  0
  2  3  1  0  0  0  0
  3 24  1  0  0  0  0
  3  4  2  0  0  0  0
  4  5  1  0  0  0  0
  4 28  1  0  0  0  0
  5  6  2  0  0  0  0
  5 29  1  0  0  0  0
  6  7  1  0  0  0  0
  6 23  1  0  0  0  0
  7  8  1  0  0  0  0
  7 30  1  0  0  0  0
  8  9  2  0  0  0  0
  8 10  1  0  0  0  0
 10 11  1  0  0  0  0
 10 31  1  0  0  0  0
 11 12  1  0  0  0  0
 11 32  1  0  0  0  0
 11 33  1  0  0  0  0
 12 13  1  0  0  0  0
 12 34  1  0  0  0  0
 12 35  1  0  0  0  0
 13 14  2  0  0  0  0
 13 15  1  0  0  0  0
 15 22  1  0  0  0  0
 15 16  1  0  0  0  0
 16 17  1  0  0  0  0
 16 36  1  0  0  0  0
 16 37  1  0  0  0  0
 17 18  1  0  0  0  0
 17 19  1  0  0  0  0
 17 38  1  0  0  0  0
 18 39  1  0  0  0  0
 18 40  1  0  0  0  0
 18 41  1  0  0  0  0
 19 20  1  0  0  0  0
 20 21  1  0  0  0  0
 20 22  1  0  0  0  0
 20 42  1  0  0  0  0
 21 43  1  0  0  0  0
 21 44  1  0  0  0  0
 21 45  1  0  0  0  0
 22 46  1  0  0  0  0
 22 47  1  0  0  0  0
 23 24  2  0  0  0  0
 23 48  1  0  0  0  0
M  END
> <s_m_source_file>
AV-unprocessed.smi

> <i_m_source_file_index>
314

> <i_lp_mmshare_version>
43012

> <i_f3d_flags>
0

> <s_epik_input>
W0NIM11PYzFbY0hdW2NIXWMoW2NIXW4xKVtOSF1DKD1PKVtOSF1bQ0gyXVtDSDJdQyg9TylOMltDSDJdW0NAQEhdKFtDSDNdKU9bQ0BASF0oW0NIM10pW0NIMl0y

> <s_epik_cmdline>
J2VwaWtfcHl0aG9uJywgJy1waCcsICc3LjAnLCAnLXRuJywgJzgnLCAnLW1hJywgJzIwMCcsICctbWV0YWxfYmluZGluZycsICctaW1hZScsICc8aW5maWxlLm1hZT4nLCAnLW9tYWUnLCAnPG91dGZpbGUubWFlPic=

> <r_lp_tautomer_probability>
1

> <r_epik_Ionization_Penalty>
8.55977e-05

> <r_epik_Ionization_Penalty_Charging>
0

> <r_epik_Ionization_Penalty_Neutral>
8.55977e-05

> <r_epik_State_Penalty>
-0

> <r_epik_Charging_Adjusted_Penalty>
0

> <i_epik_Tot_Q>
0

> <i_epik_Tot_abs_Q>
0

> <r_epik_Metal_State_Penalty>
-0

> <b_epik_Metal_Only>
0

> <s_lp_Force_Field>
OPLS_2005

> <r_lp_Energy>
25.8744

> <b_lp_Chiralities_Consistent>
1

> <s_lp_Variant>
AV-unprocessed.smi:314-2

> <Gold.Version>
5.8.1

> <Gold.Id.Protein>
6NUR|6NUR_protein|mol2

> <Gold.PLP.Fitness>
46.1481

> <Gold.PLP.PLP>
-41.4397

> <Gold.PLP.part.hbond>
-2.0000

> <Gold.PLP.part.metal>
0.0000

> <Gold.PLP.part.buried>
-4.0990

> <Gold.PLP.part.nonpolar>
-35.9718

> <Gold.PLP.part.repulsive>
0.4185

> <Gold.PLP.ligand.clash>
0.0000

> <Gold.PLP.ligand.torsion>
0.5752

> <Gold.PLP.Chemscore.Hbond>
1.9440

> <Gold.PLP.Chemscore.CHOScore>
0.0000

> <Gold.PLP.Chemscore.Metal>
0.0000

> <Gold.Chemscore.Hbonds>
donor molecule, donor type, donor heavy atom, donor atom, acceptor molecule, acceptor atom, score
      L1  H     7    30       P1  8028  1.00
      L1  H    10    31       P1  8028  0.99

> <Gold.PLP.Chemscore.Internal.Correction>
0.0269

> <Gold.Rescore>
     Score         DG    S(hbond)    S(metal)    S(lipo)     H(rot)  DE(clash)    DE(int)     intcor
     15.31     -17.30       1.88        0.00      86.85       1.81       0.05       1.94       ----

> <Gold.Chemscore.Fitness>
15.3112

> <Gold.Chemscore.DG>
-17.3013

> <Gold.Chemscore.ZeroCoef>
-5.4800

> <Gold.Chemscore.Hbond>
1.8818

> <Gold.Chemscore.Metal>
0.0000

> <Gold.Chemscore.Lipo>
86.8489

> <Gold.Chemscore.Internal_Hbond>
0.0000

> <Gold.Chemscore.DEClash>
0.0522

> <Gold.Chemscore.DEInternal>
1.9380

> <Gold.Chemscore.Rot>
1.8067

> <Gold.Chemscore.Internal.Correction>
   9.000000E+99

> <Gold.Chemscore.Hbonds>
donor molecule, donor type, donor heavy atom, donor atom, acceptor molecule, acceptor atom, score
      L1  H     7    30       P1  8028  0.99
      L1  H    10    31       P1  8028  0.91

> <Gold.Chemscore.Hbond.Weighted>
-6.2851

> <Gold.Chemscore.Metal.Weighted>
-0.0000

> <Gold.Chemscore.Lipo.Weighted>
-10.1613

> <Gold.Chemscore.Internal_Hbond.Weighted>
0.0000

> <Gold.Chemscore.DEClash.Weighted>
0.0522

> <Gold.Chemscore.DEInternal.Weighted>
1.9380

> <Gold.Chemscore.Rot.Weighted>
4.6252

> <Gold.Chemscore.Internal.Correction.Weighted>
   9.000000E+99

> <Gold.Protein.RotatedTorsions>
[ 6907 6896 6895 6894 ] final  -46.03 input  -60.11 | X-H torsion
[ 7974 7965 7964 7962 ] final  126.38 input  175.53 | X-H torsion
[ 8008 7997 7996 7995 ] final   25.82 input   59.86 | X-H torsion
[ 10167 10162 10161 10158 ] final   -6.00 input  -65.29 | X-H torsion
[ 10718 10713 10712 10709 ] final  -44.54 input   66.30 | X-H torsion
[ 10763 10752 10751 10750 ] final  130.87 input  -60.55 | X-H torsion
[ 11005 11000 10999 10996 ] final   12.15 input  -57.11 | X-H torsion

> <Gold.Protein.ActiveResidues>
 VAL166  LYS551  ARG553  GLY616  TRP617  ASP618  TYR619  PRO620  LYS621  CYS622 
 ASP623  PHE694  ASN695  SER759  ASP760  ASP761  ALA762  ILE779  LEU786  VAL792 
 PHE793  MET794  SER795  GLU796  ALA797  LYS798  CYS799  TRP800  GLU811  SER814 

> <Gold.Protein.RotatedAtoms>
  150.9155  134.8573  159.7453 H   0  0  0  0  0  0  0  0  0  0  0  0  # atno 6907 bound_to 6896
  152.4966  134.4295  159.9517 H   0  0  0  0  0  0  0  0  0  0  0  0  # atno 6908 bound_to 6896
  151.4333  133.3624  159.2807 H   0  0  0  0  0  0  0  0  0  0  0  0  # atno 6909 bound_to 6896
  145.0624  139.3794  143.4999 H   0  0  0  0  0  0  0  0  0  0  0  0  # atno 7974 bound_to 7965
  155.0176  140.3144  155.4805 H   0  0  0  0  0  0  0  0  0  0  0  0  # atno 8008 bound_to 7997
  156.2898  140.2203  156.5235 H   0  0  0  0  0  0  0  0  0  0  0  0  # atno 8009 bound_to 7997
  154.7480  140.0468  157.0856 H   0  0  0  0  0  0  0  0  0  0  0  0  # atno 8010 bound_to 7997
  140.6982  143.6243  150.8582 H   0  0  0  0  0  0  0  0  0  0  0  0  # atno 10167 bound_to 10162
  156.2375  130.4177  149.8800 H   0  0  0  0  0  0  0  0  0  0  0  0  # atno 10718 bound_to 10713
  153.7651  135.3190  155.3343 H   0  0  0  0  0  0  0  0  0  0  0  0  # atno 10763 bound_to 10752
  154.8216  135.4599  154.0799 H   0  0  0  0  0  0  0  0  0  0  0  0  # atno 10764 bound_to 10752
  153.2042  135.6927  153.8277 H   0  0  0  0  0  0  0  0  0  0  0  0  # atno 10765 bound_to 10752
  140.4952  134.0801  155.7780 H   0  0  0  0  0  0  0  0  0  0  0  0  # atno 11005 bound_to 11000
  146.3525  140.0329  142.8649 LP  0  0  0  0  0  0  0  0  0  0  0  0  # atno 17320 bound_to 7965
  145.1392  140.9562  143.4498 LP  0  0  0  0  0  0  0  0  0  0  0  0  # atno 17321 bound_to 7965
  139.9963  143.5792  152.2892 LP  0  0  0  0  0  0  0  0  0  0  0  0  # atno 17342 bound_to 10162
  139.6465  144.7658  151.2233 LP  0  0  0  0  0  0  0  0  0  0  0  0  # atno 17343 bound_to 10162
  156.6393  130.8698  151.3511 LP  0  0  0  0  0  0  0  0  0  0  0  0  # atno 17370 bound_to 10713
  157.7161  130.9499  150.1260 LP  0  0  0  0  0  0  0  0  0  0  0  0  # atno 17371 bound_to 10713
  141.1464  133.9048  157.2205 LP  0  0  0  0  0  0  0  0  0  0  0  0  # atno 17394 bound_to 11000
  139.9746  135.0118  156.9598 LP  0  0  0  0  0  0  0  0  0  0  0  0  # atno 17395 bound_to 11000

$$$$
