AV-unprocessed.smi:3169|AV-procd|sdf|12106|dock3
  -GOLD-   2272017543D 1   1.00000     0.00000
 Structure written by MMmdl.
 35 36  0  0  0  0  0  0  0  0  1 V2000
  154.8217  139.8846  159.2525 O   0  0  0  0  0  0  0  0  0  0  0  0
  155.2225  140.6002  160.1705 C   0  0  0  0  0  0  0  0  0  0  0  0
  154.4456  141.4499  160.8551 N   0  0  0  0  0  0  0  0  0  0  0  0
  153.0076  141.6129  160.6640 C   0  0  0  0  0  0  0  0  0  0  0  0
  152.5046  142.9962  161.1214 C   0  0  0  0  0  0  0  0  0  0  0  0
  152.0000  143.7930  160.0188 N   0  0  0  0  0  0  0  0  0  0  0  0
  151.7355  143.3628  158.7255 C   0  0  0  0  0  0  0  0  0  0  0  0
  151.2798  144.4613  158.0320 C   0  0  0  0  0  0  0  0  0  0  0  0
  151.2565  145.5712  158.8734 N   0  0  0  0  0  0  0  0  0  0  0  0
  151.6945  145.0981  160.0329 C   0  0  0  0  0  0  0  0  0  0  0  0
  156.4824  140.6036  160.6256 N   0  0  0  0  0  0  0  0  0  0  0  0
  157.5438  139.7250  160.1492 C   0  0  0  0  0  0  0  0  0  0  0  0
  158.7382  140.5300  159.6097 C   0  0  1  0  0  0  0  0  0  0  0  0
  158.4157  141.3726  158.3774 C   0  0  0  0  0  0  0  0  0  0  0  0
  159.4324  142.5034  158.4413 C   0  0  0  0  0  0  0  0  0  0  0  0
  160.0096  142.4104  159.8570 C   0  0  0  0  0  0  0  0  0  0  0  0
  159.1521  141.5122  160.5460 O   0  0  0  0  0  0  0  0  0  0  0  0
  154.8703  141.9936  161.5921 H   0  0  0  0  0  0  0  0  0  0  0  0
  152.7854  141.4673  159.6066 H   0  0  0  0  0  0  0  0  0  0  0  0
  152.4766  140.8258  161.2014 H   0  0  0  0  0  0  0  0  0  0  0  0
  151.7020  142.8758  161.8498 H   0  0  0  0  0  0  0  0  0  0  0  0
  153.2966  143.5529  161.6240 H   0  0  0  0  0  0  0  0  0  0  0  0
  151.8899  142.3401  158.4148 H   0  0  0  0  0  0  0  0  0  0  0  0
  150.9699  144.5377  157.0002 H   0  0  0  0  0  0  0  0  0  0  0  0
  151.8022  145.7167  160.9121 H   0  0  0  0  0  0  0  0  0  0  0  0
  156.7139  141.2244  161.3873 H   0  0  0  0  0  0  0  0  0  0  0  0
  157.8660  139.0643  160.9556 H   0  0  0  0  0  0  0  0  0  0  0  0
  157.1358  139.0853  159.3661 H   0  0  0  0  0  0  0  0  0  0  0  0
  159.5812  139.8718  159.3902 H   0  0  0  0  0  0  0  0  0  0  0  0
  158.4752  140.7986  157.4522 H   0  0  0  0  0  0  0  0  0  0  0  0
  157.4085  141.7846  158.4530 H   0  0  0  0  0  0  0  0  0  0  0  0
  160.2187  142.3810  157.6956 H   0  0  0  0  0  0  0  0  0  0  0  0
  158.9509  143.4661  158.2665 H   0  0  0  0  0  0  0  0  0  0  0  0
  161.0177  141.9941  159.8334 H   0  0  0  0  0  0  0  0  0  0  0  0
  160.0524  143.3778  160.3578 H   0  0  0  0  0  0  0  0  0  0  0  0
  1  2  2  0  0  0  0
  2  3  1  0  0  0  0
  2 11  1  0  0  0  0
  3  4  1  0  0  0  0
  3 18  1  0  0  0  0
  4  5  1  0  0  0  0
  4 19  1  0  0  0  0
  4 20  1  0  0  0  0
  5  6  1  0  0  0  0
  5 21  1  0  0  0  0
  5 22  1  0  0  0  0
  6 10  1  0  0  0  0
  6  7  1  0  0  0  0
  7  8  2  0  0  0  0
  7 23  1  0  0  0  0
  8  9  1  0  0  0  0
  8 24  1  0  0  0  0
  9 10  2  0  0  0  0
 10 25  1  0  0  0  0
 11 12  1  0  0  0  0
 11 26  1  0  0  0  0
 12 13  1  0  0  0  0
 12 27  1  0  0  0  0
 12 28  1  0  0  0  0
 13 17  1  0  0  0  0
 13 14  1  0  0  0  0
 13 29  1  0  0  0  0
 14 15  1  0  0  0  0
 14 30  1  0  0  0  0
 14 31  1  0  0  0  0
 15 16  1  0  0  0  0
 15 32  1  0  0  0  0
 15 33  1  0  0  0  0
 16 17  1  0  0  0  0
 16 34  1  0  0  0  0
 16 35  1  0  0  0  0
M  END
> <s_m_source_file>
AV-unprocessed.smi

> <i_m_source_file_index>
3169

> <i_lp_mmshare_version>
43012

> <i_f3d_flags>
0

> <s_epik_input>
TzFbQ0gyXVtDSDJdW0NIMl1bQ0BIXTFbQ0gyXVtOSF1DKD1PKVtOSF1bQ0gyXVtDSDJdbjJbY0hdW2NIXW5bY0hdMg==

> <s_epik_cmdline>
J2VwaWtfcHl0aG9uJywgJy1waCcsICc3LjAnLCAnLXRuJywgJzgnLCAnLW1hJywgJzIwMCcsICctbWV0YWxfYmluZGluZycsICctaW1hZScsICc8aW5maWxlLm1hZT4nLCAnLW9tYWUnLCAnPG91dGZpbGUubWFlPic=

> <r_lp_tautomer_probability>
1

> <r_epik_Ionization_Penalty>
0.620462

> <r_epik_Ionization_Penalty_Charging>
0.620414

> <r_epik_Ionization_Penalty_Neutral>
4.72016e-05

> <r_epik_State_Penalty>
0.636391

> <r_epik_Charging_Adjusted_Penalty>
1.25681

> <i_epik_Tot_Q>
0

> <i_epik_Tot_abs_Q>
0

> <r_epik_Metal_State_Penalty>
0.306539

> <b_epik_Metal_Only>
0

> <s_lp_Force_Field>
OPLS_2005

> <r_lp_Energy>
15.8228

> <b_lp_Chiralities_Consistent>
1

> <s_lp_Variant>
AV-unprocessed.smi:3169-4

> <Gold.Version>
5.8.1

> <Gold.Id.Protein>
6NUR|6NUR_protein|mol2

> <Gold.PLP.Fitness>
45.5934

> <Gold.PLP.PLP>
-40.9044

> <Gold.PLP.part.hbond>
-4.5888

> <Gold.PLP.part.metal>
0.0000

> <Gold.PLP.part.buried>
-2.0109

> <Gold.PLP.part.nonpolar>
-34.9460

> <Gold.PLP.part.repulsive>
0.2355

> <Gold.PLP.ligand.clash>
0.0000

> <Gold.PLP.ligand.torsion>
0.6856

> <Gold.PLP.Chemscore.Hbond>
1.0000

> <Gold.PLP.Chemscore.CHOScore>
1.0000

> <Gold.PLP.Chemscore.Metal>
0.0000

> <Gold.Chemscore.Hbonds>
donor molecule, donor type, donor heavy atom, donor atom, acceptor molecule, acceptor atom, score
      P1  H  7997  8010       L1     1  1.00
      L1  C     8    24       P1  8028  1.00

> <Gold.PLP.Chemscore.Internal.Correction>
0.0603

> <Gold.Rescore>
     Score         DG    S(hbond)    S(metal)    S(lipo)     H(rot)  DE(clash)    DE(int)     intcor
     11.81     -12.63       0.99        0.00      81.97       2.25       0.05       0.77       ----

> <Gold.Chemscore.Fitness>
11.8070

> <Gold.Chemscore.DG>
-12.6272

> <Gold.Chemscore.ZeroCoef>
-5.4800

> <Gold.Chemscore.Hbond>
0.9912

> <Gold.Chemscore.Metal>
0.0000

> <Gold.Chemscore.Lipo>
81.9659

> <Gold.Chemscore.Internal_Hbond>
0.0000

> <Gold.Chemscore.DEClash>
0.0540

> <Gold.Chemscore.DEInternal>
0.7662

> <Gold.Chemscore.Rot>
2.2474

> <Gold.Chemscore.Internal.Correction>
   9.000000E+99

> <Gold.Chemscore.Hbonds>
donor molecule, donor type, donor heavy atom, donor atom, acceptor molecule, acceptor atom, score
      P1  H  7997  8010       L1     1  0.96

> <Gold.Chemscore.Hbond.Weighted>
-3.3105

> <Gold.Chemscore.Metal.Weighted>
-0.0000

> <Gold.Chemscore.Lipo.Weighted>
-9.5900

> <Gold.Chemscore.Internal_Hbond.Weighted>
0.0000

> <Gold.Chemscore.DEClash.Weighted>
0.0540

> <Gold.Chemscore.DEInternal.Weighted>
0.7662

> <Gold.Chemscore.Rot.Weighted>
5.7532

> <Gold.Chemscore.Internal.Correction.Weighted>
   9.000000E+99

> <Gold.Protein.RotatedTorsions>
[ 6907 6896 6895 6894 ] final   45.64 input  -60.11 | X-H torsion
[ 7974 7965 7964 7962 ] final -140.27 input  175.53 | X-H torsion
[ 8008 7997 7996 7995 ] final  -11.16 input   59.86 | X-H torsion
[ 10167 10162 10161 10158 ] final  132.63 input  -65.29 | X-H torsion
[ 10718 10713 10712 10709 ] final -177.73 input   66.30 | X-H torsion
[ 10763 10752 10751 10750 ] final -129.93 input  -60.55 | X-H torsion
[ 11005 11000 10999 10996 ] final -118.13 input  -57.11 | X-H torsion

> <Gold.Protein.ActiveResidues>
 VAL166  LYS551  ARG553  GLY616  TRP617  ASP618  TYR619  PRO620  LYS621  CYS622 
 ASP623  PHE694  ASN695  SER759  ASP760  ASP761  ALA762  ILE779  LEU786  VAL792 
 PHE793  MET794  SER795  GLU796  ALA797  LYS798  CYS799  TRP800  GLU811  SER814 

> <Gold.Protein.RotatedAtoms>
  152.2470  134.8171  160.0451 H   0  0  0  0  0  0  0  0  0  0  0  0  # atno 6907 bound_to 6896
  151.8866  133.3501  159.3792 H   0  0  0  0  0  0  0  0  0  0  0  0  # atno 6908 bound_to 6896
  150.7071  134.4892  159.5552 H   0  0  0  0  0  0  0  0  0  0  0  0  # atno 6909 bound_to 6896
  144.8610  140.6220  143.5328 H   0  0  0  0  0  0  0  0  0  0  0  0  # atno 7974 bound_to 7965
  154.5490  140.2310  155.8516 H   0  0  0  0  0  0  0  0  0  0  0  0  # atno 8008 bound_to 7997
  156.1929  140.3072  155.9330 H   0  0  0  0  0  0  0  0  0  0  0  0  # atno 8009 bound_to 7997
  155.3108  140.0435  157.3025 H   0  0  0  0  0  0  0  0  0  0  0  0  # atno 8010 bound_to 7997
  139.5331  144.6653  151.4879 H   0  0  0  0  0  0  0  0  0  0  0  0  # atno 10167 bound_to 10162
  156.8338  130.9662  151.3105 H   0  0  0  0  0  0  0  0  0  0  0  0  # atno 10718 bound_to 10713
  154.8756  135.3879  154.4000 H   0  0  0  0  0  0  0  0  0  0  0  0  # atno 10763 bound_to 10752
  153.4726  135.7030  153.5990 H   0  0  0  0  0  0  0  0  0  0  0  0  # atno 10764 bound_to 10752
  153.4440  135.3849  155.2213 H   0  0  0  0  0  0  0  0  0  0  0  0  # atno 10765 bound_to 10752
  141.0307  133.9985  157.3147 H   0  0  0  0  0  0  0  0  0  0  0  0  # atno 11005 bound_to 11000
  145.4312  139.1549  143.4021 LP  0  0  0  0  0  0  0  0  0  0  0  0  # atno 17320 bound_to 7965
  146.2860  140.4428  142.8757 LP  0  0  0  0  0  0  0  0  0  0  0  0  # atno 17321 bound_to 7965
  140.6522  143.8673  150.6797 LP  0  0  0  0  0  0  0  0  0  0  0  0  # atno 17342 bound_to 10162
  140.2041  143.3935  152.1769 LP  0  0  0  0  0  0  0  0  0  0  0  0  # atno 17343 bound_to 10162
  157.6393  130.8792  149.9417 LP  0  0  0  0  0  0  0  0  0  0  0  0  # atno 17370 bound_to 10713
  156.0919  130.3662  150.0378 LP  0  0  0  0  0  0  0  0  0  0  0  0  # atno 17371 bound_to 10713
  139.9206  135.0200  156.8050 LP  0  0  0  0  0  0  0  0  0  0  0  0  # atno 17394 bound_to 11000
  140.6411  133.9817  155.7708 LP  0  0  0  0  0  0  0  0  0  0  0  0  # atno 17395 bound_to 11000

$$$$
