AV-unprocessed.smi:21|AV-procd|sdf|159|dock2
  -GOLD-   2262015393D 1   1.00000     0.00000
 Structure written by MMmdl.
 61 64  0  0  0  0  0  0  0  0  1 V2000
  153.3470  142.1470  162.6071 C   0  0  0  0  0  0  0  0  0  0  0  0
  153.0846  141.3555  161.4598 O   0  0  0  0  0  0  0  0  0  0  0  0
  153.3614  142.0226  160.2363 C   0  0  1  0  0  0  0  0  0  0  0  0
  152.9234  141.1567  159.0451 C   0  0  0  0  0  0  0  0  0  0  0  0
  151.8417  141.9867  158.3345 C   0  0  2  0  0  0  0  0  0  0  0  0
  151.7402  141.7054  156.8191 C   0  0  0  0  0  0  0  0  0  0  0  0
  150.4984  141.0227  156.4543 N   0  0  0  0  0  0  0  0  0  0  0  0
  149.2881  141.3300  157.2051 C   0  0  0  0  0  0  0  0  0  0  0  0
  150.5742  139.8549  155.7627 C   0  0  0  0  0  0  0  0  0  0  0  0
  151.6185  139.6880  154.9093 N   0  0  0  0  0  0  0  0  0  0  0  0
  151.7476  138.5609  154.2044 C   0  0  0  0  0  0  0  0  0  0  0  0
  150.9595  137.4856  154.2006 N   0  0  0  0  0  0  0  0  0  0  0  0
  149.9114  137.6394  155.0584 C   0  0  0  0  0  0  0  0  0  0  0  0
  149.6434  138.7783  155.8718 C   0  0  0  0  0  0  0  0  0  0  0  0
  148.4986  138.5486  156.6283 N   0  0  0  0  0  0  0  0  0  0  0  0
  148.1105  137.3537  156.2779 C   0  0  0  0  0  0  0  0  0  0  0  0
  148.8905  136.7435  155.3231 N   0  0  0  0  0  0  0  0  0  0  0  0
  148.6953  135.4201  154.7584 C   0  0  0  0  0  0  0  0  0  0  0  0
  149.7905  134.3822  155.1318 C   0  0  1  0  0  0  0  0  0  0  0  0
  149.9380  134.3362  156.6723 C   0  0  0  0  0  0  0  0  0  0  0  0
  150.9125  133.3929  157.0683 O   0  0  0  0  0  0  0  0  0  0  0  0
  149.5177  132.9668  154.5389 C   0  0  2  0  0  0  0  0  0  0  0  0
  150.7477  132.0862  154.3691 C   0  0  0  0  0  0  0  0  0  0  0  0
  150.2654  131.0421  153.3741 C   0  0  0  0  0  0  0  0  0  0  0  0
  149.4754  131.7820  152.4588 O   0  0  0  0  0  0  0  0  0  0  0  0
  148.9544  132.9394  153.1056 C   0  0  0  0  0  0  0  0  0  0  0  0
  152.1571  143.3649  158.6748 N   0  0  0  0  0  0  0  0  0  0  0  0
  151.0612  144.2956  158.4392 C   0  0  0  0  0  0  0  0  0  0  0  0
  152.5264  143.3000  160.0752 C   0  0  0  0  0  0  0  0  0  0  0  0
  154.4271  142.2412  160.1454 H   0  0  0  0  0  0  0  0  0  0  0  0
  150.8849  141.7372  158.7969 H   0  0  0  0  0  0  0  0  0  0  0  0
  153.1311  141.5688  163.5053 H   0  0  0  0  0  0  0  0  0  0  0  0
  152.7246  143.0421  162.6286 H   0  0  0  0  0  0  0  0  0  0  0  0
  154.3945  142.4482  162.6465 H   0  0  0  0  0  0  0  0  0  0  0  0
  153.7767  140.9860  158.3871 H   0  0  0  0  0  0  0  0  0  0  0  0
  152.5446  140.1807  159.3517 H   0  0  0  0  0  0  0  0  0  0  0  0
  151.7612  142.6449  156.2673 H   0  0  0  0  0  0  0  0  0  0  0  0
  152.6175  141.1528  156.4821 H   0  0  0  0  0  0  0  0  0  0  0  0
  148.3966  141.0636  156.6365 H   0  0  0  0  0  0  0  0  0  0  0  0
  149.2362  142.3970  157.4217 H   0  0  0  0  0  0  0  0  0  0  0  0
  149.2735  140.7930  158.1535 H   0  0  0  0  0  0  0  0  0  0  0  0
  152.6050  138.5150  153.5493 H   0  0  0  0  0  0  0  0  0  0  0  0
  147.2325  136.8878  156.7011 H   0  0  0  0  0  0  0  0  0  0  0  0
  147.7152  135.0789  155.0924 H   0  0  0  0  0  0  0  0  0  0  0  0
  148.6292  135.5140  153.6737 H   0  0  0  0  0  0  0  0  0  0  0  0
  150.7455  134.7269  154.7331 H   0  0  0  0  0  0  0  0  0  0  0  0
  150.2031  135.3174  157.0671 H   0  0  0  0  0  0  0  0  0  0  0  0
  149.0091  134.0367  157.1552 H   0  0  0  0  0  0  0  0  0  0  0  0
  151.4976  133.2421  156.3420 H   0  0  0  0  0  0  0  0  0  0  0  0
  148.8232  132.4369  155.1930 H   0  0  0  0  0  0  0  0  0  0  0  0
  151.5732  132.6560  153.9396 H   0  0  0  0  0  0  0  0  0  0  0  0
  151.0866  131.6355  155.3022 H   0  0  0  0  0  0  0  0  0  0  0  0
  151.0831  130.5238  152.8732 H   0  0  0  0  0  0  0  0  0  0  0  0
  149.6382  130.2998  153.8698 H   0  0  0  0  0  0  0  0  0  0  0  0
  147.8658  132.9042  153.0968 H   0  0  0  0  0  0  0  0  0  0  0  0
  149.2688  133.8128  152.5337 H   0  0  0  0  0  0  0  0  0  0  0  0
  151.3337  145.2982  158.7696 H   0  0  0  0  0  0  0  0  0  0  0  0
  150.1620  143.9945  158.9780 H   0  0  0  0  0  0  0  0  0  0  0  0
  150.8186  144.3555  157.3785 H   0  0  0  0  0  0  0  0  0  0  0  0
  151.6275  143.2236  160.6898 H   0  0  0  0  0  0  0  0  0  0  0  0
  153.0675  144.1927  160.3903 H   0  0  0  0  0  0  0  0  0  0  0  0
  1  2  1  0  0  0  0
  1 32  1  0  0  0  0
  1 33  1  0  0  0  0
  1 34  1  0  0  0  0
  2  3  1  0  0  0  0
  3 30  1  0  0  0  0
  3 29  1  0  0  0  0
  3  4  1  0  0  0  0
  4  5  1  0  0  0  0
  4 35  1  0  0  0  0
  4 36  1  0  0  0  0
  5 31  1  0  0  0  0
  5  6  1  0  0  0  0
  5 27  1  0  0  0  0
  6  7  1  0  0  0  0
  6 37  1  0  0  0  0
  6 38  1  0  0  0  0
  7  8  1  0  0  0  0
  7  9  1  0  0  0  0
  8 39  1  0  0  0  0
  8 40  1  0  0  0  0
  8 41  1  0  0  0  0
  9 14  1  0  0  0  0
  9 10  2  0  0  0  0
 10 11  1  0  0  0  0
 11 12  2  0  0  0  0
 11 42  1  0  0  0  0
 12 13  1  0  0  0  0
 13 17  1  0  0  0  0
 13 14  2  0  0  0  0
 14 15  1  0  0  0  0
 15 16  2  0  0  0  0
 16 17  1  0  0  0  0
 16 43  1  0  0  0  0
 17 18  1  0  0  0  0
 18 19  1  0  0  0  0
 18 44  1  0  0  0  0
 18 45  1  0  0  0  0
 19 20  1  0  0  0  0
 19 22  1  0  0  0  0
 19 46  1  0  0  0  0
 20 21  1  0  0  0  0
 20 47  1  0  0  0  0
 20 48  1  0  0  0  0
 21 49  1  0  0  0  0
 22 26  1  0  0  0  0
 22 23  1  0  0  0  0
 22 50  1  0  0  0  0
 23 24  1  0  0  0  0
 23 51  1  0  0  0  0
 23 52  1  0  0  0  0
 24 25  1  0  0  0  0
 24 53  1  0  0  0  0
 24 54  1  0  0  0  0
 25 26  1  0  0  0  0
 26 55  1  0  0  0  0
 26 56  1  0  0  0  0
 27 28  1  0  0  0  0
 27 29  1  0  0  0  0
 28 57  1  0  0  0  0
 28 58  1  0  0  0  0
 28 59  1  0  0  0  0
 29 60  1  0  0  0  0
 29 61  1  0  0  0  0
M  END
> <s_m_source_file>
AV-unprocessed.smi

> <i_m_source_file_index>
21

> <i_lp_mmshare_version>
43012

> <i_f3d_flags>
0

> <s_epik_input>
W0NIM11PW0NASF0xW0NIMl1bQ0BIXShOKFtDSDNdKVtDSDJdMSlbQ0gyXU4oW0NIM10pYyhuW2NIXW4yKWMoYzIzKW5bY0hdbjNbQ0gyXVtDQEhdKFtDSDJdW09IXSlbQ0BASF00W0NIMl1bQ0gyXU9bQ0gyXTQ=

> <s_epik_cmdline>
J2VwaWtfcHl0aG9uJywgJy1waCcsICc3LjAnLCAnLXRuJywgJzgnLCAnLW1hJywgJzIwMCcsICctbWV0YWxfYmluZGluZycsICctaW1hZScsICc8aW5maWxlLm1hZT4nLCAnLW9tYWUnLCAnPG91dGZpbGUubWFlPic=

> <r_lp_tautomer_probability>
1

> <r_epik_Ionization_Penalty>
2.17574

> <r_epik_Ionization_Penalty_Charging>
0

> <r_epik_Ionization_Penalty_Neutral>
2.17574

> <r_epik_State_Penalty>
2.31336

> <r_epik_Charging_Adjusted_Penalty>
2.31336

> <i_epik_Tot_Q>
0

> <i_epik_Tot_abs_Q>
0

> <r_epik_Metal_State_Penalty>
2.31025

> <b_epik_Metal_Only>
0

> <s_lp_Force_Field>
OPLS_2005

> <r_lp_Energy>
70.5477

> <b_lp_Chiralities_Consistent>
1

> <s_lp_Variant>
AV-unprocessed.smi:21-39

> <Gold.Version>
5.8.1

> <Gold.Id.Protein>
6NUR|6NUR_protein|mol2

> <Gold.PLP.Fitness>
48.4920

> <Gold.PLP.PLP>
-45.0045

> <Gold.PLP.part.hbond>
-2.0000

> <Gold.PLP.part.metal>
0.0000

> <Gold.PLP.part.buried>
-8.7443

> <Gold.PLP.part.nonpolar>
-34.5528

> <Gold.PLP.part.repulsive>
0.9992

> <Gold.PLP.ligand.clash>
0.0000

> <Gold.PLP.ligand.torsion>
1.5999

> <Gold.PLP.Chemscore.Hbond>
2.0000

> <Gold.PLP.Chemscore.CHOScore>
0.0000

> <Gold.PLP.Chemscore.Metal>
0.0000

> <Gold.Chemscore.Hbonds>
donor molecule, donor type, donor heavy atom, donor atom, acceptor molecule, acceptor atom, score
      P1  H  6896  6907       L1    21  0.47
      P1  H  7989  7998       L1    10  0.90

> <Gold.PLP.Chemscore.Internal.Correction>
0.6873

> <Gold.Rescore>
     Score         DG    S(hbond)    S(metal)    S(lipo)     H(rot)  DE(clash)    DE(int)     intcor
     10.82     -14.45       1.32        0.00     104.69       3.00       0.66       2.97       ----

> <Gold.Chemscore.Fitness>
10.8188

> <Gold.Chemscore.DG>
-14.4462

> <Gold.Chemscore.ZeroCoef>
-5.4800

> <Gold.Chemscore.Hbond>
1.3190

> <Gold.Chemscore.Metal>
0.0000

> <Gold.Chemscore.Lipo>
104.6911

> <Gold.Chemscore.Internal_Hbond>
0.0000

> <Gold.Chemscore.DEClash>
0.6593

> <Gold.Chemscore.DEInternal>
2.9681

> <Gold.Chemscore.Rot>
3.0031

> <Gold.Chemscore.Internal.Correction>
   9.000000E+99

> <Gold.Chemscore.Hbonds>
donor molecule, donor type, donor heavy atom, donor atom, acceptor molecule, acceptor atom, score
      P1  H  6896  6907       L1    21  0.14
      P1  H  7989  7998       L1    10  0.16

> <Gold.Chemscore.Hbond.Weighted>
-4.4053

> <Gold.Chemscore.Metal.Weighted>
-0.0000

> <Gold.Chemscore.Lipo.Weighted>
-12.2489

> <Gold.Chemscore.Internal_Hbond.Weighted>
0.0000

> <Gold.Chemscore.DEClash.Weighted>
0.6593

> <Gold.Chemscore.DEInternal.Weighted>
2.9681

> <Gold.Chemscore.Rot.Weighted>
7.6880

> <Gold.Chemscore.Internal.Correction.Weighted>
   9.000000E+99

> <Gold.Protein.RotatedTorsions>
[ 6907 6896 6895 6894 ] final -127.70 input  -60.11 | X-H torsion
[ 7974 7965 7964 7962 ] final  101.77 input  175.53 | X-H torsion
[ 8008 7997 7996 7995 ] final   73.18 input   59.86 | X-H torsion
[ 10167 10162 10161 10158 ] final  135.39 input  -65.29 | X-H torsion
[ 10718 10713 10712 10709 ] final  -49.03 input   66.30 | X-H torsion
[ 10763 10752 10751 10750 ] final   74.88 input  -60.55 | X-H torsion
[ 11005 11000 10999 10996 ] final   75.30 input  -57.11 | X-H torsion

> <Gold.Protein.ActiveResidues>
 VAL166  LYS551  ARG553  GLY616  TRP617  ASP618  TYR619  PRO620  LYS621  CYS622 
 ASP623  PHE694  ASN695  SER759  ASP760  ASP761  ALA762  ILE779  LEU786  VAL792 
 PHE793  MET794  SER795  GLU796  ALA797  LYS798  CYS799  TRP800  GLU811  SER814 

> <Gold.Protein.RotatedAtoms>
  150.9100  133.7009  159.2856 H   0  0  0  0  0  0  0  0  0  0  0  0  # atno 6907 bound_to 6896
  151.4499  135.1027  159.9704 H   0  0  0  0  0  0  0  0  0  0  0  0  # atno 6908 bound_to 6896
  152.4924  133.8488  159.7246 H   0  0  0  0  0  0  0  0  0  0  0  0  # atno 6909 bound_to 6896
  145.3679  139.2404  143.3471 H   0  0  0  0  0  0  0  0  0  0  0  0  # atno 7974 bound_to 7965
  155.7798  140.3482  155.5291 H   0  0  0  0  0  0  0  0  0  0  0  0  # atno 8008 bound_to 7997
  155.8739  140.0991  157.1552 H   0  0  0  0  0  0  0  0  0  0  0  0  # atno 8009 bound_to 7997
  154.4019  140.1335  156.4100 H   0  0  0  0  0  0  0  0  0  0  0  0  # atno 8010 bound_to 7997
  139.5219  144.6519  151.5277 H   0  0  0  0  0  0  0  0  0  0  0  0  # atno 10167 bound_to 10162
  156.1931  130.4153  149.9344 H   0  0  0  0  0  0  0  0  0  0  0  0  # atno 10718 bound_to 10713
  153.0617  135.5009  154.8108 H   0  0  0  0  0  0  0  0  0  0  0  0  # atno 10763 bound_to 10752
  154.6892  135.2981  154.9506 H   0  0  0  0  0  0  0  0  0  0  0  0  # atno 10764 bound_to 10752
  154.0266  135.6735  153.4830 H   0  0  0  0  0  0  0  0  0  0  0  0  # atno 10765 bound_to 10752
  139.9350  134.7506  156.1254 H   0  0  0  0  0  0  0  0  0  0  0  0  # atno 11005 bound_to 11000
  146.2898  140.4325  142.8744 LP  0  0  0  0  0  0  0  0  0  0  0  0  # atno 17320 bound_to 7965
  144.8598  140.7123  143.6115 LP  0  0  0  0  0  0  0  0  0  0  0  0  # atno 17321 bound_to 7965
  140.6328  143.9043  150.6620 LP  0  0  0  0  0  0  0  0  0  0  0  0  # atno 17342 bound_to 10162
  140.2353  143.3705  152.1532 LP  0  0  0  0  0  0  0  0  0  0  0  0  # atno 17343 bound_to 10162
  156.7077  130.8958  151.3606 LP  0  0  0  0  0  0  0  0  0  0  0  0  # atno 17370 bound_to 10713
  157.6941  130.9264  150.0595 LP  0  0  0  0  0  0  0  0  0  0  0  0  # atno 17371 bound_to 10713
  141.0959  133.6696  156.2644 LP  0  0  0  0  0  0  0  0  0  0  0  0  # atno 17394 bound_to 11000
  140.6100  134.5468  157.5532 LP  0  0  0  0  0  0  0  0  0  0  0  0  # atno 17395 bound_to 11000

$$$$
