AV-unprocessed.smi:290|AV-procd|sdf|2235|dock3
  -GOLD-   2262022103D 1   1.00000     0.00000
 Structure written by MMmdl.
 59 62  0  0  0  0  0  0  0  0  2 V2000
  150.6174  141.7103  156.0493 C   0  0  0  0  0  0  0  0  0  0  0  0
  150.6241  140.1777  155.9528 C   0  0  2  0  0  0  0  0  0  0  0  0
  151.2398  139.7511  154.7403 O   0  0  0  0  0  0  0  0  0  0  0  0
  150.6207  138.5578  154.2677 C   0  0  0  0  0  0  0  0  0  0  0  0
  149.6394  138.1406  155.3592 C   0  0  0  0  0  0  0  0  0  0  0  0
  149.2541  139.4739  155.9885 C   0  0  1  0  0  0  0  0  0  0  0  0
  148.8513  139.2483  157.3259 O   0  0  0  0  0  0  0  0  0  0  0  0
  148.1337  140.2329  155.2249 C   0  0  0  0  0  0  0  0  0  0  0  0
  147.2699  139.3750  154.4292 N   0  0  0  0  0  0  0  0  0  0  0  0
  147.5198  138.9072  153.1592 C   0  0  0  0  0  0  0  0  0  0  0  0
  146.5858  138.1510  152.6508 N   0  0  0  0  0  0  0  0  0  0  0  0
  145.6071  138.1092  153.6372 C   0  0  0  0  0  0  0  0  0  0  0  0
  144.3334  137.4820  153.7552 C   0  0  0  0  0  0  0  0  0  0  0  0
  143.7593  136.6907  152.8215 N   0  0  0  0  0  0  0  0  0  0  0  0
  144.4299  136.5664  151.5288 C   0  0  0  0  0  0  0  0  0  0  0  0
  144.5331  135.0660  151.2307 C   0  0  0  0  0  0  0  0  0  0  0  0
  144.3806  134.4126  152.6102 C   0  0  2  0  0  0  0  0  0  0  0  0
  143.9859  132.9730  152.6094 N   0  3  1  0  0  0  0  0  0  0  0  0
  143.1112  132.6181  151.4623 C   0  0  0  0  0  0  0  0  0  0  0  0
  145.1636  132.0669  152.7126 C   0  0  0  0  0  0  0  0  0  0  0  0
  146.3423  132.4964  151.8204 C   0  0  0  0  0  0  0  0  0  0  0  0
  147.5634  132.0651  152.3811 O   0  0  0  0  0  0  0  0  0  0  0  0
  143.3800  135.3654  153.2985 C   0  0  2  0  0  0  0  0  0  0  0  0
  141.9026  135.0934  152.9565 C   0  0  0  0  0  0  0  0  0  0  0  0
  143.6471  137.6506  154.9113 N   0  0  0  0  0  0  0  0  0  0  0  0
  144.1579  138.4050  155.8889 C   0  0  0  0  0  0  0  0  0  0  0  0
  145.3214  139.0583  155.9182 N   0  0  0  0  0  0  0  0  0  0  0  0
  146.0234  138.8747  154.7631 C   0  0  0  0  0  0  0  0  0  0  0  0
  145.3427  134.4868  153.1191 H   0  0  0  0  0  0  0  0  0  0  0  0
  143.4975  135.3059  154.3819 H   0  0  0  0  0  0  0  0  0  0  0  0
  150.1139  142.0440  156.9570 H   0  0  0  0  0  0  0  0  0  0  0  0
  150.1168  142.1675  155.1958 H   0  0  0  0  0  0  0  0  0  0  0  0
  151.6362  142.0975  156.0740 H   0  0  0  0  0  0  0  0  0  0  0  0
  151.2428  139.7835  156.7615 H   0  0  0  0  0  0  0  0  0  0  0  0
  150.0920  138.7822  153.3408 H   0  0  0  0  0  0  0  0  0  0  0  0
  151.3586  137.7834  154.0577 H   0  0  0  0  0  0  0  0  0  0  0  0
  148.8037  137.5509  154.9849 H   0  0  0  0  0  0  0  0  0  0  0  0
  150.1679  137.5211  156.0862 H   0  0  0  0  0  0  0  0  0  0  0  0
  148.4027  138.4174  157.3678 H   0  0  0  0  0  0  0  0  0  0  0  0
  147.5025  140.7826  155.9240 H   0  0  0  0  0  0  0  0  0  0  0  0
  148.5681  140.9800  154.5593 H   0  0  0  0  0  0  0  0  0  0  0  0
  148.4278  139.1399  152.6220 H   0  0  0  0  0  0  0  0  0  0  0  0
  143.8507  137.0762  150.7585 H   0  0  0  0  0  0  0  0  0  0  0  0
  145.4184  137.0255  151.5377 H   0  0  0  0  0  0  0  0  0  0  0  0
  143.7154  134.7681  150.5733 H   0  0  0  0  0  0  0  0  0  0  0  0
  145.4720  134.8106  150.7384 H   0  0  0  0  0  0  0  0  0  0  0  0
  143.6127  132.8193  150.5149 H   0  0  0  0  0  0  0  0  0  0  0  0
  142.1787  133.1815  151.4820 H   0  0  0  0  0  0  0  0  0  0  0  0
  142.8290  131.5669  151.4768 H   0  0  0  0  0  0  0  0  0  0  0  0
  145.4831  132.0133  153.7542 H   0  0  0  0  0  0  0  0  0  0  0  0
  144.8906  131.0494  152.4338 H   0  0  0  0  0  0  0  0  0  0  0  0
  146.2541  132.1247  150.8007 H   0  0  0  0  0  0  0  0  0  0  0  0
  146.3689  133.5841  151.7522 H   0  0  0  0  0  0  0  0  0  0  0  0
  148.0901  131.6789  151.6975 H   0  0  0  0  0  0  0  0  0  0  0  0
  141.5768  134.1232  153.3285 H   0  0  0  0  0  0  0  0  0  0  0  0
  141.7189  135.1188  151.8823 H   0  0  0  0  0  0  0  0  0  0  0  0
  141.2583  135.8437  153.4158 H   0  0  0  0  0  0  0  0  0  0  0  0
  143.5478  138.4964  156.7756 H   0  0  0  0  0  0  0  0  0  0  0  0
  143.4397  132.8308  153.4475 H   0  0  0  0  0  0  0  0  0  0  0  0
  1  2  1  0  0  0  0
  1 31  1  0  0  0  0
  1 32  1  0  0  0  0
  1 33  1  0  0  0  0
  2  6  1  0  0  0  0
  2  3  1  0  0  0  0
  2 34  1  0  0  0  0
  3  4  1  0  0  0  0
  4  5  1  0  0  0  0
  4 35  1  0  0  0  0
  4 36  1  0  0  0  0
  5  6  1  0  0  0  0
  5 37  1  0  0  0  0
  5 38  1  0  0  0  0
  6  7  1  0  0  0  0
  6  8  1  0  0  0  0
  7 39  1  0  0  0  0
  8  9  1  0  0  0  0
  8 40  1  0  0  0  0
  8 41  1  0  0  0  0
  9 28  1  0  0  0  0
  9 10  1  0  0  0  0
 10 11  2  0  0  0  0
 10 42  1  0  0  0  0
 11 12  1  0  0  0  0
 12 28  2  0  0  0  0
 12 13  1  0  0  0  0
 13 14  1  0  0  0  0
 13 25  2  0  0  0  0
 14 23  1  0  0  0  0
 14 15  1  0  0  0  0
 15 16  1  0  0  0  0
 15 43  1  0  0  0  0
 15 44  1  0  0  0  0
 16 17  1  0  0  0  0
 16 45  1  0  0  0  0
 16 46  1  0  0  0  0
 17 29  1  0  0  0  0
 17 18  1  0  0  0  0
 17 23  1  0  0  0  0
 18 19  1  0  0  0  0
 18 20  1  0  0  0  0
 18 59  1  0  0  0  0
 19 47  1  0  0  0  0
 19 48  1  0  0  0  0
 19 49  1  0  0  0  0
 20 21  1  0  0  0  0
 20 50  1  0  0  0  0
 20 51  1  0  0  0  0
 21 22  1  0  0  0  0
 21 52  1  0  0  0  0
 21 53  1  0  0  0  0
 22 54  1  0  0  0  0
 23 30  1  0  0  0  0
 23 24  1  0  0  0  0
 24 55  1  0  0  0  0
 24 56  1  0  0  0  0
 24 57  1  0  0  0  0
 25 26  1  0  0  0  0
 26 27  2  0  0  0  0
 26 58  1  0  0  0  0
 27 28  1  0  0  0  0
M  CHG  1  18   1
M  END
> <s_m_source_file>
AV-unprocessed.smi

> <i_m_source_file_index>
290

> <i_lp_mmshare_version>
43012

> <i_f3d_flags>
0

> <s_epik_input>
W0NIMl0xW0NIMl1PW0NAQEhdKFtDSDNdKVtDQEBdMShbT0hdKVtDSDJdbihbY0hdbjIpYyhjMjMpbltjSF1uYzNONFtDSDJdW0NIMl1bQ0BIXShbQ0BIXTRbQ0gzXSlOKFtDSDNdKVtDSDJdW0NIMl1bT0hd

> <s_epik_cmdline>
J2VwaWtfcHl0aG9uJywgJy1waCcsICc3LjAnLCAnLXRuJywgJzgnLCAnLW1hJywgJzIwMCcsICctbWV0YWxfYmluZGluZycsICctaW1hZScsICc8aW5maWxlLm1hZT4nLCAnLW9tYWUnLCAnPG91dGZpbGUubWFlPic=

> <r_lp_tautomer_probability>
1

> <r_epik_Ionization_Penalty>
0.0036983

> <r_epik_Ionization_Penalty_Charging>
0.0032725

> <r_epik_Ionization_Penalty_Neutral>
0.000425798

> <r_epik_State_Penalty>
-0

> <r_epik_Charging_Adjusted_Penalty>
0.0032725

> <i_epik_Tot_Q>
1

> <i_epik_Tot_abs_Q>
1

> <r_epik_Metal_State_Penalty>
-0

> <b_epik_Metal_Only>
0

> <s_lp_Force_Field>
OPLS_2005

> <r_lp_Energy>
64.7341

> <b_lp_Chiralities_Consistent>
1

> <s_lp_Variant>
AV-unprocessed.smi:290-21

> <Gold.Version>
5.8.1

> <Gold.Id.Protein>
6NUR|6NUR_protein|mol2

> <Gold.PLP.Fitness>
42.4878

> <Gold.PLP.PLP>
-31.8490

> <Gold.PLP.part.hbond>
-2.9175

> <Gold.PLP.part.metal>
0.0000

> <Gold.PLP.part.buried>
-4.2985

> <Gold.PLP.part.nonpolar>
-26.4659

> <Gold.PLP.part.repulsive>
0.5920

> <Gold.PLP.ligand.clash>
0.0000

> <Gold.PLP.ligand.torsion>
2.3295

> <Gold.PLP.Chemscore.Hbond>
3.9825

> <Gold.PLP.Chemscore.CHOScore>
1.0000

> <Gold.PLP.Chemscore.Metal>
0.0000

> <Gold.Chemscore.Hbonds>
donor molecule, donor type, donor heavy atom, donor atom, acceptor molecule, acceptor atom, score
      L1  H    18    59       P1 10957  2.00
      L1  H    22    54       P1 10747  1.00
      P1  H  7989  7998       L1     3  1.00
      L1  C    10    42       P1  7957  1.00

> <Gold.PLP.Chemscore.Internal.Correction>
0.3503

> <Gold.Rescore>
     Score         DG    S(hbond)    S(metal)    S(lipo)     H(rot)  DE(clash)    DE(int)     intcor
      9.21     -14.16       2.65        0.00      78.67       3.67       1.35       3.61       ----

> <Gold.Chemscore.Fitness>
9.2084

> <Gold.Chemscore.DG>
-14.1648

> <Gold.Chemscore.ZeroCoef>
-5.4800

> <Gold.Chemscore.Hbond>
2.6542

> <Gold.Chemscore.Metal>
0.0000

> <Gold.Chemscore.Lipo>
78.6679

> <Gold.Chemscore.Internal_Hbond>
0.0000

> <Gold.Chemscore.DEClash>
1.3497

> <Gold.Chemscore.DEInternal>
3.6067

> <Gold.Chemscore.Rot>
3.6658

> <Gold.Chemscore.Internal.Correction>
   9.000000E+99

> <Gold.Chemscore.Hbonds>
donor molecule, donor type, donor heavy atom, donor atom, acceptor molecule, acceptor atom, score
      L1  H    18    59       P1 10957  0.67
      L1  H    22    54       P1 10747  1.00
      P1  H  7989  7998       L1     3  0.87

> <Gold.Chemscore.Hbond.Weighted>
-8.8650

> <Gold.Chemscore.Metal.Weighted>
-0.0000

> <Gold.Chemscore.Lipo.Weighted>
-9.2041

> <Gold.Chemscore.Internal_Hbond.Weighted>
0.0000

> <Gold.Chemscore.DEClash.Weighted>
1.3497

> <Gold.Chemscore.DEInternal.Weighted>
3.6067

> <Gold.Chemscore.Rot.Weighted>
9.3844

> <Gold.Chemscore.Internal.Correction.Weighted>
   9.000000E+99

> <Gold.Protein.RotatedTorsions>
[ 6907 6896 6895 6894 ] final  167.86 input  -60.11 | X-H torsion
[ 7974 7965 7964 7962 ] final   80.28 input  175.53 | X-H torsion
[ 8008 7997 7996 7995 ] final   30.26 input   59.86 | X-H torsion
[ 10167 10162 10161 10158 ] final  162.46 input  -65.29 | X-H torsion
[ 10718 10713 10712 10709 ] final   13.77 input   66.30 | X-H torsion
[ 10763 10752 10751 10750 ] final   87.76 input  -60.55 | X-H torsion
[ 11005 11000 10999 10996 ] final  128.57 input  -57.11 | X-H torsion

> <Gold.Protein.ActiveResidues>
 VAL166  LYS551  ARG553  GLY616  TRP617  ASP618  TYR619  PRO620  LYS621  CYS622 
 ASP623  PHE694  ASN695  SER759  ASP760  ASP761  ALA762  ILE779  LEU786  VAL792 
 PHE793  MET794  SER795  GLU796  ALA797  LYS798  CYS799  TRP800  GLU811  SER814 

> <Gold.Protein.RotatedAtoms>
  151.8567  133.3449  159.3690 H   0  0  0  0  0  0  0  0  0  0  0  0  # atno 6907 bound_to 6896
  150.7191  134.5246  159.5680 H   0  0  0  0  0  0  0  0  0  0  0  0  # atno 6908 bound_to 6896
  152.2751  134.7890  160.0458 H   0  0  0  0  0  0  0  0  0  0  0  0  # atno 6909 bound_to 6896
  145.6532  139.2453  143.1964 H   0  0  0  0  0  0  0  0  0  0  0  0  # atno 7974 bound_to 7965
  155.0875  140.3216  155.4583 H   0  0  0  0  0  0  0  0  0  0  0  0  # atno 8008 bound_to 7997
  156.2751  140.2084  156.5949 H   0  0  0  0  0  0  0  0  0  0  0  0  # atno 8009 bound_to 7997
  154.6929  140.0514  157.0369 H   0  0  0  0  0  0  0  0  0  0  0  0  # atno 8010 bound_to 7997
  139.4861  144.4435  151.8921 H   0  0  0  0  0  0  0  0  0  0  0  0  # atno 10167 bound_to 10162
  157.0294  130.6187  149.5733 H   0  0  0  0  0  0  0  0  0  0  0  0  # atno 10718 bound_to 10713
  153.1701  135.4531  154.9890 H   0  0  0  0  0  0  0  0  0  0  0  0  # atno 10763 bound_to 10752
  154.7959  135.3237  154.7669 H   0  0  0  0  0  0  0  0  0  0  0  0  # atno 10764 bound_to 10752
  153.8147  135.6952  153.4890 H   0  0  0  0  0  0  0  0  0  0  0  0  # atno 10765 bound_to 10752
  139.9568  134.9611  156.9022 H   0  0  0  0  0  0  0  0  0  0  0  0  # atno 11005 bound_to 11000
  146.1186  140.7338  142.9468 LP  0  0  0  0  0  0  0  0  0  0  0  0  # atno 17320 bound_to 7965
  144.7115  140.4055  143.7077 LP  0  0  0  0  0  0  0  0  0  0  0  0  # atno 17321 bound_to 7965
  140.3888  144.2642  150.5901 LP  0  0  0  0  0  0  0  0  0  0  0  0  # atno 17342 bound_to 10162
  140.5165  143.2277  151.8455 LP  0  0  0  0  0  0  0  0  0  0  0  0  # atno 17343 bound_to 10162
  156.0075  130.5163  150.7877 LP  0  0  0  0  0  0  0  0  0  0  0  0  # atno 17370 bound_to 10713
  157.5189  131.0930  151.0104 LP  0  0  0  0  0  0  0  0  0  0  0  0  # atno 17371 bound_to 10713
  140.5591  134.0553  155.7393 LP  0  0  0  0  0  0  0  0  0  0  0  0  # atno 17394 bound_to 11000
  141.1240  133.9413  157.2672 LP  0  0  0  0  0  0  0  0  0  0  0  0  # atno 17395 bound_to 11000

$$$$
