AV-unprocessed.smi:625|AV-procd|sdf|3102|dock8
  -GOLD-   22720 0 23D 1   1.00000     0.00000
 Structure written by MMmdl.
 49 51  0  0  0  0  0  0  0  0  1 V2000
  146.2795  132.5863  149.9566 C   0  0  0  0  0  0  0  0  0  0  0  0
  147.1550  132.5255  151.1171 N   0  0  0  0  0  0  0  0  0  0  0  0
  147.1781  133.4393  152.1012 C   0  0  0  0  0  0  0  0  0  0  0  0
  146.4337  134.4217  152.0906 O   0  0  0  0  0  0  0  0  0  0  0  0
  148.1519  133.1482  153.1560 C   0  0  0  0  0  0  0  0  0  0  0  0
  148.7820  131.8477  153.3269 C   0  0  0  0  0  0  0  0  0  0  0  0
  149.6449  131.6325  154.3399 C   0  0  0  0  0  0  0  0  0  0  0  0
  149.9831  132.6834  155.3049 C   0  0  0  0  0  0  0  0  0  0  0  0
  150.7540  132.4829  156.2434 O   0  0  0  0  0  0  0  0  0  0  0  0
  149.3835  133.8940  155.0966 N   0  0  0  0  0  0  0  0  0  0  0  0
  149.5906  135.0255  156.0135 C   0  0  0  0  0  0  0  0  0  0  0  0
  148.3030  135.3390  156.7819 C   0  0  0  0  0  0  0  0  0  0  0  0
  147.2552  135.5564  156.1733 O   0  0  0  0  0  0  0  0  0  0  0  0
  148.4094  135.3798  158.1188 N   0  0  0  0  0  0  0  0  0  0  0  0
  147.3793  135.8508  159.0407 C   0  0  1  0  0  0  0  0  0  0  0  0
  146.1051  135.0135  158.8513 C   0  0  0  0  0  0  0  0  0  0  0  0
  147.9176  135.7833  160.4905 C   0  0  2  0  0  0  0  0  0  0  0  0
  147.8646  134.3820  161.1391 C   0  0  0  0  0  0  0  0  0  0  0  0
  147.1944  134.6546  162.4997 C   0  0  2  0  0  0  0  0  0  0  0  0
  145.6940  134.9218  162.2795 C   0  0  0  0  0  0  0  0  0  0  0  0
  145.6906  136.3212  161.6386 C   0  0  0  0  0  0  0  0  0  0  0  0
  147.1933  136.6582  161.5471 C   0  0  1  0  0  0  0  0  0  0  0  0
  147.7126  136.0465  162.8435 C   0  0  0  0  0  0  0  0  0  0  0  0
  148.4825  134.1120  154.0358 C   0  0  0  0  0  0  0  0  0  0  0  0
  146.4423  131.7152  149.3219 H   0  0  0  0  0  0  0  0  0  0  0  0
  146.4806  133.4809  149.3658 H   0  0  0  0  0  0  0  0  0  0  0  0
  145.2315  132.5969  150.2595 H   0  0  0  0  0  0  0  0  0  0  0  0
  147.7856  131.7394  151.1786 H   0  0  0  0  0  0  0  0  0  0  0  0
  148.5759  131.0303  152.6516 H   0  0  0  0  0  0  0  0  0  0  0  0
  150.0997  130.6584  154.4468 H   0  0  0  0  0  0  0  0  0  0  0  0
  150.3905  134.8373  156.7310 H   0  0  0  0  0  0  0  0  0  0  0  0
  149.9135  135.8995  155.4445 H   0  0  0  0  0  0  0  0  0  0  0  0
  149.3086  135.1627  158.5234 H   0  0  0  0  0  0  0  0  0  0  0  0
  147.1243  136.8878  158.8172 H   0  0  0  0  0  0  0  0  0  0  0  0
  145.3080  135.3508  159.5139 H   0  0  0  0  0  0  0  0  0  0  0  0
  146.2868  133.9588  159.0600 H   0  0  0  0  0  0  0  0  0  0  0  0
  145.7346  135.0915  157.8287 H   0  0  0  0  0  0  0  0  0  0  0  0
  148.9600  136.1069  160.4700 H   0  0  0  0  0  0  0  0  0  0  0  0
  147.2991  133.6589  160.5500 H   0  0  0  0  0  0  0  0  0  0  0  0
  148.8716  133.9844  161.2707 H   0  0  0  0  0  0  0  0  0  0  0  0
  147.3962  133.8881  163.2482 H   0  0  0  0  0  0  0  0  0  0  0  0
  145.2285  134.1707  161.6404 H   0  0  0  0  0  0  0  0  0  0  0  0
  145.1562  134.9342  163.2284 H   0  0  0  0  0  0  0  0  0  0  0  0
  145.1814  136.3414  160.6764 H   0  0  0  0  0  0  0  0  0  0  0  0
  145.1811  137.0347  162.2875 H   0  0  0  0  0  0  0  0  0  0  0  0
  147.3937  137.7250  161.4445 H   0  0  0  0  0  0  0  0  0  0  0  0
  147.2532  136.4717  163.7380 H   0  0  0  0  0  0  0  0  0  0  0  0
  148.7986  136.0930  162.9430 H   0  0  0  0  0  0  0  0  0  0  0  0
  148.0683  135.1105  154.0074 H   0  0  0  0  0  0  0  0  0  0  0  0
  1  2  1  0  0  0  0
  1 25  1  0  0  0  0
  1 26  1  0  0  0  0
  1 27  1  0  0  0  0
  2  3  1  0  0  0  0
  2 28  1  0  0  0  0
  3  4  2  0  0  0  0
  3  5  1  0  0  0  0
  5 24  2  0  0  0  0
  5  6  1  0  0  0  0
  6  7  2  0  0  0  0
  6 29  1  0  0  0  0
  7  8  1  0  0  0  0
  7 30  1  0  0  0  0
  8  9  2  0  0  0  0
  8 10  1  0  0  0  0
 10 11  1  0  0  0  0
 10 24  1  0  0  0  0
 11 12  1  0  0  0  0
 11 31  1  0  0  0  0
 11 32  1  0  0  0  0
 12 13  2  0  0  0  0
 12 14  1  0  0  0  0
 14 15  1  0  0  0  0
 14 33  1  0  0  0  0
 15 16  1  0  0  0  0
 15 17  1  0  0  0  0
 15 34  1  0  0  0  0
 16 35  1  0  0  0  0
 16 36  1  0  0  0  0
 16 37  1  0  0  0  0
 17 22  1  0  0  0  0
 17 18  1  0  0  0  0
 17 38  1  0  0  0  0
 18 19  1  0  0  0  0
 18 39  1  0  0  0  0
 18 40  1  0  0  0  0
 19 23  1  0  0  0  0
 19 20  1  0  0  0  0
 19 41  1  0  0  0  0
 20 21  1  0  0  0  0
 20 42  1  0  0  0  0
 20 43  1  0  0  0  0
 21 22  1  0  0  0  0
 21 44  1  0  0  0  0
 21 45  1  0  0  0  0
 22 23  1  0  0  0  0
 22 46  1  0  0  0  0
 23 47  1  0  0  0  0
 23 48  1  0  0  0  0
 24 49  1  0  0  0  0
M  END
> <s_m_source_file>
AV-unprocessed.smi

> <i_m_source_file_index>
625

> <i_lp_mmshare_version>
43012

> <i_f3d_flags>
0

> <s_epik_input>
W0NIM11bTkhdQyg9TyljMVtjSF1bY0hdYyg9TyluKFtjSF0xKVtDSDJdQyg9TylbTkhdW0NASF0oW0NIM10pW0NASF0oW0NIMl1bQ0BIXTIzKVtDQEhdKFtDSDJdMylbQ0gyXVtDSDJdMg==

> <s_epik_cmdline>
J2VwaWtfcHl0aG9uJywgJy1waCcsICc3LjAnLCAnLXRuJywgJzgnLCAnLW1hJywgJzIwMCcsICctbWV0YWxfYmluZGluZycsICctaW1hZScsICc8aW5maWxlLm1hZT4nLCAnLW9tYWUnLCAnPG91dGZpbGUubWFlPic=

> <r_lp_tautomer_probability>
1

> <r_epik_Ionization_Penalty>
3.7129e-07

> <r_epik_Ionization_Penalty_Charging>
5.04114e-08

> <r_epik_Ionization_Penalty_Neutral>
3.20879e-07

> <r_epik_State_Penalty>
-0

> <r_epik_Charging_Adjusted_Penalty>
5.04114e-08

> <i_epik_Tot_Q>
0

> <i_epik_Tot_abs_Q>
0

> <r_epik_Metal_State_Penalty>
-0

> <b_epik_Metal_Only>
0

> <s_lp_Force_Field>
OPLS_2005

> <r_lp_Energy>
63.4228

> <b_lp_Chiralities_Consistent>
1

> <s_lp_Variant>
AV-unprocessed.smi:625-2

> <Gold.Version>
5.8.1

> <Gold.Id.Protein>
6NUR|6NUR_protein|mol2

> <Gold.PLP.Fitness>
43.6565

> <Gold.PLP.PLP>
-41.1422

> <Gold.PLP.part.hbond>
-1.0000

> <Gold.PLP.part.metal>
0.0000

> <Gold.PLP.part.buried>
-3.6445

> <Gold.PLP.part.nonpolar>
-36.4906

> <Gold.PLP.part.repulsive>
0.2694

> <Gold.PLP.ligand.clash>
0.0000

> <Gold.PLP.ligand.torsion>
0.5450

> <Gold.PLP.Chemscore.Hbond>
0.7680

> <Gold.PLP.Chemscore.CHOScore>
0.4170

> <Gold.PLP.Chemscore.Metal>
0.0000

> <Gold.Chemscore.Hbonds>
donor molecule, donor type, donor heavy atom, donor atom, acceptor molecule, acceptor atom, score
      L1  H     2    28       P1 10747  0.85
      L1  C    24    49       P1  7948  0.48

> <Gold.PLP.Chemscore.Internal.Correction>
0.0492

> <Gold.Rescore>
     Score         DG    S(hbond)    S(metal)    S(lipo)     H(rot)  DE(clash)    DE(int)     intcor
     12.66     -15.63       0.94        0.00      96.57       1.67       0.09       2.89       ----

> <Gold.Chemscore.Fitness>
12.6573

> <Gold.Chemscore.DG>
-15.6292

> <Gold.Chemscore.ZeroCoef>
-5.4800

> <Gold.Chemscore.Hbond>
0.9365

> <Gold.Chemscore.Metal>
0.0000

> <Gold.Chemscore.Lipo>
96.5688

> <Gold.Chemscore.Internal_Hbond>
0.0000

> <Gold.Chemscore.DEClash>
0.0863

> <Gold.Chemscore.DEInternal>
2.8856

> <Gold.Chemscore.Rot>
1.6709

> <Gold.Chemscore.Internal.Correction>
   9.000000E+99

> <Gold.Chemscore.Hbonds>
donor molecule, donor type, donor heavy atom, donor atom, acceptor molecule, acceptor atom, score
      L1  H     2    28       P1 10747  0.83

> <Gold.Chemscore.Hbond.Weighted>
-3.1280

> <Gold.Chemscore.Metal.Weighted>
-0.0000

> <Gold.Chemscore.Lipo.Weighted>
-11.2985

> <Gold.Chemscore.Internal_Hbond.Weighted>
0.0000

> <Gold.Chemscore.DEClash.Weighted>
0.0863

> <Gold.Chemscore.DEInternal.Weighted>
2.8856

> <Gold.Chemscore.Rot.Weighted>
4.2774

> <Gold.Chemscore.Internal.Correction.Weighted>
   9.000000E+99

> <Gold.Protein.RotatedTorsions>
[ 6907 6896 6895 6894 ] final  -52.23 input  -60.11 | X-H torsion
[ 7974 7965 7964 7962 ] final  154.10 input  175.53 | X-H torsion
[ 8008 7997 7996 7995 ] final -121.90 input   59.86 | X-H torsion
[ 10167 10162 10161 10158 ] final   89.40 input  -65.29 | X-H torsion
[ 10718 10713 10712 10709 ] final  -70.82 input   66.30 | X-H torsion
[ 10763 10752 10751 10750 ] final  166.40 input  -60.55 | X-H torsion
[ 11005 11000 10999 10996 ] final -104.99 input  -57.11 | X-H torsion

> <Gold.Protein.ActiveResidues>
 VAL166  LYS551  ARG553  GLY616  TRP617  ASP618  TYR619  PRO620  LYS621  CYS622 
 ASP623  PHE694  ASN695  SER759  ASP760  ASP761  ALA762  ILE779  LEU786  VAL792 
 PHE793  MET794  SER795  GLU796  ALA797  LYS798  CYS799  TRP800  GLU811  SER814 

> <Gold.Protein.RotatedAtoms>
  150.8537  134.7869  159.7028 H   0  0  0  0  0  0  0  0  0  0  0  0  # atno 6907 bound_to 6896
  152.4594  134.5214  159.9793 H   0  0  0  0  0  0  0  0  0  0  0  0  # atno 6908 bound_to 6896
  151.5330  133.3407  159.2957 H   0  0  0  0  0  0  0  0  0  0  0  0  # atno 6909 bound_to 6896
  144.8110  139.6889  143.6141 H   0  0  0  0  0  0  0  0  0  0  0  0  # atno 7974 bound_to 7965
  155.1556  140.0405  157.2831 H   0  0  0  0  0  0  0  0  0  0  0  0  # atno 8008 bound_to 7997
  154.6373  140.2538  155.7336 H   0  0  0  0  0  0  0  0  0  0  0  0  # atno 8009 bound_to 7997
  156.2515  140.2863  156.0751 H   0  0  0  0  0  0  0  0  0  0  0  0  # atno 8010 bound_to 7997
  139.8577  144.6560  150.9095 H   0  0  0  0  0  0  0  0  0  0  0  0  # atno 10167 bound_to 10162
  156.0391  130.4339  150.2351 H   0  0  0  0  0  0  0  0  0  0  0  0  # atno 10718 bound_to 10713
  154.3385  135.2754  155.2435 H   0  0  0  0  0  0  0  0  0  0  0  0  # atno 10763 bound_to 10752
  154.4716  135.5881  153.6329 H   0  0  0  0  0  0  0  0  0  0  0  0  # atno 10764 bound_to 10752
  152.9860  135.6089  154.3584 H   0  0  0  0  0  0  0  0  0  0  0  0  # atno 10765 bound_to 10752
  141.1074  133.8770  157.1679 H   0  0  0  0  0  0  0  0  0  0  0  0  # atno 11005 bound_to 11000
  146.2409  139.5999  142.9492 LP  0  0  0  0  0  0  0  0  0  0  0  0  # atno 17320 bound_to 7965
  145.5323  141.0426  143.2376 LP  0  0  0  0  0  0  0  0  0  0  0  0  # atno 17321 bound_to 7965
  140.7779  143.3772  151.1542 LP  0  0  0  0  0  0  0  0  0  0  0  0  # atno 17342 bound_to 10162
  139.7404  143.8933  152.3048 LP  0  0  0  0  0  0  0  0  0  0  0  0  # atno 17343 bound_to 10162
  157.0448  131.0045  151.3272 LP  0  0  0  0  0  0  0  0  0  0  0  0  # atno 17370 bound_to 10713
  157.5183  130.7982  149.7781 LP  0  0  0  0  0  0  0  0  0  0  0  0  # atno 17371 bound_to 10713
  139.9951  135.0050  157.0064 LP  0  0  0  0  0  0  0  0  0  0  0  0  # atno 17394 bound_to 11000
  140.4865  134.1236  155.7225 LP  0  0  0  0  0  0  0  0  0  0  0  0  # atno 17395 bound_to 11000

$$$$
