AV-unprocessed.smi:1307|AV-procd|sdf|5437|dock10
  -GOLD-   22720 5 03D 1   1.00000     0.00000
 Structure written by MMmdl.
 41 41  0  0  0  0  0  0  0  0  1 V2000
  153.4637  140.5627  160.3515 C   0  0  0  0  0  0  0  0  0  0  0  0
  153.1636  142.0638  160.5380 C   0  0  0  0  0  0  0  0  0  0  0  0
  153.0894  142.3885  162.0409 C   0  0  0  0  0  0  0  0  0  0  0  0
  151.8889  142.5127  159.7744 C   0  0  1  0  0  0  0  0  0  0  0  0
  151.5822  144.0142  159.9327 C   0  0  0  0  0  0  0  0  0  0  0  0
  152.0262  142.2063  158.3527 N   0  0  0  0  0  0  0  0  0  0  0  0
  151.1747  141.4737  157.6141 C   0  0  0  0  0  0  0  0  0  0  0  0
  150.1359  140.9969  158.0689 O   0  0  0  0  0  0  0  0  0  0  0  0
  151.5280  141.2256  156.1348 C   0  0  0  0  0  0  0  0  0  0  0  0
  150.4477  140.6045  155.3233 N   0  0  0  0  0  0  0  0  0  0  0  0
  150.5785  139.2545  154.8687 C   0  0  0  0  0  0  0  0  0  0  0  0
  151.8269  138.4468  155.2517 C   0  0  0  0  0  0  0  0  0  0  0  0
  151.7784  137.2148  154.7428 F   0  0  0  0  0  0  0  0  0  0  0  0
  152.9295  139.0209  154.7698 F   0  0  0  0  0  0  0  0  0  0  0  0
  151.9445  138.3067  156.5720 F   0  0  0  0  0  0  0  0  0  0  0  0
  149.5959  138.6965  154.1379 C   0  0  0  0  0  0  0  0  0  0  0  0
  148.4187  139.4526  153.8113 C   0  0  0  0  0  0  0  0  0  0  0  0
  148.2782  140.7295  154.2338 C   0  0  0  0  0  0  0  0  0  0  0  0
  147.0779  141.5438  153.9345 C   0  0  0  0  0  0  0  0  0  0  0  0
  145.9819  140.8270  153.6555 N   0  0  0  0  0  0  0  0  0  0  0  0
  147.0000  142.7720  153.9218 O   0  0  0  0  0  0  0  0  0  0  0  0
  149.3441  141.3790  155.0393 C   0  0  0  0  0  0  0  0  0  0  0  0
  149.2790  142.5389  155.4579 O   0  0  0  0  0  0  0  0  0  0  0  0
  152.6268  139.9483  160.6849 H   0  0  0  0  0  0  0  0  0  0  0  0
  154.3420  140.2637  160.9243 H   0  0  0  0  0  0  0  0  0  0  0  0
  153.6675  140.3119  159.3105 H   0  0  0  0  0  0  0  0  0  0  0  0
  154.0129  142.6129  160.1285 H   0  0  0  0  0  0  0  0  0  0  0  0
  152.2244  141.9146  162.5063 H   0  0  0  0  0  0  0  0  0  0  0  0
  153.0238  143.4607  162.2233 H   0  0  0  0  0  0  0  0  0  0  0  0
  153.9795  142.0353  162.5624 H   0  0  0  0  0  0  0  0  0  0  0  0
  151.0441  141.9462  160.1711 H   0  0  0  0  0  0  0  0  0  0  0  0
  151.3536  144.2735  160.9658 H   0  0  0  0  0  0  0  0  0  0  0  0
  150.7156  144.3049  159.3378 H   0  0  0  0  0  0  0  0  0  0  0  0
  152.4243  144.6273  159.6102 H   0  0  0  0  0  0  0  0  0  0  0  0
  152.8541  142.5609  157.8969 H   0  0  0  0  0  0  0  0  0  0  0  0
  151.8232  142.1824  155.7000 H   0  0  0  0  0  0  0  0  0  0  0  0
  152.4555  140.6623  156.1039 H   0  0  0  0  0  0  0  0  0  0  0  0
  149.6696  137.6764  153.7913 H   0  0  0  0  0  0  0  0  0  0  0  0
  147.6601  138.9539  153.2261 H   0  0  0  0  0  0  0  0  0  0  0  0
  145.1132  141.2929  153.4387 H   0  0  0  0  0  0  0  0  0  0  0  0
  146.0301  139.8182  153.6637 H   0  0  0  0  0  0  0  0  0  0  0  0
  1  2  1  0  0  0  0
  1 24  1  0  0  0  0
  1 25  1  0  0  0  0
  1 26  1  0  0  0  0
  2  3  1  0  0  0  0
  2  4  1  0  0  0  0
  2 27  1  0  0  0  0
  3 28  1  0  0  0  0
  3 29  1  0  0  0  0
  3 30  1  0  0  0  0
  4  5  1  0  0  0  0
  4  6  1  0  0  0  0
  4 31  1  0  0  0  0
  5 32  1  0  0  0  0
  5 33  1  0  0  0  0
  5 34  1  0  0  0  0
  6  7  1  0  0  0  0
  6 35  1  0  0  0  0
  7  8  2  0  0  0  0
  7  9  1  0  0  0  0
  9 10  1  0  0  0  0
  9 36  1  0  0  0  0
  9 37  1  0  0  0  0
 10 22  1  0  0  0  0
 10 11  1  0  0  0  0
 11 12  1  0  0  0  0
 11 16  2  0  0  0  0
 12 13  1  0  0  0  0
 12 14  1  0  0  0  0
 12 15  1  0  0  0  0
 16 17  1  0  0  0  0
 16 38  1  0  0  0  0
 17 18  2  0  0  0  0
 17 39  1  0  0  0  0
 18 19  1  0  0  0  0
 18 22  1  0  0  0  0
 19 20  1  0  0  0  0
 19 21  2  0  0  0  0
 20 40  1  0  0  0  0
 20 41  1  0  0  0  0
 22 23  2  0  0  0  0
M  END
> <s_m_source_file>
AV-unprocessed.smi

> <i_m_source_file_index>
1307

> <i_lp_mmshare_version>
43012

> <i_f3d_flags>
0

> <s_epik_input>
W0NIM11bQ0hdKFtDSDNdKVtDQEhdKFtDSDNdKVtOSF1DKD1PKVtDSDJdbjFjKEMoRikoRilGKVtjSF1bY0hdYyhjMT1PKUMoPU8pW05IMl0=

> <s_epik_cmdline>
J2VwaWtfcHl0aG9uJywgJy1waCcsICc3LjAnLCAnLXRuJywgJzgnLCAnLW1hJywgJzIwMCcsICctbWV0YWxfYmluZGluZycsICctaW1hZScsICc8aW5maWxlLm1hZT4nLCAnLW9tYWUnLCAnPG91dGZpbGUubWFlPic=

> <r_lp_tautomer_probability>
1

> <r_epik_Ionization_Penalty>
2.05992e-06

> <r_epik_Ionization_Penalty_Charging>
8.21357e-10

> <r_epik_Ionization_Penalty_Neutral>
2.0591e-06

> <r_epik_State_Penalty>
-0

> <r_epik_Charging_Adjusted_Penalty>
8.21357e-10

> <i_epik_Tot_Q>
0

> <i_epik_Tot_abs_Q>
0

> <r_epik_Metal_State_Penalty>
-0

> <b_epik_Metal_Only>
0

> <s_lp_Force_Field>
OPLS_2005

> <r_lp_Energy>
26.9387

> <b_lp_Chiralities_Consistent>
1

> <s_lp_Variant>
AV-unprocessed.smi:1307-2

> <Gold.Version>
5.8.1

> <Gold.Id.Protein>
6NUR|6NUR_protein|mol2

> <Gold.PLP.Fitness>
41.3809

> <Gold.PLP.PLP>
-40.8306

> <Gold.PLP.part.hbond>
-1.0000

> <Gold.PLP.part.metal>
0.0000

> <Gold.PLP.part.buried>
-2.3031

> <Gold.PLP.part.nonpolar>
-42.7069

> <Gold.PLP.part.repulsive>
5.5254

> <Gold.PLP.ligand.clash>
3.9446

> <Gold.PLP.ligand.torsion>
0.4728

> <Gold.PLP.Chemscore.Hbond>
0.4800

> <Gold.PLP.Chemscore.CHOScore>
0.0000

> <Gold.PLP.Chemscore.Metal>
0.0000

> <Gold.Chemscore.Hbonds>
donor molecule, donor type, donor heavy atom, donor atom, acceptor molecule, acceptor atom, score
      L1  H    20    40       P1 10175  0.49

> <Gold.PLP.Chemscore.Internal.Correction>
4.0005

> <Gold.Rescore>
     Score         DG    S(hbond)    S(metal)    S(lipo)     H(rot)  DE(clash)    DE(int)     intcor
      8.34     -13.97       1.00        0.00      87.22       1.97       1.94       3.69       ----

> <Gold.Chemscore.Fitness>
8.3384

> <Gold.Chemscore.DG>
-13.9682

> <Gold.Chemscore.ZeroCoef>
-5.4800

> <Gold.Chemscore.Hbond>
0.9978

> <Gold.Chemscore.Metal>
0.0000

> <Gold.Chemscore.Lipo>
87.2173

> <Gold.Chemscore.Internal_Hbond>
0.0000

> <Gold.Chemscore.DEClash>
1.9372

> <Gold.Chemscore.DEInternal>
3.6926

> <Gold.Chemscore.Rot>
1.9723

> <Gold.Chemscore.Internal.Correction>
   9.000000E+99

> <Gold.Chemscore.Hbonds>
donor molecule, donor type, donor heavy atom, donor atom, acceptor molecule, acceptor atom, score
      L1  H    20    40       P1 10175  0.11

> <Gold.Chemscore.Hbond.Weighted>
-3.3327

> <Gold.Chemscore.Metal.Weighted>
-0.0000

> <Gold.Chemscore.Lipo.Weighted>
-10.2044

> <Gold.Chemscore.Internal_Hbond.Weighted>
0.0000

> <Gold.Chemscore.DEClash.Weighted>
1.9372

> <Gold.Chemscore.DEInternal.Weighted>
3.6926

> <Gold.Chemscore.Rot.Weighted>
5.0490

> <Gold.Chemscore.Internal.Correction.Weighted>
   9.000000E+99

> <Gold.Protein.RotatedTorsions>
[ 6907 6896 6895 6894 ] final  145.77 input  -60.11 | X-H torsion
[ 7974 7965 7964 7962 ] final  149.06 input  175.53 | X-H torsion
[ 8008 7997 7996 7995 ] final   75.27 input   59.86 | X-H torsion
[ 10167 10162 10161 10158 ] final  129.82 input  -65.29 | X-H torsion
[ 10718 10713 10712 10709 ] final  -74.71 input   66.30 | X-H torsion
[ 10763 10752 10751 10750 ] final  111.53 input  -60.55 | X-H torsion
[ 11005 11000 10999 10996 ] final  -77.60 input  -57.11 | X-H torsion

> <Gold.Protein.ActiveResidues>
 VAL166  LYS551  ARG553  GLY616  TRP617  ASP618  TYR619  PRO620  LYS621  CYS622 
 ASP623  PHE694  ASN695  SER759  ASP760  ASP761  ALA762  ILE779  LEU786  VAL792 
 PHE793  MET794  SER795  GLU796  ALA797  LYS798  CYS799  TRP800  GLU811  SER814 

> <Gold.Protein.RotatedAtoms>
  152.1766  133.4679  159.4936 H   0  0  0  0  0  0  0  0  0  0  0  0  # atno 6907 bound_to 6896
  150.6928  134.1886  159.4285 H   0  0  0  0  0  0  0  0  0  0  0  0  # atno 6908 bound_to 6896
  151.9796  135.0035  160.0607 H   0  0  0  0  0  0  0  0  0  0  0  0  # atno 6909 bound_to 6896
  144.8467  139.6232  143.5992 H   0  0  0  0  0  0  0  0  0  0  0  0  # atno 7974 bound_to 7965
  155.8105  140.3473  155.5455 H   0  0  0  0  0  0  0  0  0  0  0  0  # atno 8008 bound_to 7997
  155.8446  140.0947  157.1733 H   0  0  0  0  0  0  0  0  0  0  0  0  # atno 8009 bound_to 7997
  154.4006  140.1388  156.3757 H   0  0  0  0  0  0  0  0  0  0  0  0  # atno 8010 bound_to 7997
  139.5459  144.6773  151.4474 H   0  0  0  0  0  0  0  0  0  0  0  0  # atno 10167 bound_to 10162
  156.0233  130.4423  150.2933 H   0  0  0  0  0  0  0  0  0  0  0  0  # atno 10718 bound_to 10713
  153.4646  135.3714  155.2357 H   0  0  0  0  0  0  0  0  0  0  0  0  # atno 10763 bound_to 10752
  154.8757  135.3917  154.3884 H   0  0  0  0  0  0  0  0  0  0  0  0  # atno 10764 bound_to 10752
  153.4463  135.7085  153.6201 H   0  0  0  0  0  0  0  0  0  0  0  0  # atno 10765 bound_to 10752
  141.1661  133.7029  156.7845 H   0  0  0  0  0  0  0  0  0  0  0  0  # atno 11005 bound_to 11000
  146.2750  139.6729  142.9269 LP  0  0  0  0  0  0  0  0  0  0  0  0  # atno 17320 bound_to 7965
  145.4583  141.0432  143.2766 LP  0  0  0  0  0  0  0  0  0  0  0  0  # atno 17321 bound_to 7965
  140.6707  143.8299  150.6996 LP  0  0  0  0  0  0  0  0  0  0  0  0  # atno 17342 bound_to 10162
  140.1723  143.4184  152.1992 LP  0  0  0  0  0  0  0  0  0  0  0  0  # atno 17343 bound_to 10162
  157.1036  131.0202  151.3076 LP  0  0  0  0  0  0  0  0  0  0  0  0  # atno 17370 bound_to 10713
  157.4760  130.7737  149.7368 LP  0  0  0  0  0  0  0  0  0  0  0  0  # atno 17371 bound_to 10713
  140.2370  134.8642  157.3535 LP  0  0  0  0  0  0  0  0  0  0  0  0  # atno 17394 bound_to 11000
  140.1834  134.4462  155.7758 LP  0  0  0  0  0  0  0  0  0  0  0  0  # atno 17395 bound_to 11000

$$$$
