AV-unprocessed.smi:49|AV-procd|sdf|490|dock7
  -GOLD-   2262016353D 1   1.00000     0.00000
 Structure written by MMmdl.
 26 27  0  0  0  0  0  0  0  0  2 V2000
  152.7952  141.8891  159.2572 C   0  0  0  0  0  0  0  0  0  0  0  0
  152.0740  140.5970  158.8606 C   0  0  0  0  0  0  0  0  0  0  0  0
  151.6080  140.6229  157.4214 C   0  0  0  0  0  0  0  0  0  0  0  0
  150.4857  141.1792  156.9763 N   0  0  0  0  0  0  0  0  0  0  0  0
  150.4859  140.9934  155.6487 C   0  0  0  0  0  0  0  0  0  0  0  0
  149.3966  141.5001  154.7205 C   0  0  1  0  0  0  0  0  0  0  0  0
  148.6848  140.3461  153.9909 C   0  0  0  0  0  0  0  0  0  0  0  0
  147.2896  140.3225  154.6071 C   0  0  2  0  0  0  0  0  0  0  0  0
  146.3075  139.8154  153.7286 O   0  0  0  0  0  0  0  0  0  0  0  0
  147.0632  141.7892  154.9491 C   0  0  0  0  0  0  0  0  0  0  0  0
  148.3565  142.2541  155.4298 N   0  0  0  0  0  0  0  0  0  0  0  0
  151.6035  140.3572  155.2607 N   0  0  0  0  0  0  0  0  0  0  0  0
  152.2845  140.1359  156.3666 N   0  5  0  0  0  0  0  0  0  0  0  0
  149.8689  142.1445  153.9783 H   0  0  0  0  0  0  0  0  0  0  0  0
  147.3000  139.7284  155.5223 H   0  0  0  0  0  0  0  0  0  0  0  0
  153.1226  141.8487  160.2959 H   0  0  0  0  0  0  0  0  0  0  0  0
  152.1396  142.7531  159.1461 H   0  0  0  0  0  0  0  0  0  0  0  0
  153.6750  142.0535  158.6346 H   0  0  0  0  0  0  0  0  0  0  0  0
  152.7362  139.7422  159.0009 H   0  0  0  0  0  0  0  0  0  0  0  0
  151.2116  140.4368  159.5080 H   0  0  0  0  0  0  0  0  0  0  0  0
  148.6165  140.5894  152.9295 H   0  0  0  0  0  0  0  0  0  0  0  0
  149.2016  139.3890  154.0743 H   0  0  0  0  0  0  0  0  0  0  0  0
  145.6134  140.4526  153.6584 H   0  0  0  0  0  0  0  0  0  0  0  0
  146.7858  142.3428  154.0510 H   0  0  0  0  0  0  0  0  0  0  0  0
  146.2761  141.9338  155.6894 H   0  0  0  0  0  0  0  0  0  0  0  0
  148.4498  143.2440  155.2285 H   0  0  0  0  0  0  0  0  0  0  0  0
  1  2  1  0  0  0  0
  1 16  1  0  0  0  0
  1 17  1  0  0  0  0
  1 18  1  0  0  0  0
  2  3  1  0  0  0  0
  2 19  1  0  0  0  0
  2 20  1  0  0  0  0
  3 13  1  0  0  0  0
  3  4  2  0  0  0  0
  4  5  1  0  0  0  0
  5  6  1  0  0  0  0
  5 12  2  0  0  0  0
  6 14  1  0  0  0  0
  6 11  1  0  0  0  0
  6  7  1  0  0  0  0
  7  8  1  0  0  0  0
  7 21  1  0  0  0  0
  7 22  1  0  0  0  0
  8 15  1  0  0  0  0
  8  9  1  0  0  0  0
  8 10  1  0  0  0  0
  9 23  1  0  0  0  0
 10 11  1  0  0  0  0
 10 24  1  0  0  0  0
 10 25  1  0  0  0  0
 11 26  1  0  0  0  0
 12 13  1  0  0  0  0
M  CHG  1  13  -1
M  END
> <s_m_source_file>
AV-unprocessed.smi

> <i_m_source_file_index>
49

> <i_lp_mmshare_version>
43012

> <i_f3d_flags>
0

> <s_epik_input>
W0NIM11bQ0gyXWMxbmMobltuSF0xKVtDQEBIXTJbQ0gyXVtDQEBIXShbT0hdKVtDSDJdW05IXTI=

> <s_epik_cmdline>
J2VwaWtfcHl0aG9uJywgJy1waCcsICc3LjAnLCAnLXRuJywgJzgnLCAnLW1hJywgJzIwMCcsICctbWV0YWxfYmluZGluZycsICctaW1hZScsICc8aW5maWxlLm1hZT4nLCAnLW9tYWUnLCAnPG91dGZpbGUubWFlPic=

> <r_lp_tautomer_probability>
0.948284

> <r_epik_Ionization_Penalty>
20.726

> <r_epik_Ionization_Penalty_Charging>
17.6814

> <r_epik_Ionization_Penalty_Neutral>
3.04463

> <r_epik_State_Penalty>
7.95092

> <r_epik_Charging_Adjusted_Penalty>
25.6323

> <i_epik_Tot_Q>
-1

> <i_epik_Tot_abs_Q>
1

> <r_epik_Metal_State_Penalty>
4.146

> <b_epik_Metal_Only>
1

> <s_lp_Force_Field>
OPLS_2005

> <r_lp_Energy>
18.0563

> <b_lp_Chiralities_Consistent>
1

> <s_lp_Variant>
AV-unprocessed.smi:49-28

> <Gold.Version>
5.8.1

> <Gold.Id.Protein>
6NUR|6NUR_protein|mol2

> <Gold.PLP.Fitness>
34.2993

> <Gold.PLP.PLP>
-22.7829

> <Gold.PLP.part.hbond>
-3.9553

> <Gold.PLP.part.metal>
0.0000

> <Gold.PLP.part.buried>
-0.2769

> <Gold.PLP.part.nonpolar>
-17.5445

> <Gold.PLP.part.repulsive>
0.0710

> <Gold.PLP.ligand.clash>
0.0000

> <Gold.PLP.ligand.torsion>
0.3713

> <Gold.PLP.Chemscore.Hbond>
4.0814

> <Gold.PLP.Chemscore.CHOScore>
0.0000

> <Gold.PLP.Chemscore.Metal>
0.0000

> <Gold.Chemscore.Hbonds>
donor molecule, donor type, donor heavy atom, donor atom, acceptor molecule, acceptor atom, score
      L1  H     9    23       P1 10175  0.28
      L1  H    11    26       P1  8028  1.00
      P1  H  7989  7998       L1    12  0.88
      P1  H  7997  8008       L1    13  1.92

> <Gold.PLP.Chemscore.Internal.Correction>
0.0149

> <Gold.Rescore>
     Score         DG    S(hbond)    S(metal)    S(lipo)     H(rot)  DE(clash)    DE(int)     intcor
     13.31     -14.38       2.65        0.00      40.31       1.82       0.61       0.46       ----

> <Gold.Chemscore.Fitness>
13.3072

> <Gold.Chemscore.DG>
-14.3762

> <Gold.Chemscore.ZeroCoef>
-5.4800

> <Gold.Chemscore.Hbond>
2.6484

> <Gold.Chemscore.Metal>
0.0000

> <Gold.Chemscore.Lipo>
40.3096

> <Gold.Chemscore.Internal_Hbond>
0.0000

> <Gold.Chemscore.DEClash>
0.6139

> <Gold.Chemscore.DEInternal>
0.4551

> <Gold.Chemscore.Rot>
1.8226

> <Gold.Chemscore.Internal.Correction>
   9.000000E+99

> <Gold.Chemscore.Hbonds>
donor molecule, donor type, donor heavy atom, donor atom, acceptor molecule, acceptor atom, score
      L1  H     9    23       P1 10175  0.27
      L1  H    11    26       P1  8028  0.93
      P1  H  7989  7998       L1    12  0.22
      P1  H  7997  8008       L1    13  0.88

> <Gold.Chemscore.Hbond.Weighted>
-8.8458

> <Gold.Chemscore.Metal.Weighted>
-0.0000

> <Gold.Chemscore.Lipo.Weighted>
-4.7162

> <Gold.Chemscore.Internal_Hbond.Weighted>
0.0000

> <Gold.Chemscore.DEClash.Weighted>
0.6139

> <Gold.Chemscore.DEInternal.Weighted>
0.4551

> <Gold.Chemscore.Rot.Weighted>
4.6658

> <Gold.Chemscore.Internal.Correction.Weighted>
   9.000000E+99

> <Gold.Protein.RotatedTorsions>
[ 6907 6896 6895 6894 ] final -152.16 input  -60.11 | X-H torsion
[ 7974 7965 7964 7962 ] final  119.38 input  175.53 | X-H torsion
[ 8008 7997 7996 7995 ] final  -43.23 input   59.86 | X-H torsion
[ 10167 10162 10161 10158 ] final -145.74 input  -65.29 | X-H torsion
[ 10718 10713 10712 10709 ] final  144.29 input   66.30 | X-H torsion
[ 10763 10752 10751 10750 ] final  139.46 input  -60.55 | X-H torsion
[ 11005 11000 10999 10996 ] final  147.82 input  -57.11 | X-H torsion

> <Gold.Protein.ActiveResidues>
 VAL166  LYS551  ARG553  GLY616  TRP617  ASP618  TYR619  PRO620  LYS621  CYS622 
 ASP623  PHE694  ASN695  SER759  ASP760  ASP761  ALA762  ILE779  LEU786  VAL792 
 PHE793  MET794  SER795  GLU796  ALA797  LYS798  CYS799  TRP800  GLU811  SER814 

> <Gold.Protein.RotatedAtoms>
  151.2237  133.4488  159.2601 H   0  0  0  0  0  0  0  0  0  0  0  0  # atno 6907 bound_to 6896
  151.0860  134.9888  159.8390 H   0  0  0  0  0  0  0  0  0  0  0  0  # atno 6908 bound_to 6896
  152.5429  134.2173  159.8826 H   0  0  0  0  0  0  0  0  0  0  0  0  # atno 6909 bound_to 6896
  145.1439  139.3251  143.4602 H   0  0  0  0  0  0  0  0  0  0  0  0  # atno 7974 bound_to 7965
  154.3997  140.1453  156.3485 H   0  0  0  0  0  0  0  0  0  0  0  0  # atno 8008 bound_to 7997
  155.8291  140.3466  155.5540 H   0  0  0  0  0  0  0  0  0  0  0  0  # atno 8009 bound_to 7997
  155.8207  140.0897  157.1841 H   0  0  0  0  0  0  0  0  0  0  0  0  # atno 8010 bound_to 7997
  139.7778  143.8145  152.2634 H   0  0  0  0  0  0  0  0  0  0  0  0  # atno 10167 bound_to 10162
  157.3589  131.0962  151.0933 H   0  0  0  0  0  0  0  0  0  0  0  0  # atno 10718 bound_to 10713
  153.9066  135.3016  155.3448 H   0  0  0  0  0  0  0  0  0  0  0  0  # atno 10763 bound_to 10752
  154.7644  135.4918  153.9529 H   0  0  0  0  0  0  0  0  0  0  0  0  # atno 10764 bound_to 10752
  153.1216  135.6783  153.9428 H   0  0  0  0  0  0  0  0  0  0  0  0  # atno 10765 bound_to 10752
  140.0908  134.9042  157.1647 H   0  0  0  0  0  0  0  0  0  0  0  0  # atno 11005 bound_to 11000
  146.3502  140.1486  142.8593 LP  0  0  0  0  0  0  0  0  0  0  0  0  # atno 17320 bound_to 7965
  145.0503  140.9012  143.4999 LP  0  0  0  0  0  0  0  0  0  0  0  0  # atno 17321 bound_to 7965
  139.8198  144.7300  150.9587 LP  0  0  0  0  0  0  0  0  0  0  0  0  # atno 17342 bound_to 10162
  140.7817  143.4170  151.0902 LP  0  0  0  0  0  0  0  0  0  0  0  0  # atno 17343 bound_to 10162
  157.2080  130.6425  149.5763 LP  0  0  0  0  0  0  0  0  0  0  0  0  # atno 17370 bound_to 10713
  155.9734  130.4669  150.6306 LP  0  0  0  0  0  0  0  0  0  0  0  0  # atno 17371 bound_to 10713
  140.3355  134.2762  155.7220 LP  0  0  0  0  0  0  0  0  0  0  0  0  # atno 17394 bound_to 11000
  141.2077  133.7798  157.0103 LP  0  0  0  0  0  0  0  0  0  0  0  0  # atno 17395 bound_to 11000

$$$$
