AV-unprocessed.smi:2083|AV-procd|sdf|8492|dock1
  -GOLD-   2272011203D 1   1.00000     0.00000
 Structure written by MMmdl.
 45 46  0  0  0  0  0  0  0  0  2 V2000
  153.5976  142.8153  160.5083 C   0  0  0  0  0  0  0  0  0  0  0  0
  153.3524  141.6427  159.6216 C   0  0  0  0  0  0  0  0  0  0  0  0
  152.3192  141.2998  158.7951 C   0  0  0  0  0  0  0  0  0  0  0  0
  152.7385  140.0526  158.2603 C   0  0  0  0  0  0  0  0  0  0  0  0
  151.9253  139.3445  157.3389 N   0  0  0  0  0  0  0  0  0  0  0  0
  151.9107  139.4651  156.0006 C   0  0  0  0  0  0  0  0  0  0  0  0
  152.6206  140.2308  155.3476 O   0  0  0  0  0  0  0  0  0  0  0  0
  151.0152  138.6366  155.4436 N   0  0  0  0  0  0  0  0  0  0  0  0
  150.7771  138.5087  154.0084 C   0  0  0  0  0  0  0  0  0  0  0  0
  149.5091  139.2695  153.5264 C   0  0  2  0  0  0  0  0  0  0  0  0
  149.2667  140.5148  154.4094 C   0  0  0  0  0  0  0  0  0  0  0  0
  148.2668  138.4289  153.4798 N   0  3  2  0  0  0  0  0  0  0  0  0
  147.1121  139.0072  152.7317 C   0  0  0  0  0  0  0  0  0  0  0  0
  145.9476  138.0086  152.6228 C   0  0  0  0  0  0  0  0  0  0  0  0
  145.5078  137.5045  154.0018 C   0  0  0  0  0  0  0  0  0  0  0  0
  146.7040  136.9455  154.7889 C   0  0  1  0  0  0  0  0  0  0  0  0
  147.1842  135.5797  154.2668 C   0  0  0  0  0  0  0  0  0  0  0  0
  147.8414  137.9848  154.8398 C   0  0  0  0  0  0  0  0  0  0  0  0
  153.9215  139.6702  158.7160 N   0  0  0  0  0  0  0  0  0  0  0  0
  154.3206  140.6872  159.5912 O   0  0  0  0  0  0  0  0  0  0  0  0
  152.8659  143.6025  160.3260 H   0  0  0  0  0  0  0  0  0  0  0  0
  154.5903  143.2311  160.3351 H   0  0  0  0  0  0  0  0  0  0  0  0
  153.5297  142.5263  161.5571 H   0  0  0  0  0  0  0  0  0  0  0  0
  151.4107  141.8530  158.6085 H   0  0  0  0  0  0  0  0  0  0  0  0
  151.2933  138.6692  157.7426 H   0  0  0  0  0  0  0  0  0  0  0  0
  150.4705  138.0425  156.0522 H   0  0  0  0  0  0  0  0  0  0  0  0
  151.6735  138.8676  153.5007 H   0  0  0  0  0  0  0  0  0  0  0  0
  150.6875  137.4461  153.7796 H   0  0  0  0  0  0  0  0  0  0  0  0
  149.7080  139.6062  152.5076 H   0  0  0  0  0  0  0  0  0  0  0  0
  150.1277  141.1830  154.4111 H   0  0  0  0  0  0  0  0  0  0  0  0
  149.0700  140.2295  155.4432 H   0  0  0  0  0  0  0  0  0  0  0  0
  148.4235  141.1142  154.0706 H   0  0  0  0  0  0  0  0  0  0  0  0
  146.7818  139.9259  153.2192 H   0  0  0  0  0  0  0  0  0  0  0  0
  147.3956  139.2628  151.7118 H   0  0  0  0  0  0  0  0  0  0  0  0
  145.1040  138.4790  152.1170 H   0  0  0  0  0  0  0  0  0  0  0  0
  146.2443  137.1667  151.9966 H   0  0  0  0  0  0  0  0  0  0  0  0
  145.0648  138.3313  154.5586 H   0  0  0  0  0  0  0  0  0  0  0  0
  144.7263  136.7504  153.9005 H   0  0  0  0  0  0  0  0  0  0  0  0
  146.3670  136.7805  155.8132 H   0  0  0  0  0  0  0  0  0  0  0  0
  147.5702  135.6433  153.2495 H   0  0  0  0  0  0  0  0  0  0  0  0
  146.3721  134.8522  154.2687 H   0  0  0  0  0  0  0  0  0  0  0  0
  147.9811  135.1803  154.8950 H   0  0  0  0  0  0  0  0  0  0  0  0
  148.6748  137.5609  155.3969 H   0  0  0  0  0  0  0  0  0  0  0  0
  147.5125  138.8573  155.4068 H   0  0  0  0  0  0  0  0  0  0  0  0
  148.5221  137.5949  152.9705 H   0  0  0  0  0  0  0  0  0  0  0  0
  1  2  1  0  0  0  0
  1 21  1  0  0  0  0
  1 22  1  0  0  0  0
  1 23  1  0  0  0  0
  2 20  1  0  0  0  0
  2  3  2  0  0  0  0
  3  4  1  0  0  0  0
  3 24  1  0  0  0  0
  4  5  1  0  0  0  0
  4 19  2  0  0  0  0
  5  6  1  0  0  0  0
  5 25  1  0  0  0  0
  6  7  2  0  0  0  0
  6  8  1  0  0  0  0
  8  9  1  0  0  0  0
  8 26  1  0  0  0  0
  9 10  1  0  0  0  0
  9 27  1  0  0  0  0
  9 28  1  0  0  0  0
 10 11  1  0  0  0  0
 10 12  1  0  0  0  0
 10 29  1  0  0  0  0
 11 30  1  0  0  0  0
 11 31  1  0  0  0  0
 11 32  1  0  0  0  0
 12 18  1  0  0  0  0
 12 13  1  0  0  0  0
 12 45  1  0  0  0  0
 13 14  1  0  0  0  0
 13 33  1  0  0  0  0
 13 34  1  0  0  0  0
 14 15  1  0  0  0  0
 14 35  1  0  0  0  0
 14 36  1  0  0  0  0
 15 16  1  0  0  0  0
 15 37  1  0  0  0  0
 15 38  1  0  0  0  0
 16 17  1  0  0  0  0
 16 18  1  0  0  0  0
 16 39  1  0  0  0  0
 17 40  1  0  0  0  0
 17 41  1  0  0  0  0
 17 42  1  0  0  0  0
 18 43  1  0  0  0  0
 18 44  1  0  0  0  0
 19 20  1  0  0  0  0
M  CHG  1  12   1
M  END
> <s_m_source_file>
AV-unprocessed.smi

> <i_m_source_file_index>
2083

> <i_lp_mmshare_version>
43012

> <i_f3d_flags>
0

> <s_epik_input>
W0NIM11jMVtjSF1jKG5vMSlbTkhdQyg9TylbTkhdW0NIMl1bQ0BIXShbQ0gzXSlOMltDSDJdW0NIMl1bQ0gyXVtDQEBIXShbQ0gzXSlbQ0gyXTI=

> <s_epik_cmdline>
J2VwaWtfcHl0aG9uJywgJy1waCcsICc3LjAnLCAnLXRuJywgJzgnLCAnLW1hJywgJzIwMCcsICctbWV0YWxfYmluZGluZycsICctaW1hZScsICc8aW5maWxlLm1hZT4nLCAnLW9tYWUnLCAnPG91dGZpbGUubWFlPic=

> <r_epik_Ionization_Penalty>
0.00216453

> <r_epik_Ionization_Penalty_Charging>
0.00212879

> <r_epik_Ionization_Penalty_Neutral>
3.57418e-05

> <r_epik_State_Penalty>
0.00146033

> <r_epik_Charging_Adjusted_Penalty>
0.00358912

> <i_epik_Tot_Q>
1

> <i_epik_Tot_abs_Q>
1

> <r_epik_Metal_State_Penalty>
0.0215827

> <b_epik_Metal_Only>
0

> <s_lp_Force_Field>
OPLS_2005

> <r_lp_Energy>
21.6248

> <b_lp_Chiralities_Consistent>
1

> <s_lp_Variant>
AV-unprocessed.smi:2083-3

> <Gold.Version>
5.8.1

> <Gold.Id.Protein>
6NUR|6NUR_protein|mol2

> <Gold.PLP.Fitness>
36.2685

> <Gold.PLP.PLP>
-27.0016

> <Gold.PLP.part.hbond>
-4.1958

> <Gold.PLP.part.metal>
0.0000

> <Gold.PLP.part.buried>
2.2971

> <Gold.PLP.part.nonpolar>
-24.0742

> <Gold.PLP.part.repulsive>
0.1586

> <Gold.PLP.ligand.clash>
0.0000

> <Gold.PLP.ligand.torsion>
1.3611

> <Gold.PLP.Chemscore.Hbond>
3.9631

> <Gold.PLP.Chemscore.CHOScore>
0.0000

> <Gold.PLP.Chemscore.Metal>
0.0000

> <Gold.Chemscore.Hbonds>
donor molecule, donor type, donor heavy atom, donor atom, acceptor molecule, acceptor atom, score
      L1  H    12    45       P1  7948  2.00
      P1  H  7989  7998       L1     7  0.32
      P1  H  7997  8008       L1    19  0.84
      P1  H  7997  8009       L1     7  0.90

> <Gold.PLP.Chemscore.Internal.Correction>
0.0997

> <Gold.Rescore>
     Score         DG    S(hbond)    S(metal)    S(lipo)     H(rot)  DE(clash)    DE(int)     intcor
     14.69     -17.98       2.29        0.00      75.32       1.55       1.93       1.36       ----

> <Gold.Chemscore.Fitness>
14.6918

> <Gold.Chemscore.DG>
-17.9777

> <Gold.Chemscore.ZeroCoef>
-5.4800

> <Gold.Chemscore.Hbond>
2.2892

> <Gold.Chemscore.Metal>
0.0000

> <Gold.Chemscore.Lipo>
75.3240

> <Gold.Chemscore.Internal_Hbond>
0.0000

> <Gold.Chemscore.DEClash>
1.9305

> <Gold.Chemscore.DEInternal>
1.3554

> <Gold.Chemscore.Rot>
1.5474

> <Gold.Chemscore.Internal.Correction>
   9.000000E+99

> <Gold.Chemscore.Hbonds>
donor molecule, donor type, donor heavy atom, donor atom, acceptor molecule, acceptor atom, score
      L1  H    12    45       P1  7948  1.00
      P1  H  7989  7998       L1     7  0.27
      P1  H  7997  8008       L1    19  0.09
      P1  H  7997  8009       L1     7  0.83

> <Gold.Chemscore.Hbond.Weighted>
-7.6460

> <Gold.Chemscore.Metal.Weighted>
-0.0000

> <Gold.Chemscore.Lipo.Weighted>
-8.8129

> <Gold.Chemscore.Internal_Hbond.Weighted>
0.0000

> <Gold.Chemscore.DEClash.Weighted>
1.9305

> <Gold.Chemscore.DEInternal.Weighted>
1.3554

> <Gold.Chemscore.Rot.Weighted>
3.9612

> <Gold.Chemscore.Internal.Correction.Weighted>
   9.000000E+99

> <Gold.Protein.RotatedTorsions>
[ 6907 6896 6895 6894 ] final  -59.12 input  -60.11 | X-H torsion
[ 7974 7965 7964 7962 ] final  -31.06 input  175.53 | X-H torsion
[ 8008 7997 7996 7995 ] final -123.07 input   59.86 | X-H torsion
[ 10167 10162 10161 10158 ] final   56.74 input  -65.29 | X-H torsion
[ 10718 10713 10712 10709 ] final  -71.14 input   66.30 | X-H torsion
[ 10763 10752 10751 10750 ] final  -14.30 input  -60.55 | X-H torsion
[ 11005 11000 10999 10996 ] final -106.08 input  -57.11 | X-H torsion

> <Gold.Protein.ActiveResidues>
 VAL166  LYS551  ARG553  GLY616  TRP617  ASP618  TYR619  PRO620  LYS621  CYS622 
 ASP623  PHE694  ASN695  SER759  ASP760  ASP761  ALA762  ILE779  LEU786  VAL792 
 PHE793  MET794  SER795  GLU796  ALA797  LYS798  CYS799  TRP800  GLU811  SER814 

> <Gold.Protein.RotatedAtoms>
  150.7954  134.7009  159.6549 H   0  0  0  0  0  0  0  0  0  0  0  0  # atno 6907 bound_to 6896
  152.4065  134.6194  160.0056 H   0  0  0  0  0  0  0  0  0  0  0  0  # atno 6908 bound_to 6896
  151.6449  133.3287  159.3175 H   0  0  0  0  0  0  0  0  0  0  0  0  # atno 6909 bound_to 6896
  146.1096  140.5619  142.8784 H   0  0  0  0  0  0  0  0  0  0  0  0  # atno 7974 bound_to 7965
  155.1746  140.0409  157.2870 H   0  0  0  0  0  0  0  0  0  0  0  0  # atno 8008 bound_to 7997
  154.6246  140.2509  155.7480 H   0  0  0  0  0  0  0  0  0  0  0  0  # atno 8009 bound_to 7997
  156.2452  140.2888  156.0569 H   0  0  0  0  0  0  0  0  0  0  0  0  # atno 8010 bound_to 7997
  140.2054  144.3944  150.6511 H   0  0  0  0  0  0  0  0  0  0  0  0  # atno 10167 bound_to 10162
  156.0376  130.4345  150.2400 H   0  0  0  0  0  0  0  0  0  0  0  0  # atno 10718 bound_to 10713
  153.5262  135.7015  153.5706 H   0  0  0  0  0  0  0  0  0  0  0  0  # atno 10763 bound_to 10752
  153.3734  135.3939  155.1805 H   0  0  0  0  0  0  0  0  0  0  0  0  # atno 10764 bound_to 10752
  154.8689  135.3817  154.4755 H   0  0  0  0  0  0  0  0  0  0  0  0  # atno 10765 bound_to 10752
  141.1022  133.8863  157.1812 H   0  0  0  0  0  0  0  0  0  0  0  0  # atno 11005 bound_to 11000
  144.7500  140.5167  143.6808 LP  0  0  0  0  0  0  0  0  0  0  0  0  # atno 17320 bound_to 7965
  145.5690  139.1482  143.3299 LP  0  0  0  0  0  0  0  0  0  0  0  0  # atno 17321 bound_to 7965
  140.6361  143.2195  151.6392 LP  0  0  0  0  0  0  0  0  0  0  0  0  # atno 17342 bound_to 10162
  139.5200  144.3235  152.0889 LP  0  0  0  0  0  0  0  0  0  0  0  0  # atno 17343 bound_to 10162
  157.0498  131.0059  151.3257 LP  0  0  0  0  0  0  0  0  0  0  0  0  # atno 17370 bound_to 10713
  157.5149  130.7961  149.7745 LP  0  0  0  0  0  0  0  0  0  0  0  0  # atno 17371 bound_to 10713
  139.9878  135.0075  156.9904 LP  0  0  0  0  0  0  0  0  0  0  0  0  # atno 17394 bound_to 11000
  140.4993  134.1114  155.7247 LP  0  0  0  0  0  0  0  0  0  0  0  0  # atno 17395 bound_to 11000

$$$$
