AV-unprocessed.smi:3178|AV-procd|sdf|12130|dock2
  -GOLD-   2272017573D 1   1.00000     0.00000
 Structure written by MMmdl.
 35 35  0  0  0  0  0  0  0  0  1 V2000
  147.0931  141.0821  156.4579 C   0  0  0  0  0  0  0  0  0  0  0  0
  146.9753  140.2352  155.3215 O   0  0  0  0  0  0  0  0  0  0  0  0
  147.3719  140.7528  154.0464 C   0  0  0  0  0  0  0  0  0  0  0  0
  146.4872  141.9666  153.7009 C   0  0  0  0  0  0  0  0  0  0  0  0
  148.8675  141.1482  154.0205 C   0  0  0  0  0  0  0  0  0  0  0  0
  147.0856  139.6163  153.0345 C   0  0  0  0  0  0  0  0  0  0  0  0
  145.7350  139.0832  153.1832 N   0  0  0  0  0  0  0  0  0  0  0  0
  145.4303  137.8105  153.4811 C   0  0  0  0  0  0  0  0  0  0  0  0
  146.2604  136.9770  153.8433 O   0  0  0  0  0  0  0  0  0  0  0  0
  143.9672  137.4064  153.2982 C   0  0  0  0  0  0  0  0  0  0  0  0
  143.8889  135.9506  152.9145 C   0  0  0  0  0  0  0  0  0  0  0  0
  144.2701  135.3440  151.6801 C   0  0  0  0  0  0  0  0  0  0  0  0
  143.9569  134.0241  151.8390 C   0  0  0  0  0  0  0  0  0  0  0  0
  144.0922  132.8645  150.9116 C   0  0  0  0  0  0  0  0  0  0  0  0
  143.4375  133.9035  153.1073 N   0  0  0  0  0  0  0  0  0  0  0  0
  143.3919  135.0718  153.7739 N   0  0  0  0  0  0  0  0  0  0  0  0
  143.1141  133.0423  153.5247 H   0  0  0  0  0  0  0  0  0  0  0  0
  146.6657  140.5729  157.3212 H   0  0  0  0  0  0  0  0  0  0  0  0
  146.5572  142.0224  156.3342 H   0  0  0  0  0  0  0  0  0  0  0  0
  148.1353  141.2947  156.6957 H   0  0  0  0  0  0  0  0  0  0  0  0
  146.6782  142.3136  152.6848 H   0  0  0  0  0  0  0  0  0  0  0  0
  146.6689  142.8111  154.3650 H   0  0  0  0  0  0  0  0  0  0  0  0
  145.4285  141.7143  153.7687 H   0  0  0  0  0  0  0  0  0  0  0  0
  149.1868  141.3995  153.0086 H   0  0  0  0  0  0  0  0  0  0  0  0
  149.5067  140.3399  154.3773 H   0  0  0  0  0  0  0  0  0  0  0  0
  149.0676  142.0212  154.6416 H   0  0  0  0  0  0  0  0  0  0  0  0
  147.2559  139.9594  152.0123 H   0  0  0  0  0  0  0  0  0  0  0  0
  147.7810  138.7920  153.1959 H   0  0  0  0  0  0  0  0  0  0  0  0
  144.9776  139.6928  152.9105 H   0  0  0  0  0  0  0  0  0  0  0  0
  143.4201  137.5826  154.2251 H   0  0  0  0  0  0  0  0  0  0  0  0
  143.5125  138.0438  152.5383 H   0  0  0  0  0  0  0  0  0  0  0  0
  144.6934  135.8142  150.8048 H   0  0  0  0  0  0  0  0  0  0  0  0
  145.1231  132.7594  150.5732 H   0  0  0  0  0  0  0  0  0  0  0  0
  143.4607  132.9996  150.0335 H   0  0  0  0  0  0  0  0  0  0  0  0
  143.8000  131.9326  151.3963 H   0  0  0  0  0  0  0  0  0  0  0  0
  1  2  1  0  0  0  0
  1 18  1  0  0  0  0
  1 19  1  0  0  0  0
  1 20  1  0  0  0  0
  2  3  1  0  0  0  0
  3  4  1  0  0  0  0
  3  5  1  0  0  0  0
  3  6  1  0  0  0  0
  4 21  1  0  0  0  0
  4 22  1  0  0  0  0
  4 23  1  0  0  0  0
  5 24  1  0  0  0  0
  5 25  1  0  0  0  0
  5 26  1  0  0  0  0
  6  7  1  0  0  0  0
  6 27  1  0  0  0  0
  6 28  1  0  0  0  0
  7  8  1  0  0  0  0
  7 29  1  0  0  0  0
  8  9  2  0  0  0  0
  8 10  1  0  0  0  0
 10 11  1  0  0  0  0
 10 30  1  0  0  0  0
 10 31  1  0  0  0  0
 11 16  2  0  0  0  0
 11 12  1  0  0  0  0
 12 13  2  0  0  0  0
 12 32  1  0  0  0  0
 13 14  1  0  0  0  0
 13 15  1  0  0  0  0
 14 33  1  0  0  0  0
 14 34  1  0  0  0  0
 14 35  1  0  0  0  0
 15 17  1  0  0  0  0
 15 16  1  0  0  0  0
M  END
> <s_m_source_file>
AV-unprocessed.smi

> <i_m_source_file_index>
3178

> <i_lp_mmshare_version>
43012

> <i_f3d_flags>
0

> <s_epik_input>
W0NIM11PQyhbQ0gzXSkoW0NIM10pW0NIMl1bTkhdQyg9TylbQ0gyXWMxW2NIXWMoW0NIM10pW25IXW4x

> <s_epik_cmdline>
J2VwaWtfcHl0aG9uJywgJy1waCcsICc3LjAnLCAnLXRuJywgJzgnLCAnLW1hJywgJzIwMCcsICctbWV0YWxfYmluZGluZycsICctaW1hZScsICc8aW5maWxlLm1hZT4nLCAnLW9tYWUnLCAnPG91dGZpbGUubWFlPic=

> <r_lp_tautomer_probability>
0.5

> <r_epik_Ionization_Penalty>
8.10473e-05

> <r_epik_Ionization_Penalty_Charging>
0

> <r_epik_Ionization_Penalty_Neutral>
8.10473e-05

> <r_epik_State_Penalty>
0.41068

> <r_epik_Charging_Adjusted_Penalty>
0.41068

> <i_epik_Tot_Q>
0

> <i_epik_Tot_abs_Q>
0

> <r_epik_Metal_State_Penalty>
0.410702

> <b_epik_Metal_Only>
0

> <s_lp_Force_Field>
OPLS_2005

> <r_lp_Energy>
5.73531

> <b_lp_Chiralities_Consistent>
1

> <s_lp_Variant>
AV-unprocessed.smi:3178-1

> <Gold.Version>
5.8.1

> <Gold.Id.Protein>
6NUR|6NUR_protein|mol2

> <Gold.PLP.Fitness>
29.5320

> <Gold.PLP.PLP>
-24.5429

> <Gold.PLP.part.hbond>
-2.0000

> <Gold.PLP.part.metal>
0.0000

> <Gold.PLP.part.buried>
-2.9420

> <Gold.PLP.part.nonpolar>
-19.8376

> <Gold.PLP.part.repulsive>
0.2266

> <Gold.PLP.ligand.clash>
0.0000

> <Gold.PLP.ligand.torsion>
0.5270

> <Gold.PLP.Chemscore.Hbond>
2.0000

> <Gold.PLP.Chemscore.CHOScore>
0.0000

> <Gold.PLP.Chemscore.Metal>
0.0000

> <Gold.Chemscore.Hbonds>
donor molecule, donor type, donor heavy atom, donor atom, acceptor molecule, acceptor atom, score
      L1  H     7    29       P1 10175  1.00
      L1  H    15    17       P1 10957  1.00

> <Gold.PLP.Chemscore.Internal.Correction>
0.0430

> <Gold.Rescore>
     Score         DG    S(hbond)    S(metal)    S(lipo)     H(rot)  DE(clash)    DE(int)     intcor
     13.00     -13.59       1.99        0.00      53.84       1.89       0.07       0.53       ----

> <Gold.Chemscore.Fitness>
12.9953

> <Gold.Chemscore.DG>
-13.5904

> <Gold.Chemscore.ZeroCoef>
-5.4800

> <Gold.Chemscore.Hbond>
1.9891

> <Gold.Chemscore.Metal>
0.0000

> <Gold.Chemscore.Lipo>
53.8404

> <Gold.Chemscore.Internal_Hbond>
0.0000

> <Gold.Chemscore.DEClash>
0.0696

> <Gold.Chemscore.DEInternal>
0.5255

> <Gold.Chemscore.Rot>
1.8877

> <Gold.Chemscore.Internal.Correction>
   9.000000E+99

> <Gold.Chemscore.Hbonds>
donor molecule, donor type, donor heavy atom, donor atom, acceptor molecule, acceptor atom, score
      L1  H     7    29       P1 10175  0.97
      L1  H    15    17       P1 10957  0.92

> <Gold.Chemscore.Hbond.Weighted>
-6.6436

> <Gold.Chemscore.Metal.Weighted>
-0.0000

> <Gold.Chemscore.Lipo.Weighted>
-6.2993

> <Gold.Chemscore.Internal_Hbond.Weighted>
0.0000

> <Gold.Chemscore.DEClash.Weighted>
0.0696

> <Gold.Chemscore.DEInternal.Weighted>
0.5255

> <Gold.Chemscore.Rot.Weighted>
4.8325

> <Gold.Chemscore.Internal.Correction.Weighted>
   9.000000E+99

> <Gold.Protein.RotatedTorsions>
[ 6907 6896 6895 6894 ] final  -21.11 input  -60.11 | X-H torsion
[ 7974 7965 7964 7962 ] final   87.99 input  175.53 | X-H torsion
[ 8008 7997 7996 7995 ] final  135.48 input   59.86 | X-H torsion
[ 10167 10162 10161 10158 ] final   36.32 input  -65.29 | X-H torsion
[ 10718 10713 10712 10709 ] final -129.85 input   66.30 | X-H torsion
[ 10763 10752 10751 10750 ] final  -34.65 input  -60.55 | X-H torsion
[ 11005 11000 10999 10996 ] final   39.59 input  -57.11 | X-H torsion

> <Gold.Protein.ActiveResidues>
 VAL166  LYS551  ARG553  GLY616  TRP617  ASP618  TYR619  PRO620  LYS621  CYS622 
 ASP623  PHE694  ASN695  SER759  ASP760  ASP761  ALA762  ILE779  LEU786  VAL792 
 PHE793  MET794  SER795  GLU796  ALA797  LYS798  CYS799  TRP800  GLU811  SER814 

> <Gold.Protein.RotatedAtoms>
  151.2381  135.0579  159.9014 H   0  0  0  0  0  0  0  0  0  0  0  0  # atno 6907 bound_to 6896
  152.5396  134.0464  159.8100 H   0  0  0  0  0  0  0  0  0  0  0  0  # atno 6908 bound_to 6896
  151.0653  133.5461  159.2662 H   0  0  0  0  0  0  0  0  0  0  0  0  # atno 6909 bound_to 6896
  145.5517  139.2296  143.2509 H   0  0  0  0  0  0  0  0  0  0  0  0  # atno 7974 bound_to 7965
  156.3003  140.2469  156.3588 H   0  0  0  0  0  0  0  0  0  0  0  0  # atno 8008 bound_to 7997
  154.8897  140.0409  157.1850 H   0  0  0  0  0  0  0  0  0  0  0  0  # atno 8009 bound_to 7997
  154.8611  140.2920  155.5543 H   0  0  0  0  0  0  0  0  0  0  0  0  # atno 8010 bound_to 7997
  140.4139  144.1554  150.6141 H   0  0  0  0  0  0  0  0  0  0  0  0  # atno 10167 bound_to 10162
  156.2087  130.6904  151.0624 H   0  0  0  0  0  0  0  0  0  0  0  0  # atno 10718 bound_to 10713
  153.8502  135.6849  153.4793 H   0  0  0  0  0  0  0  0  0  0  0  0  # atno 10763 bound_to 10752
  153.1402  135.4660  154.9482 H   0  0  0  0  0  0  0  0  0  0  0  0  # atno 10764 bound_to 10752
  154.7806  135.3267  154.7946 H   0  0  0  0  0  0  0  0  0  0  0  0  # atno 10765 bound_to 10752
  140.2013  134.3866  155.8094 H   0  0  0  0  0  0  0  0  0  0  0  0  # atno 11005 bound_to 11000
  146.1912  140.6340  142.9144 LP  0  0  0  0  0  0  0  0  0  0  0  0  # atno 17320 bound_to 7965
  144.7526  140.5229  143.6791 LP  0  0  0  0  0  0  0  0  0  0  0  0  # atno 17321 bound_to 7965
  140.4608  143.2450  151.9222 LP  0  0  0  0  0  0  0  0  0  0  0  0  # atno 17342 bound_to 10162
  139.4782  144.5469  151.8444 LP  0  0  0  0  0  0  0  0  0  0  0  0  # atno 17343 bound_to 10162
  157.7026  131.0769  150.6770 LP  0  0  0  0  0  0  0  0  0  0  0  0  # atno 17370 bound_to 10713
  156.6829  130.4572  149.5622 LP  0  0  0  0  0  0  0  0  0  0  0  0  # atno 17371 bound_to 10713
  141.2227  133.7095  156.8263 LP  0  0  0  0  0  0  0  0  0  0  0  0  # atno 17394 bound_to 11000
  140.2051  134.8869  157.3212 LP  0  0  0  0  0  0  0  0  0  0  0  0  # atno 17395 bound_to 11000

$$$$
