AV-unprocessed.smi:1796|AV-procd|sdf|7254|dock9
  -GOLD-   22720 8503D 1   1.00000     0.00000
 Structure written by MMmdl.
 42 43  0  0  0  0  0  0  0  0  1 V2000
  151.2663  141.7559  158.2022 C   0  0  0  0  0  0  0  0  0  0  0  0
  152.5298  141.0669  158.7228 C   0  0  0  0  0  0  0  0  0  0  0  0
  152.7982  139.9467  158.2880 O   0  0  0  0  0  0  0  0  0  0  0  0
  153.3020  141.7022  159.6370 N   0  0  0  0  0  0  0  0  0  0  0  0
  152.9964  143.0005  160.2523 C   0  0  0  0  0  0  0  0  0  0  0  0
  152.6191  142.7708  161.7265 C   0  0  0  0  0  0  0  0  0  0  0  0
  153.7436  142.0274  162.4723 C   0  0  0  0  0  0  0  0  0  0  0  0
  154.1834  140.7494  161.7188 C   0  0  2  0  0  0  0  0  0  0  0  0
  155.4029  140.0951  162.3791 C   0  0  0  0  0  0  0  0  0  0  0  0
  156.1190  139.3268  161.7357 O   0  0  0  0  0  0  0  0  0  0  0  0
  155.6078  140.3852  163.6742 N   0  0  0  0  0  0  0  0  0  0  0  0
  156.6315  139.7859  164.5295 C   0  0  1  0  0  0  0  0  0  0  0  0
  157.7508  140.8091  164.7649 C   0  0  0  0  0  0  0  0  0  0  0  0
  156.0178  139.3062  165.8628 C   0  0  0  0  0  0  0  0  0  0  0  0
  155.8391  140.3860  166.8187 N   0  0  0  0  0  0  0  0  0  0  0  0
  155.5288  141.7065  166.5704 C   0  0  0  0  0  0  0  0  0  0  0  0
  155.4896  142.3481  167.7748 C   0  0  0  0  0  0  0  0  0  0  0  0
  155.7898  141.3225  168.7143 C   0  0  0  0  0  0  0  0  0  0  0  0
  155.9930  140.1481  168.1399 N   0  0  0  0  0  0  0  0  0  0  0  0
  154.4880  141.0819  160.2404 C   0  0  0  0  0  0  0  0  0  0  0  0
  150.5832  141.9832  159.0211 H   0  0  0  0  0  0  0  0  0  0  0  0
  150.7386  141.1109  157.4986 H   0  0  0  0  0  0  0  0  0  0  0  0
  151.5177  142.6805  157.6820 H   0  0  0  0  0  0  0  0  0  0  0  0
  153.8770  143.6415  160.1900 H   0  0  0  0  0  0  0  0  0  0  0  0
  152.2030  143.5492  159.7471 H   0  0  0  0  0  0  0  0  0  0  0  0
  152.4152  143.7240  162.2146 H   0  0  0  0  0  0  0  0  0  0  0  0
  151.6970  142.1904  161.7806 H   0  0  0  0  0  0  0  0  0  0  0  0
  154.5914  142.7053  162.5841 H   0  0  0  0  0  0  0  0  0  0  0  0
  153.4151  141.7774  163.4819 H   0  0  0  0  0  0  0  0  0  0  0  0
  153.3545  140.0391  161.7445 H   0  0  0  0  0  0  0  0  0  0  0  0
  154.9672  141.0271  164.1183 H   0  0  0  0  0  0  0  0  0  0  0  0
  157.0816  138.9291  164.0249 H   0  0  0  0  0  0  0  0  0  0  0  0
  158.5446  140.3860  165.3812 H   0  0  0  0  0  0  0  0  0  0  0  0
  157.3768  141.6994  165.2718 H   0  0  0  0  0  0  0  0  0  0  0  0
  158.1998  141.1247  163.8226 H   0  0  0  0  0  0  0  0  0  0  0  0
  155.0397  138.8583  165.6832 H   0  0  0  0  0  0  0  0  0  0  0  0
  156.6370  138.5278  166.3123 H   0  0  0  0  0  0  0  0  0  0  0  0
  155.3722  142.0759  165.5676 H   0  0  0  0  0  0  0  0  0  0  0  0
  155.2815  143.3920  167.9568 H   0  0  0  0  0  0  0  0  0  0  0  0
  155.8654  141.3959  169.7891 H   0  0  0  0  0  0  0  0  0  0  0  0
  154.8027  140.1818  159.7093 H   0  0  0  0  0  0  0  0  0  0  0  0
  155.3289  141.7738  160.1663 H   0  0  0  0  0  0  0  0  0  0  0  0
  1  2  1  0  0  0  0
  1 21  1  0  0  0  0
  1 22  1  0  0  0  0
  1 23  1  0  0  0  0
  2  3  2  0  0  0  0
  2  4  1  0  0  0  0
  4 20  1  0  0  0  0
  4  5  1  0  0  0  0
  5  6  1  0  0  0  0
  5 24  1  0  0  0  0
  5 25  1  0  0  0  0
  6  7  1  0  0  0  0
  6 26  1  0  0  0  0
  6 27  1  0  0  0  0
  7  8  1  0  0  0  0
  7 28  1  0  0  0  0
  7 29  1  0  0  0  0
  8  9  1  0  0  0  0
  8 20  1  0  0  0  0
  8 30  1  0  0  0  0
  9 10  2  0  0  0  0
  9 11  1  0  0  0  0
 11 12  1  0  0  0  0
 11 31  1  0  0  0  0
 12 13  1  0  0  0  0
 12 14  1  0  0  0  0
 12 32  1  0  0  0  0
 13 33  1  0  0  0  0
 13 34  1  0  0  0  0
 13 35  1  0  0  0  0
 14 15  1  0  0  0  0
 14 36  1  0  0  0  0
 14 37  1  0  0  0  0
 15 19  1  0  0  0  0
 15 16  1  0  0  0  0
 16 17  2  0  0  0  0
 16 38  1  0  0  0  0
 17 18  1  0  0  0  0
 17 39  1  0  0  0  0
 18 19  2  0  0  0  0
 18 40  1  0  0  0  0
 20 41  1  0  0  0  0
 20 42  1  0  0  0  0
M  END
> <s_m_source_file>
AV-unprocessed.smi

> <i_m_source_file_index>
1796

> <i_lp_mmshare_version>
43012

> <i_f3d_flags>
0

> <s_epik_input>
W0NIM11DKD1PKU4xW0NIMl1bQ0gyXVtDSDJdW0NASF0oW0NIMl0xKUMoPU8pW05IXVtDQEhdKFtDSDNdKVtDSDJdbjJbY0hdW2NIXVtjSF1uMg==

> <s_epik_cmdline>
J2VwaWtfcHl0aG9uJywgJy1waCcsICc3LjAnLCAnLXRuJywgJzgnLCAnLW1hJywgJzIwMCcsICctbWV0YWxfYmluZGluZycsICctaW1hZScsICc8aW5maWxlLm1hZT4nLCAnLW9tYWUnLCAnPG91dGZpbGUubWFlPic=

> <r_lp_tautomer_probability>
1

> <r_epik_Ionization_Penalty>
0.000315051

> <r_epik_Ionization_Penalty_Charging>
0

> <r_epik_Ionization_Penalty_Neutral>
0.000315051

> <r_epik_State_Penalty>
-0

> <r_epik_Charging_Adjusted_Penalty>
0

> <i_epik_Tot_Q>
0

> <i_epik_Tot_abs_Q>
0

> <r_epik_Metal_State_Penalty>
-0

> <b_epik_Metal_Only>
0

> <s_lp_Force_Field>
OPLS_2005

> <r_lp_Energy>
22.8322

> <b_lp_Chiralities_Consistent>
1

> <s_lp_Variant>
AV-unprocessed.smi:1796-4

> <Gold.Version>
5.8.1

> <Gold.Id.Protein>
6NUR|6NUR_protein|mol2

> <Gold.PLP.Fitness>
43.1273

> <Gold.PLP.PLP>
-42.7863

> <Gold.PLP.part.hbond>
-2.1130

> <Gold.PLP.part.metal>
0.0000

> <Gold.PLP.part.buried>
-4.8224

> <Gold.PLP.part.nonpolar>
-35.7445

> <Gold.PLP.part.repulsive>
0.1006

> <Gold.PLP.ligand.clash>
0.0000

> <Gold.PLP.ligand.torsion>
1.3465

> <Gold.PLP.Chemscore.Hbond>
1.0000

> <Gold.PLP.Chemscore.CHOScore>
0.0000

> <Gold.PLP.Chemscore.Metal>
0.0000

> <Gold.Chemscore.Hbonds>
donor molecule, donor type, donor heavy atom, donor atom, acceptor molecule, acceptor atom, score
      P1  H  7997  8010       L1     3  0.54

> <Gold.PLP.Chemscore.Internal.Correction>
0.0340

> <Gold.Rescore>
     Score         DG    S(hbond)    S(metal)    S(lipo)     H(rot)  DE(clash)    DE(int)     intcor
     13.17     -14.23       0.89        0.00      85.25       1.63       0.03       1.04       ----

> <Gold.Chemscore.Fitness>
13.1692

> <Gold.Chemscore.DG>
-14.2349

> <Gold.Chemscore.ZeroCoef>
-5.4800

> <Gold.Chemscore.Hbond>
0.8870

> <Gold.Chemscore.Metal>
0.0000

> <Gold.Chemscore.Lipo>
85.2516

> <Gold.Chemscore.Internal_Hbond>
0.0000

> <Gold.Chemscore.DEClash>
0.0270

> <Gold.Chemscore.DEInternal>
1.0387

> <Gold.Chemscore.Rot>
1.6336

> <Gold.Chemscore.Internal.Correction>
   9.000000E+99

> <Gold.Chemscore.Hbonds>
donor molecule, donor type, donor heavy atom, donor atom, acceptor molecule, acceptor atom, score
      P1  H  7997  8010       L1     3  0.36

> <Gold.Chemscore.Hbond.Weighted>
-2.9626

> <Gold.Chemscore.Metal.Weighted>
-0.0000

> <Gold.Chemscore.Lipo.Weighted>
-9.9744

> <Gold.Chemscore.Internal_Hbond.Weighted>
0.0000

> <Gold.Chemscore.DEClash.Weighted>
0.0270

> <Gold.Chemscore.DEInternal.Weighted>
1.0387

> <Gold.Chemscore.Rot.Weighted>
4.1821

> <Gold.Chemscore.Internal.Correction.Weighted>
   9.000000E+99

> <Gold.Protein.RotatedTorsions>
[ 6907 6896 6895 6894 ] final  111.98 input  -60.11 | X-H torsion
[ 7974 7965 7964 7962 ] final   92.37 input  175.53 | X-H torsion
[ 8008 7997 7996 7995 ] final   27.13 input   59.86 | X-H torsion
[ 10167 10162 10161 10158 ] final  140.10 input  -65.29 | X-H torsion
[ 10718 10713 10712 10709 ] final  -38.67 input   66.30 | X-H torsion
[ 10763 10752 10751 10750 ] final  -18.73 input  -60.55 | X-H torsion
[ 11005 11000 10999 10996 ] final -102.84 input  -57.11 | X-H torsion

> <Gold.Protein.ActiveResidues>
 VAL166  LYS551  ARG553  GLY616  TRP617  ASP618  TYR619  PRO620  LYS621  CYS622 
 ASP623  PHE694  ASN695  SER759  ASP760  ASP761  ALA762  ILE779  LEU786  VAL792 
 PHE793  MET794  SER795  GLU796  ALA797  LYS798  CYS799  TRP800  GLU811  SER814 

> <Gold.Protein.RotatedAtoms>
  152.4941  133.8581  159.7235 H   0  0  0  0  0  0  0  0  0  0  0  0  # atno 6907 bound_to 6896
  150.9100  133.7001  159.2864 H   0  0  0  0  0  0  0  0  0  0  0  0  # atno 6908 bound_to 6896
  151.4414  135.1025  159.9723 H   0  0  0  0  0  0  0  0  0  0  0  0  # atno 6909 bound_to 6896
  145.4932  139.2276  143.2818 H   0  0  0  0  0  0  0  0  0  0  0  0  # atno 7974 bound_to 7965
  155.0381  140.3166  155.4734 H   0  0  0  0  0  0  0  0  0  0  0  0  # atno 8008 bound_to 7997
  156.2860  140.2168  156.5447 H   0  0  0  0  0  0  0  0  0  0  0  0  # atno 8009 bound_to 7997
  154.7313  140.0481  157.0717 H   0  0  0  0  0  0  0  0  0  0  0  0  # atno 8010 bound_to 7997
  139.5059  144.6254  151.5949 H   0  0  0  0  0  0  0  0  0  0  0  0  # atno 10167 bound_to 10162
  156.3011  130.4240  149.8142 H   0  0  0  0  0  0  0  0  0  0  0  0  # atno 10718 bound_to 10713
  153.5938  135.7001  153.5412 H   0  0  0  0  0  0  0  0  0  0  0  0  # atno 10763 bound_to 10752
  153.3155  135.4089  155.1372 H   0  0  0  0  0  0  0  0  0  0  0  0  # atno 10764 bound_to 10752
  154.8595  135.3683  154.5471 H   0  0  0  0  0  0  0  0  0  0  0  0  # atno 10765 bound_to 10752
  141.1172  133.8591  157.1410 H   0  0  0  0  0  0  0  0  0  0  0  0  # atno 11005 bound_to 11000
  146.2271  140.5728  142.8991 LP  0  0  0  0  0  0  0  0  0  0  0  0  # atno 17320 bound_to 7965
  144.7822  140.5863  143.6598 LP  0  0  0  0  0  0  0  0  0  0  0  0  # atno 17321 bound_to 7965
  140.5970  143.9679  150.6361 LP  0  0  0  0  0  0  0  0  0  0  0  0  # atno 17342 bound_to 10162
  140.2878  143.3345  152.1091 LP  0  0  0  0  0  0  0  0  0  0  0  0  # atno 17343 bound_to 10162
  156.5520  130.8346  151.3302 LP  0  0  0  0  0  0  0  0  0  0  0  0  # atno 17370 bound_to 10713
  157.7368  130.9785  150.2157 LP  0  0  0  0  0  0  0  0  0  0  0  0  # atno 17371 bound_to 10713
  140.0102  134.9991  157.0379 LP  0  0  0  0  0  0  0  0  0  0  0  0  # atno 17394 bound_to 11000
  140.4612  134.1482  155.7191 LP  0  0  0  0  0  0  0  0  0  0  0  0  # atno 17395 bound_to 11000

$$$$
