AV-unprocessed.smi:565|AV-procd|sdf|2953|dock7
  -GOLD-   2262023453D 1   1.00000     0.00000
 Structure written by MMmdl.
 50 51  0  0  0  0  0  0  0  0  2 V2000
  151.5168  138.0602  154.5301 C   0  0  0  0  0  0  0  0  0  0  0  0
  151.5319  139.1862  155.5241 C   0  0  0  0  0  0  0  0  0  0  0  0
  151.1824  140.4010  155.1355 N   0  0  0  0  0  0  0  0  0  0  0  0
  151.2937  141.1619  156.2430 N   0  0  0  0  0  0  0  0  0  0  0  0
  150.9779  142.5752  156.1710 C   0  0  0  0  0  0  0  0  0  0  0  0
  151.7158  140.4262  157.3330 C   0  0  0  0  0  0  0  0  0  0  0  0
  151.9085  141.0420  158.6815 C   0  0  0  0  0  0  0  0  0  0  0  0
  151.8842  139.1362  156.9048 C   0  0  0  0  0  0  0  0  0  0  0  0
  152.3286  137.9304  157.6928 C   0  0  0  0  0  0  0  0  0  0  0  0
  151.3318  137.6584  158.8205 C   0  0  0  0  0  0  0  0  0  0  0  0
  151.7365  137.3468  159.9408 O   0  0  0  0  0  0  0  0  0  0  0  0
  150.0310  137.7886  158.5175 N   0  0  0  0  0  0  0  0  0  0  0  0
  148.9316  137.6319  159.4623 C   0  0  0  0  0  0  0  0  0  0  0  0
  148.6838  136.1524  159.8200 C   0  0  0  0  0  0  0  0  0  0  0  0
  148.0290  135.9883  161.1423 N   0  3  1  0  0  0  0  0  0  0  0  0
  148.0892  134.5848  161.6258 C   0  0  0  0  0  0  0  0  0  0  0  0
  147.2668  134.4051  162.9115 C   0  0  0  0  0  0  0  0  0  0  0  0
  147.7278  135.3825  164.0020 C   0  0  0  0  0  0  0  0  0  0  0  0
  147.7306  136.8337  163.4869 C   0  0  2  0  0  0  0  0  0  0  0  0
  146.3149  137.4227  163.3561 C   0  0  0  0  0  0  0  0  0  0  0  0
  148.5305  136.9400  162.1719 C   0  0  0  0  0  0  0  0  0  0  0  0
  150.9141  137.2283  154.8940 H   0  0  0  0  0  0  0  0  0  0  0  0
  152.5250  137.6867  154.3510 H   0  0  0  0  0  0  0  0  0  0  0  0
  151.1031  138.3717  153.5702 H   0  0  0  0  0  0  0  0  0  0  0  0
  151.8729  143.1605  156.3823 H   0  0  0  0  0  0  0  0  0  0  0  0
  150.2111  142.8179  156.9069 H   0  0  0  0  0  0  0  0  0  0  0  0
  150.6086  142.8385  155.1790 H   0  0  0  0  0  0  0  0  0  0  0  0
  152.2221  140.3001  159.4156 H   0  0  0  0  0  0  0  0  0  0  0  0
  150.9810  141.4891  159.0390 H   0  0  0  0  0  0  0  0  0  0  0  0
  152.6703  141.8208  158.6466 H   0  0  0  0  0  0  0  0  0  0  0  0
  152.4155  137.0517  157.0521 H   0  0  0  0  0  0  0  0  0  0  0  0
  153.3161  138.0789  158.1300 H   0  0  0  0  0  0  0  0  0  0  0  0
  149.7896  138.0493  157.5720 H   0  0  0  0  0  0  0  0  0  0  0  0
  149.1480  138.2298  160.3475 H   0  0  0  0  0  0  0  0  0  0  0  0
  148.0359  138.0590  159.0104 H   0  0  0  0  0  0  0  0  0  0  0  0
  148.0447  135.7230  159.0470 H   0  0  0  0  0  0  0  0  0  0  0  0
  149.6117  135.5789  159.8041 H   0  0  0  0  0  0  0  0  0  0  0  0
  147.7024  133.9110  160.8605 H   0  0  0  0  0  0  0  0  0  0  0  0
  149.1291  134.3028  161.8002 H   0  0  0  0  0  0  0  0  0  0  0  0
  146.2088  134.5578  162.6960 H   0  0  0  0  0  0  0  0  0  0  0  0
  147.3590  133.3798  163.2713 H   0  0  0  0  0  0  0  0  0  0  0  0
  147.0961  135.2900  164.8863 H   0  0  0  0  0  0  0  0  0  0  0  0
  148.7363  135.1121  164.3180 H   0  0  0  0  0  0  0  0  0  0  0  0
  148.2463  137.4408  164.2321 H   0  0  0  0  0  0  0  0  0  0  0  0
  145.7193  136.8933  162.6125 H   0  0  0  0  0  0  0  0  0  0  0  0
  146.3533  138.4714  163.0598 H   0  0  0  0  0  0  0  0  0  0  0  0
  145.7812  137.3714  164.3055 H   0  0  0  0  0  0  0  0  0  0  0  0
  149.5844  136.7316  162.3639 H   0  0  0  0  0  0  0  0  0  0  0  0
  148.4822  137.9659  161.8096 H   0  0  0  0  0  0  0  0  0  0  0  0
  147.0504  136.1957  161.0033 H   0  0  0  0  0  0  0  0  0  0  0  0
  1  2  1  0  0  0  0
  1 22  1  0  0  0  0
  1 23  1  0  0  0  0
  1 24  1  0  0  0  0
  2  8  1  0  0  0  0
  2  3  2  0  0  0  0
  3  4  1  0  0  0  0
  4  5  1  0  0  0  0
  4  6  1  0  0  0  0
  5 25  1  0  0  0  0
  5 26  1  0  0  0  0
  5 27  1  0  0  0  0
  6  7  1  0  0  0  0
  6  8  2  0  0  0  0
  7 28  1  0  0  0  0
  7 29  1  0  0  0  0
  7 30  1  0  0  0  0
  8  9  1  0  0  0  0
  9 10  1  0  0  0  0
  9 31  1  0  0  0  0
  9 32  1  0  0  0  0
 10 11  2  0  0  0  0
 10 12  1  0  0  0  0
 12 13  1  0  0  0  0
 12 33  1  0  0  0  0
 13 14  1  0  0  0  0
 13 34  1  0  0  0  0
 13 35  1  0  0  0  0
 14 15  1  0  0  0  0
 14 36  1  0  0  0  0
 14 37  1  0  0  0  0
 15 21  1  0  0  0  0
 15 16  1  0  0  0  0
 15 50  1  0  0  0  0
 16 17  1  0  0  0  0
 16 38  1  0  0  0  0
 16 39  1  0  0  0  0
 17 18  1  0  0  0  0
 17 40  1  0  0  0  0
 17 41  1  0  0  0  0
 18 19  1  0  0  0  0
 18 42  1  0  0  0  0
 18 43  1  0  0  0  0
 19 20  1  0  0  0  0
 19 21  1  0  0  0  0
 19 44  1  0  0  0  0
 20 45  1  0  0  0  0
 20 46  1  0  0  0  0
 20 47  1  0  0  0  0
 21 48  1  0  0  0  0
 21 49  1  0  0  0  0
M  CHG  1  15   1
M  END
> <s_m_source_file>
AV-unprocessed.smi

> <i_m_source_file_index>
565

> <i_lp_mmshare_version>
43012

> <i_f3d_flags>
0

> <s_epik_input>
W0NIM11jMW5uKFtDSDNdKWMoW0NIM10pYzFbQ0gyXUMoPU8pW05IXVtDSDJdW0NIMl1OMltDSDJdW0NIMl1bQ0gyXVtDQEBIXShbQ0gzXSlbQ0gyXTI=

> <s_epik_cmdline>
J2VwaWtfcHl0aG9uJywgJy1waCcsICc3LjAnLCAnLXRuJywgJzgnLCAnLW1hJywgJzIwMCcsICctbWV0YWxfYmluZGluZycsICctaW1hZScsICc8aW5maWxlLm1hZT4nLCAnLW9tYWUnLCAnPG91dGZpbGUubWFlPic=

> <r_lp_tautomer_probability>
1

> <r_epik_Ionization_Penalty>
0.00411138

> <r_epik_Ionization_Penalty_Charging>
0.0019503

> <r_epik_Ionization_Penalty_Neutral>
0.00216107

> <r_epik_State_Penalty>
-0

> <r_epik_Charging_Adjusted_Penalty>
0.0019503

> <i_epik_Tot_Q>
1

> <i_epik_Tot_abs_Q>
1

> <r_epik_Metal_State_Penalty>
-0

> <b_epik_Metal_Only>
0

> <s_lp_Force_Field>
OPLS_2005

> <r_lp_Energy>
13.161

> <b_lp_Chiralities_Consistent>
1

> <s_lp_Variant>
AV-unprocessed.smi:565-3

> <Gold.Version>
5.8.1

> <Gold.Id.Protein>
6NUR|6NUR_protein|mol2

> <Gold.PLP.Fitness>
43.2947

> <Gold.PLP.PLP>
-38.6324

> <Gold.PLP.part.hbond>
-2.0000

> <Gold.PLP.part.metal>
0.0000

> <Gold.PLP.part.buried>
-2.4346

> <Gold.PLP.part.nonpolar>
-33.7879

> <Gold.PLP.part.repulsive>
0.2451

> <Gold.PLP.ligand.clash>
0.0000

> <Gold.PLP.ligand.torsion>
0.6262

> <Gold.PLP.Chemscore.Hbond>
1.9600

> <Gold.PLP.Chemscore.CHOScore>
0.0000

> <Gold.PLP.Chemscore.Metal>
0.0000

> <Gold.Chemscore.Hbonds>
donor molecule, donor type, donor heavy atom, donor atom, acceptor molecule, acceptor atom, score
      P1  H  6896  6908       L1    11  0.52
      P1  H  7989  7998       L1     3  1.00

> <Gold.PLP.Chemscore.Internal.Correction>
0.0348

> <Gold.Rescore>
     Score         DG    S(hbond)    S(metal)    S(lipo)     H(rot)  DE(clash)    DE(int)     intcor
     18.72     -19.71       1.88        0.00     103.27       1.61       0.15       0.84       ----

> <Gold.Chemscore.Fitness>
18.7193

> <Gold.Chemscore.DG>
-19.7085

> <Gold.Chemscore.ZeroCoef>
-5.4800

> <Gold.Chemscore.Hbond>
1.8798

> <Gold.Chemscore.Metal>
0.0000

> <Gold.Chemscore.Lipo>
103.2675

> <Gold.Chemscore.Internal_Hbond>
0.0000

> <Gold.Chemscore.DEClash>
0.1465

> <Gold.Chemscore.DEInternal>
0.8428

> <Gold.Chemscore.Rot>
1.6142

> <Gold.Chemscore.Internal.Correction>
   9.000000E+99

> <Gold.Chemscore.Hbonds>
donor molecule, donor type, donor heavy atom, donor atom, acceptor molecule, acceptor atom, score
      P1  H  6896  6908       L1    11  0.16
      P1  H  7989  7998       L1     3  0.90

> <Gold.Chemscore.Hbond.Weighted>
-6.2786

> <Gold.Chemscore.Metal.Weighted>
-0.0000

> <Gold.Chemscore.Lipo.Weighted>
-12.0823

> <Gold.Chemscore.Internal_Hbond.Weighted>
0.0000

> <Gold.Chemscore.DEClash.Weighted>
0.1465

> <Gold.Chemscore.DEInternal.Weighted>
0.8428

> <Gold.Chemscore.Rot.Weighted>
4.1324

> <Gold.Chemscore.Internal.Correction.Weighted>
   9.000000E+99

> <Gold.Protein.RotatedTorsions>
[ 6907 6896 6895 6894 ] final -134.57 input  -60.11 | X-H torsion
[ 7974 7965 7964 7962 ] final   84.00 input  175.53 | X-H torsion
[ 8008 7997 7996 7995 ] final  157.98 input   59.86 | X-H torsion
[ 10167 10162 10161 10158 ] final -167.82 input  -65.29 | X-H torsion
[ 10718 10713 10712 10709 ] final   -6.83 input   66.30 | X-H torsion
[ 10763 10752 10751 10750 ] final  -71.88 input  -60.55 | X-H torsion
[ 11005 11000 10999 10996 ] final  175.13 input  -57.11 | X-H torsion

> <Gold.Protein.ActiveResidues>
 VAL166  LYS551  ARG553  GLY616  TRP617  ASP618  TYR619  PRO620  LYS621  CYS622 
 ASP623  PHE694  ASN695  SER759  ASP760  ASP761  ALA762  ILE779  LEU786  VAL792 
 PHE793  MET794  SER795  GLU796  ALA797  LYS798  CYS799  TRP800  GLU811  SER814 

> <Gold.Protein.RotatedAtoms>
  150.9874  133.6183  159.2713 H   0  0  0  0  0  0  0  0  0  0  0  0  # atno 6907 bound_to 6896
  151.3416  135.0864  159.9383 H   0  0  0  0  0  0  0  0  0  0  0  0  # atno 6908 bound_to 6896
  152.5235  133.9485  159.7715 H   0  0  0  0  0  0  0  0  0  0  0  0  # atno 6909 bound_to 6896
  145.6045  139.2358  143.2227 H   0  0  0  0  0  0  0  0  0  0  0  0  # atno 7974 bound_to 7965
  156.2331  140.1871  156.7190 H   0  0  0  0  0  0  0  0  0  0  0  0  # atno 8008 bound_to 7997
  154.6058  140.0629  156.9456 H   0  0  0  0  0  0  0  0  0  0  0  0  # atno 8009 bound_to 7997
  155.2099  140.3299  155.4333 H   0  0  0  0  0  0  0  0  0  0  0  0  # atno 8010 bound_to 7997
  139.6024  144.0982  152.1757 H   0  0  0  0  0  0  0  0  0  0  0  0  # atno 10167 bound_to 10162
  156.7262  130.5166  149.5856 H   0  0  0  0  0  0  0  0  0  0  0  0  # atno 10718 bound_to 10713
  154.4380  135.5948  153.6111 H   0  0  0  0  0  0  0  0  0  0  0  0  # atno 10763 bound_to 10752
  152.9803  135.5991  154.3758 H   0  0  0  0  0  0  0  0  0  0  0  0  # atno 10764 bound_to 10752
  154.3604  135.2841  155.2302 H   0  0  0  0  0  0  0  0  0  0  0  0  # atno 10765 bound_to 10752
  140.3589  134.7130  157.4318 H   0  0  0  0  0  0  0  0  0  0  0  0  # atno 11005 bound_to 11000
  146.1551  140.6869  142.9304 LP  0  0  0  0  0  0  0  0  0  0  0  0  # atno 17320 bound_to 7965
  144.7296  140.4630  143.6948 LP  0  0  0  0  0  0  0  0  0  0  0  0  # atno 17321 bound_to 7965
  140.0582  144.5878  150.7283 LP  0  0  0  0  0  0  0  0  0  0  0  0  # atno 17342 bound_to 10162
  140.7260  143.2636  151.4119 LP  0  0  0  0  0  0  0  0  0  0  0  0  # atno 17343 bound_to 10162
  156.1560  130.6342  151.0658 LP  0  0  0  0  0  0  0  0  0  0  0  0  # atno 17370 bound_to 10713
  157.6878  131.0819  150.7194 LP  0  0  0  0  0  0  0  0  0  0  0  0  # atno 17371 bound_to 10713
  140.0643  134.5952  155.8713 LP  0  0  0  0  0  0  0  0  0  0  0  0  # atno 17394 bound_to 11000
  141.1990  133.6604  156.5821 LP  0  0  0  0  0  0  0  0  0  0  0  0  # atno 17395 bound_to 11000

$$$$
