AV-unprocessed.smi:2623|AV-procd|sdf|10231|dock5
  -GOLD-   2272014233D 1   1.00000     0.00000
 Structure written by MMmdl.
 41 43  0  0  0  0  0  0  0  0  2 V2000
  151.4233  136.5407  153.9241 O   0  0  0  0  0  0  0  0  0  0  0  0
  151.6488  137.7932  154.5312 C   0  0  0  0  0  0  0  0  0  0  0  0
  150.5003  138.7282  154.3436 C   0  0  0  0  0  0  0  0  0  0  0  0
  149.4494  138.5424  153.4962 N   0  3  0  0  0  0  0  0  0  0  0  0
  148.5779  139.6291  153.5786 C   0  0  0  0  0  0  0  0  0  0  0  0
  147.3834  139.8906  152.9142 C   0  0  0  0  0  0  0  0  0  0  0  0
  146.7352  141.1022  153.2315 C   0  0  0  0  0  0  0  0  0  0  0  0
  147.2756  141.9984  154.1765 C   0  0  0  0  0  0  0  0  0  0  0  0
  148.4872  141.7223  154.8437 C   0  0  0  0  0  0  0  0  0  0  0  0
  149.1236  140.5229  154.5233 C   0  0  0  0  0  0  0  0  0  0  0  0
  150.3092  139.9253  154.9687 N   0  0  0  0  0  0  0  0  0  0  0  0
  151.1449  140.6098  155.9683 C   0  0  0  0  0  0  0  0  0  0  0  0
  151.2616  139.8239  157.2896 C   0  0  2  0  0  0  0  0  0  0  0  0
  150.0023  139.2935  157.6505 O   0  0  0  0  0  0  0  0  0  0  0  0
  151.7776  140.6934  158.4452 C   0  0  0  0  0  0  0  0  0  0  0  0
  152.3297  141.8881  157.9079 O   0  0  0  0  0  0  0  0  0  0  0  0
  152.2108  143.0496  158.6401 C   0  0  0  0  0  0  0  0  0  0  0  0
  152.1559  142.9181  160.0434 C   0  0  0  0  0  0  0  0  0  0  0  0
  152.0356  144.0518  160.8697 C   0  0  0  0  0  0  0  0  0  0  0  0
  151.9679  145.3353  160.2972 C   0  0  0  0  0  0  0  0  0  0  0  0
  152.0200  145.4813  158.8986 C   0  0  0  0  0  0  0  0  0  0  0  0
  152.1409  144.3472  158.0719 C   0  0  0  0  0  0  0  0  0  0  0  0
  151.2602  136.6775  153.0031 H   0  0  0  0  0  0  0  0  0  0  0  0
  151.8267  137.6462  155.5966 H   0  0  0  0  0  0  0  0  0  0  0  0
  152.5537  138.2344  154.1134 H   0  0  0  0  0  0  0  0  0  0  0  0
  146.9669  139.2053  152.1906 H   0  0  0  0  0  0  0  0  0  0  0  0
  145.8047  141.3491  152.7410 H   0  0  0  0  0  0  0  0  0  0  0  0
  146.7498  142.9168  154.3950 H   0  0  0  0  0  0  0  0  0  0  0  0
  148.8882  142.4151  155.5686 H   0  0  0  0  0  0  0  0  0  0  0  0
  152.1322  140.7400  155.5236 H   0  0  0  0  0  0  0  0  0  0  0  0
  150.7593  141.6154  156.1369 H   0  0  0  0  0  0  0  0  0  0  0  0
  151.9405  138.9810  157.1561 H   0  0  0  0  0  0  0  0  0  0  0  0
  149.6290  138.8696  156.8931 H   0  0  0  0  0  0  0  0  0  0  0  0
  150.9650  140.9184  159.1385 H   0  0  0  0  0  0  0  0  0  0  0  0
  152.5515  140.1525  158.9931 H   0  0  0  0  0  0  0  0  0  0  0  0
  152.2071  141.9368  160.4920 H   0  0  0  0  0  0  0  0  0  0  0  0
  151.9953  143.9361  161.9427 H   0  0  0  0  0  0  0  0  0  0  0  0
  151.8760  146.2063  160.9296 H   0  0  0  0  0  0  0  0  0  0  0  0
  151.9671  146.4659  158.4578 H   0  0  0  0  0  0  0  0  0  0  0  0
  152.1768  144.5003  157.0039 H   0  0  0  0  0  0  0  0  0  0  0  0
  149.3430  137.7307  152.9013 H   0  0  0  0  0  0  0  0  0  0  0  0
  1  2  1  0  0  0  0
  1 23  1  0  0  0  0
  2  3  1  0  0  0  0
  2 24  1  0  0  0  0
  2 25  1  0  0  0  0
  3 11  1  0  0  0  0
  3  4  2  0  0  0  0
  4  5  1  0  0  0  0
  4 41  1  0  0  0  0
  5 10  2  0  0  0  0
  5  6  1  0  0  0  0
  6  7  2  0  0  0  0
  6 26  1  0  0  0  0
  7  8  1  0  0  0  0
  7 27  1  0  0  0  0
  8  9  2  0  0  0  0
  8 28  1  0  0  0  0
  9 10  1  0  0  0  0
  9 29  1  0  0  0  0
 10 11  1  0  0  0  0
 11 12  1  0  0  0  0
 12 13  1  0  0  0  0
 12 30  1  0  0  0  0
 12 31  1  0  0  0  0
 13 14  1  0  0  0  0
 13 15  1  0  0  0  0
 13 32  1  0  0  0  0
 14 33  1  0  0  0  0
 15 16  1  0  0  0  0
 15 34  1  0  0  0  0
 15 35  1  0  0  0  0
 16 17  1  0  0  0  0
 17 22  1  0  0  0  0
 17 18  2  0  0  0  0
 18 19  1  0  0  0  0
 18 36  1  0  0  0  0
 19 20  2  0  0  0  0
 19 37  1  0  0  0  0
 20 21  1  0  0  0  0
 20 38  1  0  0  0  0
 21 22  2  0  0  0  0
 21 39  1  0  0  0  0
 22 40  1  0  0  0  0
M  CHG  1   4   1
M  END
> <s_m_source_file>
AV-unprocessed.smi

> <i_m_source_file_index>
2623

> <i_lp_mmshare_version>
43012

> <i_f3d_flags>
0

> <s_epik_input>
W2NIXTFbY0hdW2NIXVtjSF1jKGMxMiluKGMobjIpW0NIMl1bT0hdKVtDSDJdW0NASF0oW09IXSlbQ0gyXU9jM1tjSF1bY0hdW2NIXVtjSF1bY0hdMw==

> <s_epik_cmdline>
J2VwaWtfcHl0aG9uJywgJy1waCcsICc3LjAnLCAnLXRuJywgJzgnLCAnLW1hJywgJzIwMCcsICctbWV0YWxfYmluZGluZycsICctaW1hZScsICc8aW5maWxlLm1hZT4nLCAnLW9tYWUnLCAnPG91dGZpbGUubWFlPic=

> <r_lp_tautomer_probability>
1

> <r_epik_Ionization_Penalty>
1.40416

> <r_epik_Ionization_Penalty_Charging>
1.4033

> <r_epik_Ionization_Penalty_Neutral>
0.000858184

> <r_epik_State_Penalty>
1.48564

> <r_epik_Charging_Adjusted_Penalty>
2.88894

> <i_epik_Tot_Q>
1

> <i_epik_Tot_abs_Q>
1

> <r_epik_Metal_State_Penalty>
5.52809

> <b_epik_Metal_Only>
0

> <s_lp_Force_Field>
OPLS_2005

> <r_lp_Energy>
17.9205

> <b_lp_Chiralities_Consistent>
1

> <s_lp_Variant>
AV-unprocessed.smi:2623-3

> <Gold.Version>
5.8.1

> <Gold.Id.Protein>
6NUR|6NUR_protein|mol2

> <Gold.PLP.Fitness>
62.2084

> <Gold.PLP.PLP>
-53.0630

> <Gold.PLP.part.hbond>
-4.4693

> <Gold.PLP.part.metal>
0.0000

> <Gold.PLP.part.buried>
2.7942

> <Gold.PLP.part.nonpolar>
-51.2606

> <Gold.PLP.part.repulsive>
0.0692

> <Gold.PLP.ligand.clash>
0.0000

> <Gold.PLP.ligand.torsion>
1.4882

> <Gold.PLP.Chemscore.Hbond>
4.0000

> <Gold.PLP.Chemscore.CHOScore>
0.0000

> <Gold.PLP.Chemscore.Metal>
0.0000

> <Gold.Chemscore.Hbonds>
donor molecule, donor type, donor heavy atom, donor atom, acceptor molecule, acceptor atom, score
      L1  H     1    23       P1  7949  0.93
      L1  H     4    41       P1  7948  2.00
      P1  H 10752 10764       L1     1  1.00

> <Gold.PLP.Chemscore.Internal.Correction>
0.1216

> <Gold.Rescore>
     Score         DG    S(hbond)    S(metal)    S(lipo)     H(rot)  DE(clash)    DE(int)     intcor
     17.71     -21.33       2.21        0.00     140.79       3.13       2.34       1.28       ----

> <Gold.Chemscore.Fitness>
17.7141

> <Gold.Chemscore.DG>
-21.3340

> <Gold.Chemscore.ZeroCoef>
-5.4800

> <Gold.Chemscore.Hbond>
2.2141

> <Gold.Chemscore.Metal>
0.0000

> <Gold.Chemscore.Lipo>
140.7944

> <Gold.Chemscore.Internal_Hbond>
0.0000

> <Gold.Chemscore.DEClash>
2.3398

> <Gold.Chemscore.DEInternal>
1.2801

> <Gold.Chemscore.Rot>
3.1305

> <Gold.Chemscore.Internal.Correction>
   9.000000E+99

> <Gold.Chemscore.Hbonds>
donor molecule, donor type, donor heavy atom, donor atom, acceptor molecule, acceptor atom, score
      L1  H     1    23       P1  7949  0.58
      L1  H     4    41       P1  7948  0.94
      P1  H 10752 10764       L1     1  0.33

> <Gold.Chemscore.Hbond.Weighted>
-7.3951

> <Gold.Chemscore.Metal.Weighted>
-0.0000

> <Gold.Chemscore.Lipo.Weighted>
-16.4729

> <Gold.Chemscore.Internal_Hbond.Weighted>
0.0000

> <Gold.Chemscore.DEClash.Weighted>
2.3398

> <Gold.Chemscore.DEInternal.Weighted>
1.2801

> <Gold.Chemscore.Rot.Weighted>
8.0141

> <Gold.Chemscore.Internal.Correction.Weighted>
   9.000000E+99

> <Gold.Protein.RotatedTorsions>
[ 6907 6896 6895 6894 ] final   25.84 input  -60.11 | X-H torsion
[ 7974 7965 7964 7962 ] final  -92.86 input  175.53 | X-H torsion
[ 8008 7997 7996 7995 ] final  -48.92 input   59.86 | X-H torsion
[ 10167 10162 10161 10158 ] final  117.27 input  -65.29 | X-H torsion
[ 10718 10713 10712 10709 ] final  -55.44 input   66.30 | X-H torsion
[ 10763 10752 10751 10750 ] final  -70.62 input  -60.55 | X-H torsion
[ 11005 11000 10999 10996 ] final -171.60 input  -57.11 | X-H torsion

> <Gold.Protein.ActiveResidues>
 VAL166  LYS551  ARG553  GLY616  TRP617  ASP618  TYR619  PRO620  LYS621  CYS622 
 ASP623  PHE694  ASN695  SER759  ASP760  ASP761  ALA762  ILE779  LEU786  VAL792 
 PHE793  MET794  SER795  GLU796  ALA797  LYS798  CYS799  TRP800  GLU811  SER814 

> <Gold.Protein.RotatedAtoms>
  151.9785  135.0041  160.0556 H   0  0  0  0  0  0  0  0  0  0  0  0  # atno 6907 bound_to 6896
  152.1718  133.4644  159.4921 H   0  0  0  0  0  0  0  0  0  0  0  0  # atno 6908 bound_to 6896
  150.6903  134.1861  159.4310 H   0  0  0  0  0  0  0  0  0  0  0  0  # atno 6909 bound_to 6896
  145.3942  140.9531  143.2323 H   0  0  0  0  0  0  0  0  0  0  0  0  # atno 7974 bound_to 7965
  154.4036  140.1309  156.4419 H   0  0  0  0  0  0  0  0  0  0  0  0  # atno 8008 bound_to 7997
  155.7451  140.3489  155.5103 H   0  0  0  0  0  0  0  0  0  0  0  0  # atno 8009 bound_to 7997
  155.9002  140.1018  157.1345 H   0  0  0  0  0  0  0  0  0  0  0  0  # atno 8010 bound_to 7997
  139.6190  144.7097  151.2676 H   0  0  0  0  0  0  0  0  0  0  0  0  # atno 10167 bound_to 10162
  156.1369  130.4156  150.0171 H   0  0  0  0  0  0  0  0  0  0  0  0  # atno 10718 bound_to 10713
  154.4202  135.5988  153.6005 H   0  0  0  0  0  0  0  0  0  0  0  0  # atno 10763 bound_to 10752
  152.9793  135.5950  154.3964 H   0  0  0  0  0  0  0  0  0  0  0  0  # atno 10764 bound_to 10752
  154.3789  135.2841  155.2201 H   0  0  0  0  0  0  0  0  0  0  0  0  # atno 10765 bound_to 10752
  140.5064  134.5843  157.5005 H   0  0  0  0  0  0  0  0  0  0  0  0  # atno 11005 bound_to 11000
  144.8419  139.5458  143.6896 LP  0  0  0  0  0  0  0  0  0  0  0  0  # atno 17320 bound_to 7965
  146.2783  139.6810  142.9247 LP  0  0  0  0  0  0  0  0  0  0  0  0  # atno 17321 bound_to 7965
  140.7370  143.6692  150.8096 LP  0  0  0  0  0  0  0  0  0  0  0  0  # atno 17342 bound_to 10162
  140.0299  143.5454  152.2764 LP  0  0  0  0  0  0  0  0  0  0  0  0  # atno 17343 bound_to 10162
  156.8067  130.9310  151.3645 LP  0  0  0  0  0  0  0  0  0  0  0  0  # atno 17370 bound_to 10713
  157.6540  130.8908  149.9691 LP  0  0  0  0  0  0  0  0  0  0  0  0  # atno 17371 bound_to 10713
  139.9683  134.7335  156.0092 LP  0  0  0  0  0  0  0  0  0  0  0  0  # atno 17394 bound_to 11000
  141.1408  133.6565  156.3725 LP  0  0  0  0  0  0  0  0  0  0  0  0  # atno 17395 bound_to 11000

$$$$
