AV-unprocessed.smi:3293|AV-procd|sdf|12632|dock5
  -GOLD-   2272018573D 1   1.00000     0.00000
 Structure written by MMmdl.
 44 45  0  0  0  0  0  0  0  0  2 V2000
  154.1514  140.5890  160.5826 C   0  0  0  0  0  0  0  0  0  0  0  0
  153.3439  141.8764  160.6051 C   0  0  0  0  0  0  0  0  0  0  0  0
  153.1312  142.5374  161.7601 C   0  0  0  0  0  0  0  0  0  0  0  0
  152.3907  143.8581  161.8799 C   0  0  0  0  0  0  0  0  0  0  0  0
  151.7388  144.3096  160.5622 C   0  0  0  0  0  0  0  0  0  0  0  0
  152.6086  143.9460  159.3462 C   0  0  2  0  0  0  0  0  0  0  0  0
  152.0854  144.5866  158.0490 C   0  0  0  0  0  0  0  0  0  0  0  0
  152.8323  142.4095  159.2603 C   0  0  2  0  0  0  0  0  0  0  0  0
  151.5793  141.6422  158.7621 C   0  0  0  0  0  0  0  0  0  0  0  0
  151.3746  141.7560  157.3047 N   0  3  0  0  0  0  0  0  0  0  0  0
  149.9599  141.7015  156.8887 C   0  0  0  0  0  0  0  0  0  0  0  0
  149.7940  140.8834  155.6017 C   0  0  0  0  0  0  0  0  0  0  0  0
  148.5536  141.2824  154.8525 C   0  0  0  0  0  0  0  0  0  0  0  0
  148.0114  140.6878  153.6772 C   0  0  0  0  0  0  0  0  0  0  0  0
  146.8992  141.2762  153.2691 N   0  0  0  0  0  0  0  0  0  0  0  0
  146.6942  142.2652  154.1630 N   0  0  0  0  0  0  0  0  0  0  0  0
  145.5430  143.1308  154.0190 C   0  0  0  0  0  0  0  0  0  0  0  0
  147.6759  142.2928  155.1298 C   0  0  0  0  0  0  0  0  0  0  0  0
  154.9106  140.6265  159.8011 H   0  0  0  0  0  0  0  0  0  0  0  0
  153.5161  139.7217  160.4124 H   0  0  0  0  0  0  0  0  0  0  0  0
  154.6644  140.4326  161.5323 H   0  0  0  0  0  0  0  0  0  0  0  0
  153.5303  142.1415  162.6827 H   0  0  0  0  0  0  0  0  0  0  0  0
  151.6380  143.7842  162.6651 H   0  0  0  0  0  0  0  0  0  0  0  0
  153.1130  144.6071  162.2064 H   0  0  0  0  0  0  0  0  0  0  0  0
  150.7553  143.8499  160.4625 H   0  0  0  0  0  0  0  0  0  0  0  0
  151.5643  145.3856  160.5982 H   0  0  0  0  0  0  0  0  0  0  0  0
  153.5897  144.3933  159.5172 H   0  0  0  0  0  0  0  0  0  0  0  0
  151.0453  144.3258  157.8542 H   0  0  0  0  0  0  0  0  0  0  0  0
  152.6807  144.2797  157.1886 H   0  0  0  0  0  0  0  0  0  0  0  0
  152.1353  145.6743  158.1089 H   0  0  0  0  0  0  0  0  0  0  0  0
  153.6288  142.2544  158.5307 H   0  0  0  0  0  0  0  0  0  0  0  0
  151.6507  140.5870  159.0284 H   0  0  0  0  0  0  0  0  0  0  0  0
  150.6788  142.0297  159.2367 H   0  0  0  0  0  0  0  0  0  0  0  0
  151.7671  142.6332  156.9941 H   0  0  0  0  0  0  0  0  0  0  0  0
  149.3660  141.2608  157.6910 H   0  0  0  0  0  0  0  0  0  0  0  0
  149.5926  142.7171  156.7347 H   0  0  0  0  0  0  0  0  0  0  0  0
  150.6763  141.0147  154.9739 H   0  0  0  0  0  0  0  0  0  0  0  0
  149.7623  139.8216  155.8501 H   0  0  0  0  0  0  0  0  0  0  0  0
  148.3905  139.8484  153.1127 H   0  0  0  0  0  0  0  0  0  0  0  0
  145.5391  143.8827  154.8087 H   0  0  0  0  0  0  0  0  0  0  0  0
  144.6274  142.5423  154.0859 H   0  0  0  0  0  0  0  0  0  0  0  0
  145.5773  143.6339  153.0521 H   0  0  0  0  0  0  0  0  0  0  0  0
  147.6681  143.0212  155.9274 H   0  0  0  0  0  0  0  0  0  0  0  0
  151.8717  141.0017  156.8526 H   0  0  0  0  0  0  0  0  0  0  0  0
  1  2  1  0  0  0  0
  1 19  1  0  0  0  0
  1 20  1  0  0  0  0
  1 21  1  0  0  0  0
  2  8  1  0  0  0  0
  2  3  2  0  0  0  0
  3  4  1  0  0  0  0
  3 22  1  0  0  0  0
  4  5  1  0  0  0  0
  4 23  1  0  0  0  0
  4 24  1  0  0  0  0
  5  6  1  0  0  0  0
  5 25  1  0  0  0  0
  5 26  1  0  0  0  0
  6  7  1  0  0  0  0
  6  8  1  0  0  0  0
  6 27  1  0  0  0  0
  7 28  1  0  0  0  0
  7 29  1  0  0  0  0
  7 30  1  0  0  0  0
  8  9  1  0  0  0  0
  8 31  1  0  0  0  0
  9 10  1  0  0  0  0
  9 32  1  0  0  0  0
  9 33  1  0  0  0  0
 10 11  1  0  0  0  0
 10 34  1  0  0  0  0
 10 44  1  0  0  0  0
 11 12  1  0  0  0  0
 11 35  1  0  0  0  0
 11 36  1  0  0  0  0
 12 13  1  0  0  0  0
 12 37  1  0  0  0  0
 12 38  1  0  0  0  0
 13 18  2  0  0  0  0
 13 14  1  0  0  0  0
 14 15  2  0  0  0  0
 14 39  1  0  0  0  0
 15 16  1  0  0  0  0
 16 17  1  0  0  0  0
 16 18  1  0  0  0  0
 17 40  1  0  0  0  0
 17 41  1  0  0  0  0
 17 42  1  0  0  0  0
 18 43  1  0  0  0  0
M  CHG  1  10   1
M  END
> <s_m_source_file>
AV-unprocessed.smi

> <i_m_source_file_index>
3293

> <i_lp_mmshare_version>
43012

> <i_f3d_flags>
0

> <s_epik_input>
W0NIM11DMT1bQ0hdW0NIMl1bQ0gyXVtDQEBIXShbQ0gzXSlbQ0BIXTFbQ0gyXVtOSF1bQ0gyXVtDSDJdYzJbY0hdbm4oW0NIM10pW2NIXTI=

> <s_epik_cmdline>
J2VwaWtfcHl0aG9uJywgJy1waCcsICc3LjAnLCAnLXRuJywgJzgnLCAnLW1hJywgJzIwMCcsICctbWV0YWxfYmluZGluZycsICctaW1hZScsICc8aW5maWxlLm1hZT4nLCAnLW9tYWUnLCAnPG91dGZpbGUubWFlPic=

> <r_lp_tautomer_probability>
1

> <r_epik_Ionization_Penalty>
0.000598621

> <r_epik_Ionization_Penalty_Charging>
0.000582095

> <r_epik_Ionization_Penalty_Neutral>
1.65262e-05

> <r_epik_State_Penalty>
-0

> <r_epik_Charging_Adjusted_Penalty>
0.000582095

> <i_epik_Tot_Q>
1

> <i_epik_Tot_abs_Q>
1

> <r_epik_Metal_State_Penalty>
-0

> <b_epik_Metal_Only>
0

> <s_lp_Force_Field>
OPLS_2005

> <r_lp_Energy>
11.2905

> <b_lp_Chiralities_Consistent>
1

> <s_lp_Variant>
AV-unprocessed.smi:3293-4

> <Gold.Version>
5.8.1

> <Gold.Id.Protein>
6NUR|6NUR_protein|mol2

> <Gold.PLP.Fitness>
52.3044

> <Gold.PLP.PLP>
-49.0244

> <Gold.PLP.part.hbond>
0.0000

> <Gold.PLP.part.metal>
0.0000

> <Gold.PLP.part.buried>
-0.4426

> <Gold.PLP.part.nonpolar>
-48.5908

> <Gold.PLP.part.repulsive>
0.2665

> <Gold.PLP.ligand.clash>
0.0000

> <Gold.PLP.ligand.torsion>
0.8089

> <Gold.PLP.Chemscore.Hbond>
0.0000

> <Gold.PLP.Chemscore.CHOScore>
1.6252

> <Gold.PLP.Chemscore.Metal>
0.0000

> <Gold.Chemscore.Hbonds>
donor molecule, donor type, donor heavy atom, donor atom, acceptor molecule, acceptor atom, score
      L1  C    14    39       P1  7957  0.89
      L1  C    18    43       P1  8028  0.74

> <Gold.PLP.Chemscore.Internal.Correction>
0.0222

> <Gold.Rescore>
     Score         DG    S(hbond)    S(metal)    S(lipo)     H(rot)  DE(clash)    DE(int)     intcor
     16.66     -18.07       0.00        0.00     140.09       1.48       0.50       0.91       ----

> <Gold.Chemscore.Fitness>
16.6595

> <Gold.Chemscore.DG>
-18.0701

> <Gold.Chemscore.ZeroCoef>
-5.4800

> <Gold.Chemscore.Hbond>
0.0000

> <Gold.Chemscore.Metal>
0.0000

> <Gold.Chemscore.Lipo>
140.0929

> <Gold.Chemscore.Internal_Hbond>
0.0000

> <Gold.Chemscore.DEClash>
0.5030

> <Gold.Chemscore.DEInternal>
0.9076

> <Gold.Chemscore.Rot>
1.4847

> <Gold.Chemscore.Internal.Correction>
   9.000000E+99

> <Gold.Chemscore.Hbond.Weighted>
-0.0000

> <Gold.Chemscore.Metal.Weighted>
-0.0000

> <Gold.Chemscore.Lipo.Weighted>
-16.3909

> <Gold.Chemscore.Internal_Hbond.Weighted>
0.0000

> <Gold.Chemscore.DEClash.Weighted>
0.5030

> <Gold.Chemscore.DEInternal.Weighted>
0.9076

> <Gold.Chemscore.Rot.Weighted>
3.8008

> <Gold.Chemscore.Internal.Correction.Weighted>
   9.000000E+99

> <Gold.Protein.RotatedTorsions>
[ 6907 6896 6895 6894 ] final   75.19 input  -60.11 | X-H torsion
[ 7974 7965 7964 7962 ] final  -92.75 input  175.53 | X-H torsion
[ 8008 7997 7996 7995 ] final  -54.08 input   59.86 | X-H torsion
[ 10167 10162 10161 10158 ] final   88.03 input  -65.29 | X-H torsion
[ 10718 10713 10712 10709 ] final -142.38 input   66.30 | X-H torsion
[ 10763 10752 10751 10750 ] final  -67.68 input  -60.55 | X-H torsion
[ 11005 11000 10999 10996 ] final  107.83 input  -57.11 | X-H torsion

> <Gold.Protein.ActiveResidues>
 VAL166  LYS551  ARG553  GLY616  TRP617  ASP618  TYR619  PRO620  LYS621  CYS622 
 ASP623  PHE694  ASN695  SER759  ASP760  ASP761  ALA762  ILE779  LEU786  VAL792 
 PHE793  MET794  SER795  GLU796  ALA797  LYS798  CYS799  TRP800  GLU811  SER814 

> <Gold.Protein.RotatedAtoms>
  152.5013  134.4158  159.9463 H   0  0  0  0  0  0  0  0  0  0  0  0  # atno 6907 bound_to 6896
  151.4128  133.3716  159.2754 H   0  0  0  0  0  0  0  0  0  0  0  0  # atno 6908 bound_to 6896
  150.9279  134.8717  159.7591 H   0  0  0  0  0  0  0  0  0  0  0  0  # atno 6909 bound_to 6896
  145.3956  140.9532  143.2316 H   0  0  0  0  0  0  0  0  0  0  0  0  # atno 7974 bound_to 7965
  154.4152  140.1185  156.5258 H   0  0  0  0  0  0  0  0  0  0  0  0  # atno 8008 bound_to 7997
  155.6656  140.3496  155.4780 H   0  0  0  0  0  0  0  0  0  0  0  0  # atno 8009 bound_to 7997
  155.9676  140.1135  157.0830 H   0  0  0  0  0  0  0  0  0  0  0  0  # atno 8010 bound_to 7997
  139.8713  144.6491  150.8946 H   0  0  0  0  0  0  0  0  0  0  0  0  # atno 10167 bound_to 10162
  156.3452  130.7659  151.1802 H   0  0  0  0  0  0  0  0  0  0  0  0  # atno 10718 bound_to 10713
  154.3781  135.6080  153.5776 H   0  0  0  0  0  0  0  0  0  0  0  0  # atno 10763 bound_to 10752
  152.9788  135.5854  154.4443 H   0  0  0  0  0  0  0  0  0  0  0  0  # atno 10764 bound_to 10752
  154.4208  135.2846  155.1954 H   0  0  0  0  0  0  0  0  0  0  0  0  # atno 10765 bound_to 10752
  139.8834  134.9412  156.5879 H   0  0  0  0  0  0  0  0  0  0  0  0  # atno 11005 bound_to 11000
  144.8409  139.5473  143.6900 LP  0  0  0  0  0  0  0  0  0  0  0  0  # atno 17320 bound_to 7965
  146.2776  139.6794  142.9252 LP  0  0  0  0  0  0  0  0  0  0  0  0  # atno 17321 bound_to 7965
  140.7760  143.3661  151.1736 LP  0  0  0  0  0  0  0  0  0  0  0  0  # atno 17342 bound_to 10162
  139.7281  143.9116  152.3010 LP  0  0  0  0  0  0  0  0  0  0  0  0  # atno 17343 bound_to 10162
  157.7453  131.0443  150.4787 LP  0  0  0  0  0  0  0  0  0  0  0  0  # atno 17370 bound_to 10713
  156.4973  130.4109  149.6373 LP  0  0  0  0  0  0  0  0  0  0  0  0  # atno 17371 bound_to 10713
  140.7977  133.8530  155.8700 LP  0  0  0  0  0  0  0  0  0  0  0  0  # atno 17394 bound_to 11000
  140.9620  134.1643  157.4646 LP  0  0  0  0  0  0  0  0  0  0  0  0  # atno 17395 bound_to 11000

$$$$
