AV-unprocessed.smi:44|AV-procd|sdf|395|dock10
  -GOLD-   2262016253D 1   1.00000     0.00000
 Structure written by MMmdl.
 29 31  0  0  0  0  0  0  0  0  1 V2000
  149.8146  145.7090  160.4718 O   0  0  0  0  0  0  0  0  0  0  0  0
  150.3831  144.8590  159.7896 C   0  0  0  0  0  0  0  0  0  0  0  0
  150.1119  144.6415  158.4796 N   0  0  0  0  0  0  0  0  0  0  0  0
  150.7637  143.6632  157.6874 C   0  0  0  0  0  0  0  0  0  0  0  0
  151.6973  142.8528  158.1143 N   0  0  0  0  0  0  0  0  0  0  0  0
  151.9940  143.0515  159.4479 C   0  0  0  0  0  0  0  0  0  0  0  0
  151.4394  143.9596  160.3103 C   0  0  0  0  0  0  0  0  0  0  0  0
  152.0009  143.8645  161.5773 N   0  0  0  0  0  0  0  0  0  0  0  0
  152.8875  142.8837  161.4202 C   0  0  0  0  0  0  0  0  0  0  0  0
  152.9417  142.3452  160.1864 N   0  0  0  0  0  0  0  0  0  0  0  0
  153.8438  141.2391  159.7424 C   0  0  1  0  0  0  0  0  0  0  0  0
  154.7420  140.7627  160.8920 C   0  0  0  0  0  0  0  0  0  0  0  0
  154.2581  139.3446  161.1289 C   0  0  0  0  0  0  0  0  0  0  0  0
  153.6754  138.9557  159.7719 C   0  0  1  0  0  0  0  0  0  0  0  0
  152.6463  137.8189  159.8548 C   0  0  0  0  0  0  0  0  0  0  0  0
  153.2919  136.6020  160.1627 O   0  0  0  0  0  0  0  0  0  0  0  0
  153.0492  140.1612  159.3539 O   0  0  0  0  0  0  0  0  0  0  0  0
  149.4013  145.2153  158.0491 H   0  0  0  0  0  0  0  0  0  0  0  0
  154.4032  141.6417  158.8968 H   0  0  0  0  0  0  0  0  0  0  0  0
  154.4891  138.7055  159.0880 H   0  0  0  0  0  0  0  0  0  0  0  0
  150.4065  143.6442  156.6568 H   0  0  0  0  0  0  0  0  0  0  0  0
  153.5161  142.5439  162.2300 H   0  0  0  0  0  0  0  0  0  0  0  0
  155.7776  140.7687  160.5498 H   0  0  0  0  0  0  0  0  0  0  0  0
  154.6586  141.3984  161.7748 H   0  0  0  0  0  0  0  0  0  0  0  0
  155.0539  138.6745  161.4547 H   0  0  0  0  0  0  0  0  0  0  0  0
  153.4810  139.3388  161.8938 H   0  0  0  0  0  0  0  0  0  0  0  0
  151.9303  138.0195  160.6523 H   0  0  0  0  0  0  0  0  0  0  0  0
  152.0810  137.7276  158.9265 H   0  0  0  0  0  0  0  0  0  0  0  0
  154.1540  136.7947  160.4979 H   0  0  0  0  0  0  0  0  0  0  0  0
  1  2  2  0  0  0  0
  2  7  1  0  0  0  0
  2  3  1  0  0  0  0
  3 18  1  0  0  0  0
  3  4  1  0  0  0  0
  4  5  2  0  0  0  0
  4 21  1  0  0  0  0
  5  6  1  0  0  0  0
  6 10  1  0  0  0  0
  6  7  2  0  0  0  0
  7  8  1  0  0  0  0
  8  9  2  0  0  0  0
  9 10  1  0  0  0  0
  9 22  1  0  0  0  0
 10 11  1  0  0  0  0
 11 19  1  0  0  0  0
 11 17  1  0  0  0  0
 11 12  1  0  0  0  0
 12 13  1  0  0  0  0
 12 23  1  0  0  0  0
 12 24  1  0  0  0  0
 13 14  1  0  0  0  0
 13 25  1  0  0  0  0
 13 26  1  0  0  0  0
 14 20  1  0  0  0  0
 14 15  1  0  0  0  0
 14 17  1  0  0  0  0
 15 16  1  0  0  0  0
 15 27  1  0  0  0  0
 15 28  1  0  0  0  0
 16 29  1  0  0  0  0
M  END
> <s_m_source_file>
AV-unprocessed.smi

> <i_m_source_file_index>
44

> <i_lp_mmshare_version>
43012

> <i_f3d_flags>
0

> <s_epik_input>
bjFbY0hdW25IXWMoPU8pYyhjMTIpbltjSF1uMltDQEhdM1tDSDJdW0NIMl1bQ0BIXShPMylbQ0gyXVtPSF0=

> <s_epik_cmdline>
J2VwaWtfcHl0aG9uJywgJy1waCcsICc3LjAnLCAnLXRuJywgJzgnLCAnLW1hJywgJzIwMCcsICctbWV0YWxfYmluZGluZycsICctaW1hZScsICc8aW5maWxlLm1hZT4nLCAnLW9tYWUnLCAnPG91dGZpbGUubWFlPic=

> <r_lp_tautomer_probability>
0.85571

> <r_epik_Ionization_Penalty>
0.00801444

> <r_epik_Ionization_Penalty_Charging>
0.00794574

> <r_epik_Ionization_Penalty_Neutral>
6.87072e-05

> <r_epik_State_Penalty>
0.0826172

> <r_epik_Charging_Adjusted_Penalty>
0.090563

> <i_epik_Tot_Q>
0

> <i_epik_Tot_abs_Q>
0

> <r_epik_Metal_State_Penalty>
0.440697

> <b_epik_Metal_Only>
0

> <s_epik_Chemistry_Notes>
This compound contains an acetal/aminal-like group ( X-CH(R)-Y where X, Y are N, S, or O) that may be acid/base labile, releasing an aldehyde.

> <s_lp_Force_Field>
OPLS_2005

> <r_lp_Energy>
43.2881

> <b_lp_Chiralities_Consistent>
1

> <s_lp_Variant>
AV-unprocessed.smi:44-1

> <Gold.Version>
5.8.1

> <Gold.Id.Protein>
6NUR|6NUR_protein|mol2

> <Gold.PLP.Fitness>
42.6369

> <Gold.PLP.PLP>
-34.3417

> <Gold.PLP.part.hbond>
-3.7893

> <Gold.PLP.part.metal>
0.0000

> <Gold.PLP.part.buried>
-3.1446

> <Gold.PLP.part.nonpolar>
-28.2095

> <Gold.PLP.part.repulsive>
1.0806

> <Gold.PLP.ligand.clash>
0.0000

> <Gold.PLP.ligand.torsion>
0.0411

> <Gold.PLP.Chemscore.Hbond>
1.8500

> <Gold.PLP.Chemscore.CHOScore>
0.9379

> <Gold.PLP.Chemscore.Metal>
0.0000

> <Gold.Chemscore.Hbonds>
donor molecule, donor type, donor heavy atom, donor atom, acceptor molecule, acceptor atom, score
      L1  H     3    18       P1  8029  1.00
      P1  H  6896  6907       L1    16  1.00
      L1  C     4    21       P1  8028  1.00

> <Gold.PLP.Chemscore.Internal.Correction>
0.0139

> <Gold.Rescore>
     Score         DG    S(hbond)    S(metal)    S(lipo)     H(rot)  DE(clash)    DE(int)     intcor
      8.42     -10.21       1.86        0.00      36.95       2.27       1.75       0.05       ----

> <Gold.Chemscore.Fitness>
8.4170

> <Gold.Chemscore.DG>
-10.2138

> <Gold.Chemscore.ZeroCoef>
-5.4800

> <Gold.Chemscore.Hbond>
1.8643

> <Gold.Chemscore.Metal>
0.0000

> <Gold.Chemscore.Lipo>
36.9515

> <Gold.Chemscore.Internal_Hbond>
0.0000

> <Gold.Chemscore.DEClash>
1.7482

> <Gold.Chemscore.DEInternal>
0.0486

> <Gold.Chemscore.Rot>
2.2720

> <Gold.Chemscore.Internal.Correction>
   9.000000E+99

> <Gold.Chemscore.Hbonds>
donor molecule, donor type, donor heavy atom, donor atom, acceptor molecule, acceptor atom, score
      L1  H     3    18       P1  8029  0.30
      P1  H  6896  6907       L1    16  0.86

> <Gold.Chemscore.Hbond.Weighted>
-6.2269

> <Gold.Chemscore.Metal.Weighted>
-0.0000

> <Gold.Chemscore.Lipo.Weighted>
-4.3233

> <Gold.Chemscore.Internal_Hbond.Weighted>
0.0000

> <Gold.Chemscore.DEClash.Weighted>
1.7482

> <Gold.Chemscore.DEInternal.Weighted>
0.0486

> <Gold.Chemscore.Rot.Weighted>
5.8164

> <Gold.Chemscore.Internal.Correction.Weighted>
   9.000000E+99

> <Gold.Protein.RotatedTorsions>
[ 6907 6896 6895 6894 ] final   32.84 input  -60.11 | X-H torsion
[ 7974 7965 7964 7962 ] final   44.98 input  175.53 | X-H torsion
[ 8008 7997 7996 7995 ] final  159.11 input   59.86 | X-H torsion
[ 10167 10162 10161 10158 ] final -148.31 input  -65.29 | X-H torsion
[ 10718 10713 10712 10709 ] final  123.92 input   66.30 | X-H torsion
[ 10763 10752 10751 10750 ] final  -17.95 input  -60.55 | X-H torsion
[ 11005 11000 10999 10996 ] final    4.76 input  -57.11 | X-H torsion

> <Gold.Protein.ActiveResidues>
 VAL166  LYS551  ARG553  GLY616  TRP617  ASP618  TYR619  PRO620  LYS621  CYS622 
 ASP623  PHE694  ASN695  SER759  ASP760  ASP761  ALA762  ILE779  LEU786  VAL792 
 PHE793  MET794  SER795  GLU796  ALA797  LYS798  CYS799  TRP800  GLU811  SER814 

> <Gold.Protein.RotatedAtoms>
  152.0801  134.9476  160.0573 H   0  0  0  0  0  0  0  0  0  0  0  0  # atno 6907 bound_to 6896
  152.0768  133.4128  159.4492 H   0  0  0  0  0  0  0  0  0  0  0  0  # atno 6908 bound_to 6896
  150.6836  134.2948  159.4725 H   0  0  0  0  0  0  0  0  0  0  0  0  # atno 6909 bound_to 6896
  146.0521  139.5015  142.9712 H   0  0  0  0  0  0  0  0  0  0  0  0  # atno 7974 bound_to 7965
  156.2260  140.1840  156.7362 H   0  0  0  0  0  0  0  0  0  0  0  0  # atno 8008 bound_to 7997
  154.5942  140.0646  156.9308 H   0  0  0  0  0  0  0  0  0  0  0  0  # atno 8009 bound_to 7997
  155.2285  140.3313  155.4309 H   0  0  0  0  0  0  0  0  0  0  0  0  # atno 8010 bound_to 7997
  139.7543  143.8471  152.2593 H   0  0  0  0  0  0  0  0  0  0  0  0  # atno 10167 bound_to 10162
  157.5626  131.1088  150.8511 H   0  0  0  0  0  0  0  0  0  0  0  0  # atno 10718 bound_to 10713
  153.5817  135.7005  153.5460 H   0  0  0  0  0  0  0  0  0  0  0  0  # atno 10763 bound_to 10752
  153.3255  135.4062  155.1452 H   0  0  0  0  0  0  0  0  0  0  0  0  # atno 10764 bound_to 10752
  154.8616  135.3706  154.5345 H   0  0  0  0  0  0  0  0  0  0  0  0  # atno 10765 bound_to 10752
  140.5784  134.0036  155.8037 H   0  0  0  0  0  0  0  0  0  0  0  0  # atno 11005 bound_to 11000
  145.6707  141.0217  143.1659 LP  0  0  0  0  0  0  0  0  0  0  0  0  # atno 17320 bound_to 7965
  144.7128  139.8307  143.7409 LP  0  0  0  0  0  0  0  0  0  0  0  0  # atno 17321 bound_to 7965
  139.8458  144.7188  150.9274 LP  0  0  0  0  0  0  0  0  0  0  0  0  # atno 17342 bound_to 10162
  140.7801  143.3942  151.1257 LP  0  0  0  0  0  0  0  0  0  0  0  0  # atno 17343 bound_to 10162
  156.9004  130.5244  149.5283 LP  0  0  0  0  0  0  0  0  0  0  0  0  # atno 17370 bound_to 10713
  156.0677  130.5717  150.9322 LP  0  0  0  0  0  0  0  0  0  0  0  0  # atno 17371 bound_to 10713
  141.1012  133.9765  157.3075 LP  0  0  0  0  0  0  0  0  0  0  0  0  # atno 17394 bound_to 11000
  139.9329  135.0199  156.8460 LP  0  0  0  0  0  0  0  0  0  0  0  0  # atno 17395 bound_to 11000

$$$$
