AV-unprocessed.smi:1433|AV-procd|sdf|5840|dock4
  -GOLD-   22720 5503D 1   1.00000     0.00000
 Structure written by MMmdl.
 44 45  0  0  0  0  0  0  0  0  1 V2000
  148.7290  140.7346  153.8215 C   0  0  0  0  0  0  0  0  0  0  0  0
  149.4563  139.7103  154.6988 C   0  0  1  0  0  0  0  0  0  0  0  0
  148.9597  138.2755  154.4448 C   0  0  0  0  0  0  0  0  0  0  0  0
  149.7009  137.2706  155.2128 N   0  0  0  0  0  0  0  0  0  0  0  0
  149.2127  135.8911  154.9784 C   0  0  1  0  0  0  0  0  0  0  0  0
  149.8162  134.8662  155.9747 C   0  0  0  0  0  0  0  0  0  0  0  0
  147.6638  135.7711  155.0136 C   0  0  0  0  0  0  0  0  0  0  0  0
  147.0863  135.7145  153.6763 N   0  0  0  0  0  0  0  0  0  0  0  0
  145.7738  135.7118  153.4013 C   0  0  0  0  0  0  0  0  0  0  0  0
  144.8991  135.8147  154.2608 O   0  0  0  0  0  0  0  0  0  0  0  0
  145.3885  135.5668  151.9278 C   0  0  0  0  0  0  0  0  0  0  0  0
  145.3013  134.1686  151.5423 N   0  0  0  0  0  0  0  0  0  0  0  0
  144.2283  133.4969  150.9943 C   0  0  0  0  0  0  0  0  0  0  0  0
  144.6094  132.1977  150.8172 C   0  0  0  0  0  0  0  0  0  0  0  0
  145.9504  132.1707  151.2919 C   0  0  0  0  0  0  0  0  0  0  0  0
  146.3622  133.3511  151.7259 N   0  0  0  0  0  0  0  0  0  0  0  0
  151.1260  137.4224  154.8966 C   0  0  0  0  0  0  0  0  0  0  0  0
  151.6592  138.8533  155.1074 C   0  0  2  0  0  0  0  0  0  0  0  0
  151.8279  139.2293  156.5897 C   0  0  0  0  0  0  0  0  0  0  0  0
  150.8471  139.7932  154.4083 O   0  0  0  0  0  0  0  0  0  0  0  0
  147.6557  140.7240  154.0121 H   0  0  0  0  0  0  0  0  0  0  0  0
  148.8829  140.5270  152.7623 H   0  0  0  0  0  0  0  0  0  0  0  0
  149.0912  141.7438  154.0193 H   0  0  0  0  0  0  0  0  0  0  0  0
  149.2861  139.9743  155.7429 H   0  0  0  0  0  0  0  0  0  0  0  0
  147.9047  138.2609  154.7099 H   0  0  0  0  0  0  0  0  0  0  0  0
  149.0235  138.0466  153.3797 H   0  0  0  0  0  0  0  0  0  0  0  0
  149.5308  135.5882  153.9795 H   0  0  0  0  0  0  0  0  0  0  0  0
  149.4160  133.8617  155.8400 H   0  0  0  0  0  0  0  0  0  0  0  0
  149.6199  135.1588  157.0068 H   0  0  0  0  0  0  0  0  0  0  0  0
  150.8927  134.7564  155.8542 H   0  0  0  0  0  0  0  0  0  0  0  0
  147.3759  134.8878  155.5870 H   0  0  0  0  0  0  0  0  0  0  0  0
  147.2010  136.6316  155.4936 H   0  0  0  0  0  0  0  0  0  0  0  0
  147.7311  135.6280  152.9037 H   0  0  0  0  0  0  0  0  0  0  0  0
  144.4234  136.0410  151.7438 H   0  0  0  0  0  0  0  0  0  0  0  0
  146.1223  136.0757  151.3006 H   0  0  0  0  0  0  0  0  0  0  0  0
  143.2931  133.9944  150.7823 H   0  0  0  0  0  0  0  0  0  0  0  0
  144.0196  131.3897  150.4109 H   0  0  0  0  0  0  0  0  0  0  0  0
  146.6320  131.3338  151.3347 H   0  0  0  0  0  0  0  0  0  0  0  0
  151.7335  136.7589  155.5096 H   0  0  0  0  0  0  0  0  0  0  0  0
  151.2979  137.1315  153.8590 H   0  0  0  0  0  0  0  0  0  0  0  0
  152.6486  138.9103  154.6530 H   0  0  0  0  0  0  0  0  0  0  0  0
  152.5501  138.5727  157.0752 H   0  0  0  0  0  0  0  0  0  0  0  0
  150.8928  139.1480  157.1436 H   0  0  0  0  0  0  0  0  0  0  0  0
  152.1906  140.2520  156.6926 H   0  0  0  0  0  0  0  0  0  0  0  0
  1  2  1  0  0  0  0
  1 21  1  0  0  0  0
  1 22  1  0  0  0  0
  1 23  1  0  0  0  0
  2 20  1  0  0  0  0
  2  3  1  0  0  0  0
  2 24  1  0  0  0  0
  3  4  1  0  0  0  0
  3 25  1  0  0  0  0
  3 26  1  0  0  0  0
  4  5  1  0  0  0  0
  4 17  1  0  0  0  0
  5  6  1  0  0  0  0
  5  7  1  0  0  0  0
  5 27  1  0  0  0  0
  6 28  1  0  0  0  0
  6 29  1  0  0  0  0
  6 30  1  0  0  0  0
  7  8  1  0  0  0  0
  7 31  1  0  0  0  0
  7 32  1  0  0  0  0
  8  9  1  0  0  0  0
  8 33  1  0  0  0  0
  9 10  2  0  0  0  0
  9 11  1  0  0  0  0
 11 12  1  0  0  0  0
 11 34  1  0  0  0  0
 11 35  1  0  0  0  0
 12 16  1  0  0  0  0
 12 13  1  0  0  0  0
 13 14  2  0  0  0  0
 13 36  1  0  0  0  0
 14 15  1  0  0  0  0
 14 37  1  0  0  0  0
 15 16  2  0  0  0  0
 15 38  1  0  0  0  0
 17 18  1  0  0  0  0
 17 39  1  0  0  0  0
 17 40  1  0  0  0  0
 18 19  1  0  0  0  0
 18 20  1  0  0  0  0
 18 41  1  0  0  0  0
 19 42  1  0  0  0  0
 19 43  1  0  0  0  0
 19 44  1  0  0  0  0
M  END
> <s_m_source_file>
AV-unprocessed.smi

> <i_m_source_file_index>
1433

> <i_lp_mmshare_version>
43012

> <i_f3d_flags>
0

> <s_epik_input>
W0NIM11bQ0BASF0xW0NIMl1OKFtDSDJdW0NASF0oTzEpW0NIM10pW0NASF0oW0NIM10pW0NIMl1bTkhdQyg9TylbQ0gyXW4yW2NIXVtjSF1bY0hdbjI=

> <s_epik_cmdline>
J2VwaWtfcHl0aG9uJywgJy1waCcsICc3LjAnLCAnLXRuJywgJzgnLCAnLW1hJywgJzIwMCcsICctbWV0YWxfYmluZGluZycsICctaW1hZScsICc8aW5maWxlLm1hZT4nLCAnLW9tYWUnLCAnPG91dGZpbGUubWFlPic=

> <r_lp_tautomer_probability>
1

> <r_epik_Ionization_Penalty>
0.196927

> <r_epik_Ionization_Penalty_Charging>
0

> <r_epik_Ionization_Penalty_Neutral>
0.196927

> <r_epik_State_Penalty>
0.186684

> <r_epik_Charging_Adjusted_Penalty>
0.186684

> <i_epik_Tot_Q>
0

> <i_epik_Tot_abs_Q>
0

> <r_epik_Metal_State_Penalty>
0.186682

> <b_epik_Metal_Only>
0

> <s_lp_Force_Field>
OPLS_2005

> <r_lp_Energy>
30.3055

> <b_lp_Chiralities_Consistent>
1

> <s_lp_Variant>
AV-unprocessed.smi:1433-6

> <Gold.Version>
5.8.1

> <Gold.Id.Protein>
6NUR|6NUR_protein|mol2

> <Gold.PLP.Fitness>
40.7558

> <Gold.PLP.PLP>
-31.0053

> <Gold.PLP.part.hbond>
-1.9378

> <Gold.PLP.part.metal>
0.0000

> <Gold.PLP.part.buried>
-3.2973

> <Gold.PLP.part.nonpolar>
-27.0005

> <Gold.PLP.part.repulsive>
0.4468

> <Gold.PLP.ligand.clash>
0.0000

> <Gold.PLP.ligand.torsion>
1.1496

> <Gold.PLP.Chemscore.Hbond>
2.0000

> <Gold.PLP.Chemscore.CHOScore>
2.0000

> <Gold.PLP.Chemscore.Metal>
0.0000

> <Gold.Chemscore.Hbonds>
donor molecule, donor type, donor heavy atom, donor atom, acceptor molecule, acceptor atom, score
      L1  H     8    33       P1  7948  1.00
      P1  H  7989  7998       L1    20  1.00
      L1  C    13    36       P1 10186  0.76
      L1  C    15    38       P1 10747  0.79

> <Gold.PLP.Chemscore.Internal.Correction>
0.0496

> <Gold.Rescore>
     Score         DG    S(hbond)    S(metal)    S(lipo)     H(rot)  DE(clash)    DE(int)     intcor
     14.88     -16.06       1.94        0.00      74.56       1.80       0.04       1.14       ----

> <Gold.Chemscore.Fitness>
14.8809

> <Gold.Chemscore.DG>
-16.0557

> <Gold.Chemscore.ZeroCoef>
-5.4800

> <Gold.Chemscore.Hbond>
1.9369

> <Gold.Chemscore.Metal>
0.0000

> <Gold.Chemscore.Lipo>
74.5649

> <Gold.Chemscore.Internal_Hbond>
0.0000

> <Gold.Chemscore.DEClash>
0.0354

> <Gold.Chemscore.DEInternal>
1.1394

> <Gold.Chemscore.Rot>
1.8038

> <Gold.Chemscore.Internal.Correction>
   9.000000E+99

> <Gold.Chemscore.Hbonds>
donor molecule, donor type, donor heavy atom, donor atom, acceptor molecule, acceptor atom, score
      L1  H     8    33       P1  7948  0.98
      P1  H  7989  7998       L1    20  0.92

> <Gold.Chemscore.Hbond.Weighted>
-6.4694

> <Gold.Chemscore.Metal.Weighted>
-0.0000

> <Gold.Chemscore.Lipo.Weighted>
-8.7241

> <Gold.Chemscore.Internal_Hbond.Weighted>
0.0000

> <Gold.Chemscore.DEClash.Weighted>
0.0354

> <Gold.Chemscore.DEInternal.Weighted>
1.1394

> <Gold.Chemscore.Rot.Weighted>
4.6178

> <Gold.Chemscore.Internal.Correction.Weighted>
   9.000000E+99

> <Gold.Protein.RotatedTorsions>
[ 6907 6896 6895 6894 ] final  139.25 input  -60.11 | X-H torsion
[ 7974 7965 7964 7962 ] final  -94.82 input  175.53 | X-H torsion
[ 8008 7997 7996 7995 ] final   97.62 input   59.86 | X-H torsion
[ 10167 10162 10161 10158 ] final -140.92 input  -65.29 | X-H torsion
[ 10718 10713 10712 10709 ] final -149.89 input   66.30 | X-H torsion
[ 10763 10752 10751 10750 ] final   62.57 input  -60.55 | X-H torsion
[ 11005 11000 10999 10996 ] final  -53.46 input  -57.11 | X-H torsion

> <Gold.Protein.ActiveResidues>
 VAL166  LYS551  ARG553  GLY616  TRP617  ASP618  TYR619  PRO620  LYS621  CYS622 
 ASP623  PHE694  ASN695  SER759  ASP760  ASP761  ALA762  ILE779  LEU786  VAL792 
 PHE793  MET794  SER795  GLU796  ALA797  LYS798  CYS799  TRP800  GLU811  SER814 

> <Gold.Protein.RotatedAtoms>
  152.2571  133.5265  159.5359 H   0  0  0  0  0  0  0  0  0  0  0  0  # atno 6907 bound_to 6896
  150.7113  134.0880  159.3930 H   0  0  0  0  0  0  0  0  0  0  0  0  # atno 6908 bound_to 6896
  151.8799  135.0457  160.0538 H   0  0  0  0  0  0  0  0  0  0  0  0  # atno 6909 bound_to 6896
  145.3682  140.9502  143.2462 H   0  0  0  0  0  0  0  0  0  0  0  0  # atno 7974 bound_to 7965
  156.0920  140.3256  155.7828 H   0  0  0  0  0  0  0  0  0  0  0  0  # atno 8008 bound_to 7997
  155.4981  140.0567  157.2960 H   0  0  0  0  0  0  0  0  0  0  0  0  # atno 8009 bound_to 7997
  154.4643  140.1982  156.0175 H   0  0  0  0  0  0  0  0  0  0  0  0  # atno 8010 bound_to 7997
  139.8235  143.7542  152.2666 H   0  0  0  0  0  0  0  0  0  0  0  0  # atno 10167 bound_to 10162
  156.4390  130.8113  151.2342 H   0  0  0  0  0  0  0  0  0  0  0  0  # atno 10718 bound_to 10713
  152.9987  135.5460  154.6214 H   0  0  0  0  0  0  0  0  0  0  0  0  # atno 10763 bound_to 10752
  154.5513  135.2827  155.1008 H   0  0  0  0  0  0  0  0  0  0  0  0  # atno 10764 bound_to 10752
  154.2247  135.6444  153.5208 H   0  0  0  0  0  0  0  0  0  0  0  0  # atno 10765 bound_to 10752
  141.0977  133.6622  156.4175 H   0  0  0  0  0  0  0  0  0  0  0  0  # atno 11005 bound_to 11000
  144.8596  139.5198  143.6818 LP  0  0  0  0  0  0  0  0  0  0  0  0  # atno 17320 bound_to 7965
  146.2897  139.7104  142.9170 LP  0  0  0  0  0  0  0  0  0  0  0  0  # atno 17321 bound_to 7965
  139.7727  144.7471  151.0200 LP  0  0  0  0  0  0  0  0  0  0  0  0  # atno 17342 bound_to 10162
  140.7812  143.4627  151.0255 LP  0  0  0  0  0  0  0  0  0  0  0  0  # atno 17343 bound_to 10162
  157.7507  131.0174  150.3584 LP  0  0  0  0  0  0  0  0  0  0  0  0  # atno 17370 bound_to 10713
  156.3938  130.3903  149.7010 LP  0  0  0  0  0  0  0  0  0  0  0  0  # atno 17371 bound_to 10713
  140.5100  134.6404  157.5281 LP  0  0  0  0  0  0  0  0  0  0  0  0  # atno 17394 bound_to 11000
  139.9818  134.7125  155.9845 LP  0  0  0  0  0  0  0  0  0  0  0  0  # atno 17395 bound_to 11000

$$$$
