AV-unprocessed.smi:1050|AV-procd|sdf|4613|dock10
  -GOLD-   22720 3113D 1   1.00000     0.00000
 Structure written by MMmdl.
 48 49  0  0  0  0  0  0  0  0  1 V2000
  147.4170  136.5301  162.7395 C   0  0  0  0  0  0  0  0  0  0  0  0
  147.6645  137.1061  161.4614 O   0  0  0  0  0  0  0  0  0  0  0  0
  147.9088  136.2595  160.3998 C   0  0  0  0  0  0  0  0  0  0  0  0
  147.7649  134.8738  160.5924 C   0  0  0  0  0  0  0  0  0  0  0  0
  148.0130  134.0105  159.5103 C   0  0  0  0  0  0  0  0  0  0  0  0
  148.4102  134.5562  158.2656 C   0  0  0  0  0  0  0  0  0  0  0  0
  148.6403  133.7584  157.1079 N   0  0  0  0  0  0  0  0  0  0  0  0
  149.0501  132.4796  157.0265 C   0  0  0  0  0  0  0  0  0  0  0  0
  149.2898  131.7583  157.9947 O   0  0  0  0  0  0  0  0  0  0  0  0
  149.2266  131.9306  155.6004 C   0  0  1  0  0  0  0  0  0  0  0  0
  150.6726  131.4804  155.3431 C   0  0  0  0  0  0  0  0  0  0  0  0
  148.3789  130.8041  155.3911 O   0  0  0  0  0  0  0  0  0  0  0  0
  148.4185  130.2494  154.0823 C   0  0  0  0  0  0  0  0  0  0  0  0
  148.5166  135.9685  158.1619 C   0  0  0  0  0  0  0  0  0  0  0  0
  148.9044  136.5694  156.9483 N   0  0  0  0  0  0  0  0  0  0  0  0
  150.2644  136.2264  156.5322 C   0  0  0  0  0  0  0  0  0  0  0  0
  150.5344  136.7139  155.0954 C   0  0  0  0  0  0  0  0  0  0  0  0
  150.2321  138.1490  155.0119 N   0  0  0  0  0  0  0  0  0  0  0  0
  151.1835  139.0911  154.8092 C   0  0  0  0  0  0  0  0  0  0  0  0
  152.6307  138.6536  154.5734 C   0  0  0  0  0  0  0  0  0  0  0  0
  150.9351  140.2968  154.8034 O   0  0  0  0  0  0  0  0  0  0  0  0
  148.8179  138.4134  155.3103 C   0  0  0  0  0  0  0  0  0  0  0  0
  148.5266  137.9708  156.7560 C   0  0  0  0  0  0  0  0  0  0  0  0
  148.2731  136.7919  159.2090 N   0  0  0  0  0  0  0  0  0  0  0  0
  147.2438  137.3242  163.4654 H   0  0  0  0  0  0  0  0  0  0  0  0
  148.2703  135.9452  163.0862 H   0  0  0  0  0  0  0  0  0  0  0  0
  146.5297  135.8953  162.7260 H   0  0  0  0  0  0  0  0  0  0  0  0
  147.4621  134.4795  161.5513 H   0  0  0  0  0  0  0  0  0  0  0  0
  147.8747  132.9503  159.6533 H   0  0  0  0  0  0  0  0  0  0  0  0
  148.5591  134.2485  156.2286 H   0  0  0  0  0  0  0  0  0  0  0  0
  148.9815  132.7081  154.8739 H   0  0  0  0  0  0  0  0  0  0  0  0
  151.3764  132.2974  155.5064 H   0  0  0  0  0  0  0  0  0  0  0  0
  150.7938  131.1429  154.3137 H   0  0  0  0  0  0  0  0  0  0  0  0
  150.9594  130.6542  155.9947 H   0  0  0  0  0  0  0  0  0  0  0  0
  147.7974  129.3545  154.0506 H   0  0  0  0  0  0  0  0  0  0  0  0
  149.4338  129.9604  153.8080 H   0  0  0  0  0  0  0  0  0  0  0  0
  148.0363  130.9406  153.3308 H   0  0  0  0  0  0  0  0  0  0  0  0
  150.9720  136.6891  157.2219 H   0  0  0  0  0  0  0  0  0  0  0  0
  150.4257  135.1498  156.5912 H   0  0  0  0  0  0  0  0  0  0  0  0
  151.5612  136.4783  154.8134 H   0  0  0  0  0  0  0  0  0  0  0  0
  149.9004  136.1730  154.3914 H   0  0  0  0  0  0  0  0  0  0  0  0
  152.7014  137.9974  153.7052 H   0  0  0  0  0  0  0  0  0  0  0  0
  153.0225  138.1316  155.4467 H   0  0  0  0  0  0  0  0  0  0  0  0
  153.2688  139.5186  154.3882 H   0  0  0  0  0  0  0  0  0  0  0  0
  148.5270  139.4542  155.1784 H   0  0  0  0  0  0  0  0  0  0  0  0
  148.1968  137.8464  154.6153 H   0  0  0  0  0  0  0  0  0  0  0  0
  147.4664  138.0984  156.9778 H   0  0  0  0  0  0  0  0  0  0  0  0
  149.0819  138.6014  157.4519 H   0  0  0  0  0  0  0  0  0  0  0  0
  1  2  1  0  0  0  0
  1 25  1  0  0  0  0
  1 26  1  0  0  0  0
  1 27  1  0  0  0  0
  2  3  1  0  0  0  0
  3 24  1  0  0  0  0
  3  4  2  0  0  0  0
  4  5  1  0  0  0  0
  4 28  1  0  0  0  0
  5  6  2  0  0  0  0
  5 29  1  0  0  0  0
  6  7  1  0  0  0  0
  6 14  1  0  0  0  0
  7  8  1  0  0  0  0
  7 30  1  0  0  0  0
  8  9  2  0  0  0  0
  8 10  1  0  0  0  0
 10 11  1  0  0  0  0
 10 12  1  0  0  0  0
 10 31  1  0  0  0  0
 11 32  1  0  0  0  0
 11 33  1  0  0  0  0
 11 34  1  0  0  0  0
 12 13  1  0  0  0  0
 13 35  1  0  0  0  0
 13 36  1  0  0  0  0
 13 37  1  0  0  0  0
 14 15  1  0  0  0  0
 14 24  2  0  0  0  0
 15 23  1  0  0  0  0
 15 16  1  0  0  0  0
 16 17  1  0  0  0  0
 16 38  1  0  0  0  0
 16 39  1  0  0  0  0
 17 18  1  0  0  0  0
 17 40  1  0  0  0  0
 17 41  1  0  0  0  0
 18 19  1  0  0  0  0
 18 22  1  0  0  0  0
 19 20  1  0  0  0  0
 19 21  2  0  0  0  0
 20 42  1  0  0  0  0
 20 43  1  0  0  0  0
 20 44  1  0  0  0  0
 22 23  1  0  0  0  0
 22 45  1  0  0  0  0
 22 46  1  0  0  0  0
 23 47  1  0  0  0  0
 23 48  1  0  0  0  0
M  END
> <s_m_source_file>
AV-unprocessed.smi

> <i_m_source_file_index>
1050

> <i_lp_mmshare_version>
43012

> <i_f3d_flags>
0

> <s_epik_input>
W0NIM11PYzFbY0hdW2NIXWMoW05IXUMoPU8pW0NASF0oW0NIM10pT1tDSDNdKWMobjEpTjJbQ0gyXVtDSDJdTihDKD1PKVtDSDNdKVtDSDJdW0NIMl0y

> <s_epik_cmdline>
J2VwaWtfcHl0aG9uJywgJy1waCcsICc3LjAnLCAnLXRuJywgJzgnLCAnLW1hJywgJzIwMCcsICctbWV0YWxfYmluZGluZycsICctaW1hZScsICc8aW5maWxlLm1hZT4nLCAnLW9tYWUnLCAnPG91dGZpbGUubWFlPic=

> <r_lp_tautomer_probability>
1

> <r_epik_Ionization_Penalty>
0.000150604

> <r_epik_Ionization_Penalty_Charging>
0

> <r_epik_Ionization_Penalty_Neutral>
0.000150604

> <r_epik_State_Penalty>
-0

> <r_epik_Charging_Adjusted_Penalty>
0

> <i_epik_Tot_Q>
0

> <i_epik_Tot_abs_Q>
0

> <r_epik_Metal_State_Penalty>
-0

> <b_epik_Metal_Only>
0

> <s_lp_Force_Field>
OPLS_2005

> <r_lp_Energy>
41.0836

> <b_lp_Chiralities_Consistent>
1

> <s_lp_Variant>
AV-unprocessed.smi:1050-2

> <Gold.Version>
5.8.1

> <Gold.Id.Protein>
6NUR|6NUR_protein|mol2

> <Gold.PLP.Fitness>
38.5408

> <Gold.PLP.PLP>
-31.4658

> <Gold.PLP.part.hbond>
-3.0000

> <Gold.PLP.part.metal>
0.0000

> <Gold.PLP.part.buried>
-4.4617

> <Gold.PLP.part.nonpolar>
-24.5011

> <Gold.PLP.part.repulsive>
0.1210

> <Gold.PLP.ligand.clash>
0.5830

> <Gold.PLP.ligand.torsion>
0.5434

> <Gold.PLP.Chemscore.Hbond>
2.8000

> <Gold.PLP.Chemscore.CHOScore>
0.0000

> <Gold.PLP.Chemscore.Metal>
0.0000

> <Gold.Chemscore.Hbonds>
donor molecule, donor type, donor heavy atom, donor atom, acceptor molecule, acceptor atom, score
      P1  H  6931  6943       L1     2  0.95
      P1  H  6934  6947       L1     2  0.80
      P1  H  7989  7998       L1    21  1.00

> <Gold.PLP.Chemscore.Internal.Correction>
0.3449

> <Gold.Rescore>
     Score         DG    S(hbond)    S(metal)    S(lipo)     H(rot)  DE(clash)    DE(int)     intcor
     12.70     -14.46       2.04        0.00      56.11       1.71       0.00       1.77       ----

> <Gold.Chemscore.Fitness>
12.6977

> <Gold.Chemscore.DG>
-14.4641

> <Gold.Chemscore.ZeroCoef>
-5.4800

> <Gold.Chemscore.Hbond>
2.0353

> <Gold.Chemscore.Metal>
0.0000

> <Gold.Chemscore.Lipo>
56.1129

> <Gold.Chemscore.Internal_Hbond>
0.0000

> <Gold.Chemscore.DEClash>
0.0013

> <Gold.Chemscore.DEInternal>
1.7651

> <Gold.Chemscore.Rot>
1.7106

> <Gold.Chemscore.Internal.Correction>
   9.000000E+99

> <Gold.Chemscore.Hbonds>
donor molecule, donor type, donor heavy atom, donor atom, acceptor molecule, acceptor atom, score
      P1  H  6931  6943       L1     2  0.19
      P1  H  6934  6947       L1     2  0.67
      P1  H  7989  7998       L1    21  0.54

> <Gold.Chemscore.Hbond.Weighted>
-6.7979

> <Gold.Chemscore.Metal.Weighted>
-0.0000

> <Gold.Chemscore.Lipo.Weighted>
-6.5652

> <Gold.Chemscore.Internal_Hbond.Weighted>
0.0000

> <Gold.Chemscore.DEClash.Weighted>
0.0013

> <Gold.Chemscore.DEInternal.Weighted>
1.7651

> <Gold.Chemscore.Rot.Weighted>
4.3790

> <Gold.Chemscore.Internal.Correction.Weighted>
   9.000000E+99

> <Gold.Protein.RotatedTorsions>
[ 6907 6896 6895 6894 ] final    8.25 input  -60.11 | X-H torsion
[ 7974 7965 7964 7962 ] final  -81.64 input  175.53 | X-H torsion
[ 8008 7997 7996 7995 ] final  -80.75 input   59.86 | X-H torsion
[ 10167 10162 10161 10158 ] final -138.80 input  -65.29 | X-H torsion
[ 10718 10713 10712 10709 ] final  169.63 input   66.30 | X-H torsion
[ 10763 10752 10751 10750 ] final -177.03 input  -60.55 | X-H torsion
[ 11005 11000 10999 10996 ] final -155.60 input  -57.11 | X-H torsion

> <Gold.Protein.ActiveResidues>
 VAL166  LYS551  ARG553  GLY616  TRP617  ASP618  TYR619  PRO620  LYS621  CYS622 
 ASP623  PHE694  ASN695  SER759  ASP760  ASP761  ALA762  ILE779  LEU786  VAL792 
 PHE793  MET794  SER795  GLU796  ALA797  LYS798  CYS799  TRP800  GLU811  SER814 

> <Gold.Protein.RotatedAtoms>
  151.7030  135.0926  160.0253 H   0  0  0  0  0  0  0  0  0  0  0  0  # atno 6907 bound_to 6896
  152.3709  133.6413  159.6094 H   0  0  0  0  0  0  0  0  0  0  0  0  # atno 6908 bound_to 6896
  150.7672  133.9188  159.3433 H   0  0  0  0  0  0  0  0  0  0  0  0  # atno 6909 bound_to 6896
  145.5440  140.9506  143.1535 H   0  0  0  0  0  0  0  0  0  0  0  0  # atno 7974 bound_to 7965
  154.5914  140.0658  156.9244 H   0  0  0  0  0  0  0  0  0  0  0  0  # atno 8008 bound_to 7997
  155.2288  140.3336  155.4287 H   0  0  0  0  0  0  0  0  0  0  0  0  # atno 8009 bound_to 7997
  156.2258  140.1819  156.7350 H   0  0  0  0  0  0  0  0  0  0  0  0  # atno 8010 bound_to 7997
  139.8442  143.7282  152.2661 H   0  0  0  0  0  0  0  0  0  0  0  0  # atno 10167 bound_to 10162
  157.0198  131.0228  151.2778 H   0  0  0  0  0  0  0  0  0  0  0  0  # atno 10718 bound_to 10713
  154.5651  135.2823  155.0882 H   0  0  0  0  0  0  0  0  0  0  0  0  # atno 10763 bound_to 10752
  154.2276  135.6380  153.5168 H   0  0  0  0  0  0  0  0  0  0  0  0  # atno 10764 bound_to 10752
  153.0040  135.5529  154.6257 H   0  0  0  0  0  0  0  0  0  0  0  0  # atno 10765 bound_to 10752
  140.6847  134.4106  157.5224 H   0  0  0  0  0  0  0  0  0  0  0  0  # atno 11005 bound_to 11000
  144.7562  139.7068  143.7253 LP  0  0  0  0  0  0  0  0  0  0  0  0  # atno 17320 bound_to 7965
  146.1962  139.5229  142.9773 LP  0  0  0  0  0  0  0  0  0  0  0  0  # atno 17321 bound_to 7965
  139.7529  144.7529  151.0479 LP  0  0  0  0  0  0  0  0  0  0  0  0  # atno 17342 bound_to 10162
  140.7795  143.4839  150.9981 LP  0  0  0  0  0  0  0  0  0  0  0  0  # atno 17343 bound_to 10162
  157.5258  130.8027  149.7860 LP  0  0  0  0  0  0  0  0  0  0  0  0  # atno 17370 bound_to 10713
  156.0106  130.3835  150.2277 LP  0  0  0  0  0  0  0  0  0  0  0  0  # atno 17371 bound_to 10713
  139.8941  134.8714  156.2192 LP  0  0  0  0  0  0  0  0  0  0  0  0  # atno 17394 bound_to 11000
  141.0289  133.6999  156.1396 LP  0  0  0  0  0  0  0  0  0  0  0  0  # atno 17395 bound_to 11000

$$$$
