AV-unprocessed.smi:829|AV-procd|sdf|3868|dock6
  -GOLD-   22720 1323D 1   1.00000     0.00000
 Structure written by MMmdl.
 50 52  0  0  0  0  0  0  0  0  3 V2000
  150.7206  136.5597  156.1080 O   0  0  0  0  0  0  0  0  0  0  0  0
  150.1869  136.4902  155.0012 C   0  0  0  0  0  0  0  0  0  0  0  0
  149.9235  135.3524  154.3353 N   0  0  0  0  0  0  0  0  0  0  0  0
  150.1939  134.0139  154.7311 C   0  0  0  0  0  0  0  0  0  0  0  0
  149.7070  132.9766  153.9049 C   0  0  0  0  0  0  0  0  0  0  0  0
  149.9407  131.6334  154.2638 C   0  0  0  0  0  0  0  0  0  0  0  0
  150.6170  131.3481  155.3970 N   0  3  0  0  0  0  0  0  0  0  0  0
  151.0880  132.3041  156.2261 C   0  0  0  0  0  0  0  0  0  0  0  0
  150.8853  133.6652  155.9195 C   0  0  0  0  0  0  0  0  0  0  0  0
  149.8101  137.5667  154.2957 N   0  0  0  0  0  0  0  0  0  0  0  0
  149.9955  138.9522  154.7178 C   0  0  2  0  0  0  0  0  0  0  0  0
  151.4193  139.1812  155.2572 C   0  0  0  0  0  0  0  0  0  0  0  0
  151.5874  140.6133  155.7938 C   0  0  0  0  0  0  0  0  0  0  0  0
  150.5731  140.9204  156.8353 N   0  3  1  0  0  0  0  0  0  0  0  0
  150.7854  142.2423  157.4801 C   0  0  0  0  0  0  0  0  0  0  0  0
  152.0516  142.2570  158.3576 C   0  0  0  0  0  0  0  0  0  0  0  0
  152.1985  141.0677  159.3116 C   0  0  0  0  0  0  0  0  0  0  0  0
  153.1953  141.5336  160.3774 C   0  0  0  0  0  0  0  0  0  0  0  0
  153.1238  143.0677  160.3892 C   0  0  0  0  0  0  0  0  0  0  0  0
  152.1127  143.4581  159.3055 C   0  0  0  0  0  0  0  0  0  0  0  0
  149.1906  140.7417  156.3193 C   0  0  0  0  0  0  0  0  0  0  0  0
  148.9714  139.3093  155.8065 C   0  0  0  0  0  0  0  0  0  0  0  0
  149.5528  135.4611  153.4026 H   0  0  0  0  0  0  0  0  0  0  0  0
  149.1641  133.2043  152.9987 H   0  0  0  0  0  0  0  0  0  0  0  0
  149.6075  130.7852  153.6835 H   0  0  0  0  0  0  0  0  0  0  0  0
  151.6048  131.9546  157.1080 H   0  0  0  0  0  0  0  0  0  0  0  0
  151.2534  134.4115  156.6066 H   0  0  0  0  0  0  0  0  0  0  0  0
  149.3804  137.4194  153.3939 H   0  0  0  0  0  0  0  0  0  0  0  0
  149.8281  139.6113  153.8634 H   0  0  0  0  0  0  0  0  0  0  0  0
  151.6334  138.4680  156.0549 H   0  0  0  0  0  0  0  0  0  0  0  0
  152.1550  138.9972  154.4731 H   0  0  0  0  0  0  0  0  0  0  0  0
  152.5886  140.7200  156.2134 H   0  0  0  0  0  0  0  0  0  0  0  0
  151.5045  141.3340  154.9785 H   0  0  0  0  0  0  0  0  0  0  0  0
  150.9080  143.0075  156.7120 H   0  0  0  0  0  0  0  0  0  0  0  0
  149.9058  142.5416  158.0524 H   0  0  0  0  0  0  0  0  0  0  0  0
  152.9317  142.2951  157.7130 H   0  0  0  0  0  0  0  0  0  0  0  0
  151.2402  140.8494  159.7852 H   0  0  0  0  0  0  0  0  0  0  0  0
  152.5337  140.1618  158.8057 H   0  0  0  0  0  0  0  0  0  0  0  0
  152.9668  141.1047  161.3536 H   0  0  0  0  0  0  0  0  0  0  0  0
  154.2039  141.2159  160.1106 H   0  0  0  0  0  0  0  0  0  0  0  0
  152.8268  143.4537  161.3649 H   0  0  0  0  0  0  0  0  0  0  0  0
  154.1050  143.4846  160.1592 H   0  0  0  0  0  0  0  0  0  0  0  0
  152.3888  144.3806  158.7938 H   0  0  0  0  0  0  0  0  0  0  0  0
  151.1360  143.6178  159.7651 H   0  0  0  0  0  0  0  0  0  0  0  0
  148.4655  140.9561  157.1034 H   0  0  0  0  0  0  0  0  0  0  0  0
  149.0053  141.4577  155.5168 H   0  0  0  0  0  0  0  0  0  0  0  0
  147.9583  139.2102  155.4146 H   0  0  0  0  0  0  0  0  0  0  0  0
  149.0514  138.6098  156.6402 H   0  0  0  0  0  0  0  0  0  0  0  0
  150.7059  140.2315  157.5620 H   0  0  0  0  0  0  0  0  0  0  0  0
  150.7746  130.3696  155.6396 H   0  0  0  0  0  0  0  0  0  0  0  0
  1  2  2  0  0  0  0
  2  3  1  0  0  0  0
  2 10  1  0  0  0  0
  3  4  1  0  0  0  0
  3 23  1  0  0  0  0
  4  9  1  0  0  0  0
  4  5  2  0  0  0  0
  5  6  1  0  0  0  0
  5 24  1  0  0  0  0
  6  7  2  0  0  0  0
  6 25  1  0  0  0  0
  7  8  1  0  0  0  0
  7 50  1  0  0  0  0
  8  9  2  0  0  0  0
  8 26  1  0  0  0  0
  9 27  1  0  0  0  0
 10 11  1  0  0  0  0
 10 28  1  0  0  0  0
 11 22  1  0  0  0  0
 11 12  1  0  0  0  0
 11 29  1  0  0  0  0
 12 13  1  0  0  0  0
 12 30  1  0  0  0  0
 12 31  1  0  0  0  0
 13 14  1  0  0  0  0
 13 32  1  0  0  0  0
 13 33  1  0  0  0  0
 14 15  1  0  0  0  0
 14 21  1  0  0  0  0
 14 49  1  0  0  0  0
 15 16  1  0  0  0  0
 15 34  1  0  0  0  0
 15 35  1  0  0  0  0
 16 20  1  0  0  0  0
 16 17  1  0  0  0  0
 16 36  1  0  0  0  0
 17 18  1  0  0  0  0
 17 37  1  0  0  0  0
 17 38  1  0  0  0  0
 18 19  1  0  0  0  0
 18 39  1  0  0  0  0
 18 40  1  0  0  0  0
 19 20  1  0  0  0  0
 19 41  1  0  0  0  0
 19 42  1  0  0  0  0
 20 43  1  0  0  0  0
 20 44  1  0  0  0  0
 21 22  1  0  0  0  0
 21 45  1  0  0  0  0
 21 46  1  0  0  0  0
 22 47  1  0  0  0  0
 22 48  1  0  0  0  0
M  CHG  1   7   1
M  CHG  1  14   1
M  END
> <s_m_source_file>
AV-unprocessed.smi

> <i_m_source_file_index>
829

> <i_lp_mmshare_version>
43012

> <i_f3d_flags>
0

> <s_epik_input>
W2NIXTFbY0hdbltjSF1bY0hdYzFbTkhdQyg9TylbTkhdW0NIXTJbQ0gyXVtDSDJdTihbQ0gyXVtDSDJdMilbQ0gyXVtDSF0zW0NIMl1bQ0gyXVtDSDJdW0NIMl0z

> <s_epik_cmdline>
J2VwaWtfcHl0aG9uJywgJy1waCcsICc3LjAnLCAnLXRuJywgJzgnLCAnLW1hJywgJzIwMCcsICctbWV0YWxfYmluZGluZycsICctaW1hZScsICc8aW5maWxlLm1hZT4nLCAnLW9tYWUnLCAnPG91dGZpbGUubWFlPic=

> <r_epik_Ionization_Penalty>
1.10644

> <r_epik_Ionization_Penalty_Charging>
1.10642

> <r_epik_Ionization_Penalty_Neutral>
1.84455e-05

> <r_epik_State_Penalty>
1.14949

> <r_epik_Charging_Adjusted_Penalty>
2.25592

> <i_epik_Tot_Q>
2

> <i_epik_Tot_abs_Q>
2

> <r_epik_Metal_State_Penalty>
1.23448

> <b_epik_Metal_Only>
0

> <s_lp_Force_Field>
OPLS_2005

> <r_lp_Energy>
49.76

> <b_lp_Chiralities_Consistent>
1

> <s_lp_Variant>
AV-unprocessed.smi:829-3

> <Gold.Version>
5.8.1

> <Gold.Id.Protein>
6NUR|6NUR_protein|mol2

> <Gold.PLP.Fitness>
46.9002

> <Gold.PLP.PLP>
-41.6679

> <Gold.PLP.part.hbond>
-2.0825

> <Gold.PLP.part.metal>
0.0000

> <Gold.PLP.part.buried>
-5.1631

> <Gold.PLP.part.nonpolar>
-35.0310

> <Gold.PLP.part.repulsive>
0.1317

> <Gold.PLP.ligand.clash>
0.0000

> <Gold.PLP.ligand.torsion>
0.3658

> <Gold.PLP.Chemscore.Hbond>
1.9760

> <Gold.PLP.Chemscore.CHOScore>
0.0000

> <Gold.PLP.Chemscore.Metal>
0.0000

> <Gold.Chemscore.Hbonds>
donor molecule, donor type, donor heavy atom, donor atom, acceptor molecule, acceptor atom, score
      L1  H     3    23       P1  7948  0.70
      L1  H    10    28       P1  7948  0.99

> <Gold.PLP.Chemscore.Internal.Correction>
0.0358

> <Gold.Rescore>
     Score         DG    S(hbond)    S(metal)    S(lipo)     H(rot)  DE(clash)    DE(int)     intcor
     17.51     -20.27       1.62        0.00     110.26       1.37       0.03       2.73       ----

> <Gold.Chemscore.Fitness>
17.5085

> <Gold.Chemscore.DG>
-20.2713

> <Gold.Chemscore.ZeroCoef>
-5.4800

> <Gold.Chemscore.Hbond>
1.6167

> <Gold.Chemscore.Metal>
0.0000

> <Gold.Chemscore.Lipo>
110.2600

> <Gold.Chemscore.Internal_Hbond>
0.0000

> <Gold.Chemscore.DEClash>
0.0330

> <Gold.Chemscore.DEInternal>
2.7298

> <Gold.Chemscore.Rot>
1.3707

> <Gold.Chemscore.Internal.Correction>
   9.000000E+99

> <Gold.Chemscore.Hbonds>
donor molecule, donor type, donor heavy atom, donor atom, acceptor molecule, acceptor atom, score
      L1  H     3    23       P1  7948  0.07
      L1  H    10    28       P1  7948  0.89

> <Gold.Chemscore.Hbond.Weighted>
-5.3998

> <Gold.Chemscore.Metal.Weighted>
-0.0000

> <Gold.Chemscore.Lipo.Weighted>
-12.9004

> <Gold.Chemscore.Internal_Hbond.Weighted>
0.0000

> <Gold.Chemscore.DEClash.Weighted>
0.0330

> <Gold.Chemscore.DEInternal.Weighted>
2.7298

> <Gold.Chemscore.Rot.Weighted>
3.5089

> <Gold.Chemscore.Internal.Correction.Weighted>
   9.000000E+99

> <Gold.Protein.RotatedTorsions>
[ 6907 6896 6895 6894 ] final  -96.96 input  -60.11 | X-H torsion
[ 7974 7965 7964 7962 ] final  -39.63 input  175.53 | X-H torsion
[ 8008 7997 7996 7995 ] final  -77.51 input   59.86 | X-H torsion
[ 10167 10162 10161 10158 ] final   78.80 input  -65.29 | X-H torsion
[ 10718 10713 10712 10709 ] final  144.99 input   66.30 | X-H torsion
[ 10763 10752 10751 10750 ] final -163.16 input  -60.55 | X-H torsion
[ 11005 11000 10999 10996 ] final   51.72 input  -57.11 | X-H torsion

> <Gold.Protein.ActiveResidues>
 VAL166  LYS551  ARG553  GLY616  TRP617  ASP618  TYR619  PRO620  LYS621  CYS622 
 ASP623  PHE694  ASN695  SER759  ASP760  ASP761  ALA762  ILE779  LEU786  VAL792 
 PHE793  MET794  SER795  GLU796  ALA797  LYS798  CYS799  TRP800  GLU811  SER814 

> <Gold.Protein.RotatedAtoms>
  150.7003  134.1422  159.4108 H   0  0  0  0  0  0  0  0  0  0  0  0  # atno 6907 bound_to 6896
  151.9406  135.0213  160.0545 H   0  0  0  0  0  0  0  0  0  0  0  0  # atno 6908 bound_to 6896
  152.2097  133.4866  159.5140 H   0  0  0  0  0  0  0  0  0  0  0  0  # atno 6909 bound_to 6896
  146.0379  140.6647  142.9101 H   0  0  0  0  0  0  0  0  0  0  0  0  # atno 7974 bound_to 7965
  154.5603  140.0709  156.8809 H   0  0  0  0  0  0  0  0  0  0  0  0  # atno 8008 bound_to 7997
  155.2824  140.3372  155.4239 H   0  0  0  0  0  0  0  0  0  0  0  0  # atno 8009 bound_to 7997
  156.2037  140.1731  156.7832 H   0  0  0  0  0  0  0  0  0  0  0  0  # atno 8010 bound_to 7997
  139.9671  144.5920  150.8019 H   0  0  0  0  0  0  0  0  0  0  0  0  # atno 10167 bound_to 10162
  157.3506  131.0950  151.1003 H   0  0  0  0  0  0  0  0  0  0  0  0  # atno 10718 bound_to 10713
  154.7148  135.3013  154.9141 H   0  0  0  0  0  0  0  0  0  0  0  0  # atno 10763 bound_to 10752
  154.0031  135.6704  153.4764 H   0  0  0  0  0  0  0  0  0  0  0  0  # atno 10764 bound_to 10752
  153.0784  135.5022  154.8368 H   0  0  0  0  0  0  0  0  0  0  0  0  # atno 10765 bound_to 10752
  140.0909  134.5211  155.8853 H   0  0  0  0  0  0  0  0  0  0  0  0  # atno 11005 bound_to 11000
  144.7060  140.3854  143.7117 LP  0  0  0  0  0  0  0  0  0  0  0  0  # atno 17320 bound_to 7965
  145.6933  139.1644  143.2634 LP  0  0  0  0  0  0  0  0  0  0  0  0  # atno 17321 bound_to 7965
  140.7534  143.3008  151.3085 LP  0  0  0  0  0  0  0  0  0  0  0  0  # atno 17342 bound_to 10162
  139.6509  144.0363  152.2626 LP  0  0  0  0  0  0  0  0  0  0  0  0  # atno 17343 bound_to 10162
  157.2180  130.6468  149.5800 LP  0  0  0  0  0  0  0  0  0  0  0  0  # atno 17370 bound_to 10713
  155.9721  130.4638  150.6196 LP  0  0  0  0  0  0  0  0  0  0  0  0  # atno 17371 bound_to 10713
  141.2077  133.6667  156.6325 LP  0  0  0  0  0  0  0  0  0  0  0  0  # atno 17394 bound_to 11000
  140.3354  134.7894  157.4357 LP  0  0  0  0  0  0  0  0  0  0  0  0  # atno 17395 bound_to 11000

$$$$
