AV-unprocessed.smi:2053|AV-procd|sdf|8330|dock1
  -GOLD-   2272010593D 1   1.00000     0.00000
 Structure written by MMmdl.
 44 45  0  0  0  0  0  0  0  0  1 V2000
  151.8910  143.4859  159.6624 C   0  0  0  0  0  0  0  0  0  0  0  0
  150.8526  142.5223  159.6888 O   0  0  0  0  0  0  0  0  0  0  0  0
  150.3363  142.2450  158.3979 C   0  0  0  0  0  0  0  0  0  0  0  0
  151.3091  141.3233  157.6572 C   0  0  0  0  0  0  0  0  0  0  0  0
  150.8176  141.1058  156.3380 O   0  0  0  0  0  0  0  0  0  0  0  0
  150.6852  139.8075  155.8897 C   0  0  0  0  0  0  0  0  0  0  0  0
  150.5105  138.7819  156.8397 C   0  0  0  0  0  0  0  0  0  0  0  0
  150.3752  137.4555  156.3881 C   0  0  0  0  0  0  0  0  0  0  0  0
  150.4282  137.1905  155.0049 C   0  0  0  0  0  0  0  0  0  0  0  0
  150.2663  135.8453  154.5773 N   0  0  0  0  0  0  0  0  0  0  0  0
  150.2698  134.7213  155.3169 C   0  0  0  0  0  0  0  0  0  0  0  0
  150.3769  134.6956  156.5431 O   0  0  0  0  0  0  0  0  0  0  0  0
  150.1249  133.4082  154.5303 C   0  0  2  0  0  0  0  0  0  0  0  0
  148.9332  133.4412  153.5486 C   0  0  0  0  0  0  0  0  0  0  0  0
  148.3930  132.0137  153.5384 C   0  0  0  0  0  0  0  0  0  0  0  0
  148.6685  131.5069  154.9509 C   0  0  0  0  0  0  0  0  0  0  0  0
  149.8873  132.2061  155.3503 N   0  0  0  0  0  0  0  0  0  0  0  0
  150.7499  131.8069  156.8024 S   0  0  0  0  0  0  0  0  0  0  0  0
  152.3900  132.6057  156.5574 C   0  0  0  0  0  0  0  0  0  0  0  0
  150.0747  132.4912  157.9154 O   0  0  0  0  0  0  0  0  0  0  0  0
  150.9346  130.3481  156.8394 O   0  0  0  0  0  0  0  0  0  0  0  0
  150.5929  138.2914  154.1294 C   0  0  0  0  0  0  0  0  0  0  0  0
  150.7223  139.5657  154.5561 N   0  0  0  0  0  0  0  0  0  0  0  0
  152.2494  143.6661  160.6759 H   0  0  0  0  0  0  0  0  0  0  0  0
  151.5384  144.4349  159.2561 H   0  0  0  0  0  0  0  0  0  0  0  0
  152.7348  143.1403  159.0636 H   0  0  0  0  0  0  0  0  0  0  0  0
  149.3586  141.7672  158.4799 H   0  0  0  0  0  0  0  0  0  0  0  0
  150.2054  143.1733  157.8396 H   0  0  0  0  0  0  0  0  0  0  0  0
  152.2971  141.7856  157.6231 H   0  0  0  0  0  0  0  0  0  0  0  0
  151.3965  140.3754  158.1910 H   0  0  0  0  0  0  0  0  0  0  0  0
  150.4787  139.0087  157.8952 H   0  0  0  0  0  0  0  0  0  0  0  0
  150.2360  136.6535  157.0983 H   0  0  0  0  0  0  0  0  0  0  0  0
  150.0909  135.7227  153.5904 H   0  0  0  0  0  0  0  0  0  0  0  0
  151.0391  133.2302  153.9615 H   0  0  0  0  0  0  0  0  0  0  0  0
  148.1421  134.1145  153.8815 H   0  0  0  0  0  0  0  0  0  0  0  0
  149.2332  133.7643  152.5514 H   0  0  0  0  0  0  0  0  0  0  0  0
  147.3378  131.9617  153.2687 H   0  0  0  0  0  0  0  0  0  0  0  0
  148.9532  131.4151  152.8187 H   0  0  0  0  0  0  0  0  0  0  0  0
  147.8613  131.7784  155.6319 H   0  0  0  0  0  0  0  0  0  0  0  0
  148.8047  130.4257  154.9814 H   0  0  0  0  0  0  0  0  0  0  0  0
  152.9842  132.4886  157.4633 H   0  0  0  0  0  0  0  0  0  0  0  0
  152.2527  133.6668  156.3518 H   0  0  0  0  0  0  0  0  0  0  0  0
  152.9164  132.1387  155.7269 H   0  0  0  0  0  0  0  0  0  0  0  0
  150.6014  138.1741  153.0572 H   0  0  0  0  0  0  0  0  0  0  0  0
  1  2  1  0  0  0  0
  1 24  1  0  0  0  0
  1 25  1  0  0  0  0
  1 26  1  0  0  0  0
  2  3  1  0  0  0  0
  3  4  1  0  0  0  0
  3 27  1  0  0  0  0
  3 28  1  0  0  0  0
  4  5  1  0  0  0  0
  4 29  1  0  0  0  0
  4 30  1  0  0  0  0
  5  6  1  0  0  0  0
  6 23  1  0  0  0  0
  6  7  2  0  0  0  0
  7  8  1  0  0  0  0
  7 31  1  0  0  0  0
  8  9  2  0  0  0  0
  8 32  1  0  0  0  0
  9 10  1  0  0  0  0
  9 22  1  0  0  0  0
 10 11  1  0  0  0  0
 10 33  1  0  0  0  0
 11 12  2  0  0  0  0
 11 13  1  0  0  0  0
 13 17  1  0  0  0  0
 13 14  1  0  0  0  0
 13 34  1  0  0  0  0
 14 15  1  0  0  0  0
 14 35  1  0  0  0  0
 14 36  1  0  0  0  0
 15 16  1  0  0  0  0
 15 37  1  0  0  0  0
 15 38  1  0  0  0  0
 16 17  1  0  0  0  0
 16 39  1  0  0  0  0
 16 40  1  0  0  0  0
 17 18  1  0  0  0  0
 18 19  1  0  0  0  0
 18 20  2  0  0  0  0
 18 21  2  0  0  0  0
 19 41  1  0  0  0  0
 19 42  1  0  0  0  0
 19 43  1  0  0  0  0
 22 23  2  0  0  0  0
 22 44  1  0  0  0  0
M  END
> <s_m_source_file>
AV-unprocessed.smi

> <i_m_source_file_index>
2053

> <i_lp_mmshare_version>
43012

> <i_f3d_flags>
0

> <s_epik_input>
W0NIM11PW0NIMl1bQ0gyXU9jMVtjSF1bY0hdYyhbY0hdbjEpW05IXUMoPU8pW0NAQEhdMltDSDJdW0NIMl1bQ0gyXU4yUyg9TykoPU8pW0NIM10=

> <s_epik_cmdline>
J2VwaWtfcHl0aG9uJywgJy1waCcsICc3LjAnLCAnLXRuJywgJzgnLCAnLW1hJywgJzIwMCcsICctbWV0YWxfYmluZGluZycsICctaW1hZScsICc8aW5maWxlLm1hZT4nLCAnLW9tYWUnLCAnPG91dGZpbGUubWFlPic=

> <r_lp_tautomer_probability>
1

> <r_epik_Ionization_Penalty>
1.28704e-05

> <r_epik_Ionization_Penalty_Charging>
0

> <r_epik_Ionization_Penalty_Neutral>
1.28704e-05

> <r_epik_State_Penalty>
-0

> <r_epik_Charging_Adjusted_Penalty>
0

> <i_epik_Tot_Q>
0

> <i_epik_Tot_abs_Q>
0

> <r_epik_Metal_State_Penalty>
-0

> <b_epik_Metal_Only>
0

> <s_lp_Force_Field>
OPLS_2005

> <r_lp_Energy>
14.296

> <b_lp_Chiralities_Consistent>
1

> <s_lp_Variant>
AV-unprocessed.smi:2053-1

> <Gold.Version>
5.8.1

> <Gold.Id.Protein>
6NUR|6NUR_protein|mol2

> <Gold.PLP.Fitness>
42.3906

> <Gold.PLP.PLP>
-35.1411

> <Gold.PLP.part.hbond>
-3.8377

> <Gold.PLP.part.metal>
0.0000

> <Gold.PLP.part.buried>
-5.7130

> <Gold.PLP.part.nonpolar>
-26.0267

> <Gold.PLP.part.repulsive>
0.2314

> <Gold.PLP.ligand.clash>
0.0000

> <Gold.PLP.ligand.torsion>
2.1954

> <Gold.PLP.Chemscore.Hbond>
2.0674

> <Gold.PLP.Chemscore.CHOScore>
1.0460

> <Gold.PLP.Chemscore.Metal>
0.0000

> <Gold.Chemscore.Hbonds>
donor molecule, donor type, donor heavy atom, donor atom, acceptor molecule, acceptor atom, score
      L1  H    10    33       P1  7948  0.31
      P1  H  6896  6909       L1    20  1.00
      P1  H  7989  7998       L1    23  1.00
      L1  C    22    44       P1  7948  0.22
      L1  C    22    44       P1  7949  0.31
      L1  C    22    44       P1  7957  0.22

> <Gold.PLP.Chemscore.Internal.Correction>
2.3002

> <Gold.Rescore>
     Score         DG    S(hbond)    S(metal)    S(lipo)     H(rot)  DE(clash)    DE(int)     intcor
      7.55     -15.84       1.96        0.00      75.01       1.94       0.11       8.18       ----

> <Gold.Chemscore.Fitness>
7.5494

> <Gold.Chemscore.DG>
-15.8445

> <Gold.Chemscore.ZeroCoef>
-5.4800

> <Gold.Chemscore.Hbond>
1.9614

> <Gold.Chemscore.Metal>
0.0000

> <Gold.Chemscore.Lipo>
75.0100

> <Gold.Chemscore.Internal_Hbond>
0.0000

> <Gold.Chemscore.DEClash>
0.1121

> <Gold.Chemscore.DEInternal>
8.1830

> <Gold.Chemscore.Rot>
1.9386

> <Gold.Chemscore.Internal.Correction>
   9.000000E+99

> <Gold.Chemscore.Hbonds>
donor molecule, donor type, donor heavy atom, donor atom, acceptor molecule, acceptor atom, score
      L1  H    10    33       P1  7948  0.01
      P1  H  6896  6909       L1    20  0.99
      P1  H  7989  7998       L1    23  0.90

> <Gold.Chemscore.Hbond.Weighted>
-6.5512

> <Gold.Chemscore.Metal.Weighted>
-0.0000

> <Gold.Chemscore.Lipo.Weighted>
-8.7762

> <Gold.Chemscore.Internal_Hbond.Weighted>
0.0000

> <Gold.Chemscore.DEClash.Weighted>
0.1121

> <Gold.Chemscore.DEInternal.Weighted>
8.1830

> <Gold.Chemscore.Rot.Weighted>
4.9629

> <Gold.Chemscore.Internal.Correction.Weighted>
   9.000000E+99

> <Gold.Protein.RotatedTorsions>
[ 6907 6896 6895 6894 ] final  -11.69 input  -60.11 | X-H torsion
[ 7974 7965 7964 7962 ] final -145.51 input  175.53 | X-H torsion
[ 8008 7997 7996 7995 ] final  154.74 input   59.86 | X-H torsion
[ 10167 10162 10161 10158 ] final -167.74 input  -65.29 | X-H torsion
[ 10718 10713 10712 10709 ] final   53.84 input   66.30 | X-H torsion
[ 10763 10752 10751 10750 ] final  157.20 input  -60.55 | X-H torsion
[ 11005 11000 10999 10996 ] final  142.63 input  -57.11 | X-H torsion

> <Gold.Protein.ActiveResidues>
 VAL166  LYS551  ARG553  GLY616  TRP617  ASP618  TYR619  PRO620  LYS621  CYS622 
 ASP623  PHE694  ASN695  SER759  ASP760  ASP761  ALA762  ILE779  LEU786  VAL792 
 PHE793  MET794  SER795  GLU796  ALA797  LYS798  CYS799  TRP800  GLU811  SER814 

> <Gold.Protein.RotatedAtoms>
  151.3823  135.0942  159.9499 H   0  0  0  0  0  0  0  0  0  0  0  0  # atno 6907 bound_to 6896
  152.5104  133.9060  159.7475 H   0  0  0  0  0  0  0  0  0  0  0  0  # atno 6908 bound_to 6896
  150.9496  133.6509  159.2803 H   0  0  0  0  0  0  0  0  0  0  0  0  # atno 6909 bound_to 6896
  144.8222  140.5574  143.5570 H   0  0  0  0  0  0  0  0  0  0  0  0  # atno 7974 bound_to 7965
  156.2515  140.1958  156.6692 H   0  0  0  0  0  0  0  0  0  0  0  0  # atno 8008 bound_to 7997
  154.6405  140.0584  156.9866 H   0  0  0  0  0  0  0  0  0  0  0  0  # atno 8009 bound_to 7997
  155.1570  140.3256  155.4422 H   0  0  0  0  0  0  0  0  0  0  0  0  # atno 8010 bound_to 7997
  139.6029  144.0972  152.1762 H   0  0  0  0  0  0  0  0  0  0  0  0  # atno 10167 bound_to 10162
  157.5203  130.8561  149.8550 H   0  0  0  0  0  0  0  0  0  0  0  0  # atno 10718 bound_to 10713
  154.1965  135.2792  155.3005 H   0  0  0  0  0  0  0  0  0  0  0  0  # atno 10763 bound_to 10752
  154.5888  135.5566  153.7261 H   0  0  0  0  0  0  0  0  0  0  0  0  # atno 10764 bound_to 10752
  153.0099  135.6363  154.2103 H   0  0  0  0  0  0  0  0  0  0  0  0  # atno 10765 bound_to 10752
  140.0491  134.9265  157.0985 H   0  0  0  0  0  0  0  0  0  0  0  0  # atno 11005 bound_to 11000
  145.5079  139.1480  143.3621 LP  0  0  0  0  0  0  0  0  0  0  0  0  # atno 17320 bound_to 7965
  146.2528  140.5219  142.8886 LP  0  0  0  0  0  0  0  0  0  0  0  0  # atno 17321 bound_to 7965
  140.0573  144.5885  150.7290 LP  0  0  0  0  0  0  0  0  0  0  0  0  # atno 17342 bound_to 10162
  140.7263  143.2640  151.4107 LP  0  0  0  0  0  0  0  0  0  0  0  0  # atno 17343 bound_to 10162
  156.0349  130.3754  150.1587 LP  0  0  0  0  0  0  0  0  0  0  0  0  # atno 17370 bound_to 10713
  156.9775  130.9854  151.3445 LP  0  0  0  0  0  0  0  0  0  0  0  0  # atno 17371 bound_to 10713
  140.3945  134.2148  155.7165 LP  0  0  0  0  0  0  0  0  0  0  0  0  # atno 17394 bound_to 11000
  141.1922  133.8179  157.0850 LP  0  0  0  0  0  0  0  0  0  0  0  0  # atno 17395 bound_to 11000

$$$$
