AV-unprocessed.smi:153|AV-procd|sdf|1262|dock6
  -GOLD-   2262018513D 1   1.00000     0.00000
 Structure written by MMmdl.
 59 62  0  0  0  0  0  0  0  0  1 V2000
  153.2733  142.9997  160.0581 C   0  0  0  0  0  0  0  0  0  0  0  0
  152.5252  144.0895  159.2748 C   0  0  2  0  0  0  0  0  0  0  0  0
  151.9250  144.9678  160.2238 O   0  0  0  0  0  0  0  0  0  0  0  0
  150.7350  145.4990  159.6683 C   0  0  0  0  0  0  0  0  0  0  0  0
  150.1430  144.2942  158.9533 C   0  0  0  0  0  0  0  0  0  0  0  0
  151.3697  143.6189  158.3459 C   0  0  1  0  0  0  0  0  0  0  0  0
  151.5889  144.1901  157.0664 O   0  0  0  0  0  0  0  0  0  0  0  0
  151.2089  142.0869  158.1622 C   0  0  0  0  0  0  0  0  0  0  0  0
  150.3243  141.7271  157.0638 N   0  0  0  0  0  0  0  0  0  0  0  0
  150.6974  141.3058  155.8071 C   0  0  0  0  0  0  0  0  0  0  0  0
  149.7127  141.0390  154.9937 N   0  0  0  0  0  0  0  0  0  0  0  0
  148.5731  141.2916  155.7473 C   0  0  0  0  0  0  0  0  0  0  0  0
  147.1767  141.1874  155.4948 C   0  0  0  0  0  0  0  0  0  0  0  0
  146.6824  140.7741  154.3008 N   0  0  0  0  0  0  0  0  0  0  0  0
  145.2679  140.4224  154.3413 C   0  0  0  0  0  0  0  0  0  0  0  0
  147.5499  140.0343  153.3810 C   0  0  0  0  0  0  0  0  0  0  0  0
  146.8492  138.8391  152.6973 C   0  0  1  0  0  0  0  0  0  0  0  0
  147.7718  138.2938  151.7777 O   0  0  0  0  0  0  0  0  0  0  0  0
  146.4466  137.7268  153.6958 C   0  0  0  0  0  0  0  0  0  0  0  0
  146.2269  136.4049  153.1068 N   0  0  0  0  0  0  0  0  0  0  0  0
  145.1045  136.3931  152.1695 C   0  0  0  0  0  0  0  0  0  0  0  0
  144.8449  134.9926  151.5900 C   0  0  0  0  0  0  0  0  0  0  0  0
  144.6288  134.0683  152.6507 O   0  0  0  0  0  0  0  0  0  0  0  0
  145.7250  134.0106  153.5572 C   0  0  0  0  0  0  0  0  0  0  0  0
  145.9802  135.4093  154.1451 C   0  0  0  0  0  0  0  0  0  0  0  0
  146.3303  141.5168  156.5063 N   0  0  0  0  0  0  0  0  0  0  0  0
  146.8135  141.9104  157.6881 C   0  0  0  0  0  0  0  0  0  0  0  0
  148.0862  142.0422  158.0669 N   0  0  0  0  0  0  0  0  0  0  0  0
  148.9403  141.7193  157.0540 C   0  0  0  0  0  0  0  0  0  0  0  0
  153.7641  142.2929  159.3890 H   0  0  0  0  0  0  0  0  0  0  0  0
  152.6014  142.4431  160.7119 H   0  0  0  0  0  0  0  0  0  0  0  0
  154.0461  143.4420  160.6874 H   0  0  0  0  0  0  0  0  0  0  0  0
  153.2574  144.6676  158.7078 H   0  0  0  0  0  0  0  0  0  0  0  0
  150.0750  145.9011  160.4371 H   0  0  0  0  0  0  0  0  0  0  0  0
  150.9777  146.2967  158.9648 H   0  0  0  0  0  0  0  0  0  0  0  0
  149.6838  143.6405  159.6956 H   0  0  0  0  0  0  0  0  0  0  0  0
  149.3761  144.5587  158.2238 H   0  0  0  0  0  0  0  0  0  0  0  0
  150.7618  144.2316  156.6111 H   0  0  0  0  0  0  0  0  0  0  0  0
  152.1782  141.6190  157.9851 H   0  0  0  0  0  0  0  0  0  0  0  0
  150.8089  141.6333  159.0692 H   0  0  0  0  0  0  0  0  0  0  0  0
  151.7309  141.2046  155.5093 H   0  0  0  0  0  0  0  0  0  0  0  0
  144.9795  140.0336  155.3193 H   0  0  0  0  0  0  0  0  0  0  0  0
  145.0274  139.6609  153.5991 H   0  0  0  0  0  0  0  0  0  0  0  0
  144.6574  141.2999  154.1271 H   0  0  0  0  0  0  0  0  0  0  0  0
  147.9378  140.7235  152.6296 H   0  0  0  0  0  0  0  0  0  0  0  0
  148.4177  139.6686  153.9313 H   0  0  0  0  0  0  0  0  0  0  0  0
  145.9958  139.1796  152.1131 H   0  0  0  0  0  0  0  0  0  0  0  0
  148.5025  138.8883  151.7010 H   0  0  0  0  0  0  0  0  0  0  0  0
  147.2121  137.6543  154.4703 H   0  0  0  0  0  0  0  0  0  0  0  0
  145.5431  138.0237  154.2305 H   0  0  0  0  0  0  0  0  0  0  0  0
  144.2016  136.7469  152.6696 H   0  0  0  0  0  0  0  0  0  0  0  0
  145.2921  137.0755  151.3424 H   0  0  0  0  0  0  0  0  0  0  0  0
  143.9661  135.0089  150.9448 H   0  0  0  0  0  0  0  0  0  0  0  0
  145.6870  134.6658  150.9784 H   0  0  0  0  0  0  0  0  0  0  0  0
  145.4931  133.3016  154.3520 H   0  0  0  0  0  0  0  0  0  0  0  0
  146.6128  133.6384  153.0435 H   0  0  0  0  0  0  0  0  0  0  0  0
  146.8333  135.3630  154.8229 H   0  0  0  0  0  0  0  0  0  0  0  0
  145.1202  135.7076  154.7469 H   0  0  0  0  0  0  0  0  0  0  0  0
  146.0750  142.1518  158.4380 H   0  0  0  0  0  0  0  0  0  0  0  0
  1  2  1  0  0  0  0
  1 30  1  0  0  0  0
  1 31  1  0  0  0  0
  1 32  1  0  0  0  0
  2  6  1  0  0  0  0
  2  3  1  0  0  0  0
  2 33  1  0  0  0  0
  3  4  1  0  0  0  0
  4  5  1  0  0  0  0
  4 34  1  0  0  0  0
  4 35  1  0  0  0  0
  5  6  1  0  0  0  0
  5 36  1  0  0  0  0
  5 37  1  0  0  0  0
  6  7  1  0  0  0  0
  6  8  1  0  0  0  0
  7 38  1  0  0  0  0
  8  9  1  0  0  0  0
  8 39  1  0  0  0  0
  8 40  1  0  0  0  0
  9 29  1  0  0  0  0
  9 10  1  0  0  0  0
 10 11  2  0  0  0  0
 10 41  1  0  0  0  0
 11 12  1  0  0  0  0
 12 29  2  0  0  0  0
 12 13  1  0  0  0  0
 13 14  1  0  0  0  0
 13 26  2  0  0  0  0
 14 15  1  0  0  0  0
 14 16  1  0  0  0  0
 15 42  1  0  0  0  0
 15 43  1  0  0  0  0
 15 44  1  0  0  0  0
 16 17  1  0  0  0  0
 16 45  1  0  0  0  0
 16 46  1  0  0  0  0
 17 18  1  0  0  0  0
 17 19  1  0  0  0  0
 17 47  1  0  0  0  0
 18 48  1  0  0  0  0
 19 20  1  0  0  0  0
 19 49  1  0  0  0  0
 19 50  1  0  0  0  0
 20 25  1  0  0  0  0
 20 21  1  0  0  0  0
 21 22  1  0  0  0  0
 21 51  1  0  0  0  0
 21 52  1  0  0  0  0
 22 23  1  0  0  0  0
 22 53  1  0  0  0  0
 22 54  1  0  0  0  0
 23 24  1  0  0  0  0
 24 25  1  0  0  0  0
 24 55  1  0  0  0  0
 24 56  1  0  0  0  0
 25 57  1  0  0  0  0
 25 58  1  0  0  0  0
 26 27  1  0  0  0  0
 27 28  2  0  0  0  0
 27 59  1  0  0  0  0
 28 29  1  0  0  0  0
M  END
> <s_m_source_file>
AV-unprocessed.smi

> <i_m_source_file_index>
153

> <i_lp_mmshare_version>
43012

> <i_f3d_flags>
0

> <s_epik_input>
W0NIMl0xW0NIMl1PW0NAQEhdKFtDSDNdKVtDQEBdMShbT0hdKVtDSDJdbihbY0hdbjIpYyhjMjMpbltjSF1uYzNOKFtDSDNdKVtDSDJdW0NASF0oW09IXSlbQ0gyXU40W0NIMl1bQ0gyXU9bQ0gyXVtDSDJdNA==

> <s_epik_cmdline>
J2VwaWtfcHl0aG9uJywgJy1waCcsICc3LjAnLCAnLXRuJywgJzgnLCAnLW1hJywgJzIwMCcsICctbWV0YWxfYmluZGluZycsICctaW1hZScsICc8aW5maWxlLm1hZT4nLCAnLW9tYWUnLCAnPG91dGZpbGUubWFlPic=

> <r_lp_tautomer_probability>
1

> <r_epik_Ionization_Penalty>
0.424123

> <r_epik_Ionization_Penalty_Charging>
0

> <r_epik_Ionization_Penalty_Neutral>
0.424123

> <r_epik_State_Penalty>
0.421495

> <r_epik_Charging_Adjusted_Penalty>
0.421495

> <i_epik_Tot_Q>
0

> <i_epik_Tot_abs_Q>
0

> <r_epik_Metal_State_Penalty>
0.421223

> <b_epik_Metal_Only>
0

> <s_lp_Force_Field>
OPLS_2005

> <r_lp_Energy>
51.9128

> <b_lp_Chiralities_Consistent>
1

> <s_lp_Variant>
AV-unprocessed.smi:153-13

> <Gold.Version>
5.8.1

> <Gold.Id.Protein>
6NUR|6NUR_protein|mol2

> <Gold.PLP.Fitness>
47.4582

> <Gold.PLP.PLP>
-40.9757

> <Gold.PLP.part.hbond>
-3.9381

> <Gold.PLP.part.metal>
0.0000

> <Gold.PLP.part.buried>
-2.5318

> <Gold.PLP.part.nonpolar>
-35.8033

> <Gold.PLP.part.repulsive>
2.1734

> <Gold.PLP.ligand.clash>
0.0000

> <Gold.PLP.ligand.torsion>
0.8844

> <Gold.PLP.Chemscore.Hbond>
2.5059

> <Gold.PLP.Chemscore.CHOScore>
0.0000

> <Gold.PLP.Chemscore.Metal>
0.0000

> <Gold.Chemscore.Hbonds>
donor molecule, donor type, donor heavy atom, donor atom, acceptor molecule, acceptor atom, score
      L1  H     7    38       P1  8028  0.75
      L1  H    18    48       P1  7957  1.00
      P1  H  7954  7966       L1    18  0.20

> <Gold.PLP.Chemscore.Internal.Correction>
0.7336

> <Gold.Rescore>
     Score         DG    S(hbond)    S(metal)    S(lipo)     H(rot)  DE(clash)    DE(int)     intcor
     10.24     -14.15       1.91        0.00      96.63       3.52       1.76       2.15       ----

> <Gold.Chemscore.Fitness>
10.2377

> <Gold.Chemscore.DG>
-14.1463

> <Gold.Chemscore.ZeroCoef>
-5.4800

> <Gold.Chemscore.Hbond>
1.9054

> <Gold.Chemscore.Metal>
0.0000

> <Gold.Chemscore.Lipo>
96.6305

> <Gold.Chemscore.Internal_Hbond>
0.0000

> <Gold.Chemscore.DEClash>
1.7588

> <Gold.Chemscore.DEInternal>
2.1497

> <Gold.Chemscore.Rot>
3.5170

> <Gold.Chemscore.Internal.Correction>
   9.000000E+99

> <Gold.Chemscore.Hbonds>
donor molecule, donor type, donor heavy atom, donor atom, acceptor molecule, acceptor atom, score
      L1  H     7    38       P1  8028  0.75
      L1  H    18    48       P1  7957  0.74

> <Gold.Chemscore.Hbond.Weighted>
-6.3641

> <Gold.Chemscore.Metal.Weighted>
-0.0000

> <Gold.Chemscore.Lipo.Weighted>
-11.3058

> <Gold.Chemscore.Internal_Hbond.Weighted>
0.0000

> <Gold.Chemscore.DEClash.Weighted>
1.7588

> <Gold.Chemscore.DEInternal.Weighted>
2.1497

> <Gold.Chemscore.Rot.Weighted>
9.0036

> <Gold.Chemscore.Internal.Correction.Weighted>
   9.000000E+99

> <Gold.Protein.RotatedTorsions>
[ 6907 6896 6895 6894 ] final   90.89 input  -60.11 | X-H torsion
[ 7974 7965 7964 7962 ] final  -91.92 input  175.53 | X-H torsion
[ 8008 7997 7996 7995 ] final  108.01 input   59.86 | X-H torsion
[ 10167 10162 10161 10158 ] final  -17.80 input  -65.29 | X-H torsion
[ 10718 10713 10712 10709 ] final  -29.87 input   66.30 | X-H torsion
[ 10763 10752 10751 10750 ] final -125.74 input  -60.55 | X-H torsion
[ 11005 11000 10999 10996 ] final  -26.90 input  -57.11 | X-H torsion

> <Gold.Protein.ActiveResidues>
 VAL166  LYS551  ARG553  GLY616  TRP617  ASP618  TYR619  PRO620  LYS621  CYS622 
 ASP623  PHE694  ASN695  SER759  ASP760  ASP761  ALA762  ILE779  LEU786  VAL792 
 PHE793  MET794  SER795  GLU796  ALA797  LYS798  CYS799  TRP800  GLU811  SER814 

> <Gold.Protein.RotatedAtoms>
  152.5447  134.1742  159.8608 H   0  0  0  0  0  0  0  0  0  0  0  0  # atno 6907 bound_to 6896
  151.1749  133.4754  159.2601 H   0  0  0  0  0  0  0  0  0  0  0  0  # atno 6908 bound_to 6896
  151.1237  135.0104  159.8605 H   0  0  0  0  0  0  0  0  0  0  0  0  # atno 6909 bound_to 6896
  145.4067  140.9542  143.2257 H   0  0  0  0  0  0  0  0  0  0  0  0  # atno 7974 bound_to 7965
  156.1870  140.3084  155.9257 H   0  0  0  0  0  0  0  0  0  0  0  0  # atno 8008 bound_to 7997
  155.3259  140.0458  157.3058 H   0  0  0  0  0  0  0  0  0  0  0  0  # atno 8009 bound_to 7997
  154.5407  140.2260  155.8656 H   0  0  0  0  0  0  0  0  0  0  0  0  # atno 8010 bound_to 7997
  140.7251  143.4980  150.9906 H   0  0  0  0  0  0  0  0  0  0  0  0  # atno 10167 bound_to 10162
  156.4070  130.4401  149.7280 H   0  0  0  0  0  0  0  0  0  0  0  0  # atno 10718 bound_to 10713
  154.8739  135.4019  154.3317 H   0  0  0  0  0  0  0  0  0  0  0  0  # atno 10763 bound_to 10752
  153.4129  135.7021  153.6352 H   0  0  0  0  0  0  0  0  0  0  0  0  # atno 10764 bound_to 10752
  153.5047  135.3720  155.2527 H   0  0  0  0  0  0  0  0  0  0  0  0  # atno 10765 bound_to 10752
  140.9070  133.7486  156.0620 H   0  0  0  0  0  0  0  0  0  0  0  0  # atno 11005 bound_to 11000
  144.8337  139.5586  143.6932 LP  0  0  0  0  0  0  0  0  0  0  0  0  # atno 17320 bound_to 7965
  146.2725  139.6670  142.9286 LP  0  0  0  0  0  0  0  0  0  0  0  0  # atno 17321 bound_to 7965
  139.8688  143.7219  152.3168 LP  0  0  0  0  0  0  0  0  0  0  0  0  # atno 17342 bound_to 10162
  139.7461  144.7547  151.0578 LP  0  0  0  0  0  0  0  0  0  0  0  0  # atno 17343 bound_to 10162
  156.4274  130.7798  151.2817 LP  0  0  0  0  0  0  0  0  0  0  0  0  # atno 17370 bound_to 10713
  157.7506  131.0164  150.3544 LP  0  0  0  0  0  0  0  0  0  0  0  0  # atno 17371 bound_to 10713
  140.8158  134.3347  157.5397 LP  0  0  0  0  0  0  0  0  0  0  0  0  # atno 17394 bound_to 11000
  139.8751  134.9280  156.3440 LP  0  0  0  0  0  0  0  0  0  0  0  0  # atno 17395 bound_to 11000

$$$$
