AV-unprocessed.smi:3245|AV-procd|sdf|12407|dock7
  -GOLD-   2272018283D 1   1.00000     0.00000
 Structure written by MMmdl.
 35 36  0  0  0  0  0  0  0  0  3 V2000
  146.7692  138.9270  151.9967 C   0  0  0  0  0  0  0  0  0  0  0  0
  146.3197  137.8535  152.9967 C   0  0  1  0  0  0  0  0  0  0  0  0
  145.6838  136.6541  152.2605 C   0  0  0  0  0  0  0  0  0  0  0  0
  144.3578  136.3265  152.7530 N   0  0  0  0  0  0  0  0  0  0  0  0
  143.1961  137.0615  152.6460 C   0  0  0  0  0  0  0  0  0  0  0  0
  142.2136  136.3616  153.2857 C   0  0  0  0  0  0  0  0  0  0  0  0
  142.8790  135.1948  153.7551 C   0  0  0  0  0  0  0  0  0  0  0  0
  144.1621  135.1752  153.4317 N   0  0  0  0  0  0  0  0  0  0  0  0
  147.4775  137.4269  153.8154 N   0  3  0  0  0  0  0  0  0  0  0  0
  148.2935  138.5312  154.3590 C   0  0  0  0  0  0  0  0  0  0  0  0
  149.7099  138.5094  153.7688 C   0  0  0  0  0  0  0  0  0  0  0  0
  150.6682  139.1306  154.6860 N   0  0  0  0  0  0  0  0  0  0  0  0
  150.4861  140.3128  155.2812 C   0  0  0  0  0  0  0  0  0  0  0  0
  149.5269  141.0760  155.1673 O   0  0  0  0  0  0  0  0  0  0  0  0
  151.6851  140.5663  156.1648 C   0  0  0  0  0  0  0  0  0  0  0  0
  152.4773  139.3745  155.9587 N   0  5  0  0  0  0  0  0  0  0  0  0
  151.8271  138.5723  155.0846 C   0  0  0  0  0  0  0  0  0  0  0  0
  152.1950  137.4687  154.6829 O   0  0  0  0  0  0  0  0  0  0  0  0
  145.9289  139.2842  151.4007 H   0  0  0  0  0  0  0  0  0  0  0  0
  147.5229  138.5408  151.3094 H   0  0  0  0  0  0  0  0  0  0  0  0
  147.1966  139.7890  152.5103 H   0  0  0  0  0  0  0  0  0  0  0  0
  145.5705  138.3101  153.6464 H   0  0  0  0  0  0  0  0  0  0  0  0
  145.5986  136.8722  151.1953 H   0  0  0  0  0  0  0  0  0  0  0  0
  146.3208  135.7718  152.3443 H   0  0  0  0  0  0  0  0  0  0  0  0
  143.1668  138.0132  152.1363 H   0  0  0  0  0  0  0  0  0  0  0  0
  141.1772  136.6412  153.4043 H   0  0  0  0  0  0  0  0  0  0  0  0
  142.4716  134.3691  154.3197 H   0  0  0  0  0  0  0  0  0  0  0  0
  147.1319  136.8684  154.5830 H   0  0  0  0  0  0  0  0  0  0  0  0
  147.8021  139.4791  154.1361 H   0  0  0  0  0  0  0  0  0  0  0  0
  148.3498  138.4515  155.4443 H   0  0  0  0  0  0  0  0  0  0  0  0
  150.0138  137.4815  153.5631 H   0  0  0  0  0  0  0  0  0  0  0  0
  149.7223  139.0211  152.8049 H   0  0  0  0  0  0  0  0  0  0  0  0
  152.1913  141.4799  155.8510 H   0  0  0  0  0  0  0  0  0  0  0  0
  151.3633  140.6965  157.1984 H   0  0  0  0  0  0  0  0  0  0  0  0
  148.0819  136.8528  153.2454 H   0  0  0  0  0  0  0  0  0  0  0  0
  1  2  1  0  0  0  0
  1 19  1  0  0  0  0
  1 20  1  0  0  0  0
  1 21  1  0  0  0  0
  2  3  1  0  0  0  0
  2  9  1  0  0  0  0
  2 22  1  0  0  0  0
  3  4  1  0  0  0  0
  3 23  1  0  0  0  0
  3 24  1  0  0  0  0
  4  8  1  0  0  0  0
  4  5  1  0  0  0  0
  5  6  2  0  0  0  0
  5 25  1  0  0  0  0
  6  7  1  0  0  0  0
  6 26  1  0  0  0  0
  7  8  2  0  0  0  0
  7 27  1  0  0  0  0
  9 10  1  0  0  0  0
  9 28  1  0  0  0  0
  9 35  1  0  0  0  0
 10 11  1  0  0  0  0
 10 29  1  0  0  0  0
 10 30  1  0  0  0  0
 11 12  1  0  0  0  0
 11 31  1  0  0  0  0
 11 32  1  0  0  0  0
 12 17  1  0  0  0  0
 12 13  1  0  0  0  0
 13 14  2  0  0  0  0
 13 15  1  0  0  0  0
 15 16  1  0  0  0  0
 15 33  1  0  0  0  0
 15 34  1  0  0  0  0
 16 17  1  0  0  0  0
 17 18  2  0  0  0  0
M  CHG  1   9   1
M  CHG  1  16  -1
M  END
> <s_m_source_file>
AV-unprocessed.smi

> <i_m_source_file_index>
3245

> <i_lp_mmshare_version>
43012

> <i_f3d_flags>
0

> <s_epik_input>
bjFbY0hdW2NIXVtjSF1uMVtDSDJdW0NAQEhdKFtDSDNdKVtOSF1bQ0gyXVtDSDJdTjJDKD1PKVtDSDJdW05IXUMyPU8=

> <s_epik_cmdline>
J2VwaWtfcHl0aG9uJywgJy1waCcsICc3LjAnLCAnLXRuJywgJzgnLCAnLW1hJywgJzIwMCcsICctbWV0YWxfYmluZGluZycsICctaW1hZScsICc8aW5maWxlLm1hZT4nLCAnLW9tYWUnLCAnPG91dGZpbGUubWFlPic=

> <r_lp_tautomer_probability>
1

> <r_epik_Ionization_Penalty>
5.1873

> <r_epik_Ionization_Penalty_Charging>
5.18729

> <r_epik_Ionization_Penalty_Neutral>
3.83745e-06

> <r_epik_State_Penalty>
5.18822

> <r_epik_Charging_Adjusted_Penalty>
10.3755

> <i_epik_Tot_Q>
0

> <i_epik_Tot_abs_Q>
2

> <r_epik_Metal_State_Penalty>
1.25934

> <b_epik_Metal_Only>
1

> <s_lp_Force_Field>
OPLS_2005

> <r_lp_Energy>
10.2516

> <b_lp_Chiralities_Consistent>
1

> <s_lp_Variant>
AV-unprocessed.smi:3245-6

> <Gold.Version>
5.8.1

> <Gold.Id.Protein>
6NUR|6NUR_protein|mol2

> <Gold.PLP.Fitness>
50.1266

> <Gold.PLP.PLP>
-29.8521

> <Gold.PLP.part.hbond>
-2.9864

> <Gold.PLP.part.metal>
0.0000

> <Gold.PLP.part.buried>
-0.5537

> <Gold.PLP.part.nonpolar>
-27.0989

> <Gold.PLP.part.repulsive>
0.2613

> <Gold.PLP.ligand.clash>
0.0000

> <Gold.PLP.ligand.torsion>
1.4779

> <Gold.PLP.Chemscore.Hbond>
4.7454

> <Gold.PLP.Chemscore.CHOScore>
2.9719

> <Gold.PLP.Chemscore.Metal>
0.0000

> <Gold.Chemscore.Hbonds>
donor molecule, donor type, donor heavy atom, donor atom, acceptor molecule, acceptor atom, score
      L1  H     9    35       P1  7948  2.00
      P1  H  7997  8010       L1    16  1.98
      P1  H 10752 10765       L1    18  0.77
      L1  C     5    25       P1 10171  1.00
      L1  C     5    25       P1 10175  1.00
      L1  C     7    27       P1 10957  0.72

> <Gold.PLP.Chemscore.Internal.Correction>
0.0782

> <Gold.Rescore>
     Score         DG    S(hbond)    S(metal)    S(lipo)     H(rot)  DE(clash)    DE(int)     intcor
      8.60     -11.77       2.15        0.00      50.64       2.66       0.16       3.01       ----

> <Gold.Chemscore.Fitness>
8.5971

> <Gold.Chemscore.DG>
-11.7672

> <Gold.Chemscore.ZeroCoef>
-5.4800

> <Gold.Chemscore.Hbond>
2.1473

> <Gold.Chemscore.Metal>
0.0000

> <Gold.Chemscore.Lipo>
50.6405

> <Gold.Chemscore.Internal_Hbond>
0.0000

> <Gold.Chemscore.DEClash>
0.1564

> <Gold.Chemscore.DEInternal>
3.0137

> <Gold.Chemscore.Rot>
2.6601

> <Gold.Chemscore.Internal.Correction>
   9.000000E+99

> <Gold.Chemscore.Hbonds>
donor molecule, donor type, donor heavy atom, donor atom, acceptor molecule, acceptor atom, score
      L1  H     9    35       P1  7948  1.00
      P1  H  7997  8010       L1    16  0.24
      P1  H 10752 10765       L1    18  0.76

> <Gold.Chemscore.Hbond.Weighted>
-7.1721

> <Gold.Chemscore.Metal.Weighted>
-0.0000

> <Gold.Chemscore.Lipo.Weighted>
-5.9249

> <Gold.Chemscore.Internal_Hbond.Weighted>
0.0000

> <Gold.Chemscore.DEClash.Weighted>
0.1564

> <Gold.Chemscore.DEInternal.Weighted>
3.0137

> <Gold.Chemscore.Rot.Weighted>
6.8098

> <Gold.Chemscore.Internal.Correction.Weighted>
   9.000000E+99

> <Gold.Protein.RotatedTorsions>
[ 6907 6896 6895 6894 ] final -178.18 input  -60.11 | X-H torsion
[ 7974 7965 7964 7962 ] final    5.32 input  175.53 | X-H torsion
[ 8008 7997 7996 7995 ] final   81.81 input   59.86 | X-H torsion
[ 10167 10162 10161 10158 ] final   15.87 input  -65.29 | X-H torsion
[ 10718 10713 10712 10709 ] final -122.61 input   66.30 | X-H torsion
[ 10763 10752 10751 10750 ] final  166.75 input  -60.55 | X-H torsion
[ 11005 11000 10999 10996 ] final -146.21 input  -57.11 | X-H torsion

> <Gold.Protein.ActiveResidues>
 VAL166  LYS551  ARG553  GLY616  TRP617  ASP618  TYR619  PRO620  LYS621  CYS622 
 ASP623  PHE694  ASN695  SER759  ASP760  ASP761  ALA762  ILE779  LEU786  VAL792 
 PHE793  MET794  SER795  GLU796  ALA797  LYS798  CYS799  TRP800  GLU811  SER814 

> <Gold.Protein.RotatedAtoms>
  151.6330  133.3331  159.3112 H   0  0  0  0  0  0  0  0  0  0  0  0  # atno 6907 bound_to 6896
  150.8047  134.7167  159.6644 H   0  0  0  0  0  0  0  0  0  0  0  0  # atno 6908 bound_to 6896
  152.4141  134.6077  160.0068 H   0  0  0  0  0  0  0  0  0  0  0  0  # atno 6909 bound_to 6896
  146.2441  140.0401  142.8383 H   0  0  0  0  0  0  0  0  0  0  0  0  # atno 7974 bound_to 7965
  155.9021  140.3432  155.6034 H   0  0  0  0  0  0  0  0  0  0  0  0  # atno 8008 bound_to 7997
  155.7487  140.0817  157.2230 H   0  0  0  0  0  0  0  0  0  0  0  0  # atno 8009 bound_to 7997
  154.4045  140.1557  156.2687 H   0  0  0  0  0  0  0  0  0  0  0  0  # atno 8010 bound_to 7997
  140.5837  143.8932  150.6811 H   0  0  0  0  0  0  0  0  0  0  0  0  # atno 10167 bound_to 10162
  156.1433  130.6482  150.9804 H   0  0  0  0  0  0  0  0  0  0  0  0  # atno 10718 bound_to 10713
  154.3436  135.2754  155.2410 H   0  0  0  0  0  0  0  0  0  0  0  0  # atno 10763 bound_to 10752
  154.4669  135.5893  153.6298 H   0  0  0  0  0  0  0  0  0  0  0  0  # atno 10764 bound_to 10752
  152.9855  135.6079  154.3639 H   0  0  0  0  0  0  0  0  0  0  0  0  # atno 10765 bound_to 10752
  140.7843  134.3042  157.5035 H   0  0  0  0  0  0  0  0  0  0  0  0  # atno 11005 bound_to 11000
  145.1077  140.9385  143.4675 LP  0  0  0  0  0  0  0  0  0  0  0  0  # atno 17320 bound_to 7965
  145.0608  139.3107  143.5881 LP  0  0  0  0  0  0  0  0  0  0  0  0  # atno 17321 bound_to 7965
  140.2437  143.3644  152.1465 LP  0  0  0  0  0  0  0  0  0  0  0  0  # atno 17342 bound_to 10162
  139.5185  144.7006  151.5504 LP  0  0  0  0  0  0  0  0  0  0  0  0  # atno 17343 bound_to 10162
  157.6595  131.0883  150.7871 LP  0  0  0  0  0  0  0  0  0  0  0  0  # atno 17370 bound_to 10713
  156.7945  130.4901  149.5379 LP  0  0  0  0  0  0  0  0  0  0  0  0  # atno 17371 bound_to 10713
  139.8738  134.9337  156.3588 LP  0  0  0  0  0  0  0  0  0  0  0  0  # atno 17394 bound_to 11000
  140.9452  133.7488  156.0198 LP  0  0  0  0  0  0  0  0  0  0  0  0  # atno 17395 bound_to 11000

$$$$
