AV-unprocessed.smi:793|AV-procd|sdf|3753|dock3
  -GOLD-   22720 1183D 1   1.00000     0.00000
 Structure written by MMmdl.
 39 40  0  0  0  0  0  0  0  0  1 V2000
  150.0553  137.9636  158.3307 C   0  0  0  0  0  0  0  0  0  0  0  0
  151.5034  137.4632  158.4032 C   0  0  0  0  0  0  0  0  0  0  0  0
  152.3240  138.1712  159.4976 C   0  0  1  0  0  0  0  0  0  0  0  0
  153.4678  137.3647  159.7756 O   0  0  0  0  0  0  0  0  0  0  0  0
  153.8728  137.2888  161.1410 C   0  0  0  0  0  0  0  0  0  0  0  0
  154.2958  138.6745  161.6415 C   0  0  0  0  0  0  0  0  0  0  0  0
  155.7426  138.8675  161.1671 C   0  0  0  0  0  0  0  0  0  0  0  0
  156.2638  137.4753  160.7821 C   0  0  0  0  0  0  0  0  0  0  0  0
  155.1721  136.4861  161.1984 C   0  0  0  0  0  0  0  0  0  0  0  0
  152.7581  139.5784  159.0540 C   0  0  0  0  0  0  0  0  0  0  0  0
  153.9561  139.8285  158.9253 O   0  0  0  0  0  0  0  0  0  0  0  0
  151.7540  140.4524  158.8450 N   0  0  0  0  0  0  0  0  0  0  0  0
  151.8071  141.8031  158.4638 C   0  0  0  0  0  0  0  0  0  0  0  0
  151.1152  142.3706  157.4423 C   0  0  0  0  0  0  0  0  0  0  0  0
  151.2028  143.7131  157.1020 N   0  0  0  0  0  0  0  0  0  0  0  0
  152.0400  144.5379  157.8357 C   0  0  0  0  0  0  0  0  0  0  0  0
  152.7839  144.1012  158.8708 C   0  0  0  0  0  0  0  0  0  0  0  0
  152.7173  142.6744  159.2594 C   0  0  0  0  0  0  0  0  0  0  0  0
  153.3871  142.2411  160.1968 O   0  0  0  0  0  0  0  0  0  0  0  0
  149.5079  137.4521  157.5388 H   0  0  0  0  0  0  0  0  0  0  0  0
  150.0181  139.0333  158.1236 H   0  0  0  0  0  0  0  0  0  0  0  0
  149.5278  137.7850  159.2682 H   0  0  0  0  0  0  0  0  0  0  0  0
  151.5024  136.3857  158.5742 H   0  0  0  0  0  0  0  0  0  0  0  0
  151.9740  137.6192  157.4312 H   0  0  0  0  0  0  0  0  0  0  0  0
  151.7060  138.2455  160.3949 H   0  0  0  0  0  0  0  0  0  0  0  0
  153.1074  136.8349  161.7729 H   0  0  0  0  0  0  0  0  0  0  0  0
  153.6372  139.4738  161.3017 H   0  0  0  0  0  0  0  0  0  0  0  0
  154.2741  138.6816  162.7320 H   0  0  0  0  0  0  0  0  0  0  0  0
  155.7775  139.5313  160.3024 H   0  0  0  0  0  0  0  0  0  0  0  0
  156.3506  139.3211  161.9506 H   0  0  0  0  0  0  0  0  0  0  0  0
  156.4083  137.4274  159.7021 H   0  0  0  0  0  0  0  0  0  0  0  0
  157.2214  137.2462  161.2501 H   0  0  0  0  0  0  0  0  0  0  0  0
  155.3511  136.1599  162.2237 H   0  0  0  0  0  0  0  0  0  0  0  0
  155.1473  135.5956  160.5695 H   0  0  0  0  0  0  0  0  0  0  0  0
  150.8191  140.0924  158.9735 H   0  0  0  0  0  0  0  0  0  0  0  0
  150.4379  141.8344  156.7980 H   0  0  0  0  0  0  0  0  0  0  0  0
  152.0469  145.5667  157.5065 H   0  0  0  0  0  0  0  0  0  0  0  0
  153.4281  144.7686  159.4242 H   0  0  0  0  0  0  0  0  0  0  0  0
  150.6637  144.0823  156.3312 H   0  0  0  0  0  0  0  0  0  0  0  0
  1  2  1  0  0  0  0
  1 20  1  0  0  0  0
  1 21  1  0  0  0  0
  1 22  1  0  0  0  0
  2  3  1  0  0  0  0
  2 23  1  0  0  0  0
  2 24  1  0  0  0  0
  3  4  1  0  0  0  0
  3 10  1  0  0  0  0
  3 25  1  0  0  0  0
  4  5  1  0  0  0  0
  5  9  1  0  0  0  0
  5  6  1  0  0  0  0
  5 26  1  0  0  0  0
  6  7  1  0  0  0  0
  6 27  1  0  0  0  0
  6 28  1  0  0  0  0
  7  8  1  0  0  0  0
  7 29  1  0  0  0  0
  7 30  1  0  0  0  0
  8  9  1  0  0  0  0
  8 31  1  0  0  0  0
  8 32  1  0  0  0  0
  9 33  1  0  0  0  0
  9 34  1  0  0  0  0
 10 11  2  0  0  0  0
 10 12  1  0  0  0  0
 12 35  1  0  0  0  0
 12 13  1  0  0  0  0
 13 18  1  0  0  0  0
 13 14  2  0  0  0  0
 14 36  1  0  0  0  0
 14 15  1  0  0  0  0
 15 39  1  0  0  0  0
 15 16  1  0  0  0  0
 16 37  1  0  0  0  0
 16 17  2  0  0  0  0
 17 18  1  0  0  0  0
 17 38  1  0  0  0  0
 18 19  2  0  0  0  0
M  END
> <s_m_source_file>
AV-unprocessed.smi

> <i_m_source_file_index>
793

> <i_lp_mmshare_version>
43012

> <i_f3d_flags>
0

> <s_epik_input>
W0NIMl0xW0NIMl1bQ0gyXVtDSDJdW0NIXTFPW0NAQEhdKFtDSDJdW0NIM10pQyg9TylbTkhdYzJbY0hdbltjSF1bY0hdYzJbT0hd

> <s_epik_cmdline>
J2VwaWtfcHl0aG9uJywgJy1waCcsICc3LjAnLCAnLXRuJywgJzgnLCAnLW1hJywgJzIwMCcsICctbWV0YWxfYmluZGluZycsICctaW1hZScsICc8aW5maWxlLm1hZT4nLCAnLW9tYWUnLCAnPG91dGZpbGUubWFlPic=

> <r_lp_tautomer_probability>
1

> <r_epik_Ionization_Penalty>
0.000234492

> <r_epik_Ionization_Penalty_Charging>
0.000234447

> <r_epik_Ionization_Penalty_Neutral>
4.48517e-08

> <r_epik_State_Penalty>
-0

> <r_epik_Charging_Adjusted_Penalty>
0.000234447

> <i_epik_Tot_Q>
0

> <i_epik_Tot_abs_Q>
0

> <r_epik_Metal_State_Penalty>
0.110344

> <b_epik_Metal_Only>
0

> <s_lp_Force_Field>
OPLS_2005

> <r_lp_Energy>
26.0672

> <b_lp_Chiralities_Consistent>
1

> <s_lp_Variant>
AV-unprocessed.smi:793-2

> <Gold.Version>
5.8.1

> <Gold.Id.Protein>
6NUR|6NUR_protein|mol2

> <Gold.PLP.Fitness>
37.0550

> <Gold.PLP.PLP>
-33.2491

> <Gold.PLP.part.hbond>
-2.0000

> <Gold.PLP.part.metal>
0.0000

> <Gold.PLP.part.buried>
-5.9435

> <Gold.PLP.part.nonpolar>
-25.4615

> <Gold.PLP.part.repulsive>
0.1633

> <Gold.PLP.ligand.clash>
0.0000

> <Gold.PLP.ligand.torsion>
1.1543

> <Gold.PLP.Chemscore.Hbond>
2.0000

> <Gold.PLP.Chemscore.CHOScore>
0.0000

> <Gold.PLP.Chemscore.Metal>
0.0000

> <Gold.Chemscore.Hbonds>
donor molecule, donor type, donor heavy atom, donor atom, acceptor molecule, acceptor atom, score
      L1  H    15    39       P1  8028  0.96
      P1  H  7997  8009       L1    11  1.00

> <Gold.PLP.Chemscore.Internal.Correction>
0.1146

> <Gold.Rescore>
     Score         DG    S(hbond)    S(metal)    S(lipo)     H(rot)  DE(clash)    DE(int)     intcor
     16.11     -17.79       1.98        0.00      83.79       1.61       0.00       1.68       ----

> <Gold.Chemscore.Fitness>
16.1083

> <Gold.Chemscore.DG>
-17.7862

> <Gold.Chemscore.ZeroCoef>
-5.4800

> <Gold.Chemscore.Hbond>
1.9805

> <Gold.Chemscore.Metal>
0.0000

> <Gold.Chemscore.Lipo>
83.7872

> <Gold.Chemscore.Internal_Hbond>
0.0000

> <Gold.Chemscore.DEClash>
0.0021

> <Gold.Chemscore.DEInternal>
1.6758

> <Gold.Chemscore.Rot>
1.6061

> <Gold.Chemscore.Internal.Correction>
   9.000000E+99

> <Gold.Chemscore.Hbonds>
donor molecule, donor type, donor heavy atom, donor atom, acceptor molecule, acceptor atom, score
      L1  H    15    39       P1  8028  0.90
      P1  H  7997  8009       L1    11  0.98

> <Gold.Chemscore.Hbond.Weighted>
-6.6147

> <Gold.Chemscore.Metal.Weighted>
-0.0000

> <Gold.Chemscore.Lipo.Weighted>
-9.8031

> <Gold.Chemscore.Internal_Hbond.Weighted>
0.0000

> <Gold.Chemscore.DEClash.Weighted>
0.0021

> <Gold.Chemscore.DEInternal.Weighted>
1.6758

> <Gold.Chemscore.Rot.Weighted>
4.1116

> <Gold.Chemscore.Internal.Correction.Weighted>
   9.000000E+99

> <Gold.Protein.RotatedTorsions>
[ 6907 6896 6895 6894 ] final  172.99 input  -60.11 | X-H torsion
[ 7974 7965 7964 7962 ] final -105.46 input  175.53 | X-H torsion
[ 8008 7997 7996 7995 ] final  131.51 input   59.86 | X-H torsion
[ 10167 10162 10161 10158 ] final -127.49 input  -65.29 | X-H torsion
[ 10718 10713 10712 10709 ] final -125.86 input   66.30 | X-H torsion
[ 10763 10752 10751 10750 ] final  -76.86 input  -60.55 | X-H torsion
[ 11005 11000 10999 10996 ] final   92.43 input  -57.11 | X-H torsion

> <Gold.Protein.ActiveResidues>
 VAL166  LYS551  ARG553  GLY616  TRP617  ASP618  TYR619  PRO620  LYS621  CYS622 
 ASP623  PHE694  ASN695  SER759  ASP760  ASP761  ALA762  ILE779  LEU786  VAL792 
 PHE793  MET794  SER795  GLU796  ALA797  LYS798  CYS799  TRP800  GLU811  SER814 

> <Gold.Protein.RotatedAtoms>
  151.7755  133.3345  159.3456 H   0  0  0  0  0  0  0  0  0  0  0  0  # atno 6907 bound_to 6896
  150.7446  134.5979  159.6031 H   0  0  0  0  0  0  0  0  0  0  0  0  # atno 6908 bound_to 6896
  152.3312  134.7258  160.0340 H   0  0  0  0  0  0  0  0  0  0  0  0  # atno 6909 bound_to 6896
  145.2302  140.9168  143.3209 H   0  0  0  0  0  0  0  0  0  0  0  0  # atno 7974 bound_to 7965
  156.2971  140.2569  156.2937 H   0  0  0  0  0  0  0  0  0  0  0  0  # atno 8008 bound_to 7997
  154.9485  140.0395  157.2151 H   0  0  0  0  0  0  0  0  0  0  0  0  # atno 8009 bound_to 7997
  154.8059  140.2836  155.5892 H   0  0  0  0  0  0  0  0  0  0  0  0  # atno 8010 bound_to 7997
  139.9603  143.5957  152.2447 H   0  0  0  0  0  0  0  0  0  0  0  0  # atno 10167 bound_to 10162
  156.1713  130.6670  151.0184 H   0  0  0  0  0  0  0  0  0  0  0  0  # atno 10718 bound_to 10713
  154.5054  135.5783  153.6563 H   0  0  0  0  0  0  0  0  0  0  0  0  # atno 10763 bound_to 10752
  152.9886  135.6146  154.2948 H   0  0  0  0  0  0  0  0  0  0  0  0  # atno 10764 bound_to 10752
  154.2859  135.2850  155.2656 H   0  0  0  0  0  0  0  0  0  0  0  0  # atno 10765 bound_to 10752
  139.8823  134.8732  156.3571 H   0  0  0  0  0  0  0  0  0  0  0  0  # atno 11005 bound_to 11000
  144.9683  139.3906  143.6321 LP  0  0  0  0  0  0  0  0  0  0  0  0  # atno 17320 bound_to 7965
  146.3355  139.8769  142.8830 LP  0  0  0  0  0  0  0  0  0  0  0  0  # atno 17321 bound_to 7965
  139.6559  144.7662  151.2057 LP  0  0  0  0  0  0  0  0  0  0  0  0  # atno 17342 bound_to 10162
  140.7555  143.6087  150.8627 LP  0  0  0  0  0  0  0  0  0  0  0  0  # atno 17343 bound_to 10162
  157.6805  131.0839  150.7382 LP  0  0  0  0  0  0  0  0  0  0  0  0  # atno 17370 bound_to 10713
  156.7441  130.4748  149.5471 LP  0  0  0  0  0  0  0  0  0  0  0  0  # atno 17371 bound_to 10713
  140.9554  133.7423  156.0329 LP  0  0  0  0  0  0  0  0  0  0  0  0  # atno 17394 bound_to 11000
  140.8054  134.3460  157.5427 LP  0  0  0  0  0  0  0  0  0  0  0  0  # atno 17395 bound_to 11000

$$$$
