AV-unprocessed.smi:244|AV-procd|sdf|1869|dock4
  -GOLD-   2262020503D 1   1.00000     0.00000
 Structure written by MMmdl.
 57 61  0  0  0  0  0  0  0  0  2 V2000
  151.7953  143.6975  156.4846 C   0  0  0  0  0  0  0  0  0  0  0  0
  150.9043  143.8970  157.6510 N   0  3  2  0  0  0  0  0  0  0  0  0
  151.4679  144.7959  158.6890 C   0  0  0  0  0  0  0  0  0  0  0  0
  152.5232  144.0846  159.5507 C   0  0  0  0  0  0  0  0  0  0  0  0
  151.9367  142.8107  160.1908 C   0  0  2  0  0  0  0  0  0  0  0  0
  152.8833  142.1276  161.0134 O   0  0  0  0  0  0  0  0  0  0  0  0
  153.9267  141.4725  160.2982 C   0  0  0  0  0  0  0  0  0  0  0  0
  153.3256  140.4703  159.3050 C   0  0  0  0  0  0  0  0  0  0  0  0
  152.3760  141.1313  158.4178 N   0  0  0  0  0  0  0  0  0  0  0  0
  151.9947  140.2878  157.4295 C   0  0  0  0  0  0  0  0  0  0  0  0
  152.8700  139.9295  156.4531 N   0  0  0  0  0  0  0  0  0  0  0  0
  152.4810  139.1020  155.4780 C   0  0  0  0  0  0  0  0  0  0  0  0
  151.2890  138.5296  155.2951 N   0  0  0  0  0  0  0  0  0  0  0  0
  150.4080  138.8955  156.2701 C   0  0  0  0  0  0  0  0  0  0  0  0
  150.6751  139.7700  157.3594 C   0  0  0  0  0  0  0  0  0  0  0  0
  149.5396  139.9171  158.1452 N   0  0  0  0  0  0  0  0  0  0  0  0
  148.6489  139.1681  157.5541 C   0  0  0  0  0  0  0  0  0  0  0  0
  149.0899  138.5067  156.4293 N   0  0  0  0  0  0  0  0  0  0  0  0
  148.3180  137.6013  155.5926 C   0  0  0  0  0  0  0  0  0  0  0  0
  148.7358  136.1153  155.7243 C   0  0  0  0  0  0  0  0  0  0  0  0
  148.2747  135.4296  154.5729 O   0  0  0  0  0  0  0  0  0  0  0  0
  150.2673  135.9333  155.8130 C   0  0  0  0  0  0  0  0  0  0  0  0
  150.6600  134.4854  156.1572 C   0  0  0  0  0  0  0  0  0  0  0  0
  150.0161  134.0753  157.3571 O   0  0  0  0  0  0  0  0  0  0  0  0
  148.5987  134.0594  157.2401 C   0  0  0  0  0  0  0  0  0  0  0  0
  148.0783  135.4819  156.9670 C   0  0  0  0  0  0  0  0  0  0  0  0
  151.3220  141.8593  159.1361 C   0  0  2  0  0  0  0  0  0  0  0  0
  150.3400  142.6419  158.2167 C   0  0  0  0  0  0  0  0  0  0  0  0
  152.7440  143.2436  156.7670 H   0  0  0  0  0  0  0  0  0  0  0  0
  152.0132  144.6533  156.0077 H   0  0  0  0  0  0  0  0  0  0  0  0
  151.3201  143.0581  155.7399 H   0  0  0  0  0  0  0  0  0  0  0  0
  151.8918  145.6858  158.2222 H   0  0  0  0  0  0  0  0  0  0  0  0
  150.6522  145.1427  159.3246 H   0  0  0  0  0  0  0  0  0  0  0  0
  153.3900  143.8536  158.9335 H   0  0  0  0  0  0  0  0  0  0  0  0
  152.8760  144.7592  160.3312 H   0  0  0  0  0  0  0  0  0  0  0  0
  151.1352  143.1272  160.8596 H   0  0  0  0  0  0  0  0  0  0  0  0
  154.5667  142.1924  159.7889 H   0  0  0  0  0  0  0  0  0  0  0  0
  154.5622  140.9494  161.0129 H   0  0  0  0  0  0  0  0  0  0  0  0
  154.1255  140.0041  158.7274 H   0  0  0  0  0  0  0  0  0  0  0  0
  152.8160  139.6724  159.8479 H   0  0  0  0  0  0  0  0  0  0  0  0
  153.2323  138.8630  154.7399 H   0  0  0  0  0  0  0  0  0  0  0  0
  147.6415  139.0662  157.9309 H   0  0  0  0  0  0  0  0  0  0  0  0
  147.2659  137.7173  155.8573 H   0  0  0  0  0  0  0  0  0  0  0  0
  148.4070  137.9317  154.5566 H   0  0  0  0  0  0  0  0  0  0  0  0
  148.6697  135.8232  153.8096 H   0  0  0  0  0  0  0  0  0  0  0  0
  150.7493  136.2276  154.8801 H   0  0  0  0  0  0  0  0  0  0  0  0
  150.6631  136.5933  156.5861 H   0  0  0  0  0  0  0  0  0  0  0  0
  150.4049  133.8053  155.3430 H   0  0  0  0  0  0  0  0  0  0  0  0
  151.7388  134.4163  156.2976 H   0  0  0  0  0  0  0  0  0  0  0  0
  148.2937  133.3691  156.4522 H   0  0  0  0  0  0  0  0  0  0  0  0
  148.1755  133.6814  158.1711 H   0  0  0  0  0  0  0  0  0  0  0  0
  148.2930  136.0983  157.8410 H   0  0  0  0  0  0  0  0  0  0  0  0
  146.9926  135.4695  156.8629 H   0  0  0  0  0  0  0  0  0  0  0  0
  150.7421  141.1096  159.6772 H   0  0  0  0  0  0  0  0  0  0  0  0
  149.4771  142.9308  158.8178 H   0  0  0  0  0  0  0  0  0  0  0  0
  149.9328  142.0229  157.4175 H   0  0  0  0  0  0  0  0  0  0  0  0
  150.1096  144.3924  157.2722 H   0  0  0  0  0  0  0  0  0  0  0  0
  1  2  1  0  0  0  0
  1 29  1  0  0  0  0
  1 30  1  0  0  0  0
  1 31  1  0  0  0  0
  2 28  1  0  0  0  0
  2  3  1  0  0  0  0
  2 57  1  0  0  0  0
  3  4  1  0  0  0  0
  3 32  1  0  0  0  0
  3 33  1  0  0  0  0
  4  5  1  0  0  0  0
  4 34  1  0  0  0  0
  4 35  1  0  0  0  0
  5 27  1  0  0  0  0
  5  6  1  0  0  0  0
  5 36  1  0  0  0  0
  6  7  1  0  0  0  0
  7  8  1  0  0  0  0
  7 37  1  0  0  0  0
  7 38  1  0  0  0  0
  8  9  1  0  0  0  0
  8 39  1  0  0  0  0
  8 40  1  0  0  0  0
  9 10  1  0  0  0  0
  9 27  1  0  0  0  0
 10 15  1  0  0  0  0
 10 11  2  0  0  0  0
 11 12  1  0  0  0  0
 12 13  2  0  0  0  0
 12 41  1  0  0  0  0
 13 14  1  0  0  0  0
 14 18  1  0  0  0  0
 14 15  2  0  0  0  0
 15 16  1  0  0  0  0
 16 17  2  0  0  0  0
 17 18  1  0  0  0  0
 17 42  1  0  0  0  0
 18 19  1  0  0  0  0
 19 20  1  0  0  0  0
 19 43  1  0  0  0  0
 19 44  1  0  0  0  0
 20 26  1  0  0  0  0
 20 21  1  0  0  0  0
 20 22  1  0  0  0  0
 21 45  1  0  0  0  0
 22 23  1  0  0  0  0
 22 46  1  0  0  0  0
 22 47  1  0  0  0  0
 23 24  1  0  0  0  0
 23 48  1  0  0  0  0
 23 49  1  0  0  0  0
 24 25  1  0  0  0  0
 25 26  1  0  0  0  0
 25 50  1  0  0  0  0
 25 51  1  0  0  0  0
 26 52  1  0  0  0  0
 26 53  1  0  0  0  0
 27 28  1  0  0  0  0
 27 54  1  0  0  0  0
 28 55  1  0  0  0  0
 28 56  1  0  0  0  0
M  CHG  1   2   1
M  END
> <s_m_source_file>
AV-unprocessed.smi

> <i_m_source_file_index>
244

> <i_lp_mmshare_version>
43012

> <i_f3d_flags>
0

> <s_epik_input>
W0NIMl0xW0NIMl1OKFtDSDNdKVtDSDJdW0NAQEhdKFtDQEhdMTIpTihbQ0gyXVtDSDJdTzIpYyhuW2NIXW4zKWMoYzM0KW5bY0hdbjRbQ0gyXUM1KFtPSF0pW0NIMl1bQ0gyXU9bQ0gyXVtDSDJdNQ==

> <s_epik_cmdline>
J2VwaWtfcHl0aG9uJywgJy1waCcsICc3LjAnLCAnLXRuJywgJzgnLCAnLW1hJywgJzIwMCcsICctbWV0YWxfYmluZGluZycsICctaW1hZScsICc8aW5maWxlLm1hZT4nLCAnLW9tYWUnLCAnPG91dGZpbGUubWFlPic=

> <r_lp_tautomer_probability>
1

> <r_epik_Ionization_Penalty>
0.0136215

> <r_epik_Ionization_Penalty_Charging>
0.0131385

> <r_epik_Ionization_Penalty_Neutral>
0.000483022

> <r_epik_State_Penalty>
0.0104001

> <r_epik_Charging_Adjusted_Penalty>
0.0235387

> <i_epik_Tot_Q>
1

> <i_epik_Tot_abs_Q>
1

> <r_epik_Metal_State_Penalty>
0.0104469

> <b_epik_Metal_Only>
0

> <s_lp_Force_Field>
OPLS_2005

> <r_lp_Energy>
50.9375

> <b_lp_Chiralities_Consistent>
1

> <s_lp_Variant>
AV-unprocessed.smi:244-6

> <Gold.Version>
5.8.1

> <Gold.Id.Protein>
6NUR|6NUR_protein|mol2

> <Gold.PLP.Fitness>
47.3194

> <Gold.PLP.PLP>
-33.8615

> <Gold.PLP.part.hbond>
-3.8141

> <Gold.PLP.part.metal>
0.0000

> <Gold.PLP.part.buried>
-4.5576

> <Gold.PLP.part.nonpolar>
-25.8385

> <Gold.PLP.part.repulsive>
0.0798

> <Gold.PLP.ligand.clash>
0.0000

> <Gold.PLP.ligand.torsion>
0.7927

> <Gold.PLP.Chemscore.Hbond>
4.9658

> <Gold.PLP.Chemscore.CHOScore>
0.0000

> <Gold.PLP.Chemscore.Metal>
0.0000

> <Gold.Chemscore.Hbonds>
donor molecule, donor type, donor heavy atom, donor atom, acceptor molecule, acceptor atom, score
      L1  H     2    57       P1  8028  1.95
      L1  H    21    45       P1  7948  1.00
      P1  H  6896  6908       L1    24  0.86
      P1  H  7997  8008       L1    11  0.96

> <Gold.PLP.Chemscore.Internal.Correction>
0.1458

> <Gold.Rescore>
     Score         DG    S(hbond)    S(metal)    S(lipo)     H(rot)  DE(clash)    DE(int)     intcor
     14.52     -23.12       3.47        0.00      97.60       2.09       1.67       6.92       ----

> <Gold.Chemscore.Fitness>
14.5233

> <Gold.Chemscore.DG>
-23.1203

> <Gold.Chemscore.ZeroCoef>
-5.4800

> <Gold.Chemscore.Hbond>
3.4655

> <Gold.Chemscore.Metal>
0.0000

> <Gold.Chemscore.Lipo>
97.5969

> <Gold.Chemscore.Internal_Hbond>
0.0000

> <Gold.Chemscore.DEClash>
1.6732

> <Gold.Chemscore.DEInternal>
6.9239

> <Gold.Chemscore.Rot>
2.0911

> <Gold.Chemscore.Internal.Correction>
   9.000000E+99

> <Gold.Chemscore.Hbonds>
donor molecule, donor type, donor heavy atom, donor atom, acceptor molecule, acceptor atom, score
      L1  H     2    57       P1  8028  0.49
      L1  H    21    45       P1  7948  0.95
      P1  H  6896  6908       L1    24  0.73
      P1  H  7997  8008       L1    11  0.45

> <Gold.Chemscore.Hbond.Weighted>
-11.5746

> <Gold.Chemscore.Metal.Weighted>
-0.0000

> <Gold.Chemscore.Lipo.Weighted>
-11.4188

> <Gold.Chemscore.Internal_Hbond.Weighted>
0.0000

> <Gold.Chemscore.DEClash.Weighted>
1.6732

> <Gold.Chemscore.DEInternal.Weighted>
6.9239

> <Gold.Chemscore.Rot.Weighted>
5.3531

> <Gold.Chemscore.Internal.Correction.Weighted>
   9.000000E+99

> <Gold.Protein.RotatedTorsions>
[ 6907 6896 6895 6894 ] final  128.99 input  -60.11 | X-H torsion
[ 7974 7965 7964 7962 ] final  -20.63 input  175.53 | X-H torsion
[ 8008 7997 7996 7995 ] final  -33.82 input   59.86 | X-H torsion
[ 10167 10162 10161 10158 ] final  132.24 input  -65.29 | X-H torsion
[ 10718 10713 10712 10709 ] final  -19.50 input   66.30 | X-H torsion
[ 10763 10752 10751 10750 ] final   92.16 input  -60.55 | X-H torsion
[ 11005 11000 10999 10996 ] final  -93.04 input  -57.11 | X-H torsion

> <Gold.Protein.ActiveResidues>
 VAL166  LYS551  ARG553  GLY616  TRP617  ASP618  TYR619  PRO620  LYS621  CYS622 
 ASP623  PHE694  ASN695  SER759  ASP760  ASP761  ALA762  ILE779  LEU786  VAL792 
 PHE793  MET794  SER795  GLU796  ALA797  LYS798  CYS799  TRP800  GLU811  SER814 

> <Gold.Protein.RotatedAtoms>
  152.3667  133.6365  159.6055 H   0  0  0  0  0  0  0  0  0  0  0  0  # atno 6907 bound_to 6896
  150.7639  133.9337  159.3443 H   0  0  0  0  0  0  0  0  0  0  0  0  # atno 6908 bound_to 6896
  151.7166  135.0903  160.0328 H   0  0  0  0  0  0  0  0  0  0  0  0  # atno 6909 bound_to 6896
  146.1778  140.4229  142.8507 H   0  0  0  0  0  0  0  0  0  0  0  0  # atno 7974 bound_to 7965
  154.4138  140.1700  156.1949 H   0  0  0  0  0  0  0  0  0  0  0  0  # atno 8008 bound_to 7997
  155.9572  140.3396  155.6435 H   0  0  0  0  0  0  0  0  0  0  0  0  # atno 8009 bound_to 7997
  155.6795  140.0721  157.2481 H   0  0  0  0  0  0  0  0  0  0  0  0  # atno 8010 bound_to 7997
  139.5348  144.6671  151.4823 H   0  0  0  0  0  0  0  0  0  0  0  0  # atno 10167 bound_to 10162
  156.5448  130.4687  149.6481 H   0  0  0  0  0  0  0  0  0  0  0  0  # atno 10718 bound_to 10713
  153.2161  135.4371  155.0436 H   0  0  0  0  0  0  0  0  0  0  0  0  # atno 10763 bound_to 10752
  154.8226  135.3345  154.6996 H   0  0  0  0  0  0  0  0  0  0  0  0  # atno 10764 bound_to 10752
  153.7431  135.7003  153.5018 H   0  0  0  0  0  0  0  0  0  0  0  0  # atno 10765 bound_to 10752
  141.1507  133.7861  157.0104 H   0  0  0  0  0  0  0  0  0  0  0  0  # atno 11005 bound_to 11000
  144.8264  140.6635  143.6319 LP  0  0  0  0  0  0  0  0  0  0  0  0  # atno 17320 bound_to 7965
  145.4163  139.1571  143.4098 LP  0  0  0  0  0  0  0  0  0  0  0  0  # atno 17321 bound_to 7965
  140.6548  143.8621  150.6824 LP  0  0  0  0  0  0  0  0  0  0  0  0  # atno 17342 bound_to 10162
  140.1997  143.3969  152.1801 LP  0  0  0  0  0  0  0  0  0  0  0  0  # atno 17343 bound_to 10162
  156.2939  130.7139  151.1995 LP  0  0  0  0  0  0  0  0  0  0  0  0  # atno 17370 bound_to 10713
  157.7399  131.0524  150.5204 LP  0  0  0  0  0  0  0  0  0  0  0  0  # atno 17371 bound_to 10713
  140.0881  134.9608  157.1733 LP  0  0  0  0  0  0  0  0  0  0  0  0  # atno 17394 bound_to 11000
  140.3483  134.2627  155.7202 LP  0  0  0  0  0  0  0  0  0  0  0  0  # atno 17395 bound_to 11000

$$$$
