AV-unprocessed.smi:1308|AV-procd|sdf|5442|dock8
  -GOLD-   22720 5 13D 1   1.00000     0.00000
 Structure written by MMmdl.
 44 44  0  0  0  0  0  0  0  0  2 V2000
  147.6865  135.7603  160.7837 C   0  0  0  0  0  0  0  0  0  0  0  0
  148.2641  136.3983  159.5382 C   0  0  0  0  0  0  0  0  0  0  0  0
  147.8192  137.5335  159.1537 N   0  0  0  0  0  0  0  0  0  0  0  0
  148.3484  138.1277  157.9956 C   0  0  0  0  0  0  0  0  0  0  0  0
  147.7540  139.4701  157.6068 C   0  0  0  0  0  0  0  0  0  0  0  0
  149.3317  137.5164  157.2755 C   0  0  0  0  0  0  0  0  0  0  0  0
  149.9298  138.1137  156.0003 C   0  0  0  0  0  0  0  0  0  0  0  0
  150.9515  139.2354  156.2031 C   0  0  0  0  0  0  0  0  0  0  0  0
  151.3872  139.8506  155.2303 O   0  0  0  0  0  0  0  0  0  0  0  0
  151.3118  139.4963  157.4702 N   0  0  0  0  0  0  0  0  0  0  0  0
  152.2796  140.4990  157.9069 C   0  0  2  0  0  0  0  0  0  0  0  0
  153.2644  139.8447  158.8854 C   0  0  0  0  0  0  0  0  0  0  0  0
  151.5622  141.7053  158.5436 C   0  0  0  0  0  0  0  0  0  0  0  0
  152.5131  142.6865  159.2560 C   0  0  0  0  0  0  0  0  0  0  0  0
  151.8249  143.9616  159.7833 C   0  0  0  0  0  0  0  0  0  0  0  0
  152.1436  145.1980  158.9256 C   0  0  0  0  0  0  0  0  0  0  0  0
  152.2055  144.2144  161.2499 C   0  0  0  0  0  0  0  0  0  0  0  0
  149.8155  136.2078  157.7511 C   0  0  0  0  0  0  0  0  0  0  0  0
  150.6876  135.6048  157.1269 O   0  0  0  0  0  0  0  0  0  0  0  0
  149.2537  135.6993  158.8843 N   0  5  0  0  0  0  0  0  0  0  0  0
  146.8184  136.3147  161.1428 H   0  0  0  0  0  0  0  0  0  0  0  0
  148.4334  135.7402  161.5778 H   0  0  0  0  0  0  0  0  0  0  0  0
  147.3739  134.7364  160.5758 H   0  0  0  0  0  0  0  0  0  0  0  0
  148.5117  140.2518  157.6600 H   0  0  0  0  0  0  0  0  0  0  0  0
  146.9372  139.7486  158.2738 H   0  0  0  0  0  0  0  0  0  0  0  0
  147.3589  139.4367  156.5914 H   0  0  0  0  0  0  0  0  0  0  0  0
  150.4101  137.3136  155.4364 H   0  0  0  0  0  0  0  0  0  0  0  0
  149.1443  138.4814  155.3396 H   0  0  0  0  0  0  0  0  0  0  0  0
  150.8853  138.9375  158.1960 H   0  0  0  0  0  0  0  0  0  0  0  0
  152.8595  140.8577  157.0549 H   0  0  0  0  0  0  0  0  0  0  0  0
  154.0205  140.5565  159.2171 H   0  0  0  0  0  0  0  0  0  0  0  0
  153.7834  139.0077  158.4170 H   0  0  0  0  0  0  0  0  0  0  0  0
  152.7523  139.4651  159.7704 H   0  0  0  0  0  0  0  0  0  0  0  0
  150.9953  142.2302  157.7744 H   0  0  0  0  0  0  0  0  0  0  0  0
  150.8304  141.3385  159.2641 H   0  0  0  0  0  0  0  0  0  0  0  0
  152.9762  142.1646  160.0945 H   0  0  0  0  0  0  0  0  0  0  0  0
  153.3290  142.9666  158.5887 H   0  0  0  0  0  0  0  0  0  0  0  0
  150.7464  143.8017  159.7532 H   0  0  0  0  0  0  0  0  0  0  0  0
  153.2175  145.3813  158.8783 H   0  0  0  0  0  0  0  0  0  0  0  0
  151.6732  146.0912  159.3374 H   0  0  0  0  0  0  0  0  0  0  0  0
  151.7783  145.0861  157.9052 H   0  0  0  0  0  0  0  0  0  0  0  0
  153.2780  144.3799  161.3573 H   0  0  0  0  0  0  0  0  0  0  0  0
  151.9354  143.3662  161.8797 H   0  0  0  0  0  0  0  0  0  0  0  0
  151.6917  145.0911  161.6451 H   0  0  0  0  0  0  0  0  0  0  0  0
  1  2  1  0  0  0  0
  1 21  1  0  0  0  0
  1 22  1  0  0  0  0
  1 23  1  0  0  0  0
  2 20  1  0  0  0  0
  2  3  2  0  0  0  0
  3  4  1  0  0  0  0
  4  5  1  0  0  0  0
  4  6  2  0  0  0  0
  5 24  1  0  0  0  0
  5 25  1  0  0  0  0
  5 26  1  0  0  0  0
  6  7  1  0  0  0  0
  6 18  1  0  0  0  0
  7  8  1  0  0  0  0
  7 27  1  0  0  0  0
  7 28  1  0  0  0  0
  8  9  2  0  0  0  0
  8 10  1  0  0  0  0
 10 11  1  0  0  0  0
 10 29  1  0  0  0  0
 11 12  1  0  0  0  0
 11 13  1  0  0  0  0
 11 30  1  0  0  0  0
 12 31  1  0  0  0  0
 12 32  1  0  0  0  0
 12 33  1  0  0  0  0
 13 14  1  0  0  0  0
 13 34  1  0  0  0  0
 13 35  1  0  0  0  0
 14 15  1  0  0  0  0
 14 36  1  0  0  0  0
 14 37  1  0  0  0  0
 15 16  1  0  0  0  0
 15 17  1  0  0  0  0
 15 38  1  0  0  0  0
 16 39  1  0  0  0  0
 16 40  1  0  0  0  0
 16 41  1  0  0  0  0
 17 42  1  0  0  0  0
 17 43  1  0  0  0  0
 17 44  1  0  0  0  0
 18 19  2  0  0  0  0
 18 20  1  0  0  0  0
M  CHG  1  20  -1
M  END
> <s_m_source_file>
AV-unprocessed.smi

> <i_m_source_file_index>
1308

> <i_lp_mmshare_version>
43012

> <i_f3d_flags>
0

> <s_epik_input>
W0NIM11jMW5jKFtDSDNdKWMoYyg9TylbbkhdMSlbQ0gyXUMoPU8pW05IXVtDQEhdKFtDSDNdKVtDSDJdW0NIMl1bQ0hdKFtDSDNdKVtDSDNd

> <s_epik_cmdline>
J2VwaWtfcHl0aG9uJywgJy1waCcsICc3LjAnLCAnLXRuJywgJzgnLCAnLW1hJywgJzIwMCcsICctbWV0YWxfYmluZGluZycsICctaW1hZScsICc8aW5maWxlLm1hZT4nLCAnLW9tYWUnLCAnPG91dGZpbGUubWFlPic=

> <r_lp_tautomer_probability>
0.839158

> <r_epik_Ionization_Penalty>
6.61719

> <r_epik_Ionization_Penalty_Charging>
7.20681e-08

> <r_epik_Ionization_Penalty_Neutral>
6.61719

> <r_epik_State_Penalty>
4.43758

> <r_epik_Charging_Adjusted_Penalty>
4.43758

> <i_epik_Tot_Q>
-1

> <i_epik_Tot_abs_Q>
1

> <r_epik_Metal_State_Penalty>
0.801586

> <b_epik_Metal_Only>
1

> <s_lp_Force_Field>
OPLS_2005

> <r_lp_Energy>
8.43775

> <b_lp_Chiralities_Consistent>
1

> <s_lp_Variant>
AV-unprocessed.smi:1308-5

> <Gold.Version>
5.8.1

> <Gold.Id.Protein>
6NUR|6NUR_protein|mol2

> <Gold.PLP.Fitness>
39.9294

> <Gold.PLP.PLP>
-32.5250

> <Gold.PLP.part.hbond>
-3.4204

> <Gold.PLP.part.metal>
0.0000

> <Gold.PLP.part.buried>
-5.2539

> <Gold.PLP.part.nonpolar>
-24.2407

> <Gold.PLP.part.repulsive>
0.0718

> <Gold.PLP.ligand.clash>
0.0000

> <Gold.PLP.ligand.torsion>
1.1588

> <Gold.PLP.Chemscore.Hbond>
3.2163

> <Gold.PLP.Chemscore.CHOScore>
0.0000

> <Gold.PLP.Chemscore.Metal>
0.0000

> <Gold.Chemscore.Hbonds>
donor molecule, donor type, donor heavy atom, donor atom, acceptor molecule, acceptor atom, score
      P1  H  6896  6909       L1    20  2.00
      P1  H  6934  6947       L1     3  0.07
      P1  H  7989  7998       L1     9  1.00

> <Gold.PLP.Chemscore.Internal.Correction>
0.0731

> <Gold.Rescore>
     Score         DG    S(hbond)    S(metal)    S(lipo)     H(rot)  DE(clash)    DE(int)     intcor
     15.90     -17.14       1.98        0.00      84.95       1.91       0.05       1.19       ----

> <Gold.Chemscore.Fitness>
15.8964

> <Gold.Chemscore.DG>
-17.1425

> <Gold.Chemscore.ZeroCoef>
-5.4800

> <Gold.Chemscore.Hbond>
1.9814

> <Gold.Chemscore.Metal>
0.0000

> <Gold.Chemscore.Lipo>
84.9484

> <Gold.Chemscore.Internal_Hbond>
0.0000

> <Gold.Chemscore.DEClash>
0.0529

> <Gold.Chemscore.DEInternal>
1.1932

> <Gold.Chemscore.Rot>
1.9118

> <Gold.Chemscore.Internal.Correction>
   9.000000E+99

> <Gold.Chemscore.Hbonds>
donor molecule, donor type, donor heavy atom, donor atom, acceptor molecule, acceptor atom, score
      P1  H  6896  6909       L1    20  0.35
      P1  H  6934  6947       L1     3  0.07
      P1  H  7989  7998       L1     9  0.94

> <Gold.Chemscore.Hbond.Weighted>
-6.6179

> <Gold.Chemscore.Metal.Weighted>
-0.0000

> <Gold.Chemscore.Lipo.Weighted>
-9.9390

> <Gold.Chemscore.Internal_Hbond.Weighted>
0.0000

> <Gold.Chemscore.DEClash.Weighted>
0.0529

> <Gold.Chemscore.DEInternal.Weighted>
1.1932

> <Gold.Chemscore.Rot.Weighted>
4.8943

> <Gold.Chemscore.Internal.Correction.Weighted>
   9.000000E+99

> <Gold.Protein.RotatedTorsions>
[ 6907 6896 6895 6894 ] final   51.67 input  -60.11 | X-H torsion
[ 7974 7965 7964 7962 ] final   24.33 input  175.53 | X-H torsion
[ 8008 7997 7996 7995 ] final   46.98 input   59.86 | X-H torsion
[ 10167 10162 10161 10158 ] final -138.90 input  -65.29 | X-H torsion
[ 10718 10713 10712 10709 ] final   99.67 input   66.30 | X-H torsion
[ 10763 10752 10751 10750 ] final   79.67 input  -60.55 | X-H torsion
[ 11005 11000 10999 10996 ] final -150.46 input  -57.11 | X-H torsion

> <Gold.Protein.ActiveResidues>
 VAL166  LYS551  ARG553  GLY616  TRP617  ASP618  TYR619  PRO620  LYS621  CYS622 
 ASP623  PHE694  ASN695  SER759  ASP760  ASP761  ALA762  ILE779  LEU786  VAL792 
 PHE793  MET794  SER795  GLU796  ALA797  LYS798  CYS799  TRP800  GLU811  SER814 

> <Gold.Protein.RotatedAtoms>
  152.3151  134.7449  160.0326 H   0  0  0  0  0  0  0  0  0  0  0  0  # atno 6907 bound_to 6896
  151.7917  133.3354  159.3509 H   0  0  0  0  0  0  0  0  0  0  0  0  # atno 6908 bound_to 6896
  150.7340  134.5767  159.5962 H   0  0  0  0  0  0  0  0  0  0  0  0  # atno 6909 bound_to 6896
  146.1943  139.7620  142.8809 H   0  0  0  0  0  0  0  0  0  0  0  0  # atno 7974 bound_to 7965
  155.3615  140.3419  155.4241 H   0  0  0  0  0  0  0  0  0  0  0  0  # atno 8008 bound_to 7997
  156.1711  140.1632  156.8480 H   0  0  0  0  0  0  0  0  0  0  0  0  # atno 8009 bound_to 7997
  154.5234  140.0761  156.8196 H   0  0  0  0  0  0  0  0  0  0  0  0  # atno 8010 bound_to 7997
  139.8432  143.7294  152.2662 H   0  0  0  0  0  0  0  0  0  0  0  0  # atno 10167 bound_to 10162
  157.6871  131.0676  150.4984 H   0  0  0  0  0  0  0  0  0  0  0  0  # atno 10718 bound_to 10713
  153.0971  135.4831  154.8799 H   0  0  0  0  0  0  0  0  0  0  0  0  # atno 10763 bound_to 10752
  154.7337  135.3066  154.8850 H   0  0  0  0  0  0  0  0  0  0  0  0  # atno 10764 bound_to 10752
  153.9478  135.6827  153.4797 H   0  0  0  0  0  0  0  0  0  0  0  0  # atno 10765 bound_to 10752
  140.7400  134.3525  157.5149 H   0  0  0  0  0  0  0  0  0  0  0  0  # atno 11005 bound_to 11000
  145.3695  141.0340  143.3239 LP  0  0  0  0  0  0  0  0  0  0  0  0  # atno 17320 bound_to 7965
  144.8548  139.5267  143.6840 LP  0  0  0  0  0  0  0  0  0  0  0  0  # atno 17321 bound_to 7965
  139.7538  144.7526  151.0467 LP  0  0  0  0  0  0  0  0  0  0  0  0  # atno 17342 bound_to 10162
  140.7796  143.4829  150.9994 LP  0  0  0  0  0  0  0  0  0  0  0  0  # atno 17343 bound_to 10162
  156.5307  130.4184  149.6203 LP  0  0  0  0  0  0  0  0  0  0  0  0  # atno 17370 bound_to 10713
  156.3071  130.7209  151.2094 LP  0  0  0  0  0  0  0  0  0  0  0  0  # atno 17371 bound_to 10713
  139.8808  134.9074  156.2945 LP  0  0  0  0  0  0  0  0  0  0  0  0  # atno 17394 bound_to 11000
  140.9845  133.7246  156.0721 LP  0  0  0  0  0  0  0  0  0  0  0  0  # atno 17395 bound_to 11000

$$$$
