AV-unprocessed.smi:867|AV-procd|sdf|3994|dock7
  -GOLD-   22720 1473D 1   1.00000     0.00000
 Structure written by MMmdl.
 53 56  0  0  0  0  0  0  0  0  2 V2000
  149.1302  138.9505  154.4033 O   0  0  0  0  0  0  0  0  0  0  0  0
  148.3857  139.6256  155.1149 C   0  0  0  0  0  0  0  0  0  0  0  0
  147.2338  139.1438  155.6141 N   0  0  0  0  0  0  0  0  0  0  0  0
  146.7010  137.8017  155.3906 C   0  0  0  0  0  0  0  0  0  0  0  0
  145.4093  137.8215  154.5516 C   0  0  0  0  0  0  0  0  0  0  0  0
  145.6178  137.4076  153.1054 C   0  0  0  0  0  0  0  0  0  0  0  0
  144.9938  136.2564  152.5817 C   0  0  0  0  0  0  0  0  0  0  0  0
  145.1988  135.9301  151.2278 C   0  0  0  0  0  0  0  0  0  0  0  0
  146.0253  136.7690  150.4540 C   0  0  0  0  0  0  0  0  0  0  0  0
  146.6306  137.8716  150.9452 N   0  0  0  0  0  0  0  0  0  0  0  0
  146.4275  138.1784  152.2443 C   0  0  0  0  0  0  0  0  0  0  0  0
  148.6101  140.9351  155.3847 N   0  0  0  0  0  0  0  0  0  0  0  0
  147.7827  141.7901  156.2458 C   0  0  0  0  0  0  0  0  0  0  0  0
  148.5076  141.9964  157.5887 C   0  0  0  0  0  0  0  0  0  0  0  0
  149.8754  142.5603  157.3989 N   0  3  0  0  0  0  0  0  0  0  0  0
  150.5913  142.7734  158.6898 C   0  0  2  0  0  0  0  0  0  0  0  0
  150.1076  144.0062  159.4928 C   0  0  0  0  0  0  0  0  0  0  0  0
  151.4191  144.7380  159.8363 C   0  0  2  0  0  0  0  0  0  0  0  0
  151.9304  145.4570  158.5765 C   0  0  0  0  0  0  0  0  0  0  0  0
  152.3960  144.2875  157.6911 C   0  0  0  0  0  0  0  0  0  0  0  0
  152.1114  143.0502  158.5707 C   0  0  1  0  0  0  0  0  0  0  0  0
  152.4155  143.5920  159.9636 C   0  0  0  0  0  0  0  0  0  0  0  0
  150.6697  141.7801  156.4068 C   0  0  0  0  0  0  0  0  0  0  0  0
  149.8931  141.5776  155.0937 C   0  0  0  0  0  0  0  0  0  0  0  0
  146.6628  139.7685  156.1641 H   0  0  0  0  0  0  0  0  0  0  0  0
  147.4474  137.1634  154.9151 H   0  0  0  0  0  0  0  0  0  0  0  0
  146.4959  137.3527  156.3626 H   0  0  0  0  0  0  0  0  0  0  0  0
  144.6711  137.1567  155.0010 H   0  0  0  0  0  0  0  0  0  0  0  0
  144.9714  138.8203  154.5769 H   0  0  0  0  0  0  0  0  0  0  0  0
  144.3615  135.6385  153.2021 H   0  0  0  0  0  0  0  0  0  0  0  0
  144.7338  135.0583  150.7922 H   0  0  0  0  0  0  0  0  0  0  0  0
  146.2047  136.5486  149.4122 H   0  0  0  0  0  0  0  0  0  0  0  0
  146.9184  139.0701  152.6054 H   0  0  0  0  0  0  0  0  0  0  0  0
  147.6294  142.7510  155.7522 H   0  0  0  0  0  0  0  0  0  0  0  0
  146.7839  141.3946  156.4303 H   0  0  0  0  0  0  0  0  0  0  0  0
  147.9046  142.6521  158.2158 H   0  0  0  0  0  0  0  0  0  0  0  0
  148.5822  141.0430  158.1145 H   0  0  0  0  0  0  0  0  0  0  0  0
  150.4546  141.8780  159.2995 H   0  0  0  0  0  0  0  0  0  0  0  0
  149.4368  144.6573  158.9313 H   0  0  0  0  0  0  0  0  0  0  0  0
  149.5847  143.6909  160.3966 H   0  0  0  0  0  0  0  0  0  0  0  0
  151.3450  145.3871  160.7095 H   0  0  0  0  0  0  0  0  0  0  0  0
  151.1598  146.0633  158.0984 H   0  0  0  0  0  0  0  0  0  0  0  0
  152.7684  146.1125  158.8174 H   0  0  0  0  0  0  0  0  0  0  0  0
  151.8756  144.2595  156.7338 H   0  0  0  0  0  0  0  0  0  0  0  0
  153.4631  144.3726  157.4818 H   0  0  0  0  0  0  0  0  0  0  0  0
  152.7008  142.1736  158.3003 H   0  0  0  0  0  0  0  0  0  0  0  0
  153.4475  143.9274  160.0829 H   0  0  0  0  0  0  0  0  0  0  0  0
  152.1720  142.8936  160.7664 H   0  0  0  0  0  0  0  0  0  0  0  0
  151.6044  142.2912  156.1789 H   0  0  0  0  0  0  0  0  0  0  0  0
  150.9330  140.8116  156.8351 H   0  0  0  0  0  0  0  0  0  0  0  0
  150.4957  141.0075  154.3846 H   0  0  0  0  0  0  0  0  0  0  0  0
  149.7109  142.5407  154.6146 H   0  0  0  0  0  0  0  0  0  0  0  0
  149.7487  143.4756  156.9915 H   0  0  0  0  0  0  0  0  0  0  0  0
  1  2  2  0  0  0  0
  2  3  1  0  0  0  0
  2 12  1  0  0  0  0
  3  4  1  0  0  0  0
  3 25  1  0  0  0  0
  4  5  1  0  0  0  0
  4 26  1  0  0  0  0
  4 27  1  0  0  0  0
  5  6  1  0  0  0  0
  5 28  1  0  0  0  0
  5 29  1  0  0  0  0
  6 11  1  0  0  0  0
  6  7  2  0  0  0  0
  7  8  1  0  0  0  0
  7 30  1  0  0  0  0
  8  9  2  0  0  0  0
  8 31  1  0  0  0  0
  9 10  1  0  0  0  0
  9 32  1  0  0  0  0
 10 11  2  0  0  0  0
 11 33  1  0  0  0  0
 12 24  1  0  0  0  0
 12 13  1  0  0  0  0
 13 14  1  0  0  0  0
 13 34  1  0  0  0  0
 13 35  1  0  0  0  0
 14 15  1  0  0  0  0
 14 36  1  0  0  0  0
 14 37  1  0  0  0  0
 15 16  1  0  0  0  0
 15 23  1  0  0  0  0
 15 53  1  0  0  0  0
 16 21  1  0  0  0  0
 16 17  1  0  0  0  0
 16 38  1  0  0  0  0
 17 18  1  0  0  0  0
 17 39  1  0  0  0  0
 17 40  1  0  0  0  0
 18 22  1  0  0  0  0
 18 19  1  0  0  0  0
 18 41  1  0  0  0  0
 19 20  1  0  0  0  0
 19 42  1  0  0  0  0
 19 43  1  0  0  0  0
 20 21  1  0  0  0  0
 20 44  1  0  0  0  0
 20 45  1  0  0  0  0
 21 22  1  0  0  0  0
 21 46  1  0  0  0  0
 22 47  1  0  0  0  0
 22 48  1  0  0  0  0
 23 24  1  0  0  0  0
 23 49  1  0  0  0  0
 23 50  1  0  0  0  0
 24 51  1  0  0  0  0
 24 52  1  0  0  0  0
M  CHG  1  15   1
M  END
> <s_m_source_file>
AV-unprocessed.smi

> <i_m_source_file_index>
867

> <i_lp_mmshare_version>
43012

> <i_f3d_flags>
0

> <s_epik_input>
W0NIMl0xW0NIMl1bQ0BASF0oW0NIMl0yKVtDQEBIXShbQ0gyXVtDQEhdMTIpTihbQ0gyXVtDSDJdMylbQ0gyXVtDSDJdTjNDKD1PKVtOSF1bQ0gyXVtDSDJdYzRbY0hdW2NIXVtjSF1uW2NIXTQ=

> <s_epik_cmdline>
J2VwaWtfcHl0aG9uJywgJy1waCcsICc3LjAnLCAnLXRuJywgJzgnLCAnLW1hJywgJzIwMCcsICctbWV0YWxfYmluZGluZycsICctaW1hZScsICc8aW5maWxlLm1hZT4nLCAnLW9tYWUnLCAnPG91dGZpbGUubWFlPic=

> <r_epik_Ionization_Penalty>
0.0161279

> <r_epik_Ionization_Penalty_Charging>
0.00262064

> <r_epik_Ionization_Penalty_Neutral>
0.0135072

> <r_epik_State_Penalty>
0.0104914

> <r_epik_Charging_Adjusted_Penalty>
0.013112

> <i_epik_Tot_Q>
1

> <i_epik_Tot_abs_Q>
1

> <r_epik_Metal_State_Penalty>
0.0102536

> <b_epik_Metal_Only>
0

> <s_lp_Force_Field>
OPLS_2005

> <r_lp_Energy>
96.6143

> <b_lp_Chiralities_Consistent>
1

> <s_lp_Variant>
AV-unprocessed.smi:867-1

> <Gold.Version>
5.8.1

> <Gold.Id.Protein>
6NUR|6NUR_protein|mol2

> <Gold.PLP.Fitness>
49.2103

> <Gold.PLP.PLP>
-38.5229

> <Gold.PLP.part.hbond>
-2.0000

> <Gold.PLP.part.metal>
0.0000

> <Gold.PLP.part.buried>
-2.3707

> <Gold.PLP.part.nonpolar>
-37.0484

> <Gold.PLP.part.repulsive>
2.1350

> <Gold.PLP.ligand.clash>
0.0000

> <Gold.PLP.ligand.torsion>
0.7181

> <Gold.PLP.Chemscore.Hbond>
3.0000

> <Gold.PLP.Chemscore.CHOScore>
1.0000

> <Gold.PLP.Chemscore.Metal>
0.0000

> <Gold.Chemscore.Hbonds>
donor molecule, donor type, donor heavy atom, donor atom, acceptor molecule, acceptor atom, score
      L1  H    15    53       P1  8028  2.00
      P1  H  7954  7966       L1    10  0.95
      L1  C     9    32       P1  7921  1.00

> <Gold.PLP.Chemscore.Internal.Correction>
0.1235

> <Gold.Rescore>
     Score         DG    S(hbond)    S(metal)    S(lipo)     H(rot)  DE(clash)    DE(int)     intcor
     19.78     -22.63       1.70        0.00     128.05       1.37       2.24       0.61       ----

> <Gold.Chemscore.Fitness>
19.7769

> <Gold.Chemscore.DG>
-22.6260

> <Gold.Chemscore.ZeroCoef>
-5.4800

> <Gold.Chemscore.Hbond>
1.7004

> <Gold.Chemscore.Metal>
0.0000

> <Gold.Chemscore.Lipo>
128.0489

> <Gold.Chemscore.Internal_Hbond>
0.0000

> <Gold.Chemscore.DEClash>
2.2384

> <Gold.Chemscore.DEInternal>
0.6108

> <Gold.Chemscore.Rot>
1.3731

> <Gold.Chemscore.Internal.Correction>
   9.000000E+99

> <Gold.Chemscore.Hbonds>
donor molecule, donor type, donor heavy atom, donor atom, acceptor molecule, acceptor atom, score
      L1  H    15    53       P1  8028  0.90
      P1  H  7954  7966       L1    10  0.21

> <Gold.Chemscore.Hbond.Weighted>
-5.6795

> <Gold.Chemscore.Metal.Weighted>
-0.0000

> <Gold.Chemscore.Lipo.Weighted>
-14.9817

> <Gold.Chemscore.Internal_Hbond.Weighted>
0.0000

> <Gold.Chemscore.DEClash.Weighted>
2.2384

> <Gold.Chemscore.DEInternal.Weighted>
0.6108

> <Gold.Chemscore.Rot.Weighted>
3.5152

> <Gold.Chemscore.Internal.Correction.Weighted>
   9.000000E+99

> <Gold.Protein.RotatedTorsions>
[ 6907 6896 6895 6894 ] final   15.69 input  -60.11 | X-H torsion
[ 7974 7965 7964 7962 ] final  102.35 input  175.53 | X-H torsion
[ 8008 7997 7996 7995 ] final   -5.03 input   59.86 | X-H torsion
[ 10167 10162 10161 10158 ] final  168.58 input  -65.29 | X-H torsion
[ 10718 10713 10712 10709 ] final  -29.06 input   66.30 | X-H torsion
[ 10763 10752 10751 10750 ] final -159.04 input  -60.55 | X-H torsion
[ 11005 11000 10999 10996 ] final  -15.41 input  -57.11 | X-H torsion

> <Gold.Protein.ActiveResidues>
 VAL166  LYS551  ARG553  GLY616  TRP617  ASP618  TYR619  PRO620  LYS621  CYS622 
 ASP623  PHE694  ASN695  SER759  ASP760  ASP761  ALA762  ILE779  LEU786  VAL792 
 PHE793  MET794  SER795  GLU796  ALA797  LYS798  CYS799  TRP800  GLU811  SER814 

> <Gold.Protein.RotatedAtoms>
  151.8221  135.0648  160.0426 H   0  0  0  0  0  0  0  0  0  0  0  0  # atno 6907 bound_to 6896
  152.2943  133.5587  159.5586 H   0  0  0  0  0  0  0  0  0  0  0  0  # atno 6908 bound_to 6896
  150.7244  134.0300  159.3772 H   0  0  0  0  0  0  0  0  0  0  0  0  # atno 6909 bound_to 6896
  145.3602  139.2419  143.3511 H   0  0  0  0  0  0  0  0  0  0  0  0  # atno 7974 bound_to 7965
  154.6081  140.2469  155.7705 H   0  0  0  0  0  0  0  0  0  0  0  0  # atno 8008 bound_to 7997
  156.2353  140.2952  156.0248 H   0  0  0  0  0  0  0  0  0  0  0  0  # atno 8009 bound_to 7997
  155.2098  140.0397  157.2922 H   0  0  0  0  0  0  0  0  0  0  0  0  # atno 8010 bound_to 7997
  139.4971  144.3799  151.9633 H   0  0  0  0  0  0  0  0  0  0  0  0  # atno 10167 bound_to 10162
  156.4173  130.4419  149.7209 H   0  0  0  0  0  0  0  0  0  0  0  0  # atno 10718 bound_to 10713
  154.7507  135.3091  154.8562 H   0  0  0  0  0  0  0  0  0  0  0  0  # atno 10763 bound_to 10752
  153.9350  135.6781  153.4749 H   0  0  0  0  0  0  0  0  0  0  0  0  # atno 10764 bound_to 10752
  153.1103  135.4869  154.8952 H   0  0  0  0  0  0  0  0  0  0  0  0  # atno 10765 bound_to 10752
  140.7963  133.8248  155.9427 H   0  0  0  0  0  0  0  0  0  0  0  0  # atno 11005 bound_to 11000
  146.2930  140.4235  142.8732 LP  0  0  0  0  0  0  0  0  0  0  0  0  # atno 17320 bound_to 7965
  144.8652  140.7196  143.6082 LP  0  0  0  0  0  0  0  0  0  0  0  0  # atno 17321 bound_to 7965
  140.3236  144.3399  150.6004 LP  0  0  0  0  0  0  0  0  0  0  0  0  # atno 17342 bound_to 10162
  140.5703  143.2181  151.7611 LP  0  0  0  0  0  0  0  0  0  0  0  0  # atno 17343 bound_to 10162
  156.4164  130.7747  151.2762 LP  0  0  0  0  0  0  0  0  0  0  0  0  # atno 17370 bound_to 10713
  157.7508  131.0196  150.3674 LP  0  0  0  0  0  0  0  0  0  0  0  0  # atno 17371 bound_to 10713
  140.9339  134.1987  157.4845 LP  0  0  0  0  0  0  0  0  0  0  0  0  # atno 17394 bound_to 11000
  139.8726  134.9844  156.5238 LP  0  0  0  0  0  0  0  0  0  0  0  0  # atno 17395 bound_to 11000

$$$$
