AV-unprocessed.smi:1047|AV-procd|sdf|4567|dock4
  -GOLD-   22720 3 13D 1   1.00000     0.00000
 Structure written by MMmdl.
 57 59  0  0  0  0  0  0  0  0  3 V2000
  145.0829  134.6873  150.5379 C   0  0  0  0  0  0  0  0  0  0  0  0
  145.1446  136.1667  150.9446 C   0  0  0  0  0  0  0  0  0  0  0  0
  146.0809  136.4116  152.0704 N   0  3  2  0  0  0  0  0  0  0  0  0
  145.8890  135.4489  153.1814 C   0  0  0  0  0  0  0  0  0  0  0  0
  146.9198  135.6968  154.2954 C   0  0  0  0  0  0  0  0  0  0  0  0
  146.8146  137.0383  154.7571 O   0  0  0  0  0  0  0  0  0  0  0  0
  147.0694  137.9850  153.7251 C   0  0  2  0  0  0  0  0  0  0  0  0
  147.0705  139.3981  154.3341 C   0  0  0  0  0  0  0  0  0  0  0  0
  148.0693  139.5411  155.4141 N   0  3  0  0  0  0  0  0  0  0  0  0
  149.4642  139.3287  154.9779 C   0  0  0  0  0  0  0  0  0  0  0  0
  150.1327  140.6573  154.5895 C   0  0  1  0  0  0  0  0  0  0  0  0
  149.5085  141.1559  153.4212 O   0  0  0  0  0  0  0  0  0  0  0  0
  150.0347  141.7052  155.7152 C   0  0  0  0  0  0  0  0  0  0  0  0
  150.8213  141.3422  156.8806 N   0  0  0  0  0  0  0  0  0  0  0  0
  151.4122  140.1558  157.1212 C   0  0  0  0  0  0  0  0  0  0  0  0
  152.0960  140.0348  158.2550 N   0  0  0  0  0  0  0  0  0  0  0  0
  151.9264  141.2879  158.8183 C   0  0  0  0  0  0  0  0  0  0  0  0
  152.4061  141.8178  160.0359 C   0  0  0  0  0  0  0  0  0  0  0  0
  152.1036  143.1440  160.4187 C   0  0  0  0  0  0  0  0  0  0  0  0
  152.6387  143.6712  161.7386 C   0  0  0  0  0  0  0  0  0  0  0  0
  151.3075  143.9621  159.5774 C   0  0  0  0  0  0  0  0  0  0  0  0
  150.9625  145.3872  159.9715 C   0  0  0  0  0  0  0  0  0  0  0  0
  150.8237  143.4500  158.3553 C   0  0  0  0  0  0  0  0  0  0  0  0
  151.1313  142.1286  157.9854 C   0  0  0  0  0  0  0  0  0  0  0  0
  146.0462  137.8041  152.5834 C   0  0  0  0  0  0  0  0  0  0  0  0
  144.3111  134.5299  149.7839 H   0  0  0  0  0  0  0  0  0  0  0  0
  144.8430  134.0524  151.3914 H   0  0  0  0  0  0  0  0  0  0  0  0
  146.0233  134.3398  150.1113 H   0  0  0  0  0  0  0  0  0  0  0  0
  145.4131  136.7890  150.0896 H   0  0  0  0  0  0  0  0  0  0  0  0
  144.1417  136.4718  151.2463 H   0  0  0  0  0  0  0  0  0  0  0  0
  144.8773  135.5444  153.5791 H   0  0  0  0  0  0  0  0  0  0  0  0
  145.9921  134.4284  152.8105 H   0  0  0  0  0  0  0  0  0  0  0  0
  146.7387  135.0209  155.1315 H   0  0  0  0  0  0  0  0  0  0  0  0
  147.9325  135.4985  153.9407 H   0  0  0  0  0  0  0  0  0  0  0  0
  148.0695  137.8001  153.3284 H   0  0  0  0  0  0  0  0  0  0  0  0
  147.2864  140.1306  153.5551 H   0  0  0  0  0  0  0  0  0  0  0  0
  146.0798  139.6339  154.7252 H   0  0  0  0  0  0  0  0  0  0  0  0
  147.9964  140.4678  155.8091 H   0  0  0  0  0  0  0  0  0  0  0  0
  150.0309  138.8323  155.7673 H   0  0  0  0  0  0  0  0  0  0  0  0
  149.4555  138.6559  154.1194 H   0  0  0  0  0  0  0  0  0  0  0  0
  151.1852  140.4796  154.3632 H   0  0  0  0  0  0  0  0  0  0  0  0
  149.3944  140.4442  152.8094 H   0  0  0  0  0  0  0  0  0  0  0  0
  150.3647  142.6822  155.3601 H   0  0  0  0  0  0  0  0  0  0  0  0
  148.9971  141.8245  156.0300 H   0  0  0  0  0  0  0  0  0  0  0  0
  151.3391  139.3355  156.4220 H   0  0  0  0  0  0  0  0  0  0  0  0
  153.0105  141.1934  160.6774 H   0  0  0  0  0  0  0  0  0  0  0  0
  151.8179  143.8839  162.4235 H   0  0  0  0  0  0  0  0  0  0  0  0
  153.2084  144.5876  161.5847 H   0  0  0  0  0  0  0  0  0  0  0  0
  153.2974  142.9471  162.2183 H   0  0  0  0  0  0  0  0  0  0  0  0
  150.2978  145.8517  159.2428 H   0  0  0  0  0  0  0  0  0  0  0  0
  151.8655  145.9943  160.0371 H   0  0  0  0  0  0  0  0  0  0  0  0
  150.4605  145.4056  160.9392 H   0  0  0  0  0  0  0  0  0  0  0  0
  150.2186  144.0648  157.7056 H   0  0  0  0  0  0  0  0  0  0  0  0
  146.2747  138.5071  151.7830 H   0  0  0  0  0  0  0  0  0  0  0  0
  145.0378  138.0321  152.9318 H   0  0  0  0  0  0  0  0  0  0  0  0
  147.8605  138.8664  156.1371 H   0  0  0  0  0  0  0  0  0  0  0  0
  147.0108  136.2480  151.7109 H   0  0  0  0  0  0  0  0  0  0  0  0
  1  2  1  0  0  0  0
  1 26  1  0  0  0  0
  1 27  1  0  0  0  0
  1 28  1  0  0  0  0
  2  3  1  0  0  0  0
  2 29  1  0  0  0  0
  2 30  1  0  0  0  0
  3 25  1  0  0  0  0
  3  4  1  0  0  0  0
  3 57  1  0  0  0  0
  4  5  1  0  0  0  0
  4 31  1  0  0  0  0
  4 32  1  0  0  0  0
  5  6  1  0  0  0  0
  5 33  1  0  0  0  0
  5 34  1  0  0  0  0
  6  7  1  0  0  0  0
  7  8  1  0  0  0  0
  7 25  1  0  0  0  0
  7 35  1  0  0  0  0
  8  9  1  0  0  0  0
  8 36  1  0  0  0  0
  8 37  1  0  0  0  0
  9 10  1  0  0  0  0
  9 38  1  0  0  0  0
  9 56  1  0  0  0  0
 10 11  1  0  0  0  0
 10 39  1  0  0  0  0
 10 40  1  0  0  0  0
 11 12  1  0  0  0  0
 11 13  1  0  0  0  0
 11 41  1  0  0  0  0
 12 42  1  0  0  0  0
 13 14  1  0  0  0  0
 13 43  1  0  0  0  0
 13 44  1  0  0  0  0
 14 24  1  0  0  0  0
 14 15  1  0  0  0  0
 15 16  2  0  0  0  0
 15 45  1  0  0  0  0
 16 17  1  0  0  0  0
 17 24  2  0  0  0  0
 17 18  1  0  0  0  0
 18 19  2  0  0  0  0
 18 46  1  0  0  0  0
 19 20  1  0  0  0  0
 19 21  1  0  0  0  0
 20 47  1  0  0  0  0
 20 48  1  0  0  0  0
 20 49  1  0  0  0  0
 21 22  1  0  0  0  0
 21 23  2  0  0  0  0
 22 50  1  0  0  0  0
 22 51  1  0  0  0  0
 22 52  1  0  0  0  0
 23 24  1  0  0  0  0
 23 53  1  0  0  0  0
 25 54  1  0  0  0  0
 25 55  1  0  0  0  0
M  CHG  1   3   1
M  CHG  1   9   1
M  END
> <s_m_source_file>
AV-unprocessed.smi

> <i_m_source_file_index>
1047

> <i_lp_mmshare_version>
43012

> <i_f3d_flags>
0

> <s_epik_input>
W0NIM11bQ0gyXU4xW0NIMl1bQ0gyXU9bQ0BIXShbQ0gyXTEpW0NIMl1bTkhdW0NIMl1bQ0BIXShbT0hdKVtDSDJdbihbY0hdbjIpYyhjMjMpW2NIXWMoW0NIM10pYyhbY0hdMylbQ0gzXQ==

> <s_epik_cmdline>
J2VwaWtfcHl0aG9uJywgJy1waCcsICc3LjAnLCAnLXRuJywgJzgnLCAnLW1hJywgJzIwMCcsICctbWV0YWxfYmluZGluZycsICctaW1hZScsICc8aW5maWxlLm1hZT4nLCAnLW9tYWUnLCAnPG91dGZpbGUubWFlPic=

> <r_epik_Ionization_Penalty>
0.528991

> <r_epik_Ionization_Penalty_Charging>
0.438567

> <r_epik_Ionization_Penalty_Neutral>
0.0904237

> <r_epik_State_Penalty>
0.533036

> <r_epik_Charging_Adjusted_Penalty>
0.971603

> <i_epik_Tot_Q>
2

> <i_epik_Tot_abs_Q>
2

> <r_epik_Metal_State_Penalty>
0.448985

> <b_epik_Metal_Only>
0

> <s_lp_Force_Field>
OPLS_2005

> <r_lp_Energy>
32.051

> <b_lp_Chiralities_Consistent>
1

> <s_lp_Variant>
AV-unprocessed.smi:1047-8

> <Gold.Version>
5.8.1

> <Gold.Id.Protein>
6NUR|6NUR_protein|mol2

> <Gold.PLP.Fitness>
55.3793

> <Gold.PLP.PLP>
-44.8222

> <Gold.PLP.part.hbond>
-4.0000

> <Gold.PLP.part.metal>
0.0000

> <Gold.PLP.part.buried>
-2.0334

> <Gold.PLP.part.nonpolar>
-38.0153

> <Gold.PLP.part.repulsive>
0.0958

> <Gold.PLP.ligand.clash>
0.0000

> <Gold.PLP.ligand.torsion>
0.4330

> <Gold.PLP.Chemscore.Hbond>
3.7520

> <Gold.PLP.Chemscore.CHOScore>
0.0000

> <Gold.PLP.Chemscore.Metal>
0.0000

> <Gold.Chemscore.Hbonds>
donor molecule, donor type, donor heavy atom, donor atom, acceptor molecule, acceptor atom, score
      L1  H     3    57       P1  7948  2.00
      L1  H    12    42       P1  7957  0.83
      P1  H  8011  8017       L1    12  0.95

> <Gold.PLP.Chemscore.Internal.Correction>
0.1671

> <Gold.Rescore>
     Score         DG    S(hbond)    S(metal)    S(lipo)     H(rot)  DE(clash)    DE(int)     intcor
     18.29     -20.87       2.25        0.00     126.24       2.70       1.42       1.16       ----

> <Gold.Chemscore.Fitness>
18.2885

> <Gold.Chemscore.DG>
-20.8660

> <Gold.Chemscore.ZeroCoef>
-5.4800

> <Gold.Chemscore.Hbond>
2.2527

> <Gold.Chemscore.Metal>
0.0000

> <Gold.Chemscore.Lipo>
126.2394

> <Gold.Chemscore.Internal_Hbond>
0.0000

> <Gold.Chemscore.DEClash>
1.4218

> <Gold.Chemscore.DEInternal>
1.1557

> <Gold.Chemscore.Rot>
2.6985

> <Gold.Chemscore.Internal.Correction>
   9.000000E+99

> <Gold.Chemscore.Hbonds>
donor molecule, donor type, donor heavy atom, donor atom, acceptor molecule, acceptor atom, score
      L1  H     3    57       P1  7948  0.98
      L1  H    12    42       P1  7957  0.81
      P1  H  8011  8017       L1    12  0.21

> <Gold.Chemscore.Hbond.Weighted>
-7.5241

> <Gold.Chemscore.Metal.Weighted>
-0.0000

> <Gold.Chemscore.Lipo.Weighted>
-14.7700

> <Gold.Chemscore.Internal_Hbond.Weighted>
0.0000

> <Gold.Chemscore.DEClash.Weighted>
1.4218

> <Gold.Chemscore.DEInternal.Weighted>
1.1557

> <Gold.Chemscore.Rot.Weighted>
6.9081

> <Gold.Chemscore.Internal.Correction.Weighted>
   9.000000E+99

> <Gold.Protein.RotatedTorsions>
[ 6907 6896 6895 6894 ] final -110.93 input  -60.11 | X-H torsion
[ 7974 7965 7964 7962 ] final   80.49 input  175.53 | X-H torsion
[ 8008 7997 7996 7995 ] final   65.74 input   59.86 | X-H torsion
[ 10167 10162 10161 10158 ] final   16.43 input  -65.29 | X-H torsion
[ 10718 10713 10712 10709 ] final -148.62 input   66.30 | X-H torsion
[ 10763 10752 10751 10750 ] final -129.04 input  -60.55 | X-H torsion
[ 11005 11000 10999 10996 ] final   76.28 input  -57.11 | X-H torsion

> <Gold.Protein.ActiveResidues>
 VAL166  LYS551  ARG553  GLY616  TRP617  ASP618  TYR619  PRO620  LYS621  CYS622 
 ASP623  PHE694  ASN695  SER759  ASP760  ASP761  ALA762  ILE779  LEU786  VAL792 
 PHE793  MET794  SER795  GLU796  ALA797  LYS798  CYS799  TRP800  GLU811  SER814 

> <Gold.Protein.RotatedAtoms>
  150.7656  133.9310  159.3426 H   0  0  0  0  0  0  0  0  0  0  0  0  # atno 6907 bound_to 6896
  151.7209  135.0892  160.0293 H   0  0  0  0  0  0  0  0  0  0  0  0  # atno 6908 bound_to 6896
  152.3651  133.6308  159.6080 H   0  0  0  0  0  0  0  0  0  0  0  0  # atno 6909 bound_to 6896
  145.6505  139.2446  143.1979 H   0  0  0  0  0  0  0  0  0  0  0  0  # atno 7974 bound_to 7965
  155.6665  140.3497  155.4802 H   0  0  0  0  0  0  0  0  0  0  0  0  # atno 8008 bound_to 7997
  155.9724  140.1158  157.0823 H   0  0  0  0  0  0  0  0  0  0  0  0  # atno 8009 bound_to 7997
  154.4170  140.1154  156.5311 H   0  0  0  0  0  0  0  0  0  0  0  0  # atno 8010 bound_to 7997
  140.5798  143.9002  150.6780 H   0  0  0  0  0  0  0  0  0  0  0  0  # atno 10167 bound_to 10162
  156.4226  130.8036  151.2260 H   0  0  0  0  0  0  0  0  0  0  0  0  # atno 10718 bound_to 10713
  154.8757  135.3908  154.3855 H   0  0  0  0  0  0  0  0  0  0  0  0  # atno 10763 bound_to 10752
  153.4598  135.7029  153.6063 H   0  0  0  0  0  0  0  0  0  0  0  0  # atno 10764 bound_to 10752
  153.4566  135.3821  155.2283 H   0  0  0  0  0  0  0  0  0  0  0  0  # atno 10765 bound_to 10752
  139.9305  134.7588  156.1376 H   0  0  0  0  0  0  0  0  0  0  0  0  # atno 11005 bound_to 11000
  146.1208  140.7312  142.9458 LP  0  0  0  0  0  0  0  0  0  0  0  0  # atno 17320 bound_to 7965
  144.7124  140.4089  143.7070 LP  0  0  0  0  0  0  0  0  0  0  0  0  # atno 17321 bound_to 7965
  140.2499  143.3601  152.1415 LP  0  0  0  0  0  0  0  0  0  0  0  0  # atno 17342 bound_to 10162
  139.5163  144.6976  151.5587 LP  0  0  0  0  0  0  0  0  0  0  0  0  # atno 17343 bound_to 10162
  157.7508  131.0223  150.3788 LP  0  0  0  0  0  0  0  0  0  0  0  0  # atno 17370 bound_to 10713
  156.4108  130.3934  149.6893 LP  0  0  0  0  0  0  0  0  0  0  0  0  # atno 17371 bound_to 10713
  141.0891  133.6722  156.2500 LP  0  0  0  0  0  0  0  0  0  0  0  0  # atno 17394 bound_to 11000
  140.6215  134.5357  157.5548 LP  0  0  0  0  0  0  0  0  0  0  0  0  # atno 17395 bound_to 11000

$$$$
