AV-unprocessed.smi:1738|AV-procd|sdf|7001|dock4
  -GOLD-   22720 8213D 1   1.00000     0.00000
 Structure written by MMmdl.
 46 48  0  0  0  0  0  0  0  0  2 V2000
  153.1457  137.5119  159.4968 C   0  0  0  0  0  0  0  0  0  0  0  0
  153.6543  138.1744  157.8581 S   0  0  0  0  0  0  0  0  0  0  0  0
  153.4455  139.6307  157.8759 O   0  0  0  0  0  0  0  0  0  0  0  0
  154.9844  137.6352  157.5350 O   0  0  0  0  0  0  0  0  0  0  0  0
  152.4763  137.4512  156.7219 C   0  0  0  0  0  0  0  0  0  0  0  0
  152.1651  138.0962  155.5082 C   0  0  0  0  0  0  0  0  0  0  0  0
  151.1986  137.5071  154.6710 C   0  0  0  0  0  0  0  0  0  0  0  0
  150.5718  136.3053  155.0862 C   0  0  0  0  0  0  0  0  0  0  0  0
  149.5818  135.6020  154.3449 N   0  0  0  0  0  0  0  0  0  0  0  0
  148.8328  134.5455  154.7053 C   0  0  0  0  0  0  0  0  0  0  0  0
  148.8467  133.9960  155.8055 O   0  0  0  0  0  0  0  0  0  0  0  0
  148.0423  134.1494  153.6970 N   0  0  0  0  0  0  0  0  0  0  0  0
  147.1214  133.0146  153.7441 C   0  0  2  0  0  0  0  0  0  0  0  0
  147.8406  131.6543  153.8147 C   0  0  0  0  0  0  0  0  0  0  0  0
  147.0111  130.7340  152.9134 C   0  0  0  0  0  0  0  0  0  0  0  0
  146.5428  131.6442  151.8619 N   0  3  1  0  0  0  0  0  0  0  0  0
  145.5055  131.1715  150.9232 C   0  0  0  0  0  0  0  0  0  0  0  0
  145.3381  132.2304  149.8116 C   0  0  0  0  0  0  0  0  0  0  0  0
  145.0932  133.6468  150.3810 C   0  0  0  0  0  0  0  0  0  0  0  0
  146.1354  134.0245  151.4565 C   0  0  0  0  0  0  0  0  0  0  0  0
  146.1819  132.9122  152.5191 C   0  0  2  0  0  0  0  0  0  0  0  0
  150.9625  135.7558  156.3266 C   0  0  0  0  0  0  0  0  0  0  0  0
  151.8863  136.3112  157.1380 N   0  0  0  0  0  0  0  0  0  0  0  0
  153.8081  137.9041  160.2679 H   0  0  0  0  0  0  0  0  0  0  0  0
  153.2075  136.4239  159.4848 H   0  0  0  0  0  0  0  0  0  0  0  0
  152.1207  137.8146  159.7094 H   0  0  0  0  0  0  0  0  0  0  0  0
  152.6515  139.0163  155.2201 H   0  0  0  0  0  0  0  0  0  0  0  0
  150.9685  137.9924  153.7366 H   0  0  0  0  0  0  0  0  0  0  0  0
  149.4560  135.9231  153.3961 H   0  0  0  0  0  0  0  0  0  0  0  0
  148.0930  134.6600  152.8276 H   0  0  0  0  0  0  0  0  0  0  0  0
  146.5018  133.1024  154.6391 H   0  0  0  0  0  0  0  0  0  0  0  0
  148.8506  131.7376  153.4099 H   0  0  0  0  0  0  0  0  0  0  0  0
  147.9250  131.2752  154.8337 H   0  0  0  0  0  0  0  0  0  0  0  0
  147.5921  129.9044  152.5090 H   0  0  0  0  0  0  0  0  0  0  0  0
  146.1572  130.3288  153.4589 H   0  0  0  0  0  0  0  0  0  0  0  0
  145.8065  130.2168  150.4907 H   0  0  0  0  0  0  0  0  0  0  0  0
  144.5655  131.0076  151.4520 H   0  0  0  0  0  0  0  0  0  0  0  0
  146.2392  132.2468  149.1972 H   0  0  0  0  0  0  0  0  0  0  0  0
  144.5213  131.9489  149.1464 H   0  0  0  0  0  0  0  0  0  0  0  0
  145.1041  134.3809  149.5749 H   0  0  0  0  0  0  0  0  0  0  0  0
  144.0952  133.6879  150.8190 H   0  0  0  0  0  0  0  0  0  0  0  0
  147.1165  134.1546  150.9977 H   0  0  0  0  0  0  0  0  0  0  0  0
  145.8656  134.9785  151.9101 H   0  0  0  0  0  0  0  0  0  0  0  0
  145.1732  132.7966  152.9218 H   0  0  0  0  0  0  0  0  0  0  0  0
  150.5139  134.8405  156.6846 H   0  0  0  0  0  0  0  0  0  0  0  0
  147.3597  131.8461  151.3035 H   0  0  0  0  0  0  0  0  0  0  0  0
  1  2  1  0  0  0  0
  1 24  1  0  0  0  0
  1 25  1  0  0  0  0
  1 26  1  0  0  0  0
  2  3  2  0  0  0  0
  2  4  2  0  0  0  0
  2  5  1  0  0  0  0
  5 23  1  0  0  0  0
  5  6  2  0  0  0  0
  6  7  1  0  0  0  0
  6 27  1  0  0  0  0
  7  8  2  0  0  0  0
  7 28  1  0  0  0  0
  8  9  1  0  0  0  0
  8 22  1  0  0  0  0
  9 10  1  0  0  0  0
  9 29  1  0  0  0  0
 10 11  2  0  0  0  0
 10 12  1  0  0  0  0
 12 13  1  0  0  0  0
 12 30  1  0  0  0  0
 13 21  1  0  0  0  0
 13 14  1  0  0  0  0
 13 31  1  0  0  0  0
 14 15  1  0  0  0  0
 14 32  1  0  0  0  0
 14 33  1  0  0  0  0
 15 16  1  0  0  0  0
 15 34  1  0  0  0  0
 15 35  1  0  0  0  0
 16 21  1  0  0  0  0
 16 17  1  0  0  0  0
 16 46  1  0  0  0  0
 17 18  1  0  0  0  0
 17 36  1  0  0  0  0
 17 37  1  0  0  0  0
 18 19  1  0  0  0  0
 18 38  1  0  0  0  0
 18 39  1  0  0  0  0
 19 20  1  0  0  0  0
 19 40  1  0  0  0  0
 19 41  1  0  0  0  0
 20 21  1  0  0  0  0
 20 42  1  0  0  0  0
 20 43  1  0  0  0  0
 21 44  1  0  0  0  0
 22 23  2  0  0  0  0
 22 45  1  0  0  0  0
M  CHG  1  16   1
M  END
> <s_m_source_file>
AV-unprocessed.smi

> <i_m_source_file_index>
1738

> <i_lp_mmshare_version>
43012

> <i_f3d_flags>
0

> <s_epik_input>
W0NIM11TKD1PKSg9TyljMVtjSF1bY0hdYyhbY0hdbjEpW05IXUMoPU8pW05IXVtDQEhdKFtDSDJdW0NIMl0yKVtDQEBIXShOMjMpW0NIMl1bQ0gyXVtDSDJdW0NIMl0z

> <s_epik_cmdline>
J2VwaWtfcHl0aG9uJywgJy1waCcsICc3LjAnLCAnLXRuJywgJzgnLCAnLW1hJywgJzIwMCcsICctbWV0YWxfYmluZGluZycsICctaW1hZScsICc8aW5maWxlLm1hZT4nLCAnLW9tYWUnLCAnPG91dGZpbGUubWFlPic=

> <r_epik_Ionization_Penalty>
0.00100042

> <r_epik_Ionization_Penalty_Charging>
0.000974069

> <r_epik_Ionization_Penalty_Neutral>
2.63543e-05

> <r_epik_State_Penalty>
0.000633842

> <r_epik_Charging_Adjusted_Penalty>
0.00160791

> <i_epik_Tot_Q>
1

> <i_epik_Tot_abs_Q>
1

> <r_epik_Metal_State_Penalty>
-0

> <b_epik_Metal_Only>
0

> <s_lp_Force_Field>
OPLS_2005

> <r_lp_Energy>
43.1351

> <b_lp_Chiralities_Consistent>
1

> <s_lp_Variant>
AV-unprocessed.smi:1738-5

> <Gold.Version>
5.8.1

> <Gold.Id.Protein>
6NUR|6NUR_protein|mol2

> <Gold.PLP.Fitness>
43.2820

> <Gold.PLP.PLP>
-32.5092

> <Gold.PLP.part.hbond>
-4.8342

> <Gold.PLP.part.metal>
0.0000

> <Gold.PLP.part.buried>
-3.2556

> <Gold.PLP.part.nonpolar>
-24.1250

> <Gold.PLP.part.repulsive>
0.0606

> <Gold.PLP.ligand.clash>
0.0000

> <Gold.PLP.ligand.torsion>
1.2875

> <Gold.PLP.Chemscore.Hbond>
3.7760

> <Gold.PLP.Chemscore.CHOScore>
0.0000

> <Gold.PLP.Chemscore.Metal>
0.0000

> <Gold.Chemscore.Hbonds>
donor molecule, donor type, donor heavy atom, donor atom, acceptor molecule, acceptor atom, score
      L1  H     9    29       P1  7948  1.00
      L1  H    12    30       P1  7948  0.91
      L1  H    16    46       P1 10747  0.57
      P1  H  7997  8010       L1     3  1.00

> <Gold.PLP.Chemscore.Internal.Correction>
2.0199

> <Gold.Rescore>
     Score         DG    S(hbond)    S(metal)    S(lipo)     H(rot)  DE(clash)    DE(int)     intcor
     18.13     -20.80       2.47        0.00      82.41       1.00       0.04       2.63       ----

> <Gold.Chemscore.Fitness>
18.1285

> <Gold.Chemscore.DG>
-20.8007

> <Gold.Chemscore.ZeroCoef>
-5.4800

> <Gold.Chemscore.Hbond>
2.4667

> <Gold.Chemscore.Metal>
0.0000

> <Gold.Chemscore.Lipo>
82.4104

> <Gold.Chemscore.Internal_Hbond>
0.0000

> <Gold.Chemscore.DEClash>
0.0377

> <Gold.Chemscore.DEInternal>
2.6346

> <Gold.Chemscore.Rot>
1.0000

> <Gold.Chemscore.Internal.Correction>
   9.000000E+99

> <Gold.Chemscore.Hbonds>
donor molecule, donor type, donor heavy atom, donor atom, acceptor molecule, acceptor atom, score
      L1  H     9    29       P1  7948  0.34
      L1  H    12    30       P1  7948  0.60
      L1  H    16    46       P1 10747  0.56
      P1  H  7997  8010       L1     3  0.23

> <Gold.Chemscore.Hbond.Weighted>
-8.2387

> <Gold.Chemscore.Metal.Weighted>
-0.0000

> <Gold.Chemscore.Lipo.Weighted>
-9.6420

> <Gold.Chemscore.Internal_Hbond.Weighted>
0.0000

> <Gold.Chemscore.DEClash.Weighted>
0.0377

> <Gold.Chemscore.DEInternal.Weighted>
2.6346

> <Gold.Chemscore.Rot.Weighted>
2.5600

> <Gold.Chemscore.Internal.Correction.Weighted>
   9.000000E+99

> <Gold.Protein.RotatedTorsions>
[ 6907 6896 6895 6894 ] final -131.94 input  -60.11 | X-H torsion
[ 7974 7965 7964 7962 ] final  -95.52 input  175.53 | X-H torsion
[ 8008 7997 7996 7995 ] final   52.47 input   59.86 | X-H torsion
[ 10167 10162 10161 10158 ] final  -88.20 input  -65.29 | X-H torsion
[ 10718 10713 10712 10709 ] final  -85.62 input   66.30 | X-H torsion
[ 10763 10752 10751 10750 ] final  -40.35 input  -60.55 | X-H torsion
[ 11005 11000 10999 10996 ] final  -74.41 input  -57.11 | X-H torsion

> <Gold.Protein.ActiveResidues>
 VAL166  LYS551  ARG553  GLY616  TRP617  ASP618  TYR619  PRO620  LYS621  CYS622 
 ASP623  PHE694  ASN695  SER759  ASP760  ASP761  ALA762  ILE779  LEU786  VAL792 
 PHE793  MET794  SER795  GLU796  ALA797  LYS798  CYS799  TRP800  GLU811  SER814 

> <Gold.Protein.RotatedAtoms>
  150.9567  133.6490  159.2761 H   0  0  0  0  0  0  0  0  0  0  0  0  # atno 6907 bound_to 6896
  151.3827  135.0941  159.9511 H   0  0  0  0  0  0  0  0  0  0  0  0  # atno 6908 bound_to 6896
  152.5131  133.9098  159.7537 H   0  0  0  0  0  0  0  0  0  0  0  0  # atno 6909 bound_to 6896
  145.3590  140.9489  143.2511 H   0  0  0  0  0  0  0  0  0  0  0  0  # atno 7974 bound_to 7965
  155.4524  140.3458  155.4302 H   0  0  0  0  0  0  0  0  0  0  0  0  # atno 8008 bound_to 7997
  156.1212  140.1487  156.9231 H   0  0  0  0  0  0  0  0  0  0  0  0  # atno 8009 bound_to 7997
  154.4825  140.0865  156.7389 H   0  0  0  0  0  0  0  0  0  0  0  0  # atno 8010 bound_to 7997
  140.3770  143.2767  151.9431 H   0  0  0  0  0  0  0  0  0  0  0  0  # atno 10167 bound_to 10162
  155.9995  130.4737  150.4590 H   0  0  0  0  0  0  0  0  0  0  0  0  # atno 10718 bound_to 10713
  153.9446  135.6757  153.4744 H   0  0  0  0  0  0  0  0  0  0  0  0  # atno 10763 bound_to 10752
  153.0914  135.4872  154.8695 H   0  0  0  0  0  0  0  0  0  0  0  0  # atno 10764 bound_to 10752
  154.7359  135.3149  154.8771 H   0  0  0  0  0  0  0  0  0  0  0  0  # atno 10765 bound_to 10752
  141.1635  133.6910  156.7360 H   0  0  0  0  0  0  0  0  0  0  0  0  # atno 11005 bound_to 11000
  144.8660  139.5106  143.6790 LP  0  0  0  0  0  0  0  0  0  0  0  0  # atno 17320 bound_to 7965
  146.2935  139.7210  142.9143 LP  0  0  0  0  0  0  0  0  0  0  0  0  # atno 17321 bound_to 7965
  139.4798  144.5854  151.7862 LP  0  0  0  0  0  0  0  0  0  0  0  0  # atno 17342 bound_to 10162
  140.4976  144.1217  150.5964 LP  0  0  0  0  0  0  0  0  0  0  0  0  # atno 17343 bound_to 10162
  157.2616  131.0568  151.2316 LP  0  0  0  0  0  0  0  0  0  0  0  0  # atno 17370 bound_to 10713
  157.3429  130.7042  149.6393 LP  0  0  0  0  0  0  0  0  0  0  0  0  # atno 17371 bound_to 10713
  140.2709  134.8392  157.3847 LP  0  0  0  0  0  0  0  0  0  0  0  0  # atno 17394 bound_to 11000
  140.1522  134.4835  155.7953 LP  0  0  0  0  0  0  0  0  0  0  0  0  # atno 17395 bound_to 11000

$$$$
