AV-unprocessed.smi:2892|AV-procd|sdf|11119|dock8
  -GOLD-   2272015593D 1   1.00000     0.00000
 Structure written by MMmdl.
 42 42  0  0  0  0  0  0  0  0  2 V2000
  151.8397  138.5143  155.5190 C   0  0  0  0  0  0  0  0  0  0  0  0
  150.4671  137.8315  155.4231 C   0  0  0  0  0  0  0  0  0  0  0  0
  150.1574  136.8441  156.5802 C   0  0  1  0  0  0  0  0  0  0  0  0
  151.3005  135.8137  156.7234 C   0  0  0  0  0  0  0  0  0  0  0  0
  149.8888  137.5713  157.9351 C   0  0  2  0  0  0  0  0  0  0  0  0
  151.1476  138.1060  158.4551 N   0  0  0  0  0  0  0  0  0  0  0  0
  151.4377  139.4037  158.6479 C   0  0  0  0  0  0  0  0  0  0  0  0
  150.6856  140.3231  158.3255 O   0  0  0  0  0  0  0  0  0  0  0  0
  152.7906  139.7143  159.2955 C   0  0  0  0  0  0  0  0  0  0  0  0
  152.8368  141.1427  159.7740 C   0  0  0  0  0  0  0  0  0  0  0  0
  153.1204  141.6185  161.0862 C   0  0  0  0  0  0  0  0  0  0  0  0
  152.9815  142.9724  160.9823 C   0  0  0  0  0  0  0  0  0  0  0  0
  152.6587  143.2550  159.6706 N   0  0  0  0  0  0  0  0  0  0  0  0
  152.3613  144.5414  159.0594 C   0  0  0  0  0  0  0  0  0  0  0  0
  151.2997  145.3093  159.8624 C   0  0  0  0  0  0  0  0  0  0  0  0
  151.9517  144.3565  157.5907 C   0  0  0  0  0  0  0  0  0  0  0  0
  152.5719  142.1294  158.9297 N   0  0  0  0  0  0  0  0  0  0  0  0
  149.3341  136.5867  158.9832 C   0  0  0  0  0  0  0  0  0  0  0  0
  149.0005  137.0652  160.0891 O   0  0  0  0  0  0  0  0  0  0  0  0
  149.2486  135.3794  158.6620 O   0  5  0  0  0  0  0  0  0  0  0  0
  152.0371  139.1012  154.6218 H   0  0  0  0  0  0  0  0  0  0  0  0
  152.6394  137.7795  155.6144 H   0  0  0  0  0  0  0  0  0  0  0  0
  151.8998  139.1948  156.3674 H   0  0  0  0  0  0  0  0  0  0  0  0
  149.6850  138.5893  155.3652 H   0  0  0  0  0  0  0  0  0  0  0  0
  150.4471  137.3131  154.4652 H   0  0  0  0  0  0  0  0  0  0  0  0
  149.2563  136.2907  156.3091 H   0  0  0  0  0  0  0  0  0  0  0  0
  152.2389  136.3019  156.9879 H   0  0  0  0  0  0  0  0  0  0  0  0
  151.4635  135.2569  155.8019 H   0  0  0  0  0  0  0  0  0  0  0  0
  151.0885  135.0696  157.4910 H   0  0  0  0  0  0  0  0  0  0  0  0
  149.1737  138.3814  157.7774 H   0  0  0  0  0  0  0  0  0  0  0  0
  151.8265  137.4248  158.7616 H   0  0  0  0  0  0  0  0  0  0  0  0
  152.9466  139.0275  160.1278 H   0  0  0  0  0  0  0  0  0  0  0  0
  153.5911  139.5233  158.5793 H   0  0  0  0  0  0  0  0  0  0  0  0
  153.3636  141.0502  161.9713 H   0  0  0  0  0  0  0  0  0  0  0  0
  153.0778  143.7484  161.7270 H   0  0  0  0  0  0  0  0  0  0  0  0
  153.2763  145.1366  159.0763 H   0  0  0  0  0  0  0  0  0  0  0  0
  151.1361  146.3013  159.4409 H   0  0  0  0  0  0  0  0  0  0  0  0
  151.6104  145.4396  160.8994 H   0  0  0  0  0  0  0  0  0  0  0  0
  150.3412  144.7893  159.8627 H   0  0  0  0  0  0  0  0  0  0  0  0
  151.7807  145.3182  157.1068 H   0  0  0  0  0  0  0  0  0  0  0  0
  151.0354  143.7719  157.5036 H   0  0  0  0  0  0  0  0  0  0  0  0
  152.7302  143.8386  157.0293 H   0  0  0  0  0  0  0  0  0  0  0  0
  1  2  1  0  0  0  0
  1 21  1  0  0  0  0
  1 22  1  0  0  0  0
  1 23  1  0  0  0  0
  2  3  1  0  0  0  0
  2 24  1  0  0  0  0
  2 25  1  0  0  0  0
  3  4  1  0  0  0  0
  3  5  1  0  0  0  0
  3 26  1  0  0  0  0
  4 27  1  0  0  0  0
  4 28  1  0  0  0  0
  4 29  1  0  0  0  0
  5  6  1  0  0  0  0
  5 18  1  0  0  0  0
  5 30  1  0  0  0  0
  6  7  1  0  0  0  0
  6 31  1  0  0  0  0
  7  8  2  0  0  0  0
  7  9  1  0  0  0  0
  9 10  1  0  0  0  0
  9 32  1  0  0  0  0
  9 33  1  0  0  0  0
 10 17  2  0  0  0  0
 10 11  1  0  0  0  0
 11 12  2  0  0  0  0
 11 34  1  0  0  0  0
 12 13  1  0  0  0  0
 12 35  1  0  0  0  0
 13 14  1  0  0  0  0
 13 17  1  0  0  0  0
 14 15  1  0  0  0  0
 14 16  1  0  0  0  0
 14 36  1  0  0  0  0
 15 37  1  0  0  0  0
 15 38  1  0  0  0  0
 15 39  1  0  0  0  0
 16 40  1  0  0  0  0
 16 41  1  0  0  0  0
 16 42  1  0  0  0  0
 18 19  2  0  0  0  0
 18 20  1  0  0  0  0
M  CHG  1  20  -1
M  END
> <s_m_source_file>
AV-unprocessed.smi

> <i_m_source_file_index>
2892

> <i_lp_mmshare_version>
43012

> <i_f3d_flags>
0

> <s_epik_input>
W0NIM11bQ0gyXVtDQEhdKFtDSDNdKVtDQEBIXShDKD1PKVtPSF0pW05IXUMoPU8pW0NIMl1jMVtjSF1bY0hdbihuMSlbQ0hdKFtDSDNdKVtDSDNd

> <s_epik_cmdline>
J2VwaWtfcHl0aG9uJywgJy1waCcsICc3LjAnLCAnLXRuJywgJzgnLCAnLW1hJywgJzIwMCcsICctbWV0YWxfYmluZGluZycsICctaW1hZScsICc8aW5maWxlLm1hZT4nLCAnLW9tYWUnLCAnPG91dGZpbGUubWFlPic=

> <r_lp_tautomer_probability>
1

> <r_epik_Ionization_Penalty>
0.000286846

> <r_epik_Ionization_Penalty_Charging>
0.000224481

> <r_epik_Ionization_Penalty_Neutral>
6.23655e-05

> <r_epik_State_Penalty>
-0

> <r_epik_Charging_Adjusted_Penalty>
0.000224481

> <i_epik_Tot_Q>
-1

> <i_epik_Tot_abs_Q>
1

> <r_epik_Metal_State_Penalty>
-0

> <b_epik_Metal_Only>
0

> <s_lp_Force_Field>
OPLS_2005

> <r_lp_Energy>
14.4899

> <b_lp_Chiralities_Consistent>
1

> <s_lp_Variant>
AV-unprocessed.smi:2892-2

> <Gold.Version>
5.8.1

> <Gold.Id.Protein>
6NUR|6NUR_protein|mol2

> <Gold.PLP.Fitness>
49.9281

> <Gold.PLP.PLP>
-41.4447

> <Gold.PLP.part.hbond>
-2.0229

> <Gold.PLP.part.metal>
0.0000

> <Gold.PLP.part.buried>
-7.2113

> <Gold.PLP.part.nonpolar>
-32.7937

> <Gold.PLP.part.repulsive>
0.0989

> <Gold.PLP.ligand.clash>
0.0000

> <Gold.PLP.ligand.torsion>
0.4631

> <Gold.PLP.Chemscore.Hbond>
3.0880

> <Gold.PLP.Chemscore.CHOScore>
0.0000

> <Gold.PLP.Chemscore.Metal>
0.0000

> <Gold.Chemscore.Hbonds>
donor molecule, donor type, donor heavy atom, donor atom, acceptor molecule, acceptor atom, score
      P1  H  6896  6907       L1    20  2.00
      P1  H  6931  6943       L1    19  0.78

> <Gold.PLP.Chemscore.Internal.Correction>
0.1456

> <Gold.Rescore>
     Score         DG    S(hbond)    S(metal)    S(lipo)     H(rot)  DE(clash)    DE(int)     intcor
     12.88     -15.84       1.54        0.00      96.79       2.39       0.02       2.94       ----

> <Gold.Chemscore.Fitness>
12.8843

> <Gold.Chemscore.DG>
-15.8433

> <Gold.Chemscore.ZeroCoef>
-5.4800

> <Gold.Chemscore.Hbond>
1.5415

> <Gold.Chemscore.Metal>
0.0000

> <Gold.Chemscore.Lipo>
96.7881

> <Gold.Chemscore.Internal_Hbond>
0.0000

> <Gold.Chemscore.DEClash>
0.0202

> <Gold.Chemscore.DEInternal>
2.9388

> <Gold.Chemscore.Rot>
2.3865

> <Gold.Chemscore.Internal.Correction>
   9.000000E+99

> <Gold.Chemscore.Hbonds>
donor molecule, donor type, donor heavy atom, donor atom, acceptor molecule, acceptor atom, score
      P1  H  6896  6907       L1    20  0.78
      P1  H  6931  6943       L1    19  0.38

> <Gold.Chemscore.Hbond.Weighted>
-5.1485

> <Gold.Chemscore.Metal.Weighted>
-0.0000

> <Gold.Chemscore.Lipo.Weighted>
-11.3242

> <Gold.Chemscore.Internal_Hbond.Weighted>
0.0000

> <Gold.Chemscore.DEClash.Weighted>
0.0202

> <Gold.Chemscore.DEInternal.Weighted>
2.9388

> <Gold.Chemscore.Rot.Weighted>
6.1093

> <Gold.Chemscore.Internal.Correction.Weighted>
   9.000000E+99

> <Gold.Protein.RotatedTorsions>
[ 6907 6896 6895 6894 ] final  -84.83 input  -60.11 | X-H torsion
[ 7974 7965 7964 7962 ] final  137.44 input  175.53 | X-H torsion
[ 8008 7997 7996 7995 ] final -157.79 input   59.86 | X-H torsion
[ 10167 10162 10161 10158 ] final  131.73 input  -65.29 | X-H torsion
[ 10718 10713 10712 10709 ] final   42.97 input   66.30 | X-H torsion
[ 10763 10752 10751 10750 ] final   80.18 input  -60.55 | X-H torsion
[ 11005 11000 10999 10996 ] final    9.54 input  -57.11 | X-H torsion

> <Gold.Protein.ActiveResidues>
 VAL166  LYS551  ARG553  GLY616  TRP617  ASP618  TYR619  PRO620  LYS621  CYS622 
 ASP623  PHE694  ASN695  SER759  ASP760  ASP761  ALA762  ILE779  LEU786  VAL792 
 PHE793  MET794  SER795  GLU796  ALA797  LYS798  CYS799  TRP800  GLU811  SER814 

> <Gold.Protein.RotatedAtoms>
  150.6874  134.3299  159.4822 H   0  0  0  0  0  0  0  0  0  0  0  0  # atno 6907 bound_to 6896
  152.1164  134.9234  160.0574 H   0  0  0  0  0  0  0  0  0  0  0  0  # atno 6908 bound_to 6896
  152.0457  133.3962  159.4392 H   0  0  0  0  0  0  0  0  0  0  0  0  # atno 6909 bound_to 6896
  144.9467  139.4866  143.5545 H   0  0  0  0  0  0  0  0  0  0  0  0  # atno 7974 bound_to 7965
  155.7378  140.0810  157.2259 H   0  0  0  0  0  0  0  0  0  0  0  0  # atno 8008 bound_to 7997
  154.4025  140.1583  156.2637 H   0  0  0  0  0  0  0  0  0  0  0  0  # atno 8009 bound_to 7997
  155.9048  140.3407  155.6057 H   0  0  0  0  0  0  0  0  0  0  0  0  # atno 8010 bound_to 7997
  139.5371  144.6693  151.4749 H   0  0  0  0  0  0  0  0  0  0  0  0  # atno 10167 bound_to 10162
  157.4107  130.7913  149.7428 H   0  0  0  0  0  0  0  0  0  0  0  0  # atno 10718 bound_to 10713
  153.1012  135.4812  154.8870 H   0  0  0  0  0  0  0  0  0  0  0  0  # atno 10763 bound_to 10752
  154.7381  135.3076  154.8779 H   0  0  0  0  0  0  0  0  0  0  0  0  # atno 10764 bound_to 10752
  153.9395  135.6835  153.4798 H   0  0  0  0  0  0  0  0  0  0  0  0  # atno 10765 bound_to 10752
  140.5246  134.0526  155.7855 H   0  0  0  0  0  0  0  0  0  0  0  0  # atno 11005 bound_to 11000
  146.3306  139.8525  142.8870 LP  0  0  0  0  0  0  0  0  0  0  0  0  # atno 17320 bound_to 7965
  145.2906  141.0166  143.3665 LP  0  0  0  0  0  0  0  0  0  0  0  0  # atno 17321 bound_to 7965
  140.6583  143.8553  150.6859 LP  0  0  0  0  0  0  0  0  0  0  0  0  # atno 17342 bound_to 10162
  140.1939  143.4014  152.1842 LP  0  0  0  0  0  0  0  0  0  0  0  0  # atno 17343 bound_to 10162
  155.9850  130.3987  150.3284 LP  0  0  0  0  0  0  0  0  0  0  0  0  # atno 17370 bound_to 10713
  157.1422  131.0299  151.2923 LP  0  0  0  0  0  0  0  0  0  0  0  0  # atno 17371 bound_to 10713
  141.1315  133.9294  157.2525 LP  0  0  0  0  0  0  0  0  0  0  0  0  # atno 17394 bound_to 11000
  139.9587  135.0159  156.9201 LP  0  0  0  0  0  0  0  0  0  0  0  0  # atno 17395 bound_to 11000

$$$$
