AV-unprocessed.smi:1352|AV-procd|sdf|5529|dock7
  -GOLD-   22720 5123D 1   1.00000     0.00000
 Structure written by MMmdl.
 47 48  0  0  0  0  0  0  0  0  2 V2000
  153.4048  142.4503  163.1152 C   0  0  0  0  0  0  0  0  0  0  0  0
  152.6880  142.5681  161.7626 C   0  0  1  0  0  0  0  0  0  0  0  0
  152.3250  144.0301  161.4474 C   0  0  0  0  0  0  0  0  0  0  0  0
  151.6518  144.1478  160.0689 C   0  0  1  0  0  0  0  0  0  0  0  0
  151.3107  145.6070  159.7358 C   0  0  0  0  0  0  0  0  0  0  0  0
  152.5536  143.5198  158.9857 C   0  0  0  0  0  0  0  0  0  0  0  0
  152.8906  142.1041  159.2895 N   0  3  2  0  0  0  0  0  0  0  0  0
  151.7687  141.1602  159.0390 C   0  0  0  0  0  0  0  0  0  0  0  0
  151.2848  141.1996  157.5768 C   0  0  0  0  0  0  0  0  0  0  0  0
  151.5958  139.9599  156.8748 N   0  0  0  0  0  0  0  0  0  0  0  0
  151.3140  139.7143  155.5864 C   0  0  0  0  0  0  0  0  0  0  0  0
  150.7318  140.5220  154.8611 O   0  0  0  0  0  0  0  0  0  0  0  0
  151.7402  138.3382  155.0545 C   0  0  0  0  0  0  0  0  0  0  0  0
  150.8226  137.2525  155.4386 N   0  0  0  0  0  0  0  0  0  0  0  0
  149.4791  137.3727  155.0305 C   0  0  0  0  0  0  0  0  0  0  0  0
  148.5607  136.4398  155.3274 C   0  0  0  0  0  0  0  0  0  0  0  0
  148.9803  135.2866  156.0881 C   0  0  0  0  0  0  0  0  0  0  0  0
  150.2637  135.1598  156.4803 C   0  0  0  0  0  0  0  0  0  0  0  0
  151.2716  136.1758  156.1553 C   0  0  0  0  0  0  0  0  0  0  0  0
  152.4473  136.0660  156.5047 O   0  0  0  0  0  0  0  0  0  0  0  0
  153.5399  141.9674  160.6223 C   0  0  0  0  0  0  0  0  0  0  0  0
  154.3474  142.9988  163.1148 H   0  0  0  0  0  0  0  0  0  0  0  0
  153.6255  141.4095  163.3534 H   0  0  0  0  0  0  0  0  0  0  0  0
  152.7886  142.8484  163.9219 H   0  0  0  0  0  0  0  0  0  0  0  0
  151.7612  141.9999  161.8444 H   0  0  0  0  0  0  0  0  0  0  0  0
  151.6619  144.4223  162.2197 H   0  0  0  0  0  0  0  0  0  0  0  0
  153.2250  144.6464  161.4705 H   0  0  0  0  0  0  0  0  0  0  0  0
  150.7116  143.5957  160.1003 H   0  0  0  0  0  0  0  0  0  0  0  0
  152.2086  146.2241  159.6876 H   0  0  0  0  0  0  0  0  0  0  0  0
  150.6513  146.0381  160.4899 H   0  0  0  0  0  0  0  0  0  0  0  0
  150.8028  145.6822  158.7737 H   0  0  0  0  0  0  0  0  0  0  0  0
  152.0843  143.5904  158.0035 H   0  0  0  0  0  0  0  0  0  0  0  0
  153.4848  144.0837  158.9140 H   0  0  0  0  0  0  0  0  0  0  0  0
  152.0438  140.1450  159.3241 H   0  0  0  0  0  0  0  0  0  0  0  0
  150.9324  141.4362  159.6821 H   0  0  0  0  0  0  0  0  0  0  0  0
  150.2113  141.3917  157.5339 H   0  0  0  0  0  0  0  0  0  0  0  0
  151.7670  142.0083  157.0293 H   0  0  0  0  0  0  0  0  0  0  0  0
  152.0738  139.2422  157.4008 H   0  0  0  0  0  0  0  0  0  0  0  0
  151.8312  138.3825  153.9674 H   0  0  0  0  0  0  0  0  0  0  0  0
  152.7484  138.1326  155.4167 H   0  0  0  0  0  0  0  0  0  0  0  0
  149.2476  138.2608  154.4606 H   0  0  0  0  0  0  0  0  0  0  0  0
  147.5359  136.5472  155.0031 H   0  0  0  0  0  0  0  0  0  0  0  0
  148.2624  134.5211  156.3430 H   0  0  0  0  0  0  0  0  0  0  0  0
  150.5595  134.2898  157.0480 H   0  0  0  0  0  0  0  0  0  0  0  0
  154.4999  142.4838  160.5795 H   0  0  0  0  0  0  0  0  0  0  0  0
  153.7745  140.9243  160.8309 H   0  0  0  0  0  0  0  0  0  0  0  0
  153.5934  141.8499  158.6099 H   0  0  0  0  0  0  0  0  0  0  0  0
  1  2  1  0  0  0  0
  1 22  1  0  0  0  0
  1 23  1  0  0  0  0
  1 24  1  0  0  0  0
  2 21  1  0  0  0  0
  2  3  1  0  0  0  0
  2 25  1  0  0  0  0
  3  4  1  0  0  0  0
  3 26  1  0  0  0  0
  3 27  1  0  0  0  0
  4  5  1  0  0  0  0
  4  6  1  0  0  0  0
  4 28  1  0  0  0  0
  5 29  1  0  0  0  0
  5 30  1  0  0  0  0
  5 31  1  0  0  0  0
  6  7  1  0  0  0  0
  6 32  1  0  0  0  0
  6 33  1  0  0  0  0
  7  8  1  0  0  0  0
  7 21  1  0  0  0  0
  7 47  1  0  0  0  0
  8  9  1  0  0  0  0
  8 34  1  0  0  0  0
  8 35  1  0  0  0  0
  9 10  1  0  0  0  0
  9 36  1  0  0  0  0
  9 37  1  0  0  0  0
 10 11  1  0  0  0  0
 10 38  1  0  0  0  0
 11 12  2  0  0  0  0
 11 13  1  0  0  0  0
 13 14  1  0  0  0  0
 13 39  1  0  0  0  0
 13 40  1  0  0  0  0
 14 19  1  0  0  0  0
 14 15  1  0  0  0  0
 15 16  2  0  0  0  0
 15 41  1  0  0  0  0
 16 17  1  0  0  0  0
 16 42  1  0  0  0  0
 17 18  2  0  0  0  0
 17 43  1  0  0  0  0
 18 19  1  0  0  0  0
 18 44  1  0  0  0  0
 19 20  2  0  0  0  0
 21 45  1  0  0  0  0
 21 46  1  0  0  0  0
M  CHG  1   7   1
M  END
> <s_m_source_file>
AV-unprocessed.smi

> <i_m_source_file_index>
1352

> <i_lp_mmshare_version>
43012

> <i_f3d_flags>
0

> <s_epik_input>
W0NIM11bQ0BASF0xW0NIMl1bQ0BASF0oW0NIM10pW0NIMl1OKFtDSDJdMSlbQ0gyXVtDSDJdW05IXUMoPU8pW0NIMl1uMltjSF1bY0hdW2NIXVtjSF1jMj1P

> <s_epik_cmdline>
J2VwaWtfcHl0aG9uJywgJy1waCcsICc3LjAnLCAnLXRuJywgJzgnLCAnLW1hJywgJzIwMCcsICctbWV0YWxfYmluZGluZycsICctaW1hZScsICc8aW5maWxlLm1hZT4nLCAnLW9tYWUnLCAnPG91dGZpbGUubWFlPic=

> <r_lp_tautomer_probability>
1

> <r_epik_Ionization_Penalty>
0.00156146

> <r_epik_Ionization_Penalty_Charging>
0.00156138

> <r_epik_Ionization_Penalty_Neutral>
8.12891e-08

> <r_epik_State_Penalty>
0.00104868

> <r_epik_Charging_Adjusted_Penalty>
0.00261006

> <i_epik_Tot_Q>
1

> <i_epik_Tot_abs_Q>
1

> <r_epik_Metal_State_Penalty>
-0

> <b_epik_Metal_Only>
0

> <s_lp_Force_Field>
OPLS_2005

> <r_lp_Energy>
27.4422

> <b_lp_Chiralities_Consistent>
1

> <s_lp_Variant>
AV-unprocessed.smi:1352-2

> <Gold.Version>
5.8.1

> <Gold.Id.Protein>
6NUR|6NUR_protein|mol2

> <Gold.PLP.Fitness>
50.4986

> <Gold.PLP.PLP>
-45.7460

> <Gold.PLP.part.hbond>
-2.0000

> <Gold.PLP.part.metal>
0.0000

> <Gold.PLP.part.buried>
-5.6323

> <Gold.PLP.part.nonpolar>
-38.5663

> <Gold.PLP.part.repulsive>
0.2583

> <Gold.PLP.ligand.clash>
0.0000

> <Gold.PLP.ligand.torsion>
0.6509

> <Gold.PLP.Chemscore.Hbond>
2.0000

> <Gold.PLP.Chemscore.CHOScore>
0.0000

> <Gold.PLP.Chemscore.Metal>
0.0000

> <Gold.Chemscore.Hbonds>
donor molecule, donor type, donor heavy atom, donor atom, acceptor molecule, acceptor atom, score
      P1  H  7989  7998       L1    12  1.00
      P1  H 10752 10765       L1    20  1.00

> <Gold.PLP.Chemscore.Internal.Correction>
0.0544

> <Gold.Rescore>
     Score         DG    S(hbond)    S(metal)    S(lipo)     H(rot)  DE(clash)    DE(int)     intcor
     19.47     -20.20       1.88        0.00     112.08       1.83       0.07       0.66       ----

> <Gold.Chemscore.Fitness>
19.4694

> <Gold.Chemscore.DG>
-20.1964

> <Gold.Chemscore.ZeroCoef>
-5.4800

> <Gold.Chemscore.Hbond>
1.8847

> <Gold.Chemscore.Metal>
0.0000

> <Gold.Chemscore.Lipo>
112.0833

> <Gold.Chemscore.Internal_Hbond>
0.0000

> <Gold.Chemscore.DEClash>
0.0710

> <Gold.Chemscore.DEInternal>
0.6560

> <Gold.Chemscore.Rot>
1.8329

> <Gold.Chemscore.Internal.Correction>
   9.000000E+99

> <Gold.Chemscore.Hbonds>
donor molecule, donor type, donor heavy atom, donor atom, acceptor molecule, acceptor atom, score
      P1  H  7989  7998       L1    12  0.79
      P1  H 10752 10765       L1    20  0.30

> <Gold.Chemscore.Hbond.Weighted>
-6.2948

> <Gold.Chemscore.Metal.Weighted>
-0.0000

> <Gold.Chemscore.Lipo.Weighted>
-13.1138

> <Gold.Chemscore.Internal_Hbond.Weighted>
0.0000

> <Gold.Chemscore.DEClash.Weighted>
0.0710

> <Gold.Chemscore.DEInternal.Weighted>
0.6560

> <Gold.Chemscore.Rot.Weighted>
4.6922

> <Gold.Chemscore.Internal.Correction.Weighted>
   9.000000E+99

> <Gold.Protein.RotatedTorsions>
[ 6907 6896 6895 6894 ] final -139.06 input  -60.11 | X-H torsion
[ 7974 7965 7964 7962 ] final   53.37 input  175.53 | X-H torsion
[ 8008 7997 7996 7995 ] final -161.29 input   59.86 | X-H torsion
[ 10167 10162 10161 10158 ] final   45.60 input  -65.29 | X-H torsion
[ 10718 10713 10712 10709 ] final   69.19 input   66.30 | X-H torsion
[ 10763 10752 10751 10750 ] final -149.46 input  -60.55 | X-H torsion
[ 11005 11000 10999 10996 ] final  -26.04 input  -57.11 | X-H torsion

> <Gold.Protein.ActiveResidues>
 VAL166  LYS551  ARG553  GLY616  TRP617  ASP618  TYR619  PRO620  LYS621  CYS622 
 ASP623  PHE694  ASN695  SER759  ASP760  ASP761  ALA762  ILE779  LEU786  VAL792 
 PHE793  MET794  SER795  GLU796  ALA797  LYS798  CYS799  TRP800  GLU811  SER814 

> <Gold.Protein.RotatedAtoms>
  151.0429  133.5690  159.2649 H   0  0  0  0  0  0  0  0  0  0  0  0  # atno 6907 bound_to 6896
  151.2730  135.0689  159.9151 H   0  0  0  0  0  0  0  0  0  0  0  0  # atno 6908 bound_to 6896
  152.5367  134.0156  159.8012 H   0  0  0  0  0  0  0  0  0  0  0  0  # atno 6909 bound_to 6896
  145.9719  139.4157  143.0185 H   0  0  0  0  0  0  0  0  0  0  0  0  # atno 7974 bound_to 7965
  155.7900  140.0877  157.2014 H   0  0  0  0  0  0  0  0  0  0  0  0  # atno 8008 bound_to 7997
  154.3986  140.1492  156.3210 H   0  0  0  0  0  0  0  0  0  0  0  0  # atno 8009 bound_to 7997
  155.8568  140.3432  155.5732 H   0  0  0  0  0  0  0  0  0  0  0  0  # atno 8010 bound_to 7997
  140.3225  144.2688  150.6180 H   0  0  0  0  0  0  0  0  0  0  0  0  # atno 10167 bound_to 10162
  157.6332  130.9412  150.0479 H   0  0  0  0  0  0  0  0  0  0  0  0  # atno 10718 bound_to 10713
  154.8176  135.3308  154.7132 H   0  0  0  0  0  0  0  0  0  0  0  0  # atno 10763 bound_to 10752
  153.7770  135.6921  153.4900 H   0  0  0  0  0  0  0  0  0  0  0  0  # atno 10764 bound_to 10752
  153.2006  135.4517  155.0209 H   0  0  0  0  0  0  0  0  0  0  0  0  # atno 10765 bound_to 10752
  140.8993  133.7535  156.0523 H   0  0  0  0  0  0  0  0  0  0  0  0  # atno 11005 bound_to 11000
  145.7894  140.9821  143.1057 LP  0  0  0  0  0  0  0  0  0  0  0  0  # atno 17320 bound_to 7965
  144.6839  139.9663  143.7481 LP  0  0  0  0  0  0  0  0  0  0  0  0  # atno 17321 bound_to 7965
  140.5470  143.2213  151.7990 LP  0  0  0  0  0  0  0  0  0  0  0  0  # atno 17342 bound_to 10162
  139.4871  144.4526  151.9636 LP  0  0  0  0  0  0  0  0  0  0  0  0  # atno 17343 bound_to 10162
  156.1550  130.3643  149.9382 LP  0  0  0  0  0  0  0  0  0  0  0  0  # atno 17370 bound_to 10713
  156.7393  130.9073  151.3631 LP  0  0  0  0  0  0  0  0  0  0  0  0  # atno 17371 bound_to 10713
  140.8249  134.3245  157.5369 LP  0  0  0  0  0  0  0  0  0  0  0  0  # atno 17394 bound_to 11000
  139.8740  134.9331  156.3570 LP  0  0  0  0  0  0  0  0  0  0  0  0  # atno 17395 bound_to 11000

$$$$
