AV-unprocessed.smi:263|AV-procd|sdf|2006|dock5
  -GOLD-   2262021203D 1   1.00000     0.00000
 Structure written by MMmdl.
 57 61  0  0  0  0  0  0  0  0  1 V2000
  148.4113  135.1891  154.2837 O   0  0  0  0  0  0  0  0  0  0  0  0
  149.0910  134.0537  154.7907 C   0  0  0  0  0  0  0  0  0  0  0  0
  150.4325  134.5326  155.4000 C   0  0  0  0  0  0  0  0  0  0  0  0
  150.3873  135.8782  155.9519 N   0  0  0  0  0  0  0  0  0  0  0  0
  149.7085  136.2868  157.0778 C   0  0  0  0  0  0  0  0  0  0  0  0
  149.8214  137.5545  157.3662 N   0  0  0  0  0  0  0  0  0  0  0  0
  150.6379  138.0612  156.3615 C   0  0  0  0  0  0  0  0  0  0  0  0
  151.1543  139.3535  156.0601 C   0  0  0  0  0  0  0  0  0  0  0  0
  150.9092  140.4427  156.8333 N   0  0  0  0  0  0  0  0  0  0  0  0
  149.9170  141.4060  156.3510 C   0  0  0  0  0  0  0  0  0  0  0  0
  149.4933  142.3806  157.4666 C   0  0  0  0  0  0  0  0  0  0  0  0
  150.7084  143.0613  158.1308 C   0  0  1  0  0  0  0  0  0  0  0  0
  151.3170  143.8944  157.1570 O   0  0  0  0  0  0  0  0  0  0  0  0
  150.2840  143.9587  159.3148 C   0  0  0  0  0  0  0  0  0  0  0  0
  151.4930  144.5548  160.0614 C   0  0  0  0  0  0  0  0  0  0  0  0
  152.4769  143.4626  160.5105 C   0  0  0  0  0  0  0  0  0  0  0  0
  152.9192  142.5831  159.3292 C   0  0  0  0  0  0  0  0  0  0  0  0
  151.7015  141.9708  158.6100 C   0  0  2  0  0  0  0  0  0  0  0  0
  152.0969  141.0250  157.4593 C   0  0  0  0  0  0  0  0  0  0  0  0
  151.9229  139.4732  154.9439 N   0  0  0  0  0  0  0  0  0  0  0  0
  152.1769  138.4070  154.1799 C   0  0  0  0  0  0  0  0  0  0  0  0
  151.7679  137.1475  154.3423 N   0  0  0  0  0  0  0  0  0  0  0  0
  150.9929  137.0202  155.4572 C   0  0  0  0  0  0  0  0  0  0  0  0
  148.2100  133.4034  155.8765 C   0  0  0  0  0  0  0  0  0  0  0  0
  146.9425  132.7594  155.2872 C   0  0  0  0  0  0  0  0  0  0  0  0
  147.2986  131.8186  154.2819 O   0  0  0  0  0  0  0  0  0  0  0  0
  147.9606  132.4221  153.1770 C   0  0  0  0  0  0  0  0  0  0  0  0
  149.2898  133.0501  153.6335 C   0  0  0  0  0  0  0  0  0  0  0  0
  148.9264  135.5615  153.5841 H   0  0  0  0  0  0  0  0  0  0  0  0
  150.7547  133.8509  156.1884 H   0  0  0  0  0  0  0  0  0  0  0  0
  151.2161  134.5078  154.6416 H   0  0  0  0  0  0  0  0  0  0  0  0
  149.1258  135.6093  157.6852 H   0  0  0  0  0  0  0  0  0  0  0  0
  150.3324  141.9600  155.5081 H   0  0  0  0  0  0  0  0  0  0  0  0
  149.0354  140.8793  155.9830 H   0  0  0  0  0  0  0  0  0  0  0  0
  148.8070  143.1277  157.0657 H   0  0  0  0  0  0  0  0  0  0  0  0
  148.9319  141.8273  158.2207 H   0  0  0  0  0  0  0  0  0  0  0  0
  150.6463  144.2034  156.5674 H   0  0  0  0  0  0  0  0  0  0  0  0
  149.6314  144.7612  158.9680 H   0  0  0  0  0  0  0  0  0  0  0  0
  149.6932  143.3718  160.0193 H   0  0  0  0  0  0  0  0  0  0  0  0
  152.0093  145.2678  159.4178 H   0  0  0  0  0  0  0  0  0  0  0  0
  151.1486  145.1208  160.9272 H   0  0  0  0  0  0  0  0  0  0  0  0
  153.3486  143.9182  160.9812 H   0  0  0  0  0  0  0  0  0  0  0  0
  152.0058  142.8400  161.2721 H   0  0  0  0  0  0  0  0  0  0  0  0
  153.5109  143.1749  158.6296 H   0  0  0  0  0  0  0  0  0  0  0  0
  153.5743  141.7903  159.6917 H   0  0  0  0  0  0  0  0  0  0  0  0
  151.1808  141.3578  159.3482 H   0  0  0  0  0  0  0  0  0  0  0  0
  152.7580  140.2504  157.8460 H   0  0  0  0  0  0  0  0  0  0  0  0
  152.6656  141.5652  156.7014 H   0  0  0  0  0  0  0  0  0  0  0  0
  152.7975  138.5894  153.3149 H   0  0  0  0  0  0  0  0  0  0  0  0
  148.7823  132.6282  156.3882 H   0  0  0  0  0  0  0  0  0  0  0  0
  147.9381  134.1342  156.6393 H   0  0  0  0  0  0  0  0  0  0  0  0
  146.3904  132.2410  156.0711 H   0  0  0  0  0  0  0  0  0  0  0  0
  146.2706  133.5141  154.8755 H   0  0  0  0  0  0  0  0  0  0  0  0
  148.1499  131.6582  152.4227 H   0  0  0  0  0  0  0  0  0  0  0  0
  147.3132  133.1676  152.7128 H   0  0  0  0  0  0  0  0  0  0  0  0
  149.7771  133.5276  152.7830 H   0  0  0  0  0  0  0  0  0  0  0  0
  149.9569  132.2516  153.9612 H   0  0  0  0  0  0  0  0  0  0  0  0
  1  2  1  0  0  0  0
  1 29  1  0  0  0  0
  2 28  1  0  0  0  0
  2  3  1  0  0  0  0
  2 24  1  0  0  0  0
  3  4  1  0  0  0  0
  3 30  1  0  0  0  0
  3 31  1  0  0  0  0
  4 23  1  0  0  0  0
  4  5  1  0  0  0  0
  5  6  2  0  0  0  0
  5 32  1  0  0  0  0
  6  7  1  0  0  0  0
  7 23  2  0  0  0  0
  7  8  1  0  0  0  0
  8  9  1  0  0  0  0
  8 20  2  0  0  0  0
  9 19  1  0  0  0  0
  9 10  1  0  0  0  0
 10 11  1  0  0  0  0
 10 33  1  0  0  0  0
 10 34  1  0  0  0  0
 11 12  1  0  0  0  0
 11 35  1  0  0  0  0
 11 36  1  0  0  0  0
 12 18  1  0  0  0  0
 12 13  1  0  0  0  0
 12 14  1  0  0  0  0
 13 37  1  0  0  0  0
 14 15  1  0  0  0  0
 14 38  1  0  0  0  0
 14 39  1  0  0  0  0
 15 16  1  0  0  0  0
 15 40  1  0  0  0  0
 15 41  1  0  0  0  0
 16 17  1  0  0  0  0
 16 42  1  0  0  0  0
 16 43  1  0  0  0  0
 17 18  1  0  0  0  0
 17 44  1  0  0  0  0
 17 45  1  0  0  0  0
 18 19  1  0  0  0  0
 18 46  1  0  0  0  0
 19 47  1  0  0  0  0
 19 48  1  0  0  0  0
 20 21  1  0  0  0  0
 21 22  2  0  0  0  0
 21 49  1  0  0  0  0
 22 23  1  0  0  0  0
 24 25  1  0  0  0  0
 24 50  1  0  0  0  0
 24 51  1  0  0  0  0
 25 26  1  0  0  0  0
 25 52  1  0  0  0  0
 25 53  1  0  0  0  0
 26 27  1  0  0  0  0
 27 28  1  0  0  0  0
 27 54  1  0  0  0  0
 27 55  1  0  0  0  0
 28 56  1  0  0  0  0
 28 57  1  0  0  0  0
M  END
> <s_m_source_file>
AV-unprocessed.smi

> <i_m_source_file_index>
263

> <i_lp_mmshare_version>
43012

> <i_f3d_flags>
0

> <s_epik_input>
W0NIMl0xW0NIMl1PW0NIMl1bQ0gyXUMxKFtPSF0pW0NIMl1uKFtjSF1uMiljKGMyMyluW2NIXW5jM04oW0NIMl1bQ0gyXTQpW0NIMl1bQ0BASF0oW0NAXTQ1W09IXSlbQ0gyXVtDSDJdW0NIMl1bQ0gyXTU=

> <s_epik_cmdline>
J2VwaWtfcHl0aG9uJywgJy1waCcsICc3LjAnLCAnLXRuJywgJzgnLCAnLW1hJywgJzIwMCcsICctbWV0YWxfYmluZGluZycsICctaW1hZScsICc8aW5maWxlLm1hZT4nLCAnLW9tYWUnLCAnPG91dGZpbGUubWFlPic=

> <r_lp_tautomer_probability>
1

> <r_epik_Ionization_Penalty>
0.00747493

> <r_epik_Ionization_Penalty_Charging>
0

> <r_epik_Ionization_Penalty_Neutral>
0.00747493

> <r_epik_State_Penalty>
0.00549307

> <r_epik_Charging_Adjusted_Penalty>
0.00549307

> <i_epik_Tot_Q>
0

> <i_epik_Tot_abs_Q>
0

> <r_epik_Metal_State_Penalty>
-0

> <b_epik_Metal_Only>
0

> <s_lp_Force_Field>
OPLS_2005

> <r_lp_Energy>
38.115

> <b_lp_Chiralities_Consistent>
1

> <s_lp_Variant>
AV-unprocessed.smi:263-4

> <Gold.Version>
5.8.1

> <Gold.Id.Protein>
6NUR|6NUR_protein|mol2

> <Gold.PLP.Fitness>
54.2251

> <Gold.PLP.PLP>
-43.6105

> <Gold.PLP.part.hbond>
-4.0000

> <Gold.PLP.part.metal>
0.0000

> <Gold.PLP.part.buried>
-8.1555

> <Gold.PLP.part.nonpolar>
-32.0187

> <Gold.PLP.part.repulsive>
0.2579

> <Gold.PLP.ligand.clash>
0.0000

> <Gold.PLP.ligand.torsion>
0.8526

> <Gold.PLP.Chemscore.Hbond>
3.9753

> <Gold.PLP.Chemscore.CHOScore>
0.0000

> <Gold.PLP.Chemscore.Metal>
0.0000

> <Gold.Chemscore.Hbonds>
donor molecule, donor type, donor heavy atom, donor atom, acceptor molecule, acceptor atom, score
      L1  H     1    29       P1  7948  0.96
      L1  H    13    37       P1  8028  1.00
      P1  H  7989  7998       L1    20  0.93
      P1  H 10752 10765       L1    22  1.00

> <Gold.PLP.Chemscore.Internal.Correction>
0.3937

> <Gold.Rescore>
     Score         DG    S(hbond)    S(metal)    S(lipo)     H(rot)  DE(clash)    DE(int)     intcor
     19.59     -21.09       3.02        0.00     104.71       2.62       0.61       0.89       ----

> <Gold.Chemscore.Fitness>
19.5898

> <Gold.Chemscore.DG>
-21.0939

> <Gold.Chemscore.ZeroCoef>
-5.4800

> <Gold.Chemscore.Hbond>
3.0174

> <Gold.Chemscore.Metal>
0.0000

> <Gold.Chemscore.Lipo>
104.7131

> <Gold.Chemscore.Internal_Hbond>
0.0000

> <Gold.Chemscore.DEClash>
0.6145

> <Gold.Chemscore.DEInternal>
0.8896

> <Gold.Chemscore.Rot>
2.6232

> <Gold.Chemscore.Internal.Correction>
   9.000000E+99

> <Gold.Chemscore.Hbonds>
donor molecule, donor type, donor heavy atom, donor atom, acceptor molecule, acceptor atom, score
      L1  H     1    29       P1  7948  0.79
      L1  H    13    37       P1  8028  0.94
      P1  H  7989  7998       L1    20  0.19
      P1  H 10752 10765       L1    22  0.75

> <Gold.Chemscore.Hbond.Weighted>
-10.0780

> <Gold.Chemscore.Metal.Weighted>
-0.0000

> <Gold.Chemscore.Lipo.Weighted>
-12.2514

> <Gold.Chemscore.Internal_Hbond.Weighted>
0.0000

> <Gold.Chemscore.DEClash.Weighted>
0.6145

> <Gold.Chemscore.DEInternal.Weighted>
0.8896

> <Gold.Chemscore.Rot.Weighted>
6.7155

> <Gold.Chemscore.Internal.Correction.Weighted>
   9.000000E+99

> <Gold.Protein.RotatedTorsions>
[ 6907 6896 6895 6894 ] final  151.25 input  -60.11 | X-H torsion
[ 7974 7965 7964 7962 ] final    3.44 input  175.53 | X-H torsion
[ 8008 7997 7996 7995 ] final    0.70 input   59.86 | X-H torsion
[ 10167 10162 10161 10158 ] final  -59.14 input  -65.29 | X-H torsion
[ 10718 10713 10712 10709 ] final  -75.64 input   66.30 | X-H torsion
[ 10763 10752 10751 10750 ] final  154.77 input  -60.55 | X-H torsion
[ 11005 11000 10999 10996 ] final  -30.22 input  -57.11 | X-H torsion

> <Gold.Protein.ActiveResidues>
 VAL166  LYS551  ARG553  GLY616  TRP617  ASP618  TYR619  PRO620  LYS621  CYS622 
 ASP623  PHE694  ASN695  SER759  ASP760  ASP761  ALA762  ILE779  LEU786  VAL792 
 PHE793  MET794  SER795  GLU796  ALA797  LYS798  CYS799  TRP800  GLU811  SER814 

> <Gold.Protein.RotatedAtoms>
  152.1032  133.4261  159.4596 H   0  0  0  0  0  0  0  0  0  0  0  0  # atno 6907 bound_to 6896
  150.6865  134.2735  159.4607 H   0  0  0  0  0  0  0  0  0  0  0  0  # atno 6908 bound_to 6896
  152.0598  134.9601  160.0625 H   0  0  0  0  0  0  0  0  0  0  0  0  # atno 6909 bound_to 6896
  146.2445  140.0685  142.8364 H   0  0  0  0  0  0  0  0  0  0  0  0  # atno 7974 bound_to 7965
  154.6711  140.2612  155.7006 H   0  0  0  0  0  0  0  0  0  0  0  0  # atno 8008 bound_to 7997
  156.2659  140.2829  156.1142 H   0  0  0  0  0  0  0  0  0  0  0  0  # atno 8009 bound_to 7997
  155.1167  140.0376  157.2729 H   0  0  0  0  0  0  0  0  0  0  0  0  # atno 8010 bound_to 7997
  140.6154  143.2400  151.5610 H   0  0  0  0  0  0  0  0  0  0  0  0  # atno 10167 bound_to 10162
  156.0201  130.4446  150.3073 H   0  0  0  0  0  0  0  0  0  0  0  0  # atno 10718 bound_to 10713
  154.1576  135.2811  155.3118 H   0  0  0  0  0  0  0  0  0  0  0  0  # atno 10763 bound_to 10752
  154.6171  135.5480  153.7538 H   0  0  0  0  0  0  0  0  0  0  0  0  # atno 10764 bound_to 10752
  153.0202  135.6429  154.1719 H   0  0  0  0  0  0  0  0  0  0  0  0  # atno 10765 bound_to 10752
  140.9364  133.7306  156.1011 H   0  0  0  0  0  0  0  0  0  0  0  0  # atno 11005 bound_to 11000
  145.0837  140.9238  143.4810 LP  0  0  0  0  0  0  0  0  0  0  0  0  # atno 17320 bound_to 7965
  145.0843  139.2936  143.5767 LP  0  0  0  0  0  0  0  0  0  0  0  0  # atno 17321 bound_to 7965
  139.5394  144.2690  152.1319 LP  0  0  0  0  0  0  0  0  0  0  0  0  # atno 17342 bound_to 10162
  140.1898  144.4763  150.6485 LP  0  0  0  0  0  0  0  0  0  0  0  0  # atno 17343 bound_to 10162
  157.1175  131.0238  151.3023 LP  0  0  0  0  0  0  0  0  0  0  0  0  # atno 17370 bound_to 10713
  157.4654  130.7678  149.7274 LP  0  0  0  0  0  0  0  0  0  0  0  0  # atno 17371 bound_to 10713
  140.7793  134.3743  157.5491 LP  0  0  0  0  0  0  0  0  0  0  0  0  # atno 17394 bound_to 11000
  139.8809  134.9072  156.2939 LP  0  0  0  0  0  0  0  0  0  0  0  0  # atno 17395 bound_to 11000

$$$$
