AV-unprocessed.smi:2718|AV-procd|sdf|10492|dock6
  -GOLD-   2272014543D 1   1.00000     0.00000
 Structure written by MMmdl.
 47 48  0  0  0  0  0  0  0  0  1 V2000
  151.2058  142.5647  157.9316 C   0  0  0  0  0  0  0  0  0  0  0  0
  151.3355  141.1960  157.2932 C   0  0  0  0  0  0  0  0  0  0  0  0
  150.7713  141.0961  155.8870 C   0  0  0  0  0  0  0  0  0  0  0  0
  151.9060  140.1634  157.9433 C   0  0  0  0  0  0  0  0  0  0  0  0
  152.0877  138.7742  157.4318 C   0  0  2  0  0  0  0  0  0  0  0  0
  151.0493  137.6621  157.5479 C   0  0  2  0  0  0  0  0  0  0  0  0
  149.7278  137.8945  158.2264 C   0  0  0  0  0  0  0  0  0  0  0  0
  149.4150  138.9339  158.8072 O   0  0  0  0  0  0  0  0  0  0  0  0
  148.8968  136.8457  158.1356 N   0  0  0  0  0  0  0  0  0  0  0  0
  147.5443  136.7814  158.6836 C   0  0  0  0  0  0  0  0  0  0  0  0
  147.3217  135.5816  159.6327 C   0  0  1  0  0  0  0  0  0  0  0  0
  148.1915  134.3783  159.2415 C   0  0  0  0  0  0  0  0  0  0  0  0
  147.4967  135.9426  161.0839 C   0  0  0  0  0  0  0  0  0  0  0  0
  147.8041  137.1764  161.5070 N   0  0  0  0  0  0  0  0  0  0  0  0
  147.8691  137.0950  162.8832 N   0  0  0  0  0  0  0  0  0  0  0  0
  147.6007  135.8193  163.1561 C   0  0  0  0  0  0  0  0  0  0  0  0
  147.3623  135.0472  162.0855 N   0  0  0  0  0  0  0  0  0  0  0  0
  147.0509  133.6322  162.0488 C   0  0  0  0  0  0  0  0  0  0  0  0
  152.3414  137.5944  158.3570 C   0  0  0  0  0  0  0  0  0  0  0  0
  153.3656  136.5476  157.9535 C   0  0  0  0  0  0  0  0  0  0  0  0
  152.3989  137.7809  159.8713 C   0  0  0  0  0  0  0  0  0  0  0  0
  151.7296  143.3120  157.3353 H   0  0  0  0  0  0  0  0  0  0  0  0
  151.6246  142.5797  158.9383 H   0  0  0  0  0  0  0  0  0  0  0  0
  150.1560  142.8515  157.9977 H   0  0  0  0  0  0  0  0  0  0  0  0
  149.6999  141.2970  155.8997 H   0  0  0  0  0  0  0  0  0  0  0  0
  150.9229  140.1117  155.4453 H   0  0  0  0  0  0  0  0  0  0  0  0
  151.2489  141.8299  155.2375 H   0  0  0  0  0  0  0  0  0  0  0  0
  152.2867  140.3377  158.9391 H   0  0  0  0  0  0  0  0  0  0  0  0
  152.6610  138.7879  156.5067 H   0  0  0  0  0  0  0  0  0  0  0  0
  150.9977  136.9864  156.6952 H   0  0  0  0  0  0  0  0  0  0  0  0
  149.2251  136.0258  157.6455 H   0  0  0  0  0  0  0  0  0  0  0  0
  147.3007  137.7188  159.1859 H   0  0  0  0  0  0  0  0  0  0  0  0
  146.8640  136.7035  157.8348 H   0  0  0  0  0  0  0  0  0  0  0  0
  146.2901  135.2619  159.4895 H   0  0  0  0  0  0  0  0  0  0  0  0
  147.9663  133.5131  159.8656 H   0  0  0  0  0  0  0  0  0  0  0  0
  149.2530  134.6021  159.3524 H   0  0  0  0  0  0  0  0  0  0  0  0
  148.0195  134.0905  158.2040 H   0  0  0  0  0  0  0  0  0  0  0  0
  147.5804  135.4375  164.1664 H   0  0  0  0  0  0  0  0  0  0  0  0
  146.9572  133.2414  163.0623 H   0  0  0  0  0  0  0  0  0  0  0  0
  147.8463  133.0946  161.5325 H   0  0  0  0  0  0  0  0  0  0  0  0
  146.1104  133.4731  161.5220 H   0  0  0  0  0  0  0  0  0  0  0  0
  153.1456  135.5952  158.4369 H   0  0  0  0  0  0  0  0  0  0  0  0
  154.3683  136.8634  158.2431 H   0  0  0  0  0  0  0  0  0  0  0  0
  153.3578  136.3922  156.8742 H   0  0  0  0  0  0  0  0  0  0  0  0
  152.0987  136.8619  160.3745 H   0  0  0  0  0  0  0  0  0  0  0  0
  151.7569  138.5879  160.2183 H   0  0  0  0  0  0  0  0  0  0  0  0
  153.4165  138.0217  160.1804 H   0  0  0  0  0  0  0  0  0  0  0  0
  1  2  1  0  0  0  0
  1 22  1  0  0  0  0
  1 23  1  0  0  0  0
  1 24  1  0  0  0  0
  2  3  1  0  0  0  0
  2  4  2  0  0  0  0
  3 25  1  0  0  0  0
  3 26  1  0  0  0  0
  3 27  1  0  0  0  0
  4  5  1  0  0  0  0
  4 28  1  0  0  0  0
  5 19  1  0  0  0  0
  5  6  1  0  0  0  0
  5 29  1  0  0  0  0
  6  7  1  0  0  0  0
  6 19  1  0  0  0  0
  6 30  1  0  0  0  0
  7  8  2  0  0  0  0
  7  9  1  0  0  0  0
  9 10  1  0  0  0  0
  9 31  1  0  0  0  0
 10 11  1  0  0  0  0
 10 32  1  0  0  0  0
 10 33  1  0  0  0  0
 11 12  1  0  0  0  0
 11 13  1  0  0  0  0
 11 34  1  0  0  0  0
 12 35  1  0  0  0  0
 12 36  1  0  0  0  0
 12 37  1  0  0  0  0
 13 17  1  0  0  0  0
 13 14  2  0  0  0  0
 14 15  1  0  0  0  0
 15 16  2  0  0  0  0
 16 17  1  0  0  0  0
 16 38  1  0  0  0  0
 17 18  1  0  0  0  0
 18 39  1  0  0  0  0
 18 40  1  0  0  0  0
 18 41  1  0  0  0  0
 19 20  1  0  0  0  0
 19 21  1  0  0  0  0
 20 42  1  0  0  0  0
 20 43  1  0  0  0  0
 20 44  1  0  0  0  0
 21 45  1  0  0  0  0
 21 46  1  0  0  0  0
 21 47  1  0  0  0  0
M  END
> <s_m_source_file>
AV-unprocessed.smi

> <i_m_source_file_index>
2718

> <i_lp_mmshare_version>
43012

> <i_f3d_flags>
0

> <s_epik_input>
W0NIM11DKFtDSDNdKT1bQ0hdW0NAQEhdKEMxKFtDSDNdKVtDSDNdKVtDQEhdMUMoPU8pW05IXVtDSDJdW0NASF0oW0NIM10pYzJubltjSF1uMltDSDNd

> <s_epik_cmdline>
J2VwaWtfcHl0aG9uJywgJy1waCcsICc3LjAnLCAnLXRuJywgJzgnLCAnLW1hJywgJzIwMCcsICctbWV0YWxfYmluZGluZycsICctaW1hZScsICc8aW5maWxlLm1hZT4nLCAnLW9tYWUnLCAnPG91dGZpbGUubWFlPic=

> <r_lp_tautomer_probability>
1

> <r_epik_Ionization_Penalty>
0.000449586

> <r_epik_Ionization_Penalty_Charging>
0

> <r_epik_Ionization_Penalty_Neutral>
0.000449586

> <r_epik_State_Penalty>
0.000243372

> <r_epik_Charging_Adjusted_Penalty>
0.000243372

> <i_epik_Tot_Q>
0

> <i_epik_Tot_abs_Q>
0

> <r_epik_Metal_State_Penalty>
-0

> <b_epik_Metal_Only>
0

> <s_lp_Force_Field>
OPLS_2005

> <r_lp_Energy>
15.6704

> <b_lp_Chiralities_Consistent>
1

> <s_lp_Variant>
AV-unprocessed.smi:2718-7

> <Gold.Version>
5.8.1

> <Gold.Id.Protein>
6NUR|6NUR_protein|mol2

> <Gold.PLP.Fitness>
37.0770

> <Gold.PLP.PLP>
-36.1267

> <Gold.PLP.part.hbond>
-3.6813

> <Gold.PLP.part.metal>
0.0000

> <Gold.PLP.part.buried>
-3.9416

> <Gold.PLP.part.nonpolar>
-27.4962

> <Gold.PLP.part.repulsive>
0.0778

> <Gold.PLP.ligand.clash>
0.0000

> <Gold.PLP.ligand.torsion>
0.8667

> <Gold.PLP.Chemscore.Hbond>
0.7840

> <Gold.PLP.Chemscore.CHOScore>
0.0000

> <Gold.PLP.Chemscore.Metal>
0.0000

> <Gold.Chemscore.Hbonds>
donor molecule, donor type, donor heavy atom, donor atom, acceptor molecule, acceptor atom, score
      P1  H  6934  6947       L1    14  0.72

> <Gold.PLP.Chemscore.Internal.Correction>
0.3317

> <Gold.Rescore>
     Score         DG    S(hbond)    S(metal)    S(lipo)     H(rot)  DE(clash)    DE(int)     intcor
      7.90     -10.10       0.59        0.00      65.43       1.95       0.08       2.12       ----

> <Gold.Chemscore.Fitness>
7.9018

> <Gold.Chemscore.DG>
-10.1020

> <Gold.Chemscore.ZeroCoef>
-5.4800

> <Gold.Chemscore.Hbond>
0.5888

> <Gold.Chemscore.Metal>
0.0000

> <Gold.Chemscore.Lipo>
65.4339

> <Gold.Chemscore.Internal_Hbond>
0.0000

> <Gold.Chemscore.DEClash>
0.0787

> <Gold.Chemscore.DEInternal>
2.1215

> <Gold.Chemscore.Rot>
1.9533

> <Gold.Chemscore.Internal.Correction>
   9.000000E+99

> <Gold.Chemscore.Hbonds>
donor molecule, donor type, donor heavy atom, donor atom, acceptor molecule, acceptor atom, score
      P1  H  6934  6947       L1    14  0.50

> <Gold.Chemscore.Hbond.Weighted>
-1.9667

> <Gold.Chemscore.Metal.Weighted>
-0.0000

> <Gold.Chemscore.Lipo.Weighted>
-7.6558

> <Gold.Chemscore.Internal_Hbond.Weighted>
0.0000

> <Gold.Chemscore.DEClash.Weighted>
0.0787

> <Gold.Chemscore.DEInternal.Weighted>
2.1215

> <Gold.Chemscore.Rot.Weighted>
5.0005

> <Gold.Chemscore.Internal.Correction.Weighted>
   9.000000E+99

> <Gold.Protein.RotatedTorsions>
[ 6907 6896 6895 6894 ] final   59.46 input  -60.11 | X-H torsion
[ 7974 7965 7964 7962 ] final  -64.73 input  175.53 | X-H torsion
[ 8008 7997 7996 7995 ] final  -73.43 input   59.86 | X-H torsion
[ 10167 10162 10161 10158 ] final  -58.91 input  -65.29 | X-H torsion
[ 10718 10713 10712 10709 ] final   70.94 input   66.30 | X-H torsion
[ 10763 10752 10751 10750 ] final  -87.18 input  -60.55 | X-H torsion
[ 11005 11000 10999 10996 ] final  -82.78 input  -57.11 | X-H torsion

> <Gold.Protein.ActiveResidues>
 VAL166  LYS551  ARG553  GLY616  TRP617  ASP618  TYR619  PRO620  LYS621  CYS622 
 ASP623  PHE694  ASN695  SER759  ASP760  ASP761  ALA762  ILE779  LEU786  VAL792 
 PHE793  MET794  SER795  GLU796  ALA797  LYS798  CYS799  TRP800  GLU811  SER814 

> <Gold.Protein.RotatedAtoms>
  152.3916  134.6431  160.0104 H   0  0  0  0  0  0  0  0  0  0  0  0  # atno 6907 bound_to 6896
  151.6663  133.3309  159.3194 H   0  0  0  0  0  0  0  0  0  0  0  0  # atno 6908 bound_to 6896
  150.7831  134.6837  159.6503 H   0  0  0  0  0  0  0  0  0  0  0  0  # atno 6909 bound_to 6896
  145.7631  140.8851  143.0419 H   0  0  0  0  0  0  0  0  0  0  0  0  # atno 7974 bound_to 7965
  154.5247  140.0779  156.8236 H   0  0  0  0  0  0  0  0  0  0  0  0  # atno 8008 bound_to 7997
  155.3501  140.3412  155.4221 H   0  0  0  0  0  0  0  0  0  0  0  0  # atno 8009 bound_to 7997
  156.1719  140.1622  156.8419 H   0  0  0  0  0  0  0  0  0  0  0  0  # atno 8010 bound_to 7997
  140.6168  143.2405  151.5578 H   0  0  0  0  0  0  0  0  0  0  0  0  # atno 10167 bound_to 10162
  157.6426  130.9503  150.0720 H   0  0  0  0  0  0  0  0  0  0  0  0  # atno 10718 bound_to 10713
  154.6308  135.5422  153.7678 H   0  0  0  0  0  0  0  0  0  0  0  0  # atno 10763 bound_to 10752
  153.0283  135.6435  154.1304 H   0  0  0  0  0  0  0  0  0  0  0  0  # atno 10764 bound_to 10752
  154.1234  135.2919  155.3183 H   0  0  0  0  0  0  0  0  0  0  0  0  # atno 10765 bound_to 10752
  141.1661  133.7261  156.8622 H   0  0  0  0  0  0  0  0  0  0  0  0  # atno 11005 bound_to 11000
  144.6826  139.9751  143.7482 LP  0  0  0  0  0  0  0  0  0  0  0  0  # atno 17320 bound_to 7965
  146.0244  139.3279  143.0793 LP  0  0  0  0  0  0  0  0  0  0  0  0  # atno 17321 bound_to 7965
  139.5405  144.2661  152.1341 LP  0  0  0  0  0  0  0  0  0  0  0  0  # atno 17342 bound_to 10162
  140.1872  144.4787  150.6497 LP  0  0  0  0  0  0  0  0  0  0  0  0  # atno 17343 bound_to 10162
  156.1721  130.3647  149.9150 LP  0  0  0  0  0  0  0  0  0  0  0  0  # atno 17370 bound_to 10713
  156.7123  130.8975  151.3610 LP  0  0  0  0  0  0  0  0  0  0  0  0  # atno 17371 bound_to 10713
  140.1840  134.9013  157.2983 LP  0  0  0  0  0  0  0  0  0  0  0  0  # atno 17394 bound_to 11000
  140.2363  134.3849  155.7500 LP  0  0  0  0  0  0  0  0  0  0  0  0  # atno 17395 bound_to 11000

$$$$
