AV-unprocessed.smi:2425|AV-procd|sdf|9575|dock4
  -GOLD-   2272013203D 1   1.00000     0.00000
 Structure written by MMmdl.
 35 36  0  0  0  0  0  0  0  0  3 V2000
  151.0113  144.8403  158.4860 C   0  0  0  0  0  0  0  0  0  0  0  0
  152.4958  144.4510  158.5442 C   0  0  0  0  0  0  0  0  0  0  0  0
  152.7448  143.0199  159.0441 C   0  0  0  0  0  0  0  0  0  0  0  0
  152.4291  142.0404  157.9929 N   0  0  0  0  0  0  0  0  0  0  0  0
  151.2099  141.6952  157.5483 C   0  0  0  0  0  0  0  0  0  0  0  0
  150.1624  142.1652  157.9919 O   0  0  0  0  0  0  0  0  0  0  0  0
  151.2961  140.7679  156.5794 N   0  0  0  0  0  0  0  0  0  0  0  0
  150.2432  140.1186  155.8723 C   0  0  0  0  0  0  0  0  0  0  0  0
  148.8789  140.3829  156.1474 C   0  0  0  0  0  0  0  0  0  0  0  0
  147.8899  139.7454  155.3754 C   0  0  0  0  0  0  0  0  0  0  0  0
  148.1707  138.8972  154.3670 N   0  0  0  0  0  0  0  0  0  0  0  0
  149.4692  138.6563  154.0928 C   0  0  0  0  0  0  0  0  0  0  0  0
  150.5479  139.2305  154.8039 C   0  0  0  0  0  0  0  0  0  0  0  0
  151.9292  138.8908  154.4125 N   0  3  0  0  0  0  0  0  0  0  0  0
  152.8225  139.7010  154.6376 O   0  0  0  0  0  0  0  0  0  0  0  0
  152.1186  137.7934  153.8986 O   0  5  0  0  0  0  0  0  0  0  0  0
  154.1303  142.6872  159.6349 C   0  0  0  0  0  0  0  0  0  0  0  0
  153.4522  141.8114  160.6914 C   0  0  0  0  0  0  0  0  0  0  0  0
  152.1633  142.5872  160.4101 C   0  0  0  0  0  0  0  0  0  0  0  0
  150.8931  145.8494  158.0910 H   0  0  0  0  0  0  0  0  0  0  0  0
  150.5520  144.8194  159.4743 H   0  0  0  0  0  0  0  0  0  0  0  0
  150.4505  144.1644  157.8401 H   0  0  0  0  0  0  0  0  0  0  0  0
  152.9174  144.5645  157.5449 H   0  0  0  0  0  0  0  0  0  0  0  0
  153.0298  145.1725  159.1626 H   0  0  0  0  0  0  0  0  0  0  0  0
  153.2218  141.5861  157.5639 H   0  0  0  0  0  0  0  0  0  0  0  0
  152.2233  140.4150  156.3914 H   0  0  0  0  0  0  0  0  0  0  0  0
  148.5726  141.0729  156.9184 H   0  0  0  0  0  0  0  0  0  0  0  0
  146.8436  139.9325  155.5663 H   0  0  0  0  0  0  0  0  0  0  0  0
  149.6515  137.9720  153.2772 H   0  0  0  0  0  0  0  0  0  0  0  0
  154.8089  142.1540  158.9679 H   0  0  0  0  0  0  0  0  0  0  0  0
  154.6183  143.5587  160.0747 H   0  0  0  0  0  0  0  0  0  0  0  0
  153.3889  140.7625  160.3975 H   0  0  0  0  0  0  0  0  0  0  0  0
  153.8440  141.9282  161.7022 H   0  0  0  0  0  0  0  0  0  0  0  0
  152.0329  143.4276  161.0939 H   0  0  0  0  0  0  0  0  0  0  0  0
  151.2649  141.9702  160.3793 H   0  0  0  0  0  0  0  0  0  0  0  0
  1  2  1  0  0  0  0
  1 20  1  0  0  0  0
  1 21  1  0  0  0  0
  1 22  1  0  0  0  0
  2  3  1  0  0  0  0
  2 23  1  0  0  0  0
  2 24  1  0  0  0  0
  3 19  1  0  0  0  0
  3  4  1  0  0  0  0
  3 17  1  0  0  0  0
  4  5  1  0  0  0  0
  4 25  1  0  0  0  0
  5  6  2  0  0  0  0
  5  7  1  0  0  0  0
  7  8  1  0  0  0  0
  7 26  1  0  0  0  0
  8 13  1  0  0  0  0
  8  9  2  0  0  0  0
  9 10  1  0  0  0  0
  9 27  1  0  0  0  0
 10 11  2  0  0  0  0
 10 28  1  0  0  0  0
 11 12  1  0  0  0  0
 12 13  2  0  0  0  0
 12 29  1  0  0  0  0
 13 14  1  0  0  0  0
 14 15  2  0  0  0  0
 14 16  1  0  0  0  0
 17 18  1  0  0  0  0
 17 30  1  0  0  0  0
 17 31  1  0  0  0  0
 18 19  1  0  0  0  0
 18 32  1  0  0  0  0
 18 33  1  0  0  0  0
 19 34  1  0  0  0  0
 19 35  1  0  0  0  0
M  CHG  1  14   1
M  CHG  1  16  -1
M  END
> <s_m_source_file>
AV-unprocessed.smi

> <i_m_source_file_index>
2425

> <i_lp_mmshare_version>
43012

> <i_f3d_flags>
0

> <s_epik_input>
W0NIMl0xW0NIMl1bQ0gyXUMxKFtDSDJdW0NIM10pW05IXUMoPU8pW05IXWMyW2NIXVtjSF1uW2NIXWMyW04rXSg9TylbTy1d

> <s_epik_cmdline>
J2VwaWtfcHl0aG9uJywgJy1waCcsICc3LjAnLCAnLXRuJywgJzgnLCAnLW1hJywgJzIwMCcsICctbWV0YWxfYmluZGluZycsICctaW1hZScsICc8aW5maWxlLm1hZT4nLCAnLW9tYWUnLCAnPG91dGZpbGUubWFlPic=

> <r_lp_tautomer_probability>
1

> <r_epik_Ionization_Penalty>
0.00016416

> <r_epik_Ionization_Penalty_Charging>
0

> <r_epik_Ionization_Penalty_Neutral>
0.00016416

> <r_epik_State_Penalty>
-0

> <r_epik_Charging_Adjusted_Penalty>
0

> <i_epik_Tot_Q>
0

> <i_epik_Tot_abs_Q>
2

> <r_epik_Metal_State_Penalty>
-0

> <b_epik_Metal_Only>
0

> <s_lp_Force_Field>
OPLS_2005

> <r_lp_Energy>
29.2252

> <b_lp_Chiralities_Consistent>
1

> <s_lp_Variant>
AV-unprocessed.smi:2425-1

> <Gold.Version>
5.8.1

> <Gold.Id.Protein>
6NUR|6NUR_protein|mol2

> <Gold.PLP.Fitness>
42.0153

> <Gold.PLP.PLP>
-34.4534

> <Gold.PLP.part.hbond>
-2.8837

> <Gold.PLP.part.metal>
0.0000

> <Gold.PLP.part.buried>
-3.5766

> <Gold.PLP.part.nonpolar>
-29.2135

> <Gold.PLP.part.repulsive>
0.6073

> <Gold.PLP.ligand.clash>
0.0000

> <Gold.PLP.ligand.torsion>
0.7454

> <Gold.PLP.Chemscore.Hbond>
1.8890

> <Gold.PLP.Chemscore.CHOScore>
1.0000

> <Gold.PLP.Chemscore.Metal>
0.0000

> <Gold.Chemscore.Hbonds>
donor molecule, donor type, donor heavy atom, donor atom, acceptor molecule, acceptor atom, score
      P1  H  7989  7998       L1    15  0.06
      P1  H  7997  8008       L1    15  0.80
      P1  H 10752 10765       L1    16  0.33
      L1  C    12    29       P1  7948  1.00

> <Gold.PLP.Chemscore.Internal.Correction>
0.3857

> <Gold.Rescore>
     Score         DG    S(hbond)    S(metal)    S(lipo)     H(rot)  DE(clash)    DE(int)     intcor
     14.22     -19.11       1.82        0.00      91.42       1.23       0.01       4.88       ----

> <Gold.Chemscore.Fitness>
14.2225

> <Gold.Chemscore.DG>
-19.1119

> <Gold.Chemscore.ZeroCoef>
-5.4800

> <Gold.Chemscore.Hbond>
1.8204

> <Gold.Chemscore.Metal>
0.0000

> <Gold.Chemscore.Lipo>
91.4181

> <Gold.Chemscore.Internal_Hbond>
0.0000

> <Gold.Chemscore.DEClash>
0.0079

> <Gold.Chemscore.DEInternal>
4.8815

> <Gold.Chemscore.Rot>
1.2282

> <Gold.Chemscore.Internal.Correction>
   9.000000E+99

> <Gold.Chemscore.Hbonds>
donor molecule, donor type, donor heavy atom, donor atom, acceptor molecule, acceptor atom, score
      P1  H  7997  8008       L1    15  0.79
      P1  H 10752 10765       L1    16  0.33

> <Gold.Chemscore.Hbond.Weighted>
-6.0801

> <Gold.Chemscore.Metal.Weighted>
-0.0000

> <Gold.Chemscore.Lipo.Weighted>
-10.6959

> <Gold.Chemscore.Internal_Hbond.Weighted>
0.0000

> <Gold.Chemscore.DEClash.Weighted>
0.0079

> <Gold.Chemscore.DEInternal.Weighted>
4.8815

> <Gold.Chemscore.Rot.Weighted>
3.1441

> <Gold.Chemscore.Internal.Correction.Weighted>
   9.000000E+99

> <Gold.Protein.RotatedTorsions>
[ 6907 6896 6895 6894 ] final   60.38 input  -60.11 | X-H torsion
[ 7974 7965 7964 7962 ] final  -82.52 input  175.53 | X-H torsion
[ 8008 7997 7996 7995 ] final  -16.36 input   59.86 | X-H torsion
[ 10167 10162 10161 10158 ] final -155.06 input  -65.29 | X-H torsion
[ 10718 10713 10712 10709 ] final  -93.00 input   66.30 | X-H torsion
[ 10763 10752 10751 10750 ] final  153.35 input  -60.55 | X-H torsion
[ 11005 11000 10999 10996 ] final  -20.34 input  -57.11 | X-H torsion

> <Gold.Protein.ActiveResidues>
 VAL166  LYS551  ARG553  GLY616  TRP617  ASP618  TYR619  PRO620  LYS621  CYS622 
 ASP623  PHE694  ASN695  SER759  ASP760  ASP761  ALA762  ILE779  LEU786  VAL792 
 PHE793  MET794  SER795  GLU796  ALA797  LYS798  CYS799  TRP800  GLU811  SER814 

> <Gold.Protein.RotatedAtoms>
  152.3998  134.6305  160.0074 H   0  0  0  0  0  0  0  0  0  0  0  0  # atno 6907 bound_to 6896
  151.6514  133.3315  159.3160 H   0  0  0  0  0  0  0  0  0  0  0  0  # atno 6908 bound_to 6896
  150.7900  134.6959  159.6567 H   0  0  0  0  0  0  0  0  0  0  0  0  # atno 6909 bound_to 6896
  145.5322  140.9520  143.1597 H   0  0  0  0  0  0  0  0  0  0  0  0  # atno 7974 bound_to 7965
  154.5059  140.2171  155.9253 H   0  0  0  0  0  0  0  0  0  0  0  0  # atno 8008 bound_to 7997
  156.1492  140.3164  155.8588 H   0  0  0  0  0  0  0  0  0  0  0  0  # atno 8009 bound_to 7997
  155.3971  140.0482  157.3029 H   0  0  0  0  0  0  0  0  0  0  0  0  # atno 8010 bound_to 7997
  139.6962  143.9339  152.2408 H   0  0  0  0  0  0  0  0  0  0  0  0  # atno 10167 bound_to 10162
  156.0008  130.5009  150.5710 H   0  0  0  0  0  0  0  0  0  0  0  0  # atno 10718 bound_to 10713
  154.1348  135.2824  155.3176 H   0  0  0  0  0  0  0  0  0  0  0  0  # atno 10763 bound_to 10752
  154.6329  135.5429  153.7705 H   0  0  0  0  0  0  0  0  0  0  0  0  # atno 10764 bound_to 10752
  153.0269  135.6467  154.1497 H   0  0  0  0  0  0  0  0  0  0  0  0  # atno 10765 bound_to 10752
  140.8455  133.7895  155.9907 H   0  0  0  0  0  0  0  0  0  0  0  0  # atno 11005 bound_to 11000
  144.7620  139.6934  143.7230 LP  0  0  0  0  0  0  0  0  0  0  0  0  # atno 17320 bound_to 7965
  146.2037  139.5347  142.9727 LP  0  0  0  0  0  0  0  0  0  0  0  0  # atno 17321 bound_to 7965
  139.9168  144.6823  150.8503 LP  0  0  0  0  0  0  0  0  0  0  0  0  # atno 17342 bound_to 10162
  140.7697  143.3403  151.2222 LP  0  0  0  0  0  0  0  0  0  0  0  0  # atno 17343 bound_to 10162
  157.3605  131.0749  151.1641 LP  0  0  0  0  0  0  0  0  0  0  0  0  # atno 17370 bound_to 10713
  157.2427  130.6577  149.5897 LP  0  0  0  0  0  0  0  0  0  0  0  0  # atno 17371 bound_to 10713
  140.8848  134.2567  157.5125 LP  0  0  0  0  0  0  0  0  0  0  0  0  # atno 17394 bound_to 11000
  139.8703  134.9633  156.4457 LP  0  0  0  0  0  0  0  0  0  0  0  0  # atno 17395 bound_to 11000

$$$$
