AV-unprocessed.smi:3337|AV-procd|sdf|12867|dock8
  -GOLD-   2272019263D 1   1.00000     0.00000
 Structure written by MMmdl.
 46 47  0  0  0  0  0  0  0  0  2 V2000
  145.0328  134.6427  149.5804 C   0  0  0  0  0  0  0  0  0  0  0  0
  145.8233  134.9822  150.8519 C   0  0  2  0  0  0  0  0  0  0  0  0
  145.5708  133.9491  151.9621 C   0  0  0  0  0  0  0  0  0  0  0  0
  146.3569  134.3159  153.2316 C   0  0  2  0  0  0  0  0  0  0  0  0
  146.0992  133.3077  154.3605 C   0  0  0  0  0  0  0  0  0  0  0  0
  146.0175  135.7529  153.6716 C   0  0  0  0  0  0  0  0  0  0  0  0
  146.2720  136.7324  152.5831 N   0  3  2  0  0  0  0  0  0  0  0  0
  146.0805  138.1315  153.0429 C   0  0  0  0  0  0  0  0  0  0  0  0
  147.3743  138.9661  152.9738 C   0  0  0  0  0  0  0  0  0  0  0  0
  148.4401  138.3559  153.7598 N   0  0  0  0  0  0  0  0  0  0  0  0
  149.1349  138.9781  154.7265 C   0  0  0  0  0  0  0  0  0  0  0  0
  148.9320  140.1513  155.0417 O   0  0  0  0  0  0  0  0  0  0  0  0
  150.2293  138.1512  155.4243 C   0  0  1  0  0  0  0  0  0  0  0  0
  151.0531  138.9725  156.4370 C   0  0  0  0  0  0  0  0  0  0  0  0
  149.6626  136.9533  156.0325 N   0  0  0  0  0  0  0  0  0  0  0  0
  148.3875  136.5924  156.1920 C   0  0  0  0  0  0  0  0  0  0  0  0
  148.2294  135.4397  156.8271 N   0  0  0  0  0  0  0  0  0  0  0  0
  149.5389  135.1215  157.0515 C   0  0  0  0  0  0  0  0  0  0  0  0
  150.4377  135.9990  156.6055 N   0  0  0  0  0  0  0  0  0  0  0  0
  145.4961  136.4008  151.3581 C   0  0  0  0  0  0  0  0  0  0  0  0
  143.9582  134.6546  149.7660 H   0  0  0  0  0  0  0  0  0  0  0  0
  145.2944  133.6517  149.2082 H   0  0  0  0  0  0  0  0  0  0  0  0
  145.2411  135.3578  148.7843 H   0  0  0  0  0  0  0  0  0  0  0  0
  146.8836  134.9514  150.5959 H   0  0  0  0  0  0  0  0  0  0  0  0
  144.5042  133.9011  152.1876 H   0  0  0  0  0  0  0  0  0  0  0  0
  145.8612  132.9551  151.6190 H   0  0  0  0  0  0  0  0  0  0  0  0
  147.4213  134.2780  152.9941 H   0  0  0  0  0  0  0  0  0  0  0  0
  145.0471  133.2923  154.6468 H   0  0  0  0  0  0  0  0  0  0  0  0
  146.6818  133.5534  155.2485 H   0  0  0  0  0  0  0  0  0  0  0  0
  146.3752  132.2978  154.0558 H   0  0  0  0  0  0  0  0  0  0  0  0
  144.9730  135.8190  153.9814 H   0  0  0  0  0  0  0  0  0  0  0  0
  146.6228  136.0114  154.5416 H   0  0  0  0  0  0  0  0  0  0  0  0
  145.2837  138.6042  152.4664 H   0  0  0  0  0  0  0  0  0  0  0  0
  145.7406  138.1154  154.0794 H   0  0  0  0  0  0  0  0  0  0  0  0
  147.6962  139.0914  151.9383 H   0  0  0  0  0  0  0  0  0  0  0  0
  147.2153  139.9670  153.3732 H   0  0  0  0  0  0  0  0  0  0  0  0
  148.6613  137.3906  153.5620 H   0  0  0  0  0  0  0  0  0  0  0  0
  150.9169  137.8191  154.6448 H   0  0  0  0  0  0  0  0  0  0  0  0
  151.5270  139.8300  155.9580 H   0  0  0  0  0  0  0  0  0  0  0  0
  151.8463  138.3657  156.8744 H   0  0  0  0  0  0  0  0  0  0  0  0
  150.4377  139.3487  157.2551 H   0  0  0  0  0  0  0  0  0  0  0  0
  147.5572  137.1866  155.8391 H   0  0  0  0  0  0  0  0  0  0  0  0
  149.8381  134.2189  157.5640 H   0  0  0  0  0  0  0  0  0  0  0  0
  145.7225  137.1136  150.5664 H   0  0  0  0  0  0  0  0  0  0  0  0
  144.4289  136.4918  151.5677 H   0  0  0  0  0  0  0  0  0  0  0  0
  147.2498  136.6412  152.3471 H   0  0  0  0  0  0  0  0  0  0  0  0
  1  2  1  0  0  0  0
  1 21  1  0  0  0  0
  1 22  1  0  0  0  0
  1 23  1  0  0  0  0
  2 20  1  0  0  0  0
  2  3  1  0  0  0  0
  2 24  1  0  0  0  0
  3  4  1  0  0  0  0
  3 25  1  0  0  0  0
  3 26  1  0  0  0  0
  4  5  1  0  0  0  0
  4  6  1  0  0  0  0
  4 27  1  0  0  0  0
  5 28  1  0  0  0  0
  5 29  1  0  0  0  0
  5 30  1  0  0  0  0
  6  7  1  0  0  0  0
  6 31  1  0  0  0  0
  6 32  1  0  0  0  0
  7  8  1  0  0  0  0
  7 20  1  0  0  0  0
  7 46  1  0  0  0  0
  8  9  1  0  0  0  0
  8 33  1  0  0  0  0
  8 34  1  0  0  0  0
  9 10  1  0  0  0  0
  9 35  1  0  0  0  0
  9 36  1  0  0  0  0
 10 11  1  0  0  0  0
 10 37  1  0  0  0  0
 11 12  2  0  0  0  0
 11 13  1  0  0  0  0
 13 14  1  0  0  0  0
 13 15  1  0  0  0  0
 13 38  1  0  0  0  0
 14 39  1  0  0  0  0
 14 40  1  0  0  0  0
 14 41  1  0  0  0  0
 15 19  1  0  0  0  0
 15 16  1  0  0  0  0
 16 17  2  0  0  0  0
 16 42  1  0  0  0  0
 17 18  1  0  0  0  0
 18 19  2  0  0  0  0
 18 43  1  0  0  0  0
 20 44  1  0  0  0  0
 20 45  1  0  0  0  0
M  CHG  1   7   1
M  END
> <s_m_source_file>
AV-unprocessed.smi

> <i_m_source_file_index>
3337

> <i_lp_mmshare_version>
43012

> <i_f3d_flags>
0

> <s_epik_input>
W0NIM11bQ0BASF0xW0NIMl1bQ0BASF0oW0NIM10pW0NIMl1OKFtDSDJdMSlbQ0gyXVtDSDJdW05IXUMoPU8pW0NASF0oW0NIM10pbjJbY0hdbltjSF1uMg==

> <s_epik_cmdline>
J2VwaWtfcHl0aG9uJywgJy1waCcsICc3LjAnLCAnLXRuJywgJzgnLCAnLW1hJywgJzIwMCcsICctbWV0YWxfYmluZGluZycsICctaW1hZScsICc8aW5maWxlLm1hZT4nLCAnLW9tYWUnLCAnPG91dGZpbGUubWFlPic=

> <r_lp_tautomer_probability>
1

> <r_epik_Ionization_Penalty>
0.00175613

> <r_epik_Ionization_Penalty_Charging>
0.00174812

> <r_epik_Ionization_Penalty_Neutral>
8.01354e-06

> <r_epik_State_Penalty>
0.00118332

> <r_epik_Charging_Adjusted_Penalty>
0.00293143

> <i_epik_Tot_Q>
1

> <i_epik_Tot_abs_Q>
1

> <r_epik_Metal_State_Penalty>
-0

> <b_epik_Metal_Only>
0

> <s_lp_Force_Field>
OPLS_2005

> <r_lp_Energy>
22.1533

> <b_lp_Chiralities_Consistent>
1

> <s_lp_Variant>
AV-unprocessed.smi:3337-7

> <Gold.Version>
5.8.1

> <Gold.Id.Protein>
6NUR|6NUR_protein|mol2

> <Gold.PLP.Fitness>
41.5299

> <Gold.PLP.PLP>
-31.0626

> <Gold.PLP.part.hbond>
-4.0000

> <Gold.PLP.part.metal>
0.0000

> <Gold.PLP.part.buried>
-1.0793

> <Gold.PLP.part.nonpolar>
-25.2725

> <Gold.PLP.part.repulsive>
0.3067

> <Gold.PLP.ligand.clash>
0.0000

> <Gold.PLP.ligand.torsion>
0.8416

> <Gold.PLP.Chemscore.Hbond>
4.0000

> <Gold.PLP.Chemscore.CHOScore>
0.0000

> <Gold.PLP.Chemscore.Metal>
0.0000

> <Gold.Chemscore.Hbonds>
donor molecule, donor type, donor heavy atom, donor atom, acceptor molecule, acceptor atom, score
      L1  H     7    46       P1  7948  2.00
      L1  H    10    37       P1  7948  0.66

> <Gold.PLP.Chemscore.Internal.Correction>
0.1504

> <Gold.Rescore>
     Score         DG    S(hbond)    S(metal)    S(lipo)     H(rot)  DE(clash)    DE(int)     intcor
     14.29     -15.34       2.94        0.00      55.25       2.51       0.00       1.04       ----

> <Gold.Chemscore.Fitness>
14.2897

> <Gold.Chemscore.DG>
-15.3359

> <Gold.Chemscore.ZeroCoef>
-5.4800

> <Gold.Chemscore.Hbond>
2.9416

> <Gold.Chemscore.Metal>
0.0000

> <Gold.Chemscore.Lipo>
55.2464

> <Gold.Chemscore.Internal_Hbond>
0.0000

> <Gold.Chemscore.DEClash>
0.0029

> <Gold.Chemscore.DEInternal>
1.0433

> <Gold.Chemscore.Rot>
2.5129

> <Gold.Chemscore.Internal.Correction>
   9.000000E+99

> <Gold.Chemscore.Hbonds>
donor molecule, donor type, donor heavy atom, donor atom, acceptor molecule, acceptor atom, score
      L1  H     7    46       P1  7948  1.00
      L1  H    10    37       P1  7948  0.63

> <Gold.Chemscore.Hbond.Weighted>
-9.8251

> <Gold.Chemscore.Metal.Weighted>
-0.0000

> <Gold.Chemscore.Lipo.Weighted>
-6.4638

> <Gold.Chemscore.Internal_Hbond.Weighted>
0.0000

> <Gold.Chemscore.DEClash.Weighted>
0.0029

> <Gold.Chemscore.DEInternal.Weighted>
1.0433

> <Gold.Chemscore.Rot.Weighted>
6.4331

> <Gold.Chemscore.Internal.Correction.Weighted>
   9.000000E+99

> <Gold.Protein.RotatedTorsions>
[ 6907 6896 6895 6894 ] final   59.20 input  -60.11 | X-H torsion
[ 7974 7965 7964 7962 ] final -101.77 input  175.53 | X-H torsion
[ 8008 7997 7996 7995 ] final   44.91 input   59.86 | X-H torsion
[ 10167 10162 10161 10158 ] final   54.95 input  -65.29 | X-H torsion
[ 10718 10713 10712 10709 ] final  -68.85 input   66.30 | X-H torsion
[ 10763 10752 10751 10750 ] final   87.87 input  -60.55 | X-H torsion
[ 11005 11000 10999 10996 ] final  -94.91 input  -57.11 | X-H torsion

> <Gold.Protein.ActiveResidues>
 VAL166  LYS551  ARG553  GLY616  TRP617  ASP618  TYR619  PRO620  LYS621  CYS622 
 ASP623  PHE694  ASN695  SER759  ASP760  ASP761  ALA762  ILE779  LEU786  VAL792 
 PHE793  MET794  SER795  GLU796  ALA797  LYS798  CYS799  TRP800  GLU811  SER814 

> <Gold.Protein.RotatedAtoms>
  152.3894  134.6466  160.0113 H   0  0  0  0  0  0  0  0  0  0  0  0  # atno 6907 bound_to 6896
  151.6705  133.3308  159.3203 H   0  0  0  0  0  0  0  0  0  0  0  0  # atno 6908 bound_to 6896
  150.7813  134.6803  159.6485 H   0  0  0  0  0  0  0  0  0  0  0  0  # atno 6909 bound_to 6896
  145.2774  140.9316  143.2952 H   0  0  0  0  0  0  0  0  0  0  0  0  # atno 7974 bound_to 7965
  155.3271  140.3400  155.4240 H   0  0  0  0  0  0  0  0  0  0  0  0  # atno 8008 bound_to 7997
  156.1880  140.1687  156.8185 H   0  0  0  0  0  0  0  0  0  0  0  0  # atno 8009 bound_to 7997
  154.5408  140.0725  156.8491 H   0  0  0  0  0  0  0  0  0  0  0  0  # atno 8010 bound_to 7997
  140.2247  144.3751  150.6437 H   0  0  0  0  0  0  0  0  0  0  0  0  # atno 10167 bound_to 10162
  156.0484  130.4302  150.2061 H   0  0  0  0  0  0  0  0  0  0  0  0  # atno 10718 bound_to 10713
  153.1712  135.4527  154.9904 H   0  0  0  0  0  0  0  0  0  0  0  0  # atno 10763 bound_to 10752
  154.7967  135.3240  154.7653 H   0  0  0  0  0  0  0  0  0  0  0  0  # atno 10764 bound_to 10752
  153.8129  135.6953  153.4893 H   0  0  0  0  0  0  0  0  0  0  0  0  # atno 10765 bound_to 10752
  141.1457  133.7989  157.0362 H   0  0  0  0  0  0  0  0  0  0  0  0  # atno 11005 bound_to 11000
  144.9283  139.4329  143.6507 LP  0  0  0  0  0  0  0  0  0  0  0  0  # atno 17320 bound_to 7965
  146.3227  139.8180  142.8932 LP  0  0  0  0  0  0  0  0  0  0  0  0  # atno 17321 bound_to 7965
  140.6229  143.2178  151.6656 LP  0  0  0  0  0  0  0  0  0  0  0  0  # atno 17342 bound_to 10162
  139.5131  144.3453  152.0703 LP  0  0  0  0  0  0  0  0  0  0  0  0  # atno 17343 bound_to 10162
  157.0148  130.9961  151.3356 LP  0  0  0  0  0  0  0  0  0  0  0  0  # atno 17370 bound_to 10713
  157.5385  130.8104  149.8001 LP  0  0  0  0  0  0  0  0  0  0  0  0  # atno 17371 bound_to 10713
  140.0722  134.9696  157.1486 LP  0  0  0  0  0  0  0  0  0  0  0  0  # atno 17394 bound_to 11000
  140.3695  134.2406  155.7179 LP  0  0  0  0  0  0  0  0  0  0  0  0  # atno 17395 bound_to 11000

$$$$
