AV-unprocessed.smi:1487|AV-procd|sdf|6014|dock4
  -GOLD-   22720 6113D 1   1.00000     0.00000
 Structure written by MMmdl.
 48 50  0  0  0  0  0  0  0  0  2 V2000
  153.1342  142.7896  160.8328 C   0  0  0  0  0  0  0  0  0  0  0  0
  152.3775  142.4588  159.5584 C   0  0  0  0  0  0  0  0  0  0  0  0
  152.1904  141.1040  159.2026 C   0  0  0  0  0  0  0  0  0  0  0  0
  151.4937  140.7541  158.0254 C   0  0  0  0  0  0  0  0  0  0  0  0
  151.1960  139.5117  157.4919 N   0  0  0  0  0  0  0  0  0  0  0  0
  150.5330  139.8451  156.3888 C   0  0  0  0  0  0  0  0  0  0  0  0
  150.3603  141.1585  156.1461 N   0  0  0  0  0  0  0  0  0  0  0  0
  149.6718  141.7559  155.0155 C   0  0  0  0  0  0  0  0  0  0  0  0
  148.5562  140.8518  154.4568 C   0  0  1  0  0  0  0  0  0  0  0  0
  147.6576  141.6314  153.6908 O   0  0  0  0  0  0  0  0  0  0  0  0
  149.1265  139.7374  153.5574 C   0  0  0  0  0  0  0  0  0  0  0  0
  148.1078  138.7185  153.1957 N   0  3  2  0  0  0  0  0  0  0  0  0
  147.2346  139.1370  152.0660 C   0  0  0  0  0  0  0  0  0  0  0  0
  146.2861  138.0017  151.6449 C   0  0  0  0  0  0  0  0  0  0  0  0
  145.4425  137.5224  152.8331 C   0  0  0  0  0  0  0  0  0  0  0  0
  146.3624  137.1225  153.9956 C   0  0  2  0  0  0  0  0  0  0  0  0
  145.5799  136.7774  155.1184 O   0  0  0  0  0  0  0  0  0  0  0  0
  147.3103  138.2772  154.3693 C   0  0  0  0  0  0  0  0  0  0  0  0
  150.9850  141.8052  157.2074 C   0  0  0  0  0  0  0  0  0  0  0  0
  151.1634  143.1568  157.5515 C   0  0  0  0  0  0  0  0  0  0  0  0
  151.8628  143.4887  158.7305 C   0  0  0  0  0  0  0  0  0  0  0  0
  152.0501  144.9513  159.0933 C   0  0  0  0  0  0  0  0  0  0  0  0
  153.4062  141.8864  161.3800 H   0  0  0  0  0  0  0  0  0  0  0  0
  152.5243  143.4073  161.4923 H   0  0  0  0  0  0  0  0  0  0  0  0
  154.0520  143.3303  160.6010 H   0  0  0  0  0  0  0  0  0  0  0  0
  152.5820  140.3196  159.8335 H   0  0  0  0  0  0  0  0  0  0  0  0
  150.1472  139.0905  155.7189 H   0  0  0  0  0  0  0  0  0  0  0  0
  149.2661  142.7200  155.3242 H   0  0  0  0  0  0  0  0  0  0  0  0
  150.4098  141.9644  154.2398 H   0  0  0  0  0  0  0  0  0  0  0  0
  148.0061  140.4243  155.2948 H   0  0  0  0  0  0  0  0  0  0  0  0
  147.3001  142.3095  154.2449 H   0  0  0  0  0  0  0  0  0  0  0  0
  149.5275  140.1991  152.6534 H   0  0  0  0  0  0  0  0  0  0  0  0
  149.9704  139.2454  154.0435 H   0  0  0  0  0  0  0  0  0  0  0  0
  146.6569  140.0152  152.3583 H   0  0  0  0  0  0  0  0  0  0  0  0
  147.8376  139.4298  151.2073 H   0  0  0  0  0  0  0  0  0  0  0  0
  145.6336  138.3402  150.8392 H   0  0  0  0  0  0  0  0  0  0  0  0
  146.8653  137.1686  151.2448 H   0  0  0  0  0  0  0  0  0  0  0  0
  144.7674  138.3203  153.1468 H   0  0  0  0  0  0  0  0  0  0  0  0
  144.8166  136.6808  152.5340 H   0  0  0  0  0  0  0  0  0  0  0  0
  146.9496  136.2480  153.7114 H   0  0  0  0  0  0  0  0  0  0  0  0
  145.7891  135.8913  155.3732 H   0  0  0  0  0  0  0  0  0  0  0  0
  147.9808  137.9474  155.1642 H   0  0  0  0  0  0  0  0  0  0  0  0
  146.7449  139.1249  154.7607 H   0  0  0  0  0  0  0  0  0  0  0  0
  150.7644  143.9320  156.9141 H   0  0  0  0  0  0  0  0  0  0  0  0
  151.6283  145.6078  158.3316 H   0  0  0  0  0  0  0  0  0  0  0  0
  153.1095  145.1898  159.1907 H   0  0  0  0  0  0  0  0  0  0  0  0
  151.5558  145.1751  160.0390 H   0  0  0  0  0  0  0  0  0  0  0  0
  148.6235  137.9058  152.8884 H   0  0  0  0  0  0  0  0  0  0  0  0
  1  2  1  0  0  0  0
  1 23  1  0  0  0  0
  1 24  1  0  0  0  0
  1 25  1  0  0  0  0
  2 21  1  0  0  0  0
  2  3  2  0  0  0  0
  3  4  1  0  0  0  0
  3 26  1  0  0  0  0
  4 19  2  0  0  0  0
  4  5  1  0  0  0  0
  5  6  2  0  0  0  0
  6  7  1  0  0  0  0
  6 27  1  0  0  0  0
  7  8  1  0  0  0  0
  7 19  1  0  0  0  0
  8  9  1  0  0  0  0
  8 28  1  0  0  0  0
  8 29  1  0  0  0  0
  9 10  1  0  0  0  0
  9 11  1  0  0  0  0
  9 30  1  0  0  0  0
 10 31  1  0  0  0  0
 11 12  1  0  0  0  0
 11 32  1  0  0  0  0
 11 33  1  0  0  0  0
 12 18  1  0  0  0  0
 12 13  1  0  0  0  0
 12 48  1  0  0  0  0
 13 14  1  0  0  0  0
 13 34  1  0  0  0  0
 13 35  1  0  0  0  0
 14 15  1  0  0  0  0
 14 36  1  0  0  0  0
 14 37  1  0  0  0  0
 15 16  1  0  0  0  0
 15 38  1  0  0  0  0
 15 39  1  0  0  0  0
 16 17  1  0  0  0  0
 16 18  1  0  0  0  0
 16 40  1  0  0  0  0
 17 41  1  0  0  0  0
 18 42  1  0  0  0  0
 18 43  1  0  0  0  0
 19 20  1  0  0  0  0
 20 21  2  0  0  0  0
 20 44  1  0  0  0  0
 21 22  1  0  0  0  0
 22 45  1  0  0  0  0
 22 46  1  0  0  0  0
 22 47  1  0  0  0  0
M  CHG  1  12   1
M  END
> <s_m_source_file>
AV-unprocessed.smi

> <i_m_source_file_index>
1487

> <i_lp_mmshare_version>
43012

> <i_f3d_flags>
0

> <s_epik_input>
W0NIM11jKFtjSF0xKWMoW0NIM10pW2NIXWMoYzEyKW4oW2NIXW4yKVtDSDJdW0NASF0oW09IXSlbQ0gyXU4zW0NIMl1bQ0gyXVtDSDJdW0NAQEhdKFtPSF0pW0NIMl0z

> <s_epik_cmdline>
J2VwaWtfcHl0aG9uJywgJy1waCcsICc3LjAnLCAnLXRuJywgJzgnLCAnLW1hJywgJzIwMCcsICctbWV0YWxfYmluZGluZycsICctaW1hZScsICc8aW5maWxlLm1hZT4nLCAnLW9tYWUnLCAnPG91dGZpbGUubWFlPic=

> <r_epik_Ionization_Penalty>
0.0940186

> <r_epik_Ionization_Penalty_Charging>
0.00679686

> <r_epik_Ionization_Penalty_Neutral>
0.0872218

> <r_epik_State_Penalty>
0.0799311

> <r_epik_Charging_Adjusted_Penalty>
0.086728

> <i_epik_Tot_Q>
1

> <i_epik_Tot_abs_Q>
1

> <r_epik_Metal_State_Penalty>
7.95545e-05

> <b_epik_Metal_Only>
0

> <s_lp_Force_Field>
OPLS_2005

> <r_lp_Energy>
21.0759

> <b_lp_Chiralities_Consistent>
1

> <s_lp_Variant>
AV-unprocessed.smi:1487-8

> <Gold.Version>
5.8.1

> <Gold.Id.Protein>
6NUR|6NUR_protein|mol2

> <Gold.PLP.Fitness>
46.0404

> <Gold.PLP.PLP>
-41.4556

> <Gold.PLP.part.hbond>
-2.0000

> <Gold.PLP.part.metal>
0.0000

> <Gold.PLP.part.buried>
5.2669

> <Gold.PLP.part.nonpolar>
-44.2194

> <Gold.PLP.part.repulsive>
0.0433

> <Gold.PLP.ligand.clash>
0.0000

> <Gold.PLP.ligand.torsion>
0.7438

> <Gold.PLP.Chemscore.Hbond>
2.0000

> <Gold.PLP.Chemscore.CHOScore>
0.0000

> <Gold.PLP.Chemscore.Metal>
0.0000

> <Gold.Chemscore.Hbonds>
donor molecule, donor type, donor heavy atom, donor atom, acceptor molecule, acceptor atom, score
      L1  H    12    48       P1  7948  2.00

> <Gold.PLP.Chemscore.Internal.Correction>
0.0723

> <Gold.Rescore>
     Score         DG    S(hbond)    S(metal)    S(lipo)     H(rot)  DE(clash)    DE(int)     intcor
     14.27     -16.92       0.98        0.00     128.31       2.67       1.74       0.92       ----

> <Gold.Chemscore.Fitness>
14.2704

> <Gold.Chemscore.DG>
-16.9230

> <Gold.Chemscore.ZeroCoef>
-5.4800

> <Gold.Chemscore.Hbond>
0.9789

> <Gold.Chemscore.Metal>
0.0000

> <Gold.Chemscore.Lipo>
128.3068

> <Gold.Chemscore.Internal_Hbond>
0.0000

> <Gold.Chemscore.DEClash>
1.7369

> <Gold.Chemscore.DEInternal>
0.9157

> <Gold.Chemscore.Rot>
2.6712

> <Gold.Chemscore.Internal.Correction>
   9.000000E+99

> <Gold.Chemscore.Hbonds>
donor molecule, donor type, donor heavy atom, donor atom, acceptor molecule, acceptor atom, score
      L1  H    12    48       P1  7948  0.97

> <Gold.Chemscore.Hbond.Weighted>
-3.2695

> <Gold.Chemscore.Metal.Weighted>
-0.0000

> <Gold.Chemscore.Lipo.Weighted>
-15.0119

> <Gold.Chemscore.Internal_Hbond.Weighted>
0.0000

> <Gold.Chemscore.DEClash.Weighted>
1.7369

> <Gold.Chemscore.DEInternal.Weighted>
0.9157

> <Gold.Chemscore.Rot.Weighted>
6.8383

> <Gold.Chemscore.Internal.Correction.Weighted>
   9.000000E+99

> <Gold.Protein.RotatedTorsions>
[ 6907 6896 6895 6894 ] final -145.14 input  -60.11 | X-H torsion
[ 7974 7965 7964 7962 ] final  -73.93 input  175.53 | X-H torsion
[ 8008 7997 7996 7995 ] final  109.82 input   59.86 | X-H torsion
[ 10167 10162 10161 10158 ] final  -46.54 input  -65.29 | X-H torsion
[ 10718 10713 10712 10709 ] final   36.58 input   66.30 | X-H torsion
[ 10763 10752 10751 10750 ] final    7.26 input  -60.55 | X-H torsion
[ 11005 11000 10999 10996 ] final -149.74 input  -57.11 | X-H torsion

> <Gold.Protein.ActiveResidues>
 VAL166  LYS551  ARG553  GLY616  TRP617  ASP618  TYR619  PRO620  LYS621  CYS622 
 ASP623  PHE694  ASN695  SER759  ASP760  ASP761  ALA762  ILE779  LEU786  VAL792 
 PHE793  MET794  SER795  GLU796  ALA797  LYS798  CYS799  TRP800  GLU811  SER814 

> <Gold.Protein.RotatedAtoms>
  151.1237  133.5086  159.2601 H   0  0  0  0  0  0  0  0  0  0  0  0  # atno 6907 bound_to 6896
  151.1834  135.0370  159.8812 H   0  0  0  0  0  0  0  0  0  0  0  0  # atno 6908 bound_to 6896
  152.5457  134.1086  159.8402 H   0  0  0  0  0  0  0  0  0  0  0  0  # atno 6909 bound_to 6896
  145.6457  140.9297  143.1011 H   0  0  0  0  0  0  0  0  0  0  0  0  # atno 7974 bound_to 7965
  156.2008  140.3050  155.9522 H   0  0  0  0  0  0  0  0  0  0  0  0  # atno 8008 bound_to 7997
  155.2959  140.0444  157.3043 H   0  0  0  0  0  0  0  0  0  0  0  0  # atno 8009 bound_to 7997
  154.5568  140.2308  155.8407 H   0  0  0  0  0  0  0  0  0  0  0  0  # atno 8010 bound_to 7997
  140.6813  143.2826  151.3798 H   0  0  0  0  0  0  0  0  0  0  0  0  # atno 10167 bound_to 10162
  157.3367  130.7526  149.6883 H   0  0  0  0  0  0  0  0  0  0  0  0  # atno 10718 bound_to 10713
  153.2383  135.6900  153.7811 H   0  0  0  0  0  0  0  0  0  0  0  0  # atno 10763 bound_to 10752
  153.6950  135.3306  155.3212 H   0  0  0  0  0  0  0  0  0  0  0  0  # atno 10764 bound_to 10752
  154.8344  135.4554  154.1296 H   0  0  0  0  0  0  0  0  0  0  0  0  # atno 10765 bound_to 10752
  140.7475  134.3444  157.5133 H   0  0  0  0  0  0  0  0  0  0  0  0  # atno 11005 bound_to 11000
  144.7141  139.8262  143.7405 LP  0  0  0  0  0  0  0  0  0  0  0  0  # atno 17320 bound_to 7965
  146.1244  139.4268  143.0208 LP  0  0  0  0  0  0  0  0  0  0  0  0  # atno 17321 bound_to 7965
  139.6138  144.1045  152.2325 LP  0  0  0  0  0  0  0  0  0  0  0  0  # atno 17342 bound_to 10162
  140.0467  144.5964  150.7368 LP  0  0  0  0  0  0  0  0  0  0  0  0  # atno 17343 bound_to 10162
  155.9702  130.4179  150.4304 LP  0  0  0  0  0  0  0  0  0  0  0  0  # atno 17370 bound_to 10713
  157.2345  131.0511  151.2473 LP  0  0  0  0  0  0  0  0  0  0  0  0  # atno 17371 bound_to 10713
  139.8794  134.9121  156.3052 LP  0  0  0  0  0  0  0  0  0  0  0  0  # atno 17394 bound_to 11000
  140.9781  133.7285  156.0631 LP  0  0  0  0  0  0  0  0  0  0  0  0  # atno 17395 bound_to 11000

$$$$
