AV-unprocessed.smi:3330|AV-procd|sdf|12803|dock1
  -GOLD-   2272019163D 1   1.00000     0.00000
 Structure written by MMmdl.
 39 40  0  0  0  0  0  0  0  0  2 V2000
  148.1070  135.3077  155.0376 C   0  0  0  0  0  0  0  0  0  0  0  0
  149.5957  135.5862  155.3149 C   0  0  2  0  0  0  0  0  0  0  0  0
  150.0636  136.6360  154.3818 N   0  3  0  0  0  0  0  0  0  0  0  0
  149.7139  138.0161  154.7735 C   0  0  0  0  0  0  0  0  0  0  0  0
  150.8460  138.9913  154.4181 C   0  0  0  0  0  0  0  0  0  0  0  0
  150.7141  140.2502  155.1556 N   0  0  0  0  0  0  0  0  0  0  0  0
  151.4814  140.6007  156.1957 C   0  0  0  0  0  0  0  0  0  0  0  0
  152.3958  139.9521  156.7023 O   0  0  0  0  0  0  0  0  0  0  0  0
  151.0510  141.9726  156.6675 C   0  0  0  0  0  0  0  0  0  0  0  0
  149.9939  142.2281  155.7123 N   0  0  0  0  0  0  0  0  0  0  0  0
  149.8292  141.2166  154.8502 C   0  0  0  0  0  0  0  0  0  0  0  0
  149.0097  141.1904  153.9332 O   0  0  0  0  0  0  0  0  0  0  0  0
  150.4823  134.3162  155.1972 C   0  0  1  0  0  0  0  0  0  0  0  0
  151.1008  133.8831  156.5402 C   0  0  0  0  0  0  0  0  0  0  0  0
  149.7611  133.1995  154.5992 N   0  0  0  0  0  0  0  0  0  0  0  0
  149.5586  131.9373  155.1183 C   0  0  0  0  0  0  0  0  0  0  0  0
  148.8291  131.2318  154.2049 C   0  0  0  0  0  0  0  0  0  0  0  0
  148.6267  132.1588  153.1451 C   0  0  0  0  0  0  0  0  0  0  0  0
  149.1842  133.3346  153.3834 N   0  0  0  0  0  0  0  0  0  0  0  0
  147.6790  134.6214  155.7685 H   0  0  0  0  0  0  0  0  0  0  0  0
  147.9626  134.8729  154.0481 H   0  0  0  0  0  0  0  0  0  0  0  0
  147.5222  136.2270  155.0846 H   0  0  0  0  0  0  0  0  0  0  0  0
  149.6620  135.9647  156.3367 H   0  0  0  0  0  0  0  0  0  0  0  0
  151.0675  136.5642  154.2973 H   0  0  0  0  0  0  0  0  0  0  0  0
  148.7934  138.3076  154.2654 H   0  0  0  0  0  0  0  0  0  0  0  0
  149.5144  138.0506  155.8451 H   0  0  0  0  0  0  0  0  0  0  0  0
  151.8135  138.5358  154.6376 H   0  0  0  0  0  0  0  0  0  0  0  0
  150.8483  139.1862  153.3442 H   0  0  0  0  0  0  0  0  0  0  0  0
  150.6736  141.9479  157.6902 H   0  0  0  0  0  0  0  0  0  0  0  0
  151.8579  142.7009  156.5795 H   0  0  0  0  0  0  0  0  0  0  0  0
  149.4552  143.0823  155.7032 H   0  0  0  0  0  0  0  0  0  0  0  0
  151.3065  134.5478  154.5206 H   0  0  0  0  0  0  0  0  0  0  0  0
  151.7808  134.6400  156.9312 H   0  0  0  0  0  0  0  0  0  0  0  0
  151.6773  132.9644  156.4263 H   0  0  0  0  0  0  0  0  0  0  0  0
  150.3347  133.7014  157.2946 H   0  0  0  0  0  0  0  0  0  0  0  0
  149.9475  131.6479  156.0836 H   0  0  0  0  0  0  0  0  0  0  0  0
  148.4902  130.2094  154.2822 H   0  0  0  0  0  0  0  0  0  0  0  0
  148.0946  132.0129  152.2164 H   0  0  0  0  0  0  0  0  0  0  0  0
  149.6528  136.4582  153.4764 H   0  0  0  0  0  0  0  0  0  0  0  0
  1  2  1  0  0  0  0
  1 20  1  0  0  0  0
  1 21  1  0  0  0  0
  1 22  1  0  0  0  0
  2  3  1  0  0  0  0
  2 13  1  0  0  0  0
  2 23  1  0  0  0  0
  3  4  1  0  0  0  0
  3 24  1  0  0  0  0
  3 39  1  0  0  0  0
  4  5  1  0  0  0  0
  4 25  1  0  0  0  0
  4 26  1  0  0  0  0
  5  6  1  0  0  0  0
  5 27  1  0  0  0  0
  5 28  1  0  0  0  0
  6 11  1  0  0  0  0
  6  7  1  0  0  0  0
  7  8  2  0  0  0  0
  7  9  1  0  0  0  0
  9 10  1  0  0  0  0
  9 29  1  0  0  0  0
  9 30  1  0  0  0  0
 10 11  1  0  0  0  0
 10 31  1  0  0  0  0
 11 12  2  0  0  0  0
 13 14  1  0  0  0  0
 13 15  1  0  0  0  0
 13 32  1  0  0  0  0
 14 33  1  0  0  0  0
 14 34  1  0  0  0  0
 14 35  1  0  0  0  0
 15 19  1  0  0  0  0
 15 16  1  0  0  0  0
 16 17  2  0  0  0  0
 16 36  1  0  0  0  0
 17 18  1  0  0  0  0
 17 37  1  0  0  0  0
 18 19  2  0  0  0  0
 18 38  1  0  0  0  0
M  CHG  1   3   1
M  END
> <s_m_source_file>
AV-unprocessed.smi

> <i_m_source_file_index>
3330

> <i_lp_mmshare_version>
43012

> <i_f3d_flags>
0

> <s_epik_input>
bjFbY0hdW2NIXVtjSF1uMVtDQEBIXShbQ0gzXSlbQ0BIXShbQ0gzXSlbTkhdW0NIMl1bQ0gyXU4yQyg9TylbQ0gyXVtOSF1DMj1P

> <s_epik_cmdline>
J2VwaWtfcHl0aG9uJywgJy1waCcsICc3LjAnLCAnLXRuJywgJzgnLCAnLW1hJywgJzIwMCcsICctbWV0YWxfYmluZGluZycsICctaW1hZScsICc8aW5maWxlLm1hZT4nLCAnLW9tYWUnLCAnPG91dGZpbGUubWFlPic=

> <r_lp_tautomer_probability>
1

> <r_epik_Ionization_Penalty>
0.0124905

> <r_epik_Ionization_Penalty_Charging>
0.0123685

> <r_epik_Ionization_Penalty_Neutral>
0.000122059

> <r_epik_State_Penalty>
0.00957041

> <r_epik_Charging_Adjusted_Penalty>
0.0219389

> <i_epik_Tot_Q>
1

> <i_epik_Tot_abs_Q>
1

> <r_epik_Metal_State_Penalty>
0.0858301

> <b_epik_Metal_Only>
0

> <s_lp_Force_Field>
OPLS_2005

> <r_lp_Energy>
25.3738

> <b_lp_Chiralities_Consistent>
1

> <s_lp_Variant>
AV-unprocessed.smi:3330-3

> <Gold.Version>
5.8.1

> <Gold.Id.Protein>
6NUR|6NUR_protein|mol2

> <Gold.PLP.Fitness>
45.4404

> <Gold.PLP.PLP>
-32.8053

> <Gold.PLP.part.hbond>
-4.9359

> <Gold.PLP.part.metal>
0.0000

> <Gold.PLP.part.buried>
0.1548

> <Gold.PLP.part.nonpolar>
-27.7901

> <Gold.PLP.part.repulsive>
1.4109

> <Gold.PLP.ligand.clash>
0.0000

> <Gold.PLP.ligand.torsion>
2.2173

> <Gold.PLP.Chemscore.Hbond>
4.7020

> <Gold.PLP.Chemscore.CHOScore>
0.9116

> <Gold.PLP.Chemscore.Metal>
0.0000

> <Gold.Chemscore.Hbonds>
donor molecule, donor type, donor heavy atom, donor atom, acceptor molecule, acceptor atom, score
      L1  H     3    39       P1  7948  2.00
      L1  H    10    31       P1  8028  1.00
      P1  H  7997  8008       L1     8  1.00
      P1  H  8011  8017       L1    12  0.56
      L1  C    18    38       P1 10747  0.88

> <Gold.PLP.Chemscore.Internal.Correction>
0.2289

> <Gold.Rescore>
     Score         DG    S(hbond)    S(metal)    S(lipo)     H(rot)  DE(clash)    DE(int)     intcor
     10.84     -14.45       2.87        0.00      53.10       2.67       0.13       3.49       ----

> <Gold.Chemscore.Fitness>
10.8385

> <Gold.Chemscore.DG>
-14.4531

> <Gold.Chemscore.ZeroCoef>
-5.4800

> <Gold.Chemscore.Hbond>
2.8704

> <Gold.Chemscore.Metal>
0.0000

> <Gold.Chemscore.Lipo>
53.0974

> <Gold.Chemscore.Internal_Hbond>
0.0000

> <Gold.Chemscore.DEClash>
0.1286

> <Gold.Chemscore.DEInternal>
3.4860

> <Gold.Chemscore.Rot>
2.6666

> <Gold.Chemscore.Internal.Correction>
   9.000000E+99

> <Gold.Chemscore.Hbonds>
donor molecule, donor type, donor heavy atom, donor atom, acceptor molecule, acceptor atom, score
      L1  H     3    39       P1  7948  0.45
      L1  H    10    31       P1  8028  1.00
      P1  H  7997  8008       L1     8  0.97
      P1  H  8011  8017       L1    12  0.33

> <Gold.Chemscore.Hbond.Weighted>
-9.5872

> <Gold.Chemscore.Metal.Weighted>
-0.0000

> <Gold.Chemscore.Lipo.Weighted>
-6.2124

> <Gold.Chemscore.Internal_Hbond.Weighted>
0.0000

> <Gold.Chemscore.DEClash.Weighted>
0.1286

> <Gold.Chemscore.DEInternal.Weighted>
3.4860

> <Gold.Chemscore.Rot.Weighted>
6.8265

> <Gold.Chemscore.Internal.Correction.Weighted>
   9.000000E+99

> <Gold.Protein.RotatedTorsions>
[ 6907 6896 6895 6894 ] final -126.86 input  -60.11 | X-H torsion
[ 7974 7965 7964 7962 ] final   28.49 input  175.53 | X-H torsion
[ 8008 7997 7996 7995 ] final  -58.33 input   59.86 | X-H torsion
[ 10167 10162 10161 10158 ] final   10.82 input  -65.29 | X-H torsion
[ 10718 10713 10712 10709 ] final -136.69 input   66.30 | X-H torsion
[ 10763 10752 10751 10750 ] final  -96.12 input  -60.55 | X-H torsion
[ 11005 11000 10999 10996 ] final  107.64 input  -57.11 | X-H torsion

> <Gold.Protein.ActiveResidues>
 VAL166  LYS551  ARG553  GLY616  TRP617  ASP618  TYR619  PRO620  LYS621  CYS622 
 ASP623  PHE694  ASN695  SER759  ASP760  ASP761  ALA762  ILE779  LEU786  VAL792 
 PHE793  MET794  SER795  GLU796  ALA797  LYS798  CYS799  TRP800  GLU811  SER814 

> <Gold.Protein.RotatedAtoms>
  150.9013  133.7115  159.2878 H   0  0  0  0  0  0  0  0  0  0  0  0  # atno 6907 bound_to 6896
  151.4632  135.1038  159.9740 H   0  0  0  0  0  0  0  0  0  0  0  0  # atno 6908 bound_to 6896
  152.4878  133.8371  159.7189 H   0  0  0  0  0  0  0  0  0  0  0  0  # atno 6909 bound_to 6896
  146.1726  139.7049  142.8957 H   0  0  0  0  0  0  0  0  0  0  0  0  # atno 7974 bound_to 7965
  154.4304  140.1086  156.5939 H   0  0  0  0  0  0  0  0  0  0  0  0  # atno 8008 bound_to 7997
  155.5983  140.3493  155.4567 H   0  0  0  0  0  0  0  0  0  0  0  0  # atno 8009 bound_to 7997
  156.0193  140.1236  157.0363 H   0  0  0  0  0  0  0  0  0  0  0  0  # atno 8010 bound_to 7997
  140.6171  143.8285  150.7131 H   0  0  0  0  0  0  0  0  0  0  0  0  # atno 10167 bound_to 10162
  156.2798  130.7314  151.1308 H   0  0  0  0  0  0  0  0  0  0  0  0  # atno 10718 bound_to 10713
  154.7211  135.5095  153.8813 H   0  0  0  0  0  0  0  0  0  0  0  0  # atno 10763 bound_to 10752
  153.0863  135.6646  153.9952 H   0  0  0  0  0  0  0  0  0  0  0  0  # atno 10764 bound_to 10752
  153.9774  135.3032  155.3402 H   0  0  0  0  0  0  0  0  0  0  0  0  # atno 10765 bound_to 10752
  139.8831  134.9407  156.5850 H   0  0  0  0  0  0  0  0  0  0  0  0  # atno 11005 bound_to 11000
  145.4299  141.0414  143.2916 LP  0  0  0  0  0  0  0  0  0  0  0  0  # atno 17320 bound_to 7965
  144.8186  139.5832  143.6997 LP  0  0  0  0  0  0  0  0  0  0  0  0  # atno 17321 bound_to 7965
  140.1867  143.4070  152.1893 LP  0  0  0  0  0  0  0  0  0  0  0  0  # atno 17342 bound_to 10162
  139.5407  144.7254  151.4743 LP  0  0  0  0  0  0  0  0  0  0  0  0  # atno 17343 bound_to 10162
  157.7311  131.0611  150.5695 LP  0  0  0  0  0  0  0  0  0  0  0  0  # atno 17370 bound_to 10713
  156.5800  130.4302  149.5982 LP  0  0  0  0  0  0  0  0  0  0  0  0  # atno 17371 bound_to 10713
  140.7998  133.8514  155.8717 LP  0  0  0  0  0  0  0  0  0  0  0  0  # atno 17394 bound_to 11000
  140.9603  134.1665  157.4659 LP  0  0  0  0  0  0  0  0  0  0  0  0  # atno 17395 bound_to 11000

$$$$
