AV-unprocessed.smi:1802|AV-procd|sdf|7275|dock4
  -GOLD-   22720 8533D 1   1.00000     0.00000
 Structure written by MMmdl.
 40 41  0  0  0  0  0  0  0  0  3 V2000
  145.4474  134.7108  150.7888 C   0  0  0  0  0  0  0  0  0  0  0  0
  145.9541  133.2799  151.0190 C   0  0  2  0  0  0  0  0  0  0  0  0
  144.7881  132.2941  151.2030 C   0  0  0  0  0  0  0  0  0  0  0  0
  145.3235  130.8798  151.4571 C   0  0  0  0  0  0  0  0  0  0  0  0
  146.2938  130.8650  152.6488 C   0  0  0  0  0  0  0  0  0  0  0  0
  147.4111  131.8223  152.4422 N   0  3  2  0  0  0  0  0  0  0  0  0
  148.4346  131.7287  153.5140 C   0  0  0  0  0  0  0  0  0  0  0  0
  149.5366  132.7913  153.3670 C   0  0  0  0  0  0  0  0  0  0  0  0
  149.6093  133.7258  154.5811 C   0  0  0  0  0  0  0  0  0  0  0  0
  149.9073  135.0871  154.1582 N   0  0  0  0  0  0  0  0  0  0  0  0
  150.8399  135.8787  154.7038 C   0  0  0  0  0  0  0  0  0  0  0  0
  151.5191  135.4670  155.6468 O   0  0  0  0  0  0  0  0  0  0  0  0
  150.9290  137.0949  154.1200 N   0  5  0  0  0  0  0  0  0  0  0  0
  151.5287  138.1081  154.7669 C   0  0  0  0  0  0  0  0  0  0  0  0
  152.6683  137.9458  155.4583 N   0  0  0  0  0  0  0  0  0  0  0  0
  153.1160  139.1167  156.0553 N   0  0  0  0  0  0  0  0  0  0  0  0
  152.2937  140.1350  155.8043 C   0  0  0  0  0  0  0  0  0  0  0  0
  150.8974  139.7564  154.8180 S   0  0  0  0  0  0  0  0  0  0  0  0
  146.9111  133.2069  152.2261 C   0  0  0  0  0  0  0  0  0  0  0  0
  144.8807  135.0740  151.6467 H   0  0  0  0  0  0  0  0  0  0  0  0
  144.7969  134.7613  149.9152 H   0  0  0  0  0  0  0  0  0  0  0  0
  146.2759  135.3996  150.6213 H   0  0  0  0  0  0  0  0  0  0  0  0
  146.5112  132.9825  150.1289 H   0  0  0  0  0  0  0  0  0  0  0  0
  144.1640  132.6060  152.0418 H   0  0  0  0  0  0  0  0  0  0  0  0
  144.1476  132.2948  150.3202 H   0  0  0  0  0  0  0  0  0  0  0  0
  144.4947  130.1958  151.6423 H   0  0  0  0  0  0  0  0  0  0  0  0
  145.8327  130.5143  150.5644 H   0  0  0  0  0  0  0  0  0  0  0  0
  145.7650  131.1139  153.5702 H   0  0  0  0  0  0  0  0  0  0  0  0
  146.6893  129.8560  152.7719 H   0  0  0  0  0  0  0  0  0  0  0  0
  147.9584  131.7942  154.4935 H   0  0  0  0  0  0  0  0  0  0  0  0
  148.9090  130.7475  153.4681 H   0  0  0  0  0  0  0  0  0  0  0  0
  150.5004  132.2971  153.2359 H   0  0  0  0  0  0  0  0  0  0  0  0
  149.3712  133.3911  152.4721 H   0  0  0  0  0  0  0  0  0  0  0  0
  148.6621  133.7188  155.1224 H   0  0  0  0  0  0  0  0  0  0  0  0
  150.3805  133.3808  155.2718 H   0  0  0  0  0  0  0  0  0  0  0  0
  149.3696  135.4619  153.3905 H   0  0  0  0  0  0  0  0  0  0  0  0
  152.5089  141.1144  156.2046 H   0  0  0  0  0  0  0  0  0  0  0  0
  147.7474  133.8832  152.0530 H   0  0  0  0  0  0  0  0  0  0  0  0
  146.4075  133.5554  153.1294 H   0  0  0  0  0  0  0  0  0  0  0  0
  147.8685  131.5371  151.5879 H   0  0  0  0  0  0  0  0  0  0  0  0
  1  2  1  0  0  0  0
  1 20  1  0  0  0  0
  1 21  1  0  0  0  0
  1 22  1  0  0  0  0
  2 19  1  0  0  0  0
  2  3  1  0  0  0  0
  2 23  1  0  0  0  0
  3  4  1  0  0  0  0
  3 24  1  0  0  0  0
  3 25  1  0  0  0  0
  4  5  1  0  0  0  0
  4 26  1  0  0  0  0
  4 27  1  0  0  0  0
  5  6  1  0  0  0  0
  5 28  1  0  0  0  0
  5 29  1  0  0  0  0
  6  7  1  0  0  0  0
  6 19  1  0  0  0  0
  6 40  1  0  0  0  0
  7  8  1  0  0  0  0
  7 30  1  0  0  0  0
  7 31  1  0  0  0  0
  8  9  1  0  0  0  0
  8 32  1  0  0  0  0
  8 33  1  0  0  0  0
  9 10  1  0  0  0  0
  9 34  1  0  0  0  0
  9 35  1  0  0  0  0
 10 11  1  0  0  0  0
 10 36  1  0  0  0  0
 11 12  2  0  0  0  0
 11 13  1  0  0  0  0
 13 14  1  0  0  0  0
 14 18  1  0  0  0  0
 14 15  2  0  0  0  0
 15 16  1  0  0  0  0
 16 17  2  0  0  0  0
 17 18  1  0  0  0  0
 17 37  1  0  0  0  0
 19 38  1  0  0  0  0
 19 39  1  0  0  0  0
M  CHG  1   6   1
M  CHG  1  13  -1
M  END
> <s_m_source_file>
AV-unprocessed.smi

> <i_m_source_file_index>
1802

> <i_lp_mmshare_version>
43012

> <i_f3d_flags>
0

> <s_epik_input>
W0NIM11bQ0BASF0xW0NIMl1bQ0gyXVtDSDJdTihbQ0gyXTEpW0NIMl1bQ0gyXVtDSDJdW05IXUMoPU8pW05IXWMybm5bY0hdczI=

> <s_epik_cmdline>
J2VwaWtfcHl0aG9uJywgJy1waCcsICc3LjAnLCAnLXRuJywgJzgnLCAnLW1hJywgJzIwMCcsICctbWV0YWxfYmluZGluZycsICctaW1hZScsICc8aW5maWxlLm1hZT4nLCAnLW9tYWUnLCAnPG91dGZpbGUubWFlPic=

> <r_lp_tautomer_probability>
1

> <r_epik_Ionization_Penalty>
3.29702

> <r_epik_Ionization_Penalty_Charging>
3.26059

> <r_epik_Ionization_Penalty_Neutral>
0.0364294

> <r_epik_State_Penalty>
3.25788

> <r_epik_Charging_Adjusted_Penalty>
6.51847

> <i_epik_Tot_Q>
0

> <i_epik_Tot_abs_Q>
2

> <r_epik_Metal_State_Penalty>
0.477639

> <b_epik_Metal_Only>
1

> <s_lp_Force_Field>
OPLS_2005

> <r_lp_Energy>
10.8961

> <b_lp_Chiralities_Consistent>
1

> <s_lp_Variant>
AV-unprocessed.smi:1802-5

> <Gold.Version>
5.8.1

> <Gold.Id.Protein>
6NUR|6NUR_protein|mol2

> <Gold.PLP.Fitness>
45.0454

> <Gold.PLP.PLP>
-35.2483

> <Gold.PLP.part.hbond>
-4.1277

> <Gold.PLP.part.metal>
0.0000

> <Gold.PLP.part.buried>
-6.1548

> <Gold.PLP.part.nonpolar>
-25.1189

> <Gold.PLP.part.repulsive>
0.3132

> <Gold.PLP.ligand.clash>
0.0000

> <Gold.PLP.ligand.torsion>
1.1619

> <Gold.PLP.Chemscore.Hbond>
4.0000

> <Gold.PLP.Chemscore.CHOScore>
0.0000

> <Gold.PLP.Chemscore.Metal>
0.0000

> <Gold.Chemscore.Hbonds>
donor molecule, donor type, donor heavy atom, donor atom, acceptor molecule, acceptor atom, score
      L1  H     6    40       P1 10747  1.00
      L1  H    10    36       P1  7948  0.90
      P1  H  7997  8009       L1    16  0.69
      P1  H 10752 10764       L1    12  1.00

> <Gold.PLP.Chemscore.Internal.Correction>
0.1209

> <Gold.Rescore>
     Score         DG    S(hbond)    S(metal)    S(lipo)     H(rot)  DE(clash)    DE(int)     intcor
     17.86     -20.68       3.44        0.00      74.19       1.94       0.20       2.62       ----

> <Gold.Chemscore.Fitness>
17.8620

> <Gold.Chemscore.DG>
-20.6841

> <Gold.Chemscore.ZeroCoef>
-5.4800

> <Gold.Chemscore.Hbond>
3.4388

> <Gold.Chemscore.Metal>
0.0000

> <Gold.Chemscore.Lipo>
74.1917

> <Gold.Chemscore.Internal_Hbond>
0.0000

> <Gold.Chemscore.DEClash>
0.2036

> <Gold.Chemscore.DEInternal>
2.6184

> <Gold.Chemscore.Rot>
1.9383

> <Gold.Chemscore.Internal.Correction>
   9.000000E+99

> <Gold.Chemscore.Hbonds>
donor molecule, donor type, donor heavy atom, donor atom, acceptor molecule, acceptor atom, score
      L1  H     6    40       P1 10747  1.00
      L1  H    10    36       P1  7948  0.18
      P1  H  7997  8009       L1    16  0.12
      P1  H 10752 10764       L1    12  0.52

> <Gold.Chemscore.Hbond.Weighted>
-11.4857

> <Gold.Chemscore.Metal.Weighted>
-0.0000

> <Gold.Chemscore.Lipo.Weighted>
-8.6804

> <Gold.Chemscore.Internal_Hbond.Weighted>
0.0000

> <Gold.Chemscore.DEClash.Weighted>
0.2036

> <Gold.Chemscore.DEInternal.Weighted>
2.6184

> <Gold.Chemscore.Rot.Weighted>
4.9620

> <Gold.Chemscore.Internal.Correction.Weighted>
   9.000000E+99

> <Gold.Protein.RotatedTorsions>
[ 6907 6896 6895 6894 ] final   97.01 input  -60.11 | X-H torsion
[ 7974 7965 7964 7962 ] final  -70.39 input  175.53 | X-H torsion
[ 8008 7997 7996 7995 ] final  174.99 input   59.86 | X-H torsion
[ 10167 10162 10161 10158 ] final  142.57 input  -65.29 | X-H torsion
[ 10718 10713 10712 10709 ] final   39.56 input   66.30 | X-H torsion
[ 10763 10752 10751 10750 ] final  -27.14 input  -60.55 | X-H torsion
[ 11005 11000 10999 10996 ] final -139.53 input  -57.11 | X-H torsion

> <Gold.Protein.ActiveResidues>
 VAL166  LYS551  ARG553  GLY616  TRP617  ASP618  TYR619  PRO620  LYS621  CYS622 
 ASP623  PHE694  ASN695  SER759  ASP760  ASP761  ALA762  ILE779  LEU786  VAL792 
 PHE793  MET794  SER795  GLU796  ALA797  LYS798  CYS799  TRP800  GLU811  SER814 

> <Gold.Protein.RotatedAtoms>
  152.5428  134.0798  159.8230 H   0  0  0  0  0  0  0  0  0  0  0  0  # atno 6907 bound_to 6896
  151.0901  133.5315  159.2623 H   0  0  0  0  0  0  0  0  0  0  0  0  # atno 6908 bound_to 6896
  151.2109  135.0489  159.8965 H   0  0  0  0  0  0  0  0  0  0  0  0  # atno 6909 bound_to 6896
  145.6915  140.9151  143.0779 H   0  0  0  0  0  0  0  0  0  0  0  0  # atno 7974 bound_to 7965
  156.0917  140.1420  156.9583 H   0  0  0  0  0  0  0  0  0  0  0  0  # atno 8008 bound_to 7997
  154.4646  140.0931  156.7033 H   0  0  0  0  0  0  0  0  0  0  0  0  # atno 8009 bound_to 7997
  155.4908  140.3448  155.4357 H   0  0  0  0  0  0  0  0  0  0  0  0  # atno 8010 bound_to 7997
  139.4991  144.6098  151.6297 H   0  0  0  0  0  0  0  0  0  0  0  0  # atno 10167 bound_to 10162
  157.3719  130.7706  149.7126 H   0  0  0  0  0  0  0  0  0  0  0  0  # atno 10718 bound_to 10713
  153.7273  135.6941  153.4998 H   0  0  0  0  0  0  0  0  0  0  0  0  # atno 10763 bound_to 10752
  153.2161  135.4386  155.0434 H   0  0  0  0  0  0  0  0  0  0  0  0  # atno 10764 bound_to 10752
  154.8264  135.3449  154.6804 H   0  0  0  0  0  0  0  0  0  0  0  0  # atno 10765 bound_to 10752
  140.8510  134.2285  157.4760 H   0  0  0  0  0  0  0  0  0  0  0  0  # atno 11005 bound_to 11000
  144.6995  139.8828  143.7448 LP  0  0  0  0  0  0  0  0  0  0  0  0  # atno 17320 bound_to 7965
  146.0877  139.3866  143.0425 LP  0  0  0  0  0  0  0  0  0  0  0  0  # atno 17321 bound_to 7965
  140.5769  144.0012  150.6247 LP  0  0  0  0  0  0  0  0  0  0  0  0  # atno 17342 bound_to 10162
  140.3149  143.3174  152.0842 LP  0  0  0  0  0  0  0  0  0  0  0  0  # atno 17343 bound_to 10162
  155.9757  130.4085  150.3829 LP  0  0  0  0  0  0  0  0  0  0  0  0  # atno 17370 bound_to 10713
  157.1921  131.0417  151.2695 LP  0  0  0  0  0  0  0  0  0  0  0  0  # atno 17371 bound_to 10713
  139.8704  134.9683  156.4627 LP  0  0  0  0  0  0  0  0  0  0  0  0  # atno 17394 bound_to 11000
  140.8790  133.7932  155.9446 LP  0  0  0  0  0  0  0  0  0  0  0  0  # atno 17395 bound_to 11000

$$$$
