AV-unprocessed.smi:2229|AV-procd|sdf|9027|dock7
  -GOLD-   2272012233D 1   1.00000     0.00000
 Structure written by MMmdl.
 44 45  0  0  0  0  0  0  0  0  1 V2000
  152.3441  144.1887  160.9749 C   0  0  0  0  0  0  0  0  0  0  0  0
  152.8700  143.8380  159.5744 C   0  0  0  0  0  0  0  0  0  0  0  0
  152.4143  144.8951  158.5533 C   0  0  0  0  0  0  0  0  0  0  0  0
  152.4462  142.4096  159.1756 C   0  0  0  0  0  0  0  0  0  0  0  0
  153.2699  141.2997  159.8521 C   0  0  0  0  0  0  0  0  0  0  0  0
  152.6934  139.8904  159.6259 C   0  0  2  0  0  0  0  0  0  0  0  0
  153.3938  138.7667  160.3919 C   0  0  0  0  0  0  0  0  0  0  0  0
  152.9422  137.4967  159.6723 C   0  0  0  0  0  0  0  0  0  0  0  0
  152.7926  137.8928  158.1979 C   0  0  0  0  0  0  0  0  0  0  0  0
  152.7594  139.4337  158.1597 C   0  0  1  0  0  0  0  0  0  0  0  0
  151.6169  139.9556  157.4209 N   0  0  0  0  0  0  0  0  0  0  0  0
  151.5408  140.0896  156.0874 C   0  0  0  0  0  0  0  0  0  0  0  0
  152.4203  139.6900  155.3260 O   0  0  0  0  0  0  0  0  0  0  0  0
  150.3049  140.7952  155.5037 C   0  0  0  0  0  0  0  0  0  0  0  0
  149.4561  139.9509  154.6545 N   0  0  0  0  0  0  0  0  0  0  0  0
  148.2436  140.3647  154.1449 C   0  0  0  0  0  0  0  0  0  0  0  0
  147.6851  139.4497  153.4283 N   0  0  0  0  0  0  0  0  0  0  0  0
  148.5780  138.4337  153.4989 N   0  0  0  0  0  0  0  0  0  0  0  0
  149.6572  138.7034  154.2345 C   0  0  0  0  0  0  0  0  0  0  0  0
  150.6176  137.9693  154.4588 O   0  0  0  0  0  0  0  0  0  0  0  0
  148.3829  137.5700  153.0132 H   0  0  0  0  0  0  0  0  0  0  0  0
  151.2540  144.1806  161.0023 H   0  0  0  0  0  0  0  0  0  0  0  0
  152.6771  145.1800  161.2837 H   0  0  0  0  0  0  0  0  0  0  0  0
  152.7013  143.4779  161.7207 H   0  0  0  0  0  0  0  0  0  0  0  0
  153.9593  143.8667  159.6229 H   0  0  0  0  0  0  0  0  0  0  0  0
  151.3321  144.8791  158.4221 H   0  0  0  0  0  0  0  0  0  0  0  0
  152.8713  144.7402  157.5764 H   0  0  0  0  0  0  0  0  0  0  0  0
  152.6930  145.8980  158.8784 H   0  0  0  0  0  0  0  0  0  0  0  0
  151.3970  142.2684  159.4370 H   0  0  0  0  0  0  0  0  0  0  0  0
  152.5034  142.3017  158.0914 H   0  0  0  0  0  0  0  0  0  0  0  0
  154.2857  141.3157  159.4579 H   0  0  0  0  0  0  0  0  0  0  0  0
  153.3552  141.4980  160.9210 H   0  0  0  0  0  0  0  0  0  0  0  0
  151.6466  139.8908  159.9374 H   0  0  0  0  0  0  0  0  0  0  0  0
  154.4764  138.8729  160.3093 H   0  0  0  0  0  0  0  0  0  0  0  0
  153.1381  138.7546  161.4518 H   0  0  0  0  0  0  0  0  0  0  0  0
  153.6388  136.6698  159.8133 H   0  0  0  0  0  0  0  0  0  0  0  0
  151.9746  137.1819  160.0649 H   0  0  0  0  0  0  0  0  0  0  0  0
  153.6382  137.5270  157.6143 H   0  0  0  0  0  0  0  0  0  0  0  0
  151.8933  137.4443  157.7732 H   0  0  0  0  0  0  0  0  0  0  0  0
  153.6877  139.7961  157.7130 H   0  0  0  0  0  0  0  0  0  0  0  0
  150.8461  140.3047  157.9717 H   0  0  0  0  0  0  0  0  0  0  0  0
  149.7005  141.1711  156.3304 H   0  0  0  0  0  0  0  0  0  0  0  0
  150.6422  141.6736  154.9515 H   0  0  0  0  0  0  0  0  0  0  0  0
  147.8754  141.3670  154.3706 H   0  0  0  0  0  0  0  0  0  0  0  0
  1  2  1  0  0  0  0
  1 22  1  0  0  0  0
  1 23  1  0  0  0  0
  1 24  1  0  0  0  0
  2  3  1  0  0  0  0
  2  4  1  0  0  0  0
  2 25  1  0  0  0  0
  3 26  1  0  0  0  0
  3 27  1  0  0  0  0
  3 28  1  0  0  0  0
  4  5  1  0  0  0  0
  4 29  1  0  0  0  0
  4 30  1  0  0  0  0
  5  6  1  0  0  0  0
  5 31  1  0  0  0  0
  5 32  1  0  0  0  0
  6 10  1  0  0  0  0
  6  7  1  0  0  0  0
  6 33  1  0  0  0  0
  7  8  1  0  0  0  0
  7 34  1  0  0  0  0
  7 35  1  0  0  0  0
  8  9  1  0  0  0  0
  8 36  1  0  0  0  0
  8 37  1  0  0  0  0
  9 10  1  0  0  0  0
  9 38  1  0  0  0  0
  9 39  1  0  0  0  0
 10 11  1  0  0  0  0
 10 40  1  0  0  0  0
 11 12  1  0  0  0  0
 11 41  1  0  0  0  0
 12 13  2  0  0  0  0
 12 14  1  0  0  0  0
 14 15  1  0  0  0  0
 14 42  1  0  0  0  0
 14 43  1  0  0  0  0
 15 19  1  0  0  0  0
 15 16  1  0  0  0  0
 16 17  2  0  0  0  0
 16 44  1  0  0  0  0
 17 18  1  0  0  0  0
 18 21  1  0  0  0  0
 18 19  1  0  0  0  0
 19 20  2  0  0  0  0
M  END
> <s_m_source_file>
AV-unprocessed.smi

> <i_m_source_file_index>
2229

> <i_lp_mmshare_version>
43012

> <i_f3d_flags>
0

> <s_epik_input>
W0NIM11bQ0hdKFtDSDNdKVtDSDJdW0NIMl1bQ0BASF0xW0NIMl1bQ0gyXVtDSDJdW0NASF0xW05IXUMoPU8pW0NIMl1uMltjSF1uW25IXWMyPU8=

> <s_epik_cmdline>
J2VwaWtfcHl0aG9uJywgJy1waCcsICc3LjAnLCAnLXRuJywgJzgnLCAnLW1hJywgJzIwMCcsICctbWV0YWxfYmluZGluZycsICctaW1hZScsICc8aW5maWxlLm1hZT4nLCAnLW9tYWUnLCAnPG91dGZpbGUubWFlPic=

> <r_lp_tautomer_probability>
1

> <r_epik_Ionization_Penalty>
4.14174e-05

> <r_epik_Ionization_Penalty_Charging>
4.13165e-05

> <r_epik_Ionization_Penalty_Neutral>
1.00911e-07

> <r_epik_State_Penalty>
-0

> <r_epik_Charging_Adjusted_Penalty>
4.13165e-05

> <i_epik_Tot_Q>
0

> <i_epik_Tot_abs_Q>
0

> <r_epik_Metal_State_Penalty>
0.0399369

> <b_epik_Metal_Only>
0

> <s_lp_Force_Field>
OPLS_2005

> <r_lp_Energy>
36.5056

> <b_lp_Chiralities_Consistent>
1

> <s_lp_Variant>
AV-unprocessed.smi:2229-1

> <Gold.Version>
5.8.1

> <Gold.Id.Protein>
6NUR|6NUR_protein|mol2

> <Gold.PLP.Fitness>
48.7267

> <Gold.PLP.PLP>
-42.6489

> <Gold.PLP.part.hbond>
-4.0000

> <Gold.PLP.part.metal>
0.0000

> <Gold.PLP.part.buried>
-3.8346

> <Gold.PLP.part.nonpolar>
-35.5266

> <Gold.PLP.part.repulsive>
1.5835

> <Gold.PLP.ligand.clash>
0.0000

> <Gold.PLP.ligand.torsion>
0.5658

> <Gold.PLP.Chemscore.Hbond>
2.3952

> <Gold.PLP.Chemscore.CHOScore>
0.0000

> <Gold.PLP.Chemscore.Metal>
0.0000

> <Gold.Chemscore.Hbonds>
donor molecule, donor type, donor heavy atom, donor atom, acceptor molecule, acceptor atom, score
      L1  H    18    21       P1  7948  0.96
      P1  H  7989  7998       L1    13  0.19
      P1  H  7997  8008       L1    13  0.71

> <Gold.PLP.Chemscore.Internal.Correction>
0.0238

> <Gold.Rescore>
     Score         DG    S(hbond)    S(metal)    S(lipo)     H(rot)  DE(clash)    DE(int)     intcor
     12.20     -16.61       1.98        0.00      96.16       2.64       0.08       4.33       ----

> <Gold.Chemscore.Fitness>
12.2016

> <Gold.Chemscore.DG>
-16.6065

> <Gold.Chemscore.ZeroCoef>
-5.4800

> <Gold.Chemscore.Hbond>
1.9837

> <Gold.Chemscore.Metal>
0.0000

> <Gold.Chemscore.Lipo>
96.1624

> <Gold.Chemscore.Internal_Hbond>
0.0000

> <Gold.Chemscore.DEClash>
0.0786

> <Gold.Chemscore.DEInternal>
4.3263

> <Gold.Chemscore.Rot>
2.6368

> <Gold.Chemscore.Internal.Correction>
   9.000000E+99

> <Gold.Chemscore.Hbonds>
donor molecule, donor type, donor heavy atom, donor atom, acceptor molecule, acceptor atom, score
      L1  H    18    21       P1  7948  0.92
      P1  H  7989  7998       L1    13  0.03
      P1  H  7997  8008       L1    13  0.60

> <Gold.Chemscore.Hbond.Weighted>
-6.6256

> <Gold.Chemscore.Metal.Weighted>
-0.0000

> <Gold.Chemscore.Lipo.Weighted>
-11.2510

> <Gold.Chemscore.Internal_Hbond.Weighted>
0.0000

> <Gold.Chemscore.DEClash.Weighted>
0.0786

> <Gold.Chemscore.DEInternal.Weighted>
4.3263

> <Gold.Chemscore.Rot.Weighted>
6.7501

> <Gold.Chemscore.Internal.Correction.Weighted>
   9.000000E+99

> <Gold.Protein.RotatedTorsions>
[ 6907 6896 6895 6894 ] final  150.04 input  -60.11 | X-H torsion
[ 7974 7965 7964 7962 ] final  -85.73 input  175.53 | X-H torsion
[ 8008 7997 7996 7995 ] final  -22.29 input   59.86 | X-H torsion
[ 10167 10162 10161 10158 ] final   58.43 input  -65.29 | X-H torsion
[ 10718 10713 10712 10709 ] final  117.13 input   66.30 | X-H torsion
[ 10763 10752 10751 10750 ] final -129.18 input  -60.55 | X-H torsion
[ 11005 11000 10999 10996 ] final  -16.94 input  -57.11 | X-H torsion

> <Gold.Protein.ActiveResidues>
 VAL166  LYS551  ARG553  GLY616  TRP617  ASP618  TYR619  PRO620  LYS621  CYS622 
 ASP623  PHE694  ASN695  SER759  ASP760  ASP761  ALA762  ILE779  LEU786  VAL792 
 PHE793  MET794  SER795  GLU796  ALA797  LYS798  CYS799  TRP800  GLU811  SER814 

> <Gold.Protein.RotatedAtoms>
  152.1199  133.4347  159.4670 H   0  0  0  0  0  0  0  0  0  0  0  0  # atno 6907 bound_to 6896
  150.6871  134.2548  159.4534 H   0  0  0  0  0  0  0  0  0  0  0  0  # atno 6908 bound_to 6896
  152.0423  134.9703  160.0624 H   0  0  0  0  0  0  0  0  0  0  0  0  # atno 6909 bound_to 6896
  145.4894  140.9553  143.1820 H   0  0  0  0  0  0  0  0  0  0  0  0  # atno 7974 bound_to 7965
  154.4653  140.2011  156.0135 H   0  0  0  0  0  0  0  0  0  0  0  0  # atno 8008 bound_to 7997
  156.0915  140.3257  155.7793 H   0  0  0  0  0  0  0  0  0  0  0  0  # atno 8009 bound_to 7997
  155.4948  140.0549  157.2939 H   0  0  0  0  0  0  0  0  0  0  0  0  # atno 8010 bound_to 7997
  140.1873  144.4122  150.6587 H   0  0  0  0  0  0  0  0  0  0  0  0  # atno 10167 bound_to 10162
  157.6116  131.1033  150.7571 H   0  0  0  0  0  0  0  0  0  0  0  0  # atno 10718 bound_to 10713
  154.8757  135.3904  154.3877 H   0  0  0  0  0  0  0  0  0  0  0  0  # atno 10763 bound_to 10752
  153.4617  135.7029  153.6051 H   0  0  0  0  0  0  0  0  0  0  0  0  # atno 10764 bound_to 10752
  153.4547  135.3825  155.2272 H   0  0  0  0  0  0  0  0  0  0  0  0  # atno 10765 bound_to 10752
  140.8119  133.8134  155.9571 H   0  0  0  0  0  0  0  0  0  0  0  0  # atno 11005 bound_to 11000
  144.7843  139.6461  143.7141 LP  0  0  0  0  0  0  0  0  0  0  0  0  # atno 17320 bound_to 7965
  146.2293  139.5783  142.9566 LP  0  0  0  0  0  0  0  0  0  0  0  0  # atno 17321 bound_to 7965
  140.6480  143.2218  151.6142 LP  0  0  0  0  0  0  0  0  0  0  0  0  # atno 17342 bound_to 10162
  139.5271  144.3027  152.1060 LP  0  0  0  0  0  0  0  0  0  0  0  0  # atno 17343 bound_to 10162
  156.7947  130.4901  149.5379 LP  0  0  0  0  0  0  0  0  0  0  0  0  # atno 17370 bound_to 10713
  156.1222  130.6118  151.0210 LP  0  0  0  0  0  0  0  0  0  0  0  0  # atno 17371 bound_to 10713
  140.9189  134.2166  157.4939 LP  0  0  0  0  0  0  0  0  0  0  0  0  # atno 17394 bound_to 11000
  139.8713  134.9783  156.4994 LP  0  0  0  0  0  0  0  0  0  0  0  0  # atno 17395 bound_to 11000

$$$$
