AV-unprocessed.smi:55|AV-procd|sdf|562|dock4
  -GOLD-   2262016463D 1   1.00000     0.00000
 Structure written by MMmdl.
 31 32  0  0  0  0  0  0  0  0  1 V2000
  151.3567  142.7022  157.8455 C   0  0  0  0  0  0  0  0  0  0  0  0
  151.0948  141.5992  156.8335 C   0  0  0  0  0  0  0  0  0  0  0  0
  150.1328  141.6994  155.8809 C   0  0  0  0  0  0  0  0  0  0  0  0
  149.8695  140.7106  154.9432 N   0  0  0  0  0  0  0  0  0  0  0  0
  148.7799  140.8842  153.9095 C   0  0  1  0  0  0  0  0  0  0  0  0
  147.6920  139.8232  154.0817 C   0  0  0  0  0  0  0  0  0  0  0  0
  146.4431  140.6283  153.7905 C   0  0  1  0  0  0  0  0  0  0  0  0
  145.3116  140.0466  154.4049 O   0  0  0  0  0  0  0  0  0  0  0  0
  146.7968  141.9930  154.3867 C   0  0  2  0  0  0  0  0  0  0  0  0
  146.0043  143.1551  153.7692 C   0  0  0  0  0  0  0  0  0  0  0  0
  144.6600  143.1046  154.1967 O   0  0  0  0  0  0  0  0  0  0  0  0
  148.1838  142.1371  154.0809 O   0  0  0  0  0  0  0  0  0  0  0  0
  150.6193  139.5160  154.9703 C   0  0  0  0  0  0  0  0  0  0  0  0
  150.4285  138.5844  154.1896 O   0  0  0  0  0  0  0  0  0  0  0  0
  151.6094  139.4136  155.9462 N   0  0  0  0  0  0  0  0  0  0  0  0
  151.9144  140.3862  156.9015 C   0  0  0  0  0  0  0  0  0  0  0  0
  152.8137  140.1781  157.7141 O   0  0  0  0  0  0  0  0  0  0  0  0
  149.2418  140.8756  152.9212 H   0  0  0  0  0  0  0  0  0  0  0  0
  146.2902  140.7047  152.7128 H   0  0  0  0  0  0  0  0  0  0  0  0
  146.6667  141.9608  155.4702 H   0  0  0  0  0  0  0  0  0  0  0  0
  152.1507  138.5616  155.9670 H   0  0  0  0  0  0  0  0  0  0  0  0
  150.7023  143.5600  157.6877 H   0  0  0  0  0  0  0  0  0  0  0  0
  152.3872  143.0512  157.7714 H   0  0  0  0  0  0  0  0  0  0  0  0
  151.1904  142.3364  158.8593 H   0  0  0  0  0  0  0  0  0  0  0  0
  149.5384  142.6000  155.8571 H   0  0  0  0  0  0  0  0  0  0  0  0
  147.8467  138.9814  153.4060 H   0  0  0  0  0  0  0  0  0  0  0  0
  147.6899  139.4597  155.1110 H   0  0  0  0  0  0  0  0  0  0  0  0
  144.6358  139.9407  153.7528 H   0  0  0  0  0  0  0  0  0  0  0  0
  146.4494  144.1179  154.0222 H   0  0  0  0  0  0  0  0  0  0  0  0
  146.0040  143.0734  152.6818 H   0  0  0  0  0  0  0  0  0  0  0  0
  144.1010  143.2276  153.4447 H   0  0  0  0  0  0  0  0  0  0  0  0
  1  2  1  0  0  0  0
  1 22  1  0  0  0  0
  1 23  1  0  0  0  0
  1 24  1  0  0  0  0
  2 16  1  0  0  0  0
  2  3  2  0  0  0  0
  3  4  1  0  0  0  0
  3 25  1  0  0  0  0
  4  5  1  0  0  0  0
  4 13  1  0  0  0  0
  5 18  1  0  0  0  0
  5 12  1  0  0  0  0
  5  6  1  0  0  0  0
  6  7  1  0  0  0  0
  6 26  1  0  0  0  0
  6 27  1  0  0  0  0
  7 19  1  0  0  0  0
  7  8  1  0  0  0  0
  7  9  1  0  0  0  0
  8 28  1  0  0  0  0
  9 20  1  0  0  0  0
  9 10  1  0  0  0  0
  9 12  1  0  0  0  0
 10 11  1  0  0  0  0
 10 29  1  0  0  0  0
 10 30  1  0  0  0  0
 11 31  1  0  0  0  0
 13 14  2  0  0  0  0
 13 15  1  0  0  0  0
 15 21  1  0  0  0  0
 15 16  1  0  0  0  0
 16 17  2  0  0  0  0
M  END
> <s_m_source_file>
AV-unprocessed.smi

> <i_m_source_file_index>
55

> <i_lp_mmshare_version>
43012

> <i_f3d_flags>
0

> <s_epik_input>
Tz1jMVtuSF1jKD1PKW4oW2NIXWMxW0NIM10pW0NAQEhdMltDSDJdW0NAQEhdKFtPSF0pW0NAQEhdKE8yKVtDSDJdW09IXQ==

> <s_epik_cmdline>
J2VwaWtfcHl0aG9uJywgJy1waCcsICc3LjAnLCAnLXRuJywgJzgnLCAnLW1hJywgJzIwMCcsICctbWV0YWxfYmluZGluZycsICctaW1hZScsICc8aW5maWxlLm1hZT4nLCAnLW9tYWUnLCAnPG91dGZpbGUubWFlPic=

> <r_lp_tautomer_probability>
0.999537

> <r_epik_Ionization_Penalty>
0.00121888

> <r_epik_Ionization_Penalty_Charging>
0.00121876

> <r_epik_Ionization_Penalty_Neutral>
1.19946e-07

> <r_epik_State_Penalty>
0.000805124

> <r_epik_Charging_Adjusted_Penalty>
0.00202389

> <i_epik_Tot_Q>
0

> <i_epik_Tot_abs_Q>
0

> <r_epik_Metal_State_Penalty>
0.662472

> <b_epik_Metal_Only>
0

> <s_epik_Chemistry_Notes>
This compound contains an acetal/aminal-like group ( X-CH(R)-Y where X, Y are N, S, or O) that may be acid/base labile, releasing an aldehyde.

> <s_lp_Force_Field>
OPLS_2005

> <r_lp_Energy>
25.0544

> <b_lp_Chiralities_Consistent>
1

> <s_lp_Variant>
AV-unprocessed.smi:55-2

> <Gold.Version>
5.8.1

> <Gold.Id.Protein>
6NUR|6NUR_protein|mol2

> <Gold.PLP.Fitness>
40.0849

> <Gold.PLP.PLP>
-29.0932

> <Gold.PLP.part.hbond>
-4.4111

> <Gold.PLP.part.metal>
0.0000

> <Gold.PLP.part.buried>
0.2080

> <Gold.PLP.part.nonpolar>
-25.6364

> <Gold.PLP.part.repulsive>
0.9571

> <Gold.PLP.ligand.clash>
0.0000

> <Gold.PLP.ligand.torsion>
0.0509

> <Gold.PLP.Chemscore.Hbond>
2.6947

> <Gold.PLP.Chemscore.CHOScore>
1.0000

> <Gold.PLP.Chemscore.Metal>
0.0000

> <Gold.Chemscore.Hbonds>
donor molecule, donor type, donor heavy atom, donor atom, acceptor molecule, acceptor atom, score
      L1  H     8    28       P1 10175  1.00
      L1  H    11    31       P1 10174  0.68
      P1  H  7997  8009       L1    17  1.00
      L1  C     3    25       P1  8028  1.00

> <Gold.PLP.Chemscore.Internal.Correction>
0.0096

> <Gold.Rescore>
     Score         DG    S(hbond)    S(metal)    S(lipo)     H(rot)  DE(clash)    DE(int)     intcor
      9.34     -10.69       2.03        0.00      46.15       2.73       0.26       1.09       ----

> <Gold.Chemscore.Fitness>
9.3388

> <Gold.Chemscore.DG>
-10.6864

> <Gold.Chemscore.ZeroCoef>
-5.4800

> <Gold.Chemscore.Hbond>
2.0309

> <Gold.Chemscore.Metal>
0.0000

> <Gold.Chemscore.Lipo>
46.1535

> <Gold.Chemscore.Internal_Hbond>
0.0000

> <Gold.Chemscore.DEClash>
0.2567

> <Gold.Chemscore.DEInternal>
1.0909

> <Gold.Chemscore.Rot>
2.7253

> <Gold.Chemscore.Internal.Correction>
   9.000000E+99

> <Gold.Chemscore.Hbonds>
donor molecule, donor type, donor heavy atom, donor atom, acceptor molecule, acceptor atom, score
      L1  H     8    28       P1 10175  0.97
      L1  H    11    31       P1 10174  0.08
      P1  H  7997  8009       L1    17  0.74

> <Gold.Chemscore.Hbond.Weighted>
-6.7833

> <Gold.Chemscore.Metal.Weighted>
-0.0000

> <Gold.Chemscore.Lipo.Weighted>
-5.4000

> <Gold.Chemscore.Internal_Hbond.Weighted>
0.0000

> <Gold.Chemscore.DEClash.Weighted>
0.2567

> <Gold.Chemscore.DEInternal.Weighted>
1.0909

> <Gold.Chemscore.Rot.Weighted>
6.9769

> <Gold.Chemscore.Internal.Correction.Weighted>
   9.000000E+99

> <Gold.Protein.RotatedTorsions>
[ 6907 6896 6895 6894 ] final  -96.32 input  -60.11 | X-H torsion
[ 7974 7965 7964 7962 ] final   68.59 input  175.53 | X-H torsion
[ 8008 7997 7996 7995 ] final  165.52 input   59.86 | X-H torsion
[ 10167 10162 10161 10158 ] final  -75.34 input  -65.29 | X-H torsion
[ 10718 10713 10712 10709 ] final   91.29 input   66.30 | X-H torsion
[ 10763 10752 10751 10750 ] final -149.02 input  -60.55 | X-H torsion
[ 11005 11000 10999 10996 ] final   88.59 input  -57.11 | X-H torsion

> <Gold.Protein.ActiveResidues>
 VAL166  LYS551  ARG553  GLY616  TRP617  ASP618  TYR619  PRO620  LYS621  CYS622 
 ASP623  PHE694  ASN695  SER759  ASP760  ASP761  ALA762  ILE779  LEU786  VAL792 
 PHE793  MET794  SER795  GLU796  ALA797  LYS798  CYS799  TRP800  GLU811  SER814 

> <Gold.Protein.RotatedAtoms>
  150.6986  134.1521  159.4144 H   0  0  0  0  0  0  0  0  0  0  0  0  # atno 6907 bound_to 6896
  151.9504  135.0169  160.0551 H   0  0  0  0  0  0  0  0  0  0  0  0  # atno 6908 bound_to 6896
  152.2016  133.4810  159.5098 H   0  0  0  0  0  0  0  0  0  0  0  0  # atno 6909 bound_to 6896
  145.8008  139.2981  143.1156 H   0  0  0  0  0  0  0  0  0  0  0  0  # atno 7974 bound_to 7965
  156.1793  140.1668  156.8303 H   0  0  0  0  0  0  0  0  0  0  0  0  # atno 8008 bound_to 7997
  154.5342  140.0750  156.8432 H   0  0  0  0  0  0  0  0  0  0  0  0  # atno 8009 bound_to 7997
  155.3344  140.3381  155.4241 H   0  0  0  0  0  0  0  0  0  0  0  0  # atno 8010 bound_to 7997
  140.4950  143.2372  151.7845 H   0  0  0  0  0  0  0  0  0  0  0  0  # atno 10167 bound_to 10162
  157.6960  131.0402  150.3707 H   0  0  0  0  0  0  0  0  0  0  0  0  # atno 10718 bound_to 10713
  154.8200  135.3319  154.7065 H   0  0  0  0  0  0  0  0  0  0  0  0  # atno 10763 bound_to 10752
  153.7699  135.6926  153.4913 H   0  0  0  0  0  0  0  0  0  0  0  0  # atno 10764 bound_to 10752
  153.2052  135.4502  155.0263 H   0  0  0  0  0  0  0  0  0  0  0  0  # atno 10765 bound_to 10752
  139.8893  134.8498  156.3022 H   0  0  0  0  0  0  0  0  0  0  0  0  # atno 11005 bound_to 11000
  145.9880  140.8627  143.0081 LP  0  0  0  0  0  0  0  0  0  0  0  0  # atno 17320 bound_to 7965
  144.6769  140.2175  143.7370 LP  0  0  0  0  0  0  0  0  0  0  0  0  # atno 17321 bound_to 7965
  139.4859  144.4598  151.9554 LP  0  0  0  0  0  0  0  0  0  0  0  0  # atno 17342 bound_to 10162
  140.3686  144.2884  150.5923 LP  0  0  0  0  0  0  0  0  0  0  0  0  # atno 17343 bound_to 10162
  156.4132  130.3938  149.6876 LP  0  0  0  0  0  0  0  0  0  0  0  0  # atno 17370 bound_to 10713
  156.4153  130.7742  151.2757 LP  0  0  0  0  0  0  0  0  0  0  0  0  # atno 17371 bound_to 10713
  140.9905  133.7211  156.0807 LP  0  0  0  0  0  0  0  0  0  0  0  0  # atno 17394 bound_to 11000
  140.7631  134.3917  157.5522 LP  0  0  0  0  0  0  0  0  0  0  0  0  # atno 17395 bound_to 11000

$$$$
