AV-unprocessed.smi:3185|AV-procd|sdf|12165|dock5
  -GOLD-   2272018 03D 1   1.00000     0.00000
 Structure written by MMmdl.
 38 39  0  0  0  0  0  0  0  0  2 V2000
  151.0363  139.5789  154.8703 N   0  0  0  0  0  0  0  0  0  0  0  0
  150.9975  139.9344  155.9701 C   0  0  0  0  0  0  0  0  0  0  0  0
  150.9476  140.3875  157.3682 C   0  0  0  0  0  0  0  0  0  0  0  0
  149.5540  140.2355  157.9881 C   0  0  0  0  0  0  0  0  0  0  0  0
  148.5465  141.2305  157.4011 C   0  0  0  0  0  0  0  0  0  0  0  0
  148.9108  142.6192  157.7463 N   0  3  0  0  0  0  0  0  0  0  0  0
  148.4311  143.0798  159.0693 C   0  0  2  0  0  0  0  0  0  0  0  0
  146.9212  143.3765  158.9936 C   0  0  0  0  0  0  0  0  0  0  0  0
  146.3798  143.9081  160.3295 C   0  0  0  0  0  0  0  0  0  0  0  0
  147.1506  145.1572  160.7808 C   0  0  0  0  0  0  0  0  0  0  0  0
  148.6576  144.8737  160.8689 C   0  0  0  0  0  0  0  0  0  0  0  0
  149.2112  144.3377  159.5317 C   0  0  1  0  0  0  0  0  0  0  0  0
  150.6449  144.0930  159.6267 N   0  0  0  0  0  0  0  0  0  0  0  0
  151.6517  144.6208  158.8448 C   0  0  0  0  0  0  0  0  0  0  0  0
  152.8331  144.1083  159.2986 C   0  0  0  0  0  0  0  0  0  0  0  0
  152.4452  143.2712  160.3813 C   0  0  0  0  0  0  0  0  0  0  0  0
  151.1367  143.2641  160.5753 N   0  0  0  0  0  0  0  0  0  0  0  0
  151.6816  139.8113  157.9322 H   0  0  0  0  0  0  0  0  0  0  0  0
  151.2648  141.4302  157.3922 H   0  0  0  0  0  0  0  0  0  0  0  0
  149.1975  139.2171  157.8274 H   0  0  0  0  0  0  0  0  0  0  0  0
  149.6221  140.3740  159.0679 H   0  0  0  0  0  0  0  0  0  0  0  0
  148.5085  141.1289  156.3157 H   0  0  0  0  0  0  0  0  0  0  0  0
  147.5488  141.0109  157.7824 H   0  0  0  0  0  0  0  0  0  0  0  0
  149.9175  142.6989  157.7309 H   0  0  0  0  0  0  0  0  0  0  0  0
  148.5740  142.2849  159.8042 H   0  0  0  0  0  0  0  0  0  0  0  0
  146.7261  144.1088  158.2087 H   0  0  0  0  0  0  0  0  0  0  0  0
  146.3774  142.4732  158.7138 H   0  0  0  0  0  0  0  0  0  0  0  0
  145.3188  144.1408  160.2343 H   0  0  0  0  0  0  0  0  0  0  0  0
  146.4592  143.1325  161.0923 H   0  0  0  0  0  0  0  0  0  0  0  0
  146.9713  145.9728  160.0791 H   0  0  0  0  0  0  0  0  0  0  0  0
  146.7785  145.4950  161.7486 H   0  0  0  0  0  0  0  0  0  0  0  0
  149.1850  145.7853  161.1524 H   0  0  0  0  0  0  0  0  0  0  0  0
  148.8398  144.1526  161.6669 H   0  0  0  0  0  0  0  0  0  0  0  0
  149.0707  145.1174  158.7807 H   0  0  0  0  0  0  0  0  0  0  0  0
  151.4467  145.3089  158.0376 H   0  0  0  0  0  0  0  0  0  0  0  0
  153.8245  144.3048  158.9177 H   0  0  0  0  0  0  0  0  0  0  0  0
  153.0709  142.6729  161.0271 H   0  0  0  0  0  0  0  0  0  0  0  0
  148.5301  143.2320  157.0395 H   0  0  0  0  0  0  0  0  0  0  0  0
  1  2  3  0  0  0  0
  2  3  1  0  0  0  0
  3  4  1  0  0  0  0
  3 18  1  0  0  0  0
  3 19  1  0  0  0  0
  4  5  1  0  0  0  0
  4 20  1  0  0  0  0
  4 21  1  0  0  0  0
  5  6  1  0  0  0  0
  5 22  1  0  0  0  0
  5 23  1  0  0  0  0
  6  7  1  0  0  0  0
  6 24  1  0  0  0  0
  6 38  1  0  0  0  0
  7 12  1  0  0  0  0
  7  8  1  0  0  0  0
  7 25  1  0  0  0  0
  8  9  1  0  0  0  0
  8 26  1  0  0  0  0
  8 27  1  0  0  0  0
  9 10  1  0  0  0  0
  9 28  1  0  0  0  0
  9 29  1  0  0  0  0
 10 11  1  0  0  0  0
 10 30  1  0  0  0  0
 10 31  1  0  0  0  0
 11 12  1  0  0  0  0
 11 32  1  0  0  0  0
 11 33  1  0  0  0  0
 12 13  1  0  0  0  0
 12 34  1  0  0  0  0
 13 17  1  0  0  0  0
 13 14  1  0  0  0  0
 14 15  2  0  0  0  0
 14 35  1  0  0  0  0
 15 16  1  0  0  0  0
 15 36  1  0  0  0  0
 16 17  2  0  0  0  0
 16 37  1  0  0  0  0
M  CHG  1   6   1
M  END
> <s_m_source_file>
AV-unprocessed.smi

> <i_m_source_file_index>
3185

> <i_lp_mmshare_version>
43012

> <i_f3d_flags>
0

> <s_epik_input>
TiNDW0NIMl1bQ0gyXVtDSDJdW05IXVtDQEBIXTFbQ0gyXVtDSDJdW0NIMl1bQ0gyXVtDQEhdMW4yW2NIXVtjSF1bY0hdbjI=

> <s_epik_cmdline>
J2VwaWtfcHl0aG9uJywgJy1waCcsICc3LjAnLCAnLXRuJywgJzgnLCAnLW1hJywgJzIwMCcsICctbWV0YWxfYmluZGluZycsICctaW1hZScsICc8aW5maWxlLm1hZT4nLCAnLW9tYWUnLCAnPG91dGZpbGUubWFlPic=

> <r_lp_tautomer_probability>
1

> <r_epik_Ionization_Penalty>
0.0143465

> <r_epik_Ionization_Penalty_Charging>
0.0143338

> <r_epik_Ionization_Penalty_Neutral>
1.27047e-05

> <r_epik_State_Penalty>
0.0112058

> <r_epik_Charging_Adjusted_Penalty>
0.0255397

> <i_epik_Tot_Q>
1

> <i_epik_Tot_abs_Q>
1

> <r_epik_Metal_State_Penalty>
0.0112253

> <b_epik_Metal_Only>
0

> <s_lp_Force_Field>
OPLS_2005

> <r_lp_Energy>
16.2212

> <b_lp_Chiralities_Consistent>
1

> <s_lp_Variant>
AV-unprocessed.smi:3185-1

> <Gold.Version>
5.8.1

> <Gold.Id.Protein>
6NUR|6NUR_protein|mol2

> <Gold.PLP.Fitness>
42.1252

> <Gold.PLP.PLP>
-33.8191

> <Gold.PLP.part.hbond>
-3.0422

> <Gold.PLP.part.metal>
0.0000

> <Gold.PLP.part.buried>
-4.4126

> <Gold.PLP.part.nonpolar>
-26.4389

> <Gold.PLP.part.repulsive>
0.2305

> <Gold.PLP.ligand.clash>
0.0000

> <Gold.PLP.ligand.torsion>
0.3762

> <Gold.PLP.Chemscore.Hbond>
3.0000

> <Gold.PLP.Chemscore.CHOScore>
0.0000

> <Gold.PLP.Chemscore.Metal>
0.0000

> <Gold.Chemscore.Hbonds>
donor molecule, donor type, donor heavy atom, donor atom, acceptor molecule, acceptor atom, score
      L1  H     6    38       P1  8028  1.84
      P1  H  7989  7998       L1     1  1.00

> <Gold.PLP.Chemscore.Internal.Correction>
0.0586

> <Gold.Rescore>
     Score         DG    S(hbond)    S(metal)    S(lipo)     H(rot)  DE(clash)    DE(int)     intcor
     14.57     -14.97       1.76        0.00      72.04       1.88       0.10       0.30       ----

> <Gold.Chemscore.Fitness>
14.5690

> <Gold.Chemscore.DG>
-14.9685

> <Gold.Chemscore.ZeroCoef>
-5.4800

> <Gold.Chemscore.Hbond>
1.7561

> <Gold.Chemscore.Metal>
0.0000

> <Gold.Chemscore.Lipo>
72.0358

> <Gold.Chemscore.Internal_Hbond>
0.0000

> <Gold.Chemscore.DEClash>
0.1013

> <Gold.Chemscore.DEInternal>
0.2982

> <Gold.Chemscore.Rot>
1.8769

> <Gold.Chemscore.Internal.Correction>
   9.000000E+99

> <Gold.Chemscore.Hbonds>
donor molecule, donor type, donor heavy atom, donor atom, acceptor molecule, acceptor atom, score
      L1  H     6    38       P1  8028  0.29
      P1  H  7989  7998       L1     1  0.94

> <Gold.Chemscore.Hbond.Weighted>
-5.8653

> <Gold.Chemscore.Metal.Weighted>
-0.0000

> <Gold.Chemscore.Lipo.Weighted>
-8.4282

> <Gold.Chemscore.Internal_Hbond.Weighted>
0.0000

> <Gold.Chemscore.DEClash.Weighted>
0.1013

> <Gold.Chemscore.DEInternal.Weighted>
0.2982

> <Gold.Chemscore.Rot.Weighted>
4.8049

> <Gold.Chemscore.Internal.Correction.Weighted>
   9.000000E+99

> <Gold.Protein.RotatedTorsions>
[ 6907 6896 6895 6894 ] final  164.05 input  -60.11 | X-H torsion
[ 7974 7965 7964 7962 ] final    4.16 input  175.53 | X-H torsion
[ 8008 7997 7996 7995 ] final  116.58 input   59.86 | X-H torsion
[ 10167 10162 10161 10158 ] final -117.57 input  -65.29 | X-H torsion
[ 10718 10713 10712 10709 ] final  -75.87 input   66.30 | X-H torsion
[ 10763 10752 10751 10750 ] final  -88.38 input  -60.55 | X-H torsion
[ 11005 11000 10999 10996 ] final   78.44 input  -57.11 | X-H torsion

> <Gold.Protein.ActiveResidues>
 VAL166  LYS551  ARG553  GLY616  TRP617  ASP618  TYR619  PRO620  LYS621  CYS622 
 ASP623  PHE694  ASN695  SER759  ASP760  ASP761  ALA762  ILE779  LEU786  VAL792 
 PHE793  MET794  SER795  GLU796  ALA797  LYS798  CYS799  TRP800  GLU811  SER814 

> <Gold.Protein.RotatedAtoms>
  151.9158  133.3572  159.3879 H   0  0  0  0  0  0  0  0  0  0  0  0  # atno 6907 bound_to 6896
  150.7048  134.4686  159.5424 H   0  0  0  0  0  0  0  0  0  0  0  0  # atno 6908 bound_to 6896
  152.2300  134.8331  160.0525 H   0  0  0  0  0  0  0  0  0  0  0  0  # atno 6909 bound_to 6896
  146.2444  140.0577  142.8370 H   0  0  0  0  0  0  0  0  0  0  0  0  # atno 7974 bound_to 7965
  156.2447  140.2914  156.0544 H   0  0  0  0  0  0  0  0  0  0  0  0  # atno 8008 bound_to 7997
  155.1845  140.0405  157.2906 H   0  0  0  0  0  0  0  0  0  0  0  0  # atno 8009 bound_to 7997
  154.6237  140.2482  155.7525 H   0  0  0  0  0  0  0  0  0  0  0  0  # atno 8010 bound_to 7997
  140.0669  143.4914  152.2001 H   0  0  0  0  0  0  0  0  0  0  0  0  # atno 10167 bound_to 10162
  156.0193  130.4451  150.3108 H   0  0  0  0  0  0  0  0  0  0  0  0  # atno 10718 bound_to 10713
  154.6439  135.5379  153.7821 H   0  0  0  0  0  0  0  0  0  0  0  0  # atno 10763 bound_to 10752
  153.0348  135.6466  154.1119 H   0  0  0  0  0  0  0  0  0  0  0  0  # atno 10764 bound_to 10752
  154.1041  135.2931  155.3225 H   0  0  0  0  0  0  0  0  0  0  0  0  # atno 10765 bound_to 10752
  139.9212  134.7764  156.1650 H   0  0  0  0  0  0  0  0  0  0  0  0  # atno 11005 bound_to 11000
  145.0928  140.9295  143.4759 LP  0  0  0  0  0  0  0  0  0  0  0  0  # atno 17320 bound_to 7965
  145.0753  139.3000  143.5811 LP  0  0  0  0  0  0  0  0  0  0  0  0  # atno 17321 bound_to 7965
  139.5859  144.7531  151.3521 LP  0  0  0  0  0  0  0  0  0  0  0  0  # atno 17342 bound_to 10162
  140.7145  143.7304  150.7628 LP  0  0  0  0  0  0  0  0  0  0  0  0  # atno 17343 bound_to 10162
  157.1210  131.0246  151.3009 LP  0  0  0  0  0  0  0  0  0  0  0  0  # atno 17370 bound_to 10713
  157.4628  130.7663  149.7252 LP  0  0  0  0  0  0  0  0  0  0  0  0  # atno 17371 bound_to 10713
  141.0735  133.6786  156.2188 LP  0  0  0  0  0  0  0  0  0  0  0  0  # atno 17394 bound_to 11000
  140.6468  134.5109  157.5574 LP  0  0  0  0  0  0  0  0  0  0  0  0  # atno 17395 bound_to 11000

$$$$
