AV-unprocessed.smi:2779|AV-procd|sdf|10711|dock10
  -GOLD-   2272015143D 1   1.00000     0.00000
 Structure written by MMmdl.
 38 39  0  0  0  0  0  0  0  0  1 V2000
  151.6272  139.3425  154.1701 O   0  0  0  0  0  0  0  0  0  0  0  0
  150.7233  138.5750  154.5002 C   0  0  0  0  0  0  0  0  0  0  0  0
  150.9633  137.2339  155.0268 C   0  0  0  0  0  0  0  0  0  0  0  0
  149.9479  136.4224  155.3922 C   0  0  0  0  0  0  0  0  0  0  0  0
  148.5769  136.8870  155.2601 C   0  0  0  0  0  0  0  0  0  0  0  0
  147.3756  136.0591  155.6451 C   0  0  0  0  0  0  0  0  0  0  0  0
  147.4108  135.7344  156.9380 F   0  0  0  0  0  0  0  0  0  0  0  0
  146.2548  136.7421  155.4106 F   0  0  0  0  0  0  0  0  0  0  0  0
  147.3442  134.9359  154.9273 F   0  0  0  0  0  0  0  0  0  0  0  0
  148.3580  138.0726  154.7896 N   0  0  0  0  0  0  0  0  0  0  0  0
  149.4007  138.9023  154.4154 N   0  0  0  0  0  0  0  0  0  0  0  0
  148.9696  140.2145  153.9183 C   0  0  0  0  0  0  0  0  0  0  0  0
  149.0966  141.3113  154.9976 C   0  0  2  0  0  0  0  0  0  0  0  0
  148.8355  142.5840  154.4404 O   0  0  0  0  0  0  0  0  0  0  0  0
  150.4876  141.3599  155.6514 C   0  0  0  0  0  0  0  0  0  0  0  0
  150.4240  142.0475  156.8914 O   0  0  0  0  0  0  0  0  0  0  0  0
  151.2093  143.2287  156.9065 C   0  0  0  0  0  0  0  0  0  0  0  0
  151.4871  143.7133  158.3172 C   0  0  0  0  0  0  0  0  0  0  0  0
  152.0634  142.8458  159.2701 C   0  0  0  0  0  0  0  0  0  0  0  0
  152.3418  143.3071  160.5714 C   0  0  0  0  0  0  0  0  0  0  0  0
  152.0511  144.6391  160.9244 C   0  0  0  0  0  0  0  0  0  0  0  0
  151.4850  145.5108  159.9742 C   0  0  0  0  0  0  0  0  0  0  0  0
  151.2067  145.0498  158.6724 C   0  0  0  0  0  0  0  0  0  0  0  0
  148.3641  141.1476  155.7888 H   0  0  0  0  0  0  0  0  0  0  0  0
  151.9805  136.8844  155.1271 H   0  0  0  0  0  0  0  0  0  0  0  0
  150.1494  135.4352  155.7805 H   0  0  0  0  0  0  0  0  0  0  0  0
  149.5787  140.4805  153.0523 H   0  0  0  0  0  0  0  0  0  0  0  0
  147.9466  140.1695  153.5389 H   0  0  0  0  0  0  0  0  0  0  0  0
  148.9556  143.2357  155.1142 H   0  0  0  0  0  0  0  0  0  0  0  0
  150.8851  140.3519  155.7839 H   0  0  0  0  0  0  0  0  0  0  0  0
  151.1748  141.8903  154.9903 H   0  0  0  0  0  0  0  0  0  0  0  0
  152.1670  143.0464  156.4168 H   0  0  0  0  0  0  0  0  0  0  0  0
  150.6992  144.0132  156.3453 H   0  0  0  0  0  0  0  0  0  0  0  0
  152.2960  141.8244  159.0063 H   0  0  0  0  0  0  0  0  0  0  0  0
  152.7814  142.6397  161.2980 H   0  0  0  0  0  0  0  0  0  0  0  0
  152.2658  144.9929  161.9222 H   0  0  0  0  0  0  0  0  0  0  0  0
  151.2669  146.5339  160.2429 H   0  0  0  0  0  0  0  0  0  0  0  0
  150.7776  145.7264  157.9479 H   0  0  0  0  0  0  0  0  0  0  0  0
  1  2  2  0  0  0  0
  2 11  1  0  0  0  0
  2  3  1  0  0  0  0
  3  4  2  0  0  0  0
  3 25  1  0  0  0  0
  4  5  1  0  0  0  0
  4 26  1  0  0  0  0
  5  6  1  0  0  0  0
  5 10  2  0  0  0  0
  6  7  1  0  0  0  0
  6  8  1  0  0  0  0
  6  9  1  0  0  0  0
 10 11  1  0  0  0  0
 11 12  1  0  0  0  0
 12 13  1  0  0  0  0
 12 27  1  0  0  0  0
 12 28  1  0  0  0  0
 13 24  1  0  0  0  0
 13 14  1  0  0  0  0
 13 15  1  0  0  0  0
 14 29  1  0  0  0  0
 15 16  1  0  0  0  0
 15 30  1  0  0  0  0
 15 31  1  0  0  0  0
 16 17  1  0  0  0  0
 17 18  1  0  0  0  0
 17 32  1  0  0  0  0
 17 33  1  0  0  0  0
 18 23  1  0  0  0  0
 18 19  2  0  0  0  0
 19 20  1  0  0  0  0
 19 34  1  0  0  0  0
 20 21  2  0  0  0  0
 20 35  1  0  0  0  0
 21 22  1  0  0  0  0
 21 36  1  0  0  0  0
 22 23  2  0  0  0  0
 22 37  1  0  0  0  0
 23 38  1  0  0  0  0
M  END
> <s_m_source_file>
AV-unprocessed.smi

> <i_m_source_file_index>
2779

> <i_lp_mmshare_version>
43012

> <i_f3d_flags>
0

> <s_epik_input>
Tz1jMVtjSF1bY0hdYyhDKEYpKEYpRilubjFbQ0gyXVtDQEhdKFtPSF0pW0NIMl1PW0NIMl1jMltjSF1bY0hdW2NIXVtjSF1bY0hdMg==

> <s_epik_cmdline>
J2VwaWtfcHl0aG9uJywgJy1waCcsICc3LjAnLCAnLXRuJywgJzgnLCAnLW1hJywgJzIwMCcsICctbWV0YWxfYmluZGluZycsICctaW1hZScsICc8aW5maWxlLm1hZT4nLCAnLW9tYWUnLCAnPG91dGZpbGUubWFlPic=

> <r_lp_tautomer_probability>
1

> <r_epik_Ionization_Penalty>
6.7226e-08

> <r_epik_Ionization_Penalty_Charging>
6.11342e-09

> <r_epik_Ionization_Penalty_Neutral>
6.11126e-08

> <r_epik_State_Penalty>
-0

> <r_epik_Charging_Adjusted_Penalty>
6.11342e-09

> <i_epik_Tot_Q>
0

> <i_epik_Tot_abs_Q>
0

> <r_epik_Metal_State_Penalty>
-0

> <b_epik_Metal_Only>
0

> <s_lp_Force_Field>
OPLS_2005

> <r_lp_Energy>
33.7736

> <b_lp_Chiralities_Consistent>
1

> <s_lp_Variant>
AV-unprocessed.smi:2779-1

> <Gold.Version>
5.8.1

> <Gold.Id.Protein>
6NUR|6NUR_protein|mol2

> <Gold.PLP.Fitness>
45.9603

> <Gold.PLP.PLP>
-42.0121

> <Gold.PLP.part.hbond>
-2.5505

> <Gold.PLP.part.metal>
0.0000

> <Gold.PLP.part.buried>
-2.7819

> <Gold.PLP.part.nonpolar>
-36.9320

> <Gold.PLP.part.repulsive>
0.3427

> <Gold.PLP.ligand.clash>
0.0000

> <Gold.PLP.ligand.torsion>
0.9549

> <Gold.PLP.Chemscore.Hbond>
1.8894

> <Gold.PLP.Chemscore.CHOScore>
0.0000

> <Gold.PLP.Chemscore.Metal>
0.0000

> <Gold.Chemscore.Hbonds>
donor molecule, donor type, donor heavy atom, donor atom, acceptor molecule, acceptor atom, score
      L1  H    14    29       P1  8028  1.00
      P1  H  7989  7998       L1     1  1.00
      P1  H  8011  8017       L1    14  0.03

> <Gold.PLP.Chemscore.Internal.Correction>
0.1898

> <Gold.Rescore>
     Score         DG    S(hbond)    S(metal)    S(lipo)     H(rot)  DE(clash)    DE(int)     intcor
     14.45     -17.13       1.73        0.00     111.50       2.80       1.59       1.10       ----

> <Gold.Chemscore.Fitness>
14.4465

> <Gold.Chemscore.DG>
-17.1344

> <Gold.Chemscore.ZeroCoef>
-5.4800

> <Gold.Chemscore.Hbond>
1.7314

> <Gold.Chemscore.Metal>
0.0000

> <Gold.Chemscore.Lipo>
111.4978

> <Gold.Chemscore.Internal_Hbond>
0.0000

> <Gold.Chemscore.DEClash>
1.5873

> <Gold.Chemscore.DEInternal>
1.1007

> <Gold.Chemscore.Rot>
2.8022

> <Gold.Chemscore.Internal.Correction>
   9.000000E+99

> <Gold.Chemscore.Hbonds>
donor molecule, donor type, donor heavy atom, donor atom, acceptor molecule, acceptor atom, score
      L1  H    14    29       P1  8028  0.92
      P1  H  7989  7998       L1     1  0.95
      P1  H  8011  8017       L1    14  0.02

> <Gold.Chemscore.Hbond.Weighted>
-5.7828

> <Gold.Chemscore.Metal.Weighted>
-0.0000

> <Gold.Chemscore.Lipo.Weighted>
-13.0452

> <Gold.Chemscore.Internal_Hbond.Weighted>
0.0000

> <Gold.Chemscore.DEClash.Weighted>
1.5873

> <Gold.Chemscore.DEInternal.Weighted>
1.1007

> <Gold.Chemscore.Rot.Weighted>
7.1736

> <Gold.Chemscore.Internal.Correction.Weighted>
   9.000000E+99

> <Gold.Protein.RotatedTorsions>
[ 6907 6896 6895 6894 ] final  153.31 input  -60.11 | X-H torsion
[ 7974 7965 7964 7962 ] final  128.91 input  175.53 | X-H torsion
[ 8008 7997 7996 7995 ] final -172.62 input   59.86 | X-H torsion
[ 10167 10162 10161 10158 ] final  157.06 input  -65.29 | X-H torsion
[ 10718 10713 10712 10709 ] final  115.23 input   66.30 | X-H torsion
[ 10763 10752 10751 10750 ] final -146.02 input  -60.55 | X-H torsion
[ 11005 11000 10999 10996 ] final  -71.62 input  -57.11 | X-H torsion

> <Gold.Protein.ActiveResidues>
 VAL166  LYS551  ARG553  GLY616  TRP617  ASP618  TYR619  PRO620  LYS621  CYS622 
 ASP623  PHE694  ASN695  SER759  ASP760  ASP761  ALA762  ILE779  LEU786  VAL792 
 PHE793  MET794  SER795  GLU796  ALA797  LYS798  CYS799  TRP800  GLU811  SER814 

> <Gold.Protein.RotatedAtoms>
  152.0744  133.4122  159.4473 H   0  0  0  0  0  0  0  0  0  0  0  0  # atno 6907 bound_to 6896
  150.6863  134.3054  159.4733 H   0  0  0  0  0  0  0  0  0  0  0  0  # atno 6908 bound_to 6896
  152.0889  134.9420  160.0623 H   0  0  0  0  0  0  0  0  0  0  0  0  # atno 6909 bound_to 6896
  145.0344  139.4018  143.5133 H   0  0  0  0  0  0  0  0  0  0  0  0  # atno 7974 bound_to 7965
  155.9470  140.1119  157.1008 H   0  0  0  0  0  0  0  0  0  0  0  0  # atno 8008 bound_to 7997
  154.4101  140.1208  156.5068 H   0  0  0  0  0  0  0  0  0  0  0  0  # atno 8009 bound_to 7997
  155.6890  140.3472  155.4888 H   0  0  0  0  0  0  0  0  0  0  0  0  # atno 8010 bound_to 7997
  139.4822  144.4952  151.8250 H   0  0  0  0  0  0  0  0  0  0  0  0  # atno 10167 bound_to 10162
  157.6235  131.1009  150.7299 H   0  0  0  0  0  0  0  0  0  0  0  0  # atno 10718 bound_to 10713
  154.8356  135.3397  154.6596 H   0  0  0  0  0  0  0  0  0  0  0  0  # atno 10763 bound_to 10752
  153.7211  135.6958  153.5017 H   0  0  0  0  0  0  0  0  0  0  0  0  # atno 10764 bound_to 10752
  153.2381  135.4394  155.0621 H   0  0  0  0  0  0  0  0  0  0  0  0  # atno 10765 bound_to 10752
  141.1595  133.6822  156.6933 H   0  0  0  0  0  0  0  0  0  0  0  0  # atno 11005 bound_to 11000
  146.3502  139.9911  142.8685 LP  0  0  0  0  0  0  0  0  0  0  0  0  # atno 17320 bound_to 7965
  145.1729  140.9729  143.4311 LP  0  0  0  0  0  0  0  0  0  0  0  0  # atno 17321 bound_to 7965
  140.4440  144.1948  150.5893 LP  0  0  0  0  0  0  0  0  0  0  0  0  # atno 17342 bound_to 10162
  140.4654  143.2433  151.9162 LP  0  0  0  0  0  0  0  0  0  0  0  0  # atno 17343 bound_to 10162
  156.7652  130.4811  149.5429 LP  0  0  0  0  0  0  0  0  0  0  0  0  # atno 17370 bound_to 10713
  156.1393  130.6233  151.0444 LP  0  0  0  0  0  0  0  0  0  0  0  0  # atno 17371 bound_to 10713
  140.3014  134.8161  157.4100 LP  0  0  0  0  0  0  0  0  0  0  0  0  # atno 17394 bound_to 11000
  140.1259  134.5159  155.8145 LP  0  0  0  0  0  0  0  0  0  0  0  0  # atno 17395 bound_to 11000

$$$$
