AV-unprocessed.smi:2482|AV-procd|sdf|9776|dock4
  -GOLD-   2272013413D 1   1.00000     0.00000
 Structure written by MMmdl.
 35 36  0  0  0  0  0  0  0  0  2 V2000
  154.4020  141.4010  160.3492 C   0  0  0  0  0  0  0  0  0  0  0  0
  153.1504  142.0770  159.8147 C   0  0  0  0  0  0  0  0  0  0  0  0
  153.0618  143.3936  160.1054 N   0  0  0  0  0  0  0  0  0  0  0  0
  151.9810  144.0741  159.6731 C   0  0  0  0  0  0  0  0  0  0  0  0
  150.9442  143.4839  158.9271 C   0  0  0  0  0  0  0  0  0  0  0  0
  151.0390  142.1097  158.6072 C   0  0  0  0  0  0  0  0  0  0  0  0
  150.0299  141.4204  157.8829 N   0  0  0  0  0  0  0  0  0  0  0  0
  148.7742  141.8265  157.6212 C   0  0  0  0  0  0  0  0  0  0  0  0
  148.2979  142.8942  158.0078 O   0  0  0  0  0  0  0  0  0  0  0  0
  147.9272  140.8634  156.7651 C   0  0  1  0  0  0  0  0  0  0  0  0
  146.6948  141.5142  156.0926 C   0  0  0  0  0  0  0  0  0  0  0  0
  147.1031  142.4316  155.0024 N   0  3  2  0  0  0  0  0  0  0  0  0
  145.9552  143.1249  154.3803 C   0  0  0  0  0  0  0  0  0  0  0  0
  147.9503  141.7262  154.0144 C   0  0  0  0  0  0  0  0  0  0  0  0
  149.1648  141.0892  154.7089 C   0  0  0  0  0  0  0  0  0  0  0  0
  148.7260  140.2279  155.7604 O   0  0  0  0  0  0  0  0  0  0  0  0
  152.1601  141.3838  159.0733 C   0  0  0  0  0  0  0  0  0  0  0  0
  152.3059  139.6929  158.7225 Cl  0  0  0  0  0  0  0  0  0  0  0  0
  154.4706  140.3477  160.0841 H   0  0  0  0  0  0  0  0  0  0  0  0
  154.4288  141.4714  161.4369 H   0  0  0  0  0  0  0  0  0  0  0  0
  155.2898  141.8976  159.9570 H   0  0  0  0  0  0  0  0  0  0  0  0
  151.9380  145.1209  159.9358 H   0  0  0  0  0  0  0  0  0  0  0  0
  150.0972  144.0830  158.6283 H   0  0  0  0  0  0  0  0  0  0  0  0
  150.3294  140.5735  157.4210 H   0  0  0  0  0  0  0  0  0  0  0  0
  147.5756  140.0821  157.4396 H   0  0  0  0  0  0  0  0  0  0  0  0
  146.0493  140.7354  155.6834 H   0  0  0  0  0  0  0  0  0  0  0  0
  146.0956  142.0539  156.8276 H   0  0  0  0  0  0  0  0  0  0  0  0
  145.2765  142.4140  153.9073 H   0  0  0  0  0  0  0  0  0  0  0  0
  146.2967  143.8299  153.6215 H   0  0  0  0  0  0  0  0  0  0  0  0
  145.3956  143.6872  155.1286 H   0  0  0  0  0  0  0  0  0  0  0  0
  147.3625  140.9573  153.5106 H   0  0  0  0  0  0  0  0  0  0  0  0
  148.2876  142.4261  153.2491 H   0  0  0  0  0  0  0  0  0  0  0  0
  149.7364  140.4989  153.9924 H   0  0  0  0  0  0  0  0  0  0  0  0
  149.8423  141.8562  155.0862 H   0  0  0  0  0  0  0  0  0  0  0  0
  147.6785  143.1470  155.4247 H   0  0  0  0  0  0  0  0  0  0  0  0
  1  2  1  0  0  0  0
  1 19  1  0  0  0  0
  1 20  1  0  0  0  0
  1 21  1  0  0  0  0
  2 17  1  0  0  0  0
  2  3  2  0  0  0  0
  3  4  1  0  0  0  0
  4  5  2  0  0  0  0
  4 22  1  0  0  0  0
  5  6  1  0  0  0  0
  5 23  1  0  0  0  0
  6  7  1  0  0  0  0
  6 17  2  0  0  0  0
  7  8  1  0  0  0  0
  7 24  1  0  0  0  0
  8  9  2  0  0  0  0
  8 10  1  0  0  0  0
 10 16  1  0  0  0  0
 10 11  1  0  0  0  0
 10 25  1  0  0  0  0
 11 12  1  0  0  0  0
 11 26  1  0  0  0  0
 11 27  1  0  0  0  0
 12 13  1  0  0  0  0
 12 14  1  0  0  0  0
 12 35  1  0  0  0  0
 13 28  1  0  0  0  0
 13 29  1  0  0  0  0
 13 30  1  0  0  0  0
 14 15  1  0  0  0  0
 14 31  1  0  0  0  0
 14 32  1  0  0  0  0
 15 16  1  0  0  0  0
 15 33  1  0  0  0  0
 15 34  1  0  0  0  0
 17 18  1  0  0  0  0
M  CHG  1  12   1
M  END
> <s_m_source_file>
AV-unprocessed.smi

> <i_m_source_file_index>
2482

> <i_lp_mmshare_version>
43012

> <i_f3d_flags>
0

> <s_epik_input>
W0NIM11jMW5bY0hdW2NIXWMoYzFDbClbTkhdQyg9TylbQ0BASF0yW0NIMl1OKFtDSDNdKVtDSDJdW0NIMl1PMg==

> <s_epik_cmdline>
J2VwaWtfcHl0aG9uJywgJy1waCcsICc3LjAnLCAnLXRuJywgJzgnLCAnLW1hJywgJzIwMCcsICctbWV0YWxfYmluZGluZycsICctaW1hZScsICc8aW5maWxlLm1hZT4nLCAnLW9tYWUnLCAnPG91dGZpbGUubWFlPic=

> <r_epik_Ionization_Penalty>
0.314226

> <r_epik_Ionization_Penalty_Charging>
0.314023

> <r_epik_Ionization_Penalty_Neutral>
0.00020299

> <r_epik_State_Penalty>
0.308208

> <r_epik_Charging_Adjusted_Penalty>
0.62223

> <i_epik_Tot_Q>
1

> <i_epik_Tot_abs_Q>
1

> <r_epik_Metal_State_Penalty>
0.314444

> <b_epik_Metal_Only>
0

> <s_lp_Force_Field>
OPLS_2005

> <r_lp_Energy>
21.5381

> <b_lp_Chiralities_Consistent>
1

> <s_lp_Variant>
AV-unprocessed.smi:2482-2

> <Gold.Version>
5.8.1

> <Gold.Id.Protein>
6NUR|6NUR_protein|mol2

> <Gold.PLP.Fitness>
38.1877

> <Gold.PLP.PLP>
-33.4391

> <Gold.PLP.part.hbond>
-1.0000

> <Gold.PLP.part.metal>
0.0000

> <Gold.PLP.part.buried>
-6.1743

> <Gold.PLP.part.nonpolar>
-27.5482

> <Gold.PLP.part.repulsive>
1.2556

> <Gold.PLP.ligand.clash>
0.0000

> <Gold.PLP.ligand.torsion>
0.6351

> <Gold.PLP.Chemscore.Hbond>
2.0000

> <Gold.PLP.Chemscore.CHOScore>
0.0000

> <Gold.PLP.Chemscore.Metal>
0.0000

> <Gold.Chemscore.Hbonds>
donor molecule, donor type, donor heavy atom, donor atom, acceptor molecule, acceptor atom, score
      L1  H    12    35       P1  8028  2.00

> <Gold.PLP.Chemscore.Internal.Correction>
0.0188

> <Gold.Rescore>
     Score         DG    S(hbond)    S(metal)    S(lipo)     H(rot)  DE(clash)    DE(int)     intcor
     13.70     -16.15       0.92        0.00      86.89       1.00       0.41       2.04       ----

> <Gold.Chemscore.Fitness>
13.6963

> <Gold.Chemscore.DG>
-16.1541

> <Gold.Chemscore.ZeroCoef>
-5.4800

> <Gold.Chemscore.Hbond>
0.9187

> <Gold.Chemscore.Metal>
0.0000

> <Gold.Chemscore.Lipo>
86.8861

> <Gold.Chemscore.Internal_Hbond>
0.0000

> <Gold.Chemscore.DEClash>
0.4139

> <Gold.Chemscore.DEInternal>
2.0439

> <Gold.Chemscore.Rot>
1.0000

> <Gold.Chemscore.Internal.Correction>
   9.000000E+99

> <Gold.Chemscore.Hbonds>
donor molecule, donor type, donor heavy atom, donor atom, acceptor molecule, acceptor atom, score
      L1  H    12    35       P1  8028  0.39

> <Gold.Chemscore.Hbond.Weighted>
-3.0685

> <Gold.Chemscore.Metal.Weighted>
-0.0000

> <Gold.Chemscore.Lipo.Weighted>
-10.1657

> <Gold.Chemscore.Internal_Hbond.Weighted>
0.0000

> <Gold.Chemscore.DEClash.Weighted>
0.4139

> <Gold.Chemscore.DEInternal.Weighted>
2.0439

> <Gold.Chemscore.Rot.Weighted>
2.5600

> <Gold.Chemscore.Internal.Correction.Weighted>
   9.000000E+99

> <Gold.Protein.RotatedTorsions>
[ 6907 6896 6895 6894 ] final   46.33 input  -60.11 | X-H torsion
[ 7974 7965 7964 7962 ] final -155.22 input  175.53 | X-H torsion
[ 8008 7997 7996 7995 ] final  -72.47 input   59.86 | X-H torsion
[ 10167 10162 10161 10158 ] final  -31.81 input  -65.29 | X-H torsion
[ 10718 10713 10712 10709 ] final -172.42 input   66.30 | X-H torsion
[ 10763 10752 10751 10750 ] final  127.36 input  -60.55 | X-H torsion
[ 11005 11000 10999 10996 ] final -107.91 input  -57.11 | X-H torsion

> <Gold.Protein.ActiveResidues>
 VAL166  LYS551  ARG553  GLY616  TRP617  ASP618  TYR619  PRO620  LYS621  CYS622 
 ASP623  PHE694  ASN695  SER759  ASP760  ASP761  ALA762  ILE779  LEU786  VAL792 
 PHE793  MET794  SER795  GLU796  ALA797  LYS798  CYS799  TRP800  GLU811  SER814 

> <Gold.Protein.RotatedAtoms>
  152.2551  134.8092  160.0439 H   0  0  0  0  0  0  0  0  0  0  0  0  # atno 6907 bound_to 6896
  151.8759  133.3480  159.3758 H   0  0  0  0  0  0  0  0  0  0  0  0  # atno 6908 bound_to 6896
  150.7097  134.4994  159.5598 H   0  0  0  0  0  0  0  0  0  0  0  0  # atno 6909 bound_to 6896
  144.7650  140.4279  143.5948 H   0  0  0  0  0  0  0  0  0  0  0  0  # atno 7974 bound_to 7965
  154.5169  140.0796  156.8097 H   0  0  0  0  0  0  0  0  0  0  0  0  # atno 8008 bound_to 7997
  155.3662  140.3420  155.4224 H   0  0  0  0  0  0  0  0  0  0  0  0  # atno 8009 bound_to 7997
  156.1637  140.1597  156.8555 H   0  0  0  0  0  0  0  0  0  0  0  0  # atno 8010 bound_to 7997
  140.7231  143.3742  151.1721 H   0  0  0  0  0  0  0  0  0  0  0  0  # atno 10167 bound_to 10162
  156.7553  130.9393  151.3116 H   0  0  0  0  0  0  0  0  0  0  0  0  # atno 10718 bound_to 10713
  153.7081  135.3272  155.3240 H   0  0  0  0  0  0  0  0  0  0  0  0  # atno 10763 bound_to 10752
  154.8393  135.4470  154.1342 H   0  0  0  0  0  0  0  0  0  0  0  0  # atno 10764 bound_to 10752
  153.2428  135.6973  153.7843 H   0  0  0  0  0  0  0  0  0  0  0  0  # atno 10765 bound_to 10752
  141.0929  133.9022  157.2031 H   0  0  0  0  0  0  0  0  0  0  0  0  # atno 11005 bound_to 11000
  145.6497  139.1563  143.2869 LP  0  0  0  0  0  0  0  0  0  0  0  0  # atno 17320 bound_to 7965
  146.1750  140.6587  142.9215 LP  0  0  0  0  0  0  0  0  0  0  0  0  # atno 17321 bound_to 7965
  139.7319  143.9059  152.3022 LP  0  0  0  0  0  0  0  0  0  0  0  0  # atno 17342 bound_to 10162
  139.8851  144.6996  150.8834 LP  0  0  0  0  0  0  0  0  0  0  0  0  # atno 17343 bound_to 10162
  157.6759  130.9094  150.0149 LP  0  0  0  0  0  0  0  0  0  0  0  0  # atno 17370 bound_to 10713
  156.1374  130.3642  149.9635 LP  0  0  0  0  0  0  0  0  0  0  0  0  # atno 17371 bound_to 10713
  139.9759  135.0114  156.9631 LP  0  0  0  0  0  0  0  0  0  0  0  0  # atno 17394 bound_to 11000
  140.5208  134.0909  155.7291 LP  0  0  0  0  0  0  0  0  0  0  0  0  # atno 17395 bound_to 11000

$$$$
