AV-unprocessed.smi:243|AV-procd|sdf|1859|dock9
  -GOLD-   2262020493D 1   1.00000     0.00000
 Structure written by MMmdl.
 58 61  0  0  0  0  0  0  0  0  2 V2000
  151.8242  145.1674  160.5674 C   0  0  0  0  0  0  0  0  0  0  0  0
  152.6150  144.7673  159.3135 C   0  0  0  0  0  0  0  0  0  0  0  0
  152.3967  143.3489  158.9336 N   0  3  1  0  0  0  0  0  0  0  0  0
  153.0085  142.4077  159.9060 C   0  0  0  0  0  0  0  0  0  0  0  0
  152.9024  140.9559  159.4152 C   0  0  0  0  0  0  0  0  0  0  0  0
  151.4356  140.5810  159.1283 C   0  0  2  0  0  0  0  0  0  0  0  0
  151.2500  139.1640  158.7754 N   0  0  0  0  0  0  0  0  0  0  0  0
  152.2422  138.4487  157.9689 C   0  0  0  0  0  0  0  0  0  0  0  0
  149.9631  138.7317  158.6800 C   0  0  0  0  0  0  0  0  0  0  0  0
  149.0977  139.4012  157.8712 N   0  0  0  0  0  0  0  0  0  0  0  0
  147.8231  139.0140  157.7713 C   0  0  0  0  0  0  0  0  0  0  0  0
  147.2107  137.9987  158.3814 N   0  0  0  0  0  0  0  0  0  0  0  0
  148.0710  137.3157  159.1888 C   0  0  0  0  0  0  0  0  0  0  0  0
  149.4487  137.6122  159.3977 C   0  0  0  0  0  0  0  0  0  0  0  0
  149.9953  136.6906  160.2842 N   0  0  0  0  0  0  0  0  0  0  0  0
  148.9990  135.9058  160.5895 C   0  0  0  0  0  0  0  0  0  0  0  0
  147.8080  136.2028  159.9682 N   0  0  0  0  0  0  0  0  0  0  0  0
  146.5470  135.4914  160.1123 C   0  0  0  0  0  0  0  0  0  0  0  0
  146.0008  135.4988  161.5594 C   0  0  1  0  0  0  0  0  0  0  0  0
  145.7747  136.8389  161.9611 O   0  0  0  0  0  0  0  0  0  0  0  0
  144.7045  134.7132  161.7421 C   0  0  0  0  0  0  0  0  0  0  0  0
  144.8249  134.1833  163.1640 C   0  0  0  0  0  0  0  0  0  0  0  0
  146.1963  133.8361  163.2453 O   0  0  0  0  0  0  0  0  0  0  0  0
  146.9545  134.8383  162.5751 C   0  0  0  0  0  0  0  0  0  0  0  0
  150.7890  141.5896  158.1408 C   0  0  2  0  0  0  0  0  0  0  0  0
  151.2697  141.4851  156.6808 C   0  0  0  0  0  0  0  0  0  0  0  0
  150.9662  143.0234  158.6839 C   0  0  0  0  0  0  0  0  0  0  0  0
  151.9342  146.2342  160.7641 H   0  0  0  0  0  0  0  0  0  0  0  0
  152.1668  144.6394  161.4567 H   0  0  0  0  0  0  0  0  0  0  0  0
  150.7601  144.9638  160.4432 H   0  0  0  0  0  0  0  0  0  0  0  0
  152.2865  145.4129  158.4980 H   0  0  0  0  0  0  0  0  0  0  0  0
  153.6801  144.9607  159.4491 H   0  0  0  0  0  0  0  0  0  0  0  0
  154.0605  142.6566  160.0514 H   0  0  0  0  0  0  0  0  0  0  0  0
  152.5206  142.5153  160.8762 H   0  0  0  0  0  0  0  0  0  0  0  0
  153.5153  140.8374  158.5214 H   0  0  0  0  0  0  0  0  0  0  0  0
  153.3184  140.2864  160.1691 H   0  0  0  0  0  0  0  0  0  0  0  0
  150.9325  140.7295  160.0813 H   0  0  0  0  0  0  0  0  0  0  0  0
  152.0303  137.3787  157.9534 H   0  0  0  0  0  0  0  0  0  0  0  0
  153.2415  138.5585  158.3883 H   0  0  0  0  0  0  0  0  0  0  0  0
  152.2643  138.8017  156.9395 H   0  0  0  0  0  0  0  0  0  0  0  0
  147.2058  139.6021  157.1081 H   0  0  0  0  0  0  0  0  0  0  0  0
  149.1091  135.0784  161.2751 H   0  0  0  0  0  0  0  0  0  0  0  0
  145.8231  135.9446  159.4340 H   0  0  0  0  0  0  0  0  0  0  0  0
  146.6869  134.4659  159.7675 H   0  0  0  0  0  0  0  0  0  0  0  0
  145.5553  136.8440  162.8803 H   0  0  0  0  0  0  0  0  0  0  0  0
  143.8021  135.3036  161.5763 H   0  0  0  0  0  0  0  0  0  0  0  0
  144.6771  133.8649  161.0571 H   0  0  0  0  0  0  0  0  0  0  0  0
  144.5947  134.9596  163.8955 H   0  0  0  0  0  0  0  0  0  0  0  0
  144.1795  133.3250  163.3524 H   0  0  0  0  0  0  0  0  0  0  0  0
  147.8163  134.3728  162.0953 H   0  0  0  0  0  0  0  0  0  0  0  0
  147.3362  135.5541  163.3052 H   0  0  0  0  0  0  0  0  0  0  0  0
  149.7152  141.3977  158.1233 H   0  0  0  0  0  0  0  0  0  0  0  0
  152.3537  141.5571  156.5976 H   0  0  0  0  0  0  0  0  0  0  0  0
  150.8410  142.2818  156.0723 H   0  0  0  0  0  0  0  0  0  0  0  0
  150.9534  140.5471  156.2269 H   0  0  0  0  0  0  0  0  0  0  0  0
  150.4086  143.1348  159.6155 H   0  0  0  0  0  0  0  0  0  0  0  0
  150.5288  143.7311  157.9806 H   0  0  0  0  0  0  0  0  0  0  0  0
  152.8869  143.2091  158.0617 H   0  0  0  0  0  0  0  0  0  0  0  0
  1  2  1  0  0  0  0
  1 28  1  0  0  0  0
  1 29  1  0  0  0  0
  1 30  1  0  0  0  0
  2  3  1  0  0  0  0
  2 31  1  0  0  0  0
  2 32  1  0  0  0  0
  3 27  1  0  0  0  0
  3  4  1  0  0  0  0
  3 58  1  0  0  0  0
  4  5  1  0  0  0  0
  4 33  1  0  0  0  0
  4 34  1  0  0  0  0
  5  6  1  0  0  0  0
  5 35  1  0  0  0  0
  5 36  1  0  0  0  0
  6  7  1  0  0  0  0
  6 25  1  0  0  0  0
  6 37  1  0  0  0  0
  7  8  1  0  0  0  0
  7  9  1  0  0  0  0
  8 38  1  0  0  0  0
  8 39  1  0  0  0  0
  8 40  1  0  0  0  0
  9 14  1  0  0  0  0
  9 10  2  0  0  0  0
 10 11  1  0  0  0  0
 11 12  2  0  0  0  0
 11 41  1  0  0  0  0
 12 13  1  0  0  0  0
 13 17  1  0  0  0  0
 13 14  2  0  0  0  0
 14 15  1  0  0  0  0
 15 16  2  0  0  0  0
 16 17  1  0  0  0  0
 16 42  1  0  0  0  0
 17 18  1  0  0  0  0
 18 19  1  0  0  0  0
 18 43  1  0  0  0  0
 18 44  1  0  0  0  0
 19 24  1  0  0  0  0
 19 20  1  0  0  0  0
 19 21  1  0  0  0  0
 20 45  1  0  0  0  0
 21 22  1  0  0  0  0
 21 46  1  0  0  0  0
 21 47  1  0  0  0  0
 22 23  1  0  0  0  0
 22 48  1  0  0  0  0
 22 49  1  0  0  0  0
 23 24  1  0  0  0  0
 24 50  1  0  0  0  0
 24 51  1  0  0  0  0
 25 26  1  0  0  0  0
 25 27  1  0  0  0  0
 25 52  1  0  0  0  0
 26 53  1  0  0  0  0
 26 54  1  0  0  0  0
 26 55  1  0  0  0  0
 27 56  1  0  0  0  0
 27 57  1  0  0  0  0
M  CHG  1   3   1
M  END
> <s_m_source_file>
AV-unprocessed.smi

> <i_m_source_file_index>
243

> <i_lp_mmshare_version>
43012

> <i_f3d_flags>
0

> <s_epik_input>
W0NIM11bQ0gyXU4xW0NIMl1bQ0gyXVtDQEhdKFtDQEBIXShbQ0gzXSlbQ0gyXTEpTihbQ0gzXSljKG5bY0hdbjIpYyhjMjMpbltjSF1uM1tDSDJdW0NAQF00KFtPSF0pW0NIMl1bQ0gyXU9bQ0gyXTQ=

> <s_epik_cmdline>
J2VwaWtfcHl0aG9uJywgJy1waCcsICc3LjAnLCAnLXRuJywgJzgnLCAnLW1hJywgJzIwMCcsICctbWV0YWxfYmluZGluZycsICctaW1hZScsICc8aW5maWxlLm1hZT4nLCAnLW9tYWUnLCAnPG91dGZpbGUubWFlPic=

> <r_lp_tautomer_probability>
1

> <r_epik_Ionization_Penalty>
0.00253099

> <r_epik_Ionization_Penalty_Charging>
0.00137877

> <r_epik_Ionization_Penalty_Neutral>
0.00115221

> <r_epik_State_Penalty>
-0

> <r_epik_Charging_Adjusted_Penalty>
0.00137877

> <i_epik_Tot_Q>
1

> <i_epik_Tot_abs_Q>
1

> <r_epik_Metal_State_Penalty>
-0

> <b_epik_Metal_Only>
0

> <s_lp_Force_Field>
OPLS_2005

> <r_lp_Energy>
49.5807

> <b_lp_Chiralities_Consistent>
1

> <s_lp_Variant>
AV-unprocessed.smi:243-12

> <Gold.Version>
5.8.1

> <Gold.Id.Protein>
6NUR|6NUR_protein|mol2

> <Gold.PLP.Fitness>
42.4300

> <Gold.PLP.PLP>
-42.2588

> <Gold.PLP.part.hbond>
-1.8966

> <Gold.PLP.part.metal>
0.0000

> <Gold.PLP.part.buried>
-7.5592

> <Gold.PLP.part.nonpolar>
-33.8200

> <Gold.PLP.part.repulsive>
0.0783

> <Gold.PLP.ligand.clash>
0.0000

> <Gold.PLP.ligand.torsion>
1.6300

> <Gold.PLP.Chemscore.Hbond>
0.8336

> <Gold.PLP.Chemscore.CHOScore>
0.0000

> <Gold.PLP.Chemscore.Metal>
0.0000

> <Gold.Chemscore.Hbonds>
donor molecule, donor type, donor heavy atom, donor atom, acceptor molecule, acceptor atom, score
      P1  H  6896  6909       L1    15  0.45

> <Gold.PLP.Chemscore.Internal.Correction>
0.9304

> <Gold.Rescore>
     Score         DG    S(hbond)    S(metal)    S(lipo)     H(rot)  DE(clash)    DE(int)     intcor
      9.07     -12.29       0.00        0.00     107.15       2.24       0.13       3.09       ----

> <Gold.Chemscore.Fitness>
9.0685

> <Gold.Chemscore.DG>
-12.2878

> <Gold.Chemscore.ZeroCoef>
-5.4800

> <Gold.Chemscore.Hbond>
0.0000

> <Gold.Chemscore.Metal>
0.0000

> <Gold.Chemscore.Lipo>
107.1533

> <Gold.Chemscore.Internal_Hbond>
0.0000

> <Gold.Chemscore.DEClash>
0.1308

> <Gold.Chemscore.DEInternal>
3.0885

> <Gold.Chemscore.Rot>
2.2379

> <Gold.Chemscore.Internal.Correction>
   9.000000E+99

> <Gold.Chemscore.Hbonds>
donor molecule, donor type, donor heavy atom, donor atom, acceptor molecule, acceptor atom, score
      P1  H  6896  6909       L1    15  0.02

> <Gold.Chemscore.Hbond.Weighted>
-0.0000

> <Gold.Chemscore.Metal.Weighted>
-0.0000

> <Gold.Chemscore.Lipo.Weighted>
-12.5369

> <Gold.Chemscore.Internal_Hbond.Weighted>
0.0000

> <Gold.Chemscore.DEClash.Weighted>
0.1308

> <Gold.Chemscore.DEInternal.Weighted>
3.0885

> <Gold.Chemscore.Rot.Weighted>
5.7291

> <Gold.Chemscore.Internal.Correction.Weighted>
   9.000000E+99

> <Gold.Protein.RotatedTorsions>
[ 6907 6896 6895 6894 ] final   92.95 input  -60.11 | X-H torsion
[ 7974 7965 7964 7962 ] final -117.41 input  175.53 | X-H torsion
[ 8008 7997 7996 7995 ] final  -35.71 input   59.86 | X-H torsion
[ 10167 10162 10161 10158 ] final    8.29 input  -65.29 | X-H torsion
[ 10718 10713 10712 10709 ] final  -93.06 input   66.30 | X-H torsion
[ 10763 10752 10751 10750 ] final  -44.92 input  -60.55 | X-H torsion
[ 11005 11000 10999 10996 ] final  -50.40 input  -57.11 | X-H torsion

> <Gold.Protein.ActiveResidues>
 VAL166  LYS551  ARG553  GLY616  TRP617  ASP618  TYR619  PRO620  LYS621  CYS622 
 ASP623  PHE694  ASN695  SER759  ASP760  ASP761  ALA762  ILE779  LEU786  VAL792 
 PHE793  MET794  SER795  GLU796  ALA797  LYS798  CYS799  TRP800  GLU811  SER814 

> <Gold.Protein.RotatedAtoms>
  152.5453  134.1423  159.8483 H   0  0  0  0  0  0  0  0  0  0  0  0  # atno 6907 bound_to 6896
  151.1457  133.4934  159.2603 H   0  0  0  0  0  0  0  0  0  0  0  0  # atno 6908 bound_to 6896
  151.1525  135.0244  159.8729 H   0  0  0  0  0  0  0  0  0  0  0  0  # atno 6909 bound_to 6896
  145.0855  140.8455  143.4013 H   0  0  0  0  0  0  0  0  0  0  0  0  # atno 7974 bound_to 7965
  154.4089  140.1650  156.2256 H   0  0  0  0  0  0  0  0  0  0  0  0  # atno 8008 bound_to 7997
  155.9327  140.3413  155.6239 H   0  0  0  0  0  0  0  0  0  0  0  0  # atno 8009 bound_to 7997
  155.7087  140.0754  157.2371 H   0  0  0  0  0  0  0  0  0  0  0  0  # atno 8010 bound_to 7997
  140.6323  143.7966  150.7311 H   0  0  0  0  0  0  0  0  0  0  0  0  # atno 10167 bound_to 10162
  156.0009  130.5012  150.5719 H   0  0  0  0  0  0  0  0  0  0  0  0  # atno 10718 bound_to 10713
  154.0200  135.6670  153.4772 H   0  0  0  0  0  0  0  0  0  0  0  0  # atno 10763 bound_to 10752
  153.0584  135.5042  154.8032 H   0  0  0  0  0  0  0  0  0  0  0  0  # atno 10764 bound_to 10752
  154.6943  135.3067  154.9399 H   0  0  0  0  0  0  0  0  0  0  0  0  # atno 10765 bound_to 10752
  141.0814  133.6652  156.3726 H   0  0  0  0  0  0  0  0  0  0  0  0  # atno 11005 bound_to 11000
  145.1127  139.2746  143.5629 LP  0  0  0  0  0  0  0  0  0  0  0  0  # atno 17320 bound_to 7965
  146.3531  140.0728  142.8622 LP  0  0  0  0  0  0  0  0  0  0  0  0  # atno 17321 bound_to 7965
  140.1580  143.4300  152.2086 LP  0  0  0  0  0  0  0  0  0  0  0  0  # atno 17342 bound_to 10162
  139.5536  144.7356  151.4362 LP  0  0  0  0  0  0  0  0  0  0  0  0  # atno 17343 bound_to 10162
  157.3613  131.0750  151.1634 LP  0  0  0  0  0  0  0  0  0  0  0  0  # atno 17370 bound_to 10713
  157.2418  130.6573  149.5893 LP  0  0  0  0  0  0  0  0  0  0  0  0  # atno 17371 bound_to 10713
  140.5460  134.6074  157.5394 LP  0  0  0  0  0  0  0  0  0  0  0  0  # atno 17394 bound_to 11000
  139.9628  134.7424  156.0201 LP  0  0  0  0  0  0  0  0  0  0  0  0  # atno 17395 bound_to 11000

$$$$
