AV-unprocessed.smi:835|AV-procd|sdf|3886|dock10
  -GOLD-   22720 1343D 1   1.00000     0.00000
 Structure written by MMmdl.
 41 43  0  0  0  0  0  0  0  0  2 V2000
  153.2742  142.9556  162.8287 C   0  0  0  0  0  0  0  0  0  0  0  0
  152.8251  142.9204  161.3978 C   0  0  0  0  0  0  0  0  0  0  0  0
  152.6409  141.7796  160.5634 C   0  0  0  0  0  0  0  0  0  0  0  0
  152.2293  142.3343  159.3824 C   0  0  0  0  0  0  0  0  0  0  0  0
  151.8912  141.7140  158.2209 N   0  0  0  0  0  0  0  0  0  0  0  0
  150.6644  141.4888  157.7195 C   0  0  0  0  0  0  0  0  0  0  0  0
  149.6033  141.8091  158.2553 O   0  0  0  0  0  0  0  0  0  0  0  0
  150.7289  140.8481  156.5436 N   0  0  0  0  0  0  0  0  0  0  0  0
  149.5680  140.4389  155.7603 C   0  0  2  0  0  0  0  0  0  0  0  0
  149.6994  139.0694  155.1008 C   0  0  0  0  0  0  0  0  0  0  0  0
  148.6526  139.1363  153.9835 C   0  0  0  0  0  0  0  0  0  0  0  0
  148.5182  140.5663  153.6089 N   0  3  1  0  0  0  0  0  0  0  0  0
  147.1145  141.0226  153.5135 C   0  0  0  0  0  0  0  0  0  0  0  0
  146.9346  142.4884  153.8287 C   0  0  0  0  0  0  0  0  0  0  0  0
  146.5232  141.4395  154.8391 C   0  0  0  0  0  0  0  0  0  0  0  0
  149.3350  141.3540  154.5589 C   0  0  0  0  0  0  0  0  0  0  0  0
  152.1735  143.7024  159.5280 N   0  0  0  0  0  0  0  0  0  0  0  0
  151.7912  144.7168  158.5652 C   0  0  0  0  0  0  0  0  0  0  0  0
  152.5456  144.0605  160.7760 N   0  0  0  0  0  0  0  0  0  0  0  0
  153.5002  141.9541  163.1954 H   0  0  0  0  0  0  0  0  0  0  0  0
  152.5022  143.3776  163.4723 H   0  0  0  0  0  0  0  0  0  0  0  0
  154.1734  143.5614  162.9438 H   0  0  0  0  0  0  0  0  0  0  0  0
  152.7871  140.7392  160.8113 H   0  0  0  0  0  0  0  0  0  0  0  0
  152.6676  141.3590  157.6823 H   0  0  0  0  0  0  0  0  0  0  0  0
  151.6398  140.6236  156.1705 H   0  0  0  0  0  0  0  0  0  0  0  0
  148.6761  140.4537  156.3906 H   0  0  0  0  0  0  0  0  0  0  0  0
  150.6954  138.9478  154.6715 H   0  0  0  0  0  0  0  0  0  0  0  0
  149.5262  138.2442  155.7926 H   0  0  0  0  0  0  0  0  0  0  0  0
  148.9342  138.5302  153.1221 H   0  0  0  0  0  0  0  0  0  0  0  0
  147.7010  138.7537  154.3564 H   0  0  0  0  0  0  0  0  0  0  0  0
  146.4961  140.5381  152.7596 H   0  0  0  0  0  0  0  0  0  0  0  0
  147.8210  143.0801  154.0508 H   0  0  0  0  0  0  0  0  0  0  0  0
  146.1389  143.0204  153.3111 H   0  0  0  0  0  0  0  0  0  0  0  0
  145.4566  141.2810  154.9855 H   0  0  0  0  0  0  0  0  0  0  0  0
  147.1361  141.3330  155.7326 H   0  0  0  0  0  0  0  0  0  0  0  0
  148.8666  142.2990  154.8393 H   0  0  0  0  0  0  0  0  0  0  0  0
  150.2817  141.5890  154.0697 H   0  0  0  0  0  0  0  0  0  0  0  0
  152.3783  144.5984  157.6542 H   0  0  0  0  0  0  0  0  0  0  0  0
  151.9662  145.7151  158.9692 H   0  0  0  0  0  0  0  0  0  0  0  0
  150.7330  144.6119  158.3245 H   0  0  0  0  0  0  0  0  0  0  0  0
  148.9316  140.6863  152.6952 H   0  0  0  0  0  0  0  0  0  0  0  0
  1  2  1  0  0  0  0
  1 20  1  0  0  0  0
  1 21  1  0  0  0  0
  1 22  1  0  0  0  0
  2 19  2  0  0  0  0
  2  3  1  0  0  0  0
  3  4  2  0  0  0  0
  3 23  1  0  0  0  0
  4  5  1  0  0  0  0
  4 17  1  0  0  0  0
  5  6  1  0  0  0  0
  5 24  1  0  0  0  0
  6  7  2  0  0  0  0
  6  8  1  0  0  0  0
  8  9  1  0  0  0  0
  8 25  1  0  0  0  0
  9 16  1  0  0  0  0
  9 10  1  0  0  0  0
  9 26  1  0  0  0  0
 10 11  1  0  0  0  0
 10 27  1  0  0  0  0
 10 28  1  0  0  0  0
 11 12  1  0  0  0  0
 11 29  1  0  0  0  0
 11 30  1  0  0  0  0
 12 13  1  0  0  0  0
 12 16  1  0  0  0  0
 12 41  1  0  0  0  0
 13 15  1  0  0  0  0
 13 14  1  0  0  0  0
 13 31  1  0  0  0  0
 14 15  1  0  0  0  0
 14 32  1  0  0  0  0
 14 33  1  0  0  0  0
 15 34  1  0  0  0  0
 15 35  1  0  0  0  0
 16 36  1  0  0  0  0
 16 37  1  0  0  0  0
 17 18  1  0  0  0  0
 17 19  1  0  0  0  0
 18 38  1  0  0  0  0
 18 39  1  0  0  0  0
 18 40  1  0  0  0  0
M  CHG  1  12   1
M  END
> <s_m_source_file>
AV-unprocessed.smi

> <i_m_source_file_index>
835

> <i_lp_mmshare_version>
43012

> <i_f3d_flags>
0

> <s_epik_input>
W0NIM11jMVtjSF1jKG4objEpW0NIM10pW05IXUMoPU8pW05IXVtDQEBIXTJbQ0gyXVtDSDJdTihbQ0gyXTIpW0NIXTNbQ0gyXVtDSDJdMw==

> <s_epik_cmdline>
J2VwaWtfcHl0aG9uJywgJy1waCcsICc3LjAnLCAnLXRuJywgJzgnLCAnLW1hJywgJzIwMCcsICctbWV0YWxfYmluZGluZycsICctaW1hZScsICc8aW5maWxlLm1hZT4nLCAnLW9tYWUnLCAnPG91dGZpbGUubWFlPic=

> <r_lp_tautomer_probability>
1

> <r_epik_Ionization_Penalty>
0.000700689

> <r_epik_Ionization_Penalty_Charging>
0.000627528

> <r_epik_Ionization_Penalty_Neutral>
7.31611e-05

> <r_epik_State_Penalty>
0.00039643

> <r_epik_Charging_Adjusted_Penalty>
0.00102396

> <i_epik_Tot_Q>
1

> <i_epik_Tot_abs_Q>
1

> <r_epik_Metal_State_Penalty>
-0

> <b_epik_Metal_Only>
0

> <s_lp_Force_Field>
OPLS_2005

> <r_lp_Energy>
38.9836

> <b_lp_Chiralities_Consistent>
1

> <s_lp_Variant>
AV-unprocessed.smi:835-1

> <Gold.Version>
5.8.1

> <Gold.Id.Protein>
6NUR|6NUR_protein|mol2

> <Gold.PLP.Fitness>
43.7537

> <Gold.PLP.PLP>
-42.7315

> <Gold.PLP.part.hbond>
-1.0000

> <Gold.PLP.part.metal>
0.0000

> <Gold.PLP.part.buried>
-4.1029

> <Gold.PLP.part.nonpolar>
-36.7233

> <Gold.PLP.part.repulsive>
0.4617

> <Gold.PLP.ligand.clash>
0.0000

> <Gold.PLP.ligand.torsion>
1.5863

> <Gold.PLP.Chemscore.Hbond>
0.9760

> <Gold.PLP.Chemscore.CHOScore>
0.0000

> <Gold.PLP.Chemscore.Metal>
0.0000

> <Gold.Chemscore.Hbonds>
donor molecule, donor type, donor heavy atom, donor atom, acceptor molecule, acceptor atom, score
      L1  H    12    41       P1  7957  1.00

> <Gold.PLP.Chemscore.Internal.Correction>
1.2668

> <Gold.Rescore>
     Score         DG    S(hbond)    S(metal)    S(lipo)     H(rot)  DE(clash)    DE(int)     intcor
     14.82     -16.42       0.99        0.00      91.83       1.22       0.10       1.51       ----

> <Gold.Chemscore.Fitness>
14.8205

> <Gold.Chemscore.DG>
-16.4234

> <Gold.Chemscore.ZeroCoef>
-5.4800

> <Gold.Chemscore.Hbond>
0.9944

> <Gold.Chemscore.Metal>
0.0000

> <Gold.Chemscore.Lipo>
91.8321

> <Gold.Chemscore.Internal_Hbond>
0.0000

> <Gold.Chemscore.DEClash>
0.0967

> <Gold.Chemscore.DEInternal>
1.5062

> <Gold.Chemscore.Rot>
1.2196

> <Gold.Chemscore.Internal.Correction>
   9.000000E+99

> <Gold.Chemscore.Hbonds>
donor molecule, donor type, donor heavy atom, donor atom, acceptor molecule, acceptor atom, score
      L1  H    12    41       P1  7957  0.97

> <Gold.Chemscore.Hbond.Weighted>
-3.3213

> <Gold.Chemscore.Metal.Weighted>
-0.0000

> <Gold.Chemscore.Lipo.Weighted>
-10.7444

> <Gold.Chemscore.Internal_Hbond.Weighted>
0.0000

> <Gold.Chemscore.DEClash.Weighted>
0.0967

> <Gold.Chemscore.DEInternal.Weighted>
1.5062

> <Gold.Chemscore.Rot.Weighted>
3.1223

> <Gold.Chemscore.Internal.Correction.Weighted>
   9.000000E+99

> <Gold.Protein.RotatedTorsions>
[ 6907 6896 6895 6894 ] final  135.14 input  -60.11 | X-H torsion
[ 7974 7965 7964 7962 ] final -163.59 input  175.53 | X-H torsion
[ 8008 7997 7996 7995 ] final  -75.04 input   59.86 | X-H torsion
[ 10167 10162 10161 10158 ] final  -30.38 input  -65.29 | X-H torsion
[ 10718 10713 10712 10709 ] final  -31.32 input   66.30 | X-H torsion
[ 10763 10752 10751 10750 ] final  -18.73 input  -60.55 | X-H torsion
[ 11005 11000 10999 10996 ] final  106.47 input  -57.11 | X-H torsion

> <Gold.Protein.ActiveResidues>
 VAL166  LYS551  ARG553  GLY616  TRP617  ASP618  TYR619  PRO620  LYS621  CYS622 
 ASP623  PHE694  ASN695  SER759  ASP760  ASP761  ALA762  ILE779  LEU786  VAL792 
 PHE793  MET794  SER795  GLU796  ALA797  LYS798  CYS799  TRP800  GLU811  SER814 

> <Gold.Protein.RotatedAtoms>
  152.3037  133.5681  159.5634 H   0  0  0  0  0  0  0  0  0  0  0  0  # atno 6907 bound_to 6896
  150.7289  134.0254  159.3724 H   0  0  0  0  0  0  0  0  0  0  0  0  # atno 6908 bound_to 6896
  151.8152  135.0669  160.0469 H   0  0  0  0  0  0  0  0  0  0  0  0  # atno 6909 bound_to 6896
  144.7321  140.3085  143.6192 H   0  0  0  0  0  0  0  0  0  0  0  0  # atno 7974 bound_to 7965
  154.5382  140.0751  156.8465 H   0  0  0  0  0  0  0  0  0  0  0  0  # atno 8008 bound_to 7997
  155.3234  140.3397  155.4222 H   0  0  0  0  0  0  0  0  0  0  0  0  # atno 8009 bound_to 7997
  156.1849  140.1665  156.8190 H   0  0  0  0  0  0  0  0  0  0  0  0  # atno 8010 bound_to 7997
  140.7250  143.3853  151.1526 H   0  0  0  0  0  0  0  0  0  0  0  0  # atno 10167 bound_to 10162
  156.3887  130.4369  149.7411 H   0  0  0  0  0  0  0  0  0  0  0  0  # atno 10718 bound_to 10713
  153.5938  135.7001  153.5412 H   0  0  0  0  0  0  0  0  0  0  0  0  # atno 10763 bound_to 10752
  153.3155  135.4089  155.1372 H   0  0  0  0  0  0  0  0  0  0  0  0  # atno 10764 bound_to 10752
  154.8595  135.3682  154.5471 H   0  0  0  0  0  0  0  0  0  0  0  0  # atno 10765 bound_to 10752
  139.8814  134.9370  156.5671 H   0  0  0  0  0  0  0  0  0  0  0  0  # atno 11005 bound_to 11000
  145.7689  139.1850  143.2224 LP  0  0  0  0  0  0  0  0  0  0  0  0  # atno 17320 bound_to 7965
  146.0927  140.7637  142.9587 LP  0  0  0  0  0  0  0  0  0  0  0  0  # atno 17321 bound_to 7965
  139.7449  143.8867  152.3061 LP  0  0  0  0  0  0  0  0  0  0  0  0  # atno 17342 bound_to 10162
  139.8701  144.7073  150.8998 LP  0  0  0  0  0  0  0  0  0  0  0  0  # atno 17343 bound_to 10162
  156.4473  130.7890  151.2911 LP  0  0  0  0  0  0  0  0  0  0  0  0  # atno 17370 bound_to 10713
  157.7497  131.0106  150.3313 LP  0  0  0  0  0  0  0  0  0  0  0  0  # atno 17371 bound_to 10713
  140.8126  133.8417  155.8823 LP  0  0  0  0  0  0  0  0  0  0  0  0  # atno 17394 bound_to 11000
  140.9492  134.1800  157.4740 LP  0  0  0  0  0  0  0  0  0  0  0  0  # atno 17395 bound_to 11000

$$$$
