AV-unprocessed.smi:1327|AV-procd|sdf|5477|dock9
  -GOLD-   22720 5 53D 1   1.00000     0.00000
 Structure written by MMmdl.
 40 41  0  0  0  0  0  0  0  0  1 V2000
  152.3180  139.3312  157.1341 O   0  0  0  0  0  0  0  0  0  0  0  0
  151.1609  139.8283  157.8941 S   0  0  0  0  0  0  0  0  0  0  0  0
  149.8083  139.8056  157.3165 O   0  0  0  0  0  0  0  0  0  0  0  0
  151.1014  139.0046  159.4054 N   0  0  0  0  0  0  0  0  0  0  0  0
  150.9128  137.5549  159.4089 C   0  0  0  0  0  0  0  0  0  0  0  0
  149.4427  137.1873  159.6707 C   0  0  0  0  0  0  0  0  0  0  0  0
  149.2463  136.3404  160.9178 C   0  0  0  0  0  0  0  0  0  0  0  0
  149.0045  134.9539  160.8111 C   0  0  0  0  0  0  0  0  0  0  0  0
  148.8171  134.2115  161.9930 C   0  0  0  0  0  0  0  0  0  0  0  0
  148.8763  134.8803  163.2306 C   0  0  0  0  0  0  0  0  0  0  0  0
  149.1226  136.2676  163.2313 C   0  0  0  0  0  0  0  0  0  0  0  0
  149.3052  136.9885  162.1040 N   0  0  0  0  0  0  0  0  0  0  0  0
  151.5156  141.4283  158.4623 N   0  0  0  0  0  0  0  0  0  0  0  0
  152.5422  141.5786  159.5089 C   0  0  0  0  0  0  0  0  0  0  0  0
  153.2645  142.9392  159.4615 C   0  0  0  0  0  0  0  0  0  0  0  0
  152.4047  144.1116  159.9584 C   0  0  0  0  0  0  0  0  0  0  0  0
  151.4829  144.7338  158.8947 C   0  0  0  0  0  0  0  0  0  0  0  0
  150.8542  143.7506  157.8922 C   0  0  0  0  0  0  0  0  0  0  0  0
  150.4143  142.4098  158.4984 C   0  0  0  0  0  0  0  0  0  0  0  0
  150.5006  139.4812  160.0782 H   0  0  0  0  0  0  0  0  0  0  0  0
  151.2411  137.1438  158.4537 H   0  0  0  0  0  0  0  0  0  0  0  0
  151.5505  137.1234  160.1806 H   0  0  0  0  0  0  0  0  0  0  0  0
  148.8565  138.1011  159.7736 H   0  0  0  0  0  0  0  0  0  0  0  0
  149.0288  136.6620  158.8087 H   0  0  0  0  0  0  0  0  0  0  0  0
  148.9607  134.4693  159.8467 H   0  0  0  0  0  0  0  0  0  0  0  0
  148.6304  133.1486  161.9507 H   0  0  0  0  0  0  0  0  0  0  0  0
  148.7362  134.3435  164.1572 H   0  0  0  0  0  0  0  0  0  0  0  0
  149.1736  136.8123  164.1624 H   0  0  0  0  0  0  0  0  0  0  0  0
  152.0908  141.4078  160.4868 H   0  0  0  0  0  0  0  0  0  0  0  0
  153.2923  140.7982  159.3830 H   0  0  0  0  0  0  0  0  0  0  0  0
  154.1350  142.8675  160.1147 H   0  0  0  0  0  0  0  0  0  0  0  0
  153.6609  143.1386  158.4652 H   0  0  0  0  0  0  0  0  0  0  0  0
  151.8130  143.7865  160.8151 H   0  0  0  0  0  0  0  0  0  0  0  0
  153.0573  144.8972  160.3407 H   0  0  0  0  0  0  0  0  0  0  0  0
  150.6904  145.2790  159.4088 H   0  0  0  0  0  0  0  0  0  0  0  0
  152.0378  145.4850  158.3317 H   0  0  0  0  0  0  0  0  0  0  0  0
  149.9897  144.2379  157.4402 H   0  0  0  0  0  0  0  0  0  0  0  0
  151.5442  143.5675  157.0669 H   0  0  0  0  0  0  0  0  0  0  0  0
  149.5771  142.0278  157.9145 H   0  0  0  0  0  0  0  0  0  0  0  0
  150.0366  142.5235  159.5152 H   0  0  0  0  0  0  0  0  0  0  0  0
  1  2  2  0  0  0  0
  2  3  2  0  0  0  0
  2  4  1  0  0  0  0
  2 13  1  0  0  0  0
  4  5  1  0  0  0  0
  4 20  1  0  0  0  0
  5  6  1  0  0  0  0
  5 21  1  0  0  0  0
  5 22  1  0  0  0  0
  6  7  1  0  0  0  0
  6 23  1  0  0  0  0
  6 24  1  0  0  0  0
  7 12  1  0  0  0  0
  7  8  2  0  0  0  0
  8  9  1  0  0  0  0
  8 25  1  0  0  0  0
  9 10  2  0  0  0  0
  9 26  1  0  0  0  0
 10 11  1  0  0  0  0
 10 27  1  0  0  0  0
 11 12  2  0  0  0  0
 11 28  1  0  0  0  0
 13 19  1  0  0  0  0
 13 14  1  0  0  0  0
 14 15  1  0  0  0  0
 14 29  1  0  0  0  0
 14 30  1  0  0  0  0
 15 16  1  0  0  0  0
 15 31  1  0  0  0  0
 15 32  1  0  0  0  0
 16 17  1  0  0  0  0
 16 33  1  0  0  0  0
 16 34  1  0  0  0  0
 17 18  1  0  0  0  0
 17 35  1  0  0  0  0
 17 36  1  0  0  0  0
 18 19  1  0  0  0  0
 18 37  1  0  0  0  0
 18 38  1  0  0  0  0
 19 39  1  0  0  0  0
 19 40  1  0  0  0  0
M  END
> <s_m_source_file>
AV-unprocessed.smi

> <i_m_source_file_index>
1327

> <i_lp_mmshare_version>
43012

> <i_f3d_flags>
0

> <s_epik_input>
W0NIMl0xW0NIMl1bQ0gyXVtDSDJdW0NIMl1bQ0gyXU4xUyg9TykoPU8pW05IXVtDSDJdW0NIMl1jMltjSF1bY0hdW2NIXVtjSF1uMg==

> <s_epik_cmdline>
J2VwaWtfcHl0aG9uJywgJy1waCcsICc3LjAnLCAnLXRuJywgJzgnLCAnLW1hJywgJzIwMCcsICctbWV0YWxfYmluZGluZycsICctaW1hZScsICc8aW5maWxlLm1hZT4nLCAnLW9tYWUnLCAnPG91dGZpbGUubWFlPic=

> <r_lp_tautomer_probability>
1

> <r_epik_Ionization_Penalty>
0.00665037

> <r_epik_Ionization_Penalty_Charging>
0

> <r_epik_Ionization_Penalty_Neutral>
0.00665037

> <r_epik_State_Penalty>
-0

> <r_epik_Charging_Adjusted_Penalty>
0

> <i_epik_Tot_Q>
0

> <i_epik_Tot_abs_Q>
0

> <r_epik_Metal_State_Penalty>
0.361784

> <b_epik_Metal_Only>
0

> <s_lp_Force_Field>
OPLS_2005

> <r_lp_Energy>
15.8899

> <b_lp_Chiralities_Consistent>
1

> <s_lp_Variant>
AV-unprocessed.smi:1327-1

> <Gold.Version>
5.8.1

> <Gold.Id.Protein>
6NUR|6NUR_protein|mol2

> <Gold.PLP.Fitness>
49.3361

> <Gold.PLP.PLP>
-43.4831

> <Gold.PLP.part.hbond>
-3.6007

> <Gold.PLP.part.metal>
0.0000

> <Gold.PLP.part.buried>
-3.8398

> <Gold.PLP.part.nonpolar>
-35.4805

> <Gold.PLP.part.repulsive>
0.0000

> <Gold.PLP.ligand.clash>
0.0000

> <Gold.PLP.ligand.torsion>
1.9948

> <Gold.PLP.Chemscore.Hbond>
2.5836

> <Gold.PLP.Chemscore.CHOScore>
0.0000

> <Gold.PLP.Chemscore.Metal>
0.0000

> <Gold.Chemscore.Hbonds>
donor molecule, donor type, donor heavy atom, donor atom, acceptor molecule, acceptor atom, score
      P1  H  6931  6943       L1    12  0.33
      P1  H  7997  8010       L1     1  0.04

> <Gold.PLP.Chemscore.Internal.Correction>
2.0918

> <Gold.Rescore>
     Score         DG    S(hbond)    S(metal)    S(lipo)     H(rot)  DE(clash)    DE(int)     intcor
     16.67     -18.59       1.36        0.00     105.42       1.47       0.06       1.87       ----

> <Gold.Chemscore.Fitness>
16.6682

> <Gold.Chemscore.DG>
-18.5924

> <Gold.Chemscore.ZeroCoef>
-5.4800

> <Gold.Chemscore.Hbond>
1.3618

> <Gold.Chemscore.Metal>
0.0000

> <Gold.Chemscore.Lipo>
105.4152

> <Gold.Chemscore.Internal_Hbond>
0.0000

> <Gold.Chemscore.DEClash>
0.0580

> <Gold.Chemscore.DEInternal>
1.8661

> <Gold.Chemscore.Rot>
1.4725

> <Gold.Chemscore.Internal.Correction>
   9.000000E+99

> <Gold.Chemscore.Hbonds>
donor molecule, donor type, donor heavy atom, donor atom, acceptor molecule, acceptor atom, score
      P1  H  6931  6943       L1    12  0.23
      P1  H  7997  8010       L1     1  0.08

> <Gold.Chemscore.Hbond.Weighted>
-4.5485

> <Gold.Chemscore.Metal.Weighted>
-0.0000

> <Gold.Chemscore.Lipo.Weighted>
-12.3336

> <Gold.Chemscore.Internal_Hbond.Weighted>
0.0000

> <Gold.Chemscore.DEClash.Weighted>
0.0580

> <Gold.Chemscore.DEInternal.Weighted>
1.8661

> <Gold.Chemscore.Rot.Weighted>
3.7697

> <Gold.Chemscore.Internal.Correction.Weighted>
   9.000000E+99

> <Gold.Protein.RotatedTorsions>
[ 6907 6896 6895 6894 ] final   87.41 input  -60.11 | X-H torsion
[ 7974 7965 7964 7962 ] final   32.56 input  175.53 | X-H torsion
[ 8008 7997 7996 7995 ] final   30.75 input   59.86 | X-H torsion
[ 10167 10162 10161 10158 ] final -142.85 input  -65.29 | X-H torsion
[ 10718 10713 10712 10709 ] final  -18.10 input   66.30 | X-H torsion
[ 10763 10752 10751 10750 ] final -122.84 input  -60.55 | X-H torsion
[ 11005 11000 10999 10996 ] final  -65.38 input  -57.11 | X-H torsion

> <Gold.Protein.ActiveResidues>
 VAL166  LYS551  ARG553  GLY616  TRP617  ASP618  TYR619  PRO620  LYS621  CYS622 
 ASP623  PHE694  ASN695  SER759  ASP760  ASP761  ALA762  ILE779  LEU786  VAL792 
 PHE793  MET794  SER795  GLU796  ALA797  LYS798  CYS799  TRP800  GLU811  SER814 

> <Gold.Protein.RotatedAtoms>
  152.5410  134.2281  159.8813 H   0  0  0  0  0  0  0  0  0  0  0  0  # atno 6907 bound_to 6896
  151.2254  133.4472  159.2609 H   0  0  0  0  0  0  0  0  0  0  0  0  # atno 6908 bound_to 6896
  151.0766  134.9845  159.8391 H   0  0  0  0  0  0  0  0  0  0  0  0  # atno 6909 bound_to 6896
  146.1479  139.6511  142.9119 H   0  0  0  0  0  0  0  0  0  0  0  0  # atno 7974 bound_to 7965
  155.0954  140.3224  155.4562 H   0  0  0  0  0  0  0  0  0  0  0  0  # atno 8008 bound_to 7997
  156.2731  140.2070  156.6028 H   0  0  0  0  0  0  0  0  0  0  0  0  # atno 8009 bound_to 7997
  154.6870  140.0520  157.0312 H   0  0  0  0  0  0  0  0  0  0  0  0  # atno 8010 bound_to 7997
  139.8049  143.7782  152.2660 H   0  0  0  0  0  0  0  0  0  0  0  0  # atno 10167 bound_to 10162
  156.5642  130.4733  149.6392 H   0  0  0  0  0  0  0  0  0  0  0  0  # atno 10718 bound_to 10713
  154.8697  135.4119  154.2847 H   0  0  0  0  0  0  0  0  0  0  0  0  # atno 10763 bound_to 10752
  153.3734  135.7008  153.6626 H   0  0  0  0  0  0  0  0  0  0  0  0  # atno 10764 bound_to 10752
  153.5478  135.3635  155.2718 H   0  0  0  0  0  0  0  0  0  0  0  0  # atno 10765 bound_to 10752
  141.1453  133.6681  156.5978 H   0  0  0  0  0  0  0  0  0  0  0  0  # atno 11005 bound_to 11000
  145.4894  141.0438  143.2601 LP  0  0  0  0  0  0  0  0  0  0  0  0  # atno 17320 bound_to 7965
  144.7868  139.6411  143.7131 LP  0  0  0  0  0  0  0  0  0  0  0  0  # atno 17321 bound_to 7965
  139.7914  144.7409  150.9950 LP  0  0  0  0  0  0  0  0  0  0  0  0  # atno 17342 bound_to 10162
  140.7819  143.4439  151.0512 LP  0  0  0  0  0  0  0  0  0  0  0  0  # atno 17343 bound_to 10162
  156.2771  130.7050  151.1864 LP  0  0  0  0  0  0  0  0  0  0  0  0  # atno 17370 bound_to 10713
  157.7362  131.0565  150.5427 LP  0  0  0  0  0  0  0  0  0  0  0  0  # atno 17371 bound_to 10713
  140.3712  134.7604  157.4600 LP  0  0  0  0  0  0  0  0  0  0  0  0  # atno 17394 bound_to 11000
  140.0709  134.5864  155.8643 LP  0  0  0  0  0  0  0  0  0  0  0  0  # atno 17395 bound_to 11000

$$$$
