AV-unprocessed.smi:2526|AV-procd|sdf|9937|dock5
  -GOLD-   2272013583D 1   1.00000     0.00000
 Structure written by MMmdl.
 29 30  0  0  0  0  0  0  0  0  2 V2000
  151.0141  138.4216  154.3938 C   0  0  0  0  0  0  0  0  0  0  0  0
  150.9773  139.5855  155.2531 N   0  0  0  0  0  0  0  0  0  0  0  0
  151.2828  139.6740  156.5937 C   0  0  0  0  0  0  0  0  0  0  0  0
  151.0971  140.9750  156.9748 C   0  0  0  0  0  0  0  0  0  0  0  0
  151.2966  141.6132  158.3288 C   0  0  1  0  0  0  0  0  0  0  0  0
  152.6119  141.2674  158.8743 N   0  0  0  0  0  0  0  0  0  0  0  0
  153.3981  142.0452  159.6402 C   0  0  0  0  0  0  0  0  0  0  0  0
  154.4583  141.6285  160.0993 O   0  0  0  0  0  0  0  0  0  0  0  0
  152.9769  143.4973  159.9138 C   0  0  0  0  0  0  0  0  0  0  0  0
  151.5008  143.7851  159.5932 C   0  0  0  0  0  0  0  0  0  0  0  0
  151.0943  143.1450  158.2607 C   0  0  2  0  0  0  0  0  0  0  0  0
  149.7086  143.4978  157.9013 N   0  3  0  0  0  0  0  0  0  0  0  0
  150.6666  141.6071  155.7724 C   0  0  0  0  0  0  0  0  0  0  0  0
  150.5992  140.7763  154.7462 N   0  0  0  0  0  0  0  0  0  0  0  0
  151.6130  137.6359  154.8553 H   0  0  0  0  0  0  0  0  0  0  0  0
  151.4549  138.6814  153.4305 H   0  0  0  0  0  0  0  0  0  0  0  0
  150.0009  138.0509  154.2358 H   0  0  0  0  0  0  0  0  0  0  0  0
  151.6056  138.8125  157.1602 H   0  0  0  0  0  0  0  0  0  0  0  0
  150.5715  141.2049  159.0348 H   0  0  0  0  0  0  0  0  0  0  0  0
  152.9350  140.3272  158.6949 H   0  0  0  0  0  0  0  0  0  0  0  0
  153.1896  143.7481  160.9537 H   0  0  0  0  0  0  0  0  0  0  0  0
  153.6114  144.1408  159.3035 H   0  0  0  0  0  0  0  0  0  0  0  0
  150.8692  143.4062  160.3983 H   0  0  0  0  0  0  0  0  0  0  0  0
  151.3423  144.8636  159.5582 H   0  0  0  0  0  0  0  0  0  0  0  0
  151.7358  143.5532  157.4777 H   0  0  0  0  0  0  0  0  0  0  0  0
  149.1454  142.6603  157.8616 H   0  0  0  0  0  0  0  0  0  0  0  0
  149.7020  143.9519  156.9990 H   0  0  0  0  0  0  0  0  0  0  0  0
  150.4053  142.6433  155.6156 H   0  0  0  0  0  0  0  0  0  0  0  0
  149.3297  144.1257  158.5959 H   0  0  0  0  0  0  0  0  0  0  0  0
  1  2  1  0  0  0  0
  1 15  1  0  0  0  0
  1 16  1  0  0  0  0
  1 17  1  0  0  0  0
  2 14  1  0  0  0  0
  2  3  1  0  0  0  0
  3  4  2  0  0  0  0
  3 18  1  0  0  0  0
  4  5  1  0  0  0  0
  4 13  1  0  0  0  0
  5 11  1  0  0  0  0
  5  6  1  0  0  0  0
  5 19  1  0  0  0  0
  6  7  1  0  0  0  0
  6 20  1  0  0  0  0
  7  8  2  0  0  0  0
  7  9  1  0  0  0  0
  9 10  1  0  0  0  0
  9 21  1  0  0  0  0
  9 22  1  0  0  0  0
 10 11  1  0  0  0  0
 10 23  1  0  0  0  0
 10 24  1  0  0  0  0
 11 12  1  0  0  0  0
 11 25  1  0  0  0  0
 12 26  1  0  0  0  0
 12 27  1  0  0  0  0
 12 29  1  0  0  0  0
 13 14  2  0  0  0  0
 13 28  1  0  0  0  0
M  CHG  1  12   1
M  END
> <s_m_source_file>
AV-unprocessed.smi

> <i_m_source_file_index>
2526

> <i_lp_mmshare_version>
43012

> <i_f3d_flags>
0

> <s_epik_input>
W0NIM11uMVtjSF1jKFtjSF1uMSlbQ0BASF0yW05IXUMoPU8pW0NIMl1bQ0gyXVtDQEhdMltOSDJd

> <s_epik_cmdline>
J2VwaWtfcHl0aG9uJywgJy1waCcsICc3LjAnLCAnLXRuJywgJzgnLCAnLW1hJywgJzIwMCcsICctbWV0YWxfYmluZGluZycsICctaW1hZScsICc8aW5maWxlLm1hZT4nLCAnLW9tYWUnLCAnPG91dGZpbGUubWFlPic=

> <r_lp_tautomer_probability>
1

> <r_epik_Ionization_Penalty>
0.00878543

> <r_epik_Ionization_Penalty_Charging>
0.00874185

> <r_epik_Ionization_Penalty_Neutral>
4.35793e-05

> <r_epik_State_Penalty>
0.00660351

> <r_epik_Charging_Adjusted_Penalty>
0.0153454

> <i_epik_Tot_Q>
1

> <i_epik_Tot_abs_Q>
1

> <r_epik_Metal_State_Penalty>
0.00660727

> <b_epik_Metal_Only>
0

> <s_lp_Force_Field>
OPLS_2005

> <r_lp_Energy>
10.7235

> <b_lp_Chiralities_Consistent>
1

> <s_lp_Variant>
AV-unprocessed.smi:2526-4

> <Gold.Version>
5.8.1

> <Gold.Id.Protein>
6NUR|6NUR_protein|mol2

> <Gold.PLP.Fitness>
40.7013

> <Gold.PLP.PLP>
-29.3252

> <Gold.PLP.part.hbond>
-2.8245

> <Gold.PLP.part.metal>
0.0000

> <Gold.PLP.part.buried>
-3.7488

> <Gold.PLP.part.nonpolar>
-22.9736

> <Gold.PLP.part.repulsive>
0.2355

> <Gold.PLP.ligand.clash>
0.0000

> <Gold.PLP.ligand.torsion>
0.1188

> <Gold.PLP.Chemscore.Hbond>
2.8640

> <Gold.PLP.Chemscore.CHOScore>
1.0000

> <Gold.PLP.Chemscore.Metal>
0.0000

> <Gold.Chemscore.Hbonds>
donor molecule, donor type, donor heavy atom, donor atom, acceptor molecule, acceptor atom, score
      L1  H    12    27       P1  8028  2.00
      P1  H  7989  7998       L1    14  0.85
      L1  C    13    28       P1  8028  0.90

> <Gold.PLP.Chemscore.Internal.Correction>
0.0215

> <Gold.Rescore>
     Score         DG    S(hbond)    S(metal)    S(lipo)     H(rot)  DE(clash)    DE(int)     intcor
     14.53     -16.01       1.68        0.00      63.88       1.00       0.02       1.45       ----

> <Gold.Chemscore.Fitness>
14.5327

> <Gold.Chemscore.DG>
-16.0085

> <Gold.Chemscore.ZeroCoef>
-5.4800

> <Gold.Chemscore.Hbond>
1.6810

> <Gold.Chemscore.Metal>
0.0000

> <Gold.Chemscore.Lipo>
63.8797

> <Gold.Chemscore.Internal_Hbond>
0.0000

> <Gold.Chemscore.DEClash>
0.0215

> <Gold.Chemscore.DEInternal>
1.4543

> <Gold.Chemscore.Rot>
1.0000

> <Gold.Chemscore.Internal.Correction>
   9.000000E+99

> <Gold.Chemscore.Hbonds>
donor molecule, donor type, donor heavy atom, donor atom, acceptor molecule, acceptor atom, score
      L1  H    12    27       P1  8028  0.82
      P1  H  7989  7998       L1    14  0.21

> <Gold.Chemscore.Hbond.Weighted>
-5.6146

> <Gold.Chemscore.Metal.Weighted>
-0.0000

> <Gold.Chemscore.Lipo.Weighted>
-7.4739

> <Gold.Chemscore.Internal_Hbond.Weighted>
0.0000

> <Gold.Chemscore.DEClash.Weighted>
0.0215

> <Gold.Chemscore.DEInternal.Weighted>
1.4543

> <Gold.Chemscore.Rot.Weighted>
2.5600

> <Gold.Chemscore.Internal.Correction.Weighted>
   9.000000E+99

> <Gold.Protein.RotatedTorsions>
[ 6907 6896 6895 6894 ] final    0.18 input  -60.11 | X-H torsion
[ 7974 7965 7964 7962 ] final  137.92 input  175.53 | X-H torsion
[ 8008 7997 7996 7995 ] final   53.75 input   59.86 | X-H torsion
[ 10167 10162 10161 10158 ] final   49.47 input  -65.29 | X-H torsion
[ 10718 10713 10712 10709 ] final   18.57 input   66.30 | X-H torsion
[ 10763 10752 10751 10750 ] final   -8.60 input  -60.55 | X-H torsion
[ 11005 11000 10999 10996 ] final   45.29 input  -57.11 | X-H torsion

> <Gold.Protein.ActiveResidues>
 VAL166  LYS551  ARG553  GLY616  TRP617  ASP618  TYR619  PRO620  LYS621  CYS622 
 ASP623  PHE694  ASN695  SER759  ASP760  ASP761  ALA762  ILE779  LEU786  VAL792 
 PHE793  MET794  SER795  GLU796  ALA797  LYS798  CYS799  TRP800  GLU811  SER814 

> <Gold.Protein.RotatedAtoms>
  151.5722  135.1062  159.9997 H   0  0  0  0  0  0  0  0  0  0  0  0  # atno 6907 bound_to 6896
  152.4395  133.7418  159.6656 H   0  0  0  0  0  0  0  0  0  0  0  0  # atno 6908 bound_to 6896
  150.8298  133.8041  159.3126 H   0  0  0  0  0  0  0  0  0  0  0  0  # atno 6909 bound_to 6896
  144.9421  139.4918  143.5567 H   0  0  0  0  0  0  0  0  0  0  0  0  # atno 7974 bound_to 7965
  155.4733  140.3466  155.4329 H   0  0  0  0  0  0  0  0  0  0  0  0  # atno 8008 bound_to 7997
  156.1086  140.1455  156.9399 H   0  0  0  0  0  0  0  0  0  0  0  0  # atno 8009 bound_to 7997
  154.4741  140.0891  156.7197 H   0  0  0  0  0  0  0  0  0  0  0  0  # atno 8010 bound_to 7997
  140.2826  144.3139  150.6260 H   0  0  0  0  0  0  0  0  0  0  0  0  # atno 10167 bound_to 10162
  157.0982  130.6456  149.5865 H   0  0  0  0  0  0  0  0  0  0  0  0  # atno 10718 bound_to 10713
  153.4428  135.7014  153.6158 H   0  0  0  0  0  0  0  0  0  0  0  0  # atno 10763 bound_to 10752
  153.4526  135.3754  155.2293 H   0  0  0  0  0  0  0  0  0  0  0  0  # atno 10764 bound_to 10752
  154.8727  135.4000  154.3828 H   0  0  0  0  0  0  0  0  0  0  0  0  # atno 10765 bound_to 10752
  140.1473  134.4506  155.8406 H   0  0  0  0  0  0  0  0  0  0  0  0  # atno 11005 bound_to 11000
  146.3290  139.8448  142.8884 LP  0  0  0  0  0  0  0  0  0  0  0  0  # atno 17320 bound_to 7965
  145.2974  141.0185  143.3628 LP  0  0  0  0  0  0  0  0  0  0  0  0  # atno 17321 bound_to 7965
  140.5799  143.2173  151.7447 LP  0  0  0  0  0  0  0  0  0  0  0  0  # atno 17342 bound_to 10162
  139.4958  144.4095  152.0096 LP  0  0  0  0  0  0  0  0  0  0  0  0  # atno 17343 bound_to 10162
  155.9880  130.4922  150.7152 LP  0  0  0  0  0  0  0  0  0  0  0  0  # atno 17370 bound_to 10713
  157.4663  131.0888  151.0691 LP  0  0  0  0  0  0  0  0  0  0  0  0  # atno 17371 bound_to 10713
  141.2194  133.6858  156.7358 LP  0  0  0  0  0  0  0  0  0  0  0  0  # atno 17394 bound_to 11000
  140.2647  134.8439  157.3792 LP  0  0  0  0  0  0  0  0  0  0  0  0  # atno 17395 bound_to 11000

$$$$
