AV-unprocessed.smi:813|AV-procd|sdf|3819|dock9
  -GOLD-   22720 1263D 1   1.00000     0.00000
 Structure written by MMmdl.
 35 36  0  0  0  0  0  0  0  0  2 V2000
  148.4986  141.8021  156.9887 C   0  0  0  0  0  0  0  0  0  0  0  0
  150.0153  141.9205  156.7644 C   0  0  2  0  0  0  0  0  0  0  0  0
  150.5580  140.5710  156.6074 N   0  0  0  0  0  0  0  0  0  0  0  0
  151.3105  140.1381  155.5842 C   0  0  0  0  0  0  0  0  0  0  0  0
  151.5958  140.9066  154.6625 O   0  0  0  0  0  0  0  0  0  0  0  0
  151.6834  138.8426  155.6915 N   0  5  0  0  0  0  0  0  0  0  0  0
  152.4999  138.4596  156.6868 C   0  0  0  0  0  0  0  0  0  0  0  0
  153.0464  137.2340  156.7362 N   0  0  0  0  0  0  0  0  0  0  0  0
  153.8625  137.0443  157.8433 N   0  0  0  0  0  0  0  0  0  0  0  0
  153.9167  138.1400  158.6001 C   0  0  0  0  0  0  0  0  0  0  0  0
  152.9782  139.5033  158.0284 S   0  0  0  0  0  0  0  0  0  0  0  0
  150.6309  142.6137  157.9905 C   0  0  0  0  0  0  0  0  0  0  0  0
  150.0156  142.6696  159.0567 O   0  0  0  0  0  0  0  0  0  0  0  0
  151.8478  143.1508  157.8154 N   0  0  0  0  0  0  0  0  0  0  0  0
  152.6182  143.8416  158.8457 C   0  0  0  0  0  0  0  0  0  0  0  0
  152.7518  142.9689  160.1086 C   0  0  0  0  0  0  0  0  0  0  0  0
  152.3783  143.8695  161.2877 C   0  0  0  0  0  0  0  0  0  0  0  0
  151.3841  144.8657  160.7000 C   0  0  0  0  0  0  0  0  0  0  0  0
  151.9181  145.1401  159.2941 C   0  0  0  0  0  0  0  0  0  0  0  0
  148.0382  142.7834  157.1101 H   0  0  0  0  0  0  0  0  0  0  0  0
  148.2629  141.2109  157.8751 H   0  0  0  0  0  0  0  0  0  0  0  0
  148.0169  141.3219  156.1363 H   0  0  0  0  0  0  0  0  0  0  0  0
  150.2052  142.5046  155.8617 H   0  0  0  0  0  0  0  0  0  0  0  0
  150.3563  139.9113  157.3440 H   0  0  0  0  0  0  0  0  0  0  0  0
  154.5148  138.1463  159.4988 H   0  0  0  0  0  0  0  0  0  0  0  0
  152.2800  143.0548  156.9081 H   0  0  0  0  0  0  0  0  0  0  0  0
  153.6129  144.0783  158.4635 H   0  0  0  0  0  0  0  0  0  0  0  0
  152.0570  142.1279  160.0717 H   0  0  0  0  0  0  0  0  0  0  0  0
  153.7538  142.5524  160.2166 H   0  0  0  0  0  0  0  0  0  0  0  0
  151.9675  143.3111  162.1292 H   0  0  0  0  0  0  0  0  0  0  0  0
  153.2633  144.4008  161.6404 H   0  0  0  0  0  0  0  0  0  0  0  0
  150.3974  144.4051  160.6345 H   0  0  0  0  0  0  0  0  0  0  0  0
  151.2912  145.7723  161.2986 H   0  0  0  0  0  0  0  0  0  0  0  0
  152.6522  145.9455  159.3389 H   0  0  0  0  0  0  0  0  0  0  0  0
  151.1288  145.4665  158.6147 H   0  0  0  0  0  0  0  0  0  0  0  0
  1  2  1  0  0  0  0
  1 20  1  0  0  0  0
  1 21  1  0  0  0  0
  1 22  1  0  0  0  0
  2  3  1  0  0  0  0
  2 12  1  0  0  0  0
  2 23  1  0  0  0  0
  3  4  1  0  0  0  0
  3 24  1  0  0  0  0
  4  5  2  0  0  0  0
  4  6  1  0  0  0  0
  6  7  1  0  0  0  0
  7 11  1  0  0  0  0
  7  8  2  0  0  0  0
  8  9  1  0  0  0  0
  9 10  2  0  0  0  0
 10 11  1  0  0  0  0
 10 25  1  0  0  0  0
 12 13  2  0  0  0  0
 12 14  1  0  0  0  0
 14 15  1  0  0  0  0
 14 26  1  0  0  0  0
 15 19  1  0  0  0  0
 15 16  1  0  0  0  0
 15 27  1  0  0  0  0
 16 17  1  0  0  0  0
 16 28  1  0  0  0  0
 16 29  1  0  0  0  0
 17 18  1  0  0  0  0
 17 30  1  0  0  0  0
 17 31  1  0  0  0  0
 18 19  1  0  0  0  0
 18 32  1  0  0  0  0
 18 33  1  0  0  0  0
 19 34  1  0  0  0  0
 19 35  1  0  0  0  0
M  CHG  1   6  -1
M  END
> <s_m_source_file>
AV-unprocessed.smi

> <i_m_source_file_index>
813

> <i_lp_mmshare_version>
43012

> <i_f3d_flags>
0

> <s_epik_input>
W0NIMl0xW0NIMl1bQ0gyXVtDSDJdW0NIXTFbTkhdQyg9TylbQ0BIXShbQ0gzXSlbTkhdQyg9TylbTkhdYzJubltjSF1zMg==

> <s_epik_cmdline>
J2VwaWtfcHl0aG9uJywgJy1waCcsICc3LjAnLCAnLXRuJywgJzgnLCAnLW1hJywgJzIwMCcsICctbWV0YWxfYmluZGluZycsICctaW1hZScsICc8aW5maWxlLm1hZT4nLCAnLW9tYWUnLCAnPG91dGZpbGUubWFlPic=

> <r_lp_tautomer_probability>
1

> <r_epik_Ionization_Penalty>
3.13682

> <r_epik_Ionization_Penalty_Charging>
3.09647

> <r_epik_Ionization_Penalty_Neutral>
0.0403479

> <r_epik_State_Penalty>
3.09328

> <r_epik_Charging_Adjusted_Penalty>
6.18976

> <i_epik_Tot_Q>
-1

> <i_epik_Tot_abs_Q>
1

> <r_epik_Metal_State_Penalty>
0.461392

> <b_epik_Metal_Only>
1

> <s_lp_Force_Field>
OPLS_2005

> <r_lp_Energy>
16.0843

> <b_lp_Chiralities_Consistent>
1

> <s_lp_Variant>
AV-unprocessed.smi:813-3

> <Gold.Version>
5.8.1

> <Gold.Id.Protein>
6NUR|6NUR_protein|mol2

> <Gold.PLP.Fitness>
39.8280

> <Gold.PLP.PLP>
-36.2831

> <Gold.PLP.part.hbond>
-3.5845

> <Gold.PLP.part.metal>
0.0000

> <Gold.PLP.part.buried>
-4.6177

> <Gold.PLP.part.nonpolar>
-28.0748

> <Gold.PLP.part.repulsive>
0.1787

> <Gold.PLP.ligand.clash>
0.0000

> <Gold.PLP.ligand.torsion>
1.2444

> <Gold.PLP.Chemscore.Hbond>
2.0000

> <Gold.PLP.Chemscore.CHOScore>
0.0000

> <Gold.PLP.Chemscore.Metal>
0.0000

> <Gold.Chemscore.Hbonds>
donor molecule, donor type, donor heavy atom, donor atom, acceptor molecule, acceptor atom, score
      P1  H  7989  7998       L1     5  0.03

> <Gold.PLP.Chemscore.Internal.Correction>
0.0338

> <Gold.Rescore>
     Score         DG    S(hbond)    S(metal)    S(lipo)     H(rot)  DE(clash)    DE(int)     intcor
     12.36     -16.34       1.74        0.00      80.62       1.72       0.16       3.81       ----

> <Gold.Chemscore.Fitness>
12.3628

> <Gold.Chemscore.DG>
-16.3354

> <Gold.Chemscore.ZeroCoef>
-5.4800

> <Gold.Chemscore.Hbond>
1.7438

> <Gold.Chemscore.Metal>
0.0000

> <Gold.Chemscore.Lipo>
80.6233

> <Gold.Chemscore.Internal_Hbond>
0.0000

> <Gold.Chemscore.DEClash>
0.1596

> <Gold.Chemscore.DEInternal>
3.8130

> <Gold.Chemscore.Rot>
1.7194

> <Gold.Chemscore.Internal.Correction>
   9.000000E+99

> <Gold.Chemscore.Hbonds>
donor molecule, donor type, donor heavy atom, donor atom, acceptor molecule, acceptor atom, score
      P1  H  7989  7998       L1     5  0.06

> <Gold.Chemscore.Hbond.Weighted>
-5.8241

> <Gold.Chemscore.Metal.Weighted>
-0.0000

> <Gold.Chemscore.Lipo.Weighted>
-9.4329

> <Gold.Chemscore.Internal_Hbond.Weighted>
0.0000

> <Gold.Chemscore.DEClash.Weighted>
0.1596

> <Gold.Chemscore.DEInternal.Weighted>
3.8130

> <Gold.Chemscore.Rot.Weighted>
4.4016

> <Gold.Chemscore.Internal.Correction.Weighted>
   9.000000E+99

> <Gold.Protein.RotatedTorsions>
[ 6907 6896 6895 6894 ] final  151.54 input  -60.11 | X-H torsion
[ 7974 7965 7964 7962 ] final  132.10 input  175.53 | X-H torsion
[ 8008 7997 7996 7995 ] final  140.52 input   59.86 | X-H torsion
[ 10167 10162 10161 10158 ] final  132.45 input  -65.29 | X-H torsion
[ 10718 10713 10712 10709 ] final -147.21 input   66.30 | X-H torsion
[ 10763 10752 10751 10750 ] final  -78.79 input  -60.55 | X-H torsion
[ 11005 11000 10999 10996 ] final    4.80 input  -57.11 | X-H torsion

> <Gold.Protein.ActiveResidues>
 VAL166  LYS551  ARG553  GLY616  TRP617  ASP618  TYR619  PRO620  LYS621  CYS622 
 ASP623  PHE694  ASN695  SER759  ASP760  ASP761  ALA762  ILE779  LEU786  VAL792 
 PHE793  MET794  SER795  GLU796  ALA797  LYS798  CYS799  TRP800  GLU811  SER814 

> <Gold.Protein.RotatedAtoms>
  152.0992  133.4241  159.4578 H   0  0  0  0  0  0  0  0  0  0  0  0  # atno 6907 bound_to 6896
  150.6864  134.2780  159.4625 H   0  0  0  0  0  0  0  0  0  0  0  0  # atno 6908 bound_to 6896
  152.0639  134.9576  160.0625 H   0  0  0  0  0  0  0  0  0  0  0  0  # atno 6909 bound_to 6896
  145.0004  139.4318  143.5295 H   0  0  0  0  0  0  0  0  0  0  0  0  # atno 7974 bound_to 7965
  156.2978  140.2339  156.4414 H   0  0  0  0  0  0  0  0  0  0  0  0  # atno 8008 bound_to 7997
  154.8182  140.0439  157.1412 H   0  0  0  0  0  0  0  0  0  0  0  0  # atno 8009 bound_to 7997
  154.9345  140.3021  155.5155 H   0  0  0  0  0  0  0  0  0  0  0  0  # atno 8010 bound_to 7997
  139.5339  144.6661  151.4853 H   0  0  0  0  0  0  0  0  0  0  0  0  # atno 10167 bound_to 10162
  156.4046  130.7951  151.2164 H   0  0  0  0  0  0  0  0  0  0  0  0  # atno 10718 bound_to 10713
  154.5303  135.5718  153.6754 H   0  0  0  0  0  0  0  0  0  0  0  0  # atno 10763 bound_to 10752
  152.9938  135.6203  154.2637 H   0  0  0  0  0  0  0  0  0  0  0  0  # atno 10764 bound_to 10752
  154.2563  135.2857  155.2776 H   0  0  0  0  0  0  0  0  0  0  0  0  # atno 10765 bound_to 10752
  140.5779  134.0040  155.8035 H   0  0  0  0  0  0  0  0  0  0  0  0  # atno 11005 bound_to 11000
  146.3450  139.9389  142.8743 LP  0  0  0  0  0  0  0  0  0  0  0  0  # atno 17320 bound_to 7965
  145.2161  140.9916  143.4072 LP  0  0  0  0  0  0  0  0  0  0  0  0  # atno 17321 bound_to 7965
  140.6534  143.8649  150.6809 LP  0  0  0  0  0  0  0  0  0  0  0  0  # atno 17342 bound_to 10162
  140.2021  143.3951  152.1783 LP  0  0  0  0  0  0  0  0  0  0  0  0  # atno 17343 bound_to 10162
  157.7505  131.0276  150.4013 LP  0  0  0  0  0  0  0  0  0  0  0  0  # atno 17370 bound_to 10713
  156.4299  130.3970  149.6767 LP  0  0  0  0  0  0  0  0  0  0  0  0  # atno 17371 bound_to 10713
  141.1015  133.9761  157.3071 LP  0  0  0  0  0  0  0  0  0  0  0  0  # atno 17394 bound_to 11000
  139.9331  135.0198  156.8466 LP  0  0  0  0  0  0  0  0  0  0  0  0  # atno 17395 bound_to 11000

$$$$
