AV-unprocessed.smi:769|AV-procd|sdf|3676|dock8
  -GOLD-   22720 1 93D 1   1.00000     0.00000
 Structure written by MMmdl.
 50 52  0  0  0  0  0  0  0  0  2 V2000
  147.5920  132.6977  153.9217 O   0  0  0  0  0  0  0  0  0  0  0  0
  148.0112  133.7447  153.4289 C   0  0  0  0  0  0  0  0  0  0  0  0
  149.1719  134.3142  153.7837 N   0  0  0  0  0  0  0  0  0  0  0  0
  150.0945  133.7790  154.7777 C   0  0  0  0  0  0  0  0  0  0  0  0
  150.2709  134.7527  155.9597 C   0  0  0  0  0  0  0  0  0  0  0  0
  151.3346  135.7276  155.7237 N   0  0  0  0  0  0  0  0  0  0  0  0
  151.6812  136.4489  156.9556 C   0  0  0  0  0  0  0  0  0  0  0  0
  152.7789  137.4917  156.6702 C   0  0  0  0  0  0  0  0  0  0  0  0
  152.2824  138.4329  155.6625 N   0  0  0  0  0  0  0  0  0  0  0  0
  152.0236  139.7492  155.8530 C   0  0  0  0  0  0  0  0  0  0  0  0
  151.5934  140.4673  154.9492 O   0  0  0  0  0  0  0  0  0  0  0  0
  152.2264  140.3516  157.2577 C   0  0  0  0  0  0  0  0  0  0  0  0
  151.2491  139.8738  158.3518 C   0  0  0  0  0  0  0  0  0  0  0  0
  151.1378  141.3271  158.8205 C   0  0  0  0  0  0  0  0  0  0  0  0
  151.6217  141.7555  157.4323 C   0  0  0  0  0  0  0  0  0  0  0  0
  151.9827  137.7244  154.4154 C   0  0  0  0  0  0  0  0  0  0  0  0
  150.8885  136.6758  154.6967 C   0  0  0  0  0  0  0  0  0  0  0  0
  147.3771  134.4734  152.4935 N   0  0  0  0  0  0  0  0  0  0  0  0
  146.1328  134.2148  151.8556 C   0  0  0  0  0  0  0  0  0  0  0  0
  145.5065  135.2921  151.1898 C   0  0  0  0  0  0  0  0  0  0  0  0
  144.2781  135.0842  150.5302 C   0  0  0  0  0  0  0  0  0  0  0  0
  143.7134  133.8579  150.5317 N   0  3  0  0  0  0  0  0  0  0  0  0
  144.2794  132.7947  151.1419 C   0  0  0  0  0  0  0  0  0  0  0  0
  145.5082  132.9415  151.8175 C   0  0  0  0  0  0  0  0  0  0  0  0
  149.4408  135.1769  153.3333 H   0  0  0  0  0  0  0  0  0  0  0  0
  149.7329  132.8043  155.1062 H   0  0  0  0  0  0  0  0  0  0  0  0
  151.0545  133.6081  154.2900 H   0  0  0  0  0  0  0  0  0  0  0  0
  149.3301  135.2880  156.0976 H   0  0  0  0  0  0  0  0  0  0  0  0
  150.4600  134.2109  156.8879 H   0  0  0  0  0  0  0  0  0  0  0  0
  150.7965  136.9361  157.3692 H   0  0  0  0  0  0  0  0  0  0  0  0
  152.0485  135.7555  157.7106 H   0  0  0  0  0  0  0  0  0  0  0  0
  153.0859  137.9668  157.5997 H   0  0  0  0  0  0  0  0  0  0  0  0
  153.6748  136.9987  156.2895 H   0  0  0  0  0  0  0  0  0  0  0  0
  153.2569  140.2846  157.6110 H   0  0  0  0  0  0  0  0  0  0  0  0
  150.2958  139.4882  157.9871 H   0  0  0  0  0  0  0  0  0  0  0  0
  151.6916  139.2041  159.0894 H   0  0  0  0  0  0  0  0  0  0  0  0
  150.1271  141.6499  159.0716 H   0  0  0  0  0  0  0  0  0  0  0  0
  151.8502  141.5717  159.6099 H   0  0  0  0  0  0  0  0  0  0  0  0
  152.3514  142.5657  157.4478 H   0  0  0  0  0  0  0  0  0  0  0  0
  150.8014  141.9697  156.7443 H   0  0  0  0  0  0  0  0  0  0  0  0
  151.6498  138.3919  153.6197 H   0  0  0  0  0  0  0  0  0  0  0  0
  152.8871  137.2414  154.0421 H   0  0  0  0  0  0  0  0  0  0  0  0
  150.6580  136.1374  153.7767 H   0  0  0  0  0  0  0  0  0  0  0  0
  149.9703  137.1704  155.0180 H   0  0  0  0  0  0  0  0  0  0  0  0
  147.8162  135.3479  152.2456 H   0  0  0  0  0  0  0  0  0  0  0  0
  145.9581  136.2739  151.1871 H   0  0  0  0  0  0  0  0  0  0  0  0
  143.7349  135.8559  150.0043 H   0  0  0  0  0  0  0  0  0  0  0  0
  143.7394  131.8619  151.0668 H   0  0  0  0  0  0  0  0  0  0  0  0
  145.9495  132.0724  152.2804 H   0  0  0  0  0  0  0  0  0  0  0  0
  142.8244  133.7275  150.0478 H   0  0  0  0  0  0  0  0  0  0  0  0
  1  2  2  0  0  0  0
  2  3  1  0  0  0  0
  2 18  1  0  0  0  0
  3  4  1  0  0  0  0
  3 25  1  0  0  0  0
  4  5  1  0  0  0  0
  4 26  1  0  0  0  0
  4 27  1  0  0  0  0
  5  6  1  0  0  0  0
  5 28  1  0  0  0  0
  5 29  1  0  0  0  0
  6 17  1  0  0  0  0
  6  7  1  0  0  0  0
  7  8  1  0  0  0  0
  7 30  1  0  0  0  0
  7 31  1  0  0  0  0
  8  9  1  0  0  0  0
  8 32  1  0  0  0  0
  8 33  1  0  0  0  0
  9 10  1  0  0  0  0
  9 16  1  0  0  0  0
 10 11  2  0  0  0  0
 10 12  1  0  0  0  0
 12 15  1  0  0  0  0
 12 13  1  0  0  0  0
 12 34  1  0  0  0  0
 13 14  1  0  0  0  0
 13 35  1  0  0  0  0
 13 36  1  0  0  0  0
 14 15  1  0  0  0  0
 14 37  1  0  0  0  0
 14 38  1  0  0  0  0
 15 39  1  0  0  0  0
 15 40  1  0  0  0  0
 16 17  1  0  0  0  0
 16 41  1  0  0  0  0
 16 42  1  0  0  0  0
 17 43  1  0  0  0  0
 17 44  1  0  0  0  0
 18 19  1  0  0  0  0
 18 45  1  0  0  0  0
 19 24  1  0  0  0  0
 19 20  2  0  0  0  0
 20 21  1  0  0  0  0
 20 46  1  0  0  0  0
 21 22  2  0  0  0  0
 21 47  1  0  0  0  0
 22 23  1  0  0  0  0
 22 50  1  0  0  0  0
 23 24  2  0  0  0  0
 23 48  1  0  0  0  0
 24 49  1  0  0  0  0
M  CHG  1  22   1
M  END
> <s_m_source_file>
AV-unprocessed.smi

> <i_m_source_file_index>
769

> <i_lp_mmshare_version>
43012

> <i_f3d_flags>
0

> <s_epik_input>
W2NIXTFbY0hdbltjSF1bY0hdYzFbTkhdQyg9TylbTkhdW0NIMl1bQ0gyXU4yW0NIMl1bQ0gyXU4oW0NIMl1bQ0gyXTIpQyg9TylbQ0hdM1tDSDJdW0NIMl1bQ0gyXTM=

> <s_epik_cmdline>
J2VwaWtfcHl0aG9uJywgJy1waCcsICc3LjAnLCAnLXRuJywgJzgnLCAnLW1hJywgJzIwMCcsICctbWV0YWxfYmluZGluZycsICctaW1hZScsICc8aW5maWxlLm1hZT4nLCAnLW9tYWUnLCAnPG91dGZpbGUubWFlPic=

> <r_epik_Ionization_Penalty>
1.23972

> <r_epik_Ionization_Penalty_Charging>
0.991409

> <r_epik_Ionization_Penalty_Neutral>
0.248308

> <r_epik_State_Penalty>
1.32283

> <r_epik_Charging_Adjusted_Penalty>
2.31424

> <i_epik_Tot_Q>
1

> <i_epik_Tot_abs_Q>
1

> <r_epik_Metal_State_Penalty>
1.42026

> <b_epik_Metal_Only>
0

> <s_lp_Force_Field>
OPLS_2005

> <r_lp_Energy>
53.8523

> <b_lp_Chiralities_Consistent>
1

> <s_lp_Variant>
AV-unprocessed.smi:769-3

> <Gold.Version>
5.8.1

> <Gold.Id.Protein>
6NUR|6NUR_protein|mol2

> <Gold.PLP.Fitness>
54.6409

> <Gold.PLP.PLP>
-39.0223

> <Gold.PLP.part.hbond>
-4.5822

> <Gold.PLP.part.metal>
0.0000

> <Gold.PLP.part.buried>
-1.6447

> <Gold.PLP.part.nonpolar>
-30.3920

> <Gold.PLP.part.repulsive>
0.2033

> <Gold.PLP.ligand.clash>
0.0000

> <Gold.PLP.ligand.torsion>
0.5157

> <Gold.PLP.Chemscore.Hbond>
5.3960

> <Gold.PLP.Chemscore.CHOScore>
0.0000

> <Gold.PLP.Chemscore.Metal>
0.0000

> <Gold.Chemscore.Hbonds>
donor molecule, donor type, donor heavy atom, donor atom, acceptor molecule, acceptor atom, score
      L1  H     3    25       P1  7948  0.48
      L1  H    18    45       P1  7948  0.83
      L1  H    22    50       P1 10186  1.98
      P1  H  7989  7998       L1    11  0.80
      P1  H 10752 10764       L1     6  0.70

> <Gold.PLP.Chemscore.Internal.Correction>
0.4620

> <Gold.Rescore>
     Score         DG    S(hbond)    S(metal)    S(lipo)     H(rot)  DE(clash)    DE(int)     intcor
     18.83     -20.57       2.90        0.00      83.78       1.72       0.06       1.68       ----

> <Gold.Chemscore.Fitness>
18.8344

> <Gold.Chemscore.DG>
-20.5689

> <Gold.Chemscore.ZeroCoef>
-5.4800

> <Gold.Chemscore.Hbond>
2.9036

> <Gold.Chemscore.Metal>
0.0000

> <Gold.Chemscore.Lipo>
83.7825

> <Gold.Chemscore.Internal_Hbond>
0.0000

> <Gold.Chemscore.DEClash>
0.0562

> <Gold.Chemscore.DEInternal>
1.6783

> <Gold.Chemscore.Rot>
1.7233

> <Gold.Chemscore.Internal.Correction>
   9.000000E+99

> <Gold.Chemscore.Hbonds>
donor molecule, donor type, donor heavy atom, donor atom, acceptor molecule, acceptor atom, score
      L1  H     3    25       P1  7948  0.03
      L1  H    18    45       P1  7948  0.78
      L1  H    22    50       P1 10186  0.89
      P1  H  7989  7998       L1    11  0.77
      P1  H 10752 10764       L1     6  0.02

> <Gold.Chemscore.Hbond.Weighted>
-9.6980

> <Gold.Chemscore.Metal.Weighted>
-0.0000

> <Gold.Chemscore.Lipo.Weighted>
-9.8026

> <Gold.Chemscore.Internal_Hbond.Weighted>
0.0000

> <Gold.Chemscore.DEClash.Weighted>
0.0562

> <Gold.Chemscore.DEInternal.Weighted>
1.6783

> <Gold.Chemscore.Rot.Weighted>
4.4116

> <Gold.Chemscore.Internal.Correction.Weighted>
   9.000000E+99

> <Gold.Protein.RotatedTorsions>
[ 6907 6896 6895 6894 ] final  134.96 input  -60.11 | X-H torsion
[ 7974 7965 7964 7962 ] final    1.78 input  175.53 | X-H torsion
[ 8008 7997 7996 7995 ] final  160.64 input   59.86 | X-H torsion
[ 10167 10162 10161 10158 ] final  170.53 input  -65.29 | X-H torsion
[ 10718 10713 10712 10709 ] final  -90.05 input   66.30 | X-H torsion
[ 10763 10752 10751 10750 ] final  -37.94 input  -60.55 | X-H torsion
[ 11005 11000 10999 10996 ] final  164.41 input  -57.11 | X-H torsion

> <Gold.Protein.ActiveResidues>
 VAL166  LYS551  ARG553  GLY616  TRP617  ASP618  TYR619  PRO620  LYS621  CYS622 
 ASP623  PHE694  ASN695  SER759  ASP760  ASP761  ALA762  ILE779  LEU786  VAL792 
 PHE793  MET794  SER795  GLU796  ALA797  LYS798  CYS799  TRP800  GLU811  SER814 

> <Gold.Protein.RotatedAtoms>
  152.3056  133.5700  159.5646 H   0  0  0  0  0  0  0  0  0  0  0  0  # atno 6907 bound_to 6896
  150.7298  134.0227  159.3715 H   0  0  0  0  0  0  0  0  0  0  0  0  # atno 6908 bound_to 6896
  151.8124  135.0677  160.0465 H   0  0  0  0  0  0  0  0  0  0  0  0  # atno 6909 bound_to 6896
  146.2441  140.0935  142.8351 H   0  0  0  0  0  0  0  0  0  0  0  0  # atno 7974 bound_to 7965
  156.2159  140.1799  156.7591 H   0  0  0  0  0  0  0  0  0  0  0  0  # atno 8008 bound_to 7997
  154.5790  140.0669  156.9106 H   0  0  0  0  0  0  0  0  0  0  0  0  # atno 8009 bound_to 7997
  155.2536  140.3330  155.4282 H   0  0  0  0  0  0  0  0  0  0  0  0  # atno 8010 bound_to 7997
  139.5021  144.3586  151.9849 H   0  0  0  0  0  0  0  0  0  0  0  0  # atno 10167 bound_to 10162
  155.9986  130.4895  150.5264 H   0  0  0  0  0  0  0  0  0  0  0  0  # atno 10718 bound_to 10713
  153.9047  135.6799  153.4753 H   0  0  0  0  0  0  0  0  0  0  0  0  # atno 10763 bound_to 10752
  153.1110  135.4783  154.9033 H   0  0  0  0  0  0  0  0  0  0  0  0  # atno 10764 bound_to 10752
  154.7557  135.3197  154.8428 H   0  0  0  0  0  0  0  0  0  0  0  0  # atno 10765 bound_to 10752
  140.2456  134.8016  157.3453 H   0  0  0  0  0  0  0  0  0  0  0  0  # atno 11005 bound_to 11000
  145.0629  140.9101  143.4927 LP  0  0  0  0  0  0  0  0  0  0  0  0  # atno 17320 bound_to 7965
  145.1054  139.2793  143.5664 LP  0  0  0  0  0  0  0  0  0  0  0  0  # atno 17321 bound_to 7965
  140.3022  144.3634  150.6057 LP  0  0  0  0  0  0  0  0  0  0  0  0  # atno 17342 bound_to 10162
  140.5864  143.2170  151.7333 LP  0  0  0  0  0  0  0  0  0  0  0  0  # atno 17343 bound_to 10162
  157.3219  131.0683  151.1925 LP  0  0  0  0  0  0  0  0  0  0  0  0  # atno 17370 bound_to 10713
  157.2836  130.6762  149.6078 LP  0  0  0  0  0  0  0  0  0  0  0  0  # atno 17371 bound_to 10713
  140.1609  134.4730  155.7895 LP  0  0  0  0  0  0  0  0  0  0  0  0  # atno 17394 bound_to 11000
  141.2206  133.6901  156.7542 LP  0  0  0  0  0  0  0  0  0  0  0  0  # atno 17395 bound_to 11000

$$$$
