AV-unprocessed.smi:1644|AV-procd|sdf|6591|dock2
  -GOLD-   22720 7283D 1   1.00000     0.00000
 Structure written by MMmdl.
 50 52  0  0  0  0  0  0  0  0  2 V2000
  154.0142  136.3455  164.0159 C   0  0  0  0  0  0  0  0  0  0  0  0
  154.2862  137.0894  162.7042 C   0  0  0  0  0  0  0  0  0  0  0  0
  154.6644  136.1344  161.5535 C   0  0  0  0  0  0  0  0  0  0  0  0
  154.9558  136.8047  160.1911 C   0  0  1  0  0  0  0  0  0  0  0  0
  155.2031  135.8543  159.1247 N   0  0  0  0  0  0  0  0  0  0  0  0
  154.3571  136.0042  158.0967 C   0  0  0  0  0  0  0  0  0  0  0  0
  154.3718  135.3367  157.0639 O   0  0  0  0  0  0  0  0  0  0  0  0
  153.5051  137.0028  158.3907 N   0  0  0  0  0  0  0  0  0  0  0  0
  152.4348  137.4668  157.5031 C   0  0  0  0  0  0  0  0  0  0  0  0
  152.2538  138.9963  157.5838 C   0  0  1  0  0  0  0  0  0  0  0  0
  152.9973  139.6022  156.5445 O   0  0  0  0  0  0  0  0  0  0  0  0
  150.7775  139.4080  157.4226 C   0  0  0  0  0  0  0  0  0  0  0  0
  150.6136  140.8528  157.2217 N   0  0  0  0  0  0  0  0  0  0  0  0
  150.0302  141.5378  156.2013 C   0  0  0  0  0  0  0  0  0  0  0  0
  150.1393  142.8659  156.4849 N   0  3  0  0  0  0  0  0  0  0  0  0
  150.8037  143.0296  157.7028 C   0  0  0  0  0  0  0  0  0  0  0  0
  151.1525  144.1771  158.4051 C   0  0  0  0  0  0  0  0  0  0  0  0
  151.8355  144.0012  159.6302 C   0  0  0  0  0  0  0  0  0  0  0  0
  152.2322  145.2351  160.4228 C   0  0  0  0  0  0  0  0  0  0  0  0
  152.1473  142.7035  160.1132 C   0  0  0  0  0  0  0  0  0  0  0  0
  152.8861  142.5255  161.4287 C   0  0  0  0  0  0  0  0  0  0  0  0
  151.7807  141.5490  159.3858 C   0  0  0  0  0  0  0  0  0  0  0  0
  151.1094  141.7411  158.1809 C   0  0  0  0  0  0  0  0  0  0  0  0
  153.7720  137.5391  159.5892 C   0  0  0  0  0  0  0  0  0  0  0  0
  153.1872  138.4747  160.1357 O   0  0  0  0  0  0  0  0  0  0  0  0
  153.7561  137.0441  164.8122 H   0  0  0  0  0  0  0  0  0  0  0  0
  154.8906  135.7829  164.3391 H   0  0  0  0  0  0  0  0  0  0  0  0
  153.1861  135.6447  163.9069 H   0  0  0  0  0  0  0  0  0  0  0  0
  153.4001  137.6650  162.4355 H   0  0  0  0  0  0  0  0  0  0  0  0
  155.0852  137.8124  162.8708 H   0  0  0  0  0  0  0  0  0  0  0  0
  155.5334  135.5448  161.8493 H   0  0  0  0  0  0  0  0  0  0  0  0
  153.8561  135.4153  161.4156 H   0  0  0  0  0  0  0  0  0  0  0  0
  155.8020  137.4880  160.2725 H   0  0  0  0  0  0  0  0  0  0  0  0
  155.9458  135.1709  159.1587 H   0  0  0  0  0  0  0  0  0  0  0  0
  152.5967  137.1424  156.4731 H   0  0  0  0  0  0  0  0  0  0  0  0
  151.5130  136.9704  157.8115 H   0  0  0  0  0  0  0  0  0  0  0  0
  152.6252  139.3704  158.5385 H   0  0  0  0  0  0  0  0  0  0  0  0
  152.4605  139.6295  155.7667 H   0  0  0  0  0  0  0  0  0  0  0  0
  150.3269  138.8983  156.5696 H   0  0  0  0  0  0  0  0  0  0  0  0
  150.1942  139.1218  158.2988 H   0  0  0  0  0  0  0  0  0  0  0  0
  149.5688  141.1059  155.3249 H   0  0  0  0  0  0  0  0  0  0  0  0
  150.9131  145.1617  158.0306 H   0  0  0  0  0  0  0  0  0  0  0  0
  151.7922  145.2088  161.4201 H   0  0  0  0  0  0  0  0  0  0  0  0
  151.8941  146.1495  159.9344 H   0  0  0  0  0  0  0  0  0  0  0  0
  153.3164  145.2923  160.5236 H   0  0  0  0  0  0  0  0  0  0  0  0
  153.0717  141.4724  161.6425 H   0  0  0  0  0  0  0  0  0  0  0  0
  152.3027  142.9353  162.2537 H   0  0  0  0  0  0  0  0  0  0  0  0
  153.8503  143.0335  161.3992 H   0  0  0  0  0  0  0  0  0  0  0  0
  152.0170  140.5604  159.7519 H   0  0  0  0  0  0  0  0  0  0  0  0
  149.7870  143.6034  155.8881 H   0  0  0  0  0  0  0  0  0  0  0  0
  1  2  1  0  0  0  0
  1 26  1  0  0  0  0
  1 27  1  0  0  0  0
  1 28  1  0  0  0  0
  2  3  1  0  0  0  0
  2 29  1  0  0  0  0
  2 30  1  0  0  0  0
  3  4  1  0  0  0  0
  3 31  1  0  0  0  0
  3 32  1  0  0  0  0
  4 24  1  0  0  0  0
  4  5  1  0  0  0  0
  4 33  1  0  0  0  0
  5  6  1  0  0  0  0
  5 34  1  0  0  0  0
  6  7  2  0  0  0  0
  6  8  1  0  0  0  0
  8  9  1  0  0  0  0
  8 24  1  0  0  0  0
  9 10  1  0  0  0  0
  9 35  1  0  0  0  0
  9 36  1  0  0  0  0
 10 11  1  0  0  0  0
 10 12  1  0  0  0  0
 10 37  1  0  0  0  0
 11 38  1  0  0  0  0
 12 13  1  0  0  0  0
 12 39  1  0  0  0  0
 12 40  1  0  0  0  0
 13 23  1  0  0  0  0
 13 14  1  0  0  0  0
 14 15  2  0  0  0  0
 14 41  1  0  0  0  0
 15 16  1  0  0  0  0
 15 50  1  0  0  0  0
 16 23  2  0  0  0  0
 16 17  1  0  0  0  0
 17 18  2  0  0  0  0
 17 42  1  0  0  0  0
 18 19  1  0  0  0  0
 18 20  1  0  0  0  0
 19 43  1  0  0  0  0
 19 44  1  0  0  0  0
 19 45  1  0  0  0  0
 20 21  1  0  0  0  0
 20 22  2  0  0  0  0
 21 46  1  0  0  0  0
 21 47  1  0  0  0  0
 21 48  1  0  0  0  0
 22 23  1  0  0  0  0
 22 49  1  0  0  0  0
 24 25  2  0  0  0  0
M  CHG  1  15   1
M  END
> <s_m_source_file>
AV-unprocessed.smi

> <i_m_source_file_index>
1644

> <i_lp_mmshare_version>
43012

> <i_f3d_flags>
0

> <s_epik_input>
W0NIM11bQ0gyXVtDSDJdW0NAQEhdMVtOSF1DKD1PKU4oQzE9TylbQ0gyXVtDQEhdKFtPSF0pW0NIMl1uKFtjSF1uMiljKGMyMylbY0hdYyhbQ0gzXSljKFtjSF0zKVtDSDNd

> <s_epik_cmdline>
J2VwaWtfcHl0aG9uJywgJy1waCcsICc3LjAnLCAnLXRuJywgJzgnLCAnLW1hJywgJzIwMCcsICctbWV0YWxfYmluZGluZycsICctaW1hZScsICc8aW5maWxlLm1hZT4nLCAnLW9tYWUnLCAnPG91dGZpbGUubWFlPic=

> <r_lp_tautomer_probability>
1

> <r_epik_Ionization_Penalty>
1.06742

> <r_epik_Ionization_Penalty_Charging>
1.06736

> <r_epik_Ionization_Penalty_Neutral>
5.56132e-05

> <r_epik_State_Penalty>
1.12163

> <r_epik_Charging_Adjusted_Penalty>
2.18899

> <i_epik_Tot_Q>
1

> <i_epik_Tot_abs_Q>
1

> <r_epik_Metal_State_Penalty>
1.26636

> <b_epik_Metal_Only>
0

> <s_lp_Force_Field>
OPLS_2005

> <r_lp_Energy>
28.3475

> <b_lp_Chiralities_Consistent>
1

> <s_lp_Variant>
AV-unprocessed.smi:1644-8

> <Gold.Version>
5.8.1

> <Gold.Id.Protein>
6NUR|6NUR_protein|mol2

> <Gold.PLP.Fitness>
55.9637

> <Gold.PLP.PLP>
-45.6575

> <Gold.PLP.part.hbond>
-2.9698

> <Gold.PLP.part.metal>
0.0000

> <Gold.PLP.part.buried>
-7.4750

> <Gold.PLP.part.nonpolar>
-37.1285

> <Gold.PLP.part.repulsive>
0.1222

> <Gold.PLP.ligand.clash>
0.0000

> <Gold.PLP.ligand.torsion>
0.8858

> <Gold.PLP.Chemscore.Hbond>
3.9753

> <Gold.PLP.Chemscore.CHOScore>
0.0000

> <Gold.PLP.Chemscore.Metal>
0.0000

> <Gold.Chemscore.Hbonds>
donor molecule, donor type, donor heavy atom, donor atom, acceptor molecule, acceptor atom, score
      L1  H    15    50       P1  8028  1.59
      P1  H  7997  8010       L1    11  0.80
      P1  H 10752 10765       L1     7  1.00

> <Gold.PLP.Chemscore.Internal.Correction>
0.1521

> <Gold.Rescore>
     Score         DG    S(hbond)    S(metal)    S(lipo)     H(rot)  DE(clash)    DE(int)     intcor
     20.34     -21.06       2.85        0.00     113.03       2.80       0.18       0.54       ----

> <Gold.Chemscore.Fitness>
20.3389

> <Gold.Chemscore.DG>
-21.0642

> <Gold.Chemscore.ZeroCoef>
-5.4800

> <Gold.Chemscore.Hbond>
2.8495

> <Gold.Chemscore.Metal>
0.0000

> <Gold.Chemscore.Lipo>
113.0330

> <Gold.Chemscore.Internal_Hbond>
0.0000

> <Gold.Chemscore.DEClash>
0.1820

> <Gold.Chemscore.DEInternal>
0.5433

> <Gold.Chemscore.Rot>
2.7961

> <Gold.Chemscore.Internal.Correction>
   9.000000E+99

> <Gold.Chemscore.Hbonds>
donor molecule, donor type, donor heavy atom, donor atom, acceptor molecule, acceptor atom, score
      L1  H    15    50       P1  8028  0.75
      P1  H  7997  8010       L1    11  0.78
      P1  H 10752 10765       L1     7  1.00

> <Gold.Chemscore.Hbond.Weighted>
-9.5174

> <Gold.Chemscore.Metal.Weighted>
-0.0000

> <Gold.Chemscore.Lipo.Weighted>
-13.2249

> <Gold.Chemscore.Internal_Hbond.Weighted>
0.0000

> <Gold.Chemscore.DEClash.Weighted>
0.1820

> <Gold.Chemscore.DEInternal.Weighted>
0.5433

> <Gold.Chemscore.Rot.Weighted>
7.1580

> <Gold.Chemscore.Internal.Correction.Weighted>
   9.000000E+99

> <Gold.Protein.RotatedTorsions>
[ 6907 6896 6895 6894 ] final  -50.05 input  -60.11 | X-H torsion
[ 7974 7965 7964 7962 ] final -117.62 input  175.53 | X-H torsion
[ 8008 7997 7996 7995 ] final   62.00 input   59.86 | X-H torsion
[ 10167 10162 10161 10158 ] final  102.64 input  -65.29 | X-H torsion
[ 10718 10713 10712 10709 ] final   72.48 input   66.30 | X-H torsion
[ 10763 10752 10751 10750 ] final  -91.14 input  -60.55 | X-H torsion
[ 11005 11000 10999 10996 ] final  -83.84 input  -57.11 | X-H torsion

> <Gold.Protein.ActiveResidues>
 VAL166  LYS551  ARG553  GLY616  TRP617  ASP618  TYR619  PRO620  LYS621  CYS622 
 ASP623  PHE694  ASN695  SER759  ASP760  ASP761  ALA762  ILE779  LEU786  VAL792 
 PHE793  MET794  SER795  GLU796  ALA797  LYS798  CYS799  TRP800  GLU811  SER814 

> <Gold.Protein.RotatedAtoms>
  150.8745  134.8125  159.7179 H   0  0  0  0  0  0  0  0  0  0  0  0  # atno 6907 bound_to 6896
  152.4737  134.4893  159.9700 H   0  0  0  0  0  0  0  0  0  0  0  0  # atno 6908 bound_to 6896
  151.4977  133.3472  159.2899 H   0  0  0  0  0  0  0  0  0  0  0  0  # atno 6909 bound_to 6896
  145.0832  140.8440  143.4027 H   0  0  0  0  0  0  0  0  0  0  0  0  # atno 7974 bound_to 7965
  155.6073  140.3494  155.4612 H   0  0  0  0  0  0  0  0  0  0  0  0  # atno 8008 bound_to 7997
  156.0181  140.1248  157.0410 H   0  0  0  0  0  0  0  0  0  0  0  0  # atno 8009 bound_to 7997
  154.4305  140.1068  156.5911 H   0  0  0  0  0  0  0  0  0  0  0  0  # atno 8010 bound_to 7997
  139.7332  144.7030  151.0689 H   0  0  0  0  0  0  0  0  0  0  0  0  # atno 10167 bound_to 10162
  157.6503  130.9580  150.0934 H   0  0  0  0  0  0  0  0  0  0  0  0  # atno 10718 bound_to 10713
  154.6730  135.5278  153.8163 H   0  0  0  0  0  0  0  0  0  0  0  0  # atno 10763 bound_to 10752
  153.0514  135.6534  154.0694 H   0  0  0  0  0  0  0  0  0  0  0  0  # atno 10764 bound_to 10752
  154.0591  135.2963  155.3308 H   0  0  0  0  0  0  0  0  0  0  0  0  # atno 10765 bound_to 10752
  141.1655  133.7315  156.8779 H   0  0  0  0  0  0  0  0  0  0  0  0  # atno 11005 bound_to 11000
  145.1154  139.2729  143.5616 LP  0  0  0  0  0  0  0  0  0  0  0  0  # atno 17320 bound_to 7965
  146.3531  140.0762  142.8620 LP  0  0  0  0  0  0  0  0  0  0  0  0  # atno 17321 bound_to 7965
  140.7774  143.5017  150.9763 LP  0  0  0  0  0  0  0  0  0  0  0  0  # atno 17342 bound_to 10162
  139.8705  143.7199  152.3166 LP  0  0  0  0  0  0  0  0  0  0  0  0  # atno 17343 bound_to 10162
  156.1877  130.3653  149.8951 LP  0  0  0  0  0  0  0  0  0  0  0  0  # atno 17370 bound_to 10713
  156.6887  130.8887  151.3585 LP  0  0  0  0  0  0  0  0  0  0  0  0  # atno 17371 bound_to 10713
  140.1735  134.9083  157.2862 LP  0  0  0  0  0  0  0  0  0  0  0  0  # atno 17394 bound_to 11000
  140.2475  134.3722  155.7455 LP  0  0  0  0  0  0  0  0  0  0  0  0  # atno 17395 bound_to 11000

$$$$
