AV-unprocessed.smi:3314|AV-procd|sdf|12736|dock9
  -GOLD-   2272019 83D 1   1.00000     0.00000
 Structure written by MMmdl.
 37 38  0  0  0  0  0  0  0  0  1 V2000
  151.6028  145.6123  159.9890 C   0  0  0  0  0  0  0  0  0  0  0  0
  151.7021  144.2183  159.4057 C   0  0  0  0  0  0  0  0  0  0  0  0
  152.5951  143.2707  159.9417 C   0  0  0  0  0  0  0  0  0  0  0  0
  152.6414  141.9925  159.3509 C   0  0  0  0  0  0  0  0  0  0  0  0
  153.5755  140.9233  159.8771 C   0  0  0  0  0  0  0  0  0  0  0  0
  151.8728  141.6389  158.2988 N   0  0  0  0  0  0  0  0  0  0  0  0
  151.0094  142.5436  157.7744 C   0  0  0  0  0  0  0  0  0  0  0  0
  150.1603  142.2737  156.6690 N   0  0  0  0  0  0  0  0  0  0  0  0
  150.3451  141.3925  155.6681 C   0  0  0  0  0  0  0  0  0  0  0  0
  151.3244  140.6528  155.5613 O   0  0  0  0  0  0  0  0  0  0  0  0
  149.2303  141.3630  154.6157 C   0  0  1  0  0  0  0  0  0  0  0  0
  148.5971  139.9655  154.4297 C   0  0  0  0  0  0  0  0  0  0  0  0
  147.5044  139.9964  153.4663 N   0  0  0  0  0  0  0  0  0  0  0  0
  146.9126  138.6799  153.2836 C   0  0  0  0  0  0  0  0  0  0  0  0
  146.5139  140.9793  153.8852 C   0  0  0  0  0  0  0  0  0  0  0  0
  147.1413  142.3703  154.0820 C   0  0  0  0  0  0  0  0  0  0  0  0
  148.2177  142.2866  155.0119 O   0  0  0  0  0  0  0  0  0  0  0  0
  150.8988  143.8468  158.3090 C   0  0  0  0  0  0  0  0  0  0  0  0
  152.2699  145.7344  160.8429 H   0  0  0  0  0  0  0  0  0  0  0  0
  150.5836  145.8113  160.3211 H   0  0  0  0  0  0  0  0  0  0  0  0
  151.8709  146.3552  159.2375 H   0  0  0  0  0  0  0  0  0  0  0  0
  153.2271  143.5162  160.7829 H   0  0  0  0  0  0  0  0  0  0  0  0
  154.2005  141.3061  160.6845 H   0  0  0  0  0  0  0  0  0  0  0  0
  154.2299  140.5648  159.0819 H   0  0  0  0  0  0  0  0  0  0  0  0
  153.0040  140.0773  160.2598 H   0  0  0  0  0  0  0  0  0  0  0  0
  149.3124  142.8199  156.6283 H   0  0  0  0  0  0  0  0  0  0  0  0
  149.6574  141.6921  153.6662 H   0  0  0  0  0  0  0  0  0  0  0  0
  149.3594  139.2602  154.0958 H   0  0  0  0  0  0  0  0  0  0  0  0
  148.2279  139.5963  155.3885 H   0  0  0  0  0  0  0  0  0  0  0  0
  146.1194  138.7139  152.5360 H   0  0  0  0  0  0  0  0  0  0  0  0
  146.4865  138.3056  154.2154 H   0  0  0  0  0  0  0  0  0  0  0  0
  147.6608  137.9647  152.9407 H   0  0  0  0  0  0  0  0  0  0  0  0
  145.7168  141.0417  153.1433 H   0  0  0  0  0  0  0  0  0  0  0  0
  146.0474  140.6601  154.8184 H   0  0  0  0  0  0  0  0  0  0  0  0
  147.5039  142.7676  153.1329 H   0  0  0  0  0  0  0  0  0  0  0  0
  146.3977  143.0718  154.4603 H   0  0  0  0  0  0  0  0  0  0  0  0
  150.2069  144.5584  157.8820 H   0  0  0  0  0  0  0  0  0  0  0  0
  1  2  1  0  0  0  0
  1 19  1  0  0  0  0
  1 20  1  0  0  0  0
  1 21  1  0  0  0  0
  2 18  1  0  0  0  0
  2  3  2  0  0  0  0
  3  4  1  0  0  0  0
  3 22  1  0  0  0  0
  4  5  1  0  0  0  0
  4  6  2  0  0  0  0
  5 23  1  0  0  0  0
  5 24  1  0  0  0  0
  5 25  1  0  0  0  0
  6  7  1  0  0  0  0
  7  8  1  0  0  0  0
  7 18  2  0  0  0  0
  8  9  1  0  0  0  0
  8 26  1  0  0  0  0
  9 10  2  0  0  0  0
  9 11  1  0  0  0  0
 11 17  1  0  0  0  0
 11 12  1  0  0  0  0
 11 27  1  0  0  0  0
 12 13  1  0  0  0  0
 12 28  1  0  0  0  0
 12 29  1  0  0  0  0
 13 14  1  0  0  0  0
 13 15  1  0  0  0  0
 14 30  1  0  0  0  0
 14 31  1  0  0  0  0
 14 32  1  0  0  0  0
 15 16  1  0  0  0  0
 15 33  1  0  0  0  0
 15 34  1  0  0  0  0
 16 17  1  0  0  0  0
 16 35  1  0  0  0  0
 16 36  1  0  0  0  0
 18 37  1  0  0  0  0
M  END
> <s_m_source_file>
AV-unprocessed.smi

> <i_m_source_file_index>
3314

> <i_lp_mmshare_version>
43012

> <i_f3d_flags>
0

> <s_epik_input>
W0NIM11jMVtjSF1jKFtDSDNdKW5jKFtjSF0xKVtOSF1DKD1PKVtDQEBIXTJbQ0gyXU4oW0NIM10pW0NIMl1bQ0gyXU8y

> <s_epik_cmdline>
J2VwaWtfcHl0aG9uJywgJy1waCcsICc3LjAnLCAnLXRuJywgJzgnLCAnLW1hJywgJzIwMCcsICctbWV0YWxfYmluZGluZycsICctaW1hZScsICc8aW5maWxlLm1hZT4nLCAnLW9tYWUnLCAnPG91dGZpbGUubWFlPic=

> <r_epik_Ionization_Penalty>
0.55509

> <r_epik_Ionization_Penalty_Charging>
0

> <r_epik_Ionization_Penalty_Neutral>
0.55509

> <r_epik_State_Penalty>
0.632277

> <r_epik_Charging_Adjusted_Penalty>
0.632277

> <i_epik_Tot_Q>
0

> <i_epik_Tot_abs_Q>
0

> <r_epik_Metal_State_Penalty>
0.606221

> <b_epik_Metal_Only>
0

> <s_lp_Force_Field>
OPLS_2005

> <r_lp_Energy>
21.1919

> <b_lp_Chiralities_Consistent>
1

> <s_lp_Variant>
AV-unprocessed.smi:3314-6

> <Gold.Version>
5.8.1

> <Gold.Id.Protein>
6NUR|6NUR_protein|mol2

> <Gold.PLP.Fitness>
41.5543

> <Gold.PLP.PLP>
-38.4859

> <Gold.PLP.part.hbond>
-2.0000

> <Gold.PLP.part.metal>
0.0000

> <Gold.PLP.part.buried>
-5.3501

> <Gold.PLP.part.nonpolar>
-35.4251

> <Gold.PLP.part.repulsive>
3.8842

> <Gold.PLP.ligand.clash>
0.0000

> <Gold.PLP.ligand.torsion>
0.1672

> <Gold.PLP.Chemscore.Hbond>
1.1336

> <Gold.PLP.Chemscore.CHOScore>
0.0000

> <Gold.PLP.Chemscore.Metal>
0.0000

> <Gold.Chemscore.Hbonds>
donor molecule, donor type, donor heavy atom, donor atom, acceptor molecule, acceptor atom, score
      L1  H     8    26       P1  8028  0.41
      P1  H  7989  7998       L1    10  0.61

> <Gold.PLP.Chemscore.Internal.Correction>
0.0020

> <Gold.Rescore>
     Score         DG    S(hbond)    S(metal)    S(lipo)     H(rot)  DE(clash)    DE(int)     intcor
     14.39     -17.60       0.81        0.00     102.28       1.00       1.96       1.25       ----

> <Gold.Chemscore.Fitness>
14.3887

> <Gold.Chemscore.DG>
-17.6001

> <Gold.Chemscore.ZeroCoef>
-5.4800

> <Gold.Chemscore.Hbond>
0.8123

> <Gold.Chemscore.Metal>
0.0000

> <Gold.Chemscore.Lipo>
102.2808

> <Gold.Chemscore.Internal_Hbond>
0.0000

> <Gold.Chemscore.DEClash>
1.9574

> <Gold.Chemscore.DEInternal>
1.2539

> <Gold.Chemscore.Rot>
1.0000

> <Gold.Chemscore.Internal.Correction>
   9.000000E+99

> <Gold.Chemscore.Hbonds>
donor molecule, donor type, donor heavy atom, donor atom, acceptor molecule, acceptor atom, score
      L1  H     8    26       P1  8028  0.40
      P1  H  7989  7998       L1    10  0.12

> <Gold.Chemscore.Hbond.Weighted>
-2.7132

> <Gold.Chemscore.Metal.Weighted>
-0.0000

> <Gold.Chemscore.Lipo.Weighted>
-11.9669

> <Gold.Chemscore.Internal_Hbond.Weighted>
0.0000

> <Gold.Chemscore.DEClash.Weighted>
1.9574

> <Gold.Chemscore.DEInternal.Weighted>
1.2539

> <Gold.Chemscore.Rot.Weighted>
2.5600

> <Gold.Chemscore.Internal.Correction.Weighted>
   9.000000E+99

> <Gold.Protein.RotatedTorsions>
[ 6907 6896 6895 6894 ] final   -4.76 input  -60.11 | X-H torsion
[ 7974 7965 7964 7962 ] final  153.56 input  175.53 | X-H torsion
[ 8008 7997 7996 7995 ] final  175.94 input   59.86 | X-H torsion
[ 10167 10162 10161 10158 ] final  -93.14 input  -65.29 | X-H torsion
[ 10718 10713 10712 10709 ] final   51.74 input   66.30 | X-H torsion
[ 10763 10752 10751 10750 ] final  -53.74 input  -60.55 | X-H torsion
[ 11005 11000 10999 10996 ] final   85.86 input  -57.11 | X-H torsion

> <Gold.Protein.ActiveResidues>
 VAL166  LYS551  ARG553  GLY616  TRP617  ASP618  TYR619  PRO620  LYS621  CYS622 
 ASP623  PHE694  ASN695  SER759  ASP760  ASP761  ALA762  ILE779  LEU786  VAL792 
 PHE793  MET794  SER795  GLU796  ALA797  LYS798  CYS799  TRP800  GLU811  SER814 

> <Gold.Protein.RotatedAtoms>
  151.4924  135.1058  159.9806 H   0  0  0  0  0  0  0  0  0  0  0  0  # atno 6907 bound_to 6896
  152.4735  133.8081  159.6999 H   0  0  0  0  0  0  0  0  0  0  0  0  # atno 6908 bound_to 6896
  150.8759  133.7378  159.2973 H   0  0  0  0  0  0  0  0  0  0  0  0  # atno 6909 bound_to 6896
  144.8146  139.6816  143.6126 H   0  0  0  0  0  0  0  0  0  0  0  0  # atno 7974 bound_to 7965
  156.0817  140.1396  156.9704 H   0  0  0  0  0  0  0  0  0  0  0  0  # atno 8008 bound_to 7997
  154.4589  140.0951  156.6886 H   0  0  0  0  0  0  0  0  0  0  0  0  # atno 8009 bound_to 7997
  155.5065  140.3452  155.4382 H   0  0  0  0  0  0  0  0  0  0  0  0  # atno 8010 bound_to 7997
  140.3277  143.3012  151.9976 H   0  0  0  0  0  0  0  0  0  0  0  0  # atno 10167 bound_to 10162
  157.5010  130.8437  149.8316 H   0  0  0  0  0  0  0  0  0  0  0  0  # atno 10718 bound_to 10713
  154.1637  135.6470  153.4992 H   0  0  0  0  0  0  0  0  0  0  0  0  # atno 10763 bound_to 10752
  153.0103  135.5367  154.6685 H   0  0  0  0  0  0  0  0  0  0  0  0  # atno 10764 bound_to 10752
  154.6005  135.2943  155.0512 H   0  0  0  0  0  0  0  0  0  0  0  0  # atno 10765 bound_to 10752
  139.8960  134.8316  156.2641 H   0  0  0  0  0  0  0  0  0  0  0  0  # atno 11005 bound_to 11000
  146.2449  139.6076  142.9467 LP  0  0  0  0  0  0  0  0  0  0  0  0  # atno 17320 bound_to 7965
  145.5243  141.0430  143.2418 LP  0  0  0  0  0  0  0  0  0  0  0  0  # atno 17321 bound_to 7965
  139.4862  144.6260  151.7163 LP  0  0  0  0  0  0  0  0  0  0  0  0  # atno 17342 bound_to 10162
  140.5426  144.0555  150.6094 LP  0  0  0  0  0  0  0  0  0  0  0  0  # atno 17343 bound_to 10162
  156.0229  130.3789  150.1909 LP  0  0  0  0  0  0  0  0  0  0  0  0  # atno 17370 bound_to 10713
  157.0098  130.9947  151.3369 LP  0  0  0  0  0  0  0  0  0  0  0  0  # atno 17371 bound_to 10713
  141.0144  133.7077  156.1164 LP  0  0  0  0  0  0  0  0  0  0  0  0  # atno 17394 bound_to 11000
  140.7323  134.4241  157.5564 LP  0  0  0  0  0  0  0  0  0  0  0  0  # atno 17395 bound_to 11000

$$$$
