AV-unprocessed.smi:301|AV-procd|sdf|2271|dock5
  -GOLD-   2262022163D 1   1.00000     0.00000
 Structure written by MMmdl.
 32 33  0  0  0  0  0  0  0  0  1 V2000
  153.5080  142.3572  160.5109 C   0  0  0  0  0  0  0  0  0  0  0  0
  152.6963  142.7463  159.3232 C   0  0  0  0  0  0  0  0  0  0  0  0
  151.8882  141.9045  158.6741 N   0  0  0  0  0  0  0  0  0  0  0  0
  151.2435  142.5045  157.5871 C   0  0  0  0  0  0  0  0  0  0  0  0
  150.2973  141.7015  156.7398 C   0  0  0  0  0  0  0  0  0  0  0  0
  148.9313  141.5481  157.4192 C   0  0  0  0  0  0  0  0  0  0  0  0
  148.6331  140.5072  158.0068 O   0  0  0  0  0  0  0  0  0  0  0  0
  148.1068  142.6036  157.3356 N   0  0  0  0  0  0  0  0  0  0  0  0
  146.7621  142.6625  157.8971 C   0  0  0  0  0  0  0  0  0  0  0  0
  146.7002  143.6001  159.1140 C   0  0  1  0  0  0  0  0  0  0  0  0
  145.3646  144.3272  159.2613 C   0  0  0  0  0  0  0  0  0  0  0  0
  145.3352  144.6123  160.7450 C   0  0  0  0  0  0  0  0  0  0  0  0
  145.9461  143.3363  161.3155 C   0  0  0  0  0  0  0  0  0  0  0  0
  146.8542  142.8611  160.3249 O   0  0  0  0  0  0  0  0  0  0  0  0
  151.5717  143.8289  157.4296 C   0  0  0  0  0  0  0  0  0  0  0  0
  152.7132  144.3639  158.6322 S   0  0  0  0  0  0  0  0  0  0  0  0
  153.1125  141.4474  160.9637 H   0  0  0  0  0  0  0  0  0  0  0  0
  153.4883  143.1534  161.2553 H   0  0  0  0  0  0  0  0  0  0  0  0
  154.5414  142.1800  160.2128 H   0  0  0  0  0  0  0  0  0  0  0  0
  150.1476  142.1757  155.7691 H   0  0  0  0  0  0  0  0  0  0  0  0
  150.7210  140.7163  156.5389 H   0  0  0  0  0  0  0  0  0  0  0  0
  148.4272  143.4199  156.8350 H   0  0  0  0  0  0  0  0  0  0  0  0
  146.0542  142.9877  157.1329 H   0  0  0  0  0  0  0  0  0  0  0  0
  146.4642  141.6540  158.1850 H   0  0  0  0  0  0  0  0  0  0  0  0
  147.4999  144.3414  159.0689 H   0  0  0  0  0  0  0  0  0  0  0  0
  145.3010  145.2281  158.6504 H   0  0  0  0  0  0  0  0  0  0  0  0
  144.5352  143.6716  158.9919 H   0  0  0  0  0  0  0  0  0  0  0  0
  145.9700  145.4694  160.9742 H   0  0  0  0  0  0  0  0  0  0  0  0
  144.3338  144.8145  161.1257 H   0  0  0  0  0  0  0  0  0  0  0  0
  146.4470  143.5049  162.2690 H   0  0  0  0  0  0  0  0  0  0  0  0
  145.1750  142.5800  161.4672 H   0  0  0  0  0  0  0  0  0  0  0  0
  151.2169  144.5176  156.6771 H   0  0  0  0  0  0  0  0  0  0  0  0
  1  2  1  0  0  0  0
  1 17  1  0  0  0  0
  1 18  1  0  0  0  0
  1 19  1  0  0  0  0
  2 16  1  0  0  0  0
  2  3  2  0  0  0  0
  3  4  1  0  0  0  0
  4  5  1  0  0  0  0
  4 15  2  0  0  0  0
  5  6  1  0  0  0  0
  5 20  1  0  0  0  0
  5 21  1  0  0  0  0
  6  7  2  0  0  0  0
  6  8  1  0  0  0  0
  8  9  1  0  0  0  0
  8 22  1  0  0  0  0
  9 10  1  0  0  0  0
  9 23  1  0  0  0  0
  9 24  1  0  0  0  0
 10 14  1  0  0  0  0
 10 11  1  0  0  0  0
 10 25  1  0  0  0  0
 11 12  1  0  0  0  0
 11 26  1  0  0  0  0
 11 27  1  0  0  0  0
 12 13  1  0  0  0  0
 12 28  1  0  0  0  0
 12 29  1  0  0  0  0
 13 14  1  0  0  0  0
 13 30  1  0  0  0  0
 13 31  1  0  0  0  0
 15 16  1  0  0  0  0
 15 32  1  0  0  0  0
M  END
> <s_m_source_file>
AV-unprocessed.smi

> <i_m_source_file_index>
301

> <i_lp_mmshare_version>
43012

> <i_f3d_flags>
0

> <s_epik_input>
W0NIM11jMW5jKFtjSF1zMSlbQ0gyXUMoPU8pW05IXVtDSDJdW0NAQEhdMltDSDJdW0NIMl1bQ0gyXU8y

> <s_epik_cmdline>
J2VwaWtfcHl0aG9uJywgJy1waCcsICc3LjAnLCAnLXRuJywgJzgnLCAnLW1hJywgJzIwMCcsICctbWV0YWxfYmluZGluZycsICctaW1hZScsICc8aW5maWxlLm1hZT4nLCAnLW9tYWUnLCAnPG91dGZpbGUubWFlPic=

> <r_lp_tautomer_probability>
1

> <r_epik_Ionization_Penalty>
6.06873e-05

> <r_epik_Ionization_Penalty_Charging>
0

> <r_epik_Ionization_Penalty_Neutral>
6.06873e-05

> <r_epik_State_Penalty>
-0

> <r_epik_Charging_Adjusted_Penalty>
0

> <i_epik_Tot_Q>
0

> <i_epik_Tot_abs_Q>
0

> <r_epik_Metal_State_Penalty>
-0

> <b_epik_Metal_Only>
0

> <s_lp_Force_Field>
OPLS_2005

> <r_lp_Energy>
16.0562

> <b_lp_Chiralities_Consistent>
1

> <s_lp_Variant>
AV-unprocessed.smi:301-2

> <Gold.Version>
5.8.1

> <Gold.Id.Protein>
6NUR|6NUR_protein|mol2

> <Gold.PLP.Fitness>
43.1343

> <Gold.PLP.PLP>
-33.7610

> <Gold.PLP.part.hbond>
-3.3934

> <Gold.PLP.part.metal>
0.0000

> <Gold.PLP.part.buried>
-3.6949

> <Gold.PLP.part.nonpolar>
-26.0159

> <Gold.PLP.part.repulsive>
0.0744

> <Gold.PLP.ligand.clash>
0.0000

> <Gold.PLP.ligand.torsion>
1.0426

> <Gold.PLP.Chemscore.Hbond>
2.8160

> <Gold.PLP.Chemscore.CHOScore>
0.9997

> <Gold.PLP.Chemscore.Metal>
0.0000

> <Gold.Chemscore.Hbonds>
donor molecule, donor type, donor heavy atom, donor atom, acceptor molecule, acceptor atom, score
      L1  H     8    22       P1  8028  0.95
      P1  H  6933  6944       L1    14  0.87
      P1  H  6934  6946       L1    14  0.92
      L1  C    15    32       P1  8028  1.00

> <Gold.PLP.Chemscore.Internal.Correction>
0.0113

> <Gold.Rescore>
     Score         DG    S(hbond)    S(metal)    S(lipo)     H(rot)  DE(clash)    DE(int)     intcor
     15.62     -16.56       1.61        0.00      81.67       1.51       0.05       0.89       ----

> <Gold.Chemscore.Fitness>
15.6214

> <Gold.Chemscore.DG>
-16.5592

> <Gold.Chemscore.ZeroCoef>
-5.4800

> <Gold.Chemscore.Hbond>
1.6140

> <Gold.Chemscore.Metal>
0.0000

> <Gold.Chemscore.Lipo>
81.6718

> <Gold.Chemscore.Internal_Hbond>
0.0000

> <Gold.Chemscore.DEClash>
0.0466

> <Gold.Chemscore.DEInternal>
0.8912

> <Gold.Chemscore.Rot>
1.5106

> <Gold.Chemscore.Internal.Correction>
   9.000000E+99

> <Gold.Chemscore.Hbonds>
donor molecule, donor type, donor heavy atom, donor atom, acceptor molecule, acceptor atom, score
      L1  H     8    22       P1  8028  0.22
      P1  H  6933  6944       L1    14  0.28
      P1  H  6934  6946       L1    14  0.29

> <Gold.Chemscore.Hbond.Weighted>
-5.3906

> <Gold.Chemscore.Metal.Weighted>
-0.0000

> <Gold.Chemscore.Lipo.Weighted>
-9.5556

> <Gold.Chemscore.Internal_Hbond.Weighted>
0.0000

> <Gold.Chemscore.DEClash.Weighted>
0.0466

> <Gold.Chemscore.DEInternal.Weighted>
0.8912

> <Gold.Chemscore.Rot.Weighted>
3.8670

> <Gold.Chemscore.Internal.Correction.Weighted>
   9.000000E+99

> <Gold.Protein.RotatedTorsions>
[ 6907 6896 6895 6894 ] final -109.92 input  -60.11 | X-H torsion
[ 7974 7965 7964 7962 ] final  -95.80 input  175.53 | X-H torsion
[ 8008 7997 7996 7995 ] final  -70.90 input   59.86 | X-H torsion
[ 10167 10162 10161 10158 ] final  158.35 input  -65.29 | X-H torsion
[ 10718 10713 10712 10709 ] final -155.31 input   66.30 | X-H torsion
[ 10763 10752 10751 10750 ] final  124.83 input  -60.55 | X-H torsion
[ 11005 11000 10999 10996 ] final -130.56 input  -57.11 | X-H torsion

> <Gold.Protein.ActiveResidues>
 VAL166  LYS551  ARG553  GLY616  TRP617  ASP618  TYR619  PRO620  LYS621  CYS622 
 ASP623  PHE694  ASN695  SER759  ASP760  ASP761  ALA762  ILE779  LEU786  VAL792 
 PHE793  MET794  SER795  GLU796  ALA797  LYS798  CYS799  TRP800  GLU811  SER814 

> <Gold.Protein.RotatedAtoms>
  150.7592  133.9458  159.3470 H   0  0  0  0  0  0  0  0  0  0  0  0  # atno 6907 bound_to 6896
  151.7371  135.0860  160.0319 H   0  0  0  0  0  0  0  0  0  0  0  0  # atno 6908 bound_to 6896
  152.3552  133.6191  159.6010 H   0  0  0  0  0  0  0  0  0  0  0  0  # atno 6909 bound_to 6896
  145.3553  140.9483  143.2531 H   0  0  0  0  0  0  0  0  0  0  0  0  # atno 7974 bound_to 7965
  154.5047  140.0825  156.7870 H   0  0  0  0  0  0  0  0  0  0  0  0  # atno 8008 bound_to 7997
  155.3921  140.3433  155.4234 H   0  0  0  0  0  0  0  0  0  0  0  0  # atno 8009 bound_to 7997
  156.1500  140.1555  156.8772 H   0  0  0  0  0  0  0  0  0  0  0  0  # atno 8010 bound_to 7997
  139.4826  144.4832  151.8414 H   0  0  0  0  0  0  0  0  0  0  0  0  # atno 10167 bound_to 10162
  156.5111  130.8435  151.2647 H   0  0  0  0  0  0  0  0  0  0  0  0  # atno 10718 bound_to 10713
  153.6677  135.3335  155.3145 H   0  0  0  0  0  0  0  0  0  0  0  0  # atno 10763 bound_to 10752
  154.8499  135.4379  154.1738 H   0  0  0  0  0  0  0  0  0  0  0  0  # atno 10764 bound_to 10752
  153.2721  135.7001  153.7546 H   0  0  0  0  0  0  0  0  0  0  0  0  # atno 10765 bound_to 10752
  140.9335  134.1288  157.4214 H   0  0  0  0  0  0  0  0  0  0  0  0  # atno 11005 bound_to 11000
  144.8687  139.5070  143.6778 LP  0  0  0  0  0  0  0  0  0  0  0  0  # atno 17320 bound_to 7965
  146.2950  139.7252  142.9133 LP  0  0  0  0  0  0  0  0  0  0  0  0  # atno 17321 bound_to 7965
  140.4310  144.2115  150.5888 LP  0  0  0  0  0  0  0  0  0  0  0  0  # atno 17342 bound_to 10162
  140.4779  143.2389  151.8997 LP  0  0  0  0  0  0  0  0  0  0  0  0  # atno 17343 bound_to 10162
  157.7450  130.9949  150.2725 LP  0  0  0  0  0  0  0  0  0  0  0  0  # atno 17370 bound_to 10713
  156.3239  130.3790  149.7550 LP  0  0  0  0  0  0  0  0  0  0  0  0  # atno 17371 bound_to 10713
  139.8802  135.0013  156.6059 LP  0  0  0  0  0  0  0  0  0  0  0  0  # atno 17394 bound_to 11000
  140.7831  133.8644  155.8584 LP  0  0  0  0  0  0  0  0  0  0  0  0  # atno 17395 bound_to 11000

$$$$
