AV-unprocessed.smi:1484|AV-procd|sdf|5998|dock4
  -GOLD-   22720 6 93D 1   1.00000     0.00000
 Structure written by MMmdl.
 38 39  0  0  0  0  0  0  0  0  1 V2000
  151.7377  144.9500  158.5043 C   0  0  0  0  0  0  0  0  0  0  0  0
  152.3388  143.5377  158.5302 C   0  0  1  0  0  0  0  0  0  0  0  0
  152.5260  143.0318  159.9732 C   0  0  0  0  0  0  0  0  0  0  0  0
  153.1280  141.6183  159.9999 C   0  0  0  0  0  0  0  0  0  0  0  0
  152.2755  140.6331  159.1860 C   0  0  0  0  0  0  0  0  0  0  0  0
  152.0773  141.1252  157.7383 C   0  0  1  0  0  0  0  0  0  0  0  0
  151.1944  140.2236  157.0075 N   0  0  0  0  0  0  0  0  0  0  0  0
  151.4530  139.6663  155.8121 C   0  0  0  0  0  0  0  0  0  0  0  0
  152.5000  139.8647  155.1967 O   0  0  0  0  0  0  0  0  0  0  0  0
  150.3893  138.7384  155.1987 C   0  0  0  0  0  0  0  0  0  0  0  0
  149.1743  139.4187  154.7204 N   0  0  0  0  0  0  0  0  0  0  0  0
  149.3083  140.7933  154.5954 N   0  0  0  0  0  0  0  0  0  0  0  0
  148.3181  141.5017  154.1689 C   0  0  0  0  0  0  0  0  0  0  0  0
  148.4958  142.8587  154.0575 O   0  0  0  0  0  0  0  0  0  0  0  0
  147.0562  140.8889  153.8169 C   0  0  0  0  0  0  0  0  0  0  0  0
  146.9341  139.5495  153.9438 C   0  0  0  0  0  0  0  0  0  0  0  0
  148.0385  138.7156  154.4218 C   0  0  0  0  0  0  0  0  0  0  0  0
  147.9593  137.4928  154.5356 O   0  0  0  0  0  0  0  0  0  0  0  0
  151.4823  142.5459  157.7194 C   0  0  0  0  0  0  0  0  0  0  0  0
  148.6556  143.1639  154.9374 H   0  0  0  0  0  0  0  0  0  0  0  0
  150.7494  144.9693  158.9649 H   0  0  0  0  0  0  0  0  0  0  0  0
  151.6359  145.3150  157.4819 H   0  0  0  0  0  0  0  0  0  0  0  0
  152.3703  145.6557  159.0435 H   0  0  0  0  0  0  0  0  0  0  0  0
  153.3229  143.5918  158.0618 H   0  0  0  0  0  0  0  0  0  0  0  0
  153.1717  143.7136  160.5277 H   0  0  0  0  0  0  0  0  0  0  0  0
  151.5656  143.0269  160.4906 H   0  0  0  0  0  0  0  0  0  0  0  0
  154.1409  141.6445  159.5963 H   0  0  0  0  0  0  0  0  0  0  0  0
  153.2145  141.2708  161.0298 H   0  0  0  0  0  0  0  0  0  0  0  0
  152.7501  139.6511  159.1896 H   0  0  0  0  0  0  0  0  0  0  0  0
  151.3058  140.5091  159.6704 H   0  0  0  0  0  0  0  0  0  0  0  0
  153.0475  141.1568  157.2385 H   0  0  0  0  0  0  0  0  0  0  0  0
  150.3092  140.0067  157.4422 H   0  0  0  0  0  0  0  0  0  0  0  0
  150.8487  138.1697  154.3885 H   0  0  0  0  0  0  0  0  0  0  0  0
  150.1212  137.9955  155.9521 H   0  0  0  0  0  0  0  0  0  0  0  0
  146.2365  141.4965  153.4628 H   0  0  0  0  0  0  0  0  0  0  0  0
  145.9971  139.0789  153.6846 H   0  0  0  0  0  0  0  0  0  0  0  0
  150.4689  142.5252  158.1239 H   0  0  0  0  0  0  0  0  0  0  0  0
  151.3948  142.8924  156.6886 H   0  0  0  0  0  0  0  0  0  0  0  0
  1  2  1  0  0  0  0
  1 21  1  0  0  0  0
  1 22  1  0  0  0  0
  1 23  1  0  0  0  0
  2 19  1  0  0  0  0
  2  3  1  0  0  0  0
  2 24  1  0  0  0  0
  3  4  1  0  0  0  0
  3 25  1  0  0  0  0
  3 26  1  0  0  0  0
  4  5  1  0  0  0  0
  4 27  1  0  0  0  0
  4 28  1  0  0  0  0
  5  6  1  0  0  0  0
  5 29  1  0  0  0  0
  5 30  1  0  0  0  0
  6  7  1  0  0  0  0
  6 19  1  0  0  0  0
  6 31  1  0  0  0  0
  7  8  1  0  0  0  0
  7 32  1  0  0  0  0
  8  9  2  0  0  0  0
  8 10  1  0  0  0  0
 10 33  1  0  0  0  0
 10 34  1  0  0  0  0
 10 11  1  0  0  0  0
 11 12  1  0  0  0  0
 11 17  1  0  0  0  0
 12 13  2  0  0  0  0
 13 14  1  0  0  0  0
 13 15  1  0  0  0  0
 14 20  1  0  0  0  0
 15 35  1  0  0  0  0
 15 16  2  0  0  0  0
 16 36  1  0  0  0  0
 16 17  1  0  0  0  0
 17 18  2  0  0  0  0
 19 37  1  0  0  0  0
 19 38  1  0  0  0  0
M  END
> <s_m_source_file>
AV-unprocessed.smi

> <i_m_source_file_index>
1484

> <i_lp_mmshare_version>
43012

> <i_f3d_flags>
0

> <s_epik_input>
W0NIM11bQ0BASF0xW0NIMl1bQ0gyXVtDSDJdW0NASF0oW0NIMl0xKVtOSF1DKD1PKVtDSDJdbjJbbkhdYyg9TylbY0hdW2NIXWMyPU8=

> <s_epik_cmdline>
J2VwaWtfcHl0aG9uJywgJy1waCcsICc3LjAnLCAnLXRuJywgJzgnLCAnLW1hJywgJzIwMCcsICctbWV0YWxfYmluZGluZycsICctaW1hZScsICc8aW5maWxlLm1hZT4nLCAnLW9tYWUnLCAnPG91dGZpbGUubWFlPic=

> <r_lp_tautomer_probability>
0.9996

> <r_epik_Ionization_Penalty>
2.10343

> <r_epik_Ionization_Penalty_Charging>
3.97871e-08

> <r_epik_Ionization_Penalty_Neutral>
2.10343

> <r_epik_State_Penalty>
1.67966

> <r_epik_Charging_Adjusted_Penalty>
1.67966

> <i_epik_Tot_Q>
0

> <i_epik_Tot_abs_Q>
0

> <r_epik_Metal_State_Penalty>
1.67966

> <b_epik_Metal_Only>
0

> <s_lp_Force_Field>
OPLS_2005

> <r_lp_Energy>
20.3723

> <b_lp_Chiralities_Consistent>
1

> <s_lp_Variant>
AV-unprocessed.smi:1484-6

> <Gold.Version>
5.8.1

> <Gold.Id.Protein>
6NUR|6NUR_protein|mol2

> <Gold.PLP.Fitness>
46.7836

> <Gold.PLP.PLP>
-40.3653

> <Gold.PLP.part.hbond>
-4.6843

> <Gold.PLP.part.metal>
0.0000

> <Gold.PLP.part.buried>
-3.7217

> <Gold.PLP.part.nonpolar>
-31.8291

> <Gold.PLP.part.repulsive>
1.3078

> <Gold.PLP.ligand.clash>
0.0000

> <Gold.PLP.ligand.torsion>
0.3770

> <Gold.PLP.Chemscore.Hbond>
2.3891

> <Gold.PLP.Chemscore.CHOScore>
0.0000

> <Gold.PLP.Chemscore.Metal>
0.0000

> <Gold.Chemscore.Hbonds>
donor molecule, donor type, donor heavy atom, donor atom, acceptor molecule, acceptor atom, score
      L1  H    14    20       P1  8028  0.66
      P1  H  7989  7998       L1     9  0.44
      P1  H  7997  8010       L1     9  0.86
      P1  H  8022  8030       L1    14  0.20

> <Gold.PLP.Chemscore.Internal.Correction>
0.0050

> <Gold.Rescore>
     Score         DG    S(hbond)    S(metal)    S(lipo)     H(rot)  DE(clash)    DE(int)     intcor
     15.96     -16.90       2.00        0.00      89.56       2.24       0.41       0.53       ----

> <Gold.Chemscore.Fitness>
15.9580

> <Gold.Chemscore.DG>
-16.8999

> <Gold.Chemscore.ZeroCoef>
-5.4800

> <Gold.Chemscore.Hbond>
2.0005

> <Gold.Chemscore.Metal>
0.0000

> <Gold.Chemscore.Lipo>
89.5562

> <Gold.Chemscore.Internal_Hbond>
0.0000

> <Gold.Chemscore.DEClash>
0.4118

> <Gold.Chemscore.DEInternal>
0.5301

> <Gold.Chemscore.Rot>
2.2421

> <Gold.Chemscore.Internal.Correction>
   9.000000E+99

> <Gold.Chemscore.Hbonds>
donor molecule, donor type, donor heavy atom, donor atom, acceptor molecule, acceptor atom, score
      L1  H    14    20       P1  8028  0.66
      P1  H  7989  7998       L1     9  0.10
      P1  H  7997  8010       L1     9  0.84

> <Gold.Chemscore.Hbond.Weighted>
-6.6817

> <Gold.Chemscore.Metal.Weighted>
-0.0000

> <Gold.Chemscore.Lipo.Weighted>
-10.4781

> <Gold.Chemscore.Internal_Hbond.Weighted>
0.0000

> <Gold.Chemscore.DEClash.Weighted>
0.4118

> <Gold.Chemscore.DEInternal.Weighted>
0.5301

> <Gold.Chemscore.Rot.Weighted>
5.7398

> <Gold.Chemscore.Internal.Correction.Weighted>
   9.000000E+99

> <Gold.Protein.RotatedTorsions>
[ 6907 6896 6895 6894 ] final   24.77 input  -60.11 | X-H torsion
[ 7974 7965 7964 7962 ] final   80.67 input  175.53 | X-H torsion
[ 8008 7997 7996 7995 ] final  100.15 input   59.86 | X-H torsion
[ 10167 10162 10161 10158 ] final -145.27 input  -65.29 | X-H torsion
[ 10718 10713 10712 10709 ] final   63.50 input   66.30 | X-H torsion
[ 10763 10752 10751 10750 ] final -166.21 input  -60.55 | X-H torsion
[ 11005 11000 10999 10996 ] final  -27.55 input  -57.11 | X-H torsion

> <Gold.Protein.ActiveResidues>
 VAL166  LYS551  ARG553  GLY616  TRP617  ASP618  TYR619  PRO620  LYS621  CYS622 
 ASP623  PHE694  ASN695  SER759  ASP760  ASP761  ALA762  ILE779  LEU786  VAL792 
 PHE793  MET794  SER795  GLU796  ALA797  LYS798  CYS799  TRP800  GLU811  SER814 

> <Gold.Protein.RotatedAtoms>
  151.9625  135.0116  160.0548 H   0  0  0  0  0  0  0  0  0  0  0  0  # atno 6907 bound_to 6896
  152.1856  133.4732  159.4989 H   0  0  0  0  0  0  0  0  0  0  0  0  # atno 6908 bound_to 6896
  150.6925  134.1695  159.4250 H   0  0  0  0  0  0  0  0  0  0  0  0  # atno 6909 bound_to 6896
  145.6481  139.2441  143.1992 H   0  0  0  0  0  0  0  0  0  0  0  0  # atno 7974 bound_to 7965
  156.1175  140.3217  155.8161 H   0  0  0  0  0  0  0  0  0  0  0  0  # atno 8008 bound_to 7997
  155.4563  140.0536  157.3013 H   0  0  0  0  0  0  0  0  0  0  0  0  # atno 8009 bound_to 7997
  154.4803  140.2050  155.9792 H   0  0  0  0  0  0  0  0  0  0  0  0  # atno 8010 bound_to 7997
  139.7821  143.8086  152.2640 H   0  0  0  0  0  0  0  0  0  0  0  0  # atno 10167 bound_to 10162
  157.5976  130.9109  149.9724 H   0  0  0  0  0  0  0  0  0  0  0  0  # atno 10718 bound_to 10713
  154.6856  135.2962  154.9552 H   0  0  0  0  0  0  0  0  0  0  0  0  # atno 10763 bound_to 10752
  154.0532  135.6641  153.4807 H   0  0  0  0  0  0  0  0  0  0  0  0  # atno 10764 bound_to 10752
  153.0577  135.5135  154.7922 H   0  0  0  0  0  0  0  0  0  0  0  0  # atno 10765 bound_to 10752
  140.9129  133.7449  156.0695 H   0  0  0  0  0  0  0  0  0  0  0  0  # atno 11005 bound_to 11000
  146.1226  140.7290  142.9450 LP  0  0  0  0  0  0  0  0  0  0  0  0  # atno 17320 bound_to 7965
  144.7132  140.4116  143.7064 LP  0  0  0  0  0  0  0  0  0  0  0  0  # atno 17321 bound_to 7965
  139.8152  144.7319  150.9645 LP  0  0  0  0  0  0  0  0  0  0  0  0  # atno 17342 bound_to 10162
  140.7818  143.4212  151.0838 LP  0  0  0  0  0  0  0  0  0  0  0  0  # atno 17343 bound_to 10162
  156.1041  130.3654  150.0164 LP  0  0  0  0  0  0  0  0  0  0  0  0  # atno 17370 bound_to 10713
  156.8274  130.9380  151.3638 LP  0  0  0  0  0  0  0  0  0  0  0  0  # atno 17371 bound_to 10713
  140.8087  134.3424  157.5418 LP  0  0  0  0  0  0  0  0  0  0  0  0  # atno 17394 bound_to 11000
  139.8760  134.9241  156.3342 LP  0  0  0  0  0  0  0  0  0  0  0  0  # atno 17395 bound_to 11000

$$$$
