AV-unprocessed.smi:267|AV-procd|sdf|2039|dock4
  -GOLD-   2262021253D 1   1.00000     0.00000
 Structure written by MMmdl.
 51 54  0  0  0  0  0  0  0  0  1 V2000
  152.9029  142.7327  160.1951 C   0  0  0  0  0  0  0  0  0  0  0  0
  151.8464  142.5390  159.2716 O   0  0  0  0  0  0  0  0  0  0  0  0
  152.1612  141.5780  158.2775 C   0  0  0  0  0  0  0  0  0  0  0  0
  150.9360  141.3085  157.3878 C   0  0  0  0  0  0  0  0  0  0  0  0
  150.9035  139.9252  156.8949 N   0  0  0  0  0  0  0  0  0  0  0  0
  150.9106  138.9012  157.9492 C   0  0  0  0  0  0  0  0  0  0  0  0
  151.3582  137.5228  157.4483 C   0  0  0  0  0  0  0  0  0  0  0  0
  150.6457  137.1998  156.2204 N   0  0  0  0  0  0  0  0  0  0  0  0
  150.4795  135.8853  155.9236 C   0  0  0  0  0  0  0  0  0  0  0  0
  151.5262  135.0285  156.0628 N   0  0  0  0  0  0  0  0  0  0  0  0
  151.3808  133.7304  155.7803 C   0  0  0  0  0  0  0  0  0  0  0  0
  150.2963  133.0878  155.3432 N   0  0  0  0  0  0  0  0  0  0  0  0
  149.2467  133.9435  155.1870 C   0  0  0  0  0  0  0  0  0  0  0  0
  149.2500  135.3425  155.4513 C   0  0  0  0  0  0  0  0  0  0  0  0
  148.0008  135.8786  155.1575 N   0  0  0  0  0  0  0  0  0  0  0  0
  147.2974  134.8553  154.7561 C   0  0  0  0  0  0  0  0  0  0  0  0
  147.9679  133.6535  154.7468 N   0  0  0  0  0  0  0  0  0  0  0  0
  147.4384  132.3624  154.3460 C   0  0  0  0  0  0  0  0  0  0  0  0
  146.8221  132.3388  152.9237 C   0  0  0  0  0  0  0  0  0  0  0  0
  146.7384  130.8781  152.4527 C   0  0  0  0  0  0  0  0  0  0  0  0
  146.3026  130.7890  151.1103 O   0  0  0  0  0  0  0  0  0  0  0  0
  145.5445  133.1567  152.6410 C   0  0  0  0  0  0  0  0  0  0  0  0
  146.1156  133.7233  151.4439 O   0  0  0  0  0  0  0  0  0  0  0  0
  147.4225  133.3174  151.9016 C   0  0  0  0  0  0  0  0  0  0  0  0
  150.7653  138.1628  155.1207 C   0  0  0  0  0  0  0  0  0  0  0  0
  150.8090  139.6347  155.5730 C   0  0  0  0  0  0  0  0  0  0  0  0
  150.7578  140.5051  154.7036 O   0  0  0  0  0  0  0  0  0  0  0  0
  152.6127  143.4810  160.9325 H   0  0  0  0  0  0  0  0  0  0  0  0
  153.8048  143.0861  159.6939 H   0  0  0  0  0  0  0  0  0  0  0  0
  153.1358  141.8090  160.7267 H   0  0  0  0  0  0  0  0  0  0  0  0
  153.0040  141.9157  157.6719 H   0  0  0  0  0  0  0  0  0  0  0  0
  152.4644  140.6486  158.7618 H   0  0  0  0  0  0  0  0  0  0  0  0
  150.0303  141.5004  157.9650 H   0  0  0  0  0  0  0  0  0  0  0  0
  150.9045  142.0222  156.5628 H   0  0  0  0  0  0  0  0  0  0  0  0
  151.5552  139.2109  158.7730 H   0  0  0  0  0  0  0  0  0  0  0  0
  149.8998  138.8293  158.3531 H   0  0  0  0  0  0  0  0  0  0  0  0
  152.4273  137.5375  157.2308 H   0  0  0  0  0  0  0  0  0  0  0  0
  151.2164  136.7816  158.2334 H   0  0  0  0  0  0  0  0  0  0  0  0
  152.2598  133.1201  155.9251 H   0  0  0  0  0  0  0  0  0  0  0  0
  146.2638  134.9496  154.4562 H   0  0  0  0  0  0  0  0  0  0  0  0
  148.2432  131.6304  154.4230 H   0  0  0  0  0  0  0  0  0  0  0  0
  146.7178  132.0672  155.1098 H   0  0  0  0  0  0  0  0  0  0  0  0
  147.7041  130.3798  152.5464 H   0  0  0  0  0  0  0  0  0  0  0  0
  146.0383  130.3119  153.0684 H   0  0  0  0  0  0  0  0  0  0  0  0
  147.0606  130.6963  150.5537 H   0  0  0  0  0  0  0  0  0  0  0  0
  144.6639  132.5461  152.4385 H   0  0  0  0  0  0  0  0  0  0  0  0
  145.3086  133.9393  153.3625 H   0  0  0  0  0  0  0  0  0  0  0  0
  147.9669  134.1507  152.3493 H   0  0  0  0  0  0  0  0  0  0  0  0
  148.0146  132.8422  151.1188 H   0  0  0  0  0  0  0  0  0  0  0  0
  151.6764  137.9633  154.5547 H   0  0  0  0  0  0  0  0  0  0  0  0
  149.9242  138.0367  154.4370 H   0  0  0  0  0  0  0  0  0  0  0  0
  1  2  1  0  0  0  0
  1 28  1  0  0  0  0
  1 29  1  0  0  0  0
  1 30  1  0  0  0  0
  2  3  1  0  0  0  0
  3  4  1  0  0  0  0
  3 31  1  0  0  0  0
  3 32  1  0  0  0  0
  4  5  1  0  0  0  0
  4 33  1  0  0  0  0
  4 34  1  0  0  0  0
  5 26  1  0  0  0  0
  5  6  1  0  0  0  0
  6  7  1  0  0  0  0
  6 35  1  0  0  0  0
  6 36  1  0  0  0  0
  7  8  1  0  0  0  0
  7 37  1  0  0  0  0
  7 38  1  0  0  0  0
  8  9  1  0  0  0  0
  8 25  1  0  0  0  0
  9 14  1  0  0  0  0
  9 10  2  0  0  0  0
 10 11  1  0  0  0  0
 11 12  2  0  0  0  0
 11 39  1  0  0  0  0
 12 13  1  0  0  0  0
 13 17  1  0  0  0  0
 13 14  2  0  0  0  0
 14 15  1  0  0  0  0
 15 16  2  0  0  0  0
 16 17  1  0  0  0  0
 16 40  1  0  0  0  0
 17 18  1  0  0  0  0
 18 19  1  0  0  0  0
 18 41  1  0  0  0  0
 18 42  1  0  0  0  0
 19 24  1  0  0  0  0
 19 20  1  0  0  0  0
 19 22  1  0  0  0  0
 20 21  1  0  0  0  0
 20 43  1  0  0  0  0
 20 44  1  0  0  0  0
 21 45  1  0  0  0  0
 22 23  1  0  0  0  0
 22 46  1  0  0  0  0
 22 47  1  0  0  0  0
 23 24  1  0  0  0  0
 24 48  1  0  0  0  0
 24 49  1  0  0  0  0
 25 26  1  0  0  0  0
 25 50  1  0  0  0  0
 25 51  1  0  0  0  0
 26 27  2  0  0  0  0
M  END
> <s_m_source_file>
AV-unprocessed.smi

> <i_m_source_file_index>
267

> <i_lp_mmshare_version>
43012

> <i_f3d_flags>
0

> <s_epik_input>
W0NIM11PW0NIMl1bQ0gyXU4xW0NIMl1bQ0gyXU4oW0NIMl1DMT1PKWMobltjSF1uMiljKGMyMyluW2NIXW4zW0NIMl1DNChbQ0gyXVtPSF0pW0NIMl1PW0NIMl00

> <s_epik_cmdline>
J2VwaWtfcHl0aG9uJywgJy1waCcsICc3LjAnLCAnLXRuJywgJzgnLCAnLW1hJywgJzIwMCcsICctbWV0YWxfYmluZGluZycsICctaW1hZScsICc8aW5maWxlLm1hZT4nLCAnLW9tYWUnLCAnPG91dGZpbGUubWFlPic=

> <r_lp_tautomer_probability>
1

> <r_epik_Ionization_Penalty>
0.000432285

> <r_epik_Ionization_Penalty_Charging>
0

> <r_epik_Ionization_Penalty_Neutral>
0.000432285

> <r_epik_State_Penalty>
0.000191954

> <r_epik_Charging_Adjusted_Penalty>
0.000191954

> <i_epik_Tot_Q>
0

> <i_epik_Tot_abs_Q>
0

> <r_epik_Metal_State_Penalty>
-0

> <b_epik_Metal_Only>
0

> <s_lp_Force_Field>
OPLS_2005

> <r_lp_Energy>
43.2758

> <b_lp_Chiralities_Consistent>
1

> <s_lp_Variant>
AV-unprocessed.smi:267-1

> <Gold.Version>
5.8.1

> <Gold.Id.Protein>
6NUR|6NUR_protein|mol2

> <Gold.PLP.Fitness>
37.6540

> <Gold.PLP.PLP>
-31.5893

> <Gold.PLP.part.hbond>
-2.8296

> <Gold.PLP.part.metal>
0.0000

> <Gold.PLP.part.buried>
-5.7980

> <Gold.PLP.part.nonpolar>
-21.8147

> <Gold.PLP.part.repulsive>
0.3417

> <Gold.PLP.ligand.clash>
0.0000

> <Gold.PLP.ligand.torsion>
1.7161

> <Gold.PLP.Chemscore.Hbond>
2.9425

> <Gold.PLP.Chemscore.CHOScore>
0.0000

> <Gold.PLP.Chemscore.Metal>
0.0000

> <Gold.Chemscore.Hbonds>
donor molecule, donor type, donor heavy atom, donor atom, acceptor molecule, acceptor atom, score
      L1  H    21    45       P1 10747  1.00
      P1  H  7989  7998       L1    27  1.00
      P1  H 10752 10765       L1    10  0.99

> <Gold.PLP.Chemscore.Internal.Correction>
0.6694

> <Gold.Rescore>
     Score         DG    S(hbond)    S(metal)    S(lipo)     H(rot)  DE(clash)    DE(int)     intcor
      9.91     -12.75       2.20        0.00      67.32       3.11       0.08       2.76       ----

> <Gold.Chemscore.Fitness>
9.9128

> <Gold.Chemscore.DG>
-12.7495

> <Gold.Chemscore.ZeroCoef>
-5.4800

> <Gold.Chemscore.Hbond>
2.2015

> <Gold.Chemscore.Metal>
0.0000

> <Gold.Chemscore.Lipo>
67.3200

> <Gold.Chemscore.Internal_Hbond>
0.0000

> <Gold.Chemscore.DEClash>
0.0816

> <Gold.Chemscore.DEInternal>
2.7551

> <Gold.Chemscore.Rot>
3.1093

> <Gold.Chemscore.Internal.Correction>
   9.000000E+99

> <Gold.Chemscore.Hbonds>
donor molecule, donor type, donor heavy atom, donor atom, acceptor molecule, acceptor atom, score
      L1  H    21    45       P1 10747  0.95
      P1  H  7989  7998       L1    27  0.91
      P1  H 10752 10765       L1    10  0.26

> <Gold.Chemscore.Hbond.Weighted>
-7.3529

> <Gold.Chemscore.Metal.Weighted>
-0.0000

> <Gold.Chemscore.Lipo.Weighted>
-7.8764

> <Gold.Chemscore.Internal_Hbond.Weighted>
0.0000

> <Gold.Chemscore.DEClash.Weighted>
0.0816

> <Gold.Chemscore.DEInternal.Weighted>
2.7551

> <Gold.Chemscore.Rot.Weighted>
7.9599

> <Gold.Chemscore.Internal.Correction.Weighted>
   9.000000E+99

> <Gold.Protein.RotatedTorsions>
[ 6907 6896 6895 6894 ] final  -90.10 input  -60.11 | X-H torsion
[ 7974 7965 7964 7962 ] final  169.97 input  175.53 | X-H torsion
[ 8008 7997 7996 7995 ] final  -27.20 input   59.86 | X-H torsion
[ 10167 10162 10161 10158 ] final   36.88 input  -65.29 | X-H torsion
[ 10718 10713 10712 10709 ] final  -25.87 input   66.30 | X-H torsion
[ 10763 10752 10751 10750 ] final -153.44 input  -60.55 | X-H torsion
[ 11005 11000 10999 10996 ] final  -39.81 input  -57.11 | X-H torsion

> <Gold.Protein.ActiveResidues>
 VAL166  LYS551  ARG553  GLY616  TRP617  ASP618  TYR619  PRO620  LYS621  CYS622 
 ASP623  PHE694  ASN695  SER759  ASP760  ASP761  ALA762  ILE779  LEU786  VAL792 
 PHE793  MET794  SER795  GLU796  ALA797  LYS798  CYS799  TRP800  GLU811  SER814 

> <Gold.Protein.RotatedAtoms>
  150.6879  134.2484  159.4500 H   0  0  0  0  0  0  0  0  0  0  0  0  # atno 6907 bound_to 6896
  152.0423  134.9701  160.0583 H   0  0  0  0  0  0  0  0  0  0  0  0  # atno 6908 bound_to 6896
  152.1198  133.4312  159.4707 H   0  0  0  0  0  0  0  0  0  0  0  0  # atno 6909 bound_to 6896
  144.7338  139.9133  143.6416 H   0  0  0  0  0  0  0  0  0  0  0  0  # atno 7974 bound_to 7965
  154.4389  140.1879  156.0894 H   0  0  0  0  0  0  0  0  0  0  0  0  # atno 8008 bound_to 7997
  156.0377  140.3323  155.7183 H   0  0  0  0  0  0  0  0  0  0  0  0  # atno 8009 bound_to 7997
  155.5745  140.0616  157.2789 H   0  0  0  0  0  0  0  0  0  0  0  0  # atno 8010 bound_to 7997
  140.4085  144.1625  150.6138 H   0  0  0  0  0  0  0  0  0  0  0  0  # atno 10167 bound_to 10162
  156.4587  130.4499  149.6943 H   0  0  0  0  0  0  0  0  0  0  0  0  # atno 10718 bound_to 10713
  154.7927  135.3213  154.7739 H   0  0  0  0  0  0  0  0  0  0  0  0  # atno 10763 bound_to 10752
  153.8424  135.6869  153.4805 H   0  0  0  0  0  0  0  0  0  0  0  0  # atno 10764 bound_to 10752
  153.1604  135.4663  154.9705 H   0  0  0  0  0  0  0  0  0  0  0  0  # atno 10765 bound_to 10752
  141.0129  133.6899  156.2237 H   0  0  0  0  0  0  0  0  0  0  0  0  # atno 11005 bound_to 11000
  146.0984  139.3978  143.0362 LP  0  0  0  0  0  0  0  0  0  0  0  0  # atno 17320 bound_to 7965
  145.7613  140.9934  143.1198 LP  0  0  0  0  0  0  0  0  0  0  0  0  # atno 17321 bound_to 7965
  140.4663  143.2429  151.9151 LP  0  0  0  0  0  0  0  0  0  0  0  0  # atno 17342 bound_to 10162
  139.4783  144.5416  151.8520 LP  0  0  0  0  0  0  0  0  0  0  0  0  # atno 17343 bound_to 10162
  156.3740  130.7545  151.2531 LP  0  0  0  0  0  0  0  0  0  0  0  0  # atno 17370 bound_to 10713
  157.7499  131.0315  150.4184 LP  0  0  0  0  0  0  0  0  0  0  0  0  # atno 17371 bound_to 10713
  140.6703  134.4875  157.5587 LP  0  0  0  0  0  0  0  0  0  0  0  0  # atno 17394 bound_to 11000
  139.9100  134.8365  156.1562 LP  0  0  0  0  0  0  0  0  0  0  0  0  # atno 17395 bound_to 11000

$$$$
