AV-unprocessed.smi:1788|AV-procd|sdf|7211|dock7
  -GOLD-   22720 8453D 1   1.00000     0.00000
 Structure written by MMmdl.
 55 57  0  0  0  0  0  0  0  0  2 V2000
  145.6901  132.2547  151.9205 C   0  0  0  0  0  0  0  0  0  0  0  0
  144.8167  132.8325  150.7929 C   0  0  1  0  0  0  0  0  0  0  0  0
  143.3336  132.9553  151.1890 C   0  0  0  0  0  0  0  0  0  0  0  0
  143.1103  134.1256  152.1572 C   0  0  0  0  0  0  0  0  0  0  0  0
  143.6888  135.4307  151.5882 C   0  0  0  0  0  0  0  0  0  0  0  0
  145.1296  135.2797  151.2583 N   0  3  2  0  0  0  0  0  0  0  0  0
  145.7502  136.5646  150.8489 C   0  0  0  0  0  0  0  0  0  0  0  0
  145.8296  137.5735  152.0113 C   0  0  0  0  0  0  0  0  0  0  0  0
  147.2117  137.8898  152.3532 N   0  0  0  0  0  0  0  0  0  0  0  0
  147.5875  138.6553  153.3876 C   0  0  0  0  0  0  0  0  0  0  0  0
  146.7898  139.1629  154.1757 O   0  0  0  0  0  0  0  0  0  0  0  0
  148.9255  138.7673  153.4510 N   0  0  0  0  0  0  0  0  0  0  0  0
  149.7107  139.4958  154.3853 C   0  0  0  0  0  0  0  0  0  0  0  0
  151.0275  139.1477  154.7663 C   0  0  0  0  0  0  0  0  0  0  0  0
  151.6944  139.9415  155.7188 C   0  0  0  0  0  0  0  0  0  0  0  0
  151.0312  141.0599  156.2766 C   0  0  0  0  0  0  0  0  0  0  0  0
  151.6835  141.8673  157.2334 N   0  0  0  0  0  0  0  0  0  0  0  0
  151.1316  143.1942  157.5013 C   0  0  0  0  0  0  0  0  0  0  0  0
  152.1201  144.0263  158.3354 C   0  0  0  0  0  0  0  0  0  0  0  0
  152.4540  143.3210  159.5262 O   0  0  0  0  0  0  0  0  0  0  0  0
  153.0906  142.0790  159.2445 C   0  0  0  0  0  0  0  0  0  0  0  0
  152.1415  141.1767  158.4367 C   0  0  0  0  0  0  0  0  0  0  0  0
  149.7668  141.3866  155.9131 N   0  0  0  0  0  0  0  0  0  0  0  0
  149.1300  140.6217  155.0022 C   0  0  0  0  0  0  0  0  0  0  0  0
  145.3523  134.1838  150.2755 C   0  0  0  0  0  0  0  0  0  0  0  0
  145.7214  132.9112  152.7899 H   0  0  0  0  0  0  0  0  0  0  0  0
  146.7165  132.1078  151.5830 H   0  0  0  0  0  0  0  0  0  0  0  0
  145.3135  131.2858  152.2497 H   0  0  0  0  0  0  0  0  0  0  0  0
  144.8733  132.1215  149.9676 H   0  0  0  0  0  0  0  0  0  0  0  0
  142.7353  133.1182  150.2916 H   0  0  0  0  0  0  0  0  0  0  0  0
  142.9751  132.0244  151.6293 H   0  0  0  0  0  0  0  0  0  0  0  0
  142.0440  134.2464  152.3508 H   0  0  0  0  0  0  0  0  0  0  0  0
  143.5721  133.9069  153.1205 H   0  0  0  0  0  0  0  0  0  0  0  0
  143.1387  135.7302  150.6947 H   0  0  0  0  0  0  0  0  0  0  0  0
  143.5581  136.2259  152.3230 H   0  0  0  0  0  0  0  0  0  0  0  0
  146.7358  136.3726  150.4218 H   0  0  0  0  0  0  0  0  0  0  0  0
  145.1552  137.0169  150.0538 H   0  0  0  0  0  0  0  0  0  0  0  0
  145.3296  138.5012  151.7315 H   0  0  0  0  0  0  0  0  0  0  0  0
  145.3195  137.2040  152.9012 H   0  0  0  0  0  0  0  0  0  0  0  0
  147.9309  137.5080  151.7557 H   0  0  0  0  0  0  0  0  0  0  0  0
  149.4492  138.2271  152.7777 H   0  0  0  0  0  0  0  0  0  0  0  0
  151.5358  138.2873  154.3603 H   0  0  0  0  0  0  0  0  0  0  0  0
  152.7058  139.6896  156.0008 H   0  0  0  0  0  0  0  0  0  0  0  0
  150.9230  143.7130  156.5646 H   0  0  0  0  0  0  0  0  0  0  0  0
  150.1862  143.0917  158.0360 H   0  0  0  0  0  0  0  0  0  0  0  0
  153.0235  144.2456  157.7634 H   0  0  0  0  0  0  0  0  0  0  0  0
  151.6724  144.9836  158.6027 H   0  0  0  0  0  0  0  0  0  0  0  0
  154.0214  142.2500  158.7010 H   0  0  0  0  0  0  0  0  0  0  0  0
  153.3561  141.5957  160.1848 H   0  0  0  0  0  0  0  0  0  0  0  0
  151.2730  140.9137  159.0421 H   0  0  0  0  0  0  0  0  0  0  0  0
  152.6550  140.2461  158.1987 H   0  0  0  0  0  0  0  0  0  0  0  0
  148.1229  140.9246  154.7546 H   0  0  0  0  0  0  0  0  0  0  0  0
  146.4117  134.0836  150.0420 H   0  0  0  0  0  0  0  0  0  0  0  0
  144.8552  134.4413  149.3387 H   0  0  0  0  0  0  0  0  0  0  0  0
  145.5849  135.0038  152.1165 H   0  0  0  0  0  0  0  0  0  0  0  0
  1  2  1  0  0  0  0
  1 26  1  0  0  0  0
  1 27  1  0  0  0  0
  1 28  1  0  0  0  0
  2 25  1  0  0  0  0
  2  3  1  0  0  0  0
  2 29  1  0  0  0  0
  3  4  1  0  0  0  0
  3 30  1  0  0  0  0
  3 31  1  0  0  0  0
  4  5  1  0  0  0  0
  4 32  1  0  0  0  0
  4 33  1  0  0  0  0
  5  6  1  0  0  0  0
  5 34  1  0  0  0  0
  5 35  1  0  0  0  0
  6  7  1  0  0  0  0
  6 25  1  0  0  0  0
  6 55  1  0  0  0  0
  7  8  1  0  0  0  0
  7 36  1  0  0  0  0
  7 37  1  0  0  0  0
  8  9  1  0  0  0  0
  8 38  1  0  0  0  0
  8 39  1  0  0  0  0
  9 10  1  0  0  0  0
  9 40  1  0  0  0  0
 10 11  2  0  0  0  0
 10 12  1  0  0  0  0
 12 13  1  0  0  0  0
 12 41  1  0  0  0  0
 13 24  1  0  0  0  0
 13 14  2  0  0  0  0
 14 15  1  0  0  0  0
 14 42  1  0  0  0  0
 15 16  2  0  0  0  0
 15 43  1  0  0  0  0
 16 17  1  0  0  0  0
 16 23  1  0  0  0  0
 17 22  1  0  0  0  0
 17 18  1  0  0  0  0
 18 19  1  0  0  0  0
 18 44  1  0  0  0  0
 18 45  1  0  0  0  0
 19 20  1  0  0  0  0
 19 46  1  0  0  0  0
 19 47  1  0  0  0  0
 20 21  1  0  0  0  0
 21 22  1  0  0  0  0
 21 48  1  0  0  0  0
 21 49  1  0  0  0  0
 22 50  1  0  0  0  0
 22 51  1  0  0  0  0
 23 24  2  0  0  0  0
 24 52  1  0  0  0  0
 25 53  1  0  0  0  0
 25 54  1  0  0  0  0
M  CHG  1   6   1
M  END
> <s_m_source_file>
AV-unprocessed.smi

> <i_m_source_file_index>
1788

> <i_lp_mmshare_version>
43012

> <i_f3d_flags>
0

> <s_epik_input>
W0NIM11bQ0BASF0xW0NIMl1bQ0gyXVtDSDJdTihbQ0gyXTEpW0NIMl1bQ0gyXVtOSF1DKD1PKVtOSF1jMltjSF1bY0hdYyhuW2NIXTIpTjNbQ0gyXVtDSDJdT1tDSDJdW0NIMl0z

> <s_epik_cmdline>
J2VwaWtfcHl0aG9uJywgJy1waCcsICc3LjAnLCAnLXRuJywgJzgnLCAnLW1hJywgJzIwMCcsICctbWV0YWxfYmluZGluZycsICctaW1hZScsICc8aW5maWxlLm1hZT4nLCAnLW9tYWUnLCAnPG91dGZpbGUubWFlPic=

> <r_lp_tautomer_probability>
1

> <r_epik_Ionization_Penalty>
0.00340126

> <r_epik_Ionization_Penalty_Charging>
0.00171832

> <r_epik_Ionization_Penalty_Neutral>
0.00168294

> <r_epik_State_Penalty>
-0

> <r_epik_Charging_Adjusted_Penalty>
0.00171832

> <i_epik_Tot_Q>
1

> <i_epik_Tot_abs_Q>
1

> <r_epik_Metal_State_Penalty>
-0

> <b_epik_Metal_Only>
0

> <s_lp_Force_Field>
OPLS_2005

> <r_lp_Energy>
36.4544

> <b_lp_Chiralities_Consistent>
1

> <s_lp_Variant>
AV-unprocessed.smi:1788-2

> <Gold.Version>
5.8.1

> <Gold.Id.Protein>
6NUR|6NUR_protein|mol2

> <Gold.PLP.Fitness>
49.3996

> <Gold.PLP.PLP>
-46.6633

> <Gold.PLP.part.hbond>
-2.6185

> <Gold.PLP.part.metal>
0.0000

> <Gold.PLP.part.buried>
-1.2672

> <Gold.PLP.part.nonpolar>
-43.7696

> <Gold.PLP.part.repulsive>
0.3978

> <Gold.PLP.ligand.clash>
0.0000

> <Gold.PLP.ligand.torsion>
0.8429

> <Gold.PLP.Chemscore.Hbond>
1.3465

> <Gold.PLP.Chemscore.CHOScore>
0.0000

> <Gold.PLP.Chemscore.Metal>
0.0000

> <Gold.Chemscore.Hbonds>
donor molecule, donor type, donor heavy atom, donor atom, acceptor molecule, acceptor atom, score
      L1  H     9    40       P1  7948  0.74
      L1  H    12    41       P1  7948  0.34

> <Gold.PLP.Chemscore.Internal.Correction>
0.3824

> <Gold.Rescore>
     Score         DG    S(hbond)    S(metal)    S(lipo)     H(rot)  DE(clash)    DE(int)     intcor
     18.73     -20.90       1.70        0.00     118.28       1.60       0.13       2.04       ----

> <Gold.Chemscore.Fitness>
18.7278

> <Gold.Chemscore.DG>
-20.8951

> <Gold.Chemscore.ZeroCoef>
-5.4800

> <Gold.Chemscore.Hbond>
1.6965

> <Gold.Chemscore.Metal>
0.0000

> <Gold.Chemscore.Lipo>
118.2804

> <Gold.Chemscore.Internal_Hbond>
0.0000

> <Gold.Chemscore.DEClash>
0.1254

> <Gold.Chemscore.DEInternal>
2.0419

> <Gold.Chemscore.Rot>
1.5976

> <Gold.Chemscore.Internal.Correction>
   9.000000E+99

> <Gold.Chemscore.Hbonds>
donor molecule, donor type, donor heavy atom, donor atom, acceptor molecule, acceptor atom, score
      L1  H     9    40       P1  7948  0.73
      L1  H    12    41       P1  7948  0.30

> <Gold.Chemscore.Hbond.Weighted>
-5.6662

> <Gold.Chemscore.Metal.Weighted>
-0.0000

> <Gold.Chemscore.Lipo.Weighted>
-13.8388

> <Gold.Chemscore.Internal_Hbond.Weighted>
0.0000

> <Gold.Chemscore.DEClash.Weighted>
0.1254

> <Gold.Chemscore.DEInternal.Weighted>
2.0419

> <Gold.Chemscore.Rot.Weighted>
4.0899

> <Gold.Chemscore.Internal.Correction.Weighted>
   9.000000E+99

> <Gold.Protein.RotatedTorsions>
[ 6907 6896 6895 6894 ] final -124.98 input  -60.11 | X-H torsion
[ 7974 7965 7964 7962 ] final   79.60 input  175.53 | X-H torsion
[ 8008 7997 7996 7995 ] final -164.07 input   59.86 | X-H torsion
[ 10167 10162 10161 10158 ] final  -75.74 input  -65.29 | X-H torsion
[ 10718 10713 10712 10709 ] final -144.31 input   66.30 | X-H torsion
[ 10763 10752 10751 10750 ] final  106.28 input  -60.55 | X-H torsion
[ 11005 11000 10999 10996 ] final  119.73 input  -57.11 | X-H torsion

> <Gold.Protein.ActiveResidues>
 VAL166  LYS551  ARG553  GLY616  TRP617  ASP618  TYR619  PRO620  LYS621  CYS622 
 ASP623  PHE694  ASN695  SER759  ASP760  ASP761  ALA762  ILE779  LEU786  VAL792 
 PHE793  MET794  SER795  GLU796  ALA797  LYS798  CYS799  TRP800  GLU811  SER814 

> <Gold.Protein.RotatedAtoms>
  150.8821  133.7357  159.2928 H   0  0  0  0  0  0  0  0  0  0  0  0  # atno 6907 bound_to 6896
  151.4935  135.1057  159.9819 H   0  0  0  0  0  0  0  0  0  0  0  0  # atno 6908 bound_to 6896
  152.4767  133.8108  159.7058 H   0  0  0  0  0  0  0  0  0  0  0  0  # atno 6909 bound_to 6896
  145.6621  139.2474  143.1917 H   0  0  0  0  0  0  0  0  0  0  0  0  # atno 7974 bound_to 7965
  155.8304  140.0933  157.1796 H   0  0  0  0  0  0  0  0  0  0  0  0  # atno 8008 bound_to 7997
  154.3980  140.1420  156.3667 H   0  0  0  0  0  0  0  0  0  0  0  0  # atno 8009 bound_to 7997
  155.8172  140.3447  155.5495 H   0  0  0  0  0  0  0  0  0  0  0  0  # atno 8010 bound_to 7997
  140.4916  143.2379  151.7897 H   0  0  0  0  0  0  0  0  0  0  0  0  # atno 10167 bound_to 10162
  156.3686  130.7776  151.1953 H   0  0  0  0  0  0  0  0  0  0  0  0  # atno 10718 bound_to 10713
  153.3909  135.3882  155.1922 H   0  0  0  0  0  0  0  0  0  0  0  0  # atno 10763 bound_to 10752
  154.8719  135.3748  154.4739 H   0  0  0  0  0  0  0  0  0  0  0  0  # atno 10764 bound_to 10752
  153.5226  135.7086  153.5785 H   0  0  0  0  0  0  0  0  0  0  0  0  # atno 10765 bound_to 10752
  139.9158  134.9630  156.7700 H   0  0  0  0  0  0  0  0  0  0  0  0  # atno 11005 bound_to 11000
  146.1116  140.7421  142.9500 LP  0  0  0  0  0  0  0  0  0  0  0  0  # atno 17320 bound_to 7965
  144.7085  140.3949  143.7099 LP  0  0  0  0  0  0  0  0  0  0  0  0  # atno 17321 bound_to 7965
  139.4852  144.4641  151.9505 LP  0  0  0  0  0  0  0  0  0  0  0  0  # atno 17342 bound_to 10162
  140.3728  144.2834  150.5918 LP  0  0  0  0  0  0  0  0  0  0  0  0  # atno 17343 bound_to 10162
  157.7481  131.0379  150.4478 LP  0  0  0  0  0  0  0  0  0  0  0  0  # atno 17370 bound_to 10713
  156.4701  130.4050  149.6523 LP  0  0  0  0  0  0  0  0  0  0  0  0  # atno 17371 bound_to 10713
  140.6628  133.9629  155.7814 LP  0  0  0  0  0  0  0  0  0  0  0  0  # atno 17394 bound_to 11000
  141.0631  134.0316  157.3631 LP  0  0  0  0  0  0  0  0  0  0  0  0  # atno 17395 bound_to 11000

$$$$
