AV-unprocessed.smi:46|AV-procd|sdf|421|dock2
  -GOLD-   2262016303D 1   1.00000     0.00000
 Structure written by MMmdl.
 35 36  0  0  0  0  0  0  0  0  2 V2000
  152.7524  144.7556  158.2760 C   0  0  0  0  0  0  0  0  0  0  0  0
  152.0405  143.7031  159.1402 C   0  0  0  0  0  0  0  0  0  0  0  0
  153.0132  142.9737  160.0781 C   0  0  0  0  0  0  0  0  0  0  0  0
  151.3140  142.7517  158.3129 N   0  0  0  0  0  0  0  0  0  0  0  0
  151.2406  142.6814  156.9371 C   0  0  0  0  0  0  0  0  0  0  0  0
  150.4497  141.6124  156.6147 C   0  0  0  0  0  0  0  0  0  0  0  0
  150.0226  141.0898  155.2587 C   0  0  2  0  0  0  0  0  0  0  0  0
  148.5001  141.0220  155.0910 C   0  0  0  0  0  0  0  0  0  0  0  0
  148.0843  139.7091  155.6176 N   0  3  0  0  0  0  0  0  0  0  0  0
  149.2662  138.8238  155.6328 C   0  0  0  0  0  0  0  0  0  0  0  0
  150.4271  139.6224  155.0183 C   0  0  2  0  0  0  0  0  0  0  0  0
  151.8113  139.1813  155.5348 C   0  0  0  0  0  0  0  0  0  0  0  0
  152.8299  139.7981  154.7767 O   0  0  0  0  0  0  0  0  0  0  0  0
  150.0975  141.0766  157.8863 C   0  0  0  0  0  0  0  0  0  0  0  0
  150.6156  141.7551  158.8954 N   0  0  0  0  0  0  0  0  0  0  0  0
  150.4471  141.7209  154.4766 H   0  0  0  0  0  0  0  0  0  0  0  0
  150.3926  139.4483  153.9409 H   0  0  0  0  0  0  0  0  0  0  0  0
  153.2397  145.5060  158.8989 H   0  0  0  0  0  0  0  0  0  0  0  0
  152.0447  145.2750  157.6290 H   0  0  0  0  0  0  0  0  0  0  0  0
  153.5175  144.3059  157.6425 H   0  0  0  0  0  0  0  0  0  0  0  0
  151.3129  144.2289  159.7614 H   0  0  0  0  0  0  0  0  0  0  0  0
  153.5194  143.6772  160.7397 H   0  0  0  0  0  0  0  0  0  0  0  0
  153.7782  142.4338  159.5193 H   0  0  0  0  0  0  0  0  0  0  0  0
  152.4865  142.2535  160.7050 H   0  0  0  0  0  0  0  0  0  0  0  0
  151.7498  143.3964  156.3082 H   0  0  0  0  0  0  0  0  0  0  0  0
  147.9709  141.8487  155.5663 H   0  0  0  0  0  0  0  0  0  0  0  0
  148.2514  141.0393  154.0290 H   0  0  0  0  0  0  0  0  0  0  0  0
  147.7517  139.8196  156.5648 H   0  0  0  0  0  0  0  0  0  0  0  0
  149.4790  138.5592  156.6693 H   0  0  0  0  0  0  0  0  0  0  0  0
  149.0730  137.9009  155.0853 H   0  0  0  0  0  0  0  0  0  0  0  0
  151.9472  139.4180  156.5905 H   0  0  0  0  0  0  0  0  0  0  0  0
  151.9191  138.1005  155.4377 H   0  0  0  0  0  0  0  0  0  0  0  0
  153.1987  139.1575  154.1873 H   0  0  0  0  0  0  0  0  0  0  0  0
  149.4776  140.2193  158.1036 H   0  0  0  0  0  0  0  0  0  0  0  0
  147.3506  139.3197  155.0429 H   0  0  0  0  0  0  0  0  0  0  0  0
  1  2  1  0  0  0  0
  1 18  1  0  0  0  0
  1 19  1  0  0  0  0
  1 20  1  0  0  0  0
  2  3  1  0  0  0  0
  2  4  1  0  0  0  0
  2 21  1  0  0  0  0
  3 22  1  0  0  0  0
  3 23  1  0  0  0  0
  3 24  1  0  0  0  0
  4 15  1  0  0  0  0
  4  5  1  0  0  0  0
  5  6  2  0  0  0  0
  5 25  1  0  0  0  0
  6  7  1  0  0  0  0
  6 14  1  0  0  0  0
  7 16  1  0  0  0  0
  7 11  1  0  0  0  0
  7  8  1  0  0  0  0
  8  9  1  0  0  0  0
  8 26  1  0  0  0  0
  8 27  1  0  0  0  0
  9 10  1  0  0  0  0
  9 28  1  0  0  0  0
  9 35  1  0  0  0  0
 10 11  1  0  0  0  0
 10 29  1  0  0  0  0
 10 30  1  0  0  0  0
 11 17  1  0  0  0  0
 11 12  1  0  0  0  0
 12 13  1  0  0  0  0
 12 31  1  0  0  0  0
 12 32  1  0  0  0  0
 13 33  1  0  0  0  0
 14 15  2  0  0  0  0
 14 34  1  0  0  0  0
M  CHG  1   9   1
M  END
> <s_m_source_file>
AV-unprocessed.smi

> <i_m_source_file_index>
46

> <i_lp_mmshare_version>
43012

> <i_f3d_flags>
0

> <s_epik_input>
W0NIM11bQ0hdKFtDSDNdKW4xW2NIXWMoW2NIXW4xKVtDQEBIXTJbQ0gyXVtOSF1bQ0gyXVtDQEhdMltDSDJdW09IXQ==

> <s_epik_cmdline>
J2VwaWtfcHl0aG9uJywgJy1waCcsICc3LjAnLCAnLXRuJywgJzgnLCAnLW1hJywgJzIwMCcsICctbWV0YWxfYmluZGluZycsICctaW1hZScsICc8aW5maWxlLm1hZT4nLCAnLW9tYWUnLCAnPG91dGZpbGUubWFlPic=

> <r_lp_tautomer_probability>
1

> <r_epik_Ionization_Penalty>
0.000236226

> <r_epik_Ionization_Penalty_Charging>
0.00021985

> <r_epik_Ionization_Penalty_Neutral>
1.63752e-05

> <r_epik_State_Penalty>
-0

> <r_epik_Charging_Adjusted_Penalty>
0.00021985

> <i_epik_Tot_Q>
1

> <i_epik_Tot_abs_Q>
1

> <r_epik_Metal_State_Penalty>
-0

> <b_epik_Metal_Only>
0

> <s_lp_Force_Field>
OPLS_2005

> <r_lp_Energy>
33.6612

> <b_lp_Chiralities_Consistent>
1

> <s_lp_Variant>
AV-unprocessed.smi:46-3

> <Gold.Version>
5.8.1

> <Gold.Id.Protein>
6NUR|6NUR_protein|mol2

> <Gold.PLP.Fitness>
37.7764

> <Gold.PLP.PLP>
-33.5241

> <Gold.PLP.part.hbond>
-2.4233

> <Gold.PLP.part.metal>
0.0000

> <Gold.PLP.part.buried>
-3.1373

> <Gold.PLP.part.nonpolar>
-27.4408

> <Gold.PLP.part.repulsive>
0.0108

> <Gold.PLP.ligand.clash>
0.0000

> <Gold.PLP.ligand.torsion>
0.0747

> <Gold.PLP.Chemscore.Hbond>
1.4480

> <Gold.PLP.Chemscore.CHOScore>
0.0000

> <Gold.PLP.Chemscore.Metal>
0.0000

> <Gold.Chemscore.Hbonds>
donor molecule, donor type, donor heavy atom, donor atom, acceptor molecule, acceptor atom, score
      P1  H  7989  7998       L1    13  0.43
      P1  H  7997  8008       L1    13  1.00

> <Gold.PLP.Chemscore.Internal.Correction>
0.0577

> <Gold.Rescore>
     Score         DG    S(hbond)    S(metal)    S(lipo)     H(rot)  DE(clash)    DE(int)     intcor
     13.57     -13.83       0.83        0.00      89.18       1.90       0.17       0.08       ----

> <Gold.Chemscore.Fitness>
13.5688

> <Gold.Chemscore.DG>
-13.8254

> <Gold.Chemscore.ZeroCoef>
-5.4800

> <Gold.Chemscore.Hbond>
0.8293

> <Gold.Chemscore.Metal>
0.0000

> <Gold.Chemscore.Lipo>
89.1753

> <Gold.Chemscore.Internal_Hbond>
0.0000

> <Gold.Chemscore.DEClash>
0.1724

> <Gold.Chemscore.DEInternal>
0.0842

> <Gold.Chemscore.Rot>
1.8976

> <Gold.Chemscore.Internal.Correction>
   9.000000E+99

> <Gold.Chemscore.Hbonds>
donor molecule, donor type, donor heavy atom, donor atom, acceptor molecule, acceptor atom, score
      P1  H  7989  7998       L1    13  0.03
      P1  H  7997  8008       L1    13  0.19

> <Gold.Chemscore.Hbond.Weighted>
-2.7698

> <Gold.Chemscore.Metal.Weighted>
-0.0000

> <Gold.Chemscore.Lipo.Weighted>
-10.4335

> <Gold.Chemscore.Internal_Hbond.Weighted>
0.0000

> <Gold.Chemscore.DEClash.Weighted>
0.1724

> <Gold.Chemscore.DEInternal.Weighted>
0.0842

> <Gold.Chemscore.Rot.Weighted>
4.8579

> <Gold.Chemscore.Internal.Correction.Weighted>
   9.000000E+99

> <Gold.Protein.RotatedTorsions>
[ 6907 6896 6895 6894 ] final -116.35 input  -60.11 | X-H torsion
[ 7974 7965 7964 7962 ] final   91.33 input  175.53 | X-H torsion
[ 8008 7997 7996 7995 ] final  -18.18 input   59.86 | X-H torsion
[ 10167 10162 10161 10158 ] final   -6.93 input  -65.29 | X-H torsion
[ 10718 10713 10712 10709 ] final   55.12 input   66.30 | X-H torsion
[ 10763 10752 10751 10750 ] final  -55.44 input  -60.55 | X-H torsion
[ 11005 11000 10999 10996 ] final   94.62 input  -57.11 | X-H torsion

> <Gold.Protein.ActiveResidues>
 VAL166  LYS551  ARG553  GLY616  TRP617  ASP618  TYR619  PRO620  LYS621  CYS622 
 ASP623  PHE694  ASN695  SER759  ASP760  ASP761  ALA762  ILE779  LEU786  VAL792 
 PHE793  MET794  SER795  GLU796  ALA797  LYS798  CYS799  TRP800  GLU811  SER814 

> <Gold.Protein.RotatedAtoms>
  150.8049  133.8529  159.3210 H   0  0  0  0  0  0  0  0  0  0  0  0  # atno 6907 bound_to 6896
  151.6331  135.1019  160.0135 H   0  0  0  0  0  0  0  0  0  0  0  0  # atno 6908 bound_to 6896
  152.4139  133.6967  159.6457 H   0  0  0  0  0  0  0  0  0  0  0  0  # atno 6909 bound_to 6896
  145.5071  139.2276  143.2745 H   0  0  0  0  0  0  0  0  0  0  0  0  # atno 7974 bound_to 7965
  154.4925  140.2123  155.9519 H   0  0  0  0  0  0  0  0  0  0  0  0  # atno 8008 bound_to 7997
  156.1324  140.3194  155.8338 H   0  0  0  0  0  0  0  0  0  0  0  0  # atno 8009 bound_to 7997
  155.4271  140.0501  157.3012 H   0  0  0  0  0  0  0  0  0  0  0  0  # atno 8010 bound_to 7997
  140.7013  143.6138  150.8678 H   0  0  0  0  0  0  0  0  0  0  0  0  # atno 10167 bound_to 10162
  157.5317  130.8635  149.8696 H   0  0  0  0  0  0  0  0  0  0  0  0  # atno 10718 bound_to 10713
  154.1909  135.6427  153.5060 H   0  0  0  0  0  0  0  0  0  0  0  0  # atno 10763 bound_to 10752
  153.0035  135.5428  154.6416 H   0  0  0  0  0  0  0  0  0  0  0  0  # atno 10764 bound_to 10752
  154.5805  135.2925  155.0711 H   0  0  0  0  0  0  0  0  0  0  0  0  # atno 10765 bound_to 10752
  139.8797  134.8855  156.3891 H   0  0  0  0  0  0  0  0  0  0  0  0  # atno 11005 bound_to 11000
  146.2190  140.5875  142.9026 LP  0  0  0  0  0  0  0  0  0  0  0  0  # atno 17320 bound_to 7965
  144.7748  140.5715  143.6646 LP  0  0  0  0  0  0  0  0  0  0  0  0  # atno 17321 bound_to 7965
  139.9860  143.5899  152.2926 LP  0  0  0  0  0  0  0  0  0  0  0  0  # atno 17342 bound_to 10162
  139.6537  144.7661  151.2098 LP  0  0  0  0  0  0  0  0  0  0  0  0  # atno 17343 bound_to 10162
  156.0427  130.3735  150.1394 LP  0  0  0  0  0  0  0  0  0  0  0  0  # atno 17370 bound_to 10713
  156.9578  130.9795  151.3485 LP  0  0  0  0  0  0  0  0  0  0  0  0  # atno 17371 bound_to 10713
  140.9345  133.7556  156.0067 LP  0  0  0  0  0  0  0  0  0  0  0  0  # atno 17394 bound_to 11000
  140.8292  134.3199  157.5355 LP  0  0  0  0  0  0  0  0  0  0  0  0  # atno 17395 bound_to 11000

$$$$
