AV-unprocessed.smi:1328|AV-procd|sdf|5481|dock10
  -GOLD-   22720 5 53D 1   1.00000     0.00000
 Structure written by MMmdl.
 38 39  0  0  0  0  0  0  0  0  1 V2000
  146.9869  142.2248  157.1645 C   0  0  0  0  0  0  0  0  0  0  0  0
  146.6718  141.2548  156.0621 C   0  0  0  0  0  0  0  0  0  0  0  0
  145.6049  140.4788  156.1565 N   0  0  0  0  0  0  0  0  0  0  0  0
  145.5926  139.7020  154.9939 O   0  0  0  0  0  0  0  0  0  0  0  0
  146.6657  140.0448  154.2369 C   0  0  0  0  0  0  0  0  0  0  0  0
  146.8352  139.3160  152.9470 C   0  0  0  0  0  0  0  0  0  0  0  0
  147.3901  141.0279  154.8536 C   0  0  0  0  0  0  0  0  0  0  0  0
  148.6491  141.7104  154.3795 C   0  0  0  0  0  0  0  0  0  0  0  0
  149.8492  141.3392  155.2582 C   0  0  0  0  0  0  0  0  0  0  0  0
  150.5314  140.3442  155.0086 O   0  0  0  0  0  0  0  0  0  0  0  0
  150.1027  142.1672  156.2839 N   0  0  0  0  0  0  0  0  0  0  0  0
  151.2016  142.0321  157.2376 C   0  0  2  0  0  0  0  0  0  0  0  0
  151.0890  140.6587  157.9171 C   0  0  0  0  0  0  0  0  0  0  0  0
  151.1637  143.1929  158.2547 C   0  0  1  0  0  0  0  0  0  0  0  0
  152.1040  143.0303  159.4475 C   0  0  0  0  0  0  0  0  0  0  0  0
  152.2496  144.4531  159.9522 C   0  0  0  0  0  0  0  0  0  0  0  0
  151.9916  145.3072  158.7079 C   0  0  0  0  0  0  0  0  0  0  0  0
  151.6445  144.3958  157.6716 O   0  0  0  0  0  0  0  0  0  0  0  0
  146.8912  143.2532  156.8163 H   0  0  0  0  0  0  0  0  0  0  0  0
  148.0075  142.0891  157.5225 H   0  0  0  0  0  0  0  0  0  0  0  0
  146.3185  142.1005  158.0175 H   0  0  0  0  0  0  0  0  0  0  0  0
  147.8840  139.2887  152.6508 H   0  0  0  0  0  0  0  0  0  0  0  0
  146.2709  139.8035  152.1522 H   0  0  0  0  0  0  0  0  0  0  0  0
  146.4844  138.2873  153.0314 H   0  0  0  0  0  0  0  0  0  0  0  0
  148.8840  141.4335  153.3513 H   0  0  0  0  0  0  0  0  0  0  0  0
  148.5246  142.7941  154.3798 H   0  0  0  0  0  0  0  0  0  0  0  0
  149.4924  142.9619  156.4079 H   0  0  0  0  0  0  0  0  0  0  0  0
  152.1535  142.0593  156.7042 H   0  0  0  0  0  0  0  0  0  0  0  0
  151.9283  140.4768  158.5883 H   0  0  0  0  0  0  0  0  0  0  0  0
  151.0855  139.8553  157.1795 H   0  0  0  0  0  0  0  0  0  0  0  0
  150.1717  140.5782  158.5013 H   0  0  0  0  0  0  0  0  0  0  0  0
  150.1441  143.3582  158.6087 H   0  0  0  0  0  0  0  0  0  0  0  0
  151.7173  142.3514  160.2081 H   0  0  0  0  0  0  0  0  0  0  0  0
  153.0731  142.6546  159.1164 H   0  0  0  0  0  0  0  0  0  0  0  0
  151.4967  144.6645  160.7125 H   0  0  0  0  0  0  0  0  0  0  0  0
  153.2314  144.6353  160.3901 H   0  0  0  0  0  0  0  0  0  0  0  0
  151.1701  146.0039  158.8785 H   0  0  0  0  0  0  0  0  0  0  0  0
  152.8703  145.8828  158.4157 H   0  0  0  0  0  0  0  0  0  0  0  0
  1  2  1  0  0  0  0
  1 19  1  0  0  0  0
  1 20  1  0  0  0  0
  1 21  1  0  0  0  0
  2  7  1  0  0  0  0
  2  3  2  0  0  0  0
  3  4  1  0  0  0  0
  4  5  1  0  0  0  0
  5  6  1  0  0  0  0
  5  7  2  0  0  0  0
  6 22  1  0  0  0  0
  6 23  1  0  0  0  0
  6 24  1  0  0  0  0
  7  8  1  0  0  0  0
  8  9  1  0  0  0  0
  8 25  1  0  0  0  0
  8 26  1  0  0  0  0
  9 10  2  0  0  0  0
  9 11  1  0  0  0  0
 11 12  1  0  0  0  0
 11 27  1  0  0  0  0
 12 13  1  0  0  0  0
 12 14  1  0  0  0  0
 12 28  1  0  0  0  0
 13 29  1  0  0  0  0
 13 30  1  0  0  0  0
 13 31  1  0  0  0  0
 14 18  1  0  0  0  0
 14 15  1  0  0  0  0
 14 32  1  0  0  0  0
 15 16  1  0  0  0  0
 15 33  1  0  0  0  0
 15 34  1  0  0  0  0
 16 17  1  0  0  0  0
 16 35  1  0  0  0  0
 16 36  1  0  0  0  0
 17 18  1  0  0  0  0
 17 37  1  0  0  0  0
 17 38  1  0  0  0  0
M  END
> <s_m_source_file>
AV-unprocessed.smi

> <i_m_source_file_index>
1328

> <i_lp_mmshare_version>
43012

> <i_f3d_flags>
0

> <s_epik_input>
W0NIM11jMW5vYyhbQ0gzXSljMVtDSDJdQyg9TylbTkhdW0NASF0oW0NIM10pW0NAQEhdMltDSDJdW0NIMl1bQ0gyXU8y

> <s_epik_cmdline>
J2VwaWtfcHl0aG9uJywgJy1waCcsICc3LjAnLCAnLXRuJywgJzgnLCAnLW1hJywgJzIwMCcsICctbWV0YWxfYmluZGluZycsICctaW1hZScsICc8aW5maWxlLm1hZT4nLCAnLW9tYWUnLCAnPG91dGZpbGUubWFlPic=

> <r_lp_tautomer_probability>
1

> <r_epik_Ionization_Penalty>
2.66156e-08

> <r_epik_Ionization_Penalty_Charging>
0

> <r_epik_Ionization_Penalty_Neutral>
2.66156e-08

> <r_epik_State_Penalty>
-0

> <r_epik_Charging_Adjusted_Penalty>
0

> <i_epik_Tot_Q>
0

> <i_epik_Tot_abs_Q>
0

> <r_epik_Metal_State_Penalty>
-0

> <b_epik_Metal_Only>
0

> <s_lp_Force_Field>
OPLS_2005

> <r_lp_Energy>
12.7116

> <b_lp_Chiralities_Consistent>
1

> <s_lp_Variant>
AV-unprocessed.smi:1328-3

> <Gold.Version>
5.8.1

> <Gold.Id.Protein>
6NUR|6NUR_protein|mol2

> <Gold.PLP.Fitness>
38.7285

> <Gold.PLP.PLP>
-34.1529

> <Gold.PLP.part.hbond>
-2.0000

> <Gold.PLP.part.metal>
0.0000

> <Gold.PLP.part.buried>
-4.9099

> <Gold.PLP.part.nonpolar>
-27.6288

> <Gold.PLP.part.repulsive>
0.4250

> <Gold.PLP.ligand.clash>
0.0000

> <Gold.PLP.ligand.torsion>
0.6241

> <Gold.PLP.Chemscore.Hbond>
1.9280

> <Gold.PLP.Chemscore.CHOScore>
0.0000

> <Gold.PLP.Chemscore.Metal>
0.0000

> <Gold.Chemscore.Hbonds>
donor molecule, donor type, donor heavy atom, donor atom, acceptor molecule, acceptor atom, score
      L1  H    11    27       P1  8028  0.93
      P1  H  7989  7998       L1    10  1.00

> <Gold.PLP.Chemscore.Internal.Correction>
0.0397

> <Gold.Rescore>
     Score         DG    S(hbond)    S(metal)    S(lipo)     H(rot)  DE(clash)    DE(int)     intcor
     15.96     -17.82       1.65        0.00      91.39       1.52       0.33       1.53       ----

> <Gold.Chemscore.Fitness>
15.9586

> <Gold.Chemscore.DG>
-17.8167

> <Gold.Chemscore.ZeroCoef>
-5.4800

> <Gold.Chemscore.Hbond>
1.6542

> <Gold.Chemscore.Metal>
0.0000

> <Gold.Chemscore.Lipo>
91.3888

> <Gold.Chemscore.Internal_Hbond>
0.0000

> <Gold.Chemscore.DEClash>
0.3276

> <Gold.Chemscore.DEInternal>
1.5305

> <Gold.Chemscore.Rot>
1.5159

> <Gold.Chemscore.Internal.Correction>
   9.000000E+99

> <Gold.Chemscore.Hbonds>
donor molecule, donor type, donor heavy atom, donor atom, acceptor molecule, acceptor atom, score
      L1  H    11    27       P1  8028  0.86
      P1  H  7989  7998       L1    10  0.44

> <Gold.Chemscore.Hbond.Weighted>
-5.5250

> <Gold.Chemscore.Metal.Weighted>
-0.0000

> <Gold.Chemscore.Lipo.Weighted>
-10.6925

> <Gold.Chemscore.Internal_Hbond.Weighted>
0.0000

> <Gold.Chemscore.DEClash.Weighted>
0.3276

> <Gold.Chemscore.DEInternal.Weighted>
1.5305

> <Gold.Chemscore.Rot.Weighted>
3.8807

> <Gold.Chemscore.Internal.Correction.Weighted>
   9.000000E+99

> <Gold.Protein.RotatedTorsions>
[ 6907 6896 6895 6894 ] final   60.83 input  -60.11 | X-H torsion
[ 7974 7965 7964 7962 ] final -104.53 input  175.53 | X-H torsion
[ 8008 7997 7996 7995 ] final -138.76 input   59.86 | X-H torsion
[ 10167 10162 10161 10158 ] final  -24.37 input  -65.29 | X-H torsion
[ 10718 10713 10712 10709 ] final  -87.69 input   66.30 | X-H torsion
[ 10763 10752 10751 10750 ] final -123.39 input  -60.55 | X-H torsion
[ 11005 11000 10999 10996 ] final -123.03 input  -57.11 | X-H torsion

> <Gold.Protein.ActiveResidues>
 VAL166  LYS551  ARG553  GLY616  TRP617  ASP618  TYR619  PRO620  LYS621  CYS622 
 ASP623  PHE694  ASN695  SER759  ASP760  ASP761  ALA762  ILE779  LEU786  VAL792 
 PHE793  MET794  SER795  GLU796  ALA797  LYS798  CYS799  TRP800  GLU811  SER814 

> <Gold.Protein.RotatedAtoms>
  152.4037  134.6243  160.0058 H   0  0  0  0  0  0  0  0  0  0  0  0  # atno 6907 bound_to 6896
  151.6441  133.3319  159.3145 H   0  0  0  0  0  0  0  0  0  0  0  0  # atno 6908 bound_to 6896
  150.7934  134.7017  159.6599 H   0  0  0  0  0  0  0  0  0  0  0  0  # atno 6909 bound_to 6896
  145.2420  140.9208  143.3145 H   0  0  0  0  0  0  0  0  0  0  0  0  # atno 7974 bound_to 7965
  155.4336  140.0527  157.3016 H   0  0  0  0  0  0  0  0  0  0  0  0  # atno 8008 bound_to 7997
  154.4849  140.2096  155.9637 H   0  0  0  0  0  0  0  0  0  0  0  0  # atno 8009 bound_to 7997
  156.1260  140.3180  155.8282 H   0  0  0  0  0  0  0  0  0  0  0  0  # atno 8010 bound_to 7997
  140.7288  143.4359  151.0730 H   0  0  0  0  0  0  0  0  0  0  0  0  # atno 10167 bound_to 10162
  155.9985  130.4809  150.4905 H   0  0  0  0  0  0  0  0  0  0  0  0  # atno 10718 bound_to 10713
  154.8707  135.4100  154.2936 H   0  0  0  0  0  0  0  0  0  0  0  0  # atno 10763 bound_to 10752
  153.3808  135.7011  153.6572 H   0  0  0  0  0  0  0  0  0  0  0  0  # atno 10764 bound_to 10752
  153.5396  135.3651  155.2684 H   0  0  0  0  0  0  0  0  0  0  0  0  # atno 10765 bound_to 10752
  140.9950  134.0484  157.3608 H   0  0  0  0  0  0  0  0  0  0  0  0  # atno 11005 bound_to 11000
  144.9581  139.4010  143.6369 LP  0  0  0  0  0  0  0  0  0  0  0  0  # atno 17320 bound_to 7965
  146.3326  139.8620  142.8854 LP  0  0  0  0  0  0  0  0  0  0  0  0  # atno 17321 bound_to 7965
  139.8021  143.8069  152.3164 LP  0  0  0  0  0  0  0  0  0  0  0  0  # atno 17342 bound_to 10162
  139.8089  144.7344  150.9724 LP  0  0  0  0  0  0  0  0  0  0  0  0  # atno 17343 bound_to 10162
  157.2901  131.0624  151.2140 LP  0  0  0  0  0  0  0  0  0  0  0  0  # atno 17370 bound_to 10713
  157.3155  130.6911  149.6240 LP  0  0  0  0  0  0  0  0  0  0  0  0  # atno 17371 bound_to 10713
  139.9010  135.0164  156.7270 LP  0  0  0  0  0  0  0  0  0  0  0  0  # atno 17394 bound_to 11000
  140.6980  133.9332  155.8006 LP  0  0  0  0  0  0  0  0  0  0  0  0  # atno 17395 bound_to 11000

$$$$
