AV-unprocessed.smi:21|AV-procd|sdf|123|dock8
  -GOLD-   2262015303D 1   1.00000     0.00000
 Structure written by MMmdl.
 62 65  0  0  0  0  0  0  0  0  2 V2000
  149.7720  130.1815  154.9911 C   0  0  0  0  0  0  0  0  0  0  0  0
  149.3101  130.9309  153.8779 O   0  0  0  0  0  0  0  0  0  0  0  0
  148.2372  131.8091  154.1896 C   0  0  1  0  0  0  0  0  0  0  0  0
  148.6592  132.7381  155.3333 C   0  0  0  0  0  0  0  0  0  0  0  0
  148.9655  134.0741  154.6532 C   0  0  2  0  0  0  0  0  0  0  0  0
  148.9361  135.3088  155.5846 C   0  0  0  0  0  0  0  0  0  0  0  0
  150.0970  135.3813  156.4684 N   0  0  0  0  0  0  0  0  0  0  0  0
  150.9750  134.2151  156.5557 C   0  0  0  0  0  0  0  0  0  0  0  0
  150.4649  136.5425  157.0888 C   0  0  0  0  0  0  0  0  0  0  0  0
  150.6836  136.5004  158.4316 N   0  0  0  0  0  0  0  0  0  0  0  0
  151.0409  137.5932  159.1092 C   0  0  0  0  0  0  0  0  0  0  0  0
  151.2383  138.8274  158.6500 N   0  0  0  0  0  0  0  0  0  0  0  0
  151.0278  138.8919  157.3057 C   0  0  0  0  0  0  0  0  0  0  0  0
  150.6425  137.8139  156.4531 C   0  0  0  0  0  0  0  0  0  0  0  0
  150.5347  138.2868  155.1469 N   0  0  0  0  0  0  0  0  0  0  0  0
  150.8339  139.5536  155.2247 C   0  0  0  0  0  0  0  0  0  0  0  0
  151.1490  139.9996  156.4849 N   0  0  0  0  0  0  0  0  0  0  0  0
  151.5220  141.3547  156.8538 C   0  0  0  0  0  0  0  0  0  0  0  0
  150.6248  141.9520  157.9664 C   0  0  2  0  0  0  0  0  0  0  0  0
  149.1206  141.9255  157.5993 C   0  0  0  0  0  0  0  0  0  0  0  0
  148.9144  142.2565  156.2415 O   0  0  0  0  0  0  0  0  0  0  0  0
  151.0996  143.3662  158.3867 C   0  0  2  0  0  0  0  0  0  0  0  0
  152.2920  143.3870  159.3271 C   0  0  0  0  0  0  0  0  0  0  0  0
  152.2189  144.7953  159.9067 C   0  0  0  0  0  0  0  0  0  0  0  0
  150.8342  145.1177  159.9590 O   0  0  0  0  0  0  0  0  0  0  0  0
  150.0845  144.1662  159.2104 C   0  0  0  0  0  0  0  0  0  0  0  0
  148.0227  134.1339  153.5105 N   0  3  2  0  0  0  0  0  0  0  0  0
  146.6923  134.7210  153.8049 C   0  0  0  0  0  0  0  0  0  0  0  0
  147.9276  132.7468  153.0046 C   0  0  0  0  0  0  0  0  0  0  0  0
  147.3551  131.2428  154.4941 H   0  0  0  0  0  0  0  0  0  0  0  0
  149.9585  133.9920  154.2089 H   0  0  0  0  0  0  0  0  0  0  0  0
  150.5923  129.5350  154.6797 H   0  0  0  0  0  0  0  0  0  0  0  0
  148.9870  129.5482  155.4053 H   0  0  0  0  0  0  0  0  0  0  0  0
  150.1439  130.8368  155.7800 H   0  0  0  0  0  0  0  0  0  0  0  0
  147.8266  132.8584  156.0278 H   0  0  0  0  0  0  0  0  0  0  0  0
  149.5060  132.3529  155.9024 H   0  0  0  0  0  0  0  0  0  0  0  0
  148.8504  136.2320  155.0140 H   0  0  0  0  0  0  0  0  0  0  0  0
  148.0388  135.2812  156.2035 H   0  0  0  0  0  0  0  0  0  0  0  0
  151.0620  133.8749  157.5882 H   0  0  0  0  0  0  0  0  0  0  0  0
  151.9721  134.4530  156.1826 H   0  0  0  0  0  0  0  0  0  0  0  0
  150.5906  133.3825  155.9663 H   0  0  0  0  0  0  0  0  0  0  0  0
  151.1897  137.4596  160.1706 H   0  0  0  0  0  0  0  0  0  0  0  0
  150.8377  140.2014  154.3599 H   0  0  0  0  0  0  0  0  0  0  0  0
  152.5640  141.3307  157.1731 H   0  0  0  0  0  0  0  0  0  0  0  0
  151.4903  141.9825  155.9627 H   0  0  0  0  0  0  0  0  0  0  0  0
  150.7359  141.3063  158.8386 H   0  0  0  0  0  0  0  0  0  0  0  0
  148.6861  140.9445  157.7906 H   0  0  0  0  0  0  0  0  0  0  0  0
  148.5584  142.6255  158.2167 H   0  0  0  0  0  0  0  0  0  0  0  0
  148.7813  143.1898  156.1750 H   0  0  0  0  0  0  0  0  0  0  0  0
  151.3570  143.9448  157.4978 H   0  0  0  0  0  0  0  0  0  0  0  0
  152.1667  142.6490  160.1207 H   0  0  0  0  0  0  0  0  0  0  0  0
  153.2412  143.1935  158.8265 H   0  0  0  0  0  0  0  0  0  0  0  0
  152.6833  144.8675  160.8904 H   0  0  0  0  0  0  0  0  0  0  0  0
  152.7153  145.5050  159.2438 H   0  0  0  0  0  0  0  0  0  0  0  0
  149.3390  144.6602  158.5866 H   0  0  0  0  0  0  0  0  0  0  0  0
  149.5597  143.5184  159.9139 H   0  0  0  0  0  0  0  0  0  0  0  0
  146.1909  134.1865  154.6128 H   0  0  0  0  0  0  0  0  0  0  0  0
  146.0540  134.6748  152.9218 H   0  0  0  0  0  0  0  0  0  0  0  0
  146.7735  135.7718  154.0826 H   0  0  0  0  0  0  0  0  0  0  0  0
  148.6845  132.6333  152.2276 H   0  0  0  0  0  0  0  0  0  0  0  0
  146.9635  132.5270  152.5439 H   0  0  0  0  0  0  0  0  0  0  0  0
  148.4357  134.7085  152.7894 H   0  0  0  0  0  0  0  0  0  0  0  0
  1  2  1  0  0  0  0
  1 32  1  0  0  0  0
  1 33  1  0  0  0  0
  1 34  1  0  0  0  0
  2  3  1  0  0  0  0
  3 30  1  0  0  0  0
  3 29  1  0  0  0  0
  3  4  1  0  0  0  0
  4  5  1  0  0  0  0
  4 35  1  0  0  0  0
  4 36  1  0  0  0  0
  5 31  1  0  0  0  0
  5  6  1  0  0  0  0
  5 27  1  0  0  0  0
  6  7  1  0  0  0  0
  6 37  1  0  0  0  0
  6 38  1  0  0  0  0
  7  8  1  0  0  0  0
  7  9  1  0  0  0  0
  8 39  1  0  0  0  0
  8 40  1  0  0  0  0
  8 41  1  0  0  0  0
  9 14  1  0  0  0  0
  9 10  2  0  0  0  0
 10 11  1  0  0  0  0
 11 12  2  0  0  0  0
 11 42  1  0  0  0  0
 12 13  1  0  0  0  0
 13 17  1  0  0  0  0
 13 14  2  0  0  0  0
 14 15  1  0  0  0  0
 15 16  2  0  0  0  0
 16 17  1  0  0  0  0
 16 43  1  0  0  0  0
 17 18  1  0  0  0  0
 18 19  1  0  0  0  0
 18 44  1  0  0  0  0
 18 45  1  0  0  0  0
 19 20  1  0  0  0  0
 19 22  1  0  0  0  0
 19 46  1  0  0  0  0
 20 21  1  0  0  0  0
 20 47  1  0  0  0  0
 20 48  1  0  0  0  0
 21 49  1  0  0  0  0
 22 26  1  0  0  0  0
 22 23  1  0  0  0  0
 22 50  1  0  0  0  0
 23 24  1  0  0  0  0
 23 51  1  0  0  0  0
 23 52  1  0  0  0  0
 24 25  1  0  0  0  0
 24 53  1  0  0  0  0
 24 54  1  0  0  0  0
 25 26  1  0  0  0  0
 26 55  1  0  0  0  0
 26 56  1  0  0  0  0
 27 28  1  0  0  0  0
 27 29  1  0  0  0  0
 27 62  1  0  0  0  0
 28 57  1  0  0  0  0
 28 58  1  0  0  0  0
 28 59  1  0  0  0  0
 29 60  1  0  0  0  0
 29 61  1  0  0  0  0
M  CHG  1  27   1
M  END
> <s_m_source_file>
AV-unprocessed.smi

> <i_m_source_file_index>
21

> <i_lp_mmshare_version>
43012

> <i_f3d_flags>
0

> <s_epik_input>
W0NIM11PW0NASF0xW0NIMl1bQ0BIXShOKFtDSDNdKVtDSDJdMSlbQ0gyXU4oW0NIM10pYyhuW2NIXW4yKWMoYzIzKW5bY0hdbjNbQ0gyXVtDQEhdKFtDSDJdW09IXSlbQ0BASF00W0NIMl1bQ0gyXU9bQ0gyXTQ=

> <s_epik_cmdline>
J2VwaWtfcHl0aG9uJywgJy1waCcsICc3LjAnLCAnLXRuJywgJzgnLCAnLW1hJywgJzIwMCcsICctbWV0YWxfYmluZGluZycsICctaW1hZScsICc8aW5maWxlLm1hZT4nLCAnLW9tYWUnLCAnPG91dGZpbGUubWFlPic=

> <r_lp_tautomer_probability>
1

> <r_epik_Ionization_Penalty>
0.0157465

> <r_epik_Ionization_Penalty_Charging>
0.015354

> <r_epik_Ionization_Penalty_Neutral>
0.000392529

> <r_epik_State_Penalty>
0.0120612

> <r_epik_Charging_Adjusted_Penalty>
0.0274152

> <i_epik_Tot_Q>
1

> <i_epik_Tot_abs_Q>
1

> <r_epik_Metal_State_Penalty>
0.0121253

> <b_epik_Metal_Only>
0

> <s_lp_Force_Field>
OPLS_2005

> <r_lp_Energy>
63.0646

> <b_lp_Chiralities_Consistent>
1

> <s_lp_Variant>
AV-unprocessed.smi:21-3

> <Gold.Version>
5.8.1

> <Gold.Id.Protein>
6NUR|6NUR_protein|mol2

> <Gold.PLP.Fitness>
50.4508

> <Gold.PLP.PLP>
-42.8752

> <Gold.PLP.part.hbond>
-3.0000

> <Gold.PLP.part.metal>
0.0000

> <Gold.PLP.part.buried>
-6.7701

> <Gold.PLP.part.nonpolar>
-33.8197

> <Gold.PLP.part.repulsive>
0.3787

> <Gold.PLP.ligand.clash>
0.0000

> <Gold.PLP.ligand.torsion>
1.9838

> <Gold.PLP.Chemscore.Hbond>
3.7238

> <Gold.PLP.Chemscore.CHOScore>
0.0000

> <Gold.PLP.Chemscore.Metal>
0.0000

> <Gold.Chemscore.Hbonds>
donor molecule, donor type, donor heavy atom, donor atom, acceptor molecule, acceptor atom, score
      L1  H    21    49       P1  8028  1.00
      L1  H    27    62       P1  7948  2.00
      P1  H  6896  6908       L1    10  0.80

> <Gold.PLP.Chemscore.Internal.Correction>
0.3716

> <Gold.Rescore>
     Score         DG    S(hbond)    S(metal)    S(lipo)     H(rot)  DE(clash)    DE(int)     intcor
     13.95     -16.31       2.60        0.00      85.73       3.08       0.01       2.34       ----

> <Gold.Chemscore.Fitness>
13.9549

> <Gold.Chemscore.DG>
-16.3059

> <Gold.Chemscore.ZeroCoef>
-5.4800

> <Gold.Chemscore.Hbond>
2.5956

> <Gold.Chemscore.Metal>
0.0000

> <Gold.Chemscore.Lipo>
85.7338

> <Gold.Chemscore.Internal_Hbond>
0.0000

> <Gold.Chemscore.DEClash>
0.0089

> <Gold.Chemscore.DEInternal>
2.3422

> <Gold.Chemscore.Rot>
3.0758

> <Gold.Chemscore.Internal.Correction>
   9.000000E+99

> <Gold.Chemscore.Hbonds>
donor molecule, donor type, donor heavy atom, donor atom, acceptor molecule, acceptor atom, score
      L1  H    21    49       P1  8028  0.98
      L1  H    27    62       P1  7948  0.35
      P1  H  6896  6908       L1    10  0.46

> <Gold.Chemscore.Hbond.Weighted>
-8.6692

> <Gold.Chemscore.Metal.Weighted>
-0.0000

> <Gold.Chemscore.Lipo.Weighted>
-10.0309

> <Gold.Chemscore.Internal_Hbond.Weighted>
0.0000

> <Gold.Chemscore.DEClash.Weighted>
0.0089

> <Gold.Chemscore.DEInternal.Weighted>
2.3422

> <Gold.Chemscore.Rot.Weighted>
7.8741

> <Gold.Chemscore.Internal.Correction.Weighted>
   9.000000E+99

> <Gold.Protein.RotatedTorsions>
[ 6907 6896 6895 6894 ] final -166.23 input  -60.11 | X-H torsion
[ 7974 7965 7964 7962 ] final  -15.48 input  175.53 | X-H torsion
[ 8008 7997 7996 7995 ] final   63.08 input   59.86 | X-H torsion
[ 10167 10162 10161 10158 ] final  100.09 input  -65.29 | X-H torsion
[ 10718 10713 10712 10709 ] final  -43.17 input   66.30 | X-H torsion
[ 10763 10752 10751 10750 ] final  160.70 input  -60.55 | X-H torsion
[ 11005 11000 10999 10996 ] final -105.43 input  -57.11 | X-H torsion

> <Gold.Protein.ActiveResidues>
 VAL166  LYS551  ARG553  GLY616  TRP617  ASP618  TYR619  PRO620  LYS621  CYS622 
 ASP623  PHE694  ASN695  SER759  ASP760  ASP761  ALA762  ILE779  LEU786  VAL792 
 PHE793  MET794  SER795  GLU796  ALA797  LYS798  CYS799  TRP800  GLU811  SER814 

> <Gold.Protein.RotatedAtoms>
  151.4403  133.3645  159.2780 H   0  0  0  0  0  0  0  0  0  0  0  0  # atno 6907 bound_to 6896
  150.9162  134.8581  159.7469 H   0  0  0  0  0  0  0  0  0  0  0  0  # atno 6908 bound_to 6896
  152.4958  134.4337  159.9572 H   0  0  0  0  0  0  0  0  0  0  0  0  # atno 6909 bound_to 6896
  146.2030  140.3499  142.8417 H   0  0  0  0  0  0  0  0  0  0  0  0  # atno 7974 bound_to 7965
  155.6246  140.3496  155.4663 H   0  0  0  0  0  0  0  0  0  0  0  0  # atno 8008 bound_to 7997
  156.0052  140.1221  157.0532 H   0  0  0  0  0  0  0  0  0  0  0  0  # atno 8009 bound_to 7997
  154.4262  140.1092  156.5738 H   0  0  0  0  0  0  0  0  0  0  0  0  # atno 8010 bound_to 7997
  139.7558  144.6970  151.0364 H   0  0  0  0  0  0  0  0  0  0  0  0  # atno 10167 bound_to 10162
  156.2518  130.4189  149.8641 H   0  0  0  0  0  0  0  0  0  0  0  0  # atno 10718 bound_to 10713
  154.2515  135.2771  155.2814 H   0  0  0  0  0  0  0  0  0  0  0  0  # atno 10763 bound_to 10752
  154.5461  135.5688  153.6884 H   0  0  0  0  0  0  0  0  0  0  0  0  # atno 10764 bound_to 10752
  152.9979  135.6263  154.2662 H   0  0  0  0  0  0  0  0  0  0  0  0  # atno 10765 bound_to 10752
  141.1054  133.8807  157.1733 H   0  0  0  0  0  0  0  0  0  0  0  0  # atno 11005 bound_to 11000
  144.8727  140.7294  143.6037 LP  0  0  0  0  0  0  0  0  0  0  0  0  # atno 17320 bound_to 7965
  145.3418  139.1730  143.4481 LP  0  0  0  0  0  0  0  0  0  0  0  0  # atno 17321 bound_to 7965
  140.7802  143.4754  151.0089 LP  0  0  0  0  0  0  0  0  0  0  0  0  # atno 17342 bound_to 10162
  139.8441  143.7524  152.3179 LP  0  0  0  0  0  0  0  0  0  0  0  0  # atno 17343 bound_to 10162
  156.6186  130.8617  151.3470 LP  0  0  0  0  0  0  0  0  0  0  0  0  # atno 17370 bound_to 10713
  157.7217  130.9568  150.1467 LP  0  0  0  0  0  0  0  0  0  0  0  0  # atno 17371 bound_to 10713
  139.9921  135.0060  157.0000 LP  0  0  0  0  0  0  0  0  0  0  0  0  # atno 17394 bound_to 11000
  140.4916  134.1187  155.7234 LP  0  0  0  0  0  0  0  0  0  0  0  0  # atno 17395 bound_to 11000

$$$$
