AV-unprocessed.smi:647|AV-procd|sdf|3169|dock1
  -GOLD-   22720 0 93D 1   1.00000     0.00000
 Structure written by MMmdl.
 46 48  0  0  0  0  0  0  0  0  1 V2000
  144.5294  137.2028  152.3770 O   0  0  0  0  0  0  0  0  0  0  0  0
  145.6809  137.1471  151.9426 C   0  0  0  0  0  0  0  0  0  0  0  0
  146.4919  138.4280  151.7167 C   0  0  0  0  0  0  0  0  0  0  0  0
  147.6810  138.4985  152.5620 N   0  0  0  0  0  0  0  0  0  0  0  0
  147.9867  139.5210  153.3749 C   0  0  0  0  0  0  0  0  0  0  0  0
  147.2802  140.5219  153.4999 O   0  0  0  0  0  0  0  0  0  0  0  0
  149.1456  139.3016  154.0203 N   0  0  0  0  0  0  0  0  0  0  0  0
  149.7851  140.1348  154.9757 C   0  0  0  0  0  0  0  0  0  0  0  0
  148.9219  140.9297  155.7588 C   0  0  0  0  0  0  0  0  0  0  0  0
  149.4899  141.7837  156.7193 C   0  0  0  0  0  0  0  0  0  0  0  0
  150.8924  141.7886  156.8341 C   0  0  0  0  0  0  0  0  0  0  0  0
  151.6127  142.6477  157.8261 C   0  0  0  0  0  0  0  0  0  0  0  0
  150.8577  143.4894  158.8314 C   0  0  0  0  0  0  0  0  0  0  0  0
  151.6005  144.1541  157.6991 C   0  0  0  0  0  0  0  0  0  0  0  0
  151.6773  141.0003  156.0663 N   0  0  0  0  0  0  0  0  0  0  0  0
  151.1307  140.1919  155.1523 N   0  0  0  0  0  0  0  0  0  0  0  0
  146.2933  135.9978  151.6200 N   0  0  0  0  0  0  0  0  0  0  0  0
  145.7134  134.6649  151.7500 C   0  0  0  0  0  0  0  0  0  0  0  0
  146.7348  133.5832  151.3387 C   0  0  0  0  0  0  0  0  0  0  0  0
  146.1166  132.1768  151.3904 C   0  0  0  0  0  0  0  0  0  0  0  0
  144.8482  132.0923  150.5269 C   0  0  0  0  0  0  0  0  0  0  0  0
  143.8257  133.1631  150.9387 C   0  0  0  0  0  0  0  0  0  0  0  0
  144.4411  134.5710  150.8861 C   0  0  0  0  0  0  0  0  0  0  0  0
  146.7741  138.5188  150.6659 H   0  0  0  0  0  0  0  0  0  0  0  0
  145.8566  139.2839  151.9446 H   0  0  0  0  0  0  0  0  0  0  0  0
  148.3199  137.7187  152.5127 H   0  0  0  0  0  0  0  0  0  0  0  0
  149.6177  138.4338  153.8146 H   0  0  0  0  0  0  0  0  0  0  0  0
  147.8505  140.8898  155.6275 H   0  0  0  0  0  0  0  0  0  0  0  0
  148.8710  142.4110  157.3434 H   0  0  0  0  0  0  0  0  0  0  0  0
  152.5351  142.1740  158.1568 H   0  0  0  0  0  0  0  0  0  0  0  0
  149.7705  143.4990  158.7839 H   0  0  0  0  0  0  0  0  0  0  0  0
  151.2838  143.5973  159.8268 H   0  0  0  0  0  0  0  0  0  0  0  0
  152.5100  144.6929  157.9568 H   0  0  0  0  0  0  0  0  0  0  0  0
  151.0055  144.5931  156.9003 H   0  0  0  0  0  0  0  0  0  0  0  0
  147.2385  136.0495  151.2686 H   0  0  0  0  0  0  0  0  0  0  0  0
  145.4282  134.5036  152.7915 H   0  0  0  0  0  0  0  0  0  0  0  0
  147.0965  133.7819  150.3285 H   0  0  0  0  0  0  0  0  0  0  0  0
  147.6084  133.6199  151.9904 H   0  0  0  0  0  0  0  0  0  0  0  0
  146.8451  131.4383  151.0539 H   0  0  0  0  0  0  0  0  0  0  0  0
  145.8736  131.9233  152.4231 H   0  0  0  0  0  0  0  0  0  0  0  0
  145.1114  132.2225  149.4762 H   0  0  0  0  0  0  0  0  0  0  0  0
  144.4040  131.1002  150.6138 H   0  0  0  0  0  0  0  0  0  0  0  0
  142.9538  133.1143  150.2859 H   0  0  0  0  0  0  0  0  0  0  0  0
  143.4679  132.9580  151.9486 H   0  0  0  0  0  0  0  0  0  0  0  0
  143.7068  135.3049  151.2206 H   0  0  0  0  0  0  0  0  0  0  0  0
  144.6778  134.8213  149.8508 H   0  0  0  0  0  0  0  0  0  0  0  0
  1  2  2  0  0  0  0
  2  3  1  0  0  0  0
  2 17  1  0  0  0  0
  3  4  1  0  0  0  0
  3 24  1  0  0  0  0
  3 25  1  0  0  0  0
  4  5  1  0  0  0  0
  4 26  1  0  0  0  0
  5  6  2  0  0  0  0
  5  7  1  0  0  0  0
  7  8  1  0  0  0  0
  7 27  1  0  0  0  0
  8 16  1  0  0  0  0
  8  9  2  0  0  0  0
  9 10  1  0  0  0  0
  9 28  1  0  0  0  0
 10 11  2  0  0  0  0
 10 29  1  0  0  0  0
 11 12  1  0  0  0  0
 11 15  1  0  0  0  0
 12 14  1  0  0  0  0
 12 13  1  0  0  0  0
 12 30  1  0  0  0  0
 13 14  1  0  0  0  0
 13 31  1  0  0  0  0
 13 32  1  0  0  0  0
 14 33  1  0  0  0  0
 14 34  1  0  0  0  0
 15 16  2  0  0  0  0
 17 18  1  0  0  0  0
 17 35  1  0  0  0  0
 18 23  1  0  0  0  0
 18 19  1  0  0  0  0
 18 36  1  0  0  0  0
 19 20  1  0  0  0  0
 19 37  1  0  0  0  0
 19 38  1  0  0  0  0
 20 21  1  0  0  0  0
 20 39  1  0  0  0  0
 20 40  1  0  0  0  0
 21 22  1  0  0  0  0
 21 41  1  0  0  0  0
 21 42  1  0  0  0  0
 22 23  1  0  0  0  0
 22 43  1  0  0  0  0
 22 44  1  0  0  0  0
 23 45  1  0  0  0  0
 23 46  1  0  0  0  0
M  END
> <s_m_source_file>
AV-unprocessed.smi

> <i_m_source_file_index>
647

> <i_lp_mmshare_version>
43012

> <i_f3d_flags>
0

> <s_epik_input>
W0NIMl0xW0NIMl1bQ0gyXVtDSDJdW0NIMl1bQ0hdMVtOSF1DKD1PKVtDSDJdW05IXUMoPU8pW05IXWMyW2NIXVtjSF1jKG5uMilbQ0hdM1tDSDJdW0NIMl0z

> <s_epik_cmdline>
J2VwaWtfcHl0aG9uJywgJy1waCcsICc3LjAnLCAnLXRuJywgJzgnLCAnLW1hJywgJzIwMCcsICctbWV0YWxfYmluZGluZycsICctaW1hZScsICc8aW5maWxlLm1hZT4nLCAnLW9tYWUnLCAnPG91dGZpbGUubWFlPic=

> <r_lp_tautomer_probability>
1

> <r_epik_Ionization_Penalty>
0.00779169

> <r_epik_Ionization_Penalty_Charging>
0

> <r_epik_Ionization_Penalty_Neutral>
0.00779169

> <r_epik_State_Penalty>
-0

> <r_epik_Charging_Adjusted_Penalty>
0

> <i_epik_Tot_Q>
0

> <i_epik_Tot_abs_Q>
0

> <r_epik_Metal_State_Penalty>
-0

> <b_epik_Metal_Only>
0

> <s_lp_Force_Field>
OPLS_2005

> <r_lp_Energy>
15.7946

> <b_lp_Chiralities_Consistent>
1

> <s_lp_Variant>
AV-unprocessed.smi:647-1

> <Gold.Version>
5.8.1

> <Gold.Id.Protein>
6NUR|6NUR_protein|mol2

> <Gold.PLP.Fitness>
50.2930

> <Gold.PLP.PLP>
-42.1623

> <Gold.PLP.part.hbond>
-5.2283

> <Gold.PLP.part.metal>
0.0000

> <Gold.PLP.part.buried>
-2.6132

> <Gold.PLP.part.nonpolar>
-36.4988

> <Gold.PLP.part.repulsive>
1.5429

> <Gold.PLP.ligand.clash>
0.0000

> <Gold.PLP.ligand.torsion>
0.2887

> <Gold.PLP.Chemscore.Hbond>
2.8480

> <Gold.PLP.Chemscore.CHOScore>
0.0000

> <Gold.PLP.Chemscore.Metal>
0.0000

> <Gold.Chemscore.Hbonds>
donor molecule, donor type, donor heavy atom, donor atom, acceptor molecule, acceptor atom, score
      L1  H     4    26       P1  7948  1.00
      L1  H    17    35       P1  7948  0.85
      P1  H  7989  7998       L1    16  1.00

> <Gold.PLP.Chemscore.Internal.Correction>
0.1641

> <Gold.Rescore>
     Score         DG    S(hbond)    S(metal)    S(lipo)     H(rot)  DE(clash)    DE(int)     intcor
     17.70     -19.83       2.40        0.00      91.76       1.72       0.46       1.68       ----

> <Gold.Chemscore.Fitness>
17.6956

> <Gold.Chemscore.DG>
-19.8310

> <Gold.Chemscore.ZeroCoef>
-5.4800

> <Gold.Chemscore.Hbond>
2.3996

> <Gold.Chemscore.Metal>
0.0000

> <Gold.Chemscore.Lipo>
91.7634

> <Gold.Chemscore.Internal_Hbond>
0.0000

> <Gold.Chemscore.DEClash>
0.4556

> <Gold.Chemscore.DEInternal>
1.6797

> <Gold.Chemscore.Rot>
1.7187

> <Gold.Chemscore.Internal.Correction>
   9.000000E+99

> <Gold.Chemscore.Hbonds>
donor molecule, donor type, donor heavy atom, donor atom, acceptor molecule, acceptor atom, score
      L1  H     4    26       P1  7948  0.98
      L1  H    17    35       P1  7948  0.84
      P1  H  7989  7998       L1    16  0.14

> <Gold.Chemscore.Hbond.Weighted>
-8.0146

> <Gold.Chemscore.Metal.Weighted>
-0.0000

> <Gold.Chemscore.Lipo.Weighted>
-10.7363

> <Gold.Chemscore.Internal_Hbond.Weighted>
0.0000

> <Gold.Chemscore.DEClash.Weighted>
0.4556

> <Gold.Chemscore.DEInternal.Weighted>
1.6797

> <Gold.Chemscore.Rot.Weighted>
4.4000

> <Gold.Chemscore.Internal.Correction.Weighted>
   9.000000E+99

> <Gold.Protein.RotatedTorsions>
[ 6907 6896 6895 6894 ] final   20.04 input  -60.11 | X-H torsion
[ 7974 7965 7964 7962 ] final  -63.54 input  175.53 | X-H torsion
[ 8008 7997 7996 7995 ] final  173.77 input   59.86 | X-H torsion
[ 10167 10162 10161 10158 ] final -142.63 input  -65.29 | X-H torsion
[ 10718 10713 10712 10709 ] final    7.23 input   66.30 | X-H torsion
[ 10763 10752 10751 10750 ] final -146.34 input  -60.55 | X-H torsion
[ 11005 11000 10999 10996 ] final  131.33 input  -57.11 | X-H torsion

> <Gold.Protein.ActiveResidues>
 VAL166  LYS551  ARG553  GLY616  TRP617  ASP618  TYR619  PRO620  LYS621  CYS622 
 ASP623  PHE694  ASN695  SER759  ASP760  ASP761  ALA762  ILE779  LEU786  VAL792 
 PHE793  MET794  SER795  GLU796  ALA797  LYS798  CYS799  TRP800  GLU811  SER814 

> <Gold.Protein.RotatedAtoms>
  151.8903  135.0419  160.0496 H   0  0  0  0  0  0  0  0  0  0  0  0  # atno 6907 bound_to 6896
  152.2441  133.5156  159.5296 H   0  0  0  0  0  0  0  0  0  0  0  0  # atno 6908 bound_to 6896
  150.7063  134.0965  159.3993 H   0  0  0  0  0  0  0  0  0  0  0  0  # atno 6909 bound_to 6896
  145.7778  140.8778  143.0346 H   0  0  0  0  0  0  0  0  0  0  0  0  # atno 7974 bound_to 7965
  156.1042  140.1451  156.9426 H   0  0  0  0  0  0  0  0  0  0  0  0  # atno 8008 bound_to 7997
  154.4723  140.0906  156.7219 H   0  0  0  0  0  0  0  0  0  0  0  0  # atno 8009 bound_to 7997
  155.4707  140.3441  155.4327 H   0  0  0  0  0  0  0  0  0  0  0  0  # atno 8010 bound_to 7997
  139.8070  143.7755  152.2661 H   0  0  0  0  0  0  0  0  0  0  0  0  # atno 10167 bound_to 10162
  156.9339  130.5836  149.5650 H   0  0  0  0  0  0  0  0  0  0  0  0  # atno 10718 bound_to 10713
  154.8341  135.3389  154.6645 H   0  0  0  0  0  0  0  0  0  0  0  0  # atno 10763 bound_to 10752
  153.7262  135.6955  153.5005 H   0  0  0  0  0  0  0  0  0  0  0  0  # atno 10764 bound_to 10752
  153.2345  135.4405  155.0584 H   0  0  0  0  0  0  0  0  0  0  0  0  # atno 10765 bound_to 10752
  139.9724  134.9573  156.9423 H   0  0  0  0  0  0  0  0  0  0  0  0  # atno 11005 bound_to 11000
  144.6801  139.9946  143.7484 LP  0  0  0  0  0  0  0  0  0  0  0  0  # atno 17320 bound_to 7965
  146.0104  139.3165  143.0873 LP  0  0  0  0  0  0  0  0  0  0  0  0  # atno 17321 bound_to 7965
  139.7892  144.7416  150.9978 LP  0  0  0  0  0  0  0  0  0  0  0  0  # atno 17342 bound_to 10162
  140.7819  143.4459  151.0483 LP  0  0  0  0  0  0  0  0  0  0  0  0  # atno 17343 bound_to 10162
  156.0435  130.5514  150.8825 LP  0  0  0  0  0  0  0  0  0  0  0  0  # atno 17370 bound_to 10713
  157.5829  131.0946  150.9243 LP  0  0  0  0  0  0  0  0  0  0  0  0  # atno 17371 bound_to 10713
  140.5266  134.0855  155.7305 LP  0  0  0  0  0  0  0  0  0  0  0  0  # atno 17394 bound_to 11000
  141.1403  133.9150  157.2341 LP  0  0  0  0  0  0  0  0  0  0  0  0  # atno 17395 bound_to 11000

$$$$
