AV-unprocessed.smi:1243|AV-procd|sdf|5219|dock8
  -GOLD-   22720 4313D 1   1.00000     0.00000
 Structure written by MMmdl.
 51 52  0  0  0  0  0  0  0  0  2 V2000
  144.7709  132.8287  150.2923 C   0  0  0  0  0  0  0  0  0  0  0  0
  145.9075  132.7211  151.1424 O   0  0  0  0  0  0  0  0  0  0  0  0
  146.3086  131.4636  151.5518 C   0  0  0  0  0  0  0  0  0  0  0  0
  145.6169  130.3869  151.1013 N   0  0  0  0  0  0  0  0  0  0  0  0
  146.0090  129.1588  151.4981 C   0  0  0  0  0  0  0  0  0  0  0  0
  147.1051  128.9386  152.3521 C   0  0  0  0  0  0  0  0  0  0  0  0
  147.8246  130.0535  152.8204 C   0  0  0  0  0  0  0  0  0  0  0  0
  147.4162  131.3502  152.4243 C   0  0  0  0  0  0  0  0  0  0  0  0
  148.0847  132.5404  152.8221 N   0  0  0  0  0  0  0  0  0  0  0  0
  148.9666  132.7076  153.8215 C   0  0  0  0  0  0  0  0  0  0  0  0
  149.3417  131.8270  154.5954 O   0  0  0  0  0  0  0  0  0  0  0  0
  149.3885  133.9786  153.8870 N   0  0  0  0  0  0  0  0  0  0  0  0
  150.3245  134.5151  154.8745 C   0  0  0  0  0  0  0  0  0  0  0  0
  149.7719  135.7479  155.6525 C   0  0  0  0  0  0  0  0  0  0  0  0
  148.2234  135.7064  155.7051 C   0  0  0  0  0  0  0  0  0  0  0  0
  150.2514  135.6937  157.1247 C   0  0  0  0  0  0  0  0  0  0  0  0
  150.2194  137.0410  155.0185 N   0  3  0  0  0  0  0  0  0  0  0  0
  151.6531  137.4009  155.2163 C   0  0  0  0  0  0  0  0  0  0  0  0
  152.0390  138.6125  154.3419 C   0  0  0  0  0  0  0  0  0  0  0  0
  151.2036  139.7816  154.6126 N   0  0  0  0  0  0  0  0  0  0  0  0
  151.4826  140.4015  155.9036 C   0  0  0  0  0  0  0  0  0  0  0  0
  149.7956  139.4316  154.4307 C   0  0  0  0  0  0  0  0  0  0  0  0
  149.3720  138.2339  155.3066 C   0  0  0  0  0  0  0  0  0  0  0  0
  144.5865  133.8795  150.0689 H   0  0  0  0  0  0  0  0  0  0  0  0
  143.8757  132.4302  150.7721 H   0  0  0  0  0  0  0  0  0  0  0  0
  144.9296  132.3124  149.3445 H   0  0  0  0  0  0  0  0  0  0  0  0
  145.4358  128.3263  151.1180 H   0  0  0  0  0  0  0  0  0  0  0  0
  147.3907  127.9371  152.6377 H   0  0  0  0  0  0  0  0  0  0  0  0
  148.6800  129.8924  153.4580 H   0  0  0  0  0  0  0  0  0  0  0  0
  147.8022  133.3762  152.3312 H   0  0  0  0  0  0  0  0  0  0  0  0
  149.0221  134.6313  153.2095 H   0  0  0  0  0  0  0  0  0  0  0  0
  150.5386  133.6962  155.5603 H   0  0  0  0  0  0  0  0  0  0  0  0
  151.2722  134.7500  154.3896 H   0  0  0  0  0  0  0  0  0  0  0  0
  147.8603  134.9030  156.3467 H   0  0  0  0  0  0  0  0  0  0  0  0
  147.7803  135.5319  154.7247 H   0  0  0  0  0  0  0  0  0  0  0  0
  147.8129  136.6366  156.1000 H   0  0  0  0  0  0  0  0  0  0  0  0
  149.7823  134.8754  157.6722 H   0  0  0  0  0  0  0  0  0  0  0  0
  150.0078  136.6142  157.6569 H   0  0  0  0  0  0  0  0  0  0  0  0
  151.3260  135.5322  157.2064 H   0  0  0  0  0  0  0  0  0  0  0  0
  151.8594  137.6070  156.2660 H   0  0  0  0  0  0  0  0  0  0  0  0
  152.3075  136.5812  154.9276 H   0  0  0  0  0  0  0  0  0  0  0  0
  153.0880  138.8707  154.4919 H   0  0  0  0  0  0  0  0  0  0  0  0
  151.9351  138.3484  153.2887 H   0  0  0  0  0  0  0  0  0  0  0  0
  150.8776  141.3000  156.0289 H   0  0  0  0  0  0  0  0  0  0  0  0
  152.5301  140.6994  155.9595 H   0  0  0  0  0  0  0  0  0  0  0  0
  151.2768  139.7377  156.7425 H   0  0  0  0  0  0  0  0  0  0  0  0
  149.1726  140.3001  154.6481 H   0  0  0  0  0  0  0  0  0  0  0  0
  149.6307  139.1906  153.3796 H   0  0  0  0  0  0  0  0  0  0  0  0
  148.3255  138.0333  155.0873 H   0  0  0  0  0  0  0  0  0  0  0  0
  149.4231  138.4995  156.3620 H   0  0  0  0  0  0  0  0  0  0  0  0
  150.1241  136.8849  154.0252 H   0  0  0  0  0  0  0  0  0  0  0  0
  1  2  1  0  0  0  0
  1 24  1  0  0  0  0
  1 25  1  0  0  0  0
  1 26  1  0  0  0  0
  2  3  1  0  0  0  0
  3  8  1  0  0  0  0
  3  4  2  0  0  0  0
  4  5  1  0  0  0  0
  5  6  2  0  0  0  0
  5 27  1  0  0  0  0
  6  7  1  0  0  0  0
  6 28  1  0  0  0  0
  7  8  2  0  0  0  0
  7 29  1  0  0  0  0
  8  9  1  0  0  0  0
  9 10  1  0  0  0  0
  9 30  1  0  0  0  0
 10 11  2  0  0  0  0
 10 12  1  0  0  0  0
 12 13  1  0  0  0  0
 12 31  1  0  0  0  0
 13 14  1  0  0  0  0
 13 32  1  0  0  0  0
 13 33  1  0  0  0  0
 14 15  1  0  0  0  0
 14 16  1  0  0  0  0
 14 17  1  0  0  0  0
 15 34  1  0  0  0  0
 15 35  1  0  0  0  0
 15 36  1  0  0  0  0
 16 37  1  0  0  0  0
 16 38  1  0  0  0  0
 16 39  1  0  0  0  0
 17 23  1  0  0  0  0
 17 18  1  0  0  0  0
 17 51  1  0  0  0  0
 18 19  1  0  0  0  0
 18 40  1  0  0  0  0
 18 41  1  0  0  0  0
 19 20  1  0  0  0  0
 19 42  1  0  0  0  0
 19 43  1  0  0  0  0
 20 21  1  0  0  0  0
 20 22  1  0  0  0  0
 21 44  1  0  0  0  0
 21 45  1  0  0  0  0
 21 46  1  0  0  0  0
 22 23  1  0  0  0  0
 22 47  1  0  0  0  0
 22 48  1  0  0  0  0
 23 49  1  0  0  0  0
 23 50  1  0  0  0  0
M  CHG  1  17   1
M  END
> <s_m_source_file>
AV-unprocessed.smi

> <i_m_source_file_index>
1243

> <i_lp_mmshare_version>
43012

> <i_f3d_flags>
0

> <s_epik_input>
W0NIM11PYzFuW2NIXVtjSF1bY0hdYzFbTkhdQyg9TylbTkhdW0NIMl1DKFtDSDNdKShbQ0gzXSlOMltDSDJdW0NIMl1OKFtDSDNdKVtDSDJdW0NIMl0y

> <s_epik_cmdline>
J2VwaWtfcHl0aG9uJywgJy1waCcsICc3LjAnLCAnLXRuJywgJzgnLCAnLW1hJywgJzIwMCcsICctbWV0YWxfYmluZGluZycsICctaW1hZScsICc8aW5maWxlLm1hZT4nLCAnLW9tYWUnLCAnPG91dGZpbGUubWFlPic=

> <r_epik_Ionization_Penalty>
0.0907124

> <r_epik_Ionization_Penalty_Charging>
0.0886444

> <r_epik_Ionization_Penalty_Neutral>
0.00206798

> <r_epik_State_Penalty>
1.00524

> <r_epik_Charging_Adjusted_Penalty>
1.09388

> <i_epik_Tot_Q>
1

> <i_epik_Tot_abs_Q>
1

> <r_epik_Metal_State_Penalty>
1.00525

> <b_epik_Metal_Only>
0

> <s_lp_Force_Field>
OPLS_2005

> <r_lp_Energy>
29.8833

> <b_lp_Chiralities_Consistent>
1

> <s_lp_Variant>
AV-unprocessed.smi:1243-2

> <Gold.Version>
5.8.1

> <Gold.Id.Protein>
6NUR|6NUR_protein|mol2

> <Gold.PLP.Fitness>
38.9651

> <Gold.PLP.PLP>
-35.4109

> <Gold.PLP.part.hbond>
-2.0000

> <Gold.PLP.part.metal>
0.0000

> <Gold.PLP.part.buried>
-6.1237

> <Gold.PLP.part.nonpolar>
-26.6134

> <Gold.PLP.part.repulsive>
0.4027

> <Gold.PLP.ligand.clash>
0.0000

> <Gold.PLP.ligand.torsion>
1.2788

> <Gold.PLP.Chemscore.Hbond>
2.0000

> <Gold.PLP.Chemscore.CHOScore>
0.0000

> <Gold.PLP.Chemscore.Metal>
0.0000

> <Gold.Chemscore.Hbonds>
donor molecule, donor type, donor heavy atom, donor atom, acceptor molecule, acceptor atom, score
      L1  H    12    31       P1  7948  0.62
      P1  H  7989  7998       L1    20  1.00

> <Gold.PLP.Chemscore.Internal.Correction>
0.1117

> <Gold.Rescore>
     Score         DG    S(hbond)    S(metal)    S(lipo)     H(rot)  DE(clash)    DE(int)     intcor
     10.93     -13.34       0.72        0.00      84.30       1.72       0.09       2.32       ----

> <Gold.Chemscore.Fitness>
10.9294

> <Gold.Chemscore.DG>
-13.3406

> <Gold.Chemscore.ZeroCoef>
-5.4800

> <Gold.Chemscore.Hbond>
0.7197

> <Gold.Chemscore.Metal>
0.0000

> <Gold.Chemscore.Lipo>
84.3005

> <Gold.Chemscore.Internal_Hbond>
0.0000

> <Gold.Chemscore.DEClash>
0.0892

> <Gold.Chemscore.DEInternal>
2.3220

> <Gold.Chemscore.Rot>
1.7213

> <Gold.Chemscore.Internal.Correction>
   9.000000E+99

> <Gold.Chemscore.Hbonds>
donor molecule, donor type, donor heavy atom, donor atom, acceptor molecule, acceptor atom, score
      L1  H    12    31       P1  7948  0.05
      P1  H  7989  7998       L1    20  0.18

> <Gold.Chemscore.Hbond.Weighted>
-2.4040

> <Gold.Chemscore.Metal.Weighted>
-0.0000

> <Gold.Chemscore.Lipo.Weighted>
-9.8632

> <Gold.Chemscore.Internal_Hbond.Weighted>
0.0000

> <Gold.Chemscore.DEClash.Weighted>
0.0892

> <Gold.Chemscore.DEInternal.Weighted>
2.3220

> <Gold.Chemscore.Rot.Weighted>
4.4066

> <Gold.Chemscore.Internal.Correction.Weighted>
   9.000000E+99

> <Gold.Protein.RotatedTorsions>
[ 6907 6896 6895 6894 ] final    1.32 input  -60.11 | X-H torsion
[ 7974 7965 7964 7962 ] final  -37.01 input  175.53 | X-H torsion
[ 8008 7997 7996 7995 ] final  -28.49 input   59.86 | X-H torsion
[ 10167 10162 10161 10158 ] final  133.46 input  -65.29 | X-H torsion
[ 10718 10713 10712 10709 ] final  -26.31 input   66.30 | X-H torsion
[ 10763 10752 10751 10750 ] final  -99.85 input  -60.55 | X-H torsion
[ 11005 11000 10999 10996 ] final  139.04 input  -57.11 | X-H torsion

> <Gold.Protein.ActiveResidues>
 VAL166  LYS551  ARG553  GLY616  TRP617  ASP618  TYR619  PRO620  LYS621  CYS622 
 ASP623  PHE694  ASN695  SER759  ASP760  ASP761  ALA762  ILE779  LEU786  VAL792 
 PHE793  MET794  SER795  GLU796  ALA797  LYS798  CYS799  TRP800  GLU811  SER814 

> <Gold.Protein.RotatedAtoms>
  151.5907  135.1053  160.0038 H   0  0  0  0  0  0  0  0  0  0  0  0  # atno 6907 bound_to 6896
  152.4308  133.7270  159.6576 H   0  0  0  0  0  0  0  0  0  0  0  0  # atno 6908 bound_to 6896
  150.8200  133.8199  159.3166 H   0  0  0  0  0  0  0  0  0  0  0  0  # atno 6909 bound_to 6896
  146.0612  140.6345  142.8996 H   0  0  0  0  0  0  0  0  0  0  0  0  # atno 7974 bound_to 7965
  154.4330  140.1844  156.1098 H   0  0  0  0  0  0  0  0  0  0  0  0  # atno 8008 bound_to 7997
  156.0227  140.3339  155.7030 H   0  0  0  0  0  0  0  0  0  0  0  0  # atno 8009 bound_to 7997
  155.5953  140.0635  157.2738 H   0  0  0  0  0  0  0  0  0  0  0  0  # atno 8010 bound_to 7997
  139.5296  144.6614  151.4999 H   0  0  0  0  0  0  0  0  0  0  0  0  # atno 10167 bound_to 10162
  156.4528  130.4487  149.6978 H   0  0  0  0  0  0  0  0  0  0  0  0  # atno 10718 bound_to 10713
  154.7531  135.4957  153.9326 H   0  0  0  0  0  0  0  0  0  0  0  0  # atno 10763 bound_to 10752
  153.1166  135.6722  153.9415 H   0  0  0  0  0  0  0  0  0  0  0  0  # atno 10764 bound_to 10752
  153.9160  135.3093  155.3427 H   0  0  0  0  0  0  0  0  0  0  0  0  # atno 10765 bound_to 10752
  140.0226  134.9389  157.0505 H   0  0  0  0  0  0  0  0  0  0  0  0  # atno 11005 bound_to 11000
  144.7176  140.4264  143.7032 LP  0  0  0  0  0  0  0  0  0  0  0  0  # atno 17320 bound_to 7965
  145.6556  139.1572  143.2837 LP  0  0  0  0  0  0  0  0  0  0  0  0  # atno 17321 bound_to 7965
  140.6465  143.8784  150.6742 LP  0  0  0  0  0  0  0  0  0  0  0  0  # atno 17342 bound_to 10162
  140.2135  143.3864  152.1699 LP  0  0  0  0  0  0  0  0  0  0  0  0  # atno 17343 bound_to 10162
  156.3798  130.7573  151.2565 LP  0  0  0  0  0  0  0  0  0  0  0  0  # atno 17370 bound_to 10713
  157.7502  131.0299  150.4113 LP  0  0  0  0  0  0  0  0  0  0  0  0  # atno 17371 bound_to 10713
  140.4360  134.1730  155.7171 LP  0  0  0  0  0  0  0  0  0  0  0  0  # atno 17394 bound_to 11000
  141.1783  133.8467  157.1345 LP  0  0  0  0  0  0  0  0  0  0  0  0  # atno 17395 bound_to 11000

$$$$
