AV-unprocessed.smi:3116|AV-procd|sdf|11862|dock4
  -GOLD-   2272017243D 1   1.00000     0.00000
 Structure written by MMmdl.
 34 34  0  0  0  0  0  0  0  0  2 V2000
  148.3162  141.7812  154.4043 C   0  0  0  0  0  0  0  0  0  0  0  0
  149.2261  141.2736  155.5379 C   0  0  2  0  0  0  0  0  0  0  0  0
  150.1202  142.3489  156.0271 N   0  3  0  0  0  0  0  0  0  0  0  0
  150.5703  142.2267  157.4330 C   0  0  2  0  0  0  0  0  0  0  0  0
  149.3667  141.8355  158.3101 C   0  0  0  0  0  0  0  0  0  0  0  0
  151.2582  143.5404  157.8899 C   0  0  2  0  0  0  0  0  0  0  0  0
  152.3020  144.0471  156.8757 C   0  0  0  0  0  0  0  0  0  0  0  0
  151.8655  143.4120  159.2085 N   0  0  0  0  0  0  0  0  0  0  0  0
  152.8587  142.5426  159.6103 C   0  0  0  0  0  0  0  0  0  0  0  0
  153.1035  142.7844  160.9315 C   0  0  0  0  0  0  0  0  0  0  0  0
  152.1967  143.8310  161.2577 C   0  0  0  0  0  0  0  0  0  0  0  0
  151.4571  144.2038  160.2260 N   0  0  0  0  0  0  0  0  0  0  0  0
  150.0468  140.0705  155.0581 C   0  0  0  0  0  0  0  0  0  0  0  0
  149.3669  139.0030  154.6311 N   0  0  0  0  0  0  0  0  0  0  0  0
  151.2763  140.1028  155.0600 O   0  0  0  0  0  0  0  0  0  0  0  0
  147.6656  140.9884  154.0327 H   0  0  0  0  0  0  0  0  0  0  0  0
  148.8999  142.1530  153.5611 H   0  0  0  0  0  0  0  0  0  0  0  0
  147.6705  142.5922  154.7412 H   0  0  0  0  0  0  0  0  0  0  0  0
  148.6104  140.9369  156.3739 H   0  0  0  0  0  0  0  0  0  0  0  0
  150.9453  142.3444  155.4448 H   0  0  0  0  0  0  0  0  0  0  0  0
  151.3002  141.4192  157.5098 H   0  0  0  0  0  0  0  0  0  0  0  0
  149.6627  141.6351  159.3399 H   0  0  0  0  0  0  0  0  0  0  0  0
  148.8877  140.9301  157.9356 H   0  0  0  0  0  0  0  0  0  0  0  0
  148.6152  142.6256  158.3270 H   0  0  0  0  0  0  0  0  0  0  0  0
  150.4875  144.3082  157.9780 H   0  0  0  0  0  0  0  0  0  0  0  0
  151.8452  144.2845  155.9148 H   0  0  0  0  0  0  0  0  0  0  0  0
  153.0804  143.3044  156.6974 H   0  0  0  0  0  0  0  0  0  0  0  0
  152.7874  144.9553  157.2349 H   0  0  0  0  0  0  0  0  0  0  0  0
  153.3053  141.8323  158.9302 H   0  0  0  0  0  0  0  0  0  0  0  0
  153.8203  142.2881  161.5688 H   0  0  0  0  0  0  0  0  0  0  0  0
  152.0549  144.3269  162.2066 H   0  0  0  0  0  0  0  0  0  0  0  0
  149.8584  138.1809  154.3114 H   0  0  0  0  0  0  0  0  0  0  0  0
  148.3569  139.0186  154.6365 H   0  0  0  0  0  0  0  0  0  0  0  0
  149.6538  143.2361  155.9026 H   0  0  0  0  0  0  0  0  0  0  0  0
  1  2  1  0  0  0  0
  1 16  1  0  0  0  0
  1 17  1  0  0  0  0
  1 18  1  0  0  0  0
  2  3  1  0  0  0  0
  2 13  1  0  0  0  0
  2 19  1  0  0  0  0
  3  4  1  0  0  0  0
  3 20  1  0  0  0  0
  3 34  1  0  0  0  0
  4  5  1  0  0  0  0
  4  6  1  0  0  0  0
  4 21  1  0  0  0  0
  5 22  1  0  0  0  0
  5 23  1  0  0  0  0
  5 24  1  0  0  0  0
  6  7  1  0  0  0  0
  6  8  1  0  0  0  0
  6 25  1  0  0  0  0
  7 26  1  0  0  0  0
  7 27  1  0  0  0  0
  7 28  1  0  0  0  0
  8 12  1  0  0  0  0
  8  9  1  0  0  0  0
  9 10  2  0  0  0  0
  9 29  1  0  0  0  0
 10 11  1  0  0  0  0
 10 30  1  0  0  0  0
 11 12  2  0  0  0  0
 11 31  1  0  0  0  0
 13 14  1  0  0  0  0
 13 15  2  0  0  0  0
 14 32  1  0  0  0  0
 14 33  1  0  0  0  0
M  CHG  1   3   1
M  END
> <s_m_source_file>
AV-unprocessed.smi

> <i_m_source_file_index>
3116

> <i_lp_mmshare_version>
43012

> <i_f3d_flags>
0

> <s_epik_input>
W05IMl1DKD1PKVtDQEhdKFtDSDNdKVtOSF1bQ0BIXShbQ0gzXSlbQ0BIXShbQ0gzXSluMVtjSF1bY0hdW2NIXW4x

> <s_epik_cmdline>
J2VwaWtfcHl0aG9uJywgJy1waCcsICc3LjAnLCAnLXRuJywgJzgnLCAnLW1hJywgJzIwMCcsICctbWV0YWxfYmluZGluZycsICctaW1hZScsICc8aW5maWxlLm1hZT4nLCAnLW9tYWUnLCAnPG91dGZpbGUubWFlPic=

> <r_lp_tautomer_probability>
1

> <r_epik_Ionization_Penalty>
0.15658

> <r_epik_Ionization_Penalty_Charging>
0.156568

> <r_epik_Ionization_Penalty_Neutral>
1.19778e-05

> <r_epik_State_Penalty>
0.145866

> <r_epik_Charging_Adjusted_Penalty>
0.302434

> <i_epik_Tot_Q>
1

> <i_epik_Tot_abs_Q>
1

> <r_epik_Metal_State_Penalty>
0.146064

> <b_epik_Metal_Only>
0

> <s_lp_Force_Field>
OPLS_2005

> <r_lp_Energy>
9.5332

> <b_lp_Chiralities_Consistent>
1

> <s_lp_Variant>
AV-unprocessed.smi:3116-1

> <Gold.Version>
5.8.1

> <Gold.Id.Protein>
6NUR|6NUR_protein|mol2

> <Gold.PLP.Fitness>
41.7795

> <Gold.PLP.PLP>
-33.6924

> <Gold.PLP.part.hbond>
-2.0000

> <Gold.PLP.part.metal>
0.0000

> <Gold.PLP.part.buried>
-5.0029

> <Gold.PLP.part.nonpolar>
-27.0619

> <Gold.PLP.part.repulsive>
0.3235

> <Gold.PLP.ligand.clash>
0.0000

> <Gold.PLP.ligand.torsion>
0.4995

> <Gold.PLP.Chemscore.Hbond>
3.0000

> <Gold.PLP.Chemscore.CHOScore>
0.0000

> <Gold.PLP.Chemscore.Metal>
0.0000

> <Gold.Chemscore.Hbonds>
donor molecule, donor type, donor heavy atom, donor atom, acceptor molecule, acceptor atom, score
      L1  H     3    34       P1  8028  2.00
      P1  H  7989  7998       L1    15  1.00

> <Gold.PLP.Chemscore.Internal.Correction>
0.0861

> <Gold.Rescore>
     Score         DG    S(hbond)    S(metal)    S(lipo)     H(rot)  DE(clash)    DE(int)     intcor
     13.69     -15.67       1.98        0.00      84.04       2.45       1.37       0.61       ----

> <Gold.Chemscore.Fitness>
13.6943

> <Gold.Chemscore.DG>
-15.6726

> <Gold.Chemscore.ZeroCoef>
-5.4800

> <Gold.Chemscore.Hbond>
1.9828

> <Gold.Chemscore.Metal>
0.0000

> <Gold.Chemscore.Lipo>
84.0443

> <Gold.Chemscore.Internal_Hbond>
0.0000

> <Gold.Chemscore.DEClash>
1.3702

> <Gold.Chemscore.DEInternal>
0.6082

> <Gold.Chemscore.Rot>
2.4465

> <Gold.Chemscore.Internal.Correction>
   9.000000E+99

> <Gold.Chemscore.Hbonds>
donor molecule, donor type, donor heavy atom, donor atom, acceptor molecule, acceptor atom, score
      L1  H     3    34       P1  8028  1.00
      P1  H  7989  7998       L1    15  0.39

> <Gold.Chemscore.Hbond.Weighted>
-6.6226

> <Gold.Chemscore.Metal.Weighted>
-0.0000

> <Gold.Chemscore.Lipo.Weighted>
-9.8332

> <Gold.Chemscore.Internal_Hbond.Weighted>
0.0000

> <Gold.Chemscore.DEClash.Weighted>
1.3702

> <Gold.Chemscore.DEInternal.Weighted>
0.6082

> <Gold.Chemscore.Rot.Weighted>
6.2631

> <Gold.Chemscore.Internal.Correction.Weighted>
   9.000000E+99

> <Gold.Protein.RotatedTorsions>
[ 6907 6896 6895 6894 ] final   21.53 input  -60.11 | X-H torsion
[ 7974 7965 7964 7962 ] final  -42.94 input  175.53 | X-H torsion
[ 8008 7997 7996 7995 ] final  167.58 input   59.86 | X-H torsion
[ 10167 10162 10161 10158 ] final   98.24 input  -65.29 | X-H torsion
[ 10718 10713 10712 10709 ] final  -75.58 input   66.30 | X-H torsion
[ 10763 10752 10751 10750 ] final   29.32 input  -60.55 | X-H torsion
[ 11005 11000 10999 10996 ] final    4.33 input  -57.11 | X-H torsion

> <Gold.Protein.ActiveResidues>
 VAL166  LYS551  ARG553  GLY616  TRP617  ASP618  TYR619  PRO620  LYS621  CYS622 
 ASP623  PHE694  ASN695  SER759  ASP760  ASP761  ALA762  ILE779  LEU786  VAL792 
 PHE793  MET794  SER795  GLU796  ALA797  LYS798  CYS799  TRP800  GLU811  SER814 

> <Gold.Protein.RotatedAtoms>
  151.9132  135.0330  160.0515 H   0  0  0  0  0  0  0  0  0  0  0  0  # atno 6907 bound_to 6896
  152.2262  133.5017  159.5198 H   0  0  0  0  0  0  0  0  0  0  0  0  # atno 6908 bound_to 6896
  150.7013  134.1193  159.4071 H   0  0  0  0  0  0  0  0  0  0  0  0  # atno 6909 bound_to 6896
  146.0067  140.7012  142.9244 H   0  0  0  0  0  0  0  0  0  0  0  0  # atno 7974 bound_to 7965
  156.1621  140.1613  156.8594 H   0  0  0  0  0  0  0  0  0  0  0  0  # atno 8008 bound_to 7997
  154.5171  140.0787  156.8137 H   0  0  0  0  0  0  0  0  0  0  0  0  # atno 8009 bound_to 7997
  155.3686  140.3399  155.4245 H   0  0  0  0  0  0  0  0  0  0  0  0  # atno 8010 bound_to 7997
  139.7726  144.6917  151.0134 H   0  0  0  0  0  0  0  0  0  0  0  0  # atno 10167 bound_to 10162
  156.0203  130.4444  150.3064 H   0  0  0  0  0  0  0  0  0  0  0  0  # atno 10718 bound_to 10713
  153.0437  135.6491  154.0873 H   0  0  0  0  0  0  0  0  0  0  0  0  # atno 10763 bound_to 10752
  154.0575  135.2890  155.3332 H   0  0  0  0  0  0  0  0  0  0  0  0  # atno 10764 bound_to 10752
  154.6679  135.5367  153.8166 H   0  0  0  0  0  0  0  0  0  0  0  0  # atno 10765 bound_to 10752
  140.5832  133.9993  155.8056 H   0  0  0  0  0  0  0  0  0  0  0  0  # atno 11005 bound_to 11000
  144.6938  140.3327  143.7213 LP  0  0  0  0  0  0  0  0  0  0  0  0  # atno 17320 bound_to 7965
  145.7405  139.1763  143.2378 LP  0  0  0  0  0  0  0  0  0  0  0  0  # atno 17321 bound_to 7965
  140.7815  143.4571  151.0330 LP  0  0  0  0  0  0  0  0  0  0  0  0  # atno 17342 bound_to 10162
  139.8254  143.7763  152.3178 LP  0  0  0  0  0  0  0  0  0  0  0  0  # atno 17343 bound_to 10162
  157.1167  131.0236  151.3026 LP  0  0  0  0  0  0  0  0  0  0  0  0  # atno 17370 bound_to 10713
  157.4661  130.7681  149.7280 LP  0  0  0  0  0  0  0  0  0  0  0  0  # atno 17371 bound_to 10713
  141.0983  133.9809  157.3123 LP  0  0  0  0  0  0  0  0  0  0  0  0  # atno 17394 bound_to 11000
  139.9308  135.0200  156.8392 LP  0  0  0  0  0  0  0  0  0  0  0  0  # atno 17395 bound_to 11000

$$$$
