AV-unprocessed.smi:103|AV-procd|sdf|977|dock3
  -GOLD-   2262017533D 1   1.00000     0.00000
 Structure written by MMmdl.
 53 55  0  0  0  0  0  0  0  0  1 V2000
  146.7827  134.9081  162.4369 C   0  0  0  0  0  0  0  0  0  0  0  0
  146.9879  135.1018  160.9401 C   0  0  0  0  0  0  0  0  0  0  0  0
  146.1892  134.6456  160.1213 O   0  0  0  0  0  0  0  0  0  0  0  0
  148.1012  135.8045  160.6571 O   0  0  0  0  0  0  0  0  0  0  0  0
  148.4697  136.0568  159.3079 C   0  0  0  0  0  0  0  0  0  0  0  0
  149.6801  137.0080  159.2375 C   0  0  2  0  0  0  0  0  0  0  0  0
  149.2499  138.3413  158.9931 O   0  0  0  0  0  0  0  0  0  0  0  0
  149.0560  138.5224  157.6272 C   0  0  1  0  0  0  0  0  0  0  0  0
  149.4061  139.9407  157.2908 N   0  0  0  0  0  0  0  0  0  0  0  0
  148.7484  140.8365  156.4727 C   0  0  0  0  0  0  0  0  0  0  0  0
  147.2066  140.5514  155.6118 S   0  0  0  0  0  0  0  0  0  0  0  0
  147.1288  142.0045  154.4874 C   0  0  0  0  0  0  0  0  0  0  0  0
  147.3787  139.3261  154.8156 O   0  0  0  0  0  0  0  0  0  0  0  0
  146.1273  140.6512  156.6060 O   0  0  0  0  0  0  0  0  0  0  0  0
  149.2503  142.0391  156.3967 N   0  0  0  0  0  0  0  0  0  0  0  0
  150.3902  141.9535  157.1839 C   0  0  0  0  0  0  0  0  0  0  0  0
  151.4210  142.8642  157.5272 C   0  0  0  0  0  0  0  0  0  0  0  0
  151.4606  144.1263  157.0789 N   0  0  0  0  0  0  0  0  0  0  0  0
  152.4136  142.4405  158.3440 N   0  0  0  0  0  0  0  0  0  0  0  0
  152.3958  141.1864  158.8061 C   0  0  0  0  0  0  0  0  0  0  0  0
  151.4982  140.2251  158.5763 N   0  0  0  0  0  0  0  0  0  0  0  0
  150.4995  140.6504  157.7481 C   0  0  0  0  0  0  0  0  0  0  0  0
  149.9289  137.4822  156.8921 C   0  0  1  0  0  0  0  0  0  0  0  0
  150.8890  138.0630  156.0100 O   0  0  0  0  0  0  0  0  0  0  0  0
  151.2891  137.4166  154.9034 C   0  0  0  0  0  0  0  0  0  0  0  0
  152.3215  138.2111  154.1156 C   0  0  0  0  0  0  0  0  0  0  0  0
  150.8958  136.3154  154.5205 O   0  0  0  0  0  0  0  0  0  0  0  0
  150.5870  136.7124  158.0359 C   0  0  1  0  0  0  0  0  0  0  0  0
  151.8991  137.2023  158.2976 O   0  0  0  0  0  0  0  0  0  0  0  0
  152.9579  136.7245  157.6251 C   0  0  0  0  0  0  0  0  0  0  0  0
  154.2638  137.3629  158.0783 C   0  0  0  0  0  0  0  0  0  0  0  0
  152.9307  135.8668  156.7427 O   0  0  0  0  0  0  0  0  0  0  0  0
  145.9567  135.5279  162.7857 H   0  0  0  0  0  0  0  0  0  0  0  0
  147.6796  135.1831  162.9926 H   0  0  0  0  0  0  0  0  0  0  0  0
  146.5494  133.8658  162.6544 H   0  0  0  0  0  0  0  0  0  0  0  0
  148.7466  135.0987  158.8677 H   0  0  0  0  0  0  0  0  0  0  0  0
  147.6275  136.4290  158.7227 H   0  0  0  0  0  0  0  0  0  0  0  0
  150.2305  136.9560  160.1778 H   0  0  0  0  0  0  0  0  0  0  0  0
  147.9962  138.4178  157.4061 H   0  0  0  0  0  0  0  0  0  0  0  0
  146.2153  141.9556  153.8955 H   0  0  0  0  0  0  0  0  0  0  0  0
  147.9929  141.9962  153.8233 H   0  0  0  0  0  0  0  0  0  0  0  0
  147.1322  142.9229  155.0738 H   0  0  0  0  0  0  0  0  0  0  0  0
  150.7322  144.4651  156.4670 H   0  0  0  0  0  0  0  0  0  0  0  0
  152.2171  144.7360  157.3538 H   0  0  0  0  0  0  0  0  0  0  0  0
  153.2165  140.9133  159.4528 H   0  0  0  0  0  0  0  0  0  0  0  0
  149.2532  136.8073  156.3648 H   0  0  0  0  0  0  0  0  0  0  0  0
  151.9143  139.1816  153.8317 H   0  0  0  0  0  0  0  0  0  0  0  0
  152.6062  137.6773  153.2087 H   0  0  0  0  0  0  0  0  0  0  0  0
  153.2155  138.3716  154.7183 H   0  0  0  0  0  0  0  0  0  0  0  0
  150.6273  135.6469  157.8040 H   0  0  0  0  0  0  0  0  0  0  0  0
  154.2378  138.4392  157.9074 H   0  0  0  0  0  0  0  0  0  0  0  0
  155.1072  136.9450  157.5286 H   0  0  0  0  0  0  0  0  0  0  0  0
  154.4214  137.1848  159.1422 H   0  0  0  0  0  0  0  0  0  0  0  0
  1  2  1  0  0  0  0
  1 33  1  0  0  0  0
  1 34  1  0  0  0  0
  1 35  1  0  0  0  0
  2  3  2  0  0  0  0
  2  4  1  0  0  0  0
  4  5  1  0  0  0  0
  5  6  1  0  0  0  0
  5 36  1  0  0  0  0
  5 37  1  0  0  0  0
  6 28  1  0  0  0  0
  6  7  1  0  0  0  0
  6 38  1  0  0  0  0
  7  8  1  0  0  0  0
  8  9  1  0  0  0  0
  8 23  1  0  0  0  0
  8 39  1  0  0  0  0
  9 22  1  0  0  0  0
  9 10  1  0  0  0  0
 10 11  1  0  0  0  0
 10 15  2  0  0  0  0
 11 12  1  0  0  0  0
 11 13  2  0  0  0  0
 11 14  2  0  0  0  0
 12 40  1  0  0  0  0
 12 41  1  0  0  0  0
 12 42  1  0  0  0  0
 15 16  1  0  0  0  0
 16 22  2  0  0  0  0
 16 17  1  0  0  0  0
 17 18  1  0  0  0  0
 17 19  2  0  0  0  0
 18 43  1  0  0  0  0
 18 44  1  0  0  0  0
 19 20  1  0  0  0  0
 20 21  2  0  0  0  0
 20 45  1  0  0  0  0
 21 22  1  0  0  0  0
 23 24  1  0  0  0  0
 23 28  1  0  0  0  0
 23 46  1  0  0  0  0
 24 25  1  0  0  0  0
 25 26  1  0  0  0  0
 25 27  2  0  0  0  0
 26 47  1  0  0  0  0
 26 48  1  0  0  0  0
 26 49  1  0  0  0  0
 28 29  1  0  0  0  0
 28 50  1  0  0  0  0
 29 30  1  0  0  0  0
 30 31  1  0  0  0  0
 30 32  2  0  0  0  0
 31 51  1  0  0  0  0
 31 52  1  0  0  0  0
 31 53  1  0  0  0  0
M  END
> <s_m_source_file>
AV-unprocessed.smi

> <i_m_source_file_index>
103

> <i_lp_mmshare_version>
43012

> <i_f3d_flags>
0

> <s_epik_input>
W0NIM11DKD1PKU9bQ0gyXVtDQEBIXTFPW0NASF0oW0NAQEhdKE9DKD1PKVtDSDNdKVtDQEhdMU9DKD1PKVtDSDNdKW4oYyhuMilTKD1PKSg9TylbQ0gzXSljKGMyMyluW2NIXW5jM1tOSDJd

> <s_epik_cmdline>
J2VwaWtfcHl0aG9uJywgJy1waCcsICc3LjAnLCAnLXRuJywgJzgnLCAnLW1hJywgJzIwMCcsICctbWV0YWxfYmluZGluZycsICctaW1hZScsICc8aW5maWxlLm1hZT4nLCAnLW9tYWUnLCAnPG91dGZpbGUubWFlPic=

> <r_lp_tautomer_probability>
1

> <r_epik_Ionization_Penalty>
1.51338e-05

> <r_epik_Ionization_Penalty_Charging>
0

> <r_epik_Ionization_Penalty_Neutral>
1.51338e-05

> <r_epik_State_Penalty>
-0

> <r_epik_Charging_Adjusted_Penalty>
0

> <i_epik_Tot_Q>
0

> <i_epik_Tot_abs_Q>
0

> <r_epik_Metal_State_Penalty>
-0

> <b_epik_Metal_Only>
0

> <s_epik_Chemistry_Notes>
This compound has an ester and may undergo hydrolysis at high or low pH. This compound contains an acetal/aminal-like group ( X-CH(R)-Y where X, Y are N, S, or O) that may be acid/base labile, releasing an aldehyde.

> <s_lp_Force_Field>
OPLS_2005

> <r_lp_Energy>
14.6626

> <b_lp_Chiralities_Consistent>
1

> <s_lp_Variant>
AV-unprocessed.smi:103-1

> <Gold.Version>
5.8.1

> <Gold.Id.Protein>
6NUR|6NUR_protein|mol2

> <Gold.PLP.Fitness>
40.1442

> <Gold.PLP.PLP>
-35.1574

> <Gold.PLP.part.hbond>
-4.8791

> <Gold.PLP.part.metal>
0.0000

> <Gold.PLP.part.buried>
-8.1471

> <Gold.PLP.part.nonpolar>
-25.8448

> <Gold.PLP.part.repulsive>
2.5051

> <Gold.PLP.ligand.clash>
0.0000

> <Gold.PLP.ligand.torsion>
2.8187

> <Gold.PLP.Chemscore.Hbond>
2.7600

> <Gold.PLP.Chemscore.CHOScore>
0.0000

> <Gold.PLP.Chemscore.Metal>
0.0000

> <Gold.Chemscore.Hbonds>
donor molecule, donor type, donor heavy atom, donor atom, acceptor molecule, acceptor atom, score
      L1  H    18    43       P1  8028  1.00
      P1  H 10752 10763       L1    32  0.69
      P1  H 10752 10765       L1    27  0.24

> <Gold.PLP.Chemscore.Internal.Correction>
2.3441

> <Gold.Rescore>
     Score         DG    S(hbond)    S(metal)    S(lipo)     H(rot)  DE(clash)    DE(int)     intcor
      1.66      -7.83       2.25        0.00      48.85       4.25       0.59       5.58       ----

> <Gold.Chemscore.Fitness>
1.6601

> <Gold.Chemscore.DG>
-7.8275

> <Gold.Chemscore.ZeroCoef>
-5.4800

> <Gold.Chemscore.Hbond>
2.2458

> <Gold.Chemscore.Metal>
0.0000

> <Gold.Chemscore.Lipo>
48.8471

> <Gold.Chemscore.Internal_Hbond>
0.0000

> <Gold.Chemscore.DEClash>
0.5877

> <Gold.Chemscore.DEInternal>
5.5796

> <Gold.Chemscore.Rot>
4.2456

> <Gold.Chemscore.Internal.Correction>
   9.000000E+99

> <Gold.Chemscore.Hbonds>
donor molecule, donor type, donor heavy atom, donor atom, acceptor molecule, acceptor atom, score
      L1  H    18    43       P1  8028  0.95
      P1  H 10752 10763       L1    32  0.70
      P1  H 10752 10765       L1    27  0.01

> <Gold.Chemscore.Hbond.Weighted>
-7.5011

> <Gold.Chemscore.Metal.Weighted>
-0.0000

> <Gold.Chemscore.Lipo.Weighted>
-5.7151

> <Gold.Chemscore.Internal_Hbond.Weighted>
0.0000

> <Gold.Chemscore.DEClash.Weighted>
0.5877

> <Gold.Chemscore.DEInternal.Weighted>
5.5796

> <Gold.Chemscore.Rot.Weighted>
10.8687

> <Gold.Chemscore.Internal.Correction.Weighted>
   9.000000E+99

> <Gold.Protein.RotatedTorsions>
[ 6907 6896 6895 6894 ] final -179.80 input  -60.11 | X-H torsion
[ 7974 7965 7964 7962 ] final  -20.26 input  175.53 | X-H torsion
[ 8008 7997 7996 7995 ] final   63.78 input   59.86 | X-H torsion
[ 10167 10162 10161 10158 ] final -146.32 input  -65.29 | X-H torsion
[ 10718 10713 10712 10709 ] final -146.48 input   66.30 | X-H torsion
[ 10763 10752 10751 10750 ] final  146.38 input  -60.55 | X-H torsion
[ 11005 11000 10999 10996 ] final   88.97 input  -57.11 | X-H torsion

> <Gold.Protein.ActiveResidues>
 VAL166  LYS551  ARG553  GLY616  TRP617  ASP618  TYR619  PRO620  LYS621  CYS622 
 ASP623  PHE694  ASN695  SER759  ASP760  ASP761  ALA762  ILE779  LEU786  VAL792 
 PHE793  MET794  SER795  GLU796  ALA797  LYS798  CYS799  TRP800  GLU811  SER814 

> <Gold.Protein.RotatedAtoms>
  151.6593  133.3317  159.3169 H   0  0  0  0  0  0  0  0  0  0  0  0  # atno 6907 bound_to 6896
  150.7921  134.6957  159.6531 H   0  0  0  0  0  0  0  0  0  0  0  0  # atno 6908 bound_to 6896
  152.4003  134.6301  160.0125 H   0  0  0  0  0  0  0  0  0  0  0  0  # atno 6909 bound_to 6896
  146.1797  140.4178  142.8499 H   0  0  0  0  0  0  0  0  0  0  0  0  # atno 7974 bound_to 7965
  155.6356  140.3496  155.4697 H   0  0  0  0  0  0  0  0  0  0  0  0  # atno 8008 bound_to 7997
  155.9968  140.1205  157.0609 H   0  0  0  0  0  0  0  0  0  0  0  0  # atno 8009 bound_to 7997
  154.4236  140.1108  156.5627 H   0  0  0  0  0  0  0  0  0  0  0  0  # atno 8010 bound_to 7997
  139.7724  143.8218  152.2626 H   0  0  0  0  0  0  0  0  0  0  0  0  # atno 10167 bound_to 10162
  156.3955  130.7907  151.2113 H   0  0  0  0  0  0  0  0  0  0  0  0  # atno 10718 bound_to 10713
  154.0210  135.2906  155.3381 H   0  0  0  0  0  0  0  0  0  0  0  0  # atno 10763 bound_to 10752
  154.7046  135.5174  153.8579 H   0  0  0  0  0  0  0  0  0  0  0  0  # atno 10764 bound_to 10752
  153.0681  135.6638  154.0432 H   0  0  0  0  0  0  0  0  0  0  0  0  # atno 10765 bound_to 10752
  139.8885  134.8522  156.3076 H   0  0  0  0  0  0  0  0  0  0  0  0  # atno 11005 bound_to 11000
  144.8295  140.6683  143.6300 LP  0  0  0  0  0  0  0  0  0  0  0  0  # atno 17320 bound_to 7965
  145.4110  139.1580  143.4125 LP  0  0  0  0  0  0  0  0  0  0  0  0  # atno 17321 bound_to 7965
  139.8257  144.7276  150.9515 LP  0  0  0  0  0  0  0  0  0  0  0  0  # atno 17342 bound_to 10162
  140.7814  143.4117  151.0982 LP  0  0  0  0  0  0  0  0  0  0  0  0  # atno 17343 bound_to 10162
  157.7501  131.0302  150.4129 LP  0  0  0  0  0  0  0  0  0  0  0  0  # atno 17370 bound_to 10713
  156.4399  130.3989  149.6704 LP  0  0  0  0  0  0  0  0  0  0  0  0  # atno 17371 bound_to 10713
  140.9872  133.7231  156.0759 LP  0  0  0  0  0  0  0  0  0  0  0  0  # atno 17394 bound_to 11000
  140.7673  134.3872  157.5514 LP  0  0  0  0  0  0  0  0  0  0  0  0  # atno 17395 bound_to 11000

$$$$
