AV-unprocessed.smi:1200|AV-procd|sdf|5025|dock7
  -GOLD-   22720 4 43D 1   1.00000     0.00000
 Structure written by MMmdl.
 42 43  0  0  0  0  0  0  0  0  3 V2000
  144.1166  135.4299  152.6022 C   0  0  0  0  0  0  0  0  0  0  0  0
  145.0674  136.4463  152.1679 N   0  5  0  0  0  0  0  0  0  0  0  0
  145.7653  137.2365  153.0269 C   0  0  0  0  0  0  0  0  0  0  0  0
  145.9513  137.1365  154.2442 O   0  0  0  0  0  0  0  0  0  0  0  0
  146.4223  138.4093  152.2901 C   0  0  0  0  0  0  0  0  0  0  0  0
  147.0380  139.3416  153.2665 N   0  3  2  0  0  0  0  0  0  0  0  0
  147.1344  140.7273  152.7422 C   0  0  0  0  0  0  0  0  0  0  0  0
  147.6301  141.6973  153.8279 C   0  0  0  0  0  0  0  0  0  0  0  0
  148.9820  141.2456  154.4037 C   0  0  1  0  0  0  0  0  0  0  0  0
  149.3780  142.1317  155.4946 N   0  0  0  0  0  0  0  0  0  0  0  0
  150.3106  141.8532  156.4169 C   0  0  0  0  0  0  0  0  0  0  0  0
  150.9577  140.8069  156.4286 O   0  0  0  0  0  0  0  0  0  0  0  0
  150.4365  142.8623  157.2963 N   0  0  0  0  0  0  0  0  0  0  0  0
  151.2836  142.9653  158.4346 C   0  0  0  0  0  0  0  0  0  0  0  0
  152.1741  141.9552  158.8755 C   0  0  0  0  0  0  0  0  0  0  0  0
  152.9478  142.1864  160.0292 C   0  0  0  0  0  0  0  0  0  0  0  0
  152.8012  143.4137  160.7039 C   0  0  0  0  0  0  0  0  0  0  0  0
  151.9511  144.3812  160.3018 N   0  0  0  0  0  0  0  0  0  0  0  0
  151.2130  144.1526  159.1946 C   0  0  0  0  0  0  0  0  0  0  0  0
  148.8724  139.7916  154.8975 C   0  0  0  0  0  0  0  0  0  0  0  0
  148.3460  138.8637  153.7905 C   0  0  0  0  0  0  0  0  0  0  0  0
  143.6535  134.9206  151.7574 H   0  0  0  0  0  0  0  0  0  0  0  0
  143.3025  135.8469  153.1958 H   0  0  0  0  0  0  0  0  0  0  0  0
  144.5858  134.6554  153.2096 H   0  0  0  0  0  0  0  0  0  0  0  0
  147.1581  138.0899  151.5485 H   0  0  0  0  0  0  0  0  0  0  0  0
  145.6301  138.9162  151.7374 H   0  0  0  0  0  0  0  0  0  0  0  0
  147.8052  140.7464  151.8816 H   0  0  0  0  0  0  0  0  0  0  0  0
  146.1561  141.0570  152.3900 H   0  0  0  0  0  0  0  0  0  0  0  0
  147.7171  142.7018  153.4117 H   0  0  0  0  0  0  0  0  0  0  0  0
  146.8869  141.7558  154.6249 H   0  0  0  0  0  0  0  0  0  0  0  0
  149.7270  141.2970  153.6070 H   0  0  0  0  0  0  0  0  0  0  0  0
  148.8989  143.0181  155.5578 H   0  0  0  0  0  0  0  0  0  0  0  0
  149.8672  143.6761  157.1153 H   0  0  0  0  0  0  0  0  0  0  0  0
  152.2773  141.0094  158.3685 H   0  0  0  0  0  0  0  0  0  0  0  0
  153.6362  141.4371  160.3909 H   0  0  0  0  0  0  0  0  0  0  0  0
  153.3790  143.6215  161.5923 H   0  0  0  0  0  0  0  0  0  0  0  0
  150.5422  144.9485  158.9052 H   0  0  0  0  0  0  0  0  0  0  0  0
  149.8446  139.4352  155.2404 H   0  0  0  0  0  0  0  0  0  0  0  0
  148.2041  139.7408  155.7586 H   0  0  0  0  0  0  0  0  0  0  0  0
  148.2473  137.8554  154.1933 H   0  0  0  0  0  0  0  0  0  0  0  0
  149.0675  138.8063  152.9742 H   0  0  0  0  0  0  0  0  0  0  0  0
  146.4008  139.3759  154.0496 H   0  0  0  0  0  0  0  0  0  0  0  0
  1  2  1  0  0  0  0
  1 22  1  0  0  0  0
  1 23  1  0  0  0  0
  1 24  1  0  0  0  0
  2  3  1  0  0  0  0
  3  4  2  0  0  0  0
  3  5  1  0  0  0  0
  5  6  1  0  0  0  0
  5 25  1  0  0  0  0
  5 26  1  0  0  0  0
  6 21  1  0  0  0  0
  6  7  1  0  0  0  0
  6 42  1  0  0  0  0
  7  8  1  0  0  0  0
  7 27  1  0  0  0  0
  7 28  1  0  0  0  0
  8  9  1  0  0  0  0
  8 29  1  0  0  0  0
  8 30  1  0  0  0  0
  9 10  1  0  0  0  0
  9 20  1  0  0  0  0
  9 31  1  0  0  0  0
 10 11  1  0  0  0  0
 10 32  1  0  0  0  0
 11 12  2  0  0  0  0
 11 13  1  0  0  0  0
 13 14  1  0  0  0  0
 13 33  1  0  0  0  0
 14 19  1  0  0  0  0
 14 15  2  0  0  0  0
 15 16  1  0  0  0  0
 15 34  1  0  0  0  0
 16 17  2  0  0  0  0
 16 35  1  0  0  0  0
 17 18  1  0  0  0  0
 17 36  1  0  0  0  0
 18 19  2  0  0  0  0
 19 37  1  0  0  0  0
 20 21  1  0  0  0  0
 20 38  1  0  0  0  0
 20 39  1  0  0  0  0
 21 40  1  0  0  0  0
 21 41  1  0  0  0  0
M  CHG  1   2  -1
M  CHG  1   6   1
M  END
> <s_m_source_file>
AV-unprocessed.smi

> <i_m_source_file_index>
1200

> <i_lp_mmshare_version>
43012

> <i_f3d_flags>
0

> <s_epik_input>
W0NIM11bTkhdQyg9TylbQ0gyXU4xW0NIMl1bQ0gyXVtDSF0oW0NIMl1bQ0gyXTEpW05IXUMoPU8pW05IXWMyW2NIXVtjSF1bY0hdbltjSF0y

> <s_epik_cmdline>
J2VwaWtfcHl0aG9uJywgJy1waCcsICc3LjAnLCAnLXRuJywgJzgnLCAnLW1hJywgJzIwMCcsICctbWV0YWxfYmluZGluZycsICctaW1hZScsICc8aW5maWxlLm1hZT4nLCAnLW9tYWUnLCAnPG91dGZpbGUubWFlPic=

> <r_epik_Ionization_Penalty>
6.14345

> <r_epik_Ionization_Penalty_Charging>
6.13946

> <r_epik_Ionization_Penalty_Neutral>
0.00398477

> <r_epik_State_Penalty>
6.94483

> <r_epik_Charging_Adjusted_Penalty>
13.0843

> <i_epik_Tot_Q>
0

> <i_epik_Tot_abs_Q>
2

> <r_epik_Metal_State_Penalty>
2.87819

> <b_epik_Metal_Only>
1

> <s_lp_Force_Field>
OPLS_2005

> <r_lp_Energy>
13.1486

> <b_lp_Chiralities_Consistent>
1

> <s_lp_Variant>
AV-unprocessed.smi:1200-4

> <Gold.Version>
5.8.1

> <Gold.Id.Protein>
6NUR|6NUR_protein|mol2

> <Gold.PLP.Fitness>
41.7600

> <Gold.PLP.PLP>
-37.1149

> <Gold.PLP.part.hbond>
-2.0000

> <Gold.PLP.part.metal>
0.0000

> <Gold.PLP.part.buried>
-5.3836

> <Gold.PLP.part.nonpolar>
-30.4787

> <Gold.PLP.part.repulsive>
0.5577

> <Gold.PLP.ligand.clash>
0.0000

> <Gold.PLP.ligand.torsion>
0.5644

> <Gold.PLP.Chemscore.Hbond>
1.9120

> <Gold.PLP.Chemscore.CHOScore>
0.0000

> <Gold.PLP.Chemscore.Metal>
0.0000

> <Gold.Chemscore.Hbonds>
donor molecule, donor type, donor heavy atom, donor atom, acceptor molecule, acceptor atom, score
      L1  H    10    32       P1  8028  1.00
      L1  H    13    33       P1  8028  0.91

> <Gold.PLP.Chemscore.Internal.Correction>
0.0379

> <Gold.Rescore>
     Score         DG    S(hbond)    S(metal)    S(lipo)     H(rot)  DE(clash)    DE(int)     intcor
     15.47     -19.75       1.93        0.00     102.64       1.63       0.17       4.10       ----

> <Gold.Chemscore.Fitness>
15.4729

> <Gold.Chemscore.DG>
-19.7462

> <Gold.Chemscore.ZeroCoef>
-5.4800

> <Gold.Chemscore.Hbond>
1.9268

> <Gold.Chemscore.Metal>
0.0000

> <Gold.Chemscore.Lipo>
102.6434

> <Gold.Chemscore.Internal_Hbond>
0.0000

> <Gold.Chemscore.DEClash>
0.1732

> <Gold.Chemscore.DEInternal>
4.1001

> <Gold.Chemscore.Rot>
1.6323

> <Gold.Chemscore.Internal.Correction>
   9.000000E+99

> <Gold.Chemscore.Hbonds>
donor molecule, donor type, donor heavy atom, donor atom, acceptor molecule, acceptor atom, score
      L1  H    10    32       P1  8028  0.97
      L1  H    13    33       P1  8028  0.78

> <Gold.Chemscore.Hbond.Weighted>
-6.4355

> <Gold.Chemscore.Metal.Weighted>
-0.0000

> <Gold.Chemscore.Lipo.Weighted>
-12.0093

> <Gold.Chemscore.Internal_Hbond.Weighted>
0.0000

> <Gold.Chemscore.DEClash.Weighted>
0.1732

> <Gold.Chemscore.DEInternal.Weighted>
4.1001

> <Gold.Chemscore.Rot.Weighted>
4.1786

> <Gold.Chemscore.Internal.Correction.Weighted>
   9.000000E+99

> <Gold.Protein.RotatedTorsions>
[ 6907 6896 6895 6894 ] final -155.54 input  -60.11 | X-H torsion
[ 7974 7965 7964 7962 ] final   37.06 input  175.53 | X-H torsion
[ 8008 7997 7996 7995 ] final  178.80 input   59.86 | X-H torsion
[ 10167 10162 10161 10158 ] final  -18.21 input  -65.29 | X-H torsion
[ 10718 10713 10712 10709 ] final -139.41 input   66.30 | X-H torsion
[ 10763 10752 10751 10750 ] final   73.90 input  -60.55 | X-H torsion
[ 11005 11000 10999 10996 ] final   78.40 input  -57.11 | X-H torsion

> <Gold.Protein.ActiveResidues>
 VAL166  LYS551  ARG553  GLY616  TRP617  ASP618  TYR619  PRO620  LYS621  CYS622 
 ASP623  PHE694  ASN695  SER759  ASP760  ASP761  ALA762  ILE779  LEU786  VAL792 
 PHE793  MET794  SER795  GLU796  ALA797  LYS798  CYS799  TRP800  GLU811  SER814 

> <Gold.Protein.RotatedAtoms>
  151.2741  133.4241  159.2622 H   0  0  0  0  0  0  0  0  0  0  0  0  # atno 6907 bound_to 6896
  151.0419  134.9613  159.8176 H   0  0  0  0  0  0  0  0  0  0  0  0  # atno 6908 bound_to 6896
  152.5366  134.2699  159.9020 H   0  0  0  0  0  0  0  0  0  0  0  0  # atno 6909 bound_to 6896
  146.1165  139.5940  142.9318 H   0  0  0  0  0  0  0  0  0  0  0  0  # atno 7974 bound_to 7965
  156.0506  140.1324  157.0054 H   0  0  0  0  0  0  0  0  0  0  0  0  # atno 8008 bound_to 7997
  154.4433  140.1011  156.6442 H   0  0  0  0  0  0  0  0  0  0  0  0  # atno 8009 bound_to 7997
  155.5529  140.3463  155.4475 H   0  0  0  0  0  0  0  0  0  0  0  0  # atno 8010 bound_to 7997
  140.7256  143.4939  150.9956 H   0  0  0  0  0  0  0  0  0  0  0  0  # atno 10167 bound_to 10162
  156.3105  130.7479  151.1553 H   0  0  0  0  0  0  0  0  0  0  0  0  # atno 10718 bound_to 10713
  153.0551  135.5045  154.7963 H   0  0  0  0  0  0  0  0  0  0  0  0  # atno 10763 bound_to 10752
  154.6794  135.2966  154.9636 H   0  0  0  0  0  0  0  0  0  0  0  0  # atno 10764 bound_to 10752
  154.0427  135.6715  153.4844 H   0  0  0  0  0  0  0  0  0  0  0  0  # atno 10765 bound_to 10752
  139.9214  134.7761  156.1645 H   0  0  0  0  0  0  0  0  0  0  0  0  # atno 11005 bound_to 11000
  145.5555  141.0409  143.2255 LP  0  0  0  0  0  0  0  0  0  0  0  0  # atno 17320 bound_to 7965
  144.7558  139.7078  143.7254 LP  0  0  0  0  0  0  0  0  0  0  0  0  # atno 17321 bound_to 7965
  139.8644  143.7272  152.3171 LP  0  0  0  0  0  0  0  0  0  0  0  0  # atno 17342 bound_to 10162
  139.7499  144.7537  151.0522 LP  0  0  0  0  0  0  0  0  0  0  0  0  # atno 17343 bound_to 10162
  157.7390  131.0535  150.5261 LP  0  0  0  0  0  0  0  0  0  0  0  0  # atno 17370 bound_to 10713
  156.5400  130.4206  149.6158 LP  0  0  0  0  0  0  0  0  0  0  0  0  # atno 17371 bound_to 10713
  141.0738  133.6785  156.2194 LP  0  0  0  0  0  0  0  0  0  0  0  0  # atno 17394 bound_to 11000
  140.6463  134.5113  157.5574 LP  0  0  0  0  0  0  0  0  0  0  0  0  # atno 17395 bound_to 11000

$$$$
