AV-unprocessed.smi:3181|AV-procd|sdf|12142|dock1
  -GOLD-   2272017583D 1   1.00000     0.00000
 Structure written by MMmdl.
 42 43  0  0  0  0  0  0  0  0  2 V2000
  147.8347  141.3584  155.7914 C   0  0  0  0  0  0  0  0  0  0  0  0
  149.2990  140.8904  155.7530 C   0  0  1  0  0  0  0  0  0  0  0  0
  149.6864  140.2743  154.3909 C   0  0  0  0  0  0  0  0  0  0  0  0
  150.7670  139.3103  154.4914 N   0  0  0  0  0  0  0  0  0  0  0  0
  150.7969  138.0058  154.2135 C   0  0  0  0  0  0  0  0  0  0  0  0
  151.9780  137.4417  154.4220 N   0  0  0  0  0  0  0  0  0  0  0  0
  152.6805  138.5326  154.8498 C   0  0  0  0  0  0  0  0  0  0  0  0
  152.0015  139.6788  154.9061 N   0  0  0  0  0  0  0  0  0  0  0  0
  150.1895  142.0313  156.0662 N   0  3  0  0  0  0  0  0  0  0  0  0
  150.5575  142.2036  157.4904 C   0  0  1  0  0  0  0  0  0  0  0  0
  151.5585  141.1316  157.9603 C   0  0  0  0  0  0  0  0  0  0  0  0
  151.9701  141.3612  159.4213 C   0  0  0  0  0  0  0  0  0  0  0  0
  152.5612  142.7676  159.6476 C   0  0  2  0  0  0  0  0  0  0  0  0
  152.9642  142.9342  161.1238 C   0  0  0  0  0  0  0  0  0  0  0  0
  151.5698  143.8588  159.1650 C   0  0  1  0  0  0  0  0  0  0  0  0
  152.1307  145.2853  159.3079 C   0  0  0  0  0  0  0  0  0  0  0  0
  151.1534  143.6059  157.7012 C   0  0  0  0  0  0  0  0  0  0  0  0
  147.1443  140.5271  155.6467 H   0  0  0  0  0  0  0  0  0  0  0  0
  147.6328  142.0980  155.0158 H   0  0  0  0  0  0  0  0  0  0  0  0
  147.5938  141.8116  156.7537 H   0  0  0  0  0  0  0  0  0  0  0  0
  149.4123  140.1288  156.5261 H   0  0  0  0  0  0  0  0  0  0  0  0
  148.8244  139.7751  153.9459 H   0  0  0  0  0  0  0  0  0  0  0  0
  149.9911  141.0494  153.6872 H   0  0  0  0  0  0  0  0  0  0  0  0
  149.9386  137.4564  153.8551 H   0  0  0  0  0  0  0  0  0  0  0  0
  153.7229  138.4805  155.1273 H   0  0  0  0  0  0  0  0  0  0  0  0
  151.0304  141.9585  155.5114 H   0  0  0  0  0  0  0  0  0  0  0  0
  149.6464  142.1309  158.0871 H   0  0  0  0  0  0  0  0  0  0  0  0
  151.1241  140.1358  157.8698 H   0  0  0  0  0  0  0  0  0  0  0  0
  152.4447  141.1436  157.3243 H   0  0  0  0  0  0  0  0  0  0  0  0
  151.1021  141.2190  160.0668 H   0  0  0  0  0  0  0  0  0  0  0  0
  152.6960  140.6012  159.7137 H   0  0  0  0  0  0  0  0  0  0  0  0
  153.4702  142.8453  159.0489 H   0  0  0  0  0  0  0  0  0  0  0  0
  152.0909  142.9337  161.7766 H   0  0  0  0  0  0  0  0  0  0  0  0
  153.5097  143.8623  161.2930 H   0  0  0  0  0  0  0  0  0  0  0  0
  153.6174  142.1223  161.4449 H   0  0  0  0  0  0  0  0  0  0  0  0
  150.6709  143.7976  159.7805 H   0  0  0  0  0  0  0  0  0  0  0  0
  153.0763  145.3955  158.7760 H   0  0  0  0  0  0  0  0  0  0  0  0
  152.2991  145.5523  160.3508 H   0  0  0  0  0  0  0  0  0  0  0  0
  151.4358  146.0219  158.9033 H   0  0  0  0  0  0  0  0  0  0  0  0
  152.0196  143.7369  157.0505 H   0  0  0  0  0  0  0  0  0  0  0  0
  150.4249  144.3580  157.3948 H   0  0  0  0  0  0  0  0  0  0  0  0
  149.7007  142.8700  155.7875 H   0  0  0  0  0  0  0  0  0  0  0  0
  1  2  1  0  0  0  0
  1 18  1  0  0  0  0
  1 19  1  0  0  0  0
  1 20  1  0  0  0  0
  2  3  1  0  0  0  0
  2  9  1  0  0  0  0
  2 21  1  0  0  0  0
  3  4  1  0  0  0  0
  3 22  1  0  0  0  0
  3 23  1  0  0  0  0
  4  8  1  0  0  0  0
  4  5  1  0  0  0  0
  5  6  2  0  0  0  0
  5 24  1  0  0  0  0
  6  7  1  0  0  0  0
  7  8  2  0  0  0  0
  7 25  1  0  0  0  0
  9 10  1  0  0  0  0
  9 26  1  0  0  0  0
  9 42  1  0  0  0  0
 10 17  1  0  0  0  0
 10 11  1  0  0  0  0
 10 27  1  0  0  0  0
 11 12  1  0  0  0  0
 11 28  1  0  0  0  0
 11 29  1  0  0  0  0
 12 13  1  0  0  0  0
 12 30  1  0  0  0  0
 12 31  1  0  0  0  0
 13 14  1  0  0  0  0
 13 15  1  0  0  0  0
 13 32  1  0  0  0  0
 14 33  1  0  0  0  0
 14 34  1  0  0  0  0
 14 35  1  0  0  0  0
 15 16  1  0  0  0  0
 15 17  1  0  0  0  0
 15 36  1  0  0  0  0
 16 37  1  0  0  0  0
 16 38  1  0  0  0  0
 16 39  1  0  0  0  0
 17 40  1  0  0  0  0
 17 41  1  0  0  0  0
M  CHG  1   9   1
M  END
> <s_m_source_file>
AV-unprocessed.smi

> <i_m_source_file_index>
3181

> <i_lp_mmshare_version>
43012

> <i_f3d_flags>
0

> <s_epik_input>
bjFbY0hdbltjSF1uMVtDSDJdW0NAQEhdKFtDSDNdKVtOSF1bQ0BASF0yW0NIMl1bQ0gyXVtDQEBIXShbQ0gzXSlbQ0BASF0oW0NIM10pW0NIMl0y

> <s_epik_cmdline>
J2VwaWtfcHl0aG9uJywgJy1waCcsICc3LjAnLCAnLXRuJywgJzgnLCAnLW1hJywgJzIwMCcsICctbWV0YWxfYmluZGluZycsICctaW1hZScsICc8aW5maWxlLm1hZT4nLCAnLW9tYWUnLCAnPG91dGZpbGUubWFlPic=

> <r_lp_tautomer_probability>
1

> <r_epik_Ionization_Penalty>
0.000617007

> <r_epik_Ionization_Penalty_Charging>
0.000616215

> <r_epik_Ionization_Penalty_Neutral>
7.92544e-07

> <r_epik_State_Penalty>
0.000388807

> <r_epik_Charging_Adjusted_Penalty>
0.00100502

> <i_epik_Tot_Q>
1

> <i_epik_Tot_abs_Q>
1

> <r_epik_Metal_State_Penalty>
-0

> <b_epik_Metal_Only>
0

> <s_lp_Force_Field>
OPLS_2005

> <r_lp_Energy>
19.8676

> <b_lp_Chiralities_Consistent>
1

> <s_lp_Variant>
AV-unprocessed.smi:3181-8

> <Gold.Version>
5.8.1

> <Gold.Id.Protein>
6NUR|6NUR_protein|mol2

> <Gold.PLP.Fitness>
53.0249

> <Gold.PLP.PLP>
-42.8133

> <Gold.PLP.part.hbond>
-3.0000

> <Gold.PLP.part.metal>
0.0000

> <Gold.PLP.part.buried>
-3.6555

> <Gold.PLP.part.nonpolar>
-36.7122

> <Gold.PLP.part.repulsive>
0.2903

> <Gold.PLP.ligand.clash>
0.0000

> <Gold.PLP.ligand.torsion>
0.8465

> <Gold.PLP.Chemscore.Hbond>
2.9440

> <Gold.PLP.Chemscore.CHOScore>
1.0000

> <Gold.PLP.Chemscore.Metal>
0.0000

> <Gold.Chemscore.Hbonds>
donor molecule, donor type, donor heavy atom, donor atom, acceptor molecule, acceptor atom, score
      L1  H     9    42       P1  8028  2.00
      P1  H 10752 10763       L1     6  0.90
      L1  C     5    24       P1  7948  1.00

> <Gold.PLP.Chemscore.Internal.Correction>
0.0726

> <Gold.Rescore>
     Score         DG    S(hbond)    S(metal)    S(lipo)     H(rot)  DE(clash)    DE(int)     intcor
     16.67     -17.82       1.82        0.00      99.67       2.11       0.18       0.97       ----

> <Gold.Chemscore.Fitness>
16.6701

> <Gold.Chemscore.DG>
-17.8227

> <Gold.Chemscore.ZeroCoef>
-5.4800

> <Gold.Chemscore.Hbond>
1.8207

> <Gold.Chemscore.Metal>
0.0000

> <Gold.Chemscore.Lipo>
99.6738

> <Gold.Chemscore.Internal_Hbond>
0.0000

> <Gold.Chemscore.DEClash>
0.1806

> <Gold.Chemscore.DEInternal>
0.9721

> <Gold.Chemscore.Rot>
2.1095

> <Gold.Chemscore.Internal.Correction>
   9.000000E+99

> <Gold.Chemscore.Hbonds>
donor molecule, donor type, donor heavy atom, donor atom, acceptor molecule, acceptor atom, score
      L1  H     9    42       P1  8028  0.93
      P1  H 10752 10763       L1     6  0.79

> <Gold.Chemscore.Hbond.Weighted>
-6.0812

> <Gold.Chemscore.Metal.Weighted>
-0.0000

> <Gold.Chemscore.Lipo.Weighted>
-11.6618

> <Gold.Chemscore.Internal_Hbond.Weighted>
0.0000

> <Gold.Chemscore.DEClash.Weighted>
0.1806

> <Gold.Chemscore.DEInternal.Weighted>
0.9721

> <Gold.Chemscore.Rot.Weighted>
5.4003

> <Gold.Chemscore.Internal.Correction.Weighted>
   9.000000E+99

> <Gold.Protein.RotatedTorsions>
[ 6907 6896 6895 6894 ] final    3.23 input  -60.11 | X-H torsion
[ 7974 7965 7964 7962 ] final  127.30 input  175.53 | X-H torsion
[ 8008 7997 7996 7995 ] final  178.22 input   59.86 | X-H torsion
[ 10167 10162 10161 10158 ] final  -14.91 input  -65.29 | X-H torsion
[ 10718 10713 10712 10709 ] final  118.40 input   66.30 | X-H torsion
[ 10763 10752 10751 10750 ] final   41.50 input  -60.55 | X-H torsion
[ 11005 11000 10999 10996 ] final  134.99 input  -57.11 | X-H torsion

> <Gold.Protein.ActiveResidues>
 VAL166  LYS551  ARG553  GLY616  TRP617  ASP618  TYR619  PRO620  LYS621  CYS622 
 ASP623  PHE694  ASN695  SER759  ASP760  ASP761  ALA762  ILE779  LEU786  VAL792 
 PHE793  MET794  SER795  GLU796  ALA797  LYS798  CYS799  TRP800  GLU811  SER814 

> <Gold.Protein.RotatedAtoms>
  151.6217  135.1031  160.0102 H   0  0  0  0  0  0  0  0  0  0  0  0  # atno 6907 bound_to 6896
  152.4154  133.7026  159.6443 H   0  0  0  0  0  0  0  0  0  0  0  0  # atno 6908 bound_to 6896
  150.8042  133.8466  159.3235 H   0  0  0  0  0  0  0  0  0  0  0  0  # atno 6909 bound_to 6896
  145.0521  139.3874  143.5048 H   0  0  0  0  0  0  0  0  0  0  0  0  # atno 7974 bound_to 7965
  156.0571  140.1339  156.9984 H   0  0  0  0  0  0  0  0  0  0  0  0  # atno 8008 bound_to 7997
  154.4463  140.0999  156.6532 H   0  0  0  0  0  0  0  0  0  0  0  0  # atno 8009 bound_to 7997
  155.5435  140.3461  155.4454 H   0  0  0  0  0  0  0  0  0  0  0  0  # atno 8010 bound_to 7997
  140.7209  143.5272  150.9562 H   0  0  0  0  0  0  0  0  0  0  0  0  # atno 10167 bound_to 10162
  157.6033  131.1047  150.7750 H   0  0  0  0  0  0  0  0  0  0  0  0  # atno 10718 bound_to 10713
  152.9907  135.6160  154.2797 H   0  0  0  0  0  0  0  0  0  0  0  0  # atno 10763 bound_to 10752
  154.2527  135.2785  155.2812 H   0  0  0  0  0  0  0  0  0  0  0  0  # atno 10764 bound_to 10752
  154.5274  135.5798  153.6788 H   0  0  0  0  0  0  0  0  0  0  0  0  # atno 10765 bound_to 10752
  139.9951  134.9500  156.9945 H   0  0  0  0  0  0  0  0  0  0  0  0  # atno 11005 bound_to 11000
  146.3518  140.0177  142.8661 LP  0  0  0  0  0  0  0  0  0  0  0  0  # atno 17320 bound_to 7965
  145.1514  140.9625  143.4431 LP  0  0  0  0  0  0  0  0  0  0  0  0  # atno 17321 bound_to 7965
  139.8991  143.6858  152.3134 LP  0  0  0  0  0  0  0  0  0  0  0  0  # atno 17342 bound_to 10162
  139.7201  144.7604  151.0970 LP  0  0  0  0  0  0  0  0  0  0  0  0  # atno 17343 bound_to 10162
  156.8144  130.4963  149.5351 LP  0  0  0  0  0  0  0  0  0  0  0  0  # atno 17370 bound_to 10713
  156.1112  130.6041  151.0050 LP  0  0  0  0  0  0  0  0  0  0  0  0  # atno 17371 bound_to 10713
  140.4834  134.1266  155.7220 LP  0  0  0  0  0  0  0  0  0  0  0  0  # atno 17394 bound_to 11000
  141.1597  133.8815  157.1880 LP  0  0  0  0  0  0  0  0  0  0  0  0  # atno 17395 bound_to 11000

$$$$
