AV-unprocessed.smi:951|AV-procd|sdf|4253|dock6
  -GOLD-   22720 2163D 1   1.00000     0.00000
 Structure written by MMmdl.
 52 54  0  0  0  0  0  0  0  0  2 V2000
  152.0453  137.4613  159.0628 O   0  0  0  0  0  0  0  0  0  0  0  0
  151.0942  137.6610  158.3055 C   0  0  0  0  0  0  0  0  0  0  0  0
  150.7917  138.8703  157.8098 N   0  0  0  0  0  0  0  0  0  0  0  0
  151.5457  140.0904  158.0690 C   0  0  0  0  0  0  0  0  0  0  0  0
  150.8043  141.3350  157.5533 C   0  0  0  0  0  0  0  0  0  0  0  0
  151.3260  142.6124  158.1811 C   0  0  0  0  0  0  0  0  0  0  0  0
  152.3253  142.6070  159.1785 C   0  0  0  0  0  0  0  0  0  0  0  0
  152.7596  143.8330  159.7248 C   0  0  0  0  0  0  0  0  0  0  0  0
  152.1859  145.0361  159.2636 C   0  0  0  0  0  0  0  0  0  0  0  0
  151.1896  144.9828  158.2673 C   0  0  0  0  0  0  0  0  0  0  0  0
  150.8006  143.7888  157.7687 N   0  3  0  0  0  0  0  0  0  0  0  0
  150.1619  136.5039  157.8962 C   0  0  2  0  0  0  0  0  0  0  0  0
  149.8306  136.6119  156.3994 C   0  0  0  0  0  0  0  0  0  0  0  0
  148.4538  135.9935  156.2655 C   0  0  0  0  0  0  0  0  0  0  0  0
  147.7775  136.2620  157.6083 C   0  0  0  0  0  0  0  0  0  0  0  0
  148.8527  136.4787  158.5819 N   0  0  0  0  0  0  0  0  0  0  0  0
  148.6674  136.5498  159.9263 C   0  0  0  0  0  0  0  0  0  0  0  0
  149.6182  136.5973  160.7075 O   0  0  0  0  0  0  0  0  0  0  0  0
  147.2284  136.5579  160.5005 C   0  0  0  0  0  0  0  0  0  0  0  0
  147.1761  136.8263  162.0269 C   0  0  0  0  0  0  0  0  0  0  0  0
  147.5347  135.6065  162.9002 C   0  0  0  0  0  0  0  0  0  0  0  0
  146.7205  134.3666  162.5029 C   0  0  0  0  0  0  0  0  0  0  0  0
  146.8763  134.0566  161.0073 C   0  0  0  0  0  0  0  0  0  0  0  0
  146.4590  135.2633  160.1481 C   0  0  0  0  0  0  0  0  0  0  0  0
  149.9907  138.9464  157.1994 H   0  0  0  0  0  0  0  0  0  0  0  0
  151.7509  140.1784  159.1373 H   0  0  0  0  0  0  0  0  0  0  0  0
  152.5131  140.0025  157.5737 H   0  0  0  0  0  0  0  0  0  0  0  0
  150.9004  141.4039  156.4687 H   0  0  0  0  0  0  0  0  0  0  0  0
  149.7366  141.2553  157.7622 H   0  0  0  0  0  0  0  0  0  0  0  0
  152.7535  141.6769  159.5232 H   0  0  0  0  0  0  0  0  0  0  0  0
  153.5229  143.8497  160.4889 H   0  0  0  0  0  0  0  0  0  0  0  0
  152.5049  145.9854  159.6686 H   0  0  0  0  0  0  0  0  0  0  0  0
  150.6960  145.8519  157.8575 H   0  0  0  0  0  0  0  0  0  0  0  0
  150.6493  135.5473  158.0942 H   0  0  0  0  0  0  0  0  0  0  0  0
  149.7766  137.6544  156.0795 H   0  0  0  0  0  0  0  0  0  0  0  0
  150.5702  136.1142  155.7714 H   0  0  0  0  0  0  0  0  0  0  0  0
  147.8896  136.3871  155.4197 H   0  0  0  0  0  0  0  0  0  0  0  0
  148.5578  134.9170  156.1225 H   0  0  0  0  0  0  0  0  0  0  0  0
  147.1739  137.1680  157.5384 H   0  0  0  0  0  0  0  0  0  0  0  0
  147.1237  135.4344  157.8866 H   0  0  0  0  0  0  0  0  0  0  0  0
  146.6881  137.3906  160.0537 H   0  0  0  0  0  0  0  0  0  0  0  0
  147.8253  137.6644  162.2841 H   0  0  0  0  0  0  0  0  0  0  0  0
  146.1663  137.1484  162.2853 H   0  0  0  0  0  0  0  0  0  0  0  0
  148.5984  135.3826  162.8280 H   0  0  0  0  0  0  0  0  0  0  0  0
  147.3531  135.8430  163.9490 H   0  0  0  0  0  0  0  0  0  0  0  0
  147.0368  133.5084  163.0964 H   0  0  0  0  0  0  0  0  0  0  0  0
  145.6672  134.5312  162.7338 H   0  0  0  0  0  0  0  0  0  0  0  0
  147.9087  133.7793  160.7923 H   0  0  0  0  0  0  0  0  0  0  0  0
  146.2675  133.1907  160.7456 H   0  0  0  0  0  0  0  0  0  0  0  0
  145.3911  135.4400  160.2823 H   0  0  0  0  0  0  0  0  0  0  0  0
  146.5877  135.0199  159.0928 H   0  0  0  0  0  0  0  0  0  0  0  0
  150.0777  143.7736  157.0485 H   0  0  0  0  0  0  0  0  0  0  0  0
  1  2  2  0  0  0  0
  2  3  1  0  0  0  0
  2 12  1  0  0  0  0
  3  4  1  0  0  0  0
  3 25  1  0  0  0  0
  4  5  1  0  0  0  0
  4 26  1  0  0  0  0
  4 27  1  0  0  0  0
  5  6  1  0  0  0  0
  5 28  1  0  0  0  0
  5 29  1  0  0  0  0
  6 11  1  0  0  0  0
  6  7  2  0  0  0  0
  7  8  1  0  0  0  0
  7 30  1  0  0  0  0
  8  9  2  0  0  0  0
  8 31  1  0  0  0  0
  9 10  1  0  0  0  0
  9 32  1  0  0  0  0
 10 11  2  0  0  0  0
 10 33  1  0  0  0  0
 11 52  1  0  0  0  0
 12 16  1  0  0  0  0
 12 13  1  0  0  0  0
 12 34  1  0  0  0  0
 13 14  1  0  0  0  0
 13 35  1  0  0  0  0
 13 36  1  0  0  0  0
 14 15  1  0  0  0  0
 14 37  1  0  0  0  0
 14 38  1  0  0  0  0
 15 16  1  0  0  0  0
 15 39  1  0  0  0  0
 15 40  1  0  0  0  0
 16 17  1  0  0  0  0
 17 18  2  0  0  0  0
 17 19  1  0  0  0  0
 19 24  1  0  0  0  0
 19 20  1  0  0  0  0
 19 41  1  0  0  0  0
 20 21  1  0  0  0  0
 20 42  1  0  0  0  0
 20 43  1  0  0  0  0
 21 22  1  0  0  0  0
 21 44  1  0  0  0  0
 21 45  1  0  0  0  0
 22 23  1  0  0  0  0
 22 46  1  0  0  0  0
 22 47  1  0  0  0  0
 23 24  1  0  0  0  0
 23 48  1  0  0  0  0
 23 49  1  0  0  0  0
 24 50  1  0  0  0  0
 24 51  1  0  0  0  0
M  CHG  1  11   1
M  END
> <s_m_source_file>
AV-unprocessed.smi

> <i_m_source_file_index>
951

> <i_lp_mmshare_version>
43012

> <i_f3d_flags>
0

> <s_epik_input>
bjFbY0hdW2NIXVtjSF1bY0hdYzFbQ0gyXVtDSDJdW05IXUMoPU8pW0NAQEhdMltDSDJdW0NIMl1bQ0gyXU4yQyg9TylbQ0hdM1tDSDJdW0NIMl1bQ0gyXVtDSDJdW0NIMl0z

> <s_epik_cmdline>
J2VwaWtfcHl0aG9uJywgJy1waCcsICc3LjAnLCAnLXRuJywgJzgnLCAnLW1hJywgJzIwMCcsICctbWV0YWxfYmluZGluZycsICctaW1hZScsICc8aW5maWxlLm1hZT4nLCAnLW9tYWUnLCAnPG91dGZpbGUubWFlPic=

> <r_epik_Ionization_Penalty>
1.85306

> <r_epik_Ionization_Penalty_Charging>
1.85306

> <r_epik_Ionization_Penalty_Neutral>
5.78903e-08

> <r_epik_State_Penalty>
1.97071

> <r_epik_Charging_Adjusted_Penalty>
3.82377

> <i_epik_Tot_Q>
1

> <i_epik_Tot_abs_Q>
1

> <r_epik_Metal_State_Penalty>
1.99634

> <b_epik_Metal_Only>
0

> <s_lp_Force_Field>
OPLS_2005

> <r_lp_Energy>
27.2114

> <b_lp_Chiralities_Consistent>
1

> <s_lp_Variant>
AV-unprocessed.smi:951-3

> <Gold.Version>
5.8.1

> <Gold.Id.Protein>
6NUR|6NUR_protein|mol2

> <Gold.PLP.Fitness>
50.1741

> <Gold.PLP.PLP>
-42.5591

> <Gold.PLP.part.hbond>
-2.5832

> <Gold.PLP.part.metal>
0.0000

> <Gold.PLP.part.buried>
-3.3513

> <Gold.PLP.part.nonpolar>
-36.6857

> <Gold.PLP.part.repulsive>
0.0572

> <Gold.PLP.ligand.clash>
0.0000

> <Gold.PLP.ligand.torsion>
0.6553

> <Gold.PLP.Chemscore.Hbond>
2.9451

> <Gold.PLP.Chemscore.CHOScore>
0.0000

> <Gold.PLP.Chemscore.Metal>
0.0000

> <Gold.Chemscore.Hbonds>
donor molecule, donor type, donor heavy atom, donor atom, acceptor molecule, acceptor atom, score
      L1  H    11    52       P1  8028  1.92
      P1  H  6896  6909       L1    18  0.37
      P1  H  6931  6943       L1    18  0.55

> <Gold.PLP.Chemscore.Internal.Correction>
0.0904

> <Gold.Rescore>
     Score         DG    S(hbond)    S(metal)    S(lipo)     H(rot)  DE(clash)    DE(int)     intcor
     16.82     -20.22       1.48        0.00     120.01       1.65       0.87       2.54       ----

> <Gold.Chemscore.Fitness>
16.8205

> <Gold.Chemscore.DG>
-20.2225

> <Gold.Chemscore.ZeroCoef>
-5.4800

> <Gold.Chemscore.Hbond>
1.4783

> <Gold.Chemscore.Metal>
0.0000

> <Gold.Chemscore.Lipo>
120.0100

> <Gold.Chemscore.Internal_Hbond>
0.0000

> <Gold.Chemscore.DEClash>
0.8657

> <Gold.Chemscore.DEInternal>
2.5362

> <Gold.Chemscore.Rot>
1.6548

> <Gold.Chemscore.Internal.Correction>
   9.000000E+99

> <Gold.Chemscore.Hbonds>
donor molecule, donor type, donor heavy atom, donor atom, acceptor molecule, acceptor atom, score
      L1  H    11    52       P1  8028  0.84
      P1  H  6896  6909       L1    18  0.11
      P1  H  6931  6943       L1    18  0.16

> <Gold.Chemscore.Hbond.Weighted>
-4.9375

> <Gold.Chemscore.Metal.Weighted>
-0.0000

> <Gold.Chemscore.Lipo.Weighted>
-14.0412

> <Gold.Chemscore.Internal_Hbond.Weighted>
0.0000

> <Gold.Chemscore.DEClash.Weighted>
0.8657

> <Gold.Chemscore.DEInternal.Weighted>
2.5362

> <Gold.Chemscore.Rot.Weighted>
4.2362

> <Gold.Chemscore.Internal.Correction.Weighted>
   9.000000E+99

> <Gold.Protein.RotatedTorsions>
[ 6907 6896 6895 6894 ] final   84.16 input  -60.11 | X-H torsion
[ 7974 7965 7964 7962 ] final -123.65 input  175.53 | X-H torsion
[ 8008 7997 7996 7995 ] final  -93.64 input   59.86 | X-H torsion
[ 10167 10162 10161 10158 ] final    5.26 input  -65.29 | X-H torsion
[ 10718 10713 10712 10709 ] final   63.23 input   66.30 | X-H torsion
[ 10763 10752 10751 10750 ] final -142.54 input  -60.55 | X-H torsion
[ 11005 11000 10999 10996 ] final  -34.34 input  -57.11 | X-H torsion

> <Gold.Protein.ActiveResidues>
 VAL166  LYS551  ARG553  GLY616  TRP617  ASP618  TYR619  PRO620  LYS621  CYS622 
 ASP623  PHE694  ASN695  SER759  ASP760  ASP761  ALA762  ILE779  LEU786  VAL792 
 PHE793  MET794  SER795  GLU796  ALA797  LYS798  CYS799  TRP800  GLU811  SER814 

> <Gold.Protein.RotatedAtoms>
  152.5345  134.2783  159.8997 H   0  0  0  0  0  0  0  0  0  0  0  0  # atno 6907 bound_to 6896
  151.2738  133.4236  159.2630 H   0  0  0  0  0  0  0  0  0  0  0  0  # atno 6908 bound_to 6896
  151.0344  134.9577  159.8185 H   0  0  0  0  0  0  0  0  0  0  0  0  # atno 6909 bound_to 6896
  145.0164  140.7950  143.4407 H   0  0  0  0  0  0  0  0  0  0  0  0  # atno 7974 bound_to 7965
  154.7382  140.0497  157.0787 H   0  0  0  0  0  0  0  0  0  0  0  0  # atno 8008 bound_to 7997
  155.0213  140.3147  155.4773 H   0  0  0  0  0  0  0  0  0  0  0  0  # atno 8009 bound_to 7997
  156.2858  140.2166  156.5331 H   0  0  0  0  0  0  0  0  0  0  0  0  # atno 8010 bound_to 7997
  140.6491  143.7588  150.7547 H   0  0  0  0  0  0  0  0  0  0  0  0  # atno 10167 bound_to 10162
  157.5957  130.9094  149.9689 H   0  0  0  0  0  0  0  0  0  0  0  0  # atno 10718 bound_to 10713
  154.8505  135.3493  154.6044 H   0  0  0  0  0  0  0  0  0  0  0  0  # atno 10763 bound_to 10752
  153.6653  135.6987  153.5169 H   0  0  0  0  0  0  0  0  0  0  0  0  # atno 10764 bound_to 10752
  153.2785  135.4271  155.1013 H   0  0  0  0  0  0  0  0  0  0  0  0  # atno 10765 bound_to 10752
  140.9708  133.7110  156.1521 H   0  0  0  0  0  0  0  0  0  0  0  0  # atno 11005 bound_to 11000
  145.1954  139.2279  143.5221 LP  0  0  0  0  0  0  0  0  0  0  0  0  # atno 17320 bound_to 7965
  146.3478  140.1760  142.8589 LP  0  0  0  0  0  0  0  0  0  0  0  0  # atno 17321 bound_to 7965
  140.1235  143.4590  152.2298 LP  0  0  0  0  0  0  0  0  0  0  0  0  # atno 17342 bound_to 10162
  139.5705  144.7460  151.3905 LP  0  0  0  0  0  0  0  0  0  0  0  0  # atno 17343 bound_to 10162
  156.1019  130.3655  150.0203 LP  0  0  0  0  0  0  0  0  0  0  0  0  # atno 17370 bound_to 10713
  156.8317  130.9395  151.3637 LP  0  0  0  0  0  0  0  0  0  0  0  0  # atno 17371 bound_to 10713
  140.7331  134.4233  157.5563 LP  0  0  0  0  0  0  0  0  0  0  0  0  # atno 17394 bound_to 11000
  139.8912  134.8786  156.2333 LP  0  0  0  0  0  0  0  0  0  0  0  0  # atno 17395 bound_to 11000

$$$$
