AV-unprocessed.smi:35|AV-procd|sdf|274|dock4
  -GOLD-   2262016 43D 1   1.00000     0.00000
 Structure written by MMmdl.
 28 29  0  0  0  0  0  0  0  0  2 V2000
  152.7272  137.7028  160.4707 O   0  0  0  0  0  0  0  0  0  0  0  0
  151.8489  137.7741  159.6129 C   0  0  0  0  0  0  0  0  0  0  0  0
  151.1656  136.6845  159.1593 N   0  5  0  0  0  0  0  0  0  0  0  0
  150.1990  136.7675  158.1982 C   0  0  0  0  0  0  0  0  0  0  0  0
  149.5571  135.7923  157.8086 O   0  0  0  0  0  0  0  0  0  0  0  0
  149.9070  138.0338  157.6162 N   0  0  0  0  0  0  0  0  0  0  0  0
  148.8166  138.1178  156.5588 C   0  0  1  0  0  0  0  0  0  0  0  0
  148.5284  139.4535  156.2706 O   0  0  0  0  0  0  0  0  0  0  0  0
  149.2985  139.8787  155.1545 C   0  0  2  0  0  0  0  0  0  0  0  0
  148.6479  141.1260  154.5359 C   0  0  0  0  0  0  0  0  0  0  0  0
  149.2193  141.4135  153.2771 O   0  0  0  0  0  0  0  0  0  0  0  0
  149.3114  138.6439  154.2493 C   0  0  1  0  0  0  0  0  0  0  0  0
  150.5046  138.6114  153.4914 O   0  0  0  0  0  0  0  0  0  0  0  0
  149.2627  137.4695  155.2277 C   0  0  2  0  0  0  0  0  0  0  0  0
  148.3258  136.5086  154.7834 O   0  0  0  0  0  0  0  0  0  0  0  0
  150.5583  139.1629  158.0898 C   0  0  0  0  0  0  0  0  0  0  0  0
  151.5039  139.0745  159.0469 C   0  0  0  0  0  0  0  0  0  0  0  0
  152.3503  140.7721  159.6207 Br  0  0  0  0  0  0  0  0  0  0  0  0
  147.9492  137.6452  157.0237 H   0  0  0  0  0  0  0  0  0  0  0  0
  150.3087  140.1098  155.4967 H   0  0  0  0  0  0  0  0  0  0  0  0
  147.5711  140.9933  154.4278 H   0  0  0  0  0  0  0  0  0  0  0  0
  148.8021  141.9876  155.1862 H   0  0  0  0  0  0  0  0  0  0  0  0
  149.2840  140.6086  152.7860 H   0  0  0  0  0  0  0  0  0  0  0  0
  148.4423  138.6461  153.5893 H   0  0  0  0  0  0  0  0  0  0  0  0
  150.3098  138.9136  152.6172 H   0  0  0  0  0  0  0  0  0  0  0  0
  150.2414  137.0006  155.3433 H   0  0  0  0  0  0  0  0  0  0  0  0
  148.4812  136.3416  153.8668 H   0  0  0  0  0  0  0  0  0  0  0  0
  150.3156  140.1415  157.7066 H   0  0  0  0  0  0  0  0  0  0  0  0
  1  2  2  0  0  0  0
  2 17  1  0  0  0  0
  2  3  1  0  0  0  0
  3  4  1  0  0  0  0
  4  5  2  0  0  0  0
  4  6  1  0  0  0  0
  6  7  1  0  0  0  0
  6 16  1  0  0  0  0
  7 14  1  0  0  0  0
  7  8  1  0  0  0  0
  7 19  1  0  0  0  0
  8  9  1  0  0  0  0
  9 10  1  0  0  0  0
  9 12  1  0  0  0  0
  9 20  1  0  0  0  0
 10 11  1  0  0  0  0
 10 21  1  0  0  0  0
 10 22  1  0  0  0  0
 11 23  1  0  0  0  0
 12 13  1  0  0  0  0
 12 14  1  0  0  0  0
 12 24  1  0  0  0  0
 13 25  1  0  0  0  0
 14 15  1  0  0  0  0
 14 26  1  0  0  0  0
 15 27  1  0  0  0  0
 16 17  2  0  0  0  0
 16 28  1  0  0  0  0
 17 18  1  0  0  0  0
M  CHG  1   3  -1
M  END
> <s_m_source_file>
AV-unprocessed.smi

> <i_m_source_file_index>
35

> <i_lp_mmshare_version>
43012

> <i_f3d_flags>
0

> <s_epik_input>
Tz1jMVtuSF1jKD1PKW4oW2NIXWMxQnIpW0NAQEhdMk9bQ0BASF0oW0NIMl1bT0hdKVtDQEBIXShbT0hdKVtDQEhdMltPSF0=

> <s_epik_cmdline>
J2VwaWtfcHl0aG9uJywgJy1waCcsICc3LjAnLCAnLXRuJywgJzgnLCAnLW1hJywgJzIwMCcsICctbWV0YWxfYmluZGluZycsICctaW1hZScsICc8aW5maWxlLm1hZT4nLCAnLW9tYWUnLCAnPG91dGZpbGUubWFlPic=

> <r_epik_Ionization_Penalty>
1.06112

> <r_epik_Ionization_Penalty_Charging>
2.1796e-09

> <r_epik_Ionization_Penalty_Neutral>
1.06112

> <r_epik_State_Penalty>
1.11484

> <r_epik_Charging_Adjusted_Penalty>
1.11484

> <i_epik_Tot_Q>
-1

> <i_epik_Tot_abs_Q>
1

> <r_epik_Metal_State_Penalty>
0.0032876

> <b_epik_Metal_Only>
0

> <s_epik_Chemistry_Notes>
This compound contains an acetal/aminal-like group ( X-CH(R)-Y where X, Y are N, S, or O) that may be acid/base labile, releasing an aldehyde.

> <s_lp_Force_Field>
OPLS_2005

> <r_lp_Energy>
36.7062

> <b_lp_Chiralities_Consistent>
1

> <s_lp_Variant>
AV-unprocessed.smi:35-28

> <Gold.Version>
5.8.1

> <Gold.Id.Protein>
6NUR|6NUR_protein|mol2

> <Gold.PLP.Fitness>
37.7651

> <Gold.PLP.PLP>
-21.1584

> <Gold.PLP.part.hbond>
-6.4936

> <Gold.PLP.part.metal>
0.0000

> <Gold.PLP.part.buried>
-0.9135

> <Gold.PLP.part.nonpolar>
-13.1756

> <Gold.PLP.part.repulsive>
0.0000

> <Gold.PLP.ligand.clash>
0.0000

> <Gold.PLP.ligand.torsion>
0.1903

> <Gold.PLP.Chemscore.Hbond>
5.6528

> <Gold.PLP.Chemscore.CHOScore>
0.0000

> <Gold.PLP.Chemscore.Metal>
0.0000

> <Gold.Chemscore.Hbonds>
donor molecule, donor type, donor heavy atom, donor atom, acceptor molecule, acceptor atom, score
      L1  H    11    23       P1  7957  0.80
      L1  H    13    25       P1  7957  1.00
      L1  H    15    27       P1  7948  0.94
      P1  H  6896  6908       L1     3  2.00
      P1  H  8011  8017       L1    11  0.90

> <Gold.PLP.Chemscore.Internal.Correction>
0.0292

> <Gold.Rescore>
     Score         DG    S(hbond)    S(metal)    S(lipo)     H(rot)  DE(clash)    DE(int)     intcor
     11.04     -12.17       3.54        0.00      35.34       3.63       0.89       0.24       ----

> <Gold.Chemscore.Fitness>
11.0372

> <Gold.Chemscore.DG>
-12.1674

> <Gold.Chemscore.ZeroCoef>
-5.4800

> <Gold.Chemscore.Hbond>
3.5434

> <Gold.Chemscore.Metal>
0.0000

> <Gold.Chemscore.Lipo>
35.3432

> <Gold.Chemscore.Internal_Hbond>
0.0000

> <Gold.Chemscore.DEClash>
0.8912

> <Gold.Chemscore.DEInternal>
0.2391

> <Gold.Chemscore.Rot>
3.6261

> <Gold.Chemscore.Internal.Correction>
   9.000000E+99

> <Gold.Chemscore.Hbonds>
donor molecule, donor type, donor heavy atom, donor atom, acceptor molecule, acceptor atom, score
      L1  H    11    23       P1  7957  0.80
      L1  H    13    25       P1  7957  0.30
      L1  H    15    27       P1  7948  0.90
      P1  H  6896  6908       L1     3  0.86
      P1  H  8011  8017       L1    11  0.29

> <Gold.Chemscore.Hbond.Weighted>
-11.8350

> <Gold.Chemscore.Metal.Weighted>
-0.0000

> <Gold.Chemscore.Lipo.Weighted>
-4.1352

> <Gold.Chemscore.Internal_Hbond.Weighted>
0.0000

> <Gold.Chemscore.DEClash.Weighted>
0.8912

> <Gold.Chemscore.DEInternal.Weighted>
0.2391

> <Gold.Chemscore.Rot.Weighted>
9.2828

> <Gold.Chemscore.Internal.Correction.Weighted>
   9.000000E+99

> <Gold.Protein.RotatedTorsions>
[ 6907 6896 6895 6894 ] final -136.76 input  -60.11 | X-H torsion
[ 7974 7965 7964 7962 ] final  -43.05 input  175.53 | X-H torsion
[ 8008 7997 7996 7995 ] final   58.01 input   59.86 | X-H torsion
[ 10167 10162 10161 10158 ] final   19.01 input  -65.29 | X-H torsion
[ 10718 10713 10712 10709 ] final  -44.75 input   66.30 | X-H torsion
[ 10763 10752 10751 10750 ] final -174.60 input  -60.55 | X-H torsion
[ 11005 11000 10999 10996 ] final    9.97 input  -57.11 | X-H torsion

> <Gold.Protein.ActiveResidues>
 VAL166  LYS551  ARG553  GLY616  TRP617  ASP618  TYR619  PRO620  LYS621  CYS622 
 ASP623  PHE694  ASN695  SER759  ASP760  ASP761  ALA762  ILE779  LEU786  VAL792 
 PHE793  MET794  SER795  GLU796  ALA797  LYS798  CYS799  TRP800  GLU811  SER814 

> <Gold.Protein.RotatedAtoms>
  151.0140  133.5938  159.2678 H   0  0  0  0  0  0  0  0  0  0  0  0  # atno 6907 bound_to 6896
  151.3079  135.0785  159.9272 H   0  0  0  0  0  0  0  0  0  0  0  0  # atno 6908 bound_to 6896
  152.5307  133.9810  159.7861 H   0  0  0  0  0  0  0  0  0  0  0  0  # atno 6909 bound_to 6896
  146.0057  140.7023  142.9249 H   0  0  0  0  0  0  0  0  0  0  0  0  # atno 7974 bound_to 7965
  155.5430  140.3484  155.4451 H   0  0  0  0  0  0  0  0  0  0  0  0  # atno 8008 bound_to 7997
  156.0637  140.1346  156.9937 H   0  0  0  0  0  0  0  0  0  0  0  0  # atno 8009 bound_to 7997
  154.4492  140.0980  156.6540 H   0  0  0  0  0  0  0  0  0  0  0  0  # atno 8010 bound_to 7997
  140.5611  143.9335  150.6643 H   0  0  0  0  0  0  0  0  0  0  0  0  # atno 10167 bound_to 10162
  156.2354  130.4175  149.8824 H   0  0  0  0  0  0  0  0  0  0  0  0  # atno 10718 bound_to 10713
  154.5943  135.2848  155.0603 H   0  0  0  0  0  0  0  0  0  0  0  0  # atno 10763 bound_to 10752
  154.1892  135.6443  153.5059 H   0  0  0  0  0  0  0  0  0  0  0  0  # atno 10764 bound_to 10752
  153.0132  135.5442  154.6639 H   0  0  0  0  0  0  0  0  0  0  0  0  # atno 10765 bound_to 10752
  140.5198  134.0570  155.7841 H   0  0  0  0  0  0  0  0  0  0  0  0  # atno 11005 bound_to 11000
  144.6935  140.3310  143.7216 LP  0  0  0  0  0  0  0  0  0  0  0  0  # atno 17320 bound_to 7965
  145.7420  139.1767  143.2370 LP  0  0  0  0  0  0  0  0  0  0  0  0  # atno 17321 bound_to 7965
  140.2786  143.3405  152.1172 LP  0  0  0  0  0  0  0  0  0  0  0  0  # atno 17342 bound_to 10162
  139.5071  144.6825  151.5972 LP  0  0  0  0  0  0  0  0  0  0  0  0  # atno 17343 bound_to 10162
  156.6424  130.8710  151.3516 LP  0  0  0  0  0  0  0  0  0  0  0  0  # atno 17370 bound_to 10713
  157.7152  130.9488  150.1229 LP  0  0  0  0  0  0  0  0  0  0  0  0  # atno 17371 bound_to 10713
  141.1340  133.9253  157.2473 LP  0  0  0  0  0  0  0  0  0  0  0  0  # atno 17394 bound_to 11000
  139.9612  135.0153  156.9266 LP  0  0  0  0  0  0  0  0  0  0  0  0  # atno 17395 bound_to 11000

$$$$
