AV-unprocessed.smi:1831|AV-procd|sdf|7456|dock7
  -GOLD-   22720 9143D 1   1.00000     0.00000
 Structure written by MMmdl.
 41 42  0  0  0  0  0  0  0  0  2 V2000
  139.2873  138.2473  153.2647 C   0  0  0  0  0  0  0  0  0  0  0  0
  140.0417  136.9625  153.3098 C   0  0  0  0  0  0  0  0  0  0  0  0
  139.5284  135.8370  153.8228 N   0  0  0  0  0  0  0  0  0  0  0  0
  140.4169  134.7720  153.7555 N   0  0  0  0  0  0  0  0  0  0  0  0
  141.5769  135.1245  153.1941 C   0  0  0  0  0  0  0  0  0  0  0  0
  142.5809  134.1332  153.0587 N   0  0  0  0  0  0  0  0  0  0  0  0
  143.6653  134.1590  152.2671 C   0  0  0  0  0  0  0  0  0  0  0  0
  143.9759  135.0815  151.5137 O   0  0  0  0  0  0  0  0  0  0  0  0
  144.3884  133.0371  152.3981 N   0  0  0  0  0  0  0  0  0  0  0  0
  145.6123  132.7278  151.6643 C   0  0  0  0  0  0  0  0  0  0  0  0
  146.2186  131.3749  152.0858 C   0  0  2  0  0  0  0  0  0  0  0  0
  145.5315  130.1402  151.5051 C   0  0  0  0  0  0  0  0  0  0  0  0
  145.9375  129.0435  152.4822 C   0  0  0  0  0  0  0  0  0  0  0  0
  145.9074  129.6854  153.8150 N   0  3  1  0  0  0  0  0  0  0  0  0
  146.7307  129.0268  154.8685 C   0  0  0  0  0  0  0  0  0  0  0  0
  146.3317  127.5517  155.0661 C   0  0  0  0  0  0  0  0  0  0  0  0
  146.6129  129.7723  156.2117 C   0  0  0  0  0  0  0  0  0  0  0  0
  146.1828  131.1302  153.6037 C   0  0  0  0  0  0  0  0  0  0  0  0
  141.6830  136.8127  152.6951 S   0  0  0  0  0  0  0  0  0  0  0  0
  138.2218  138.0731  153.4187 H   0  0  0  0  0  0  0  0  0  0  0  0
  139.4247  138.7275  152.2958 H   0  0  0  0  0  0  0  0  0  0  0  0
  139.6493  138.9184  154.0437 H   0  0  0  0  0  0  0  0  0  0  0  0
  142.4528  133.3080  153.6258 H   0  0  0  0  0  0  0  0  0  0  0  0
  144.0562  132.3332  153.0412 H   0  0  0  0  0  0  0  0  0  0  0  0
  145.3594  132.6968  150.6040 H   0  0  0  0  0  0  0  0  0  0  0  0
  146.3444  133.5294  151.7773 H   0  0  0  0  0  0  0  0  0  0  0  0
  147.2638  131.3481  151.7723 H   0  0  0  0  0  0  0  0  0  0  0  0
  144.4475  130.2641  151.5180 H   0  0  0  0  0  0  0  0  0  0  0  0
  145.8363  129.9252  150.4803 H   0  0  0  0  0  0  0  0  0  0  0  0
  145.2729  128.1804  152.4305 H   0  0  0  0  0  0  0  0  0  0  0  0
  146.9512  128.7088  152.2548 H   0  0  0  0  0  0  0  0  0  0  0  0
  147.7739  129.0537  154.5499 H   0  0  0  0  0  0  0  0  0  0  0  0
  146.9093  127.0965  155.8713 H   0  0  0  0  0  0  0  0  0  0  0  0
  146.5144  126.9540  154.1730 H   0  0  0  0  0  0  0  0  0  0  0  0
  145.2763  127.4571  155.3240 H   0  0  0  0  0  0  0  0  0  0  0  0
  147.2021  129.2782  156.9849 H   0  0  0  0  0  0  0  0  0  0  0  0
  145.5787  129.8046  156.5566 H   0  0  0  0  0  0  0  0  0  0  0  0
  146.9738  130.7985  156.1482 H   0  0  0  0  0  0  0  0  0  0  0  0
  147.1289  131.4414  154.0482 H   0  0  0  0  0  0  0  0  0  0  0  0
  145.3893  131.7028  154.0853 H   0  0  0  0  0  0  0  0  0  0  0  0
  144.9462  129.6318  154.1205 H   0  0  0  0  0  0  0  0  0  0  0  0
  1  2  1  0  0  0  0
  1 20  1  0  0  0  0
  1 21  1  0  0  0  0
  1 22  1  0  0  0  0
  2 19  1  0  0  0  0
  2  3  2  0  0  0  0
  3  4  1  0  0  0  0
  4  5  2  0  0  0  0
  5  6  1  0  0  0  0
  5 19  1  0  0  0  0
  6  7  1  0  0  0  0
  6 23  1  0  0  0  0
  7  8  2  0  0  0  0
  7  9  1  0  0  0  0
  9 10  1  0  0  0  0
  9 24  1  0  0  0  0
 10 11  1  0  0  0  0
 10 25  1  0  0  0  0
 10 26  1  0  0  0  0
 11 18  1  0  0  0  0
 11 12  1  0  0  0  0
 11 27  1  0  0  0  0
 12 13  1  0  0  0  0
 12 28  1  0  0  0  0
 12 29  1  0  0  0  0
 13 14  1  0  0  0  0
 13 30  1  0  0  0  0
 13 31  1  0  0  0  0
 14 15  1  0  0  0  0
 14 18  1  0  0  0  0
 14 41  1  0  0  0  0
 15 16  1  0  0  0  0
 15 17  1  0  0  0  0
 15 32  1  0  0  0  0
 16 33  1  0  0  0  0
 16 34  1  0  0  0  0
 16 35  1  0  0  0  0
 17 36  1  0  0  0  0
 17 37  1  0  0  0  0
 17 38  1  0  0  0  0
 18 39  1  0  0  0  0
 18 40  1  0  0  0  0
M  CHG  1  14   1
M  END
> <s_m_source_file>
AV-unprocessed.smi

> <i_m_source_file_index>
1831

> <i_lp_mmshare_version>
43012

> <i_f3d_flags>
0

> <s_epik_input>
W0NIM11jMW5uYyhzMSlbTkhdQyg9TylbTkhdW0NIMl1bQ0BASF0yW0NIMl1bQ0gyXU4oW0NIMl0yKVtDSF0oW0NIM10pW0NIM10=

> <s_epik_cmdline>
J2VwaWtfcHl0aG9uJywgJy1waCcsICc3LjAnLCAnLXRuJywgJzgnLCAnLW1hJywgJzIwMCcsICctbWV0YWxfYmluZGluZycsICctaW1hZScsICc8aW5maWxlLm1hZT4nLCAnLW9tYWUnLCAnPG91dGZpbGUubWFlPic=

> <r_lp_tautomer_probability>
1

> <r_epik_Ionization_Penalty>
0.00080807

> <r_epik_Ionization_Penalty_Charging>
0.000218981

> <r_epik_Ionization_Penalty_Neutral>
0.00058909

> <r_epik_State_Penalty>
-0

> <r_epik_Charging_Adjusted_Penalty>
0.000218981

> <i_epik_Tot_Q>
1

> <i_epik_Tot_abs_Q>
1

> <r_epik_Metal_State_Penalty>
0.236062

> <b_epik_Metal_Only>
0

> <s_lp_Force_Field>
OPLS_2005

> <r_lp_Energy>
28.9112

> <b_lp_Chiralities_Consistent>
1

> <s_lp_Variant>
AV-unprocessed.smi:1831-1

> <Gold.Version>
5.8.1

> <Gold.Id.Protein>
6NUR|6NUR_protein|mol2

> <Gold.PLP.Fitness>
43.7324

> <Gold.PLP.PLP>
-31.0945

> <Gold.PLP.part.hbond>
-5.0890

> <Gold.PLP.part.metal>
0.0000

> <Gold.PLP.part.buried>
-7.5961

> <Gold.PLP.part.nonpolar>
-19.3373

> <Gold.PLP.part.repulsive>
0.4277

> <Gold.PLP.ligand.clash>
0.0000

> <Gold.PLP.ligand.torsion>
0.2352

> <Gold.PLP.Chemscore.Hbond>
4.3611

> <Gold.PLP.Chemscore.CHOScore>
0.0000

> <Gold.PLP.Chemscore.Metal>
0.0000

> <Gold.Chemscore.Hbonds>
donor molecule, donor type, donor heavy atom, donor atom, acceptor molecule, acceptor atom, score
      L1  H     6    23       P1 10957  1.00
      L1  H     9    24       P1 10957  0.22
      L1  H    14    41       P1 10956  2.00
      P1  H 10995 11001       L1     4  0.04
      P1  H 11000 11005       L1     4  1.00

> <Gold.PLP.Chemscore.Internal.Correction>
0.0250

> <Gold.Rescore>
     Score         DG    S(hbond)    S(metal)    S(lipo)     H(rot)  DE(clash)    DE(int)     intcor
     16.93     -17.34       3.01        0.00      49.21       1.54       0.16       0.25       ----

> <Gold.Chemscore.Fitness>
16.9322

> <Gold.Chemscore.DG>
-17.3410

> <Gold.Chemscore.ZeroCoef>
-5.4800

> <Gold.Chemscore.Hbond>
3.0075

> <Gold.Chemscore.Metal>
0.0000

> <Gold.Chemscore.Lipo>
49.2075

> <Gold.Chemscore.Internal_Hbond>
0.0000

> <Gold.Chemscore.DEClash>
0.1596

> <Gold.Chemscore.DEInternal>
0.2492

> <Gold.Chemscore.Rot>
1.5396

> <Gold.Chemscore.Internal.Correction>
   9.000000E+99

> <Gold.Chemscore.Hbonds>
donor molecule, donor type, donor heavy atom, donor atom, acceptor molecule, acceptor atom, score
      L1  H     6    23       P1 10957  0.99
      L1  H     9    24       P1 10957  0.01
      L1  H    14    41       P1 10956  0.74
      P1  H 10995 11001       L1     4  0.02
      P1  H 11000 11005       L1     4  0.23

> <Gold.Chemscore.Hbond.Weighted>
-10.0450

> <Gold.Chemscore.Metal.Weighted>
-0.0000

> <Gold.Chemscore.Lipo.Weighted>
-5.7573

> <Gold.Chemscore.Internal_Hbond.Weighted>
0.0000

> <Gold.Chemscore.DEClash.Weighted>
0.1596

> <Gold.Chemscore.DEInternal.Weighted>
0.2492

> <Gold.Chemscore.Rot.Weighted>
3.9413

> <Gold.Chemscore.Internal.Correction.Weighted>
   9.000000E+99

> <Gold.Protein.RotatedTorsions>
[ 6907 6896 6895 6894 ] final -101.76 input  -60.11 | X-H torsion
[ 7974 7965 7964 7962 ] final -110.83 input  175.53 | X-H torsion
[ 8008 7997 7996 7995 ] final  145.25 input   59.86 | X-H torsion
[ 10167 10162 10161 10158 ] final   59.86 input  -65.29 | X-H torsion
[ 10718 10713 10712 10709 ] final -129.01 input   66.30 | X-H torsion
[ 10763 10752 10751 10750 ] final -126.69 input  -60.55 | X-H torsion
[ 11005 11000 10999 10996 ] final   20.78 input  -57.11 | X-H torsion

> <Gold.Protein.ActiveResidues>
 VAL166  LYS551  ARG553  GLY616  TRP617  ASP618  TYR619  PRO620  LYS621  CYS622 
 ASP623  PHE694  ASN695  SER759  ASP760  ASP761  ALA762  ILE779  LEU786  VAL792 
 PHE793  MET794  SER795  GLU796  ALA797  LYS798  CYS799  TRP800  GLU811  SER814 

> <Gold.Protein.RotatedAtoms>
  150.7168  134.0685  159.3855 H   0  0  0  0  0  0  0  0  0  0  0  0  # atno 6907 bound_to 6896
  151.8666  135.0502  160.0484 H   0  0  0  0  0  0  0  0  0  0  0  0  # atno 6908 bound_to 6896
  152.2675  133.5317  159.5456 H   0  0  0  0  0  0  0  0  0  0  0  0  # atno 6909 bound_to 6896
  145.1635  140.8890  143.3577 H   0  0  0  0  0  0  0  0  0  0  0  0  # atno 7974 bound_to 7965
  156.2888  140.2214  156.5185 H   0  0  0  0  0  0  0  0  0  0  0  0  # atno 8008 bound_to 7997
  154.7548  140.0477  157.0946 H   0  0  0  0  0  0  0  0  0  0  0  0  # atno 8009 bound_to 7997
  155.0064  140.3108  155.4850 H   0  0  0  0  0  0  0  0  0  0  0  0  # atno 8010 bound_to 7997
  140.1719  144.4268  150.6657 H   0  0  0  0  0  0  0  0  0  0  0  0  # atno 10167 bound_to 10162
  156.2005  130.6854  151.0533 H   0  0  0  0  0  0  0  0  0  0  0  0  # atno 10718 bound_to 10713
  154.8747  135.3987  154.3472 H   0  0  0  0  0  0  0  0  0  0  0  0  # atno 10763 bound_to 10752
  153.4263  135.7024  153.6266 H   0  0  0  0  0  0  0  0  0  0  0  0  # atno 10764 bound_to 10752
  153.4907  135.3749  155.2460 H   0  0  0  0  0  0  0  0  0  0  0  0  # atno 10765 bound_to 10752
  140.3988  134.1740  155.7663 H   0  0  0  0  0  0  0  0  0  0  0  0  # atno 11005 bound_to 11000
  145.0306  139.3344  143.6026 LP  0  0  0  0  0  0  0  0  0  0  0  0  # atno 17320 bound_to 7965
  146.3479  139.9642  142.8714 LP  0  0  0  0  0  0  0  0  0  0  0  0  # atno 17321 bound_to 7965
  140.6577  143.2242  151.5931 LP  0  0  0  0  0  0  0  0  0  0  0  0  # atno 17342 bound_to 10162
  139.5334  144.2850  152.1199 LP  0  0  0  0  0  0  0  0  0  0  0  0  # atno 17343 bound_to 10162
  157.6983  131.0786  150.6901 LP  0  0  0  0  0  0  0  0  0  0  0  0  # atno 17370 bound_to 10713
  156.6958  130.4608  149.5587 LP  0  0  0  0  0  0  0  0  0  0  0  0  # atno 17371 bound_to 10713
  141.1864  133.8303  157.1069 LP  0  0  0  0  0  0  0  0  0  0  0  0  # atno 17394 bound_to 11000
  140.0352  134.9882  157.0856 LP  0  0  0  0  0  0  0  0  0  0  0  0  # atno 17395 bound_to 11000

$$$$
