AV-unprocessed.smi:2678|AV-procd|sdf|10368|dock5
  -GOLD-   2272014393D 1   1.00000     0.00000
 Structure written by MMmdl.
 46 47  0  0  0  0  0  0  0  0  1 V2000
  151.6118  141.3775  158.2104 C   0  0  0  0  0  0  0  0  0  0  0  0
  151.2840  142.6343  157.3937 C   0  0  0  0  0  0  0  0  0  0  0  0
  150.7704  143.7737  158.2884 C   0  0  0  0  0  0  0  0  0  0  0  0
  150.2970  142.3037  156.3699 N   0  0  0  0  0  0  0  0  0  0  0  0
  150.3819  141.2783  155.5073 C   0  0  0  0  0  0  0  0  0  0  0  0
  151.3247  140.4860  155.4898 O   0  0  0  0  0  0  0  0  0  0  0  0
  149.2275  141.1289  154.5076 C   0  0  2  0  0  0  0  0  0  0  0  0
  148.0317  142.0229  154.8975 C   0  0  0  0  0  0  0  0  0  0  0  0
  146.8689  141.8620  153.9052 C   0  0  0  0  0  0  0  0  0  0  0  0
  146.4377  140.3918  153.7830 C   0  0  0  0  0  0  0  0  0  0  0  0
  147.6235  139.4903  153.3933 C   0  0  2  0  0  0  0  0  0  0  0  0
  147.1803  138.0956  153.3307 N   0  0  0  0  0  0  0  0  0  0  0  0
  146.6608  137.4305  152.2822 C   0  0  0  0  0  0  0  0  0  0  0  0
  146.4865  137.9871  151.2004 O   0  0  0  0  0  0  0  0  0  0  0  0
  146.3494  136.1460  152.5446 N   0  0  0  0  0  0  0  0  0  0  0  0
  145.7441  135.1822  151.6948 C   0  0  0  0  0  0  0  0  0  0  0  0
  146.0379  133.7976  151.7190 C   0  0  0  0  0  0  0  0  0  0  0  0
  145.3545  132.9435  150.8318 C   0  0  0  0  0  0  0  0  0  0  0  0
  144.3991  133.5020  149.9606 C   0  0  0  0  0  0  0  0  0  0  0  0
  144.0991  134.8177  149.9372 N   0  0  0  0  0  0  0  0  0  0  0  0
  144.7581  135.6303  150.7904 C   0  0  0  0  0  0  0  0  0  0  0  0
  148.7802  139.6563  154.4023 C   0  0  0  0  0  0  0  0  0  0  0  0
  152.3800  141.5849  158.9559 H   0  0  0  0  0  0  0  0  0  0  0  0
  151.9840  140.5777  157.5691 H   0  0  0  0  0  0  0  0  0  0  0  0
  150.7324  141.0028  158.7356 H   0  0  0  0  0  0  0  0  0  0  0  0
  152.2041  142.9623  156.9066 H   0  0  0  0  0  0  0  0  0  0  0  0
  151.5047  144.0324  159.0518 H   0  0  0  0  0  0  0  0  0  0  0  0
  149.8472  143.4942  158.7973 H   0  0  0  0  0  0  0  0  0  0  0  0
  150.5714  144.6752  157.7082 H   0  0  0  0  0  0  0  0  0  0  0  0
  149.4860  142.9025  156.3117 H   0  0  0  0  0  0  0  0  0  0  0  0
  149.5825  141.4468  153.5253 H   0  0  0  0  0  0  0  0  0  0  0  0
  147.6833  141.7713  155.9007 H   0  0  0  0  0  0  0  0  0  0  0  0
  148.3399  143.0688  154.9312 H   0  0  0  0  0  0  0  0  0  0  0  0
  146.0225  142.4716  154.2229 H   0  0  0  0  0  0  0  0  0  0  0  0
  147.1693  142.2370  152.9261 H   0  0  0  0  0  0  0  0  0  0  0  0
  146.0150  140.0593  154.7325 H   0  0  0  0  0  0  0  0  0  0  0  0
  145.6415  140.3044  153.0427 H   0  0  0  0  0  0  0  0  0  0  0  0
  147.9636  139.8039  152.4047 H   0  0  0  0  0  0  0  0  0  0  0  0
  147.2757  137.5704  154.1881 H   0  0  0  0  0  0  0  0  0  0  0  0
  146.4931  135.8487  153.4986 H   0  0  0  0  0  0  0  0  0  0  0  0
  146.7565  133.3733  152.4024 H   0  0  0  0  0  0  0  0  0  0  0  0
  145.5559  131.8826  150.8225 H   0  0  0  0  0  0  0  0  0  0  0  0
  143.8572  132.8749  149.2681 H   0  0  0  0  0  0  0  0  0  0  0  0
  144.4914  136.6763  150.7457 H   0  0  0  0  0  0  0  0  0  0  0  0
  149.6288  139.0375  154.1073 H   0  0  0  0  0  0  0  0  0  0  0  0
  148.4628  139.2914  155.3810 H   0  0  0  0  0  0  0  0  0  0  0  0
  1  2  1  0  0  0  0
  1 23  1  0  0  0  0
  1 24  1  0  0  0  0
  1 25  1  0  0  0  0
  2  3  1  0  0  0  0
  2  4  1  0  0  0  0
  2 26  1  0  0  0  0
  3 27  1  0  0  0  0
  3 28  1  0  0  0  0
  3 29  1  0  0  0  0
  4  5  1  0  0  0  0
  4 30  1  0  0  0  0
  5  6  2  0  0  0  0
  5  7  1  0  0  0  0
  7 22  1  0  0  0  0
  7  8  1  0  0  0  0
  7 31  1  0  0  0  0
  8  9  1  0  0  0  0
  8 32  1  0  0  0  0
  8 33  1  0  0  0  0
  9 10  1  0  0  0  0
  9 34  1  0  0  0  0
  9 35  1  0  0  0  0
 10 11  1  0  0  0  0
 10 36  1  0  0  0  0
 10 37  1  0  0  0  0
 11 12  1  0  0  0  0
 11 22  1  0  0  0  0
 11 38  1  0  0  0  0
 12 13  1  0  0  0  0
 12 39  1  0  0  0  0
 13 14  2  0  0  0  0
 13 15  1  0  0  0  0
 15 16  1  0  0  0  0
 15 40  1  0  0  0  0
 16 21  1  0  0  0  0
 16 17  2  0  0  0  0
 17 18  1  0  0  0  0
 17 41  1  0  0  0  0
 18 19  2  0  0  0  0
 18 42  1  0  0  0  0
 19 20  1  0  0  0  0
 19 43  1  0  0  0  0
 20 21  2  0  0  0  0
 21 44  1  0  0  0  0
 22 45  1  0  0  0  0
 22 46  1  0  0  0  0
M  END
> <s_m_source_file>
AV-unprocessed.smi

> <i_m_source_file_index>
2678

> <i_lp_mmshare_version>
43012

> <i_f3d_flags>
0

> <s_epik_input>
W0NIM11bQ0hdKFtDSDNdKVtOSF1DKD1PKVtDQEBIXTFbQ0gyXVtDSDJdW0NIMl1bQ0BIXShbQ0gyXTEpW05IXUMoPU8pW05IXWMyW2NIXVtjSF1bY0hdbltjSF0y

> <s_epik_cmdline>
J2VwaWtfcHl0aG9uJywgJy1waCcsICc3LjAnLCAnLXRuJywgJzgnLCAnLW1hJywgJzIwMCcsICctbWV0YWxfYmluZGluZycsICctaW1hZScsICc8aW5maWxlLm1hZT4nLCAnLW9tYWUnLCAnPG91dGZpbGUubWFlPic=

> <r_epik_Ionization_Penalty>
0.00482944

> <r_epik_Ionization_Penalty_Charging>
0

> <r_epik_Ionization_Penalty_Neutral>
0.00482944

> <r_epik_State_Penalty>
0.00347168

> <r_epik_Charging_Adjusted_Penalty>
0.00347168

> <i_epik_Tot_Q>
0

> <i_epik_Tot_abs_Q>
0

> <r_epik_Metal_State_Penalty>
-0

> <b_epik_Metal_Only>
0

> <s_lp_Force_Field>
OPLS_2005

> <r_lp_Energy>
22.9796

> <b_lp_Chiralities_Consistent>
1

> <s_lp_Variant>
AV-unprocessed.smi:2678-3

> <Gold.Version>
5.8.1

> <Gold.Id.Protein>
6NUR|6NUR_protein|mol2

> <Gold.PLP.Fitness>
41.3201

> <Gold.PLP.PLP>
-34.9186

> <Gold.PLP.part.hbond>
-5.0000

> <Gold.PLP.part.metal>
0.0000

> <Gold.PLP.part.buried>
3.5727

> <Gold.PLP.part.nonpolar>
-35.1580

> <Gold.PLP.part.repulsive>
2.8228

> <Gold.PLP.ligand.clash>
1.2190

> <Gold.PLP.ligand.torsion>
1.0118

> <Gold.PLP.Chemscore.Hbond>
2.2087

> <Gold.PLP.Chemscore.CHOScore>
1.0000

> <Gold.PLP.Chemscore.Metal>
0.0000

> <Gold.Chemscore.Hbonds>
donor molecule, donor type, donor heavy atom, donor atom, acceptor molecule, acceptor atom, score
      L1  H     4    30       P1  8028  0.85
      P1  H  7954  7966       L1    14  0.75
      P1  H  7989  7998       L1     6  0.47
      L1  C    21    44       P1 10171  1.00

> <Gold.PLP.Chemscore.Internal.Correction>
0.0181

> <Gold.Rescore>
     Score         DG    S(hbond)    S(metal)    S(lipo)     H(rot)  DE(clash)    DE(int)     intcor
     12.21     -19.32       1.77        0.00      99.62       1.46       4.07       3.03       ----

> <Gold.Chemscore.Fitness>
12.2076

> <Gold.Chemscore.DG>
-19.3151

> <Gold.Chemscore.ZeroCoef>
-5.4800

> <Gold.Chemscore.Hbond>
1.7719

> <Gold.Chemscore.Metal>
0.0000

> <Gold.Chemscore.Lipo>
99.6172

> <Gold.Chemscore.Internal_Hbond>
0.0000

> <Gold.Chemscore.DEClash>
4.0731

> <Gold.Chemscore.DEInternal>
3.0345

> <Gold.Chemscore.Rot>
1.4603

> <Gold.Chemscore.Internal.Correction>
   9.000000E+99

> <Gold.Chemscore.Hbonds>
donor molecule, donor type, donor heavy atom, donor atom, acceptor molecule, acceptor atom, score
      L1  H     4    30       P1  8028  0.79
      P1  H  7954  7966       L1    14  0.66
      P1  H  7989  7998       L1     6  0.02

> <Gold.Chemscore.Hbond.Weighted>
-5.9182

> <Gold.Chemscore.Metal.Weighted>
-0.0000

> <Gold.Chemscore.Lipo.Weighted>
-11.6552

> <Gold.Chemscore.Internal_Hbond.Weighted>
0.0000

> <Gold.Chemscore.DEClash.Weighted>
4.0731

> <Gold.Chemscore.DEInternal.Weighted>
3.0345

> <Gold.Chemscore.Rot.Weighted>
3.7383

> <Gold.Chemscore.Internal.Correction.Weighted>
   9.000000E+99

> <Gold.Protein.RotatedTorsions>
[ 6907 6896 6895 6894 ] final  -54.93 input  -60.11 | X-H torsion
[ 7974 7965 7964 7962 ] final   68.83 input  175.53 | X-H torsion
[ 8008 7997 7996 7995 ] final  146.88 input   59.86 | X-H torsion
[ 10167 10162 10161 10158 ] final  100.32 input  -65.29 | X-H torsion
[ 10718 10713 10712 10709 ] final   43.10 input   66.30 | X-H torsion
[ 10763 10752 10751 10750 ] final -111.80 input  -60.55 | X-H torsion
[ 11005 11000 10999 10996 ] final  178.71 input  -57.11 | X-H torsion

> <Gold.Protein.ActiveResidues>
 VAL166  LYS551  ARG553  GLY616  TRP617  ASP618  TYR619  PRO620  LYS621  CYS622 
 ASP623  PHE694  ASN695  SER759  ASP760  ASP761  ALA762  ILE779  LEU786  VAL792 
 PHE793  MET794  SER795  GLU796  ALA797  LYS798  CYS799  TRP800  GLU811  SER814 

> <Gold.Protein.RotatedAtoms>
  150.8295  134.7542  159.6841 H   0  0  0  0  0  0  0  0  0  0  0  0  # atno 6907 bound_to 6896
  152.4402  134.5603  159.9902 H   0  0  0  0  0  0  0  0  0  0  0  0  # atno 6908 bound_to 6896
  151.5767  133.3345  159.3036 H   0  0  0  0  0  0  0  0  0  0  0  0  # atno 6909 bound_to 6896
  145.7978  139.2966  143.1173 H   0  0  0  0  0  0  0  0  0  0  0  0  # atno 7974 bound_to 7965
  156.2842  140.2170  156.5448 H   0  0  0  0  0  0  0  0  0  0  0  0  # atno 8008 bound_to 7997
  154.7340  140.0493  157.0774 H   0  0  0  0  0  0  0  0  0  0  0  0  # atno 8009 bound_to 7997
  155.0317  140.3135  155.4759 H   0  0  0  0  0  0  0  0  0  0  0  0  # atno 8010 bound_to 7997
  139.7537  144.6976  151.0394 H   0  0  0  0  0  0  0  0  0  0  0  0  # atno 10167 bound_to 10162
  157.4122  130.7920  149.7440 H   0  0  0  0  0  0  0  0  0  0  0  0  # atno 10718 bound_to 10713
  154.8318  135.4514  154.1096 H   0  0  0  0  0  0  0  0  0  0  0  0  # atno 10763 bound_to 10752
  153.2362  135.6911  153.7841 H   0  0  0  0  0  0  0  0  0  0  0  0  # atno 10764 bound_to 10752
  153.7205  135.3342  155.3242 H   0  0  0  0  0  0  0  0  0  0  0  0  # atno 10765 bound_to 10752
  140.3981  134.6802  157.4546 H   0  0  0  0  0  0  0  0  0  0  0  0  # atno 11005 bound_to 11000
  145.9910  140.8603  143.0066 LP  0  0  0  0  0  0  0  0  0  0  0  0  # atno 17320 bound_to 7965
  144.6773  140.2215  143.7366 LP  0  0  0  0  0  0  0  0  0  0  0  0  # atno 17321 bound_to 7965
  140.7800  143.4778  151.0059 LP  0  0  0  0  0  0  0  0  0  0  0  0  # atno 17342 bound_to 10162
  139.8465  143.7494  152.3179 LP  0  0  0  0  0  0  0  0  0  0  0  0  # atno 17343 bound_to 10162
  155.9854  130.3983  150.3263 LP  0  0  0  0  0  0  0  0  0  0  0  0  # atno 17370 bound_to 10713
  157.1403  131.0294  151.2931 LP  0  0  0  0  0  0  0  0  0  0  0  0  # atno 17371 bound_to 10713
  140.0356  134.6342  155.9047 LP  0  0  0  0  0  0  0  0  0  0  0  0  # atno 17394 bound_to 11000
  141.1866  133.6558  156.5249 LP  0  0  0  0  0  0  0  0  0  0  0  0  # atno 17395 bound_to 11000

$$$$
