AV-unprocessed.smi:642|AV-procd|sdf|3152|dock2
  -GOLD-   22720 0 73D 1   1.00000     0.00000
 Structure written by MMmdl.
 49 51  0  0  0  0  0  0  0  0  1 V2000
  150.1800  140.5902  154.7289 O   0  0  0  0  0  0  0  0  0  0  0  0
  149.4899  140.6583  155.7462 C   0  0  0  0  0  0  0  0  0  0  0  0
  148.2572  140.1424  155.8766 N   0  0  0  0  0  0  0  0  0  0  0  0
  147.5221  139.4000  154.9110 C   0  0  0  0  0  0  0  0  0  0  0  0
  147.5972  139.6904  153.5278 C   0  0  0  0  0  0  0  0  0  0  0  0
  146.8062  138.9531  152.6288 C   0  0  0  0  0  0  0  0  0  0  0  0
  145.9581  137.9585  153.1469 C   0  0  0  0  0  0  0  0  0  0  0  0
  145.8666  137.6785  154.4629 N   0  0  0  0  0  0  0  0  0  0  0  0
  146.6288  138.3807  155.3370 C   0  0  0  0  0  0  0  0  0  0  0  0
  146.5323  138.0418  156.7016 N   0  0  0  0  0  0  0  0  0  0  0  0
  145.8028  139.0254  157.4943 C   0  0  0  0  0  0  0  0  0  0  0  0
  145.5209  138.4651  158.8989 C   0  0  0  0  0  0  0  0  0  0  0  0
  146.7443  138.0672  159.5116 O   0  0  0  0  0  0  0  0  0  0  0  0
  147.4113  137.0512  158.7681 C   0  0  0  0  0  0  0  0  0  0  0  0
  147.7483  137.5771  157.3622 C   0  0  0  0  0  0  0  0  0  0  0  0
  149.8939  141.2394  156.8851 N   0  0  0  0  0  0  0  0  0  0  0  0
  151.2034  141.8466  157.1147 C   0  0  0  0  0  0  0  0  0  0  0  0
  152.0591  140.9457  158.0339 C   0  0  0  0  0  0  0  0  0  0  0  0
  151.8551  141.1527  159.5445 C   0  0  0  0  0  0  0  0  0  0  0  0
  152.7576  142.2598  160.1186 C   0  0  0  0  0  0  0  0  0  0  0  0
  152.3486  143.6924  159.7408 C   0  0  0  0  0  0  0  0  0  0  0  0
  152.2361  143.9592  158.2291 C   0  0  0  0  0  0  0  0  0  0  0  0
  150.9988  143.2959  157.6023 C   0  0  0  0  0  0  0  0  0  0  0  0
  147.8507  140.1785  156.8002 H   0  0  0  0  0  0  0  0  0  0  0  0
  148.2334  140.4759  153.1486 H   0  0  0  0  0  0  0  0  0  0  0  0
  146.8426  139.1516  151.5679 H   0  0  0  0  0  0  0  0  0  0  0  0
  145.3330  137.3745  152.4879 H   0  0  0  0  0  0  0  0  0  0  0  0
  146.3997  139.9355  157.5685 H   0  0  0  0  0  0  0  0  0  0  0  0
  144.8653  139.2999  157.0106 H   0  0  0  0  0  0  0  0  0  0  0  0
  145.0444  139.2255  159.5179 H   0  0  0  0  0  0  0  0  0  0  0  0
  144.8340  137.6186  158.8480 H   0  0  0  0  0  0  0  0  0  0  0  0
  148.3244  136.7683  159.2922 H   0  0  0  0  0  0  0  0  0  0  0  0
  146.7863  136.1585  158.7104 H   0  0  0  0  0  0  0  0  0  0  0  0
  148.2161  136.7900  156.7693 H   0  0  0  0  0  0  0  0  0  0  0  0
  148.4636  138.3974  157.4386 H   0  0  0  0  0  0  0  0  0  0  0  0
  149.2535  141.2432  157.6654 H   0  0  0  0  0  0  0  0  0  0  0  0
  151.7265  141.9064  156.1584 H   0  0  0  0  0  0  0  0  0  0  0  0
  151.8639  139.9004  157.7903 H   0  0  0  0  0  0  0  0  0  0  0  0
  153.1135  141.0889  157.7947 H   0  0  0  0  0  0  0  0  0  0  0  0
  150.8059  141.3344  159.7801 H   0  0  0  0  0  0  0  0  0  0  0  0
  152.1153  140.2217  160.0493 H   0  0  0  0  0  0  0  0  0  0  0  0
  152.7531  142.1822  161.2064 H   0  0  0  0  0  0  0  0  0  0  0  0
  153.7908  142.0835  159.8176 H   0  0  0  0  0  0  0  0  0  0  0  0
  151.4059  143.9438  160.2286 H   0  0  0  0  0  0  0  0  0  0  0  0
  153.0864  144.3769  160.1603 H   0  0  0  0  0  0  0  0  0  0  0  0
  152.1468  145.0372  158.0903 H   0  0  0  0  0  0  0  0  0  0  0  0
  153.1475  143.6668  157.7066 H   0  0  0  0  0  0  0  0  0  0  0  0
  150.6787  143.8929  156.7473 H   0  0  0  0  0  0  0  0  0  0  0  0
  150.1701  143.3455  158.3103 H   0  0  0  0  0  0  0  0  0  0  0  0
  1  2  2  0  0  0  0
  2  3  1  0  0  0  0
  2 16  1  0  0  0  0
  3  4  1  0  0  0  0
  3 24  1  0  0  0  0
  4  9  1  0  0  0  0
  4  5  2  0  0  0  0
  5  6  1  0  0  0  0
  5 25  1  0  0  0  0
  6  7  2  0  0  0  0
  6 26  1  0  0  0  0
  7  8  1  0  0  0  0
  7 27  1  0  0  0  0
  8  9  2  0  0  0  0
  9 10  1  0  0  0  0
 10 15  1  0  0  0  0
 10 11  1  0  0  0  0
 11 12  1  0  0  0  0
 11 28  1  0  0  0  0
 11 29  1  0  0  0  0
 12 13  1  0  0  0  0
 12 30  1  0  0  0  0
 12 31  1  0  0  0  0
 13 14  1  0  0  0  0
 14 15  1  0  0  0  0
 14 32  1  0  0  0  0
 14 33  1  0  0  0  0
 15 34  1  0  0  0  0
 15 35  1  0  0  0  0
 16 17  1  0  0  0  0
 16 36  1  0  0  0  0
 17 23  1  0  0  0  0
 17 18  1  0  0  0  0
 17 37  1  0  0  0  0
 18 19  1  0  0  0  0
 18 38  1  0  0  0  0
 18 39  1  0  0  0  0
 19 20  1  0  0  0  0
 19 40  1  0  0  0  0
 19 41  1  0  0  0  0
 20 21  1  0  0  0  0
 20 42  1  0  0  0  0
 20 43  1  0  0  0  0
 21 22  1  0  0  0  0
 21 44  1  0  0  0  0
 21 45  1  0  0  0  0
 22 23  1  0  0  0  0
 22 46  1  0  0  0  0
 22 47  1  0  0  0  0
 23 48  1  0  0  0  0
 23 49  1  0  0  0  0
M  END
> <s_m_source_file>
AV-unprocessed.smi

> <i_m_source_file_index>
642

> <i_lp_mmshare_version>
43012

> <i_f3d_flags>
0

> <s_epik_input>
W0NIMl0xW0NIMl1bQ0gyXVtDSDJdW0NIMl1bQ0gyXVtDSF0xW05IXUMoPU8pW05IXWMyW2NIXVtjSF1bY0hdbmMyTjNbQ0gyXVtDSDJdT1tDSDJdW0NIMl0z

> <s_epik_cmdline>
J2VwaWtfcHl0aG9uJywgJy1waCcsICc3LjAnLCAnLXRuJywgJzgnLCAnLW1hJywgJzIwMCcsICctbWV0YWxfYmluZGluZycsICctaW1hZScsICc8aW5maWxlLm1hZT4nLCAnLW9tYWUnLCAnPG91dGZpbGUubWFlPic=

> <r_lp_tautomer_probability>
1

> <r_epik_Ionization_Penalty>
0.00218327

> <r_epik_Ionization_Penalty_Charging>
0

> <r_epik_Ionization_Penalty_Neutral>
0.00218327

> <r_epik_State_Penalty>
0.00146969

> <r_epik_Charging_Adjusted_Penalty>
0.00146969

> <i_epik_Tot_Q>
0

> <i_epik_Tot_abs_Q>
0

> <r_epik_Metal_State_Penalty>
-0

> <b_epik_Metal_Only>
0

> <s_lp_Force_Field>
OPLS_2005

> <r_lp_Energy>
33.5624

> <b_lp_Chiralities_Consistent>
1

> <s_lp_Variant>
AV-unprocessed.smi:642-1

> <Gold.Version>
5.8.1

> <Gold.Id.Protein>
6NUR|6NUR_protein|mol2

> <Gold.PLP.Fitness>
36.4074

> <Gold.PLP.PLP>
-32.1848

> <Gold.PLP.part.hbond>
-2.0000

> <Gold.PLP.part.metal>
0.0000

> <Gold.PLP.part.buried>
-3.7500

> <Gold.PLP.part.nonpolar>
-27.0766

> <Gold.PLP.part.repulsive>
0.2139

> <Gold.PLP.ligand.clash>
0.0000

> <Gold.PLP.ligand.torsion>
0.5003

> <Gold.PLP.Chemscore.Hbond>
1.6640

> <Gold.PLP.Chemscore.CHOScore>
0.0000

> <Gold.PLP.Chemscore.Metal>
0.0000

> <Gold.Chemscore.Hbonds>
donor molecule, donor type, donor heavy atom, donor atom, acceptor molecule, acceptor atom, score
      P1  H  6934  6947       L1    13  0.72
      P1  H  7989  7998       L1     1  0.90

> <Gold.PLP.Chemscore.Internal.Correction>
0.2313

> <Gold.Rescore>
     Score         DG    S(hbond)    S(metal)    S(lipo)     H(rot)  DE(clash)    DE(int)     intcor
     15.91     -18.41       1.46        0.00      94.69       1.18       0.04       2.47       ----

> <Gold.Chemscore.Fitness>
15.9084

> <Gold.Chemscore.DG>
-18.4137

> <Gold.Chemscore.ZeroCoef>
-5.4800

> <Gold.Chemscore.Hbond>
1.4593

> <Gold.Chemscore.Metal>
0.0000

> <Gold.Chemscore.Lipo>
94.6853

> <Gold.Chemscore.Internal_Hbond>
0.0000

> <Gold.Chemscore.DEClash>
0.0359

> <Gold.Chemscore.DEInternal>
2.4694

> <Gold.Chemscore.Rot>
1.1791

> <Gold.Chemscore.Internal.Correction>
   9.000000E+99

> <Gold.Chemscore.Hbonds>
donor molecule, donor type, donor heavy atom, donor atom, acceptor molecule, acceptor atom, score
      P1  H  6934  6947       L1    13  0.61
      P1  H  7989  7998       L1     1  0.88

> <Gold.Chemscore.Hbond.Weighted>
-4.8739

> <Gold.Chemscore.Metal.Weighted>
-0.0000

> <Gold.Chemscore.Lipo.Weighted>
-11.0782

> <Gold.Chemscore.Internal_Hbond.Weighted>
0.0000

> <Gold.Chemscore.DEClash.Weighted>
0.0359

> <Gold.Chemscore.DEInternal.Weighted>
2.4694

> <Gold.Chemscore.Rot.Weighted>
3.0184

> <Gold.Chemscore.Internal.Correction.Weighted>
   9.000000E+99

> <Gold.Protein.RotatedTorsions>
[ 6907 6896 6895 6894 ] final   46.56 input  -60.11 | X-H torsion
[ 7974 7965 7964 7962 ] final  152.17 input  175.53 | X-H torsion
[ 8008 7997 7996 7995 ] final  -45.88 input   59.86 | X-H torsion
[ 10167 10162 10161 10158 ] final -132.63 input  -65.29 | X-H torsion
[ 10718 10713 10712 10709 ] final -170.43 input   66.30 | X-H torsion
[ 10763 10752 10751 10750 ] final   66.81 input  -60.55 | X-H torsion
[ 11005 11000 10999 10996 ] final   24.98 input  -57.11 | X-H torsion

> <Gold.Protein.ActiveResidues>
 VAL166  LYS551  ARG553  GLY616  TRP617  ASP618  TYR619  PRO620  LYS621  CYS622 
 ASP623  PHE694  ASN695  SER759  ASP760  ASP761  ALA762  ILE779  LEU786  VAL792 
 PHE793  MET794  SER795  GLU796  ALA797  LYS798  CYS799  TRP800  GLU811  SER814 

> <Gold.Protein.RotatedAtoms>
  152.2579  134.8065  160.0435 H   0  0  0  0  0  0  0  0  0  0  0  0  # atno 6907 bound_to 6896
  151.8722  133.3473  159.3747 H   0  0  0  0  0  0  0  0  0  0  0  0  # atno 6908 bound_to 6896
  150.7106  134.5028  159.5614 H   0  0  0  0  0  0  0  0  0  0  0  0  # atno 6909 bound_to 6896
  144.8241  139.6633  143.6087 H   0  0  0  0  0  0  0  0  0  0  0  0  # atno 7974 bound_to 7965
  154.4003  140.1385  156.3919 H   0  0  0  0  0  0  0  0  0  0  0  0  # atno 8008 bound_to 7997
  155.7906  140.3479  155.5327 H   0  0  0  0  0  0  0  0  0  0  0  0  # atno 8009 bound_to 7997
  155.8583  140.0952  157.1620 H   0  0  0  0  0  0  0  0  0  0  0  0  # atno 8010 bound_to 7997
  139.9066  143.6544  152.2584 H   0  0  0  0  0  0  0  0  0  0  0  0  # atno 10167 bound_to 10162
  156.7261  130.9288  151.3101 H   0  0  0  0  0  0  0  0  0  0  0  0  # atno 10718 bound_to 10713
  153.0157  135.5307  154.6882 H   0  0  0  0  0  0  0  0  0  0  0  0  # atno 10763 bound_to 10752
  154.6024  135.2869  155.0523 H   0  0  0  0  0  0  0  0  0  0  0  0  # atno 10764 bound_to 10752
  154.1576  135.6553  153.5030 H   0  0  0  0  0  0  0  0  0  0  0  0  # atno 10765 bound_to 10752
  140.3528  134.2210  155.7678 H   0  0  0  0  0  0  0  0  0  0  0  0  # atno 11005 bound_to 11000
  146.2547  139.6275  142.9403 LP  0  0  0  0  0  0  0  0  0  0  0  0  # atno 17320 bound_to 7965
  145.5039  141.0437  143.2525 LP  0  0  0  0  0  0  0  0  0  0  0  0  # atno 17321 bound_to 7965
  139.6979  144.7639  151.1324 LP  0  0  0  0  0  0  0  0  0  0  0  0  # atno 17342 bound_to 10162
  140.7695  143.5498  150.9217 LP  0  0  0  0  0  0  0  0  0  0  0  0  # atno 17343 bound_to 10162
  157.6878  130.9203  150.0432 LP  0  0  0  0  0  0  0  0  0  0  0  0  # atno 17370 bound_to 10713
  156.1561  130.3643  149.9367 LP  0  0  0  0  0  0  0  0  0  0  0  0  # atno 17371 bound_to 10713
  141.2007  133.7981  157.0477 LP  0  0  0  0  0  0  0  0  0  0  0  0  # atno 17394 bound_to 11000
  140.0689  134.9713  157.1433 LP  0  0  0  0  0  0  0  0  0  0  0  0  # atno 17395 bound_to 11000

$$$$
