AV-unprocessed.smi:3185|AV-procd|sdf|12165|dock6
  -GOLD-   2272018 03D 1   1.00000     0.00000
 Structure written by MMmdl.
 38 39  0  0  0  0  0  0  0  0  2 V2000
  151.8336  146.1464  159.7099 N   0  0  0  0  0  0  0  0  0  0  0  0
  151.7613  144.9927  159.6777 C   0  0  0  0  0  0  0  0  0  0  0  0
  151.6684  143.5256  159.6372 C   0  0  0  0  0  0  0  0  0  0  0  0
  150.7398  143.0239  158.5257 C   0  0  0  0  0  0  0  0  0  0  0  0
  151.4438  142.9626  157.1654 C   0  0  0  0  0  0  0  0  0  0  0  0
  150.4973  142.5887  156.0955 N   0  3  0  0  0  0  0  0  0  0  0  0
  150.2995  141.1319  155.9184 C   0  0  2  0  0  0  0  0  0  0  0  0
  151.6643  140.4187  155.9656 C   0  0  0  0  0  0  0  0  0  0  0  0
  151.5222  138.9063  155.7353 C   0  0  0  0  0  0  0  0  0  0  0  0
  150.8090  138.6137  154.4072 C   0  0  0  0  0  0  0  0  0  0  0  0
  149.4422  139.3122  154.3494 C   0  0  0  0  0  0  0  0  0  0  0  0
  149.5739  140.8324  154.5810 C   0  0  1  0  0  0  0  0  0  0  0  0
  148.2715  141.4819  154.5032 N   0  0  0  0  0  0  0  0  0  0  0  0
  147.4548  141.6212  153.3999 C   0  0  0  0  0  0  0  0  0  0  0  0
  146.3385  142.2976  153.8003 C   0  0  0  0  0  0  0  0  0  0  0  0
  146.5604  142.5265  155.1866 C   0  0  0  0  0  0  0  0  0  0  0  0
  147.7165  142.0376  155.6041 N   0  0  0  0  0  0  0  0  0  0  0  0
  152.6756  143.1310  159.5008 H   0  0  0  0  0  0  0  0  0  0  0  0
  151.3157  143.1870  160.6116 H   0  0  0  0  0  0  0  0  0  0  0  0
  150.3662  142.0333  158.7885 H   0  0  0  0  0  0  0  0  0  0  0  0
  149.8688  143.6772  158.4607 H   0  0  0  0  0  0  0  0  0  0  0  0
  151.8877  143.9307  156.9294 H   0  0  0  0  0  0  0  0  0  0  0  0
  152.2548  142.2349  157.2041 H   0  0  0  0  0  0  0  0  0  0  0  0
  149.6008  143.0056  156.3016 H   0  0  0  0  0  0  0  0  0  0  0  0
  149.6967  140.7445  156.7424 H   0  0  0  0  0  0  0  0  0  0  0  0
  152.3281  140.8377  155.2079 H   0  0  0  0  0  0  0  0  0  0  0  0
  152.1448  140.5969  156.9284 H   0  0  0  0  0  0  0  0  0  0  0  0
  152.5058  138.4357  155.7401 H   0  0  0  0  0  0  0  0  0  0  0  0
  150.9621  138.4608  156.5584 H   0  0  0  0  0  0  0  0  0  0  0  0
  151.4287  138.9511  153.5755 H   0  0  0  0  0  0  0  0  0  0  0  0
  150.6824  137.5379  154.2816 H   0  0  0  0  0  0  0  0  0  0  0  0
  148.9748  139.1212  153.3826 H   0  0  0  0  0  0  0  0  0  0  0  0
  148.7843  138.8734  155.1008 H   0  0  0  0  0  0  0  0  0  0  0  0
  150.1807  141.2380  153.7692 H   0  0  0  0  0  0  0  0  0  0  0  0
  147.7330  141.2330  152.4308 H   0  0  0  0  0  0  0  0  0  0  0  0
  145.4899  142.5822  153.1957 H   0  0  0  0  0  0  0  0  0  0  0  0
  145.9207  143.0297  155.8966 H   0  0  0  0  0  0  0  0  0  0  0  0
  150.8360  142.9714  155.2244 H   0  0  0  0  0  0  0  0  0  0  0  0
  1  2  3  0  0  0  0
  2  3  1  0  0  0  0
  3  4  1  0  0  0  0
  3 18  1  0  0  0  0
  3 19  1  0  0  0  0
  4  5  1  0  0  0  0
  4 20  1  0  0  0  0
  4 21  1  0  0  0  0
  5  6  1  0  0  0  0
  5 22  1  0  0  0  0
  5 23  1  0  0  0  0
  6  7  1  0  0  0  0
  6 24  1  0  0  0  0
  6 38  1  0  0  0  0
  7 12  1  0  0  0  0
  7  8  1  0  0  0  0
  7 25  1  0  0  0  0
  8  9  1  0  0  0  0
  8 26  1  0  0  0  0
  8 27  1  0  0  0  0
  9 10  1  0  0  0  0
  9 28  1  0  0  0  0
  9 29  1  0  0  0  0
 10 11  1  0  0  0  0
 10 30  1  0  0  0  0
 10 31  1  0  0  0  0
 11 12  1  0  0  0  0
 11 32  1  0  0  0  0
 11 33  1  0  0  0  0
 12 13  1  0  0  0  0
 12 34  1  0  0  0  0
 13 17  1  0  0  0  0
 13 14  1  0  0  0  0
 14 15  2  0  0  0  0
 14 35  1  0  0  0  0
 15 16  1  0  0  0  0
 15 36  1  0  0  0  0
 16 17  2  0  0  0  0
 16 37  1  0  0  0  0
M  CHG  1   6   1
M  END
> <s_m_source_file>
AV-unprocessed.smi

> <i_m_source_file_index>
3185

> <i_lp_mmshare_version>
43012

> <i_f3d_flags>
0

> <s_epik_input>
TiNDW0NIMl1bQ0gyXVtDSDJdW05IXVtDQEBIXTFbQ0gyXVtDSDJdW0NIMl1bQ0gyXVtDQEhdMW4yW2NIXVtjSF1bY0hdbjI=

> <s_epik_cmdline>
J2VwaWtfcHl0aG9uJywgJy1waCcsICc3LjAnLCAnLXRuJywgJzgnLCAnLW1hJywgJzIwMCcsICctbWV0YWxfYmluZGluZycsICctaW1hZScsICc8aW5maWxlLm1hZT4nLCAnLW9tYWUnLCAnPG91dGZpbGUubWFlPic=

> <r_lp_tautomer_probability>
1

> <r_epik_Ionization_Penalty>
0.0143465

> <r_epik_Ionization_Penalty_Charging>
0.0143338

> <r_epik_Ionization_Penalty_Neutral>
1.27047e-05

> <r_epik_State_Penalty>
0.0112058

> <r_epik_Charging_Adjusted_Penalty>
0.0255397

> <i_epik_Tot_Q>
1

> <i_epik_Tot_abs_Q>
1

> <r_epik_Metal_State_Penalty>
0.0112253

> <b_epik_Metal_Only>
0

> <s_lp_Force_Field>
OPLS_2005

> <r_lp_Energy>
16.2212

> <b_lp_Chiralities_Consistent>
1

> <s_lp_Variant>
AV-unprocessed.smi:3185-1

> <Gold.Version>
5.8.1

> <Gold.Id.Protein>
6NUR|6NUR_protein|mol2

> <Gold.PLP.Fitness>
44.9004

> <Gold.PLP.PLP>
-39.6876

> <Gold.PLP.part.hbond>
-2.5201

> <Gold.PLP.part.metal>
0.0000

> <Gold.PLP.part.buried>
-4.4189

> <Gold.PLP.part.nonpolar>
-33.4648

> <Gold.PLP.part.repulsive>
1.6705

> <Gold.PLP.ligand.clash>
0.0000

> <Gold.PLP.ligand.torsion>
0.5480

> <Gold.PLP.Chemscore.Hbond>
1.0880

> <Gold.PLP.Chemscore.CHOScore>
0.9954

> <Gold.PLP.Chemscore.Metal>
0.0000

> <Gold.Chemscore.Hbonds>
donor molecule, donor type, donor heavy atom, donor atom, acceptor molecule, acceptor atom, score
      L1  H     6    24       P1  8028  1.12
      L1  C    14    35       P1  7957  0.99

> <Gold.PLP.Chemscore.Internal.Correction>
0.0586

> <Gold.Rescore>
     Score         DG    S(hbond)    S(metal)    S(lipo)     H(rot)  DE(clash)    DE(int)     intcor
      9.84     -11.76       0.41        0.00      83.02       1.88       0.24       1.68       ----

> <Gold.Chemscore.Fitness>
9.8381

> <Gold.Chemscore.DG>
-11.7614

> <Gold.Chemscore.ZeroCoef>
-5.4800

> <Gold.Chemscore.Hbond>
0.4113

> <Gold.Chemscore.Metal>
0.0000

> <Gold.Chemscore.Lipo>
83.0152

> <Gold.Chemscore.Internal_Hbond>
0.0000

> <Gold.Chemscore.DEClash>
0.2407

> <Gold.Chemscore.DEInternal>
1.6826

> <Gold.Chemscore.Rot>
1.8769

> <Gold.Chemscore.Internal.Correction>
   9.000000E+99

> <Gold.Chemscore.Hbonds>
donor molecule, donor type, donor heavy atom, donor atom, acceptor molecule, acceptor atom, score
      L1  H     6    24       P1  8028  0.55

> <Gold.Chemscore.Hbond.Weighted>
-1.3736

> <Gold.Chemscore.Metal.Weighted>
-0.0000

> <Gold.Chemscore.Lipo.Weighted>
-9.7128

> <Gold.Chemscore.Internal_Hbond.Weighted>
0.0000

> <Gold.Chemscore.DEClash.Weighted>
0.2407

> <Gold.Chemscore.DEInternal.Weighted>
1.6826

> <Gold.Chemscore.Rot.Weighted>
4.8049

> <Gold.Chemscore.Internal.Correction.Weighted>
   9.000000E+99

> <Gold.Protein.RotatedTorsions>
[ 6907 6896 6895 6894 ] final -119.35 input  -60.11 | X-H torsion
[ 7974 7965 7964 7962 ] final   66.99 input  175.53 | X-H torsion
[ 8008 7997 7996 7995 ] final  157.39 input   59.86 | X-H torsion
[ 10167 10162 10161 10158 ] final   51.60 input  -65.29 | X-H torsion
[ 10718 10713 10712 10709 ] final  -71.94 input   66.30 | X-H torsion
[ 10763 10752 10751 10750 ] final -120.39 input  -60.55 | X-H torsion
[ 11005 11000 10999 10996 ] final   26.23 input  -57.11 | X-H torsion

> <Gold.Protein.ActiveResidues>
 VAL166  LYS551  ARG553  GLY616  TRP617  ASP618  TYR619  PRO620  LYS621  CYS622 
 ASP623  PHE694  ASN695  SER759  ASP760  ASP761  ALA762  ILE779  LEU786  VAL792 
 PHE793  MET794  SER795  GLU796  ALA797  LYS798  CYS799  TRP800  GLU811  SER814 

> <Gold.Protein.RotatedAtoms>
  150.8298  133.8111  159.3103 H   0  0  0  0  0  0  0  0  0  0  0  0  # atno 6907 bound_to 6896
  151.5844  135.1055  160.0034 H   0  0  0  0  0  0  0  0  0  0  0  0  # atno 6908 bound_to 6896
  152.4379  133.7352  159.6666 H   0  0  0  0  0  0  0  0  0  0  0  0  # atno 6909 bound_to 6896
  145.8200  139.3079  143.1049 H   0  0  0  0  0  0  0  0  0  0  0  0  # atno 7974 bound_to 7965
  156.2367  140.1886  156.7101 H   0  0  0  0  0  0  0  0  0  0  0  0  # atno 8008 bound_to 7997
  154.6119  140.0621  156.9531 H   0  0  0  0  0  0  0  0  0  0  0  0  # atno 8009 bound_to 7997
  155.2002  140.3291  155.4347 H   0  0  0  0  0  0  0  0  0  0  0  0  # atno 8010 bound_to 7997
  140.2602  144.3381  150.6320 H   0  0  0  0  0  0  0  0  0  0  0  0  # atno 10167 bound_to 10162
  156.0341  130.4361  150.2518 H   0  0  0  0  0  0  0  0  0  0  0  0  # atno 10718 bound_to 10713
  154.8643  135.4204  154.2452 H   0  0  0  0  0  0  0  0  0  0  0  0  # atno 10763 bound_to 10752
  153.3409  135.6993  153.6873 H   0  0  0  0  0  0  0  0  0  0  0  0  # atno 10764 bound_to 10752
  153.5852  135.3565  155.2863 H   0  0  0  0  0  0  0  0  0  0  0  0  # atno 10765 bound_to 10752
  140.3392  134.2351  155.7692 H   0  0  0  0  0  0  0  0  0  0  0  0  # atno 11005 bound_to 11000
  145.9686  140.8779  143.0174 LP  0  0  0  0  0  0  0  0  0  0  0  0  # atno 17320 bound_to 7965
  144.6748  140.1913  143.7396 LP  0  0  0  0  0  0  0  0  0  0  0  0  # atno 17321 bound_to 7965
  140.5971  143.2167  151.7142 LP  0  0  0  0  0  0  0  0  0  0  0  0  # atno 17342 bound_to 10162
  139.5019  144.3850  152.0338 LP  0  0  0  0  0  0  0  0  0  0  0  0  # atno 17343 bound_to 10162
  157.0618  131.0092  151.3220 LP  0  0  0  0  0  0  0  0  0  0  0  0  # atno 17370 bound_to 10713
  157.5064  130.7912  149.7659 LP  0  0  0  0  0  0  0  0  0  0  0  0  # atno 17371 bound_to 10713
  141.2043  133.7890  157.0295 LP  0  0  0  0  0  0  0  0  0  0  0  0  # atno 17394 bound_to 11000
  140.0795  134.9656  157.1601 LP  0  0  0  0  0  0  0  0  0  0  0  0  # atno 17395 bound_to 11000

$$$$
