AV-unprocessed.smi:3270|AV-procd|sdf|12512|dock10
  -GOLD-   2272018423D 1   1.00000     0.00000
 Structure written by MMmdl.
 38 39  0  0  0  0  0  0  0  0  1 V2000
  151.9555  141.0310  158.4678 C   0  0  0  0  0  0  0  0  0  0  0  0
  152.9103  142.1175  159.0049 C   0  0  2  0  0  0  0  0  0  0  0  0
  153.6660  141.6731  160.2675 C   0  0  0  0  0  0  0  0  0  0  0  0
  154.3607  140.6560  160.2598 O   0  0  0  0  0  0  0  0  0  0  0  0
  153.5197  142.4512  161.3518 N   0  0  0  0  0  0  0  0  0  0  0  0
  154.1290  142.2013  162.6521 C   0  0  0  0  0  0  0  0  0  0  0  0
  154.4271  143.5164  163.3969 C   0  0  0  0  0  0  0  0  0  0  0  0
  155.0410  143.3535  164.7138 N   0  0  0  0  0  0  0  0  0  0  0  0
  155.9664  142.2251  164.7220 C   0  0  0  0  0  0  0  0  0  0  0  0
  156.6282  142.0317  166.0973 C   0  0  0  0  0  0  0  0  0  0  0  0
  157.2933  143.2314  166.4782 O   0  0  0  0  0  0  0  0  0  0  0  0
  156.4158  144.3513  166.5297 C   0  0  0  0  0  0  0  0  0  0  0  0
  155.7503  144.5521  165.1567 C   0  0  0  0  0  0  0  0  0  0  0  0
  152.2298  143.3854  159.2437 N   0  0  0  0  0  0  0  0  0  0  0  0
  152.3995  144.5782  158.5700 C   0  0  0  0  0  0  0  0  0  0  0  0
  151.5878  145.5038  159.1603 C   0  0  0  0  0  0  0  0  0  0  0  0
  150.9596  144.7801  160.2111 C   0  0  0  0  0  0  0  0  0  0  0  0
  151.3511  143.5178  160.2648 N   0  0  0  0  0  0  0  0  0  0  0  0
  152.4950  140.1099  158.2448 H   0  0  0  0  0  0  0  0  0  0  0  0
  151.4753  141.3585  157.5453 H   0  0  0  0  0  0  0  0  0  0  0  0
  151.1670  140.7861  159.1810 H   0  0  0  0  0  0  0  0  0  0  0  0
  153.6560  142.2971  158.2285 H   0  0  0  0  0  0  0  0  0  0  0  0
  152.9329  143.2690  161.2734 H   0  0  0  0  0  0  0  0  0  0  0  0
  153.4333  141.5837  163.2187 H   0  0  0  0  0  0  0  0  0  0  0  0
  155.0414  141.6149  162.5314 H   0  0  0  0  0  0  0  0  0  0  0  0
  155.0983  144.1086  162.7735 H   0  0  0  0  0  0  0  0  0  0  0  0
  153.5106  144.1013  163.4876 H   0  0  0  0  0  0  0  0  0  0  0  0
  155.4380  141.3116  164.4470 H   0  0  0  0  0  0  0  0  0  0  0  0
  156.7410  142.3761  163.9685 H   0  0  0  0  0  0  0  0  0  0  0  0
  155.8852  141.7636  166.8498 H   0  0  0  0  0  0  0  0  0  0  0  0
  157.3533  141.2186  166.0586 H   0  0  0  0  0  0  0  0  0  0  0  0
  155.6631  144.1965  167.3044 H   0  0  0  0  0  0  0  0  0  0  0  0
  156.9849  145.2380  166.8086 H   0  0  0  0  0  0  0  0  0  0  0  0
  156.5108  144.8247  164.4233 H   0  0  0  0  0  0  0  0  0  0  0  0
  155.0643  145.3955  165.2251 H   0  0  0  0  0  0  0  0  0  0  0  0
  153.0779  144.6687  157.7346 H   0  0  0  0  0  0  0  0  0  0  0  0
  151.4648  146.5411  158.8865 H   0  0  0  0  0  0  0  0  0  0  0  0
  150.2395  145.1329  160.9344 H   0  0  0  0  0  0  0  0  0  0  0  0
  1  2  1  0  0  0  0
  1 19  1  0  0  0  0
  1 20  1  0  0  0  0
  1 21  1  0  0  0  0
  2  3  1  0  0  0  0
  2 14  1  0  0  0  0
  2 22  1  0  0  0  0
  3  4  2  0  0  0  0
  3  5  1  0  0  0  0
  5  6  1  0  0  0  0
  5 23  1  0  0  0  0
  6  7  1  0  0  0  0
  6 24  1  0  0  0  0
  6 25  1  0  0  0  0
  7  8  1  0  0  0  0
  7 26  1  0  0  0  0
  7 27  1  0  0  0  0
  8 13  1  0  0  0  0
  8  9  1  0  0  0  0
  9 10  1  0  0  0  0
  9 28  1  0  0  0  0
  9 29  1  0  0  0  0
 10 11  1  0  0  0  0
 10 30  1  0  0  0  0
 10 31  1  0  0  0  0
 11 12  1  0  0  0  0
 12 13  1  0  0  0  0
 12 32  1  0  0  0  0
 12 33  1  0  0  0  0
 13 34  1  0  0  0  0
 13 35  1  0  0  0  0
 14 18  1  0  0  0  0
 14 15  1  0  0  0  0
 15 16  2  0  0  0  0
 15 36  1  0  0  0  0
 16 17  1  0  0  0  0
 16 37  1  0  0  0  0
 17 18  2  0  0  0  0
 17 38  1  0  0  0  0
M  END
> <s_m_source_file>
AV-unprocessed.smi

> <i_m_source_file_index>
3270

> <i_lp_mmshare_version>
43012

> <i_f3d_flags>
0

> <s_epik_input>
bjFbY0hdW2NIXVtjSF1uMVtDQEhdKFtDSDNdKUMoPU8pW05IXVtDSDJdW0NIMl1OMltDSDJdW0NIMl1PW0NIMl1bQ0gyXTI=

> <s_epik_cmdline>
J2VwaWtfcHl0aG9uJywgJy1waCcsICc3LjAnLCAnLXRuJywgJzgnLCAnLW1hJywgJzIwMCcsICctbWV0YWxfYmluZGluZycsICctaW1hZScsICc8aW5maWxlLm1hZT4nLCAnLW9tYWUnLCAnPG91dGZpbGUubWFlPic=

> <r_lp_tautomer_probability>
1

> <r_epik_Ionization_Penalty>
0.203323

> <r_epik_Ionization_Penalty_Charging>
0

> <r_epik_Ionization_Penalty_Neutral>
0.203323

> <r_epik_State_Penalty>
0.193192

> <r_epik_Charging_Adjusted_Penalty>
0.193192

> <i_epik_Tot_Q>
0

> <i_epik_Tot_abs_Q>
0

> <r_epik_Metal_State_Penalty>
0.193187

> <b_epik_Metal_Only>
0

> <s_lp_Force_Field>
OPLS_2005

> <r_lp_Energy>
25.3297

> <b_lp_Chiralities_Consistent>
1

> <s_lp_Variant>
AV-unprocessed.smi:3270-1

> <Gold.Version>
5.8.1

> <Gold.Id.Protein>
6NUR|6NUR_protein|mol2

> <Gold.PLP.Fitness>
45.2228

> <Gold.PLP.PLP>
-46.1680

> <Gold.PLP.part.hbond>
-1.2427

> <Gold.PLP.part.metal>
0.0000

> <Gold.PLP.part.buried>
-6.8453

> <Gold.PLP.part.nonpolar>
-38.4993

> <Gold.PLP.part.repulsive>
0.1546

> <Gold.PLP.ligand.clash>
0.0000

> <Gold.PLP.ligand.torsion>
0.5307

> <Gold.PLP.Chemscore.Hbond>
0.0000

> <Gold.PLP.Chemscore.CHOScore>
0.0000

> <Gold.PLP.Chemscore.Metal>
0.0000

> <Gold.PLP.Chemscore.Internal.Correction>
0.1162

> <Gold.Rescore>
     Score         DG    S(hbond)    S(metal)    S(lipo)     H(rot)  DE(clash)    DE(int)     intcor
     10.67     -13.93       0.00        0.00     112.25       1.83       0.75       2.52       ----

> <Gold.Chemscore.Fitness>
10.6650

> <Gold.Chemscore.DG>
-13.9317

> <Gold.Chemscore.ZeroCoef>
-5.4800

> <Gold.Chemscore.Hbond>
0.0000

> <Gold.Chemscore.Metal>
0.0000

> <Gold.Chemscore.Lipo>
112.2549

> <Gold.Chemscore.Internal_Hbond>
0.0000

> <Gold.Chemscore.DEClash>
0.7496

> <Gold.Chemscore.DEInternal>
2.5170

> <Gold.Chemscore.Rot>
1.8290

> <Gold.Chemscore.Internal.Correction>
   9.000000E+99

> <Gold.Chemscore.Hbond.Weighted>
-0.0000

> <Gold.Chemscore.Metal.Weighted>
-0.0000

> <Gold.Chemscore.Lipo.Weighted>
-13.1338

> <Gold.Chemscore.Internal_Hbond.Weighted>
0.0000

> <Gold.Chemscore.DEClash.Weighted>
0.7496

> <Gold.Chemscore.DEInternal.Weighted>
2.5170

> <Gold.Chemscore.Rot.Weighted>
4.6821

> <Gold.Chemscore.Internal.Correction.Weighted>
   9.000000E+99

> <Gold.Protein.RotatedTorsions>
[ 6907 6896 6895 6894 ] final  152.85 input  -60.11 | X-H torsion
[ 7974 7965 7964 7962 ] final  -93.95 input  175.53 | X-H torsion
[ 8008 7997 7996 7995 ] final   44.36 input   59.86 | X-H torsion
[ 10167 10162 10161 10158 ] final -120.90 input  -65.29 | X-H torsion
[ 10718 10713 10712 10709 ] final   54.24 input   66.30 | X-H torsion
[ 10763 10752 10751 10750 ] final   62.75 input  -60.55 | X-H torsion
[ 11005 11000 10999 10996 ] final  129.29 input  -57.11 | X-H torsion

> <Gold.Protein.ActiveResidues>
 VAL166  LYS551  ARG553  GLY616  TRP617  ASP618  TYR619  PRO620  LYS621  CYS622 
 ASP623  PHE694  ASN695  SER759  ASP760  ASP761  ALA762  ILE779  LEU786  VAL792 
 PHE793  MET794  SER795  GLU796  ALA797  LYS798  CYS799  TRP800  GLU811  SER814 

> <Gold.Protein.RotatedAtoms>
  152.0810  133.4153  159.4500 H   0  0  0  0  0  0  0  0  0  0  0  0  # atno 6907 bound_to 6896
  150.6862  134.2982  159.4704 H   0  0  0  0  0  0  0  0  0  0  0  0  # atno 6908 bound_to 6896
  152.0824  134.9462  160.0624 H   0  0  0  0  0  0  0  0  0  0  0  0  # atno 6909 bound_to 6896
  145.3798  140.9516  143.2400 H   0  0  0  0  0  0  0  0  0  0  0  0  # atno 7974 bound_to 7965
  155.3181  140.3395  155.4242 H   0  0  0  0  0  0  0  0  0  0  0  0  # atno 8008 bound_to 7997
  156.1923  140.1702  156.8106 H   0  0  0  0  0  0  0  0  0  0  0  0  # atno 8009 bound_to 7997
  154.5456  140.0716  156.8567 H   0  0  0  0  0  0  0  0  0  0  0  0  # atno 8010 bound_to 7997
  140.0309  143.5249  152.2177 H   0  0  0  0  0  0  0  0  0  0  0  0  # atno 10167 bound_to 10162
  157.5239  130.8584  149.8595 H   0  0  0  0  0  0  0  0  0  0  0  0  # atno 10718 bound_to 10713
  152.9993  135.5454  154.6242 H   0  0  0  0  0  0  0  0  0  0  0  0  # atno 10763 bound_to 10752
  154.5535  135.2828  155.0989 H   0  0  0  0  0  0  0  0  0  0  0  0  # atno 10764 bound_to 10752
  154.2219  135.6449  153.5200 H   0  0  0  0  0  0  0  0  0  0  0  0  # atno 10765 bound_to 10752
  139.9607  134.9603  156.9127 H   0  0  0  0  0  0  0  0  0  0  0  0  # atno 11005 bound_to 11000
  144.8516  139.5313  143.6854 LP  0  0  0  0  0  0  0  0  0  0  0  0  # atno 17320 bound_to 7965
  146.2847  139.6972  142.9204 LP  0  0  0  0  0  0  0  0  0  0  0  0  # atno 17321 bound_to 7965
  139.6077  144.7600  151.3024 LP  0  0  0  0  0  0  0  0  0  0  0  0  # atno 17342 bound_to 10162
  140.7302  143.6885  150.7941 LP  0  0  0  0  0  0  0  0  0  0  0  0  # atno 17343 bound_to 10162
  156.0373  130.3748  150.1527 LP  0  0  0  0  0  0  0  0  0  0  0  0  # atno 17370 bound_to 10713
  156.9714  130.9836  151.3458 LP  0  0  0  0  0  0  0  0  0  0  0  0  # atno 17371 bound_to 10713
  140.5506  134.0631  155.7368 LP  0  0  0  0  0  0  0  0  0  0  0  0  # atno 17394 bound_to 11000
  141.1284  133.9344  157.2587 LP  0  0  0  0  0  0  0  0  0  0  0  0  # atno 17395 bound_to 11000

$$$$
