AV-unprocessed.smi:2340|AV-procd|sdf|9347|dock9
  -GOLD-   2272012573D 1   1.00000     0.00000
 Structure written by MMmdl.
 40 41  0  0  0  0  0  0  0  0  1 V2000
  145.3638  132.0496  149.3793 C   0  0  0  0  0  0  0  0  0  0  0  0
  145.6786  132.8246  150.6193 C   0  0  0  0  0  0  0  0  0  0  0  0
  146.4709  132.4248  151.6662 C   0  0  0  0  0  0  0  0  0  0  0  0
  146.5502  133.6332  152.9184 S   0  0  0  0  0  0  0  0  0  0  0  0
  145.4876  134.6563  151.9574 C   0  0  0  0  0  0  0  0  0  0  0  0
  145.0016  135.9972  152.4185 C   0  0  1  0  0  0  0  0  0  0  0  0
  143.4742  136.1198  152.3200 C   0  0  0  0  0  0  0  0  0  0  0  0
  145.5483  136.3997  153.8055 C   0  0  0  0  0  0  0  0  0  0  0  0
  146.9900  136.6427  153.7844 N   0  0  0  0  0  0  0  0  0  0  0  0
  147.6807  137.3170  154.7152 C   0  0  0  0  0  0  0  0  0  0  0  0
  147.1733  137.8617  155.6954 O   0  0  0  0  0  0  0  0  0  0  0  0
  148.9950  137.3161  154.4538 N   0  0  0  0  0  0  0  0  0  0  0  0
  150.0249  137.9228  155.2980 C   0  0  1  0  0  0  0  0  0  0  0  0
  151.4184  137.5743  154.7772 C   0  0  0  0  0  0  0  0  0  0  0  0
  152.1416  138.9157  154.7210 C   0  0  0  0  0  0  0  0  0  0  0  0
  151.0974  139.8379  154.4650 O   0  0  0  0  0  0  0  0  0  0  0  0
  150.0029  139.4692  155.2914 C   0  0  1  0  0  0  0  0  0  0  0  0
  148.7190  140.1619  154.8068 C   0  0  0  0  0  0  0  0  0  0  0  0
  145.1346  134.0994  150.7950 N   0  0  0  0  0  0  0  0  0  0  0  0
  145.8661  131.0820  149.3743 H   0  0  0  0  0  0  0  0  0  0  0  0
  145.6788  132.5898  148.4864 H   0  0  0  0  0  0  0  0  0  0  0  0
  144.2927  131.8645  149.2947 H   0  0  0  0  0  0  0  0  0  0  0  0
  147.0066  131.4941  151.7794 H   0  0  0  0  0  0  0  0  0  0  0  0
  145.4056  136.7216  151.7100 H   0  0  0  0  0  0  0  0  0  0  0  0
  143.1293  135.9254  151.3039 H   0  0  0  0  0  0  0  0  0  0  0  0
  143.1425  137.1213  152.5954 H   0  0  0  0  0  0  0  0  0  0  0  0
  142.9762  135.4115  152.9827 H   0  0  0  0  0  0  0  0  0  0  0  0
  145.0583  137.3129  154.1442 H   0  0  0  0  0  0  0  0  0  0  0  0
  145.2985  135.6330  154.5411 H   0  0  0  0  0  0  0  0  0  0  0  0
  147.5043  136.2382  153.0157 H   0  0  0  0  0  0  0  0  0  0  0  0
  149.3133  136.8464  153.6189 H   0  0  0  0  0  0  0  0  0  0  0  0
  149.9256  137.5690  156.3259 H   0  0  0  0  0  0  0  0  0  0  0  0
  151.9362  136.8531  155.4100 H   0  0  0  0  0  0  0  0  0  0  0  0
  151.3666  137.1527  153.7722 H   0  0  0  0  0  0  0  0  0  0  0  0
  152.6074  139.1483  155.6798 H   0  0  0  0  0  0  0  0  0  0  0  0
  152.9095  138.9491  153.9480 H   0  0  0  0  0  0  0  0  0  0  0  0
  150.2264  139.8204  156.3005 H   0  0  0  0  0  0  0  0  0  0  0  0
  147.8641  139.8803  155.4219 H   0  0  0  0  0  0  0  0  0  0  0  0
  148.4913  139.9086  153.7710 H   0  0  0  0  0  0  0  0  0  0  0  0
  148.8226  141.2456  154.8625 H   0  0  0  0  0  0  0  0  0  0  0  0
  1  2  1  0  0  0  0
  1 20  1  0  0  0  0
  1 21  1  0  0  0  0
  1 22  1  0  0  0  0
  2 19  1  0  0  0  0
  2  3  2  0  0  0  0
  3  4  1  0  0  0  0
  3 23  1  0  0  0  0
  4  5  1  0  0  0  0
  5  6  1  0  0  0  0
  5 19  2  0  0  0  0
  6  7  1  0  0  0  0
  6  8  1  0  0  0  0
  6 24  1  0  0  0  0
  7 25  1  0  0  0  0
  7 26  1  0  0  0  0
  7 27  1  0  0  0  0
  8  9  1  0  0  0  0
  8 28  1  0  0  0  0
  8 29  1  0  0  0  0
  9 10  1  0  0  0  0
  9 30  1  0  0  0  0
 10 11  2  0  0  0  0
 10 12  1  0  0  0  0
 12 13  1  0  0  0  0
 12 31  1  0  0  0  0
 13 17  1  0  0  0  0
 13 14  1  0  0  0  0
 13 32  1  0  0  0  0
 14 15  1  0  0  0  0
 14 33  1  0  0  0  0
 14 34  1  0  0  0  0
 15 16  1  0  0  0  0
 15 35  1  0  0  0  0
 15 36  1  0  0  0  0
 16 17  1  0  0  0  0
 17 18  1  0  0  0  0
 17 37  1  0  0  0  0
 18 38  1  0  0  0  0
 18 39  1  0  0  0  0
 18 40  1  0  0  0  0
M  END
> <s_m_source_file>
AV-unprocessed.smi

> <i_m_source_file_index>
2340

> <i_lp_mmshare_version>
43012

> <i_f3d_flags>
0

> <s_epik_input>
W0NIM11jMVtjSF1zYyhuMSlbQ0BIXShbQ0gzXSlbQ0gyXVtOSF1DKD1PKVtOSF1bQ0BASF0yW0NIMl1bQ0gyXU9bQ0BIXTJbQ0gzXQ==

> <s_epik_cmdline>
J2VwaWtfcHl0aG9uJywgJy1waCcsICc3LjAnLCAnLXRuJywgJzgnLCAnLW1hJywgJzIwMCcsICctbWV0YWxfYmluZGluZycsICctaW1hZScsICc8aW5maWxlLm1hZT4nLCAnLW9tYWUnLCAnPG91dGZpbGUubWFlPic=

> <r_epik_Ionization_Penalty>
0.00156622

> <r_epik_Ionization_Penalty_Charging>
0

> <r_epik_Ionization_Penalty_Neutral>
0.00156622

> <r_epik_State_Penalty>
0.00101902

> <r_epik_Charging_Adjusted_Penalty>
0.00101902

> <i_epik_Tot_Q>
0

> <i_epik_Tot_abs_Q>
0

> <r_epik_Metal_State_Penalty>
-0

> <b_epik_Metal_Only>
0

> <s_lp_Force_Field>
OPLS_2005

> <r_lp_Energy>
5.75985

> <b_lp_Chiralities_Consistent>
1

> <s_lp_Variant>
AV-unprocessed.smi:2340-4

> <Gold.Version>
5.8.1

> <Gold.Id.Protein>
6NUR|6NUR_protein|mol2

> <Gold.PLP.Fitness>
40.4622

> <Gold.PLP.PLP>
-29.4571

> <Gold.PLP.part.hbond>
-2.9896

> <Gold.PLP.part.metal>
0.0000

> <Gold.PLP.part.buried>
-4.6502

> <Gold.PLP.part.nonpolar>
-22.4470

> <Gold.PLP.part.repulsive>
0.2835

> <Gold.PLP.ligand.clash>
0.0000

> <Gold.PLP.ligand.torsion>
0.3522

> <Gold.PLP.Chemscore.Hbond>
2.9750

> <Gold.PLP.Chemscore.CHOScore>
0.8871

> <Gold.PLP.Chemscore.Metal>
0.0000

> <Gold.Chemscore.Hbonds>
donor molecule, donor type, donor heavy atom, donor atom, acceptor molecule, acceptor atom, score
      L1  H     9    30       P1  7948  1.00
      L1  H    12    31       P1  7948  1.00
      P1  H  7989  7998       L1    16  0.94
      L1  C     3    23       P1 10747  0.79

> <Gold.PLP.Chemscore.Internal.Correction>
0.1233

> <Gold.Rescore>
     Score         DG    S(hbond)    S(metal)    S(lipo)     H(rot)  DE(clash)    DE(int)     intcor
     19.64     -20.15       2.84        0.00      77.71       1.53       0.02       0.50       ----

> <Gold.Chemscore.Fitness>
19.6358

> <Gold.Chemscore.DG>
-20.1488

> <Gold.Chemscore.ZeroCoef>
-5.4800

> <Gold.Chemscore.Hbond>
2.8442

> <Gold.Chemscore.Metal>
0.0000

> <Gold.Chemscore.Lipo>
77.7148

> <Gold.Chemscore.Internal_Hbond>
0.0000

> <Gold.Chemscore.DEClash>
0.0172

> <Gold.Chemscore.DEInternal>
0.4958

> <Gold.Chemscore.Rot>
1.5325

> <Gold.Chemscore.Internal.Correction>
   9.000000E+99

> <Gold.Chemscore.Hbonds>
donor molecule, donor type, donor heavy atom, donor atom, acceptor molecule, acceptor atom, score
      L1  H     9    30       P1  7948  0.96
      L1  H    12    31       P1  7948  0.90
      P1  H  7989  7998       L1    16  0.54

> <Gold.Chemscore.Hbond.Weighted>
-9.4995

> <Gold.Chemscore.Metal.Weighted>
-0.0000

> <Gold.Chemscore.Lipo.Weighted>
-9.0926

> <Gold.Chemscore.Internal_Hbond.Weighted>
0.0000

> <Gold.Chemscore.DEClash.Weighted>
0.0172

> <Gold.Chemscore.DEInternal.Weighted>
0.4958

> <Gold.Chemscore.Rot.Weighted>
3.9233

> <Gold.Chemscore.Internal.Correction.Weighted>
   9.000000E+99

> <Gold.Protein.RotatedTorsions>
[ 6907 6896 6895 6894 ] final  -57.45 input  -60.11 | X-H torsion
[ 7974 7965 7964 7962 ] final  130.51 input  175.53 | X-H torsion
[ 8008 7997 7996 7995 ] final  -34.46 input   59.86 | X-H torsion
[ 10167 10162 10161 10158 ] final -126.11 input  -65.29 | X-H torsion
[ 10718 10713 10712 10709 ] final  179.90 input   66.30 | X-H torsion
[ 10763 10752 10751 10750 ] final   -6.47 input  -60.55 | X-H torsion
[ 11005 11000 10999 10996 ] final -100.42 input  -57.11 | X-H torsion

> <Gold.Protein.ActiveResidues>
 VAL166  LYS551  ARG553  GLY616  TRP617  ASP618  TYR619  PRO620  LYS621  CYS622 
 ASP623  PHE694  ASN695  SER759  ASP760  ASP761  ALA762  ILE779  LEU786  VAL792 
 PHE793  MET794  SER795  GLU796  ALA797  LYS798  CYS799  TRP800  GLU811  SER814 

> <Gold.Protein.RotatedAtoms>
  150.8085  134.7225  159.6665 H   0  0  0  0  0  0  0  0  0  0  0  0  # atno 6907 bound_to 6896
  152.4205  134.5961  159.9997 H   0  0  0  0  0  0  0  0  0  0  0  0  # atno 6908 bound_to 6896
  151.6177  133.3304  159.3117 H   0  0  0  0  0  0  0  0  0  0  0  0  # atno 6909 bound_to 6896
  145.0171  139.4166  143.5216 H   0  0  0  0  0  0  0  0  0  0  0  0  # atno 7974 bound_to 7965
  154.4120  140.1683  156.2053 H   0  0  0  0  0  0  0  0  0  0  0  0  # atno 8008 bound_to 7997
  155.9489  140.3402  155.6367 H   0  0  0  0  0  0  0  0  0  0  0  0  # atno 8009 bound_to 7997
  155.6895  140.0732  157.2444 H   0  0  0  0  0  0  0  0  0  0  0  0  # atno 8010 bound_to 7997
  139.9749  143.5805  152.2399 H   0  0  0  0  0  0  0  0  0  0  0  0  # atno 10167 bound_to 10162
  156.8689  130.9777  151.3075 H   0  0  0  0  0  0  0  0  0  0  0  0  # atno 10718 bound_to 10713
  153.4127  135.7008  153.6348 H   0  0  0  0  0  0  0  0  0  0  0  0  # atno 10763 bound_to 10752
  153.4835  135.3688  155.2455 H   0  0  0  0  0  0  0  0  0  0  0  0  # atno 10764 bound_to 10752
  154.8718  135.4071  154.3482 H   0  0  0  0  0  0  0  0  0  0  0  0  # atno 10765 bound_to 10752
  141.1271  133.8398  157.1100 H   0  0  0  0  0  0  0  0  0  0  0  0  # atno 11005 bound_to 11000
  146.3479  139.9648  142.8713 LP  0  0  0  0  0  0  0  0  0  0  0  0  # atno 17320 bound_to 7965
  145.1945  140.9826  143.4192 LP  0  0  0  0  0  0  0  0  0  0  0  0  # atno 17321 bound_to 7965
  139.6453  144.7657  151.2257 LP  0  0  0  0  0  0  0  0  0  0  0  0  # atno 17342 bound_to 10162
  140.7509  143.6250  150.8477 LP  0  0  0  0  0  0  0  0  0  0  0  0  # atno 17343 bound_to 10162
  157.6207  130.8653  149.9104 LP  0  0  0  0  0  0  0  0  0  0  0  0  # atno 17370 bound_to 10713
  156.0737  130.3682  150.0722 LP  0  0  0  0  0  0  0  0  0  0  0  0  # atno 17371 bound_to 10713
  140.0280  134.9914  157.0725 LP  0  0  0  0  0  0  0  0  0  0  0  0  # atno 17394 bound_to 11000
  140.4330  134.1760  155.7169 LP  0  0  0  0  0  0  0  0  0  0  0  0  # atno 17395 bound_to 11000

$$$$
