AV-unprocessed.smi:3285|AV-procd|sdf|12583|dock6
  -GOLD-   2272018503D 1   1.00000     0.00000
 Structure written by MMmdl.
 45 46  0  0  0  0  0  0  0  0  2 V2000
  146.4886  142.1279  153.7929 C   0  0  0  0  0  0  0  0  0  0  0  0
  147.2833  140.8555  153.8586 C   0  0  0  0  0  0  0  0  0  0  0  0
  146.7010  139.7176  153.5218 N   0  0  0  0  0  0  0  0  0  0  0  0
  147.6719  138.7258  153.6871 O   0  0  0  0  0  0  0  0  0  0  0  0
  148.8152  139.3119  154.1229 C   0  0  0  0  0  0  0  0  0  0  0  0
  149.9735  138.4041  154.3650 C   0  0  0  0  0  0  0  0  0  0  0  0
  148.6397  140.6630  154.2523 C   0  0  0  0  0  0  0  0  0  0  0  0
  149.6336  141.6979  154.7078 C   0  0  0  0  0  0  0  0  0  0  0  0
  150.0066  141.5044  156.1830 C   0  0  0  0  0  0  0  0  0  0  0  0
  150.7044  142.6918  156.7141 N   0  3  0  0  0  0  0  0  0  0  0  0
  150.9556  142.6634  158.1710 C   0  0  1  0  0  0  0  0  0  0  0  0
  152.0541  141.6419  158.4987 C   0  0  0  0  0  0  0  0  0  0  0  0
  152.3499  141.6211  160.0040 C   0  0  0  0  0  0  0  0  0  0  0  0
  152.7565  143.0117  160.5331 C   0  0  2  0  0  0  0  0  0  0  0  0
  153.0514  142.9277  162.0415 C   0  0  0  0  0  0  0  0  0  0  0  0
  151.6756  144.0704  160.1844 C   0  0  1  0  0  0  0  0  0  0  0  0
  152.0686  145.4922  160.6245 C   0  0  0  0  0  0  0  0  0  0  0  0
  151.3634  144.0591  158.6723 C   0  0  0  0  0  0  0  0  0  0  0  0
  147.0691  142.9829  154.1385 H   0  0  0  0  0  0  0  0  0  0  0  0
  145.5957  142.0640  154.4154 H   0  0  0  0  0  0  0  0  0  0  0  0
  146.1683  142.3369  152.7719 H   0  0  0  0  0  0  0  0  0  0  0  0
  150.8421  138.9582  154.7202 H   0  0  0  0  0  0  0  0  0  0  0  0
  150.2558  137.8859  153.4485 H   0  0  0  0  0  0  0  0  0  0  0  0
  149.7240  137.6527  155.1144 H   0  0  0  0  0  0  0  0  0  0  0  0
  150.5374  141.6546  154.0989 H   0  0  0  0  0  0  0  0  0  0  0  0
  149.2354  142.7028  154.5637 H   0  0  0  0  0  0  0  0  0  0  0  0
  149.1096  141.3194  156.7758 H   0  0  0  0  0  0  0  0  0  0  0  0
  150.6547  140.6331  156.2913 H   0  0  0  0  0  0  0  0  0  0  0  0
  151.5945  142.7689  156.2433 H   0  0  0  0  0  0  0  0  0  0  0  0
  150.0441  142.3625  158.6910 H   0  0  0  0  0  0  0  0  0  0  0  0
  151.7504  140.6467  158.1714 H   0  0  0  0  0  0  0  0  0  0  0  0
  152.9664  141.8839  157.9514 H   0  0  0  0  0  0  0  0  0  0  0  0
  151.4693  141.2655  160.5411 H   0  0  0  0  0  0  0  0  0  0  0  0
  153.1427  140.8995  160.2052 H   0  0  0  0  0  0  0  0  0  0  0  0
  153.6839  143.2968  160.0339 H   0  0  0  0  0  0  0  0  0  0  0  0
  152.1482  142.7069  162.6112 H   0  0  0  0  0  0  0  0  0  0  0  0
  153.4728  143.8560  162.4258 H   0  0  0  0  0  0  0  0  0  0  0  0
  153.7764  142.1414  162.2540 H   0  0  0  0  0  0  0  0  0  0  0  0
  150.7585  143.8054  160.7131 H   0  0  0  0  0  0  0  0  0  0  0  0
  153.0208  145.7947  160.1875 H   0  0  0  0  0  0  0  0  0  0  0  0
  152.1566  145.5718  161.7074 H   0  0  0  0  0  0  0  0  0  0  0  0
  151.3174  146.2194  160.3154 H   0  0  0  0  0  0  0  0  0  0  0  0
  152.2376  144.4057  158.1187 H   0  0  0  0  0  0  0  0  0  0  0  0
  150.5632  144.7693  158.4577 H   0  0  0  0  0  0  0  0  0  0  0  0
  150.1569  143.5130  156.4992 H   0  0  0  0  0  0  0  0  0  0  0  0
  1  2  1  0  0  0  0
  1 19  1  0  0  0  0
  1 20  1  0  0  0  0
  1 21  1  0  0  0  0
  2  7  1  0  0  0  0
  2  3  2  0  0  0  0
  3  4  1  0  0  0  0
  4  5  1  0  0  0  0
  5  6  1  0  0  0  0
  5  7  2  0  0  0  0
  6 22  1  0  0  0  0
  6 23  1  0  0  0  0
  6 24  1  0  0  0  0
  7  8  1  0  0  0  0
  8  9  1  0  0  0  0
  8 25  1  0  0  0  0
  8 26  1  0  0  0  0
  9 10  1  0  0  0  0
  9 27  1  0  0  0  0
  9 28  1  0  0  0  0
 10 11  1  0  0  0  0
 10 29  1  0  0  0  0
 10 45  1  0  0  0  0
 11 18  1  0  0  0  0
 11 12  1  0  0  0  0
 11 30  1  0  0  0  0
 12 13  1  0  0  0  0
 12 31  1  0  0  0  0
 12 32  1  0  0  0  0
 13 14  1  0  0  0  0
 13 33  1  0  0  0  0
 13 34  1  0  0  0  0
 14 15  1  0  0  0  0
 14 16  1  0  0  0  0
 14 35  1  0  0  0  0
 15 36  1  0  0  0  0
 15 37  1  0  0  0  0
 15 38  1  0  0  0  0
 16 17  1  0  0  0  0
 16 18  1  0  0  0  0
 16 39  1  0  0  0  0
 17 40  1  0  0  0  0
 17 41  1  0  0  0  0
 17 42  1  0  0  0  0
 18 43  1  0  0  0  0
 18 44  1  0  0  0  0
M  CHG  1  10   1
M  END
> <s_m_source_file>
AV-unprocessed.smi

> <i_m_source_file_index>
3285

> <i_lp_mmshare_version>
43012

> <i_f3d_flags>
0

> <s_epik_input>
W0NIM11jMW5vYyhbQ0gzXSljMVtDSDJdW0NIMl1bTkhdW0NAQEhdMltDSDJdW0NIMl1bQ0BASF0oW0NIM10pW0NAQEhdKFtDSDNdKVtDSDJdMg==

> <s_epik_cmdline>
J2VwaWtfcHl0aG9uJywgJy1waCcsICc3LjAnLCAnLXRuJywgJzgnLCAnLW1hJywgJzIwMCcsICctbWV0YWxfYmluZGluZycsICctaW1hZScsICc8aW5maWxlLm1hZT4nLCAnLW9tYWUnLCAnPG91dGZpbGUubWFlPic=

> <r_lp_tautomer_probability>
1

> <r_epik_Ionization_Penalty>
0.000204615

> <r_epik_Ionization_Penalty_Charging>
0.000204615

> <r_epik_Ionization_Penalty_Neutral>
9.28663e-11

> <r_epik_State_Penalty>
-0

> <r_epik_Charging_Adjusted_Penalty>
0.000204615

> <i_epik_Tot_Q>
1

> <i_epik_Tot_abs_Q>
1

> <r_epik_Metal_State_Penalty>
-0

> <b_epik_Metal_Only>
0

> <s_lp_Force_Field>
OPLS_2005

> <r_lp_Energy>
11.6607

> <b_lp_Chiralities_Consistent>
1

> <s_lp_Variant>
AV-unprocessed.smi:3285-4

> <Gold.Version>
5.8.1

> <Gold.Id.Protein>
6NUR|6NUR_protein|mol2

> <Gold.PLP.Fitness>
46.9149

> <Gold.PLP.PLP>
-41.2780

> <Gold.PLP.part.hbond>
-1.0000

> <Gold.PLP.part.metal>
0.0000

> <Gold.PLP.part.buried>
-2.2378

> <Gold.PLP.part.nonpolar>
-37.2471

> <Gold.PLP.part.repulsive>
0.4393

> <Gold.PLP.ligand.clash>
0.0000

> <Gold.PLP.ligand.torsion>
0.1859

> <Gold.PLP.Chemscore.Hbond>
2.0000

> <Gold.PLP.Chemscore.CHOScore>
0.0000

> <Gold.PLP.Chemscore.Metal>
0.0000

> <Gold.Chemscore.Hbonds>
donor molecule, donor type, donor heavy atom, donor atom, acceptor molecule, acceptor atom, score
      L1  H    10    45       P1  8028  2.00

> <Gold.PLP.Chemscore.Internal.Correction>
0.0087

> <Gold.Rescore>
     Score         DG    S(hbond)    S(metal)    S(lipo)     H(rot)  DE(clash)    DE(int)     intcor
     20.48     -21.03       1.00        0.00     133.88       1.35       0.38       0.18       ----

> <Gold.Chemscore.Fitness>
20.4750

> <Gold.Chemscore.DG>
-21.0270

> <Gold.Chemscore.ZeroCoef>
-5.4800

> <Gold.Chemscore.Hbond>
0.9970

> <Gold.Chemscore.Metal>
0.0000

> <Gold.Chemscore.Lipo>
133.8806

> <Gold.Chemscore.Internal_Hbond>
0.0000

> <Gold.Chemscore.DEClash>
0.3764

> <Gold.Chemscore.DEInternal>
0.1756

> <Gold.Chemscore.Rot>
1.3465

> <Gold.Chemscore.Internal.Correction>
   9.000000E+99

> <Gold.Chemscore.Hbonds>
donor molecule, donor type, donor heavy atom, donor atom, acceptor molecule, acceptor atom, score
      L1  H    10    45       P1  8028  0.99

> <Gold.Chemscore.Hbond.Weighted>
-3.3299

> <Gold.Chemscore.Metal.Weighted>
-0.0000

> <Gold.Chemscore.Lipo.Weighted>
-15.6640

> <Gold.Chemscore.Internal_Hbond.Weighted>
0.0000

> <Gold.Chemscore.DEClash.Weighted>
0.3764

> <Gold.Chemscore.DEInternal.Weighted>
0.1756

> <Gold.Chemscore.Rot.Weighted>
3.4470

> <Gold.Chemscore.Internal.Correction.Weighted>
   9.000000E+99

> <Gold.Protein.RotatedTorsions>
[ 6907 6896 6895 6894 ] final -111.63 input  -60.11 | X-H torsion
[ 7974 7965 7964 7962 ] final  165.59 input  175.53 | X-H torsion
[ 8008 7997 7996 7995 ] final -139.81 input   59.86 | X-H torsion
[ 10167 10162 10161 10158 ] final   34.59 input  -65.29 | X-H torsion
[ 10718 10713 10712 10709 ] final   10.39 input   66.30 | X-H torsion
[ 10763 10752 10751 10750 ] final  119.39 input  -60.55 | X-H torsion
[ 11005 11000 10999 10996 ] final   33.76 input  -57.11 | X-H torsion

> <Gold.Protein.ActiveResidues>
 VAL166  LYS551  ARG553  GLY616  TRP617  ASP618  TYR619  PRO620  LYS621  CYS622 
 ASP623  PHE694  ASN695  SER759  ASP760  ASP761  ALA762  ILE779  LEU786  VAL792 
 PHE793  MET794  SER795  GLU796  ALA797  LYS798  CYS799  TRP800  GLU811  SER814 

> <Gold.Protein.RotatedAtoms>
  150.7703  133.9207  159.3396 H   0  0  0  0  0  0  0  0  0  0  0  0  # atno 6907 bound_to 6896
  151.7095  135.0913  160.0274 H   0  0  0  0  0  0  0  0  0  0  0  0  # atno 6908 bound_to 6896
  152.3718  133.6391  159.6128 H   0  0  0  0  0  0  0  0  0  0  0  0  # atno 6909 bound_to 6896
  144.7496  139.8493  143.6370 H   0  0  0  0  0  0  0  0  0  0  0  0  # atno 7974 bound_to 7965
  155.4509  140.0538  157.3001 H   0  0  0  0  0  0  0  0  0  0  0  0  # atno 8008 bound_to 7997
  154.4777  140.2068  155.9793 H   0  0  0  0  0  0  0  0  0  0  0  0  # atno 8009 bound_to 7997
  156.1158  140.3196  155.8142 H   0  0  0  0  0  0  0  0  0  0  0  0  # atno 8010 bound_to 7997
  140.4301  144.1337  150.6158 H   0  0  0  0  0  0  0  0  0  0  0  0  # atno 10167 bound_to 10162
  156.9803  130.6003  149.5676 H   0  0  0  0  0  0  0  0  0  0  0  0  # atno 10718 bound_to 10713
  153.5823  135.3481  155.2879 H   0  0  0  0  0  0  0  0  0  0  0  0  # atno 10763 bound_to 10752
  154.8666  135.4185  154.2607 H   0  0  0  0  0  0  0  0  0  0  0  0  # atno 10764 bound_to 10752
  153.3396  135.7049  153.6949 H   0  0  0  0  0  0  0  0  0  0  0  0  # atno 10765 bound_to 10752
  140.2598  134.3205  155.7861 H   0  0  0  0  0  0  0  0  0  0  0  0  # atno 11005 bound_to 11000
  146.1427  139.4489  143.0098 LP  0  0  0  0  0  0  0  0  0  0  0  0  # atno 17320 bound_to 7965
  145.6992  141.0141  143.1513 LP  0  0  0  0  0  0  0  0  0  0  0  0  # atno 17321 bound_to 7965
  140.4437  143.2516  151.9440 LP  0  0  0  0  0  0  0  0  0  0  0  0  # atno 17342 bound_to 10162
  139.4784  144.5630  151.8209 LP  0  0  0  0  0  0  0  0  0  0  0  0  # atno 17343 bound_to 10162
  156.0247  130.5341  150.8374 LP  0  0  0  0  0  0  0  0  0  0  0  0  # atno 17370 bound_to 10713
  157.5531  131.0944  150.9667 LP  0  0  0  0  0  0  0  0  0  0  0  0  # atno 17371 bound_to 10713
  141.2191  133.7403  156.9169 LP  0  0  0  0  0  0  0  0  0  0  0  0  # atno 17394 bound_to 11000
  140.1475  134.9252  157.2549 LP  0  0  0  0  0  0  0  0  0  0  0  0  # atno 17395 bound_to 11000

$$$$
