AV-unprocessed.smi:3149|AV-procd|sdf|12004|dock1
  -GOLD-   2272017413D 1   1.00000     0.00000
 Structure written by MMmdl.
 37 38  0  0  0  0  0  0  0  0  1 V2000
  148.3400  140.1183  157.2201 C   0  0  0  0  0  0  0  0  0  0  0  0
  149.4048  141.2201  157.0262 C   0  0  1  0  0  0  0  0  0  0  0  0
  150.4619  141.0463  158.0192 N   0  0  0  0  0  0  0  0  0  0  0  0
  151.4623  142.1204  157.9964 C   0  0  0  0  0  0  0  0  0  0  0  0
  152.0932  142.3191  159.3768 C   0  0  0  0  0  0  0  0  0  0  0  0
  152.3659  141.3441  160.0770 O   0  0  0  0  0  0  0  0  0  0  0  0
  152.4263  143.6205  159.7623 N   0  0  0  0  0  0  0  0  0  0  0  0
  151.7172  144.7697  159.2205 C   0  0  0  0  0  0  0  0  0  0  0  0
  152.0446  145.4591  160.5492 C   0  0  0  0  0  0  0  0  0  0  0  0
  152.3000  144.0690  161.1411 C   0  0  0  0  0  0  0  0  0  0  0  0
  150.0580  141.1980  155.6166 C   0  0  2  0  0  0  0  0  0  0  0  0
  149.0413  141.4652  154.4887 C   0  0  0  0  0  0  0  0  0  0  0  0
  150.7717  139.9527  155.3592 N   0  0  0  0  0  0  0  0  0  0  0  0
  150.6020  139.0747  154.3084 C   0  0  0  0  0  0  0  0  0  0  0  0
  151.4915  138.0532  154.4810 C   0  0  0  0  0  0  0  0  0  0  0  0
  152.1714  138.3964  155.6825 C   0  0  0  0  0  0  0  0  0  0  0  0
  151.7392  139.5317  156.2061 N   0  0  0  0  0  0  0  0  0  0  0  0
  147.5097  140.2350  156.5238 H   0  0  0  0  0  0  0  0  0  0  0  0
  147.9052  140.1394  158.2188 H   0  0  0  0  0  0  0  0  0  0  0  0
  148.7646  139.1262  157.0636 H   0  0  0  0  0  0  0  0  0  0  0  0
  148.9311  142.1939  157.1632 H   0  0  0  0  0  0  0  0  0  0  0  0
  150.0547  140.9318  158.9366 H   0  0  0  0  0  0  0  0  0  0  0  0
  152.2390  141.8999  157.2627 H   0  0  0  0  0  0  0  0  0  0  0  0
  150.9994  143.0596  157.6952 H   0  0  0  0  0  0  0  0  0  0  0  0
  152.1944  145.2133  158.3462 H   0  0  0  0  0  0  0  0  0  0  0  0
  150.6485  144.5969  159.0777 H   0  0  0  0  0  0  0  0  0  0  0  0
  152.9401  146.0816  160.5044 H   0  0  0  0  0  0  0  0  0  0  0  0
  151.2042  145.9896  160.9978 H   0  0  0  0  0  0  0  0  0  0  0  0
  151.4307  143.6591  161.6584 H   0  0  0  0  0  0  0  0  0  0  0  0
  153.2177  143.9841  161.7237 H   0  0  0  0  0  0  0  0  0  0  0  0
  150.8056  141.9925  155.5780 H   0  0  0  0  0  0  0  0  0  0  0  0
  148.5984  142.4571  154.5762 H   0  0  0  0  0  0  0  0  0  0  0  0
  148.2282  140.7387  154.5017 H   0  0  0  0  0  0  0  0  0  0  0  0
  149.5199  141.4111  153.5103 H   0  0  0  0  0  0  0  0  0  0  0  0
  149.8712  139.2486  153.5324 H   0  0  0  0  0  0  0  0  0  0  0  0
  151.6347  137.1919  153.8456 H   0  0  0  0  0  0  0  0  0  0  0  0
  152.9609  137.8581  156.1863 H   0  0  0  0  0  0  0  0  0  0  0  0
  1  2  1  0  0  0  0
  1 18  1  0  0  0  0
  1 19  1  0  0  0  0
  1 20  1  0  0  0  0
  2  3  1  0  0  0  0
  2 11  1  0  0  0  0
  2 21  1  0  0  0  0
  3  4  1  0  0  0  0
  3 22  1  0  0  0  0
  4  5  1  0  0  0  0
  4 23  1  0  0  0  0
  4 24  1  0  0  0  0
  5  6  2  0  0  0  0
  5  7  1  0  0  0  0
  7 10  1  0  0  0  0
  7  8  1  0  0  0  0
  8  9  1  0  0  0  0
  8 25  1  0  0  0  0
  8 26  1  0  0  0  0
  9 10  1  0  0  0  0
  9 27  1  0  0  0  0
  9 28  1  0  0  0  0
 10 29  1  0  0  0  0
 10 30  1  0  0  0  0
 11 12  1  0  0  0  0
 11 13  1  0  0  0  0
 11 31  1  0  0  0  0
 12 32  1  0  0  0  0
 12 33  1  0  0  0  0
 12 34  1  0  0  0  0
 13 17  1  0  0  0  0
 13 14  1  0  0  0  0
 14 15  2  0  0  0  0
 14 35  1  0  0  0  0
 15 16  1  0  0  0  0
 15 36  1  0  0  0  0
 16 17  2  0  0  0  0
 16 37  1  0  0  0  0
M  END
> <s_m_source_file>
AV-unprocessed.smi

> <i_m_source_file_index>
3149

> <i_lp_mmshare_version>
43012

> <i_f3d_flags>
0

> <s_epik_input>
bjFbY0hdW2NIXVtjSF1uMVtDQEBIXShbQ0gzXSlbQ0BIXShbQ0gzXSlbTkhdW0NIMl1DKD1PKU4yW0NIMl1bQ0gyXVtDSDJdMg==

> <s_epik_cmdline>
J2VwaWtfcHl0aG9uJywgJy1waCcsICc3LjAnLCAnLXRuJywgJzgnLCAnLW1hJywgJzIwMCcsICctbWV0YWxfYmluZGluZycsICctaW1hZScsICc8aW5maWxlLm1hZT4nLCAnLW9tYWUnLCAnPG91dGZpbGUubWFlPic=

> <r_lp_tautomer_probability>
1

> <r_epik_Ionization_Penalty>
0.918674

> <r_epik_Ionization_Penalty_Charging>
0

> <r_epik_Ionization_Penalty_Neutral>
0.918674

> <r_epik_State_Penalty>
0.958258

> <r_epik_Charging_Adjusted_Penalty>
0.958258

> <i_epik_Tot_Q>
0

> <i_epik_Tot_abs_Q>
0

> <r_epik_Metal_State_Penalty>
0.956881

> <b_epik_Metal_Only>
0

> <s_lp_Force_Field>
OPLS_2005

> <r_lp_Energy>
23.4298

> <b_lp_Chiralities_Consistent>
1

> <s_lp_Variant>
AV-unprocessed.smi:3149-6

> <Gold.Version>
5.8.1

> <Gold.Id.Protein>
6NUR|6NUR_protein|mol2

> <Gold.PLP.Fitness>
43.7424

> <Gold.PLP.PLP>
-41.6783

> <Gold.PLP.part.hbond>
0.0000

> <Gold.PLP.part.metal>
0.0000

> <Gold.PLP.part.buried>
-4.7036

> <Gold.PLP.part.nonpolar>
-36.5393

> <Gold.PLP.part.repulsive>
0.0000

> <Gold.PLP.ligand.clash>
0.0000

> <Gold.PLP.ligand.torsion>
0.9355

> <Gold.PLP.Chemscore.Hbond>
0.0000

> <Gold.PLP.Chemscore.CHOScore>
1.0000

> <Gold.PLP.Chemscore.Metal>
0.0000

> <Gold.Chemscore.Hbonds>
donor molecule, donor type, donor heavy atom, donor atom, acceptor molecule, acceptor atom, score
      L1  C    14    35       P1  7957  1.00

> <Gold.PLP.Chemscore.Internal.Correction>
0.9351

> <Gold.Rescore>
     Score         DG    S(hbond)    S(metal)    S(lipo)     H(rot)  DE(clash)    DE(int)     intcor
      9.19     -11.46       0.00        0.00      90.22       1.79       0.08       2.19       ----

> <Gold.Chemscore.Fitness>
9.1947

> <Gold.Chemscore.DG>
-11.4600

> <Gold.Chemscore.ZeroCoef>
-5.4800

> <Gold.Chemscore.Hbond>
0.0000

> <Gold.Chemscore.Metal>
0.0000

> <Gold.Chemscore.Lipo>
90.2208

> <Gold.Chemscore.Internal_Hbond>
0.0000

> <Gold.Chemscore.DEClash>
0.0770

> <Gold.Chemscore.DEInternal>
2.1883

> <Gold.Chemscore.Rot>
1.7874

> <Gold.Chemscore.Internal.Correction>
   9.000000E+99

> <Gold.Chemscore.Hbond.Weighted>
-0.0000

> <Gold.Chemscore.Metal.Weighted>
-0.0000

> <Gold.Chemscore.Lipo.Weighted>
-10.5558

> <Gold.Chemscore.Internal_Hbond.Weighted>
0.0000

> <Gold.Chemscore.DEClash.Weighted>
0.0770

> <Gold.Chemscore.DEInternal.Weighted>
2.1883

> <Gold.Chemscore.Rot.Weighted>
4.5758

> <Gold.Chemscore.Internal.Correction.Weighted>
   9.000000E+99

> <Gold.Protein.RotatedTorsions>
[ 6907 6896 6895 6894 ] final   79.69 input  -60.11 | X-H torsion
[ 7974 7965 7964 7962 ] final -125.74 input  175.53 | X-H torsion
[ 8008 7997 7996 7995 ] final  -53.53 input   59.86 | X-H torsion
[ 10167 10162 10161 10158 ] final  -29.87 input  -65.29 | X-H torsion
[ 10718 10713 10712 10709 ] final -102.52 input   66.30 | X-H torsion
[ 10763 10752 10751 10750 ] final -115.61 input  -60.55 | X-H torsion
[ 11005 11000 10999 10996 ] final  172.05 input  -57.11 | X-H torsion

> <Gold.Protein.ActiveResidues>
 VAL166  LYS551  ARG553  GLY616  TRP617  ASP618  TYR619  PRO620  LYS621  CYS622 
 ASP623  PHE694  ASN695  SER759  ASP760  ASP761  ALA762  ILE779  LEU786  VAL792 
 PHE793  MET794  SER795  GLU796  ALA797  LYS798  CYS799  TRP800  GLU811  SER814 

> <Gold.Protein.RotatedAtoms>
  152.5208  134.3472  159.9237 H   0  0  0  0  0  0  0  0  0  0  0  0  # atno 6907 bound_to 6896
  151.3422  133.3951  159.2680 H   0  0  0  0  0  0  0  0  0  0  0  0  # atno 6908 bound_to 6896
  150.9794  134.9170  159.7893 H   0  0  0  0  0  0  0  0  0  0  0  0  # atno 6909 bound_to 6896
  144.9944  140.7762  143.4534 H   0  0  0  0  0  0  0  0  0  0  0  0  # atno 7974 bound_to 7965
  154.4136  140.1198  156.5169 H   0  0  0  0  0  0  0  0  0  0  0  0  # atno 8008 bound_to 7997
  155.6742  140.3496  155.4811 H   0  0  0  0  0  0  0  0  0  0  0  0  # atno 8009 bound_to 7997
  155.9607  140.1122  157.0888 H   0  0  0  0  0  0  0  0  0  0  0  0  # atno 8010 bound_to 7997
  140.7256  143.3893  151.1458 H   0  0  0  0  0  0  0  0  0  0  0  0  # atno 10167 bound_to 10162
  156.0232  130.5424  150.7120 H   0  0  0  0  0  0  0  0  0  0  0  0  # atno 10718 bound_to 10713
  154.8488  135.4375  154.1691 H   0  0  0  0  0  0  0  0  0  0  0  0  # atno 10763 bound_to 10752
  153.2809  135.6953  153.7393 H   0  0  0  0  0  0  0  0  0  0  0  0  # atno 10764 bound_to 10752
  153.6597  135.3437  155.3098 H   0  0  0  0  0  0  0  0  0  0  0  0  # atno 10765 bound_to 10752
  140.3256  134.7401  157.4096 H   0  0  0  0  0  0  0  0  0  0  0  0  # atno 11005 bound_to 11000
  145.2240  139.2146  143.5078 LP  0  0  0  0  0  0  0  0  0  0  0  0  # atno 17320 bound_to 7965
  146.3438  140.2104  142.8590 LP  0  0  0  0  0  0  0  0  0  0  0  0  # atno 17321 bound_to 7965
  139.7496  143.8799  152.3073 LP  0  0  0  0  0  0  0  0  0  0  0  0  # atno 17342 bound_to 10162
  139.8648  144.7098  150.9057 LP  0  0  0  0  0  0  0  0  0  0  0  0  # atno 17343 bound_to 10162
  157.4756  131.0897  151.0593 LP  0  0  0  0  0  0  0  0  0  0  0  0  # atno 17370 bound_to 10713
  157.1041  130.5994  149.5467 LP  0  0  0  0  0  0  0  0  0  0  0  0  # atno 17371 bound_to 10713
  140.0904  134.5608  155.8450 LP  0  0  0  0  0  0  0  0  0  0  0  0  # atno 17394 bound_to 11000
  141.2076  133.6666  156.6316 LP  0  0  0  0  0  0  0  0  0  0  0  0  # atno 17395 bound_to 11000

$$$$
