AV-unprocessed.smi:1026|AV-procd|sdf|4468|dock8
  -GOLD-   22720 2443D 1   1.00000     0.00000
 Structure written by MMmdl.
 40 41  0  0  0  0  0  0  0  0  1 V2000
  143.1661  136.6763  152.9492 C   0  0  0  0  0  0  0  0  0  0  0  0
  144.6449  136.2995  153.0887 C   0  0  0  0  0  0  0  0  0  0  0  0
  145.5588  137.4147  152.7042 C   0  0  0  0  0  0  0  0  0  0  0  0
  145.8552  138.4348  153.5135 N   0  0  0  0  0  0  0  0  0  0  0  0
  146.7046  139.3702  152.9143 C   0  0  0  0  0  0  0  0  0  0  0  0
  147.1469  140.5772  153.6846 C   0  0  0  0  0  0  0  0  0  0  0  0
  148.6531  140.5521  153.9933 C   0  0  0  0  0  0  0  0  0  0  0  0
  149.0229  141.5986  154.9390 N   0  0  0  0  0  0  0  0  0  0  0  0
  150.1570  141.6200  155.6598 C   0  0  0  0  0  0  0  0  0  0  0  0
  151.0223  140.7498  155.5853 O   0  0  0  0  0  0  0  0  0  0  0  0
  150.2864  142.6775  156.4814 N   0  0  0  0  0  0  0  0  0  0  0  0
  151.3876  142.9989  157.3921 C   0  0  0  0  0  0  0  0  0  0  0  0
  151.5018  141.9293  158.4991 C   0  0  0  0  0  0  0  0  0  0  0  0
  152.6787  142.1911  159.4504 C   0  0  0  0  0  0  0  0  0  0  0  0
  152.4794  143.7649  160.3293 S   0  0  0  0  0  0  0  0  0  0  0  0
  152.3107  144.8561  158.8911 C   0  0  0  0  0  0  0  0  0  0  0  0
  151.1591  144.4042  157.9812 C   0  0  0  0  0  0  0  0  0  0  0  0
  147.0427  139.0451  151.6243 C   0  0  0  0  0  0  0  0  0  0  0  0
  146.3002  137.5535  151.1141 S   0  0  0  0  0  0  0  0  0  0  0  0
  142.5243  135.8444  153.2397 H   0  0  0  0  0  0  0  0  0  0  0  0
  142.9231  136.9417  151.9200 H   0  0  0  0  0  0  0  0  0  0  0  0
  142.9159  137.5273  153.5835 H   0  0  0  0  0  0  0  0  0  0  0  0
  144.8591  136.0067  154.1172 H   0  0  0  0  0  0  0  0  0  0  0  0
  144.8687  135.4339  152.4646 H   0  0  0  0  0  0  0  0  0  0  0  0
  146.9071  141.4825  153.1258 H   0  0  0  0  0  0  0  0  0  0  0  0
  146.5818  140.6439  154.6151 H   0  0  0  0  0  0  0  0  0  0  0  0
  148.9497  139.5760  154.3815 H   0  0  0  0  0  0  0  0  0  0  0  0
  149.2224  140.7069  153.0764 H   0  0  0  0  0  0  0  0  0  0  0  0
  148.3689  142.3581  155.0596 H   0  0  0  0  0  0  0  0  0  0  0  0
  149.5324  143.3491  156.4600 H   0  0  0  0  0  0  0  0  0  0  0  0
  152.3218  143.0291  156.8283 H   0  0  0  0  0  0  0  0  0  0  0  0
  150.5734  141.8826  159.0700 H   0  0  0  0  0  0  0  0  0  0  0  0
  151.6306  140.9441  158.0495 H   0  0  0  0  0  0  0  0  0  0  0  0
  152.7542  141.3900  160.1856 H   0  0  0  0  0  0  0  0  0  0  0  0
  153.6185  142.2080  158.8978 H   0  0  0  0  0  0  0  0  0  0  0  0
  152.1353  145.8727  159.2438 H   0  0  0  0  0  0  0  0  0  0  0  0
  153.2514  144.8669  158.3397 H   0  0  0  0  0  0  0  0  0  0  0  0
  151.0512  145.1246  157.1693 H   0  0  0  0  0  0  0  0  0  0  0  0
  150.2213  144.4299  158.5381 H   0  0  0  0  0  0  0  0  0  0  0  0
  147.6782  139.5924  150.9439 H   0  0  0  0  0  0  0  0  0  0  0  0
  1  2  1  0  0  0  0
  1 20  1  0  0  0  0
  1 21  1  0  0  0  0
  1 22  1  0  0  0  0
  2  3  1  0  0  0  0
  2 23  1  0  0  0  0
  2 24  1  0  0  0  0
  3 19  1  0  0  0  0
  3  4  2  0  0  0  0
  4  5  1  0  0  0  0
  5  6  1  0  0  0  0
  5 18  2  0  0  0  0
  6  7  1  0  0  0  0
  6 25  1  0  0  0  0
  6 26  1  0  0  0  0
  7  8  1  0  0  0  0
  7 27  1  0  0  0  0
  7 28  1  0  0  0  0
  8  9  1  0  0  0  0
  8 29  1  0  0  0  0
  9 10  2  0  0  0  0
  9 11  1  0  0  0  0
 11 12  1  0  0  0  0
 11 30  1  0  0  0  0
 12 17  1  0  0  0  0
 12 13  1  0  0  0  0
 12 31  1  0  0  0  0
 13 14  1  0  0  0  0
 13 32  1  0  0  0  0
 13 33  1  0  0  0  0
 14 15  1  0  0  0  0
 14 34  1  0  0  0  0
 14 35  1  0  0  0  0
 15 16  1  0  0  0  0
 16 17  1  0  0  0  0
 16 36  1  0  0  0  0
 16 37  1  0  0  0  0
 17 38  1  0  0  0  0
 17 39  1  0  0  0  0
 18 19  1  0  0  0  0
 18 40  1  0  0  0  0
M  END
> <s_m_source_file>
AV-unprocessed.smi

> <i_m_source_file_index>
1026

> <i_lp_mmshare_version>
43012

> <i_f3d_flags>
0

> <s_epik_input>
W0NIM11bQ0gyXWMxbmMoW2NIXXMxKVtDSDJdW0NIMl1bTkhdQyg9TylbTkhdW0NIXTJbQ0gyXVtDSDJdU1tDSDJdW0NIMl0y

> <s_epik_cmdline>
J2VwaWtfcHl0aG9uJywgJy1waCcsICc3LjAnLCAnLXRuJywgJzgnLCAnLW1hJywgJzIwMCcsICctbWV0YWxfYmluZGluZycsICctaW1hZScsICc8aW5maWxlLm1hZT4nLCAnLW9tYWUnLCAnPG91dGZpbGUubWFlPic=

> <r_epik_Ionization_Penalty>
0.00199316

> <r_epik_Ionization_Penalty_Charging>
0

> <r_epik_Ionization_Penalty_Neutral>
0.00199316

> <r_epik_State_Penalty>
0.00132065

> <r_epik_Charging_Adjusted_Penalty>
0.00132065

> <i_epik_Tot_Q>
0

> <i_epik_Tot_abs_Q>
0

> <r_epik_Metal_State_Penalty>
-0

> <b_epik_Metal_Only>
0

> <s_lp_Force_Field>
OPLS_2005

> <r_lp_Energy>
4.0728

> <b_lp_Chiralities_Consistent>
1

> <s_lp_Variant>
AV-unprocessed.smi:1026-1

> <Gold.Version>
5.8.1

> <Gold.Id.Protein>
6NUR|6NUR_protein|mol2

> <Gold.PLP.Fitness>
45.8849

> <Gold.PLP.PLP>
-39.0732

> <Gold.PLP.part.hbond>
-2.3417

> <Gold.PLP.part.metal>
0.0000

> <Gold.PLP.part.buried>
3.0199

> <Gold.PLP.part.nonpolar>
-40.7048

> <Gold.PLP.part.repulsive>
0.5302

> <Gold.PLP.ligand.clash>
0.0000

> <Gold.PLP.ligand.torsion>
0.5465

> <Gold.PLP.Chemscore.Hbond>
1.6716

> <Gold.PLP.Chemscore.CHOScore>
0.9537

> <Gold.PLP.Chemscore.Metal>
0.0000

> <Gold.Chemscore.Hbonds>
donor molecule, donor type, donor heavy atom, donor atom, acceptor molecule, acceptor atom, score
      L1  H    11    30       P1  8028  0.91
      P1  H  7989  7998       L1    10  0.52
      L1  C    18    40       P1  7957  0.75

> <Gold.PLP.Chemscore.Internal.Correction>
0.0287

> <Gold.Rescore>
     Score         DG    S(hbond)    S(metal)    S(lipo)     H(rot)  DE(clash)    DE(int)     intcor
     18.04     -20.39       1.43        0.00     121.25       1.58       1.52       0.83       ----

> <Gold.Chemscore.Fitness>
18.0381

> <Gold.Chemscore.DG>
-20.3927

> <Gold.Chemscore.ZeroCoef>
-5.4800

> <Gold.Chemscore.Hbond>
1.4259

> <Gold.Chemscore.Metal>
0.0000

> <Gold.Chemscore.Lipo>
121.2548

> <Gold.Chemscore.Internal_Hbond>
0.0000

> <Gold.Chemscore.DEClash>
1.5206

> <Gold.Chemscore.DEInternal>
0.8340

> <Gold.Chemscore.Rot>
1.5768

> <Gold.Chemscore.Internal.Correction>
   9.000000E+99

> <Gold.Chemscore.Hbonds>
donor molecule, donor type, donor heavy atom, donor atom, acceptor molecule, acceptor atom, score
      L1  H     8    29       P1  8028  0.01
      L1  H    11    30       P1  8028  0.90
      P1  H  7989  7998       L1    10  0.18

> <Gold.Chemscore.Hbond.Weighted>
-4.7626

> <Gold.Chemscore.Metal.Weighted>
-0.0000

> <Gold.Chemscore.Lipo.Weighted>
-14.1868

> <Gold.Chemscore.Internal_Hbond.Weighted>
0.0000

> <Gold.Chemscore.DEClash.Weighted>
1.5206

> <Gold.Chemscore.DEInternal.Weighted>
0.8340

> <Gold.Chemscore.Rot.Weighted>
4.0367

> <Gold.Chemscore.Internal.Correction.Weighted>
   9.000000E+99

> <Gold.Protein.RotatedTorsions>
[ 6907 6896 6895 6894 ] final   -6.82 input  -60.11 | X-H torsion
[ 7974 7965 7964 7962 ] final   99.97 input  175.53 | X-H torsion
[ 8008 7997 7996 7995 ] final  156.92 input   59.86 | X-H torsion
[ 10167 10162 10161 10158 ] final  155.16 input  -65.29 | X-H torsion
[ 10718 10713 10712 10709 ] final  -52.31 input   66.30 | X-H torsion
[ 10763 10752 10751 10750 ] final  -70.67 input  -60.55 | X-H torsion
[ 11005 11000 10999 10996 ] final  -29.86 input  -57.11 | X-H torsion

> <Gold.Protein.ActiveResidues>
 VAL166  LYS551  ARG553  GLY616  TRP617  ASP618  TYR619  PRO620  LYS621  CYS622 
 ASP623  PHE694  ASN695  SER759  ASP760  ASP761  ALA762  ILE779  LEU786  VAL792 
 PHE793  MET794  SER795  GLU796  ALA797  LYS798  CYS799  TRP800  GLU811  SER814 

> <Gold.Protein.RotatedAtoms>
  151.4594  135.1037  159.9720 H   0  0  0  0  0  0  0  0  0  0  0  0  # atno 6907 bound_to 6896
  152.4858  133.8366  159.7141 H   0  0  0  0  0  0  0  0  0  0  0  0  # atno 6908 bound_to 6896
  150.8967  133.7111  159.2917 H   0  0  0  0  0  0  0  0  0  0  0  0  # atno 6909 bound_to 6896
  145.3918  139.2362  143.3348 H   0  0  0  0  0  0  0  0  0  0  0  0  # atno 7974 bound_to 7965
  156.2394  140.1899  156.7029 H   0  0  0  0  0  0  0  0  0  0  0  0  # atno 8008 bound_to 7997
  154.6168  140.0614  156.9592 H   0  0  0  0  0  0  0  0  0  0  0  0  # atno 8009 bound_to 7997
  155.1926  140.3285  155.4359 H   0  0  0  0  0  0  0  0  0  0  0  0  # atno 8010 bound_to 7997
  139.4822  144.5123  151.8006 H   0  0  0  0  0  0  0  0  0  0  0  0  # atno 10167 bound_to 10162
  156.1633  130.4149  149.9760 H   0  0  0  0  0  0  0  0  0  0  0  0  # atno 10718 bound_to 10713
  154.4209  135.5987  153.6009 H   0  0  0  0  0  0  0  0  0  0  0  0  # atno 10763 bound_to 10752
  152.9794  135.5952  154.3956 H   0  0  0  0  0  0  0  0  0  0  0  0  # atno 10764 bound_to 10752
  154.3781  135.2841  155.2205 H   0  0  0  0  0  0  0  0  0  0  0  0  # atno 10765 bound_to 10752
  140.9333  133.7324  156.0968 H   0  0  0  0  0  0  0  0  0  0  0  0  # atno 11005 bound_to 11000
  146.2794  140.4602  142.8782 LP  0  0  0  0  0  0  0  0  0  0  0  0  # atno 17320 bound_to 7965
  144.8435  140.6893  143.6214 LP  0  0  0  0  0  0  0  0  0  0  0  0  # atno 17321 bound_to 7965
  140.4627  144.1699  150.5908 LP  0  0  0  0  0  0  0  0  0  0  0  0  # atno 17342 bound_to 10162
  140.4467  143.2503  151.9402 LP  0  0  0  0  0  0  0  0  0  0  0  0  # atno 17343 bound_to 10162
  156.7582  130.9141  151.3640 LP  0  0  0  0  0  0  0  0  0  0  0  0  # atno 17370 bound_to 10713
  157.6749  130.9085  150.0126 LP  0  0  0  0  0  0  0  0  0  0  0  0  # atno 17371 bound_to 10713
  140.7833  134.3700  157.5482 LP  0  0  0  0  0  0  0  0  0  0  0  0  # atno 17394 bound_to 11000
  139.8801  134.9095  156.2992 LP  0  0  0  0  0  0  0  0  0  0  0  0  # atno 17395 bound_to 11000

$$$$
