AV-unprocessed.smi:2772|AV-procd|sdf|10667|dock5
  -GOLD-   2272015113D 1   1.00000     0.00000
 Structure written by MMmdl.
 55 57  0  0  0  0  0  0  0  0  3 V2000
  151.1263  144.7116  158.7622 C   0  0  0  0  0  0  0  0  0  0  0  0
  151.7801  143.4034  159.1547 C   0  0  0  0  0  0  0  0  0  0  0  0
  152.9627  143.3858  159.9220 C   0  0  0  0  0  0  0  0  0  0  0  0
  153.5246  142.1406  160.2641 C   0  0  0  0  0  0  0  0  0  0  0  0
  152.8785  140.9566  159.8336 C   0  0  0  0  0  0  0  0  0  0  0  0
  153.3506  139.6436  160.1048 N   0  0  0  0  0  0  0  0  0  0  0  0
  154.2270  139.2496  161.0449 C   0  0  0  0  0  0  0  0  0  0  0  0
  154.7868  139.9901  161.8529 O   0  0  0  0  0  0  0  0  0  0  0  0
  154.4094  137.9211  161.0154 N   0  0  0  0  0  0  0  0  0  0  0  0
  155.2877  137.1769  161.9143 C   0  0  2  0  0  0  0  0  0  0  0  0
  155.6051  135.7946  161.3155 C   0  0  0  0  0  0  0  0  0  0  0  0
  156.4248  134.9379  162.3008 C   0  0  0  0  0  0  0  0  0  0  0  0
  155.7321  134.7770  163.6122 N   0  3  2  0  0  0  0  0  0  0  0  0
  154.5313  133.8693  163.5971 C   0  0  2  0  0  0  0  0  0  0  0  0
  153.9802  133.5441  165.0072 C   0  0  0  0  0  0  0  0  0  0  0  0
  154.9588  132.6766  165.8206 C   0  0  0  0  0  0  0  0  0  0  0  0
  155.2604  131.4083  165.1107 N   0  3  2  0  0  0  0  0  0  0  0  0
  156.1333  130.5128  165.9001 C   0  0  0  0  0  0  0  0  0  0  0  0
  155.7782  131.6390  163.7386 C   0  0  0  0  0  0  0  0  0  0  0  0
  154.8038  132.5047  162.9182 C   0  0  0  0  0  0  0  0  0  0  0  0
  155.5119  136.1232  164.2149 C   0  0  0  0  0  0  0  0  0  0  0  0
  154.6488  137.0229  163.3099 C   0  0  0  0  0  0  0  0  0  0  0  0
  151.7102  141.0921  159.0543 C   0  0  0  0  0  0  0  0  0  0  0  0
  151.1645  142.2817  158.7229 N   0  0  0  0  0  0  0  0  0  0  0  0
  151.6562  145.5629  159.1901 H   0  0  0  0  0  0  0  0  0  0  0  0
  150.0953  144.7415  159.1159 H   0  0  0  0  0  0  0  0  0  0  0  0
  151.1219  144.8229  157.6778 H   0  0  0  0  0  0  0  0  0  0  0  0
  153.4338  144.3041  160.2410 H   0  0  0  0  0  0  0  0  0  0  0  0
  154.4395  142.1211  160.8353 H   0  0  0  0  0  0  0  0  0  0  0  0
  152.9152  138.9097  159.5654 H   0  0  0  0  0  0  0  0  0  0  0  0
  153.9076  137.3890  160.3194 H   0  0  0  0  0  0  0  0  0  0  0  0
  156.2287  137.7210  162.0183 H   0  0  0  0  0  0  0  0  0  0  0  0
  154.6835  135.2773  161.0471 H   0  0  0  0  0  0  0  0  0  0  0  0
  156.1641  135.9158  160.3869 H   0  0  0  0  0  0  0  0  0  0  0  0
  156.6932  133.9830  161.8550 H   0  0  0  0  0  0  0  0  0  0  0  0
  157.3803  135.4321  162.4838 H   0  0  0  0  0  0  0  0  0  0  0  0
  153.7378  134.3672  163.0406 H   0  0  0  0  0  0  0  0  0  0  0  0
  153.6983  134.4375  165.5616 H   0  0  0  0  0  0  0  0  0  0  0  0
  153.0452  132.9925  164.8969 H   0  0  0  0  0  0  0  0  0  0  0  0
  155.8837  133.2228  166.0121 H   0  0  0  0  0  0  0  0  0  0  0  0
  154.5201  132.4492  166.7930 H   0  0  0  0  0  0  0  0  0  0  0  0
  157.1147  130.9615  166.0590 H   0  0  0  0  0  0  0  0  0  0  0  0
  156.2715  129.5598  165.3882 H   0  0  0  0  0  0  0  0  0  0  0  0
  155.6907  130.3040  166.8747 H   0  0  0  0  0  0  0  0  0  0  0  0
  156.7595  132.1135  163.7881 H   0  0  0  0  0  0  0  0  0  0  0  0
  155.9176  130.6788  163.2403 H   0  0  0  0  0  0  0  0  0  0  0  0
  153.8596  131.9657  162.8279 H   0  0  0  0  0  0  0  0  0  0  0  0
  155.1508  132.6105  161.8925 H   0  0  0  0  0  0  0  0  0  0  0  0
  155.0982  136.0652  165.2190 H   0  0  0  0  0  0  0  0  0  0  0  0
  156.4860  136.5951  164.3506 H   0  0  0  0  0  0  0  0  0  0  0  0
  154.5357  138.0014  163.7780 H   0  0  0  0  0  0  0  0  0  0  0  0
  153.6424  136.6119  163.2227 H   0  0  0  0  0  0  0  0  0  0  0  0
  151.1897  140.2184  158.6900 H   0  0  0  0  0  0  0  0  0  0  0  0
  156.4001  134.3200  164.2163 H   0  0  0  0  0  0  0  0  0  0  0  0
  154.3799  130.9237  165.0055 H   0  0  0  0  0  0  0  0  0  0  0  0
  1  2  1  0  0  0  0
  1 25  1  0  0  0  0
  1 26  1  0  0  0  0
  1 27  1  0  0  0  0
  2 24  1  0  0  0  0
  2  3  2  0  0  0  0
  3  4  1  0  0  0  0
  3 28  1  0  0  0  0
  4  5  2  0  0  0  0
  4 29  1  0  0  0  0
  5  6  1  0  0  0  0
  5 23  1  0  0  0  0
  6  7  1  0  0  0  0
  6 30  1  0  0  0  0
  7  8  2  0  0  0  0
  7  9  1  0  0  0  0
  9 10  1  0  0  0  0
  9 31  1  0  0  0  0
 10 22  1  0  0  0  0
 10 11  1  0  0  0  0
 10 32  1  0  0  0  0
 11 12  1  0  0  0  0
 11 33  1  0  0  0  0
 11 34  1  0  0  0  0
 12 13  1  0  0  0  0
 12 35  1  0  0  0  0
 12 36  1  0  0  0  0
 13 14  1  0  0  0  0
 13 21  1  0  0  0  0
 13 54  1  0  0  0  0
 14 20  1  0  0  0  0
 14 15  1  0  0  0  0
 14 37  1  0  0  0  0
 15 16  1  0  0  0  0
 15 38  1  0  0  0  0
 15 39  1  0  0  0  0
 16 17  1  0  0  0  0
 16 40  1  0  0  0  0
 16 41  1  0  0  0  0
 17 18  1  0  0  0  0
 17 19  1  0  0  0  0
 17 55  1  0  0  0  0
 18 42  1  0  0  0  0
 18 43  1  0  0  0  0
 18 44  1  0  0  0  0
 19 20  1  0  0  0  0
 19 45  1  0  0  0  0
 19 46  1  0  0  0  0
 20 47  1  0  0  0  0
 20 48  1  0  0  0  0
 21 22  1  0  0  0  0
 21 49  1  0  0  0  0
 21 50  1  0  0  0  0
 22 51  1  0  0  0  0
 22 52  1  0  0  0  0
 23 24  2  0  0  0  0
 23 53  1  0  0  0  0
M  CHG  1  13   1
M  CHG  1  17   1
M  END
> <s_m_source_file>
AV-unprocessed.smi

> <i_m_source_file_index>
2772

> <i_lp_mmshare_version>
43012

> <i_f3d_flags>
0

> <s_epik_input>
W0NIM11jMVtjSF1bY0hdYyhbY0hdbjEpW05IXUMoPU8pW05IXVtDSF0yW0NIMl1bQ0gyXU4oW0NIMl1bQ0gyXTIpW0NIXTNbQ0gyXVtDSDJdTihbQ0gzXSlbQ0gyXVtDSDJdMw==

> <s_epik_cmdline>
J2VwaWtfcHl0aG9uJywgJy1waCcsICc3LjAnLCAnLXRuJywgJzgnLCAnLW1hJywgJzIwMCcsICctbWV0YWxfYmluZGluZycsICctaW1hZScsICc8aW5maWxlLm1hZT4nLCAnLW9tYWUnLCAnPG91dGZpbGUubWFlPic=

> <r_epik_Ionization_Penalty>
0.196786

> <r_epik_Ionization_Penalty_Charging>
0.180787

> <r_epik_Ionization_Penalty_Neutral>
0.0159988

> <r_epik_State_Penalty>
0.163322

> <r_epik_Charging_Adjusted_Penalty>
0.344109

> <i_epik_Tot_Q>
2

> <i_epik_Tot_abs_Q>
2

> <r_epik_Metal_State_Penalty>
0.163596

> <b_epik_Metal_Only>
0

> <s_lp_Force_Field>
OPLS_2005

> <r_lp_Energy>
49.9042

> <b_lp_Chiralities_Consistent>
1

> <s_lp_Variant>
AV-unprocessed.smi:2772-4

> <Gold.Version>
5.8.1

> <Gold.Id.Protein>
6NUR|6NUR_protein|mol2

> <Gold.PLP.Fitness>
38.7738

> <Gold.PLP.PLP>
-39.4415

> <Gold.PLP.part.hbond>
0.0000

> <Gold.PLP.part.metal>
0.0000

> <Gold.PLP.part.buried>
-5.6181

> <Gold.PLP.part.nonpolar>
-34.2411

> <Gold.PLP.part.repulsive>
0.1075

> <Gold.PLP.ligand.clash>
0.0000

> <Gold.PLP.ligand.torsion>
0.3560

> <Gold.PLP.Chemscore.Hbond>
0.0000

> <Gold.PLP.Chemscore.CHOScore>
0.0000

> <Gold.PLP.Chemscore.Metal>
0.0000

> <Gold.PLP.Chemscore.Internal.Correction>
0.0441

> <Gold.Rescore>
     Score         DG    S(hbond)    S(metal)    S(lipo)     H(rot)  DE(clash)    DE(int)     intcor
     16.34     -17.75       0.00        0.00     131.32       1.21       0.05       1.36       ----

> <Gold.Chemscore.Fitness>
16.3442

> <Gold.Chemscore.DG>
-17.7493

> <Gold.Chemscore.ZeroCoef>
-5.4800

> <Gold.Chemscore.Hbond>
0.0000

> <Gold.Chemscore.Metal>
0.0000

> <Gold.Chemscore.Lipo>
131.3231

> <Gold.Chemscore.Internal_Hbond>
0.0000

> <Gold.Chemscore.DEClash>
0.0473

> <Gold.Chemscore.DEInternal>
1.3578

> <Gold.Chemscore.Rot>
1.2092

> <Gold.Chemscore.Internal.Correction>
   9.000000E+99

> <Gold.Chemscore.Hbond.Weighted>
-0.0000

> <Gold.Chemscore.Metal.Weighted>
-0.0000

> <Gold.Chemscore.Lipo.Weighted>
-15.3648

> <Gold.Chemscore.Internal_Hbond.Weighted>
0.0000

> <Gold.Chemscore.DEClash.Weighted>
0.0473

> <Gold.Chemscore.DEInternal.Weighted>
1.3578

> <Gold.Chemscore.Rot.Weighted>
3.0955

> <Gold.Chemscore.Internal.Correction.Weighted>
   9.000000E+99

> <Gold.Protein.RotatedTorsions>
[ 6907 6896 6895 6894 ] final  -24.59 input  -60.11 | X-H torsion
[ 7974 7965 7964 7962 ] final   37.74 input  175.53 | X-H torsion
[ 8008 7997 7996 7995 ] final  -88.30 input   59.86 | X-H torsion
[ 10167 10162 10161 10158 ] final   83.70 input  -65.29 | X-H torsion
[ 10718 10713 10712 10709 ] final  109.75 input   66.30 | X-H torsion
[ 10763 10752 10751 10750 ] final  -26.07 input  -60.55 | X-H torsion
[ 11005 11000 10999 10996 ] final  132.84 input  -57.11 | X-H torsion

> <Gold.Protein.ActiveResidues>
 VAL166  LYS551  ARG553  GLY616  TRP617  ASP618  TYR619  PRO620  LYS621  CYS622 
 ASP623  PHE694  ASN695  SER759  ASP760  ASP761  ALA762  ILE779  LEU786  VAL792 
 PHE793  MET794  SER795  GLU796  ALA797  LYS798  CYS799  TRP800  GLU811  SER814 

> <Gold.Protein.RotatedAtoms>
  151.1873  135.0387  159.8817 H   0  0  0  0  0  0  0  0  0  0  0  0  # atno 6907 bound_to 6896
  152.5441  134.0995  159.8322 H   0  0  0  0  0  0  0  0  0  0  0  0  # atno 6908 bound_to 6896
  151.1119  133.5119  159.2637 H   0  0  0  0  0  0  0  0  0  0  0  0  # atno 6909 bound_to 6896
  146.1115  139.5857  142.9349 H   0  0  0  0  0  0  0  0  0  0  0  0  # atno 7974 bound_to 7965
  154.6732  140.0555  157.0188 H   0  0  0  0  0  0  0  0  0  0  0  0  # atno 8008 bound_to 7997
  155.1058  140.3233  155.4516 H   0  0  0  0  0  0  0  0  0  0  0  0  # atno 8009 bound_to 7997
  156.2666  140.2023  156.6183 H   0  0  0  0  0  0  0  0  0  0  0  0  # atno 8010 bound_to 7997
  139.9156  144.6244  150.8492 H   0  0  0  0  0  0  0  0  0  0  0  0  # atno 10167 bound_to 10162
  157.6527  131.0919  150.6500 H   0  0  0  0  0  0  0  0  0  0  0  0  # atno 10718 bound_to 10713
  153.7100  135.6951  153.5040 H   0  0  0  0  0  0  0  0  0  0  0  0  # atno 10763 bound_to 10752
  153.2279  135.4347  155.0562 H   0  0  0  0  0  0  0  0  0  0  0  0  # atno 10764 bound_to 10752
  154.8318  135.3477  154.6637 H   0  0  0  0  0  0  0  0  0  0  0  0  # atno 10765 bound_to 10752
  139.9815  134.9546  156.9640 H   0  0  0  0  0  0  0  0  0  0  0  0  # atno 11005 bound_to 11000
  145.5654  141.0400  143.2203 LP  0  0  0  0  0  0  0  0  0  0  0  0  # atno 17320 bound_to 7965
  144.7515  139.7181  143.7271 LP  0  0  0  0  0  0  0  0  0  0  0  0  # atno 17321 bound_to 7965
  140.7675  143.3333  151.2362 LP  0  0  0  0  0  0  0  0  0  0  0  0  # atno 17342 bound_to 10162
  139.6905  143.9700  152.2856 LP  0  0  0  0  0  0  0  0  0  0  0  0  # atno 17343 bound_to 10162
  156.6809  130.4567  149.5628 LP  0  0  0  0  0  0  0  0  0  0  0  0  # atno 17370 bound_to 10713
  156.1929  130.6571  151.1082 LP  0  0  0  0  0  0  0  0  0  0  0  0  # atno 17371 bound_to 10713
  140.5087  134.1024  155.7265 LP  0  0  0  0  0  0  0  0  0  0  0  0  # atno 17394 bound_to 11000
  141.1486  133.9010  157.2154 LP  0  0  0  0  0  0  0  0  0  0  0  0  # atno 17395 bound_to 11000

$$$$
