AV-unprocessed.smi:2764|AV-procd|sdf|10643|dock6
  -GOLD-   2272015 93D 1   1.00000     0.00000
 Structure written by MMmdl.
 47 49  0  0  0  0  0  0  0  0  2 V2000
  142.9528  136.0667  152.7903 O   0  0  0  0  0  0  0  0  0  0  0  0
  143.1040  137.2863  152.8635 C   0  0  0  0  0  0  0  0  0  0  0  0
  142.1683  138.1647  153.2655 N   0  0  0  0  0  0  0  0  0  0  0  0
  140.8416  137.8978  153.6971 C   0  0  0  0  0  0  0  0  0  0  0  0
  139.8827  138.8635  153.3148 C   0  0  0  0  0  0  0  0  0  0  0  0
  138.5368  138.6917  153.6936 C   0  0  0  0  0  0  0  0  0  0  0  0
  138.1864  137.5565  154.4458 C   0  0  0  0  0  0  0  0  0  0  0  0
  136.9055  137.3480  154.8321 F   0  0  0  0  0  0  0  0  0  0  0  0
  139.2011  136.6430  154.7862 C   0  0  0  0  0  0  0  0  0  0  0  0
  140.4915  136.8069  154.4241 N   0  0  0  0  0  0  0  0  0  0  0  0
  144.2496  137.9076  152.5458 N   0  0  0  0  0  0  0  0  0  0  0  0
  145.4624  137.2487  152.0607 C   0  0  2  0  0  0  0  0  0  0  0  0
  146.0282  136.2496  153.0887 C   0  0  0  0  0  0  0  0  0  0  0  0
  146.6260  136.9606  154.3151 C   0  0  0  0  0  0  0  0  0  0  0  0
  147.6712  137.9407  153.9179 N   0  3  2  0  0  0  0  0  0  0  0  0
  148.3566  138.5370  155.0956 C   0  0  0  0  0  0  0  0  0  0  0  0
  149.5099  139.4870  154.7089 C   0  0  1  0  0  0  0  0  0  0  0  0
  149.8762  140.5471  155.7452 C   0  0  0  0  0  0  0  0  0  0  0  0
  151.4044  140.6416  155.6838 C   0  0  0  0  0  0  0  0  0  0  0  0
  151.7895  139.8095  154.6003 O   0  0  0  0  0  0  0  0  0  0  0  0
  150.8412  138.7616  154.5186 C   0  0  0  0  0  0  0  0  0  0  0  0
  147.1319  138.9532  152.9712 C   0  0  0  0  0  0  0  0  0  0  0  0
  146.5393  138.2903  151.7138 C   0  0  0  0  0  0  0  0  0  0  0  0
  142.4356  139.1378  153.2665 H   0  0  0  0  0  0  0  0  0  0  0  0
  140.1701  139.7292  152.7358 H   0  0  0  0  0  0  0  0  0  0  0  0
  137.7887  139.4176  153.4113 H   0  0  0  0  0  0  0  0  0  0  0  0
  138.9728  135.7585  155.3625 H   0  0  0  0  0  0  0  0  0  0  0  0
  144.2799  138.9132  152.6293 H   0  0  0  0  0  0  0  0  0  0  0  0
  145.2065  136.7083  151.1472 H   0  0  0  0  0  0  0  0  0  0  0  0
  145.2601  135.5427  153.4042 H   0  0  0  0  0  0  0  0  0  0  0  0
  146.8059  135.6513  152.6120 H   0  0  0  0  0  0  0  0  0  0  0  0
  145.8426  137.4683  154.8801 H   0  0  0  0  0  0  0  0  0  0  0  0
  147.0569  136.2094  154.9783 H   0  0  0  0  0  0  0  0  0  0  0  0
  147.6395  139.0222  155.7593 H   0  0  0  0  0  0  0  0  0  0  0  0
  148.7970  137.7282  155.6806 H   0  0  0  0  0  0  0  0  0  0  0  0
  149.2737  139.9841  153.7664 H   0  0  0  0  0  0  0  0  0  0  0  0
  149.4088  141.5036  155.5105 H   0  0  0  0  0  0  0  0  0  0  0  0
  149.5657  140.2587  156.7500 H   0  0  0  0  0  0  0  0  0  0  0  0
  151.7553  141.6627  155.5331 H   0  0  0  0  0  0  0  0  0  0  0  0
  151.8486  140.2622  156.6049 H   0  0  0  0  0  0  0  0  0  0  0  0
  151.0217  138.0405  155.3179 H   0  0  0  0  0  0  0  0  0  0  0  0
  150.9031  138.2405  153.5629 H   0  0  0  0  0  0  0  0  0  0  0  0
  146.3745  139.5563  153.4740 H   0  0  0  0  0  0  0  0  0  0  0  0
  147.9177  139.6368  152.6586 H   0  0  0  0  0  0  0  0  0  0  0  0
  147.3417  137.8024  151.1588 H   0  0  0  0  0  0  0  0  0  0  0  0
  146.1299  139.0498  151.0464 H   0  0  0  0  0  0  0  0  0  0  0  0
  148.3717  137.4112  153.4189 H   0  0  0  0  0  0  0  0  0  0  0  0
  1  2  2  0  0  0  0
  2  3  1  0  0  0  0
  2 11  1  0  0  0  0
  3  4  1  0  0  0  0
  3 24  1  0  0  0  0
  4 10  1  0  0  0  0
  4  5  2  0  0  0  0
  5  6  1  0  0  0  0
  5 25  1  0  0  0  0
  6  7  2  0  0  0  0
  6 26  1  0  0  0  0
  7  8  1  0  0  0  0
  7  9  1  0  0  0  0
  9 10  2  0  0  0  0
  9 27  1  0  0  0  0
 11 12  1  0  0  0  0
 11 28  1  0  0  0  0
 12 23  1  0  0  0  0
 12 13  1  0  0  0  0
 12 29  1  0  0  0  0
 13 14  1  0  0  0  0
 13 30  1  0  0  0  0
 13 31  1  0  0  0  0
 14 15  1  0  0  0  0
 14 32  1  0  0  0  0
 14 33  1  0  0  0  0
 15 16  1  0  0  0  0
 15 22  1  0  0  0  0
 15 47  1  0  0  0  0
 16 17  1  0  0  0  0
 16 34  1  0  0  0  0
 16 35  1  0  0  0  0
 17 21  1  0  0  0  0
 17 18  1  0  0  0  0
 17 36  1  0  0  0  0
 18 19  1  0  0  0  0
 18 37  1  0  0  0  0
 18 38  1  0  0  0  0
 19 20  1  0  0  0  0
 19 39  1  0  0  0  0
 19 40  1  0  0  0  0
 20 21  1  0  0  0  0
 21 41  1  0  0  0  0
 21 42  1  0  0  0  0
 22 23  1  0  0  0  0
 22 43  1  0  0  0  0
 22 44  1  0  0  0  0
 23 45  1  0  0  0  0
 23 46  1  0  0  0  0
M  CHG  1  15   1
M  END
> <s_m_source_file>
AV-unprocessed.smi

> <i_m_source_file_index>
2764

> <i_lp_mmshare_version>
43012

> <i_f3d_flags>
0

> <s_epik_input>
bjFbY0hdYyhGKVtjSF1bY0hdYzFbTkhdQyg9TylbTkhdW0NIXTJbQ0gyXVtDSDJdTihbQ0gyXVtDSDJdMilbQ0gyXVtDQEBIXTNbQ0gyXVtDSDJdT1tDSDJdMw==

> <s_epik_cmdline>
J2VwaWtfcHl0aG9uJywgJy1waCcsICc3LjAnLCAnLXRuJywgJzgnLCAnLW1hJywgJzIwMCcsICctbWV0YWxfYmluZGluZycsICctaW1hZScsICc8aW5maWxlLm1hZT4nLCAnLW9tYWUnLCAnPG91dGZpbGUubWFlPic=

> <r_epik_Ionization_Penalty>
0.0075076

> <r_epik_Ionization_Penalty_Charging>
0.00747775

> <r_epik_Ionization_Penalty_Neutral>
2.98483e-05

> <r_epik_State_Penalty>
0.00558817

> <r_epik_Charging_Adjusted_Penalty>
0.0130659

> <i_epik_Tot_Q>
1

> <i_epik_Tot_abs_Q>
1

> <r_epik_Metal_State_Penalty>
-0

> <b_epik_Metal_Only>
0

> <s_lp_Force_Field>
OPLS_2005

> <r_lp_Energy>
38.1344

> <b_lp_Chiralities_Consistent>
1

> <s_lp_Variant>
AV-unprocessed.smi:2764-4

> <Gold.Version>
5.8.1

> <Gold.Id.Protein>
6NUR|6NUR_protein|mol2

> <Gold.PLP.Fitness>
55.8844

> <Gold.PLP.PLP>
-39.3095

> <Gold.PLP.part.hbond>
-5.0000

> <Gold.PLP.part.metal>
0.0000

> <Gold.PLP.part.buried>
-0.1880

> <Gold.PLP.part.nonpolar>
-35.3046

> <Gold.PLP.part.repulsive>
0.3453

> <Gold.PLP.ligand.clash>
0.0000

> <Gold.PLP.ligand.torsion>
0.5668

> <Gold.PLP.Chemscore.Hbond>
4.8960

> <Gold.PLP.Chemscore.CHOScore>
0.9991

> <Gold.PLP.Chemscore.Metal>
0.0000

> <Gold.Chemscore.Hbonds>
donor molecule, donor type, donor heavy atom, donor atom, acceptor molecule, acceptor atom, score
      L1  H     3    24       P1 10175  0.90
      L1  H    11    28       P1 10175  1.00
      L1  H    15    47       P1  7948  2.00
      P1  H  7989  7998       L1    20  0.84
      L1  C     9    27       P1 11000  1.00

> <Gold.PLP.Chemscore.Internal.Correction>
0.0231

> <Gold.Rescore>
     Score         DG    S(hbond)    S(metal)    S(lipo)     H(rot)  DE(clash)    DE(int)     intcor
     20.83     -22.48       3.36        0.00      81.97       1.49       0.34       1.31       ----

> <Gold.Chemscore.Fitness>
20.8324

> <Gold.Chemscore.DG>
-22.4758

> <Gold.Chemscore.ZeroCoef>
-5.4800

> <Gold.Chemscore.Hbond>
3.3586

> <Gold.Chemscore.Metal>
0.0000

> <Gold.Chemscore.Lipo>
81.9681

> <Gold.Chemscore.Internal_Hbond>
0.0000

> <Gold.Chemscore.DEClash>
0.3369

> <Gold.Chemscore.DEInternal>
1.3064

> <Gold.Chemscore.Rot>
1.4891

> <Gold.Chemscore.Internal.Correction>
   9.000000E+99

> <Gold.Chemscore.Hbonds>
donor molecule, donor type, donor heavy atom, donor atom, acceptor molecule, acceptor atom, score
      L1  H     3    24       P1 10175  0.88
      L1  H    11    28       P1 10175  0.97
      L1  H    15    47       P1  7948  0.90
      P1  H  7989  7998       L1    20  0.11

> <Gold.Chemscore.Hbond.Weighted>
-11.2176

> <Gold.Chemscore.Metal.Weighted>
-0.0000

> <Gold.Chemscore.Lipo.Weighted>
-9.5903

> <Gold.Chemscore.Internal_Hbond.Weighted>
0.0000

> <Gold.Chemscore.DEClash.Weighted>
0.3369

> <Gold.Chemscore.DEInternal.Weighted>
1.3064

> <Gold.Chemscore.Rot.Weighted>
3.8121

> <Gold.Chemscore.Internal.Correction.Weighted>
   9.000000E+99

> <Gold.Protein.RotatedTorsions>
[ 6907 6896 6895 6894 ] final  -47.35 input  -60.11 | X-H torsion
[ 7974 7965 7964 7962 ] final -104.52 input  175.53 | X-H torsion
[ 8008 7997 7996 7995 ] final -102.72 input   59.86 | X-H torsion
[ 10167 10162 10161 10158 ] final  150.47 input  -65.29 | X-H torsion
[ 10718 10713 10712 10709 ] final   85.54 input   66.30 | X-H torsion
[ 10763 10752 10751 10750 ] final  -53.93 input  -60.55 | X-H torsion
[ 11005 11000 10999 10996 ] final  -64.78 input  -57.11 | X-H torsion

> <Gold.Protein.ActiveResidues>
 VAL166  LYS551  ARG553  GLY616  TRP617  ASP618  TYR619  PRO620  LYS621  CYS622 
 ASP623  PHE694  ASN695  SER759  ASP760  ASP761  ALA762  ILE779  LEU786  VAL792 
 PHE793  MET794  SER795  GLU796  ALA797  LYS798  CYS799  TRP800  GLU811  SER814 

> <Gold.Protein.RotatedAtoms>
  150.9017  134.8430  159.7364 H   0  0  0  0  0  0  0  0  0  0  0  0  # atno 6907 bound_to 6896
  152.4896  134.4492  159.9579 H   0  0  0  0  0  0  0  0  0  0  0  0  # atno 6908 bound_to 6896
  151.4543  133.3570  159.2835 H   0  0  0  0  0  0  0  0  0  0  0  0  # atno 6909 bound_to 6896
  145.2422  140.9209  143.3143 H   0  0  0  0  0  0  0  0  0  0  0  0  # atno 7974 bound_to 7965
  154.8606  140.0427  157.1663 H   0  0  0  0  0  0  0  0  0  0  0  0  # atno 8008 bound_to 7997
  154.8844  140.2977  155.5386 H   0  0  0  0  0  0  0  0  0  0  0  0  # atno 8009 bound_to 7997
  156.2998  140.2405  156.3851 H   0  0  0  0  0  0  0  0  0  0  0  0  # atno 8010 bound_to 7997
  139.4850  144.5519  151.7386 H   0  0  0  0  0  0  0  0  0  0  0  0  # atno 10167 bound_to 10162
  157.6916  131.0179  150.2838 H   0  0  0  0  0  0  0  0  0  0  0  0  # atno 10718 bound_to 10713
  154.1666  135.6466  153.4999 H   0  0  0  0  0  0  0  0  0  0  0  0  # atno 10763 bound_to 10752
  153.0095  135.5373  154.6655 H   0  0  0  0  0  0  0  0  0  0  0  0  # atno 10764 bound_to 10752
  154.5983  135.2941  155.0534 H   0  0  0  0  0  0  0  0  0  0  0  0  # atno 10765 bound_to 10752
  141.1435  133.6671  156.5886 H   0  0  0  0  0  0  0  0  0  0  0  0  # atno 11005 bound_to 11000
  144.9579  139.4011  143.6370 LP  0  0  0  0  0  0  0  0  0  0  0  0  # atno 17320 bound_to 7965
  146.3325  139.8618  142.8855 LP  0  0  0  0  0  0  0  0  0  0  0  0  # atno 17321 bound_to 7965
  140.5074  144.1077  150.5986 LP  0  0  0  0  0  0  0  0  0  0  0  0  # atno 17342 bound_to 10162
  140.3991  143.2713  151.9970 LP  0  0  0  0  0  0  0  0  0  0  0  0  # atno 17343 bound_to 10162
  156.3380  130.3811  149.7433 LP  0  0  0  0  0  0  0  0  0  0  0  0  # atno 17370 bound_to 10713
  156.4952  130.8103  151.3110 LP  0  0  0  0  0  0  0  0  0  0  0  0  # atno 17371 bound_to 10713
  140.3781  134.7547  157.4643 LP  0  0  0  0  0  0  0  0  0  0  0  0  # atno 17394 bound_to 11000
  140.0659  134.5930  155.8696 LP  0  0  0  0  0  0  0  0  0  0  0  0  # atno 17395 bound_to 11000

$$$$
