AV-unprocessed.smi:1251|AV-procd|sdf|5260|dock5
  -GOLD-   22720 4373D 1   1.00000     0.00000
 Structure written by MMmdl.
 38 39  0  0  0  0  0  0  0  0  2 V2000
  151.6133  145.6789  159.0351 C   0  0  0  0  0  0  0  0  0  0  0  0
  152.5678  144.6372  159.6286 C   0  0  0  0  0  0  0  0  0  0  0  0
  151.8361  143.3809  160.1215 C   0  0  0  0  0  0  0  0  0  0  0  0
  152.7349  142.4465  160.8606 C   0  0  0  0  0  0  0  0  0  0  0  0
  153.8963  142.0141  160.3633 N   0  0  0  0  0  0  0  0  0  0  0  0
  154.5382  141.1350  161.2231 N   0  0  0  0  0  0  0  0  0  0  0  0
  153.8448  140.8960  162.3451 C   0  0  0  0  0  0  0  0  0  0  0  0
  154.2969  140.0747  163.3073 N   0  5  0  0  0  0  0  0  0  0  0  0
  153.7609  138.8414  163.4519 C   0  0  0  0  0  0  0  0  0  0  0  0
  154.1525  137.8065  162.9080 O   0  0  0  0  0  0  0  0  0  0  0  0
  152.7045  138.8087  164.2771 N   0  0  0  0  0  0  0  0  0  0  0  0
  151.9208  137.6284  164.6375 C   0  0  2  0  0  0  0  0  0  0  0  0
  150.7178  138.0485  165.4976 C   0  0  0  0  0  0  0  0  0  0  0  0
  152.8200  136.6091  165.3632 C   0  0  2  0  0  0  0  0  0  0  0  0
  152.0861  135.3742  165.8908 C   0  0  0  0  0  0  0  0  0  0  0  0
  153.0139  134.9143  166.9913 C   0  0  0  0  0  0  0  0  0  0  0  0
  153.4793  136.2420  167.5818 C   0  0  0  0  0  0  0  0  0  0  0  0
  153.4127  137.1929  166.5218 O   0  0  0  0  0  0  0  0  0  0  0  0
  152.3193  141.7772  162.4298 S   0  0  0  0  0  0  0  0  0  0  0  0
  152.1612  146.5573  158.6933 H   0  0  0  0  0  0  0  0  0  0  0  0
  150.8827  146.0089  159.7742 H   0  0  0  0  0  0  0  0  0  0  0  0
  151.0688  145.2731  158.1820 H   0  0  0  0  0  0  0  0  0  0  0  0
  153.3080  144.3584  158.8777 H   0  0  0  0  0  0  0  0  0  0  0  0
  153.1204  145.0861  160.4548 H   0  0  0  0  0  0  0  0  0  0  0  0
  151.0084  143.6606  160.7747 H   0  0  0  0  0  0  0  0  0  0  0  0
  151.3997  142.8460  159.2774 H   0  0  0  0  0  0  0  0  0  0  0  0
  152.4239  139.6827  164.6967 H   0  0  0  0  0  0  0  0  0  0  0  0
  151.5467  137.1538  163.7287 H   0  0  0  0  0  0  0  0  0  0  0  0
  150.0993  137.1890  165.7567 H   0  0  0  0  0  0  0  0  0  0  0  0
  150.0835  138.7594  164.9674 H   0  0  0  0  0  0  0  0  0  0  0  0
  151.0405  138.5190  166.4271 H   0  0  0  0  0  0  0  0  0  0  0  0
  153.6286  136.2852  164.7054 H   0  0  0  0  0  0  0  0  0  0  0  0
  151.1180  135.6520  166.3105 H   0  0  0  0  0  0  0  0  0  0  0  0
  151.9221  134.6151  165.1253 H   0  0  0  0  0  0  0  0  0  0  0  0
  152.5274  134.2688  167.7228 H   0  0  0  0  0  0  0  0  0  0  0  0
  153.8599  134.3737  166.5650 H   0  0  0  0  0  0  0  0  0  0  0  0
  152.8045  136.5634  168.3761 H   0  0  0  0  0  0  0  0  0  0  0  0
  154.4854  136.1796  167.9971 H   0  0  0  0  0  0  0  0  0  0  0  0
  1  2  1  0  0  0  0
  1 20  1  0  0  0  0
  1 21  1  0  0  0  0
  1 22  1  0  0  0  0
  2  3  1  0  0  0  0
  2 23  1  0  0  0  0
  2 24  1  0  0  0  0
  3  4  1  0  0  0  0
  3 25  1  0  0  0  0
  3 26  1  0  0  0  0
  4 19  1  0  0  0  0
  4  5  2  0  0  0  0
  5  6  1  0  0  0  0
  6  7  2  0  0  0  0
  7  8  1  0  0  0  0
  7 19  1  0  0  0  0
  8  9  1  0  0  0  0
  9 10  2  0  0  0  0
  9 11  1  0  0  0  0
 11 12  1  0  0  0  0
 11 27  1  0  0  0  0
 12 13  1  0  0  0  0
 12 14  1  0  0  0  0
 12 28  1  0  0  0  0
 13 29  1  0  0  0  0
 13 30  1  0  0  0  0
 13 31  1  0  0  0  0
 14 18  1  0  0  0  0
 14 15  1  0  0  0  0
 14 32  1  0  0  0  0
 15 16  1  0  0  0  0
 15 33  1  0  0  0  0
 15 34  1  0  0  0  0
 16 17  1  0  0  0  0
 16 35  1  0  0  0  0
 16 36  1  0  0  0  0
 17 18  1  0  0  0  0
 17 37  1  0  0  0  0
 17 38  1  0  0  0  0
M  CHG  1   8  -1
M  END
> <s_m_source_file>
AV-unprocessed.smi

> <i_m_source_file_index>
1251

> <i_lp_mmshare_version>
43012

> <i_f3d_flags>
0

> <s_epik_input>
W0NIM11bQ0gyXVtDSDJdYzFubmMoczEpW05IXUMoPU8pW05IXVtDQEhdKFtDSDNdKVtDQEBIXTJbQ0gyXVtDSDJdW0NIMl1PMg==

> <s_epik_cmdline>
J2VwaWtfcHl0aG9uJywgJy1waCcsICc3LjAnLCAnLXRuJywgJzgnLCAnLW1hJywgJzIwMCcsICctbWV0YWxfYmluZGluZycsICctaW1hZScsICc8aW5maWxlLm1hZT4nLCAnLW9tYWUnLCAnPG91dGZpbGUubWFlPic=

> <r_lp_tautomer_probability>
1

> <r_epik_Ionization_Penalty>
4.22551

> <r_epik_Ionization_Penalty_Charging>
4.21437

> <r_epik_Ionization_Penalty_Neutral>
0.0111434

> <r_epik_State_Penalty>
4.21389

> <r_epik_Charging_Adjusted_Penalty>
8.42826

> <i_epik_Tot_Q>
-1

> <i_epik_Tot_abs_Q>
1

> <r_epik_Metal_State_Penalty>
0.69377

> <b_epik_Metal_Only>
1

> <s_lp_Force_Field>
OPLS_2005

> <r_lp_Energy>
11.2841

> <b_lp_Chiralities_Consistent>
1

> <s_lp_Variant>
AV-unprocessed.smi:1251-5

> <Gold.Version>
5.8.1

> <Gold.Id.Protein>
6NUR|6NUR_protein|mol2

> <Gold.PLP.Fitness>
40.3401

> <Gold.PLP.PLP>
-37.4555

> <Gold.PLP.part.hbond>
-2.0395

> <Gold.PLP.part.metal>
0.0000

> <Gold.PLP.part.buried>
-4.2761

> <Gold.PLP.part.nonpolar>
-31.8854

> <Gold.PLP.part.repulsive>
0.0008

> <Gold.PLP.ligand.clash>
0.0000

> <Gold.PLP.ligand.torsion>
1.5907

> <Gold.PLP.Chemscore.Hbond>
2.0000

> <Gold.PLP.Chemscore.CHOScore>
0.0000

> <Gold.PLP.Chemscore.Metal>
0.0000

> <Gold.PLP.Chemscore.Internal.Correction>
0.0660

> <Gold.Rescore>
     Score         DG    S(hbond)    S(metal)    S(lipo)     H(rot)  DE(clash)    DE(int)     intcor
     16.49     -18.13       1.75        0.00      91.94       1.55       0.03       1.62       ----

> <Gold.Chemscore.Fitness>
16.4887

> <Gold.Chemscore.DG>
-18.1322

> <Gold.Chemscore.ZeroCoef>
-5.4800

> <Gold.Chemscore.Hbond>
1.7532

> <Gold.Chemscore.Metal>
0.0000

> <Gold.Chemscore.Lipo>
91.9364

> <Gold.Chemscore.Internal_Hbond>
0.0000

> <Gold.Chemscore.DEClash>
0.0270

> <Gold.Chemscore.DEInternal>
1.6165

> <Gold.Chemscore.Rot>
1.5469

> <Gold.Chemscore.Internal.Correction>
   9.000000E+99

> <Gold.Chemscore.Hbond.Weighted>
-5.8557

> <Gold.Chemscore.Metal.Weighted>
-0.0000

> <Gold.Chemscore.Lipo.Weighted>
-10.7566

> <Gold.Chemscore.Internal_Hbond.Weighted>
0.0000

> <Gold.Chemscore.DEClash.Weighted>
0.0270

> <Gold.Chemscore.DEInternal.Weighted>
1.6165

> <Gold.Chemscore.Rot.Weighted>
3.9600

> <Gold.Chemscore.Internal.Correction.Weighted>
   9.000000E+99

> <Gold.Protein.RotatedTorsions>
[ 6907 6896 6895 6894 ] final   38.58 input  -60.11 | X-H torsion
[ 7974 7965 7964 7962 ] final    7.48 input  175.53 | X-H torsion
[ 8008 7997 7996 7995 ] final   19.13 input   59.86 | X-H torsion
[ 10167 10162 10161 10158 ] final  112.34 input  -65.29 | X-H torsion
[ 10718 10713 10712 10709 ] final   43.30 input   66.30 | X-H torsion
[ 10763 10752 10751 10750 ] final  123.53 input  -60.55 | X-H torsion
[ 11005 11000 10999 10996 ] final   28.18 input  -57.11 | X-H torsion

> <Gold.Protein.ActiveResidues>
 VAL166  LYS551  ARG553  GLY616  TRP617  ASP618  TYR619  PRO620  LYS621  CYS622 
 ASP623  PHE694  ASN695  SER759  ASP760  ASP761  ALA762  ILE779  LEU786  VAL792 
 PHE793  MET794  SER795  GLU796  ALA797  LYS798  CYS799  TRP800  GLU811  SER814 

> <Gold.Protein.RotatedAtoms>
  152.1583  134.8933  160.0543 H   0  0  0  0  0  0  0  0  0  0  0  0  # atno 6907 bound_to 6896
  151.9938  133.3795  159.4163 H   0  0  0  0  0  0  0  0  0  0  0  0  # atno 6908 bound_to 6896
  150.6884  134.3830  159.5086 H   0  0  0  0  0  0  0  0  0  0  0  0  # atno 6909 bound_to 6896
  146.2426  140.0077  142.8409 H   0  0  0  0  0  0  0  0  0  0  0  0  # atno 7974 bound_to 7965
  154.9162  140.3021  155.5240 H   0  0  0  0  0  0  0  0  0  0  0  0  # atno 8008 bound_to 7997
  156.3012  140.2380  156.4143 H   0  0  0  0  0  0  0  0  0  0  0  0  # atno 8009 bound_to 7997
  154.8376  140.0415  157.1508 H   0  0  0  0  0  0  0  0  0  0  0  0  # atno 8010 bound_to 7997
  139.6543  144.7129  151.1988 H   0  0  0  0  0  0  0  0  0  0  0  0  # atno 10167 bound_to 10162
  157.4143  130.7932  149.7458 H   0  0  0  0  0  0  0  0  0  0  0  0  # atno 10718 bound_to 10713
  153.6470  135.3369  155.3088 H   0  0  0  0  0  0  0  0  0  0  0  0  # atno 10763 bound_to 10752
  154.8546  135.4332  154.1944 H   0  0  0  0  0  0  0  0  0  0  0  0  # atno 10764 bound_to 10752
  153.2877  135.7014  153.7397 H   0  0  0  0  0  0  0  0  0  0  0  0  # atno 10765 bound_to 10752
  140.3183  134.2572  155.7721 H   0  0  0  0  0  0  0  0  0  0  0  0  # atno 11005 bound_to 11000
  145.1356  140.9543  143.4518 LP  0  0  0  0  0  0  0  0  0  0  0  0  # atno 17320 bound_to 7965
  145.0345  139.3312  143.6008 LP  0  0  0  0  0  0  0  0  0  0  0  0  # atno 17321 bound_to 7965
  140.7552  143.6098  150.8616 LP  0  0  0  0  0  0  0  0  0  0  0  0  # atno 17342 bound_to 10162
  139.9750  143.6015  152.2961 LP  0  0  0  0  0  0  0  0  0  0  0  0  # atno 17343 bound_to 10162
  155.9860  130.3978  150.3232 LP  0  0  0  0  0  0  0  0  0  0  0  0  # atno 17370 bound_to 10713
  157.1374  131.0287  151.2943 LP  0  0  0  0  0  0  0  0  0  0  0  0  # atno 17371 bound_to 10713
  141.2092  133.7755  157.0009 LP  0  0  0  0  0  0  0  0  0  0  0  0  # atno 17394 bound_to 11000
  140.0964  134.9562  157.1855 LP  0  0  0  0  0  0  0  0  0  0  0  0  # atno 17395 bound_to 11000

$$$$
