AV-unprocessed.smi:525|AV-procd|sdf|2809|dock1
  -GOLD-   2262023283D 1   1.00000     0.00000
 Structure written by MMmdl.
 44 46  0  0  0  0  0  0  0  0  2 V2000
  152.3537  137.7427  159.4596 C   0  0  0  0  0  0  0  0  0  0  0  0
  151.7912  137.7776  158.1596 O   0  0  0  0  0  0  0  0  0  0  0  0
  151.2311  139.0403  157.8446 C   0  0  0  0  0  0  0  0  0  0  0  0
  152.2932  140.1219  158.0753 C   0  0  0  0  0  0  0  0  0  0  0  0
  151.7820  141.4635  157.7673 N   0  0  0  0  0  0  0  0  0  0  0  0
  151.2309  141.9587  156.6243 C   0  0  0  0  0  0  0  0  0  0  0  0
  150.9757  141.0658  155.1221 S   0  0  0  0  0  0  0  0  0  0  0  0
  149.3793  140.2012  155.2939 C   0  0  2  0  0  0  0  0  0  0  0  0
  149.3100  138.8802  154.5162 C   0  0  0  0  0  0  0  0  0  0  0  0
  149.5312  138.9134  153.1984 N   0  0  0  0  0  0  0  0  0  0  0  0
  149.0481  137.8333  155.1045 O   0  0  0  0  0  0  0  0  0  0  0  0
  148.2189  141.1121  154.9008 C   0  0  0  0  0  0  0  0  0  0  0  0
  147.2198  141.4732  155.8345 C   0  0  0  0  0  0  0  0  0  0  0  0
  146.1507  142.3038  155.4476 C   0  0  0  0  0  0  0  0  0  0  0  0
  146.0718  142.7818  154.1260 C   0  0  0  0  0  0  0  0  0  0  0  0
  147.0645  142.4306  153.1918 C   0  0  0  0  0  0  0  0  0  0  0  0
  148.1336  141.5996  153.5781 C   0  0  0  0  0  0  0  0  0  0  0  0
  150.9227  143.2662  156.8495 N   0  3  0  0  0  0  0  0  0  0  0  0
  151.2910  143.6162  158.1489 C   0  0  0  0  0  0  0  0  0  0  0  0
  151.1867  144.8242  158.8314 C   0  0  0  0  0  0  0  0  0  0  0  0
  151.6666  144.8448  160.1574 C   0  0  0  0  0  0  0  0  0  0  0  0
  152.2234  143.6954  160.7553 C   0  0  0  0  0  0  0  0  0  0  0  0
  152.3234  142.4757  160.0538 C   0  0  0  0  0  0  0  0  0  0  0  0
  151.8455  142.4634  158.7439 C   0  0  0  0  0  0  0  0  0  0  0  0
  152.7737  136.7554  159.6508 H   0  0  0  0  0  0  0  0  0  0  0  0
  151.5981  137.9401  160.2211 H   0  0  0  0  0  0  0  0  0  0  0  0
  153.1554  138.4752  159.5631 H   0  0  0  0  0  0  0  0  0  0  0  0
  150.8985  139.0524  156.8054 H   0  0  0  0  0  0  0  0  0  0  0  0
  150.3595  139.2302  158.4735 H   0  0  0  0  0  0  0  0  0  0  0  0
  152.6163  140.1169  159.1167 H   0  0  0  0  0  0  0  0  0  0  0  0
  153.1837  139.9348  157.4746 H   0  0  0  0  0  0  0  0  0  0  0  0
  149.2831  139.9539  156.3522 H   0  0  0  0  0  0  0  0  0  0  0  0
  149.4912  138.0615  152.6579 H   0  0  0  0  0  0  0  0  0  0  0  0
  149.7363  139.7931  152.7471 H   0  0  0  0  0  0  0  0  0  0  0  0
  147.2673  141.1150  156.8524 H   0  0  0  0  0  0  0  0  0  0  0  0
  145.3908  142.5750  156.1658 H   0  0  0  0  0  0  0  0  0  0  0  0
  145.2520  143.4195  153.8295 H   0  0  0  0  0  0  0  0  0  0  0  0
  147.0063  142.8002  152.1786 H   0  0  0  0  0  0  0  0  0  0  0  0
  148.8899  141.3384  152.8524 H   0  0  0  0  0  0  0  0  0  0  0  0
  150.7622  145.7063  158.3746 H   0  0  0  0  0  0  0  0  0  0  0  0
  151.6076  145.7609  160.7273 H   0  0  0  0  0  0  0  0  0  0  0  0
  152.5821  143.7504  161.7730 H   0  0  0  0  0  0  0  0  0  0  0  0
  152.7538  141.6014  160.5198 H   0  0  0  0  0  0  0  0  0  0  0  0
  150.5027  143.8752  156.1591 H   0  0  0  0  0  0  0  0  0  0  0  0
  1  2  1  0  0  0  0
  1 25  1  0  0  0  0
  1 26  1  0  0  0  0
  1 27  1  0  0  0  0
  2  3  1  0  0  0  0
  3  4  1  0  0  0  0
  3 28  1  0  0  0  0
  3 29  1  0  0  0  0
  4  5  1  0  0  0  0
  4 30  1  0  0  0  0
  4 31  1  0  0  0  0
  5 24  1  0  0  0  0
  5  6  1  0  0  0  0
  6  7  1  0  0  0  0
  6 18  2  0  0  0  0
  7  8  1  0  0  0  0
  8  9  1  0  0  0  0
  8 12  1  0  0  0  0
  8 32  1  0  0  0  0
  9 10  1  0  0  0  0
  9 11  2  0  0  0  0
 10 33  1  0  0  0  0
 10 34  1  0  0  0  0
 12 17  1  0  0  0  0
 12 13  2  0  0  0  0
 13 14  1  0  0  0  0
 13 35  1  0  0  0  0
 14 15  2  0  0  0  0
 14 36  1  0  0  0  0
 15 16  1  0  0  0  0
 15 37  1  0  0  0  0
 16 17  2  0  0  0  0
 16 38  1  0  0  0  0
 17 39  1  0  0  0  0
 18 19  1  0  0  0  0
 18 44  1  0  0  0  0
 19 24  2  0  0  0  0
 19 20  1  0  0  0  0
 20 21  2  0  0  0  0
 20 40  1  0  0  0  0
 21 22  1  0  0  0  0
 21 41  1  0  0  0  0
 22 23  2  0  0  0  0
 22 42  1  0  0  0  0
 23 24  1  0  0  0  0
 23 43  1  0  0  0  0
M  CHG  1  18   1
M  END
> <s_m_source_file>
AV-unprocessed.smi

> <i_m_source_file_index>
525

> <i_lp_mmshare_version>
43012

> <i_f3d_flags>
0

> <s_epik_input>
W2NIXTFbY0hdW2NIXVtjSF1jKGMxMiluKFtDSDJdW0NIMl1PW0NIM10pYyhuMilTW0NASF0oQyg9TylbTkgyXSljM1tjSF1bY0hdW2NIXVtjSF1bY0hdMw==

> <s_epik_cmdline>
J2VwaWtfcHl0aG9uJywgJy1waCcsICc3LjAnLCAnLXRuJywgJzgnLCAnLW1hJywgJzIwMCcsICctbWV0YWxfYmluZGluZycsICctaW1hZScsICc8aW5maWxlLm1hZT4nLCAnLW9tYWUnLCAnPG91dGZpbGUubWFlPic=

> <r_epik_Ionization_Penalty>
1.29485

> <r_epik_Ionization_Penalty_Charging>
1.29485

> <r_epik_Ionization_Penalty_Neutral>
1.02965e-06

> <r_epik_State_Penalty>
1.36828

> <r_epik_Charging_Adjusted_Penalty>
2.66313

> <i_epik_Tot_Q>
1

> <i_epik_Tot_abs_Q>
1

> <r_epik_Metal_State_Penalty>
1.43316

> <b_epik_Metal_Only>
0

> <s_lp_Force_Field>
OPLS_2005

> <r_lp_Energy>
14.4741

> <b_lp_Chiralities_Consistent>
1

> <s_lp_Variant>
AV-unprocessed.smi:525-3

> <Gold.Version>
5.8.1

> <Gold.Id.Protein>
6NUR|6NUR_protein|mol2

> <Gold.PLP.Fitness>
57.8386

> <Gold.PLP.PLP>
-48.2409

> <Gold.PLP.part.hbond>
-2.9875

> <Gold.PLP.part.metal>
0.0000

> <Gold.PLP.part.buried>
-7.0848

> <Gold.PLP.part.nonpolar>
-38.4694

> <Gold.PLP.part.repulsive>
0.1337

> <Gold.PLP.ligand.clash>
0.0000

> <Gold.PLP.ligand.torsion>
0.8082

> <Gold.PLP.Chemscore.Hbond>
3.6461

> <Gold.PLP.Chemscore.CHOScore>
0.0000

> <Gold.PLP.Chemscore.Metal>
0.0000

> <Gold.Chemscore.Hbonds>
donor molecule, donor type, donor heavy atom, donor atom, acceptor molecule, acceptor atom, score
      L1  H    10    33       P1  7948  1.00
      L1  H    10    34       P1  7957  0.48
      L1  H    18    44       P1  8028  1.76

> <Gold.PLP.Chemscore.Internal.Correction>
0.2761

> <Gold.Rescore>
     Score         DG    S(hbond)    S(metal)    S(lipo)     H(rot)  DE(clash)    DE(int)     intcor
     19.45     -22.02       2.53        0.00     124.06       2.51       0.99       1.58       ----

> <Gold.Chemscore.Fitness>
19.4539

> <Gold.Chemscore.DG>
-22.0162

> <Gold.Chemscore.ZeroCoef>
-5.4800

> <Gold.Chemscore.Hbond>
2.5325

> <Gold.Chemscore.Metal>
0.0000

> <Gold.Chemscore.Lipo>
124.0582

> <Gold.Chemscore.Internal_Hbond>
0.0000

> <Gold.Chemscore.DEClash>
0.9868

> <Gold.Chemscore.DEInternal>
1.5756

> <Gold.Chemscore.Rot>
2.5145

> <Gold.Chemscore.Internal.Correction>
   9.000000E+99

> <Gold.Chemscore.Hbonds>
donor molecule, donor type, donor heavy atom, donor atom, acceptor molecule, acceptor atom, score
      L1  H    10    33       P1  7948  0.70
      L1  H    10    34       P1  7957  0.47
      L1  H    18    44       P1  8028  0.86

> <Gold.Chemscore.Hbond.Weighted>
-8.4586

> <Gold.Chemscore.Metal.Weighted>
-0.0000

> <Gold.Chemscore.Lipo.Weighted>
-14.5148

> <Gold.Chemscore.Internal_Hbond.Weighted>
0.0000

> <Gold.Chemscore.DEClash.Weighted>
0.9868

> <Gold.Chemscore.DEInternal.Weighted>
1.5756

> <Gold.Chemscore.Rot.Weighted>
6.4372

> <Gold.Chemscore.Internal.Correction.Weighted>
   9.000000E+99

> <Gold.Protein.RotatedTorsions>
[ 6907 6896 6895 6894 ] final   10.50 input  -60.11 | X-H torsion
[ 7974 7965 7964 7962 ] final -173.84 input  175.53 | X-H torsion
[ 8008 7997 7996 7995 ] final -157.83 input   59.86 | X-H torsion
[ 10167 10162 10161 10158 ] final -141.63 input  -65.29 | X-H torsion
[ 10718 10713 10712 10709 ] final  133.04 input   66.30 | X-H torsion
[ 10763 10752 10751 10750 ] final   49.73 input  -60.55 | X-H torsion
[ 11005 11000 10999 10996 ] final   52.09 input  -57.11 | X-H torsion

> <Gold.Protein.ActiveResidues>
 VAL166  LYS551  ARG553  GLY616  TRP617  ASP618  TYR619  PRO620  LYS621  CYS622 
 ASP623  PHE694  ASN695  SER759  ASP760  ASP761  ALA762  ILE779  LEU786  VAL792 
 PHE793  MET794  SER795  GLU796  ALA797  LYS798  CYS799  TRP800  GLU811  SER814 

> <Gold.Protein.RotatedAtoms>
  151.7393  135.0858  160.0312 H   0  0  0  0  0  0  0  0  0  0  0  0  # atno 6907 bound_to 6896
  152.3490  133.6152  159.5939 H   0  0  0  0  0  0  0  0  0  0  0  0  # atno 6908 bound_to 6896
  150.7527  133.9520  159.3530 H   0  0  0  0  0  0  0  0  0  0  0  0  # atno 6909 bound_to 6896
  144.7135  140.1562  143.6380 H   0  0  0  0  0  0  0  0  0  0  0  0  # atno 7974 bound_to 7965
  155.7383  140.0811  157.2257 H   0  0  0  0  0  0  0  0  0  0  0  0  # atno 8008 bound_to 7997
  154.4025  140.1582  156.2642 H   0  0  0  0  0  0  0  0  0  0  0  0  # atno 8009 bound_to 7997
  155.9044  140.3408  155.6053 H   0  0  0  0  0  0  0  0  0  0  0  0  # atno 8010 bound_to 7997
  139.8166  143.7630  152.2665 H   0  0  0  0  0  0  0  0  0  0  0  0  # atno 10167 bound_to 10162
  157.4812  131.1086  150.9679 H   0  0  0  0  0  0  0  0  0  0  0  0  # atno 10718 bound_to 10713
  152.9786  135.5902  154.4137 H   0  0  0  0  0  0  0  0  0  0  0  0  # atno 10763 bound_to 10752
  154.3770  135.2767  155.2235 H   0  0  0  0  0  0  0  0  0  0  0  0  # atno 10764 bound_to 10752
  154.4166  135.6069  153.6039 H   0  0  0  0  0  0  0  0  0  0  0  0  # atno 10765 bound_to 10752
  140.0878  134.5251  155.8882 H   0  0  0  0  0  0  0  0  0  0  0  0  # atno 11005 bound_to 11000
  145.9072  139.2465  143.1459 LP  0  0  0  0  0  0  0  0  0  0  0  0  # atno 17320 bound_to 7965
  145.9752  140.8727  143.0142 LP  0  0  0  0  0  0  0  0  0  0  0  0  # atno 17321 bound_to 7965
  139.7795  144.7449  151.0108 LP  0  0  0  0  0  0  0  0  0  0  0  0  # atno 17342 bound_to 10162
  140.7815  143.4557  151.0349 LP  0  0  0  0  0  0  0  0  0  0  0  0  # atno 17343 bound_to 10162
  157.0411  130.5749  149.5356 LP  0  0  0  0  0  0  0  0  0  0  0  0  # atno 17370 bound_to 10713
  156.0123  130.5215  150.8026 LP  0  0  0  0  0  0  0  0  0  0  0  0  # atno 17371 bound_to 10713
  141.2068  133.6658  156.6266 LP  0  0  0  0  0  0  0  0  0  0  0  0  # atno 17394 bound_to 11000
  140.3395  134.7861  157.4387 LP  0  0  0  0  0  0  0  0  0  0  0  0  # atno 17395 bound_to 11000

$$$$
