AV-unprocessed.smi:525|AV-procd|sdf|2808|dock3
  -GOLD-   2262023283D 1   1.00000     0.00000
 Structure written by MMmdl.
 43 45  0  0  0  0  0  0  0  0  1 V2000
  140.3445  136.8341  153.6441 C   0  0  0  0  0  0  0  0  0  0  0  0
  140.9197  135.7848  154.4070 O   0  0  0  0  0  0  0  0  0  0  0  0
  141.9778  135.1114  153.7406 C   0  0  0  0  0  0  0  0  0  0  0  0
  143.1787  136.0374  153.4786 C   0  0  0  0  0  0  0  0  0  0  0  0
  144.3607  135.2971  153.0585 N   0  0  0  0  0  0  0  0  0  0  0  0
  145.6654  135.5632  153.3207 C   0  0  0  0  0  0  0  0  0  0  0  0
  146.1530  136.9586  154.2927 S   0  0  0  0  0  0  0  0  0  0  0  0
  147.1924  137.8614  153.0925 C   0  0  1  0  0  0  0  0  0  0  0  0
  146.4094  138.4664  151.9163 C   0  0  0  0  0  0  0  0  0  0  0  0
  145.0786  138.3629  151.9588 N   0  0  0  0  0  0  0  0  0  0  0  0
  146.9898  139.0211  150.9853 O   0  0  0  0  0  0  0  0  0  0  0  0
  147.9671  138.9572  153.8169 C   0  0  0  0  0  0  0  0  0  0  0  0
  147.3199  140.1342  154.2599 C   0  0  0  0  0  0  0  0  0  0  0  0
  148.0463  141.1374  154.9300 C   0  0  0  0  0  0  0  0  0  0  0  0
  149.4246  140.9722  155.1635 C   0  0  0  0  0  0  0  0  0  0  0  0
  150.0762  139.8037  154.7252 C   0  0  0  0  0  0  0  0  0  0  0  0
  149.3503  138.7999  154.0549 C   0  0  0  0  0  0  0  0  0  0  0  0
  146.5404  134.6925  152.8123 N   0  0  0  0  0  0  0  0  0  0  0  0
  145.7324  133.7938  152.1463 C   0  0  0  0  0  0  0  0  0  0  0  0
  146.0619  132.6431  151.3948 C   0  0  0  0  0  0  0  0  0  0  0  0
  145.0473  131.8672  150.7968 C   0  0  0  0  0  0  0  0  0  0  0  0
  143.6924  132.2294  150.9425 C   0  0  0  0  0  0  0  0  0  0  0  0
  143.3434  133.3718  151.6881 C   0  0  0  0  0  0  0  0  0  0  0  0
  144.3604  134.1433  152.2816 C   0  0  0  0  0  0  0  0  0  0  0  0
  139.5232  137.2841  154.2015 H   0  0  0  0  0  0  0  0  0  0  0  0
  139.9453  136.4759  152.6954 H   0  0  0  0  0  0  0  0  0  0  0  0
  141.0766  137.6160  153.4391 H   0  0  0  0  0  0  0  0  0  0  0  0
  142.2852  134.2226  154.2939 H   0  0  0  0  0  0  0  0  0  0  0  0
  141.5910  134.7535  152.7861 H   0  0  0  0  0  0  0  0  0  0  0  0
  142.9358  136.8016  152.7414 H   0  0  0  0  0  0  0  0  0  0  0  0
  143.4261  136.5770  154.3932 H   0  0  0  0  0  0  0  0  0  0  0  0
  147.9145  137.1462  152.6960 H   0  0  0  0  0  0  0  0  0  0  0  0
  144.5190  138.7415  151.2087 H   0  0  0  0  0  0  0  0  0  0  0  0
  144.6375  137.9024  152.7416 H   0  0  0  0  0  0  0  0  0  0  0  0
  146.2626  140.2715  154.0855 H   0  0  0  0  0  0  0  0  0  0  0  0
  147.5453  142.0337  155.2649 H   0  0  0  0  0  0  0  0  0  0  0  0
  149.9816  141.7414  155.6775 H   0  0  0  0  0  0  0  0  0  0  0  0
  151.1341  139.6774  154.9028 H   0  0  0  0  0  0  0  0  0  0  0  0
  149.8620  137.9085  153.7230 H   0  0  0  0  0  0  0  0  0  0  0  0
  147.0968  132.3572  151.2778 H   0  0  0  0  0  0  0  0  0  0  0  0
  145.3097  130.9902  150.2236 H   0  0  0  0  0  0  0  0  0  0  0  0
  142.9209  131.6301  150.4814 H   0  0  0  0  0  0  0  0  0  0  0  0
  142.3070  133.6528  151.8010 H   0  0  0  0  0  0  0  0  0  0  0  0
  1  2  1  0  0  0  0
  1 25  1  0  0  0  0
  1 26  1  0  0  0  0
  1 27  1  0  0  0  0
  2  3  1  0  0  0  0
  3  4  1  0  0  0  0
  3 28  1  0  0  0  0
  3 29  1  0  0  0  0
  4  5  1  0  0  0  0
  4 30  1  0  0  0  0
  4 31  1  0  0  0  0
  5 24  1  0  0  0  0
  5  6  1  0  0  0  0
  6  7  1  0  0  0  0
  6 18  2  0  0  0  0
  7  8  1  0  0  0  0
  8  9  1  0  0  0  0
  8 12  1  0  0  0  0
  8 32  1  0  0  0  0
  9 10  1  0  0  0  0
  9 11  2  0  0  0  0
 10 33  1  0  0  0  0
 10 34  1  0  0  0  0
 12 17  1  0  0  0  0
 12 13  2  0  0  0  0
 13 14  1  0  0  0  0
 13 35  1  0  0  0  0
 14 15  2  0  0  0  0
 14 36  1  0  0  0  0
 15 16  1  0  0  0  0
 15 37  1  0  0  0  0
 16 17  2  0  0  0  0
 16 38  1  0  0  0  0
 17 39  1  0  0  0  0
 18 19  1  0  0  0  0
 19 24  2  0  0  0  0
 19 20  1  0  0  0  0
 20 21  2  0  0  0  0
 20 40  1  0  0  0  0
 21 22  1  0  0  0  0
 21 41  1  0  0  0  0
 22 23  2  0  0  0  0
 22 42  1  0  0  0  0
 23 24  1  0  0  0  0
 23 43  1  0  0  0  0
M  END
> <s_m_source_file>
AV-unprocessed.smi

> <i_m_source_file_index>
525

> <i_lp_mmshare_version>
43012

> <i_f3d_flags>
0

> <s_epik_input>
W2NIXTFbY0hdW2NIXVtjSF1jKGMxMiluKFtDSDJdW0NIMl1PW0NIM10pYyhuMilTW0NASF0oQyg9TylbTkgyXSljM1tjSF1bY0hdW2NIXVtjSF1bY0hdMw==

> <s_epik_cmdline>
J2VwaWtfcHl0aG9uJywgJy1waCcsICc3LjAnLCAnLXRuJywgJzgnLCAnLW1hJywgJzIwMCcsICctbWV0YWxfYmluZGluZycsICctaW1hZScsICc8aW5maWxlLm1hZT4nLCAnLW9tYWUnLCAnPG91dGZpbGUubWFlPic=

> <r_epik_Ionization_Penalty>
0.0706634

> <r_epik_Ionization_Penalty_Charging>
0

> <r_epik_Ionization_Penalty_Neutral>
0.0706634

> <r_epik_State_Penalty>
0.0619781

> <r_epik_Charging_Adjusted_Penalty>
0.0619781

> <i_epik_Tot_Q>
0

> <i_epik_Tot_abs_Q>
0

> <r_epik_Metal_State_Penalty>
0.0552401

> <b_epik_Metal_Only>
0

> <s_lp_Force_Field>
OPLS_2005

> <r_lp_Energy>
10.3034

> <b_lp_Chiralities_Consistent>
1

> <s_lp_Variant>
AV-unprocessed.smi:525-2

> <Gold.Version>
5.8.1

> <Gold.Id.Protein>
6NUR|6NUR_protein|mol2

> <Gold.PLP.Fitness>
45.2043

> <Gold.PLP.PLP>
-38.4419

> <Gold.PLP.part.hbond>
-3.7030

> <Gold.PLP.part.metal>
0.0000

> <Gold.PLP.part.buried>
-3.8812

> <Gold.PLP.part.nonpolar>
-34.7107

> <Gold.PLP.part.repulsive>
3.3259

> <Gold.PLP.ligand.clash>
0.0000

> <Gold.PLP.ligand.torsion>
0.7117

> <Gold.PLP.Chemscore.Hbond>
2.6571

> <Gold.PLP.Chemscore.CHOScore>
0.0000

> <Gold.PLP.Chemscore.Metal>
0.0000

> <Gold.Chemscore.Hbonds>
donor molecule, donor type, donor heavy atom, donor atom, acceptor molecule, acceptor atom, score
      L1  H    10    33       P1 10171  1.00
      P1  H  7954  7966       L1    11  0.78
      P1  H 11000 11005       L1     2  0.84

> <Gold.PLP.Chemscore.Internal.Correction>
0.2144

> <Gold.Rescore>
     Score         DG    S(hbond)    S(metal)    S(lipo)     H(rot)  DE(clash)    DE(int)     intcor
     13.24     -15.26       1.66        0.00      89.49       2.44       0.77       1.26       ----

> <Gold.Chemscore.Fitness>
13.2353

> <Gold.Chemscore.DG>
-15.2608

> <Gold.Chemscore.ZeroCoef>
-5.4800

> <Gold.Chemscore.Hbond>
1.6633

> <Gold.Chemscore.Metal>
0.0000

> <Gold.Chemscore.Lipo>
89.4928

> <Gold.Chemscore.Internal_Hbond>
0.0000

> <Gold.Chemscore.DEClash>
0.7693

> <Gold.Chemscore.DEInternal>
1.2562

> <Gold.Chemscore.Rot>
2.4396

> <Gold.Chemscore.Internal.Correction>
   9.000000E+99

> <Gold.Chemscore.Hbonds>
donor molecule, donor type, donor heavy atom, donor atom, acceptor molecule, acceptor atom, score
      L1  H    10    33       P1 10171  0.89
      P1  H  7954  7966       L1    11  0.72
      P1  H 11000 11005       L1     2  0.46

> <Gold.Chemscore.Hbond.Weighted>
-5.5556

> <Gold.Chemscore.Metal.Weighted>
-0.0000

> <Gold.Chemscore.Lipo.Weighted>
-10.4707

> <Gold.Chemscore.Internal_Hbond.Weighted>
0.0000

> <Gold.Chemscore.DEClash.Weighted>
0.7693

> <Gold.Chemscore.DEInternal.Weighted>
1.2562

> <Gold.Chemscore.Rot.Weighted>
6.2454

> <Gold.Chemscore.Internal.Correction.Weighted>
   9.000000E+99

> <Gold.Protein.RotatedTorsions>
[ 6907 6896 6895 6894 ] final  -67.65 input  -60.11 | X-H torsion
[ 7974 7965 7964 7962 ] final  -46.88 input  175.53 | X-H torsion
[ 8008 7997 7996 7995 ] final -110.89 input   59.86 | X-H torsion
[ 10167 10162 10161 10158 ] final  107.06 input  -65.29 | X-H torsion
[ 10718 10713 10712 10709 ] final  -74.94 input   66.30 | X-H torsion
[ 10763 10752 10751 10750 ] final -159.66 input  -60.55 | X-H torsion
[ 11005 11000 10999 10996 ] final   46.03 input  -57.11 | X-H torsion

> <Gold.Protein.ActiveResidues>
 VAL166  LYS551  ARG553  GLY616  TRP617  ASP618  TYR619  PRO620  LYS621  CYS622 
 ASP623  PHE694  ASN695  SER759  ASP760  ASP761  ALA762  ILE779  LEU786  VAL792 
 PHE793  MET794  SER795  GLU796  ALA797  LYS798  CYS799  TRP800  GLU811  SER814 

> <Gold.Protein.RotatedAtoms>
  150.7398  134.5850  159.5958 H   0  0  0  0  0  0  0  0  0  0  0  0  # atno 6907 bound_to 6896
  152.3254  134.7325  160.0312 H   0  0  0  0  0  0  0  0  0  0  0  0  # atno 6908 bound_to 6896
  151.7826  133.3315  159.3512 H   0  0  0  0  0  0  0  0  0  0  0  0  # atno 6909 bound_to 6896
  145.9674  140.7418  142.9427 H   0  0  0  0  0  0  0  0  0  0  0  0  # atno 7974 bound_to 7965
  154.9814  140.0396  157.2279 H   0  0  0  0  0  0  0  0  0  0  0  0  # atno 8008 bound_to 7997
  154.7711  140.2802  155.6115 H   0  0  0  0  0  0  0  0  0  0  0  0  # atno 8009 bound_to 7997
  156.2921  140.2610  156.2513 H   0  0  0  0  0  0  0  0  0  0  0  0  # atno 8010 bound_to 7997
  139.6958  144.7101  151.1269 H   0  0  0  0  0  0  0  0  0  0  0  0  # atno 10167 bound_to 10162
  156.0225  130.4429  150.2968 H   0  0  0  0  0  0  0  0  0  0  0  0  # atno 10718 bound_to 10713
  154.7456  135.3079  154.8651 H   0  0  0  0  0  0  0  0  0  0  0  0  # atno 10763 bound_to 10752
  153.9453  135.6770  153.4748 H   0  0  0  0  0  0  0  0  0  0  0  0  # atno 10764 bound_to 10752
  153.1053  135.4892  154.8866 H   0  0  0  0  0  0  0  0  0  0  0  0  # atno 10765 bound_to 10752
  140.1405  134.4589  155.8453 H   0  0  0  0  0  0  0  0  0  0  0  0  # atno 11005 bound_to 11000
  144.6829  140.2692  143.7308 LP  0  0  0  0  0  0  0  0  0  0  0  0  # atno 17320 bound_to 7965
  145.7954  139.1943  143.2078 LP  0  0  0  0  0  0  0  0  0  0  0  0  # atno 17321 bound_to 7965
  140.7696  143.5493  150.9222 LP  0  0  0  0  0  0  0  0  0  0  0  0  # atno 17342 bound_to 10162
  139.9173  143.6648  152.3104 LP  0  0  0  0  0  0  0  0  0  0  0  0  # atno 17343 bound_to 10162
  157.1071  131.0211  151.3062 LP  0  0  0  0  0  0  0  0  0  0  0  0  # atno 17370 bound_to 10713
  157.4734  130.7722  149.7344 LP  0  0  0  0  0  0  0  0  0  0  0  0  # atno 17371 bound_to 10713
  141.2185  133.6831  156.7238 LP  0  0  0  0  0  0  0  0  0  0  0  0  # atno 17394 bound_to 11000
  140.2728  134.8379  157.3862 LP  0  0  0  0  0  0  0  0  0  0  0  0  # atno 17395 bound_to 11000

$$$$
