AV-unprocessed.smi:2673|AV-procd|sdf|10357|dock1
  -GOLD-   2272014383D 1   1.00000     0.00000
 Structure written by MMmdl.
 32 33  0  0  0  0  0  0  0  0  1 V2000
  147.8776  137.0738  156.2498 O   0  0  0  0  0  0  0  0  0  0  0  0
  148.3221  136.9453  155.1071 C   0  0  0  0  0  0  0  0  0  0  0  0
  148.6033  137.9337  154.1769 N   0  0  0  0  0  0  0  0  0  0  0  0
  148.7955  139.1601  154.5539 C   0  0  0  0  0  0  0  0  0  0  0  0
  149.0694  140.1610  153.6329 N   0  0  0  0  0  0  0  0  0  0  0  0
  149.2658  141.4046  154.0507 N   0  0  0  0  0  0  0  0  0  0  0  0
  149.1649  141.4824  155.3242 C   0  0  0  0  0  0  0  0  0  0  0  0
  148.8039  139.9775  156.1790 S   0  0  0  0  0  0  0  0  0  0  0  0
  148.6176  135.7437  154.5828 N   0  0  0  0  0  0  0  0  0  0  0  0
  148.5106  134.3979  155.1739 C   0  0  0  0  0  0  0  0  0  0  0  0
  149.4594  134.2819  156.4021 C   0  0  0  0  0  0  0  0  0  0  0  0
  150.7012  134.6361  156.0687 F   0  0  0  0  0  0  0  0  0  0  0  0
  149.0475  135.0864  157.3836 F   0  0  0  0  0  0  0  0  0  0  0  0
  149.5093  133.0370  156.8752 F   0  0  0  0  0  0  0  0  0  0  0  0
  147.0472  134.0393  155.5650 C   0  0  0  0  0  0  0  0  0  0  0  0
  146.0876  134.0283  154.3610 C   0  0  0  0  0  0  0  0  0  0  0  0
  146.5729  133.0527  153.2795 C   0  0  0  0  0  0  0  0  0  0  0  0
  148.0163  133.3647  152.8585 C   0  0  0  0  0  0  0  0  0  0  0  0
  148.9625  133.3976  154.0754 C   0  0  0  0  0  0  0  0  0  0  0  0
  149.2809  142.3854  155.9234 H   0  0  0  0  0  0  0  0  0  0  0  0
  148.9785  135.7590  153.6401 H   0  0  0  0  0  0  0  0  0  0  0  0
  147.0335  133.0489  156.0215 H   0  0  0  0  0  0  0  0  0  0  0  0
  146.6640  134.7089  156.3335 H   0  0  0  0  0  0  0  0  0  0  0  0
  145.0867  133.7465  154.6889 H   0  0  0  0  0  0  0  0  0  0  0  0
  146.0003  135.0313  153.9420 H   0  0  0  0  0  0  0  0  0  0  0  0
  146.5172  132.0316  153.6588 H   0  0  0  0  0  0  0  0  0  0  0  0
  145.9126  133.0968  152.4129 H   0  0  0  0  0  0  0  0  0  0  0  0
  148.3603  132.6160  152.1444 H   0  0  0  0  0  0  0  0  0  0  0  0
  148.0460  134.3207  152.3345 H   0  0  0  0  0  0  0  0  0  0  0  0
  149.9728  133.6355  153.7401 H   0  0  0  0  0  0  0  0  0  0  0  0
  149.0168  132.3915  154.4923 H   0  0  0  0  0  0  0  0  0  0  0  0
  149.1284  139.9664  152.6436 H   0  0  0  0  0  0  0  0  0  0  0  0
  1  2  2  0  0  0  0
  2  3  1  0  0  0  0
  2  9  1  0  0  0  0
  3  4  2  0  0  0  0
  4  8  1  0  0  0  0
  4  5  1  0  0  0  0
  5  6  1  0  0  0  0
  5 32  1  0  0  0  0
  6  7  2  0  0  0  0
  7  8  1  0  0  0  0
  7 20  1  0  0  0  0
  9 10  1  0  0  0  0
  9 21  1  0  0  0  0
 10 19  1  0  0  0  0
 10 11  1  0  0  0  0
 10 15  1  0  0  0  0
 11 12  1  0  0  0  0
 11 13  1  0  0  0  0
 11 14  1  0  0  0  0
 15 16  1  0  0  0  0
 15 22  1  0  0  0  0
 15 23  1  0  0  0  0
 16 17  1  0  0  0  0
 16 24  1  0  0  0  0
 16 25  1  0  0  0  0
 17 18  1  0  0  0  0
 17 26  1  0  0  0  0
 17 27  1  0  0  0  0
 18 19  1  0  0  0  0
 18 28  1  0  0  0  0
 18 29  1  0  0  0  0
 19 30  1  0  0  0  0
 19 31  1  0  0  0  0
M  END
> <s_m_source_file>
AV-unprocessed.smi

> <i_m_source_file_index>
2673

> <i_lp_mmshare_version>
43012

> <i_f3d_flags>
0

> <s_epik_input>
czFbY0hdbm5jMVtOSF1DKD1PKVtOSF1DMihDKEYpKEYpRilbQ0gyXVtDSDJdW0NIMl1bQ0gyXVtDSDJdMg==

> <s_epik_cmdline>
J2VwaWtfcHl0aG9uJywgJy1waCcsICc3LjAnLCAnLXRuJywgJzgnLCAnLW1hJywgJzIwMCcsICctbWV0YWxfYmluZGluZycsICctaW1hZScsICc8aW5maWxlLm1hZT4nLCAnLW9tYWUnLCAnPG91dGZpbGUubWFlPic=

> <r_epik_Ionization_Penalty>
1.69703

> <r_epik_Ionization_Penalty_Charging>
1.69675

> <r_epik_Ionization_Penalty_Neutral>
0.00027895

> <r_epik_State_Penalty>
1.84993

> <r_epik_Charging_Adjusted_Penalty>
3.54668

> <i_epik_Tot_Q>
0

> <i_epik_Tot_abs_Q>
0

> <r_epik_Metal_State_Penalty>
1.90085

> <b_epik_Metal_Only>
0

> <s_lp_Force_Field>
OPLS_2005

> <r_lp_Energy>
22.7267

> <b_lp_Chiralities_Consistent>
1

> <s_lp_Variant>
AV-unprocessed.smi:2673-3

> <Gold.Version>
5.8.1

> <Gold.Id.Protein>
6NUR|6NUR_protein|mol2

> <Gold.PLP.Fitness>
31.5895

> <Gold.PLP.PLP>
-20.5558

> <Gold.PLP.part.hbond>
-3.8953

> <Gold.PLP.part.metal>
0.0000

> <Gold.PLP.part.buried>
-3.1606

> <Gold.PLP.part.nonpolar>
-15.7813

> <Gold.PLP.part.repulsive>
2.3296

> <Gold.PLP.ligand.clash>
0.0000

> <Gold.PLP.ligand.torsion>
0.1503

> <Gold.PLP.Chemscore.Hbond>
2.7678

> <Gold.PLP.Chemscore.CHOScore>
0.9999

> <Gold.PLP.Chemscore.Metal>
0.0000

> <Gold.Chemscore.Hbonds>
donor molecule, donor type, donor heavy atom, donor atom, acceptor molecule, acceptor atom, score
      L1  H     5    32       P1  7957  1.00
      L1  H     9    21       P1  7948  1.00
      P1  H  8011  8017       L1     6  0.67
      L1  C     7    20       P1  8028  1.00

> <Gold.PLP.Chemscore.Internal.Correction>
0.0310

> <Gold.Rescore>
     Score         DG    S(hbond)    S(metal)    S(lipo)     H(rot)  DE(clash)    DE(int)     intcor
     11.31     -14.76       2.39        0.00      33.09       1.00       0.88       2.57       ----

> <Gold.Chemscore.Fitness>
11.3141

> <Gold.Chemscore.DG>
-14.7632

> <Gold.Chemscore.ZeroCoef>
-5.4800

> <Gold.Chemscore.Hbond>
2.3867

> <Gold.Chemscore.Metal>
0.0000

> <Gold.Chemscore.Lipo>
33.0908

> <Gold.Chemscore.Internal_Hbond>
0.0000

> <Gold.Chemscore.DEClash>
0.8768

> <Gold.Chemscore.DEInternal>
2.5723

> <Gold.Chemscore.Rot>
1.0000

> <Gold.Chemscore.Internal.Correction>
   9.000000E+99

> <Gold.Chemscore.Hbonds>
donor molecule, donor type, donor heavy atom, donor atom, acceptor molecule, acceptor atom, score
      L1  H     5    32       P1  7957  0.96
      L1  H     9    21       P1  7948  0.89
      P1  H  8011  8017       L1     6  0.29

> <Gold.Chemscore.Hbond.Weighted>
-7.9716

> <Gold.Chemscore.Metal.Weighted>
-0.0000

> <Gold.Chemscore.Lipo.Weighted>
-3.8716

> <Gold.Chemscore.Internal_Hbond.Weighted>
0.0000

> <Gold.Chemscore.DEClash.Weighted>
0.8768

> <Gold.Chemscore.DEInternal.Weighted>
2.5723

> <Gold.Chemscore.Rot.Weighted>
2.5600

> <Gold.Chemscore.Internal.Correction.Weighted>
   9.000000E+99

> <Gold.Protein.RotatedTorsions>
[ 6907 6896 6895 6894 ] final   40.42 input  -60.11 | X-H torsion
[ 7974 7965 7964 7962 ] final -108.95 input  175.53 | X-H torsion
[ 8008 7997 7996 7995 ] final  -52.45 input   59.86 | X-H torsion
[ 10167 10162 10161 10158 ] final  -52.23 input  -65.29 | X-H torsion
[ 10718 10713 10712 10709 ] final   96.31 input   66.30 | X-H torsion
[ 10763 10752 10751 10750 ] final  -12.28 input  -60.55 | X-H torsion
[ 11005 11000 10999 10996 ] final  -10.17 input  -57.11 | X-H torsion

> <Gold.Protein.ActiveResidues>
 VAL166  LYS551  ARG553  GLY616  TRP617  ASP618  TYR619  PRO620  LYS621  CYS622 
 ASP623  PHE694  ASN695  SER759  ASP760  ASP761  ALA762  ILE779  LEU786  VAL792 
 PHE793  MET794  SER795  GLU796  ALA797  LYS798  CYS799  TRP800  GLU811  SER814 

> <Gold.Protein.RotatedAtoms>
  152.1822  134.8744  160.0525 H   0  0  0  0  0  0  0  0  0  0  0  0  # atno 6907 bound_to 6896
  151.9664  133.3706  159.4062 H   0  0  0  0  0  0  0  0  0  0  0  0  # atno 6908 bound_to 6896
  150.6919  134.4110  159.5205 H   0  0  0  0  0  0  0  0  0  0  0  0  # atno 6909 bound_to 6896
  145.1865  140.8995  143.3449 H   0  0  0  0  0  0  0  0  0  0  0  0  # atno 7974 bound_to 7965
  154.4107  140.1223  156.4993 H   0  0  0  0  0  0  0  0  0  0  0  0  # atno 8008 bound_to 7997
  155.6911  140.3495  155.4874 H   0  0  0  0  0  0  0  0  0  0  0  0  # atno 8009 bound_to 7997
  155.9468  140.1097  157.1000 H   0  0  0  0  0  0  0  0  0  0  0  0  # atno 8010 bound_to 7997
  140.6548  143.2591  151.4618 H   0  0  0  0  0  0  0  0  0  0  0  0  # atno 10167 bound_to 10162
  157.6928  131.0574  150.4472 H   0  0  0  0  0  0  0  0  0  0  0  0  # atno 10718 bound_to 10713
  153.4961  135.7017  153.5857 H   0  0  0  0  0  0  0  0  0  0  0  0  # atno 10763 bound_to 10752
  153.4008  135.3872  155.1986 H   0  0  0  0  0  0  0  0  0  0  0  0  # atno 10764 bound_to 10752
  154.8714  135.3881  154.4427 H   0  0  0  0  0  0  0  0  0  0  0  0  # atno 10765 bound_to 10752
  140.7419  133.8663  155.8974 H   0  0  0  0  0  0  0  0  0  0  0  0  # atno 11005 bound_to 11000
  145.0084  139.3533  143.6132 LP  0  0  0  0  0  0  0  0  0  0  0  0  # atno 17320 bound_to 7965
  146.3444  139.9336  142.8750 LP  0  0  0  0  0  0  0  0  0  0  0  0  # atno 17321 bound_to 7965
  139.5768  144.1800  152.1914 LP  0  0  0  0  0  0  0  0  0  0  0  0  # atno 17342 bound_to 10162
  140.1113  144.5455  150.6923 LP  0  0  0  0  0  0  0  0  0  0  0  0  # atno 17343 bound_to 10162
  156.4826  130.4077  149.6453 LP  0  0  0  0  0  0  0  0  0  0  0  0  # atno 17370 bound_to 10713
  156.3493  130.7423  151.2380 LP  0  0  0  0  0  0  0  0  0  0  0  0  # atno 17371 bound_to 10713
  140.9829  134.1381  157.4478 LP  0  0  0  0  0  0  0  0  0  0  0  0  # atno 17394 bound_to 11000
  139.8804  135.0016  156.6078 LP  0  0  0  0  0  0  0  0  0  0  0  0  # atno 17395 bound_to 11000

$$$$
