AV-unprocessed.smi:535|AV-procd|sdf|2859|dock5
  -GOLD-   2262023353D 1   1.00000     0.00000
 Structure written by MMmdl.
 46 48  0  0  0  0  0  0  0  0  1 V2000
  153.5603  138.5739  159.5701 C   0  0  0  0  0  0  0  0  0  0  0  0
  153.5575  138.9980  158.2182 O   0  0  0  0  0  0  0  0  0  0  0  0
  152.2479  139.1378  157.6953 C   0  0  0  0  0  0  0  0  0  0  0  0
  152.3378  139.8174  156.3189 C   0  0  0  0  0  0  0  0  0  0  0  0
  151.1150  140.5350  155.9705 N   0  0  0  0  0  0  0  0  0  0  0  0
  150.6877  141.7727  156.3602 C   0  0  0  0  0  0  0  0  0  0  0  0
  151.3972  142.6028  157.2405 N   0  0  0  0  0  0  0  0  0  0  0  0
  151.6028  144.0505  157.1472 C   0  0  0  0  0  0  0  0  0  0  0  0
  151.2386  144.7708  158.4577 C   0  0  0  0  0  0  0  0  0  0  0  0
  152.0645  144.2140  159.6232 C   0  0  0  0  0  0  0  0  0  0  0  0
  151.9385  142.6826  159.6742 C   0  0  2  0  0  0  0  0  0  0  0  0
  152.8198  142.0810  160.7771 C   0  0  0  0  0  0  0  0  0  0  0  0
  152.2728  142.0814  158.2938 C   0  0  0  0  0  0  0  0  0  0  0  0
  149.5358  142.1525  155.7963 N   0  0  0  0  0  0  0  0  0  0  0  0
  149.1918  141.0754  154.9980 C   0  0  0  0  0  0  0  0  0  0  0  0
  150.1297  140.0996  155.0800 C   0  0  0  0  0  0  0  0  0  0  0  0
  150.0361  138.8546  154.3033 C   0  0  0  0  0  0  0  0  0  0  0  0
  150.8794  137.9616  154.3462 O   0  0  0  0  0  0  0  0  0  0  0  0
  148.9269  138.7929  153.5273 N   0  0  0  0  0  0  0  0  0  0  0  0
  147.9449  139.7365  153.4039 C   0  0  0  0  0  0  0  0  0  0  0  0
  146.9931  139.5393  152.6486 O   0  0  0  0  0  0  0  0  0  0  0  0
  148.0698  140.8855  154.1418 N   0  0  0  0  0  0  0  0  0  0  0  0
  147.0503  141.9318  154.0458 C   0  0  0  0  0  0  0  0  0  0  0  0
  148.8147  137.9565  152.9732 H   0  0  0  0  0  0  0  0  0  0  0  0
  154.5875  138.4718  159.9198 H   0  0  0  0  0  0  0  0  0  0  0  0
  153.0689  137.6066  159.6815 H   0  0  0  0  0  0  0  0  0  0  0  0
  153.0571  139.2989  160.2112 H   0  0  0  0  0  0  0  0  0  0  0  0
  151.7787  138.1576  157.6094 H   0  0  0  0  0  0  0  0  0  0  0  0
  151.6332  139.7217  158.3801 H   0  0  0  0  0  0  0  0  0  0  0  0
  153.1874  140.4938  156.2744 H   0  0  0  0  0  0  0  0  0  0  0  0
  152.5345  139.0731  155.5476 H   0  0  0  0  0  0  0  0  0  0  0  0
  152.6508  144.2369  156.9081 H   0  0  0  0  0  0  0  0  0  0  0  0
  151.0416  144.4727  156.3199 H   0  0  0  0  0  0  0  0  0  0  0  0
  151.4134  145.8421  158.3562 H   0  0  0  0  0  0  0  0  0  0  0  0
  150.1767  144.6490  158.6716 H   0  0  0  0  0  0  0  0  0  0  0  0
  153.1105  144.4953  159.4932 H   0  0  0  0  0  0  0  0  0  0  0  0
  151.7349  144.6578  160.5631 H   0  0  0  0  0  0  0  0  0  0  0  0
  150.9019  142.4340  159.9078 H   0  0  0  0  0  0  0  0  0  0  0  0
  153.8754  142.2887  160.5988 H   0  0  0  0  0  0  0  0  0  0  0  0
  152.6979  140.9985  160.8288 H   0  0  0  0  0  0  0  0  0  0  0  0
  152.5595  142.4887  161.7543 H   0  0  0  0  0  0  0  0  0  0  0  0
  152.1784  140.9965  158.3485 H   0  0  0  0  0  0  0  0  0  0  0  0
  153.3119  142.2842  158.0310 H   0  0  0  0  0  0  0  0  0  0  0  0
  146.0619  141.5291  154.2708 H   0  0  0  0  0  0  0  0  0  0  0  0
  147.0275  142.3484  153.0382 H   0  0  0  0  0  0  0  0  0  0  0  0
  147.2277  142.7548  154.7377 H   0  0  0  0  0  0  0  0  0  0  0  0
  1  2  1  0  0  0  0
  1 25  1  0  0  0  0
  1 26  1  0  0  0  0
  1 27  1  0  0  0  0
  2  3  1  0  0  0  0
  3  4  1  0  0  0  0
  3 28  1  0  0  0  0
  3 29  1  0  0  0  0
  4  5  1  0  0  0  0
  4 30  1  0  0  0  0
  4 31  1  0  0  0  0
  5 16  1  0  0  0  0
  5  6  1  0  0  0  0
  6  7  1  0  0  0  0
  6 14  2  0  0  0  0
  7 13  1  0  0  0  0
  7  8  1  0  0  0  0
  8  9  1  0  0  0  0
  8 32  1  0  0  0  0
  8 33  1  0  0  0  0
  9 10  1  0  0  0  0
  9 34  1  0  0  0  0
  9 35  1  0  0  0  0
 10 11  1  0  0  0  0
 10 36  1  0  0  0  0
 10 37  1  0  0  0  0
 11 12  1  0  0  0  0
 11 13  1  0  0  0  0
 11 38  1  0  0  0  0
 12 39  1  0  0  0  0
 12 40  1  0  0  0  0
 12 41  1  0  0  0  0
 13 42  1  0  0  0  0
 13 43  1  0  0  0  0
 14 15  1  0  0  0  0
 15 22  1  0  0  0  0
 15 16  2  0  0  0  0
 16 17  1  0  0  0  0
 17 18  2  0  0  0  0
 17 19  1  0  0  0  0
 19 24  1  0  0  0  0
 19 20  1  0  0  0  0
 20 21  2  0  0  0  0
 20 22  1  0  0  0  0
 22 23  1  0  0  0  0
 23 44  1  0  0  0  0
 23 45  1  0  0  0  0
 23 46  1  0  0  0  0
M  END
> <s_m_source_file>
AV-unprocessed.smi

> <i_m_source_file_index>
535

> <i_lp_mmshare_version>
43012

> <i_f3d_flags>
0

> <s_epik_input>
W0NIM11uMWMoPU8pW25IXWMoPU8pYyhjMTIpbihbQ0gyXVtDSDJdT1tDSDNdKWMobjIpTjNbQ0gyXVtDSDJdW0NIMl1bQ0BASF0oW0NIM10pW0NIMl0z

> <s_epik_cmdline>
J2VwaWtfcHl0aG9uJywgJy1waCcsICc3LjAnLCAnLXRuJywgJzgnLCAnLW1hJywgJzIwMCcsICctbWV0YWxfYmluZGluZycsICctaW1hZScsICc8aW5maWxlLm1hZT4nLCAnLW9tYWUnLCAnPG91dGZpbGUubWFlPic=

> <r_lp_tautomer_probability>
1

> <r_epik_Ionization_Penalty>
0.00042181

> <r_epik_Ionization_Penalty_Charging>
0.000122112

> <r_epik_Ionization_Penalty_Neutral>
0.000299698

> <r_epik_State_Penalty>
-0

> <r_epik_Charging_Adjusted_Penalty>
0.000122112

> <i_epik_Tot_Q>
0

> <i_epik_Tot_abs_Q>
0

> <r_epik_Metal_State_Penalty>
0.0934894

> <b_epik_Metal_Only>
0

> <s_lp_Force_Field>
OPLS_2005

> <r_lp_Energy>
38.1768

> <b_lp_Chiralities_Consistent>
1

> <s_lp_Variant>
AV-unprocessed.smi:535-2

> <Gold.Version>
5.8.1

> <Gold.Id.Protein>
6NUR|6NUR_protein|mol2

> <Gold.PLP.Fitness>
49.8718

> <Gold.PLP.PLP>
-45.6843

> <Gold.PLP.part.hbond>
-3.0000

> <Gold.PLP.part.metal>
0.0000

> <Gold.PLP.part.buried>
-3.1092

> <Gold.PLP.part.nonpolar>
-43.3177

> <Gold.PLP.part.repulsive>
4.3361

> <Gold.PLP.ligand.clash>
0.0000

> <Gold.PLP.ligand.torsion>
0.9170

> <Gold.PLP.Chemscore.Hbond>
1.9913

> <Gold.PLP.Chemscore.CHOScore>
0.0000

> <Gold.PLP.Chemscore.Metal>
0.0000

> <Gold.Chemscore.Hbonds>
donor molecule, donor type, donor heavy atom, donor atom, acceptor molecule, acceptor atom, score
      L1  H    19    24       P1  7948  0.99
      P1  H  7997  8010       L1     2  1.00

> <Gold.PLP.Chemscore.Internal.Correction>
0.0477

> <Gold.Rescore>
     Score         DG    S(hbond)    S(metal)    S(lipo)     H(rot)  DE(clash)    DE(int)     intcor
     13.76     -17.61       1.55        0.00      91.21       1.46       2.04       1.81       ----

> <Gold.Chemscore.Fitness>
13.7599

> <Gold.Chemscore.DG>
-17.6149

> <Gold.Chemscore.ZeroCoef>
-5.4800

> <Gold.Chemscore.Hbond>
1.5538

> <Gold.Chemscore.Metal>
0.0000

> <Gold.Chemscore.Lipo>
91.2136

> <Gold.Chemscore.Internal_Hbond>
0.0000

> <Gold.Chemscore.DEClash>
2.0446

> <Gold.Chemscore.DEInternal>
1.8103

> <Gold.Chemscore.Rot>
1.4557

> <Gold.Chemscore.Internal.Correction>
   9.000000E+99

> <Gold.Chemscore.Hbonds>
donor molecule, donor type, donor heavy atom, donor atom, acceptor molecule, acceptor atom, score
      L1  H    19    24       P1  7948  0.92
      P1  H  7997  8010       L1     2  0.40

> <Gold.Chemscore.Hbond.Weighted>
-5.1896

> <Gold.Chemscore.Metal.Weighted>
-0.0000

> <Gold.Chemscore.Lipo.Weighted>
-10.6720

> <Gold.Chemscore.Internal_Hbond.Weighted>
0.0000

> <Gold.Chemscore.DEClash.Weighted>
2.0446

> <Gold.Chemscore.DEInternal.Weighted>
1.8103

> <Gold.Chemscore.Rot.Weighted>
3.7267

> <Gold.Chemscore.Internal.Correction.Weighted>
   9.000000E+99

> <Gold.Protein.RotatedTorsions>
[ 6907 6896 6895 6894 ] final  132.54 input  -60.11 | X-H torsion
[ 7974 7965 7964 7962 ] final -107.95 input  175.53 | X-H torsion
[ 8008 7997 7996 7995 ] final   34.49 input   59.86 | X-H torsion
[ 10167 10162 10161 10158 ] final  112.03 input  -65.29 | X-H torsion
[ 10718 10713 10712 10709 ] final  -77.99 input   66.30 | X-H torsion
[ 10763 10752 10751 10750 ] final   54.51 input  -60.55 | X-H torsion
[ 11005 11000 10999 10996 ] final  163.68 input  -57.11 | X-H torsion

> <Gold.Protein.ActiveResidues>
 VAL166  LYS551  ARG553  GLY616  TRP617  ASP618  TYR619  PRO620  LYS621  CYS622 
 ASP623  PHE694  ASN695  SER759  ASP760  ASP761  ALA762  ILE779  LEU786  VAL792 
 PHE793  MET794  SER795  GLU796  ALA797  LYS798  CYS799  TRP800  GLU811  SER814 

> <Gold.Protein.RotatedAtoms>
  152.3313  133.5962  159.5811 H   0  0  0  0  0  0  0  0  0  0  0  0  # atno 6907 bound_to 6896
  150.7425  133.9863  159.3601 H   0  0  0  0  0  0  0  0  0  0  0  0  # atno 6908 bound_to 6896
  151.7737  135.0780  160.0415 H   0  0  0  0  0  0  0  0  0  0  0  0  # atno 6909 bound_to 6896
  145.1989  140.9048  143.3381 H   0  0  0  0  0  0  0  0  0  0  0  0  # atno 7974 bound_to 7965
  155.1557  140.3279  155.4422 H   0  0  0  0  0  0  0  0  0  0  0  0  # atno 8008 bound_to 7997
  156.2559  140.1969  156.6617 H   0  0  0  0  0  0  0  0  0  0  0  0  # atno 8009 bound_to 7997
  154.6441  140.0566  156.9866 H   0  0  0  0  0  0  0  0  0  0  0  0  # atno 8010 bound_to 7997
  139.6566  144.7129  151.1945 H   0  0  0  0  0  0  0  0  0  0  0  0  # atno 10167 bound_to 10162
  156.0130  130.4506  150.3428 H   0  0  0  0  0  0  0  0  0  0  0  0  # atno 10718 bound_to 10713
  152.9805  135.5742  154.4916 H   0  0  0  0  0  0  0  0  0  0  0  0  # atno 10763 bound_to 10752
  154.4449  135.2777  155.1823 H   0  0  0  0  0  0  0  0  0  0  0  0  # atno 10764 bound_to 10752
  154.3476  135.6216  153.5680 H   0  0  0  0  0  0  0  0  0  0  0  0  # atno 10765 bound_to 10752
  140.2382  134.8071  157.3384 H   0  0  0  0  0  0  0  0  0  0  0  0  # atno 11005 bound_to 11000
  144.9967  139.3637  143.6188 LP  0  0  0  0  0  0  0  0  0  0  0  0  # atno 17320 bound_to 7965
  146.3421  139.9173  142.8771 LP  0  0  0  0  0  0  0  0  0  0  0  0  # atno 17321 bound_to 7965
  140.7562  143.6062  150.8651 LP  0  0  0  0  0  0  0  0  0  0  0  0  # atno 17342 bound_to 10162
  139.9715  143.6051  152.2972 LP  0  0  0  0  0  0  0  0  0  0  0  0  # atno 17343 bound_to 10162
  157.1523  131.0324  151.2879 LP  0  0  0  0  0  0  0  0  0  0  0  0  # atno 17370 bound_to 10713
  157.4382  130.7529  149.7046 LP  0  0  0  0  0  0  0  0  0  0  0  0  # atno 17371 bound_to 10713
  140.1680  134.4644  155.7850 LP  0  0  0  0  0  0  0  0  0  0  0  0  # atno 17394 bound_to 11000
  141.2213  133.6929  156.7659 LP  0  0  0  0  0  0  0  0  0  0  0  0  # atno 17395 bound_to 11000

$$$$
