AV-unprocessed.smi:560|AV-procd|sdf|2933|dock10
  -GOLD-   2262023433D 1   1.00000     0.00000
 Structure written by MMmdl.
 41 42  0  0  0  0  0  0  0  0  3 V2000
  141.7473  133.9539  152.7015 C   0  0  0  0  0  0  0  0  0  0  0  0
  143.0901  134.4926  152.1681 C   0  0  1  0  0  0  0  0  0  0  0  0
  143.9008  135.2346  153.2425 C   0  0  0  0  0  0  0  0  0  0  0  0
  143.5573  135.2023  154.4250 O   0  0  0  0  0  0  0  0  0  0  0  0
  144.9820  135.9050  152.8129 N   0  0  0  0  0  0  0  0  0  0  0  0
  145.8925  136.6672  153.6617 C   0  0  2  0  0  0  0  0  0  0  0  0
  146.4724  137.8737  152.8999 C   0  0  0  0  0  0  0  0  0  0  0  0
  147.5168  138.6174  153.7477 C   0  0  0  0  0  0  0  0  0  0  0  0
  148.6035  137.6992  154.1803 N   0  3  1  0  0  0  0  0  0  0  0  0
  149.7189  138.3919  154.8753 C   0  0  0  0  0  0  0  0  0  0  0  0
  150.7944  137.3915  155.3145 C   0  0  0  0  0  0  0  0  0  0  0  0
  151.4878  136.8904  154.2720 N   0  5  0  0  0  0  0  0  0  0  0  0
  150.9359  137.1362  156.5079 O   0  0  0  0  0  0  0  0  0  0  0  0
  148.0735  136.5516  154.9579 C   0  0  0  0  0  0  0  0  0  0  0  0
  147.0377  135.7606  154.1415 C   0  0  0  0  0  0  0  0  0  0  0  0
  143.8985  133.4453  151.5549 N   0  0  0  0  0  0  0  0  0  0  0  0
  143.5081  132.5146  150.6134 C   0  0  0  0  0  0  0  0  0  0  0  0
  144.6017  131.7577  150.3051 C   0  0  0  0  0  0  0  0  0  0  0  0
  145.6350  132.3139  151.1091 C   0  0  0  0  0  0  0  0  0  0  0  0
  145.2144  133.3263  151.8491 N   0  0  0  0  0  0  0  0  0  0  0  0
  141.1336  134.7599  153.1055 H   0  0  0  0  0  0  0  0  0  0  0  0
  141.8843  133.2153  153.4923 H   0  0  0  0  0  0  0  0  0  0  0  0
  141.1769  133.4786  151.9029 H   0  0  0  0  0  0  0  0  0  0  0  0
  142.8541  135.2145  151.3843 H   0  0  0  0  0  0  0  0  0  0  0  0
  145.1919  135.8805  151.8254 H   0  0  0  0  0  0  0  0  0  0  0  0
  145.3476  137.0248  154.5377 H   0  0  0  0  0  0  0  0  0  0  0  0
  146.9347  137.5393  151.9699 H   0  0  0  0  0  0  0  0  0  0  0  0
  145.6753  138.5626  152.6179 H   0  0  0  0  0  0  0  0  0  0  0  0
  147.9279  139.4408  153.1631 H   0  0  0  0  0  0  0  0  0  0  0  0
  147.0419  139.0599  154.6245 H   0  0  0  0  0  0  0  0  0  0  0  0
  150.1475  139.1634  154.2333 H   0  0  0  0  0  0  0  0  0  0  0  0
  149.3533  138.8990  155.7698 H   0  0  0  0  0  0  0  0  0  0  0  0
  151.0137  136.7966  153.3654 H   0  0  0  0  0  0  0  0  0  0  0  0
  148.8922  135.8864  155.2349 H   0  0  0  0  0  0  0  0  0  0  0  0
  147.6291  136.9135  155.8865 H   0  0  0  0  0  0  0  0  0  0  0  0
  146.6407  134.9429  154.7443 H   0  0  0  0  0  0  0  0  0  0  0  0
  147.5320  135.3009  153.2841 H   0  0  0  0  0  0  0  0  0  0  0  0
  142.4938  132.4675  150.2450 H   0  0  0  0  0  0  0  0  0  0  0  0
  144.6567  130.9346  149.6086 H   0  0  0  0  0  0  0  0  0  0  0  0
  146.6714  132.0168  151.1734 H   0  0  0  0  0  0  0  0  0  0  0  0
  149.0155  137.3123  153.3422 H   0  0  0  0  0  0  0  0  0  0  0  0
  1  2  1  0  0  0  0
  1 21  1  0  0  0  0
  1 22  1  0  0  0  0
  1 23  1  0  0  0  0
  2  3  1  0  0  0  0
  2 16  1  0  0  0  0
  2 24  1  0  0  0  0
  3  4  2  0  0  0  0
  3  5  1  0  0  0  0
  5  6  1  0  0  0  0
  5 25  1  0  0  0  0
  6 15  1  0  0  0  0
  6  7  1  0  0  0  0
  6 26  1  0  0  0  0
  7  8  1  0  0  0  0
  7 27  1  0  0  0  0
  7 28  1  0  0  0  0
  8  9  1  0  0  0  0
  8 29  1  0  0  0  0
  8 30  1  0  0  0  0
  9 10  1  0  0  0  0
  9 14  1  0  0  0  0
  9 41  1  0  0  0  0
 10 11  1  0  0  0  0
 10 31  1  0  0  0  0
 10 32  1  0  0  0  0
 11 12  1  0  0  0  0
 11 13  2  0  0  0  0
 12 33  1  0  0  0  0
 14 15  1  0  0  0  0
 14 34  1  0  0  0  0
 14 35  1  0  0  0  0
 15 36  1  0  0  0  0
 15 37  1  0  0  0  0
 16 20  1  0  0  0  0
 16 17  1  0  0  0  0
 17 18  2  0  0  0  0
 17 38  1  0  0  0  0
 18 19  1  0  0  0  0
 18 39  1  0  0  0  0
 19 20  2  0  0  0  0
 19 40  1  0  0  0  0
M  CHG  1   9   1
M  CHG  1  12  -1
M  END
> <s_m_source_file>
AV-unprocessed.smi

> <i_m_source_file_index>
560

> <i_lp_mmshare_version>
43012

> <i_f3d_flags>
0

> <s_epik_input>
bjFbY0hdW2NIXVtjSF1uMVtDQEhdKFtDSDNdKUMoPU8pW05IXVtDSF0yW0NIMl1bQ0gyXU4oW0NIMl1bQ0gyXTIpW0NIMl1DKD1PKVtOSDJd

> <s_epik_cmdline>
J2VwaWtfcHl0aG9uJywgJy1waCcsICc3LjAnLCAnLXRuJywgJzgnLCAnLW1hJywgJzIwMCcsICctbWV0YWxfYmluZGluZycsICctaW1hZScsICc8aW5maWxlLm1hZT4nLCAnLW9tYWUnLCAnPG91dGZpbGUubWFlPic=

> <r_lp_tautomer_probability>
1

> <r_epik_Ionization_Penalty>
5.71084

> <r_epik_Ionization_Penalty_Charging>
5.71081

> <r_epik_Ionization_Penalty_Neutral>
3.04611e-05

> <r_epik_State_Penalty>
6.71277

> <r_epik_Charging_Adjusted_Penalty>
12.4236

> <i_epik_Tot_Q>
0

> <i_epik_Tot_abs_Q>
2

> <r_epik_Metal_State_Penalty>
2.67562

> <b_epik_Metal_Only>
1

> <s_lp_Force_Field>
OPLS_2005

> <r_lp_Energy>
10.2497

> <b_lp_Chiralities_Consistent>
1

> <s_lp_Variant>
AV-unprocessed.smi:560-8

> <Gold.Version>
5.8.1

> <Gold.Id.Protein>
6NUR|6NUR_protein|mol2

> <Gold.PLP.Fitness>
44.3829

> <Gold.PLP.PLP>
-25.3621

> <Gold.PLP.part.hbond>
-3.0000

> <Gold.PLP.part.metal>
0.0000

> <Gold.PLP.part.buried>
-0.8256

> <Gold.PLP.part.nonpolar>
-22.2057

> <Gold.PLP.part.repulsive>
0.1705

> <Gold.PLP.ligand.clash>
0.0000

> <Gold.PLP.ligand.torsion>
0.7668

> <Gold.PLP.Chemscore.Hbond>
4.8800

> <Gold.PLP.Chemscore.CHOScore>
1.9273

> <Gold.PLP.Chemscore.Metal>
0.0000

> <Gold.Chemscore.Hbonds>
donor molecule, donor type, donor heavy atom, donor atom, acceptor molecule, acceptor atom, score
      L1  H     9    41       P1  7948  2.00
      L1  H    12    33       P1  7949  0.84
      P1  H 10752 10765       L1    12  2.00
      L1  C    17    38       P1 10186  0.93
      L1  C    17    38       P1 10952  0.39
      L1  C    19    40       P1 10747  0.50

> <Gold.PLP.Chemscore.Internal.Correction>
0.1325

> <Gold.Rescore>
     Score         DG    S(hbond)    S(metal)    S(lipo)     H(rot)  DE(clash)    DE(int)     intcor
     10.74     -14.16       2.32        0.00      62.22       2.47       1.27       2.15       ----

> <Gold.Chemscore.Fitness>
10.7403

> <Gold.Chemscore.DG>
-14.1635

> <Gold.Chemscore.ZeroCoef>
-5.4800

> <Gold.Chemscore.Hbond>
2.3160

> <Gold.Chemscore.Metal>
0.0000

> <Gold.Chemscore.Lipo>
62.2201

> <Gold.Chemscore.Internal_Hbond>
0.0000

> <Gold.Chemscore.DEClash>
1.2725

> <Gold.Chemscore.DEInternal>
2.1507

> <Gold.Chemscore.Rot>
2.4734

> <Gold.Chemscore.Internal.Correction>
   9.000000E+99

> <Gold.Chemscore.Hbonds>
donor molecule, donor type, donor heavy atom, donor atom, acceptor molecule, acceptor atom, score
      L1  H     9    41       P1  7948  0.97
      L1  H    12    33       P1  7949  0.24
      P1  H 10752 10765       L1    12  0.84

> <Gold.Chemscore.Hbond.Weighted>
-7.7355

> <Gold.Chemscore.Metal.Weighted>
-0.0000

> <Gold.Chemscore.Lipo.Weighted>
-7.2798

> <Gold.Chemscore.Internal_Hbond.Weighted>
0.0000

> <Gold.Chemscore.DEClash.Weighted>
1.2725

> <Gold.Chemscore.DEInternal.Weighted>
2.1507

> <Gold.Chemscore.Rot.Weighted>
6.3318

> <Gold.Chemscore.Internal.Correction.Weighted>
   9.000000E+99

> <Gold.Protein.RotatedTorsions>
[ 6907 6896 6895 6894 ] final  -47.54 input  -60.11 | X-H torsion
[ 7974 7965 7964 7962 ] final  -46.49 input  175.53 | X-H torsion
[ 8008 7997 7996 7995 ] final  -76.72 input   59.86 | X-H torsion
[ 10167 10162 10161 10158 ] final  121.73 input  -65.29 | X-H torsion
[ 10718 10713 10712 10709 ] final   21.93 input   66.30 | X-H torsion
[ 10763 10752 10751 10750 ] final -179.85 input  -60.55 | X-H torsion
[ 11005 11000 10999 10996 ] final    5.59 input  -57.11 | X-H torsion

> <Gold.Protein.ActiveResidues>
 VAL166  LYS551  ARG553  GLY616  TRP617  ASP618  TYR619  PRO620  LYS621  CYS622 
 ASP623  PHE694  ASN695  SER759  ASP760  ASP761  ALA762  ILE779  LEU786  VAL792 
 PHE793  MET794  SER795  GLU796  ALA797  LYS798  CYS799  TRP800  GLU811  SER814 

> <Gold.Protein.RotatedAtoms>
  150.8998  134.8409  159.7351 H   0  0  0  0  0  0  0  0  0  0  0  0  # atno 6907 bound_to 6896
  152.4886  134.4520  159.9587 H   0  0  0  0  0  0  0  0  0  0  0  0  # atno 6908 bound_to 6896
  151.4573  133.3562  159.2839 H   0  0  0  0  0  0  0  0  0  0  0  0  # atno 6909 bound_to 6896
  145.9714  140.7379  142.9408 H   0  0  0  0  0  0  0  0  0  0  0  0  # atno 7974 bound_to 7965
  154.5531  140.0722  156.8700 H   0  0  0  0  0  0  0  0  0  0  0  0  # atno 8008 bound_to 7997
  155.2954  140.3381  155.4232 H   0  0  0  0  0  0  0  0  0  0  0  0  # atno 8009 bound_to 7997
  156.1979  140.1710  156.7947 H   0  0  0  0  0  0  0  0  0  0  0  0  # atno 8010 bound_to 7997
  139.5901  144.7022  151.3310 H   0  0  0  0  0  0  0  0  0  0  0  0  # atno 10167 bound_to 10162
  157.1453  130.6650  149.5994 H   0  0  0  0  0  0  0  0  0  0  0  0  # atno 10718 bound_to 10713
  154.5298  135.2799  155.1190 H   0  0  0  0  0  0  0  0  0  0  0  0  # atno 10763 bound_to 10752
  154.2714  135.6303  153.5315 H   0  0  0  0  0  0  0  0  0  0  0  0  # atno 10764 bound_to 10752
  152.9954  135.5629  154.5809 H   0  0  0  0  0  0  0  0  0  0  0  0  # atno 10765 bound_to 10752
  140.5690  134.0120  155.8001 H   0  0  0  0  0  0  0  0  0  0  0  0  # atno 11005 bound_to 11000
  144.6838  140.2755  143.7300 LP  0  0  0  0  0  0  0  0  0  0  0  0  # atno 17320 bound_to 7965
  145.7901  139.1924  143.2108 LP  0  0  0  0  0  0  0  0  0  0  0  0  # atno 17321 bound_to 7965
  140.7166  143.7250  150.7667 LP  0  0  0  0  0  0  0  0  0  0  0  0  # atno 17342 bound_to 10162
  140.0804  143.4975  152.2533 LP  0  0  0  0  0  0  0  0  0  0  0  0  # atno 17343 bound_to 10162
  155.9780  130.4763  150.6632 LP  0  0  0  0  0  0  0  0  0  0  0  0  # atno 17370 bound_to 10713
  157.4270  131.0844  151.1076 LP  0  0  0  0  0  0  0  0  0  0  0  0  # atno 17371 bound_to 10713
  141.1068  133.9681  157.2982 LP  0  0  0  0  0  0  0  0  0  0  0  0  # atno 17394 bound_to 11000
  139.9371  135.0195  156.8590 LP  0  0  0  0  0  0  0  0  0  0  0  0  # atno 17395 bound_to 11000

$$$$
