AV-unprocessed.smi:1672|AV-procd|sdf|6701|dock8
  -GOLD-   22720 7433D 1   1.00000     0.00000
 Structure written by MMmdl.
 48 50  0  0  0  0  0  0  0  0  2 V2000
  144.9922  133.9052  151.7058 C   0  0  0  0  0  0  0  0  0  0  0  0
  145.2390  135.2800  152.3426 C   0  0  2  0  0  0  0  0  0  0  0  0
  145.6168  136.3348  151.2894 C   0  0  0  0  0  0  0  0  0  0  0  0
  145.8882  137.7003  151.9411 C   0  0  0  0  0  0  0  0  0  0  0  0
  146.9538  137.5996  152.9739 N   0  3  1  0  0  0  0  0  0  0  0  0
  147.3421  138.9166  153.5397 C   0  0  0  0  0  0  0  0  0  0  0  0
  148.6570  138.8384  154.3471 C   0  0  2  0  0  0  0  0  0  0  0  0
  148.3501  138.4987  155.6839 O   0  0  0  0  0  0  0  0  0  0  0  0
  149.4612  140.1544  154.3687 C   0  0  0  0  0  0  0  0  0  0  0  0
  150.5667  140.1386  155.3185 N   0  0  0  0  0  0  0  0  0  0  0  0
  151.6936  139.3807  155.2922 C   0  0  0  0  0  0  0  0  0  0  0  0
  151.9852  138.3942  154.2026 C   0  0  0  0  0  0  0  0  0  0  0  0
  152.0213  137.0637  154.6725 O   0  0  0  0  0  0  0  0  0  0  0  0
  152.5464  139.5760  156.2981 N   0  0  0  0  0  0  0  0  0  0  0  0
  151.9154  140.5457  157.0508 C   0  0  0  0  0  0  0  0  0  0  0  0
  152.3131  141.1801  158.2492 C   0  0  0  0  0  0  0  0  0  0  0  0
  151.4926  142.1605  158.8440 C   0  0  0  0  0  0  0  0  0  0  0  0
  150.2660  142.5207  158.2497 C   0  0  0  0  0  0  0  0  0  0  0  0
  149.8511  141.9009  157.0553 C   0  0  0  0  0  0  0  0  0  0  0  0
  150.6728  140.9207  156.4661 C   0  0  0  0  0  0  0  0  0  0  0  0
  146.6000  136.6119  154.0251 C   0  0  0  0  0  0  0  0  0  0  0  0
  146.3377  135.2230  153.4176 C   0  0  0  0  0  0  0  0  0  0  0  0
  145.8899  133.5271  151.2157 H   0  0  0  0  0  0  0  0  0  0  0  0
  144.2005  133.9555  150.9575 H   0  0  0  0  0  0  0  0  0  0  0  0
  144.6893  133.1740  152.4560 H   0  0  0  0  0  0  0  0  0  0  0  0
  144.3104  135.5952  152.8213 H   0  0  0  0  0  0  0  0  0  0  0  0
  146.5018  136.0111  150.7392 H   0  0  0  0  0  0  0  0  0  0  0  0
  144.8162  136.4329  150.5552 H   0  0  0  0  0  0  0  0  0  0  0  0
  146.1735  138.4106  151.1662 H   0  0  0  0  0  0  0  0  0  0  0  0
  144.9739  138.0847  152.3963 H   0  0  0  0  0  0  0  0  0  0  0  0
  147.4185  139.6321  152.7204 H   0  0  0  0  0  0  0  0  0  0  0  0
  146.5557  139.2945  154.1951 H   0  0  0  0  0  0  0  0  0  0  0  0
  149.2944  138.0507  153.9517 H   0  0  0  0  0  0  0  0  0  0  0  0
  149.1292  138.6015  156.2095 H   0  0  0  0  0  0  0  0  0  0  0  0
  149.8667  140.3551  153.3766 H   0  0  0  0  0  0  0  0  0  0  0  0
  148.8114  140.9997  154.5972 H   0  0  0  0  0  0  0  0  0  0  0  0
  151.2091  138.4703  153.4402 H   0  0  0  0  0  0  0  0  0  0  0  0
  152.9269  138.6305  153.7090 H   0  0  0  0  0  0  0  0  0  0  0  0
  151.8348  137.0694  155.5991 H   0  0  0  0  0  0  0  0  0  0  0  0
  153.2513  140.9116  158.7121 H   0  0  0  0  0  0  0  0  0  0  0  0
  151.8061  142.6381  159.7609 H   0  0  0  0  0  0  0  0  0  0  0  0
  149.6434  143.2726  158.7127 H   0  0  0  0  0  0  0  0  0  0  0  0
  148.9112  142.1779  156.6015 H   0  0  0  0  0  0  0  0  0  0  0  0
  147.4138  136.5362  154.7475 H   0  0  0  0  0  0  0  0  0  0  0  0
  145.7211  136.9582  154.5710 H   0  0  0  0  0  0  0  0  0  0  0  0
  146.0530  134.5257  154.2065 H   0  0  0  0  0  0  0  0  0  0  0  0
  147.2606  134.8361  152.9828 H   0  0  0  0  0  0  0  0  0  0  0  0
  147.7781  137.2378  152.5150 H   0  0  0  0  0  0  0  0  0  0  0  0
  1  2  1  0  0  0  0
  1 23  1  0  0  0  0
  1 24  1  0  0  0  0
  1 25  1  0  0  0  0
  2 22  1  0  0  0  0
  2  3  1  0  0  0  0
  2 26  1  0  0  0  0
  3  4  1  0  0  0  0
  3 27  1  0  0  0  0
  3 28  1  0  0  0  0
  4  5  1  0  0  0  0
  4 29  1  0  0  0  0
  4 30  1  0  0  0  0
  5  6  1  0  0  0  0
  5 21  1  0  0  0  0
  5 48  1  0  0  0  0
  6  7  1  0  0  0  0
  6 31  1  0  0  0  0
  6 32  1  0  0  0  0
  7  8  1  0  0  0  0
  7  9  1  0  0  0  0
  7 33  1  0  0  0  0
  8 34  1  0  0  0  0
  9 10  1  0  0  0  0
  9 35  1  0  0  0  0
  9 36  1  0  0  0  0
 10 20  1  0  0  0  0
 10 11  1  0  0  0  0
 11 12  1  0  0  0  0
 11 14  2  0  0  0  0
 12 13  1  0  0  0  0
 12 37  1  0  0  0  0
 12 38  1  0  0  0  0
 13 39  1  0  0  0  0
 14 15  1  0  0  0  0
 15 20  2  0  0  0  0
 15 16  1  0  0  0  0
 16 17  2  0  0  0  0
 16 40  1  0  0  0  0
 17 18  1  0  0  0  0
 17 41  1  0  0  0  0
 18 19  2  0  0  0  0
 18 42  1  0  0  0  0
 19 20  1  0  0  0  0
 19 43  1  0  0  0  0
 21 22  1  0  0  0  0
 21 44  1  0  0  0  0
 21 45  1  0  0  0  0
 22 46  1  0  0  0  0
 22 47  1  0  0  0  0
M  CHG  1   5   1
M  END
> <s_m_source_file>
AV-unprocessed.smi

> <i_m_source_file_index>
1672

> <i_lp_mmshare_version>
43012

> <i_f3d_flags>
0

> <s_epik_input>
W0NIM11bQ0hdMVtDSDJdW0NIMl1OKFtDSDJdW0NIMl0xKVtDSDJdW0NASF0oW09IXSlbQ0gyXW4oYyhuMilbQ0gyXVtPSF0pYyhjMjMpW2NIXVtjSF1bY0hdW2NIXTM=

> <s_epik_cmdline>
J2VwaWtfcHl0aG9uJywgJy1waCcsICc3LjAnLCAnLXRuJywgJzgnLCAnLW1hJywgJzIwMCcsICctbWV0YWxfYmluZGluZycsICctaW1hZScsICc8aW5maWxlLm1hZT4nLCAnLW9tYWUnLCAnPG91dGZpbGUubWFlPic=

> <r_epik_Ionization_Penalty>
0.0498263

> <r_epik_Ionization_Penalty_Charging>
0.00181365

> <r_epik_Ionization_Penalty_Neutral>
0.0480127

> <r_epik_State_Penalty>
0.0408546

> <r_epik_Charging_Adjusted_Penalty>
0.0426682

> <i_epik_Tot_Q>
1

> <i_epik_Tot_abs_Q>
1

> <r_epik_Metal_State_Penalty>
4.22946e-05

> <b_epik_Metal_Only>
0

> <s_lp_Force_Field>
OPLS_2005

> <r_lp_Energy>
22.4872

> <b_lp_Chiralities_Consistent>
1

> <s_lp_Variant>
AV-unprocessed.smi:1672-1

> <Gold.Version>
5.8.1

> <Gold.Id.Protein>
6NUR|6NUR_protein|mol2

> <Gold.PLP.Fitness>
48.1737

> <Gold.PLP.PLP>
-37.1802

> <Gold.PLP.part.hbond>
-3.0000

> <Gold.PLP.part.metal>
0.0000

> <Gold.PLP.part.buried>
-3.4113

> <Gold.PLP.part.nonpolar>
-31.2756

> <Gold.PLP.part.repulsive>
0.0318

> <Gold.PLP.ligand.clash>
0.0000

> <Gold.PLP.ligand.torsion>
0.5140

> <Gold.PLP.Chemscore.Hbond>
4.0000

> <Gold.PLP.Chemscore.CHOScore>
0.0000

> <Gold.PLP.Chemscore.Metal>
0.0000

> <Gold.Chemscore.Hbonds>
donor molecule, donor type, donor heavy atom, donor atom, acceptor molecule, acceptor atom, score
      L1  H     5    48       P1  7948  2.00
      P1  H  7997  8010       L1    14  1.00
      P1  H 10752 10763       L1    13  0.85

> <Gold.PLP.Chemscore.Internal.Correction>
0.0216

> <Gold.Rescore>
     Score         DG    S(hbond)    S(metal)    S(lipo)     H(rot)  DE(clash)    DE(int)     intcor
     16.97     -17.80       2.68        0.00      91.75       2.88       0.12       0.71       ----

> <Gold.Chemscore.Fitness>
16.9683

> <Gold.Chemscore.DG>
-17.8027

> <Gold.Chemscore.ZeroCoef>
-5.4800

> <Gold.Chemscore.Hbond>
2.6812

> <Gold.Chemscore.Metal>
0.0000

> <Gold.Chemscore.Lipo>
91.7471

> <Gold.Chemscore.Internal_Hbond>
0.0000

> <Gold.Chemscore.DEClash>
0.1210

> <Gold.Chemscore.DEInternal>
0.7133

> <Gold.Chemscore.Rot>
2.8778

> <Gold.Chemscore.Internal.Correction>
   9.000000E+99

> <Gold.Chemscore.Hbonds>
donor molecule, donor type, donor heavy atom, donor atom, acceptor molecule, acceptor atom, score
      L1  H     5    48       P1  7948  1.00
      P1  H  7997  8010       L1    14  0.35
      P1  H 10752 10763       L1    13  0.19

> <Gold.Chemscore.Hbond.Weighted>
-8.9553

> <Gold.Chemscore.Metal.Weighted>
-0.0000

> <Gold.Chemscore.Lipo.Weighted>
-10.7344

> <Gold.Chemscore.Internal_Hbond.Weighted>
0.0000

> <Gold.Chemscore.DEClash.Weighted>
0.1210

> <Gold.Chemscore.DEInternal.Weighted>
0.7133

> <Gold.Chemscore.Rot.Weighted>
7.3671

> <Gold.Chemscore.Internal.Correction.Weighted>
   9.000000E+99

> <Gold.Protein.RotatedTorsions>
[ 6907 6896 6895 6894 ] final -101.95 input  -60.11 | X-H torsion
[ 7974 7965 7964 7962 ] final   31.48 input  175.53 | X-H torsion
[ 8008 7997 7996 7995 ] final   73.54 input   59.86 | X-H torsion
[ 10167 10162 10161 10158 ] final   -8.50 input  -65.29 | X-H torsion
[ 10718 10713 10712 10709 ] final  -37.80 input   66.30 | X-H torsion
[ 10763 10752 10751 10750 ] final   60.62 input  -60.55 | X-H torsion
[ 11005 11000 10999 10996 ] final  -16.19 input  -57.11 | X-H torsion

> <Gold.Protein.ActiveResidues>
 VAL166  LYS551  ARG553  GLY616  TRP617  ASP618  TYR619  PRO620  LYS621  CYS622 
 ASP623  PHE694  ASN695  SER759  ASP760  ASP761  ALA762  ILE779  LEU786  VAL792 
 PHE793  MET794  SER795  GLU796  ALA797  LYS798  CYS799  TRP800  GLU811  SER814 

> <Gold.Protein.RotatedAtoms>
  150.7175  134.0656  159.3846 H   0  0  0  0  0  0  0  0  0  0  0  0  # atno 6907 bound_to 6896
  151.8637  135.0512  160.0481 H   0  0  0  0  0  0  0  0  0  0  0  0  # atno 6908 bound_to 6896
  152.2697  133.5335  159.5468 H   0  0  0  0  0  0  0  0  0  0  0  0  # atno 6909 bound_to 6896
  146.1547  139.6651  142.9074 H   0  0  0  0  0  0  0  0  0  0  0  0  # atno 7974 bound_to 7965
  155.7852  140.3481  155.5319 H   0  0  0  0  0  0  0  0  0  0  0  0  # atno 8008 bound_to 7997
  155.8689  140.0983  157.1584 H   0  0  0  0  0  0  0  0  0  0  0  0  # atno 8009 bound_to 7997
  154.4016  140.1344  156.4041 H   0  0  0  0  0  0  0  0  0  0  0  0  # atno 8010 bound_to 7997
  140.7061  143.5962  150.8843 H   0  0  0  0  0  0  0  0  0  0  0  0  # atno 10167 bound_to 10162
  156.3110  130.4252  149.8050 H   0  0  0  0  0  0  0  0  0  0  0  0  # atno 10718 bound_to 10713
  152.9926  135.5530  154.5903 H   0  0  0  0  0  0  0  0  0  0  0  0  # atno 10763 bound_to 10752
  154.5266  135.2811  155.1219 H   0  0  0  0  0  0  0  0  0  0  0  0  # atno 10764 bound_to 10752
  154.2551  135.6391  153.5307 H   0  0  0  0  0  0  0  0  0  0  0  0  # atno 10765 bound_to 10752
  140.8043  133.8190  155.9500 H   0  0  0  0  0  0  0  0  0  0  0  0  # atno 11005 bound_to 11000
  145.4737  141.0436  143.2684 LP  0  0  0  0  0  0  0  0  0  0  0  0  # atno 17320 bound_to 7965
  144.7948  139.6255  143.7097 LP  0  0  0  0  0  0  0  0  0  0  0  0  # atno 17321 bound_to 7965
  139.9687  143.6081  152.2980 LP  0  0  0  0  0  0  0  0  0  0  0  0  # atno 17342 bound_to 10162
  139.6660  144.7662  151.1872 LP  0  0  0  0  0  0  0  0  0  0  0  0  # atno 17343 bound_to 10162
  156.5393  130.8293  151.3263 LP  0  0  0  0  0  0  0  0  0  0  0  0  # atno 17370 bound_to 10713
  157.7391  130.9825  150.2292 LP  0  0  0  0  0  0  0  0  0  0  0  0  # atno 17371 bound_to 10713
  140.9263  134.2078  157.4893 LP  0  0  0  0  0  0  0  0  0  0  0  0  # atno 17394 bound_to 11000
  139.8719  134.9814  156.5114 LP  0  0  0  0  0  0  0  0  0  0  0  0  # atno 17395 bound_to 11000

$$$$
