AV-unprocessed.smi:2306|AV-procd|sdf|9249|dock3
  -GOLD-   2272012473D 1   1.00000     0.00000
 Structure written by MMmdl.
 41 42  0  0  0  0  0  0  0  0  1 V2000
  145.1306  131.6735  150.4261 C   0  0  0  0  0  0  0  0  0  0  0  0
  145.2216  133.0949  150.9525 C   0  0  0  0  0  0  0  0  0  0  0  0
  144.4761  134.0475  150.2521 N   0  0  0  0  0  0  0  0  0  0  0  0
  144.4982  135.2850  150.6253 C   0  0  0  0  0  0  0  0  0  0  0  0
  145.2589  135.7107  151.7275 N   0  0  0  0  0  0  0  0  0  0  0  0
  145.2019  137.1471  152.0484 C   0  0  0  0  0  0  0  0  0  0  0  0
  146.5429  137.8620  151.7661 C   0  0  1  0  0  0  0  0  0  0  0  0
  146.5724  138.3641  150.4453 O   0  0  0  0  0  0  0  0  0  0  0  0
  146.8051  139.0446  152.7148 C   0  0  0  0  0  0  0  0  0  0  0  0
  147.9047  138.7517  153.5631 O   0  0  0  0  0  0  0  0  0  0  0  0
  148.5463  139.9136  154.0620 C   0  0  0  0  0  0  0  0  0  0  0  0
  149.9744  139.6295  154.4867 C   0  0  0  0  0  0  0  0  0  0  0  0
  150.6416  138.4817  154.0093 C   0  0  0  0  0  0  0  0  0  0  0  0
  151.9630  138.2103  154.4156 C   0  0  0  0  0  0  0  0  0  0  0  0
  152.6199  139.0815  155.3061 C   0  0  0  0  0  0  0  0  0  0  0  0
  151.9542  140.2233  155.7921 C   0  0  0  0  0  0  0  0  0  0  0  0
  150.6333  140.4956  155.3856 C   0  0  0  0  0  0  0  0  0  0  0  0
  146.0003  134.8440  152.4758 C   0  0  0  0  0  0  0  0  0  0  0  0
  146.6452  135.2222  153.4554 O   0  0  0  0  0  0  0  0  0  0  0  0
  145.9725  133.4403  152.0338 C   0  0  0  0  0  0  0  0  0  0  0  0
  146.8050  132.4468  152.8348 C   0  0  0  0  0  0  0  0  0  0  0  0
  144.7500  131.0035  151.1973 H   0  0  0  0  0  0  0  0  0  0  0  0
  146.1122  131.3203  150.1094 H   0  0  0  0  0  0  0  0  0  0  0  0
  144.4599  131.6094  149.5684 H   0  0  0  0  0  0  0  0  0  0  0  0
  143.9303  136.0659  150.1166 H   0  0  0  0  0  0  0  0  0  0  0  0
  144.3829  137.6436  151.5244 H   0  0  0  0  0  0  0  0  0  0  0  0
  144.9492  137.2649  153.1045 H   0  0  0  0  0  0  0  0  0  0  0  0
  147.3720  137.1606  151.8678 H   0  0  0  0  0  0  0  0  0  0  0  0
  145.7582  138.1414  150.0199 H   0  0  0  0  0  0  0  0  0  0  0  0
  147.0451  139.9296  152.1234 H   0  0  0  0  0  0  0  0  0  0  0  0
  145.9129  139.2814  153.2975 H   0  0  0  0  0  0  0  0  0  0  0  0
  148.5649  140.6891  153.2949 H   0  0  0  0  0  0  0  0  0  0  0  0
  147.9831  140.3064  154.9101 H   0  0  0  0  0  0  0  0  0  0  0  0
  150.1439  137.8067  153.3286 H   0  0  0  0  0  0  0  0  0  0  0  0
  152.4721  137.3329  154.0450 H   0  0  0  0  0  0  0  0  0  0  0  0
  153.6327  138.8733  155.6179 H   0  0  0  0  0  0  0  0  0  0  0  0
  152.4562  140.8899  156.4779 H   0  0  0  0  0  0  0  0  0  0  0  0
  150.1279  141.3717  155.7651 H   0  0  0  0  0  0  0  0  0  0  0  0
  147.8532  132.7479  152.8344 H   0  0  0  0  0  0  0  0  0  0  0  0
  146.7569  131.4319  152.4436 H   0  0  0  0  0  0  0  0  0  0  0  0
  146.4620  132.4170  153.8695 H   0  0  0  0  0  0  0  0  0  0  0  0
  1  2  1  0  0  0  0
  1 22  1  0  0  0  0
  1 23  1  0  0  0  0
  1 24  1  0  0  0  0
  2 20  2  0  0  0  0
  2  3  1  0  0  0  0
  3  4  2  0  0  0  0
  4  5  1  0  0  0  0
  4 25  1  0  0  0  0
  5  6  1  0  0  0  0
  5 18  1  0  0  0  0
  6  7  1  0  0  0  0
  6 26  1  0  0  0  0
  6 27  1  0  0  0  0
  7  8  1  0  0  0  0
  7  9  1  0  0  0  0
  7 28  1  0  0  0  0
  8 29  1  0  0  0  0
  9 10  1  0  0  0  0
  9 30  1  0  0  0  0
  9 31  1  0  0  0  0
 10 11  1  0  0  0  0
 11 12  1  0  0  0  0
 11 32  1  0  0  0  0
 11 33  1  0  0  0  0
 12 17  1  0  0  0  0
 12 13  2  0  0  0  0
 13 14  1  0  0  0  0
 13 34  1  0  0  0  0
 14 15  2  0  0  0  0
 14 35  1  0  0  0  0
 15 16  1  0  0  0  0
 15 36  1  0  0  0  0
 16 17  2  0  0  0  0
 16 37  1  0  0  0  0
 17 38  1  0  0  0  0
 18 19  2  0  0  0  0
 18 20  1  0  0  0  0
 20 21  1  0  0  0  0
 21 39  1  0  0  0  0
 21 40  1  0  0  0  0
 21 41  1  0  0  0  0
M  END
> <s_m_source_file>
AV-unprocessed.smi

> <i_m_source_file_index>
2306

> <i_lp_mmshare_version>
43012

> <i_f3d_flags>
0

> <s_epik_input>
W0NIM11jMW5bY0hdbihjKD1PKWMxW0NIM10pW0NIMl1bQ0BIXShbT0hdKVtDSDJdT1tDSDJdYzJbY0hdW2NIXVtjSF1bY0hdW2NIXTI=

> <s_epik_cmdline>
J2VwaWtfcHl0aG9uJywgJy1waCcsICc3LjAnLCAnLXRuJywgJzgnLCAnLW1hJywgJzIwMCcsICctbWV0YWxfYmluZGluZycsICctaW1hZScsICc8aW5maWxlLm1hZT4nLCAnLW9tYWUnLCAnPG91dGZpbGUubWFlPic=

> <r_lp_tautomer_probability>
1

> <r_epik_Ionization_Penalty>
5.35985e-05

> <r_epik_Ionization_Penalty_Charging>
1.17753e-07

> <r_epik_Ionization_Penalty_Neutral>
5.34808e-05

> <r_epik_State_Penalty>
-0

> <r_epik_Charging_Adjusted_Penalty>
1.17753e-07

> <i_epik_Tot_Q>
0

> <i_epik_Tot_abs_Q>
0

> <r_epik_Metal_State_Penalty>
-0

> <b_epik_Metal_Only>
0

> <s_lp_Force_Field>
OPLS_2005

> <r_lp_Energy>
24.4772

> <b_lp_Chiralities_Consistent>
1

> <s_lp_Variant>
AV-unprocessed.smi:2306-2

> <Gold.Version>
5.8.1

> <Gold.Id.Protein>
6NUR|6NUR_protein|mol2

> <Gold.PLP.Fitness>
48.3098

> <Gold.PLP.PLP>
-43.1808

> <Gold.PLP.part.hbond>
-2.0000

> <Gold.PLP.part.metal>
0.0000

> <Gold.PLP.part.buried>
-2.1777

> <Gold.PLP.part.nonpolar>
-40.7787

> <Gold.PLP.part.repulsive>
2.0375

> <Gold.PLP.ligand.clash>
0.0000

> <Gold.PLP.ligand.torsion>
1.7260

> <Gold.PLP.Chemscore.Hbond>
1.8000

> <Gold.PLP.Chemscore.CHOScore>
1.0000

> <Gold.PLP.Chemscore.Metal>
0.0000

> <Gold.Chemscore.Hbonds>
donor molecule, donor type, donor heavy atom, donor atom, acceptor molecule, acceptor atom, score
      L1  H     8    29       P1 10171  0.93
      P1  H  7954  7966       L1     8  0.82
      L1  C     4    25       P1 10171  1.00

> <Gold.PLP.Chemscore.Internal.Correction>
0.1809

> <Gold.Rescore>
     Score         DG    S(hbond)    S(metal)    S(lipo)     H(rot)  DE(clash)    DE(int)     intcor
     13.42     -15.49       1.52        0.00      97.33       2.52       0.21       1.86       ----

> <Gold.Chemscore.Fitness>
13.4196

> <Gold.Chemscore.DG>
-15.4892

> <Gold.Chemscore.ZeroCoef>
-5.4800

> <Gold.Chemscore.Hbond>
1.5158

> <Gold.Chemscore.Metal>
0.0000

> <Gold.Chemscore.Lipo>
97.3306

> <Gold.Chemscore.Internal_Hbond>
0.0000

> <Gold.Chemscore.DEClash>
0.2112

> <Gold.Chemscore.DEInternal>
1.8584

> <Gold.Chemscore.Rot>
2.5162

> <Gold.Chemscore.Internal.Correction>
   9.000000E+99

> <Gold.Chemscore.Hbonds>
donor molecule, donor type, donor heavy atom, donor atom, acceptor molecule, acceptor atom, score
      L1  H     8    29       P1 10171  0.89
      P1  H  7954  7966       L1     8  0.32

> <Gold.Chemscore.Hbond.Weighted>
-5.0629

> <Gold.Chemscore.Metal.Weighted>
-0.0000

> <Gold.Chemscore.Lipo.Weighted>
-11.3877

> <Gold.Chemscore.Internal_Hbond.Weighted>
0.0000

> <Gold.Chemscore.DEClash.Weighted>
0.2112

> <Gold.Chemscore.DEInternal.Weighted>
1.8584

> <Gold.Chemscore.Rot.Weighted>
6.4414

> <Gold.Chemscore.Internal.Correction.Weighted>
   9.000000E+99

> <Gold.Protein.RotatedTorsions>
[ 6907 6896 6895 6894 ] final    3.20 input  -60.11 | X-H torsion
[ 7974 7965 7964 7962 ] final   72.45 input  175.53 | X-H torsion
[ 8008 7997 7996 7995 ] final   41.80 input   59.86 | X-H torsion
[ 10167 10162 10161 10158 ] final  163.41 input  -65.29 | X-H torsion
[ 10718 10713 10712 10709 ] final  109.55 input   66.30 | X-H torsion
[ 10763 10752 10751 10750 ] final   63.08 input  -60.55 | X-H torsion
[ 11005 11000 10999 10996 ] final -176.17 input  -57.11 | X-H torsion

> <Gold.Protein.ActiveResidues>
 VAL166  LYS551  ARG553  GLY616  TRP617  ASP618  TYR619  PRO620  LYS621  CYS622 
 ASP623  PHE694  ASN695  SER759  ASP760  ASP761  ALA762  ILE779  LEU786  VAL792 
 PHE793  MET794  SER795  GLU796  ALA797  LYS798  CYS799  TRP800  GLU811  SER814 

> <Gold.Protein.RotatedAtoms>
  151.6212  135.1032  160.0101 H   0  0  0  0  0  0  0  0  0  0  0  0  # atno 6907 bound_to 6896
  152.4156  133.7029  159.6445 H   0  0  0  0  0  0  0  0  0  0  0  0  # atno 6908 bound_to 6896
  150.8045  133.8462  159.3234 H   0  0  0  0  0  0  0  0  0  0  0  0  # atno 6909 bound_to 6896
  145.7532  139.2768  143.1419 H   0  0  0  0  0  0  0  0  0  0  0  0  # atno 7974 bound_to 7965
  155.2756  140.3369  155.4262 H   0  0  0  0  0  0  0  0  0  0  0  0  # atno 8008 bound_to 7997
  156.2113  140.1771  156.7730 H   0  0  0  0  0  0  0  0  0  0  0  0  # atno 8009 bound_to 7997
  154.5690  140.0673  156.8920 H   0  0  0  0  0  0  0  0  0  0  0  0  # atno 8010 bound_to 7997
  139.4873  144.4340  151.9035 H   0  0  0  0  0  0  0  0  0  0  0  0  # atno 10167 bound_to 10162
  157.6536  131.0916  150.6470 H   0  0  0  0  0  0  0  0  0  0  0  0  # atno 10718 bound_to 10713
  153.0005  135.5442  154.6295 H   0  0  0  0  0  0  0  0  0  0  0  0  # atno 10763 bound_to 10752
  154.5576  135.2831  155.0952 H   0  0  0  0  0  0  0  0  0  0  0  0  # atno 10764 bound_to 10752
  154.2167  135.6458  153.5184 H   0  0  0  0  0  0  0  0  0  0  0  0  # atno 10765 bound_to 10752
  140.4551  134.6307  157.4818 H   0  0  0  0  0  0  0  0  0  0  0  0  # atno 11005 bound_to 11000
  146.0337  140.8233  142.9863 LP  0  0  0  0  0  0  0  0  0  0  0  0  # atno 17320 bound_to 7965
  144.6845  140.2806  143.7292 LP  0  0  0  0  0  0  0  0  0  0  0  0  # atno 17321 bound_to 7965
  140.3789  144.2762  150.5911 LP  0  0  0  0  0  0  0  0  0  0  0  0  # atno 17342 bound_to 10162
  140.5252  143.2256  151.8327 LP  0  0  0  0  0  0  0  0  0  0  0  0  # atno 17343 bound_to 10162
  156.6779  130.4558  149.5637 LP  0  0  0  0  0  0  0  0  0  0  0  0  # atno 17370 bound_to 10713
  156.1950  130.6584  151.1104 LP  0  0  0  0  0  0  0  0  0  0  0  0  # atno 17371 bound_to 10713
  139.9981  134.6879  155.9575 LP  0  0  0  0  0  0  0  0  0  0  0  0  # atno 17394 bound_to 11000
  141.1646  133.6537  156.4437 LP  0  0  0  0  0  0  0  0  0  0  0  0  # atno 17395 bound_to 11000

$$$$
