AV-unprocessed.smi:123|AV-procd|sdf|1145|dock6
  -GOLD-   2262018273D 1   1.00000     0.00000
 Structure written by MMmdl.
 43 45  0  0  0  0  0  0  0  0  1 V2000
  153.2420  138.9034  158.3938 C   0  0  0  0  0  0  0  0  0  0  0  0
  152.0582  139.7001  158.9727 C   0  0  2  0  0  0  0  0  0  0  0  0
  150.7804  139.0609  158.6542 N   0  0  0  0  0  0  0  0  0  0  0  0
  150.4025  137.8131  158.9797 C   0  0  0  0  0  0  0  0  0  0  0  0
  151.1110  137.0358  159.6219 O   0  0  0  0  0  0  0  0  0  0  0  0
  149.0058  137.3939  158.4955 C   0  0  0  0  0  0  0  0  0  0  0  0
  148.5093  136.1553  159.1338 N   0  0  0  0  0  0  0  0  0  0  0  0
  148.6480  134.9281  158.4389 C   0  0  0  0  0  0  0  0  0  0  0  0
  149.1874  134.8779  157.3324 O   0  0  0  0  0  0  0  0  0  0  0  0
  148.1039  133.7563  159.1154 C   0  0  0  0  0  0  0  0  0  0  0  0
  148.1867  132.5504  158.5280 F   0  0  0  0  0  0  0  0  0  0  0  0
  147.5122  133.8634  160.3229 C   0  0  0  0  0  0  0  0  0  0  0  0
  147.3850  135.0679  160.9905 N   0  0  0  0  0  0  0  0  0  0  0  0
  146.6981  135.1578  162.3357 C   0  0  1  0  0  0  0  0  0  0  0  0
  145.4371  136.0223  162.2292 C   0  0  0  0  0  0  0  0  0  0  0  0
  144.3735  134.9837  161.9481 C   0  0  0  0  0  0  0  0  0  0  0  0
  144.8712  133.8031  162.7746 C   0  0  0  0  0  0  0  0  0  0  0  0
  146.2948  133.8782  162.7326 O   0  0  0  0  0  0  0  0  0  0  0  0
  147.8762  136.2506  160.3962 C   0  0  0  0  0  0  0  0  0  0  0  0
  147.7449  137.3394  160.9599 O   0  0  0  0  0  0  0  0  0  0  0  0
  152.0740  141.1573  158.6124 C   0  0  0  0  0  0  0  0  0  0  0  0
  152.9446  142.1867  158.8497 C   0  0  0  0  0  0  0  0  0  0  0  0
  152.3831  143.3406  158.2365 C   0  0  0  0  0  0  0  0  0  0  0  0
  151.2071  142.9332  157.6747 C   0  0  0  0  0  0  0  0  0  0  0  0
  151.0022  141.6068  157.8974 O   0  0  0  0  0  0  0  0  0  0  0  0
  154.1915  139.3048  158.7489 H   0  0  0  0  0  0  0  0  0  0  0  0
  153.2593  138.9357  157.3040 H   0  0  0  0  0  0  0  0  0  0  0  0
  153.1964  137.8564  158.6952 H   0  0  0  0  0  0  0  0  0  0  0  0
  152.1424  139.6389  160.0582 H   0  0  0  0  0  0  0  0  0  0  0  0
  150.1261  139.6180  158.1240 H   0  0  0  0  0  0  0  0  0  0  0  0
  148.3196  138.2258  158.6612 H   0  0  0  0  0  0  0  0  0  0  0  0
  149.0322  137.2854  157.4098 H   0  0  0  0  0  0  0  0  0  0  0  0
  147.1209  132.9624  160.7709 H   0  0  0  0  0  0  0  0  0  0  0  0
  147.4449  135.5422  163.0320 H   0  0  0  0  0  0  0  0  0  0  0  0
  145.2598  136.4999  163.1936 H   0  0  0  0  0  0  0  0  0  0  0  0
  145.5217  136.7934  161.4626 H   0  0  0  0  0  0  0  0  0  0  0  0
  143.3716  135.3094  162.2289 H   0  0  0  0  0  0  0  0  0  0  0  0
  144.3654  134.7288  160.8876 H   0  0  0  0  0  0  0  0  0  0  0  0
  144.5479  133.9045  163.8113 H   0  0  0  0  0  0  0  0  0  0  0  0
  144.5103  132.8452  162.3990 H   0  0  0  0  0  0  0  0  0  0  0  0
  153.8753  142.1174  159.3933 H   0  0  0  0  0  0  0  0  0  0  0  0
  152.7877  144.3417  158.2105 H   0  0  0  0  0  0  0  0  0  0  0  0
  150.4328  143.4312  157.1099 H   0  0  0  0  0  0  0  0  0  0  0  0
  1  2  1  0  0  0  0
  1 26  1  0  0  0  0
  1 27  1  0  0  0  0
  1 28  1  0  0  0  0
  2  3  1  0  0  0  0
  2 21  1  0  0  0  0
  2 29  1  0  0  0  0
  3  4  1  0  0  0  0
  3 30  1  0  0  0  0
  4  5  2  0  0  0  0
  4  6  1  0  0  0  0
  6  7  1  0  0  0  0
  6 31  1  0  0  0  0
  6 32  1  0  0  0  0
  7 19  1  0  0  0  0
  7  8  1  0  0  0  0
  8  9  2  0  0  0  0
  8 10  1  0  0  0  0
 10 11  1  0  0  0  0
 10 12  2  0  0  0  0
 12 13  1  0  0  0  0
 12 33  1  0  0  0  0
 13 14  1  0  0  0  0
 13 19  1  0  0  0  0
 14 18  1  0  0  0  0
 14 15  1  0  0  0  0
 14 34  1  0  0  0  0
 15 16  1  0  0  0  0
 15 35  1  0  0  0  0
 15 36  1  0  0  0  0
 16 17  1  0  0  0  0
 16 37  1  0  0  0  0
 16 38  1  0  0  0  0
 17 18  1  0  0  0  0
 17 39  1  0  0  0  0
 17 40  1  0  0  0  0
 19 20  2  0  0  0  0
 21 25  1  0  0  0  0
 21 22  2  0  0  0  0
 22 23  1  0  0  0  0
 22 41  1  0  0  0  0
 23 24  2  0  0  0  0
 23 42  1  0  0  0  0
 24 25  1  0  0  0  0
 24 43  1  0  0  0  0
M  END
> <s_m_source_file>
AV-unprocessed.smi

> <i_m_source_file_index>
123

> <i_lp_mmshare_version>
43012

> <i_f3d_flags>
0

> <s_epik_input>
bzFbY0hdW2NIXVtjSF1jMVtDQEhdKFtDSDNdKVtOSF1DKD1PKVtDSDJdbjJjKD1PKWMoRilbY0hdbihjMj1PKVtDQEBIXTNbQ0gyXVtDSDJdW0NIMl1PMw==

> <s_epik_cmdline>
J2VwaWtfcHl0aG9uJywgJy1waCcsICc3LjAnLCAnLXRuJywgJzgnLCAnLW1hJywgJzIwMCcsICctbWV0YWxfYmluZGluZycsICctaW1hZScsICc8aW5maWxlLm1hZT4nLCAnLW9tYWUnLCAnPG91dGZpbGUubWFlPic=

> <r_lp_tautomer_probability>
1

> <r_epik_Ionization_Penalty>
2.31906e-08

> <r_epik_Ionization_Penalty_Charging>
3.85846e-09

> <r_epik_Ionization_Penalty_Neutral>
1.93321e-08

> <r_epik_State_Penalty>
-0

> <r_epik_Charging_Adjusted_Penalty>
3.85846e-09

> <i_epik_Tot_Q>
0

> <i_epik_Tot_abs_Q>
0

> <r_epik_Metal_State_Penalty>
-0

> <b_epik_Metal_Only>
0

> <s_epik_Chemistry_Notes>
This compound contains an acetal/aminal-like group ( X-CH(R)-Y where X, Y are N, S, or O) that may be acid/base labile, releasing an aldehyde.

> <s_lp_Force_Field>
OPLS_2005

> <r_lp_Energy>
21.1126

> <b_lp_Chiralities_Consistent>
1

> <s_lp_Variant>
AV-unprocessed.smi:123-3

> <Gold.Version>
5.8.1

> <Gold.Id.Protein>
6NUR|6NUR_protein|mol2

> <Gold.PLP.Fitness>
49.9329

> <Gold.PLP.PLP>
-39.9325

> <Gold.PLP.part.hbond>
-3.6644

> <Gold.PLP.part.metal>
0.0000

> <Gold.PLP.part.buried>
-3.9036

> <Gold.PLP.part.nonpolar>
-32.6917

> <Gold.PLP.part.repulsive>
0.2395

> <Gold.PLP.ligand.clash>
0.0000

> <Gold.PLP.ligand.torsion>
0.6043

> <Gold.PLP.Chemscore.Hbond>
2.6960

> <Gold.PLP.Chemscore.CHOScore>
1.0000

> <Gold.PLP.Chemscore.Metal>
0.0000

> <Gold.Chemscore.Hbonds>
donor molecule, donor type, donor heavy atom, donor atom, acceptor molecule, acceptor atom, score
      P1  H  6896  6908       L1     5  1.00
      P1  H  6931  6943       L1    20  0.82
      P1  H  6934  6947       L1    20  0.85
      L1  C    24    43       P1  8028  1.00

> <Gold.PLP.Chemscore.Internal.Correction>
0.1211

> <Gold.Rescore>
     Score         DG    S(hbond)    S(metal)    S(lipo)     H(rot)  DE(clash)    DE(int)     intcor
     16.75     -18.61       2.74        0.00      82.87       2.23       0.13       1.73       ----

> <Gold.Chemscore.Fitness>
16.7480

> <Gold.Chemscore.DG>
-18.6116

> <Gold.Chemscore.ZeroCoef>
-5.4800

> <Gold.Chemscore.Hbond>
2.7415

> <Gold.Chemscore.Metal>
0.0000

> <Gold.Chemscore.Lipo>
82.8704

> <Gold.Chemscore.Internal_Hbond>
0.0000

> <Gold.Chemscore.DEClash>
0.1344

> <Gold.Chemscore.DEInternal>
1.7293

> <Gold.Chemscore.Rot>
2.2347

> <Gold.Chemscore.Internal.Correction>
   9.000000E+99

> <Gold.Chemscore.Hbonds>
donor molecule, donor type, donor heavy atom, donor atom, acceptor molecule, acceptor atom, score
      P1  H  6896  6908       L1     5  1.00
      P1  H  6931  6943       L1    20  0.81
      P1  H  6934  6947       L1    20  0.83

> <Gold.Chemscore.Hbond.Weighted>
-9.1565

> <Gold.Chemscore.Metal.Weighted>
-0.0000

> <Gold.Chemscore.Lipo.Weighted>
-9.6958

> <Gold.Chemscore.Internal_Hbond.Weighted>
0.0000

> <Gold.Chemscore.DEClash.Weighted>
0.1344

> <Gold.Chemscore.DEInternal.Weighted>
1.7293

> <Gold.Chemscore.Rot.Weighted>
5.7208

> <Gold.Chemscore.Internal.Correction.Weighted>
   9.000000E+99

> <Gold.Protein.RotatedTorsions>
[ 6907 6896 6895 6894 ] final -136.58 input  -60.11 | X-H torsion
[ 7974 7965 7964 7962 ] final  -19.29 input  175.53 | X-H torsion
[ 8008 7997 7996 7995 ] final   86.36 input   59.86 | X-H torsion
[ 10167 10162 10161 10158 ] final  170.69 input  -65.29 | X-H torsion
[ 10718 10713 10712 10709 ] final  -16.96 input   66.30 | X-H torsion
[ 10763 10752 10751 10750 ] final  -57.94 input  -60.55 | X-H torsion
[ 11005 11000 10999 10996 ] final  -29.63 input  -57.11 | X-H torsion

> <Gold.Protein.ActiveResidues>
 VAL166  LYS551  ARG553  GLY616  TRP617  ASP618  TYR619  PRO620  LYS621  CYS622 
 ASP623  PHE694  ASN695  SER759  ASP760  ASP761  ALA762  ILE779  LEU786  VAL792 
 PHE793  MET794  SER795  GLU796  ALA797  LYS798  CYS799  TRP800  GLU811  SER814 

> <Gold.Protein.RotatedAtoms>
  151.0118  133.5958  159.2681 H   0  0  0  0  0  0  0  0  0  0  0  0  # atno 6907 bound_to 6896
  151.3107  135.0792  159.9281 H   0  0  0  0  0  0  0  0  0  0  0  0  # atno 6908 bound_to 6896
  152.5301  133.9783  159.7849 H   0  0  0  0  0  0  0  0  0  0  0  0  # atno 6909 bound_to 6896
  146.1849  140.4041  142.8480 H   0  0  0  0  0  0  0  0  0  0  0  0  # atno 7974 bound_to 7965
  155.9617  140.3393  155.6497 H   0  0  0  0  0  0  0  0  0  0  0  0  # atno 8008 bound_to 7997
  155.6789  140.0735  157.2510 H   0  0  0  0  0  0  0  0  0  0  0  0  # atno 8009 bound_to 7997
  154.4145  140.1678  156.1948 H   0  0  0  0  0  0  0  0  0  0  0  0  # atno 8010 bound_to 7997
  139.5025  144.3569  151.9865 H   0  0  0  0  0  0  0  0  0  0  0  0  # atno 10167 bound_to 10162
  156.5802  130.4772  149.6324 H   0  0  0  0  0  0  0  0  0  0  0  0  # atno 10718 bound_to 10713
  154.2304  135.6362  153.5173 H   0  0  0  0  0  0  0  0  0  0  0  0  # atno 10763 bound_to 10752
  152.9950  135.5518  154.6019 H   0  0  0  0  0  0  0  0  0  0  0  0  # atno 10764 bound_to 10752
  154.5500  135.2901  155.0991 H   0  0  0  0  0  0  0  0  0  0  0  0  # atno 10765 bound_to 10752
  140.9313  133.7336  156.0940 H   0  0  0  0  0  0  0  0  0  0  0  0  # atno 11005 bound_to 11000
  144.8379  140.6811  143.6248 LP  0  0  0  0  0  0  0  0  0  0  0  0  # atno 17320 bound_to 7965
  145.3968  139.1605  143.4199 LP  0  0  0  0  0  0  0  0  0  0  0  0  # atno 17321 bound_to 7965
  140.3005  144.3652  150.6061 LP  0  0  0  0  0  0  0  0  0  0  0  0  # atno 17342 bound_to 10162
  140.5877  143.2169  151.7311 LP  0  0  0  0  0  0  0  0  0  0  0  0  # atno 17343 bound_to 10162
  156.2638  130.6978  151.1754 LP  0  0  0  0  0  0  0  0  0  0  0  0  # atno 17370 bound_to 10713
  157.7328  131.0596  150.5608 LP  0  0  0  0  0  0  0  0  0  0  0  0  # atno 17371 bound_to 10713
  140.7858  134.3673  157.5476 LP  0  0  0  0  0  0  0  0  0  0  0  0  # atno 17394 bound_to 11000
  139.8797  134.9110  156.3027 LP  0  0  0  0  0  0  0  0  0  0  0  0  # atno 17395 bound_to 11000

$$$$
