AV-unprocessed.smi:33|AV-procd|sdf|212|dock4
  -GOLD-   2262015513D 1   1.00000     0.00000
 Structure written by MMmdl.
 67 72  0  0  0  0  0  0  0  0  1 V2000
  154.5615  139.7292  158.9233 O   0  0  0  0  0  0  0  0  0  0  0  0
  153.4568  140.1943  158.6354 C   0  0  0  0  0  0  0  0  0  0  0  0
  152.5913  139.5953  157.7945 O   0  0  0  0  0  0  0  0  0  0  0  0
  152.8617  138.2914  157.3071 C   0  0  0  0  0  0  0  0  0  0  0  0
  152.1986  138.1191  155.9352 C   0  0  1  0  0  0  0  0  0  0  0  0
  152.2261  136.7601  155.5266 O   0  0  0  0  0  0  0  0  0  0  0  0
  151.2540  136.5704  154.5466 C   0  0  1  0  0  0  0  0  0  0  0  0
  150.6571  135.2145  154.7364 N   0  0  0  0  0  0  0  0  0  0  0  0
  150.5967  134.1900  153.8181 C   0  0  0  0  0  0  0  0  0  0  0  0
  149.9958  133.1054  154.2275 N   0  0  0  0  0  0  0  0  0  0  0  0
  149.6196  133.4027  155.5311 C   0  0  0  0  0  0  0  0  0  0  0  0
  148.9299  132.6886  156.5479 C   0  0  0  0  0  0  0  0  0  0  0  0
  148.4603  131.4305  156.3739 N   0  0  0  0  0  0  0  0  0  0  0  0
  147.0967  131.1525  156.8474 C   0  0  0  0  0  0  0  0  0  0  0  0
  146.2804  132.0725  156.9257 O   0  0  0  0  0  0  0  0  0  0  0  0
  146.6810  129.7496  157.1887 C   0  0  0  0  0  0  0  0  0  0  0  0
  145.3116  129.4062  157.2233 C   0  0  0  0  0  0  0  0  0  0  0  0
  144.9166  128.0961  157.5569 C   0  0  0  0  0  0  0  0  0  0  0  0
  145.8864  127.1266  157.8758 C   0  0  0  0  0  0  0  0  0  0  0  0
  147.2518  127.4699  157.8710 C   0  0  0  0  0  0  0  0  0  0  0  0
  147.6477  128.7795  157.5375 C   0  0  0  0  0  0  0  0  0  0  0  0
  149.3581  130.4588  155.7311 C   0  0  0  0  0  0  0  0  0  0  0  0
  148.8794  129.4862  155.1440 O   0  0  0  0  0  0  0  0  0  0  0  0
  150.8456  130.6726  155.7342 C   0  0  0  0  0  0  0  0  0  0  0  0
  151.6121  130.3149  154.6033 C   0  0  0  0  0  0  0  0  0  0  0  0
  153.0087  130.4965  154.6051 C   0  0  0  0  0  0  0  0  0  0  0  0
  153.6502  131.0195  155.7440 C   0  0  0  0  0  0  0  0  0  0  0  0
  152.8957  131.3524  156.8850 C   0  0  0  0  0  0  0  0  0  0  0  0
  151.4990  131.1717  156.8838 C   0  0  0  0  0  0  0  0  0  0  0  0
  148.7288  133.3095  157.7391 N   0  0  0  0  0  0  0  0  0  0  0  0
  149.1732  134.5563  157.9208 C   0  0  0  0  0  0  0  0  0  0  0  0
  149.8241  135.3438  157.0618 N   0  0  0  0  0  0  0  0  0  0  0  0
  150.0309  134.7226  155.8642 C   0  0  0  0  0  0  0  0  0  0  0  0
  150.1845  137.6630  154.7239 C   0  0  2  0  0  0  0  0  0  0  0  0
  150.0867  138.4942  153.5849 O   0  0  0  0  0  0  0  0  0  0  0  0
  150.7087  138.4636  155.9085 C   0  0  1  0  0  0  0  0  0  0  0  0
  150.1029  138.0534  157.0243 F   0  0  0  0  0  0  0  0  0  0  0  0
  152.9390  141.4829  159.1795 C   0  0  0  0  0  0  0  0  0  0  0  0
  152.0311  142.2457  158.4082 C   0  0  0  0  0  0  0  0  0  0  0  0
  151.5223  143.4647  158.8971 C   0  0  0  0  0  0  0  0  0  0  0  0
  151.9163  143.9368  160.1626 C   0  0  0  0  0  0  0  0  0  0  0  0
  152.8205  143.1886  160.9387 C   0  0  0  0  0  0  0  0  0  0  0  0
  153.3294  141.9686  160.4520 C   0  0  0  0  0  0  0  0  0  0  0  0
  153.9365  138.1181  157.2333 H   0  0  0  0  0  0  0  0  0  0  0  0
  152.4568  137.5639  158.0118 H   0  0  0  0  0  0  0  0  0  0  0  0
  152.7147  138.7215  155.1853 H   0  0  0  0  0  0  0  0  0  0  0  0
  151.7030  136.5481  153.5523 H   0  0  0  0  0  0  0  0  0  0  0  0
  151.0075  134.2767  152.8228 H   0  0  0  0  0  0  0  0  0  0  0  0
  144.5585  130.1419  156.9802 H   0  0  0  0  0  0  0  0  0  0  0  0
  143.8685  127.8355  157.5689 H   0  0  0  0  0  0  0  0  0  0  0  0
  145.5829  126.1221  158.1310 H   0  0  0  0  0  0  0  0  0  0  0  0
  147.9959  126.7295  158.1246 H   0  0  0  0  0  0  0  0  0  0  0  0
  148.6982  129.0330  157.5430 H   0  0  0  0  0  0  0  0  0  0  0  0
  151.1308  129.9120  153.7238 H   0  0  0  0  0  0  0  0  0  0  0  0
  153.5880  130.2329  153.7325 H   0  0  0  0  0  0  0  0  0  0  0  0
  154.7212  131.1586  155.7448 H   0  0  0  0  0  0  0  0  0  0  0  0
  153.3882  131.7450  157.7622 H   0  0  0  0  0  0  0  0  0  0  0  0
  150.9312  131.4262  157.7674 H   0  0  0  0  0  0  0  0  0  0  0  0
  148.9774  134.9859  158.8921 H   0  0  0  0  0  0  0  0  0  0  0  0
  149.2045  137.2288  154.9295 H   0  0  0  0  0  0  0  0  0  0  0  0
  150.0598  137.9462  152.8153 H   0  0  0  0  0  0  0  0  0  0  0  0
  150.5243  139.5359  155.8315 H   0  0  0  0  0  0  0  0  0  0  0  0
  151.7131  141.9029  157.4340 H   0  0  0  0  0  0  0  0  0  0  0  0
  150.8280  144.0373  158.3001 H   0  0  0  0  0  0  0  0  0  0  0  0
  151.5259  144.8715  160.5375 H   0  0  0  0  0  0  0  0  0  0  0  0
  153.1243  143.5499  161.9102 H   0  0  0  0  0  0  0  0  0  0  0  0
  154.0211  141.4192  161.0737 H   0  0  0  0  0  0  0  0  0  0  0  0
  1  2  2  0  0  0  0
  2  3  1  0  0  0  0
  2 38  1  0  0  0  0
  3  4  1  0  0  0  0
  4  5  1  0  0  0  0
  4 44  1  0  0  0  0
  4 45  1  0  0  0  0
  5 36  1  0  0  0  0
  5  6  1  0  0  0  0
  5 46  1  0  0  0  0
  6  7  1  0  0  0  0
  7  8  1  0  0  0  0
  7 34  1  0  0  0  0
  7 47  1  0  0  0  0
  8 33  1  0  0  0  0
  8  9  1  0  0  0  0
  9 10  2  0  0  0  0
  9 48  1  0  0  0  0
 10 11  1  0  0  0  0
 11 33  2  0  0  0  0
 11 12  1  0  0  0  0
 12 13  1  0  0  0  0
 12 30  2  0  0  0  0
 13 14  1  0  0  0  0
 13 22  1  0  0  0  0
 14 15  2  0  0  0  0
 14 16  1  0  0  0  0
 16 21  1  0  0  0  0
 16 17  2  0  0  0  0
 17 18  1  0  0  0  0
 17 49  1  0  0  0  0
 18 19  2  0  0  0  0
 18 50  1  0  0  0  0
 19 20  1  0  0  0  0
 19 51  1  0  0  0  0
 20 21  2  0  0  0  0
 20 52  1  0  0  0  0
 21 53  1  0  0  0  0
 22 23  2  0  0  0  0
 22 24  1  0  0  0  0
 24 29  1  0  0  0  0
 24 25  2  0  0  0  0
 25 26  1  0  0  0  0
 25 54  1  0  0  0  0
 26 27  2  0  0  0  0
 26 55  1  0  0  0  0
 27 28  1  0  0  0  0
 27 56  1  0  0  0  0
 28 29  2  0  0  0  0
 28 57  1  0  0  0  0
 29 58  1  0  0  0  0
 30 31  1  0  0  0  0
 31 32  2  0  0  0  0
 31 59  1  0  0  0  0
 32 33  1  0  0  0  0
 34 35  1  0  0  0  0
 34 36  1  0  0  0  0
 34 60  1  0  0  0  0
 35 61  1  0  0  0  0
 36 37  1  0  0  0  0
 36 62  1  0  0  0  0
 38 43  1  0  0  0  0
 38 39  2  0  0  0  0
 39 40  1  0  0  0  0
 39 63  1  0  0  0  0
 40 41  2  0  0  0  0
 40 64  1  0  0  0  0
 41 42  1  0  0  0  0
 41 65  1  0  0  0  0
 42 43  2  0  0  0  0
 42 66  1  0  0  0  0
 43 67  1  0  0  0  0
M  END
> <s_m_source_file>
AV-unprocessed.smi

> <i_m_source_file_index>
33

> <i_lp_mmshare_version>
43012

> <i_f3d_flags>
0

> <s_epik_input>
W2NIXTFbY0hdW2NIXVtjSF1bY0hdYzFDKD1PKU9bQ0gyXVtDQEBIXTJPW0NASF0oW0NAQEhdKFtPSF0pW0NAQEhdMkYpbihbY0hdbjMpYyhjMzQpbltjSF1uYzROKEMoPU8pYzVbY0hdW2NIXVtjSF1bY0hdW2NIXTUpQyg9TyljNltjSF1bY0hdW2NIXVtjSF1bY0hdNg==

> <s_epik_cmdline>
J2VwaWtfcHl0aG9uJywgJy1waCcsICc3LjAnLCAnLXRuJywgJzgnLCAnLW1hJywgJzIwMCcsICctbWV0YWxfYmluZGluZycsICctaW1hZScsICc8aW5maWxlLm1hZT4nLCAnLW9tYWUnLCAnPG91dGZpbGUubWFlPic=

> <r_lp_tautomer_probability>
1

> <r_epik_Ionization_Penalty>
0.00067664

> <r_epik_Ionization_Penalty_Charging>
0

> <r_epik_Ionization_Penalty_Neutral>
0.00067664

> <r_epik_State_Penalty>
0.000428095

> <r_epik_Charging_Adjusted_Penalty>
0.000428095

> <i_epik_Tot_Q>
0

> <i_epik_Tot_abs_Q>
0

> <r_epik_Metal_State_Penalty>
-0

> <b_epik_Metal_Only>
0

> <s_epik_Chemistry_Notes>
This compound has an ester and may undergo hydrolysis at high or low pH. This compound contains an acetal/aminal-like group ( X-CH(R)-Y where X, Y are N, S, or O) that may be acid/base labile, releasing an aldehyde.

> <s_lp_Force_Field>
OPLS_2005

> <r_lp_Energy>
68.7921

> <b_lp_Chiralities_Consistent>
1

> <s_lp_Variant>
AV-unprocessed.smi:33-14

> <Gold.Version>
5.8.1

> <Gold.Id.Protein>
6NUR|6NUR_protein|mol2

> <Gold.PLP.Fitness>
54.0094

> <Gold.PLP.PLP>
-45.4026

> <Gold.PLP.part.hbond>
-3.9980

> <Gold.PLP.part.metal>
0.0000

> <Gold.PLP.part.buried>
-7.0277

> <Gold.PLP.part.nonpolar>
-35.0034

> <Gold.PLP.part.repulsive>
0.1902

> <Gold.PLP.ligand.clash>
0.0113

> <Gold.PLP.ligand.torsion>
2.6050

> <Gold.PLP.Chemscore.Hbond>
2.9920

> <Gold.PLP.Chemscore.CHOScore>
0.0000

> <Gold.PLP.Chemscore.Metal>
0.0000

> <Gold.Chemscore.Hbonds>
donor molecule, donor type, donor heavy atom, donor atom, acceptor molecule, acceptor atom, score
      L1  H    35    61       P1  7948  0.47
      P1  H  7997  8009       L1     1  0.70
      P1  H 10752 10763       L1     6  0.64
      L1  C     9    48       P1  7949  0.35

> <Gold.PLP.Chemscore.Internal.Correction>
4.8520

> <Gold.Rescore>
     Score         DG    S(hbond)    S(metal)    S(lipo)     H(rot)  DE(clash)    DE(int)     intcor
     10.99     -19.05       2.12        0.00     110.55       2.52       0.16       7.89       ----

> <Gold.Chemscore.Fitness>
10.9943

> <Gold.Chemscore.DG>
-19.0465

> <Gold.Chemscore.ZeroCoef>
-5.4800

> <Gold.Chemscore.Hbond>
2.1244

> <Gold.Chemscore.Metal>
0.0000

> <Gold.Chemscore.Lipo>
110.5494

> <Gold.Chemscore.Internal_Hbond>
0.0000

> <Gold.Chemscore.DEClash>
0.1616

> <Gold.Chemscore.DEInternal>
7.8906

> <Gold.Chemscore.Rot>
2.5247

> <Gold.Chemscore.Internal.Correction>
   9.000000E+99

> <Gold.Chemscore.Hbonds>
donor molecule, donor type, donor heavy atom, donor atom, acceptor molecule, acceptor atom, score
      L1  H    35    61       P1  7948  0.09
      P1  H  7997  8009       L1     1  0.07
      P1  H 10752 10763       L1     6  0.08

> <Gold.Chemscore.Hbond.Weighted>
-7.0955

> <Gold.Chemscore.Metal.Weighted>
-0.0000

> <Gold.Chemscore.Lipo.Weighted>
-12.9343

> <Gold.Chemscore.Internal_Hbond.Weighted>
0.0000

> <Gold.Chemscore.DEClash.Weighted>
0.1616

> <Gold.Chemscore.DEInternal.Weighted>
7.8906

> <Gold.Chemscore.Rot.Weighted>
6.4633

> <Gold.Chemscore.Internal.Correction.Weighted>
   9.000000E+99

> <Gold.Protein.RotatedTorsions>
[ 6907 6896 6895 6894 ] final  159.41 input  -60.11 | X-H torsion
[ 7974 7965 7964 7962 ] final  -37.48 input  175.53 | X-H torsion
[ 8008 7997 7996 7995 ] final  113.05 input   59.86 | X-H torsion
[ 10167 10162 10161 10158 ] final   70.35 input  -65.29 | X-H torsion
[ 10718 10713 10712 10709 ] final -118.30 input   66.30 | X-H torsion
[ 10763 10752 10751 10750 ] final   91.01 input  -60.55 | X-H torsion
[ 11005 11000 10999 10996 ] final -134.28 input  -57.11 | X-H torsion

> <Gold.Protein.ActiveResidues>
 VAL166  LYS551  ARG553  GLY616  TRP617  ASP618  TYR619  PRO620  LYS621  CYS622 
 ASP623  PHE694  ASN695  SER759  ASP760  ASP761  ALA762  ILE779  LEU786  VAL792 
 PHE793  MET794  SER795  GLU796  ALA797  LYS798  CYS799  TRP800  GLU811  SER814 

> <Gold.Protein.RotatedAtoms>
  151.9860  133.3774  159.4125 H   0  0  0  0  0  0  0  0  0  0  0  0  # atno 6907 bound_to 6896
  150.6928  134.3987  159.5118 H   0  0  0  0  0  0  0  0  0  0  0  0  # atno 6908 bound_to 6896
  152.1714  134.8831  160.0585 H   0  0  0  0  0  0  0  0  0  0  0  0  # atno 6909 bound_to 6896
  146.0571  140.6401  142.9015 H   0  0  0  0  0  0  0  0  0  0  0  0  # atno 7974 bound_to 7965
  156.2233  140.2987  156.0005 H   0  0  0  0  0  0  0  0  0  0  0  0  # atno 8008 bound_to 7997
  155.2424  140.0423  157.2994 H   0  0  0  0  0  0  0  0  0  0  0  0  # atno 8009 bound_to 7997
  154.5875  140.2392  155.7975 H   0  0  0  0  0  0  0  0  0  0  0  0  # atno 8010 bound_to 7997
  140.0579  144.5257  150.7315 H   0  0  0  0  0  0  0  0  0  0  0  0  # atno 10167 bound_to 10162
  156.1096  130.6238  150.9273 H   0  0  0  0  0  0  0  0  0  0  0  0  # atno 10718 bound_to 10713
  153.2037  135.4413  155.0297 H   0  0  0  0  0  0  0  0  0  0  0  0  # atno 10763 bound_to 10752
  154.8161  135.3316  154.7173 H   0  0  0  0  0  0  0  0  0  0  0  0  # atno 10764 bound_to 10752
  153.7616  135.6991  153.4980 H   0  0  0  0  0  0  0  0  0  0  0  0  # atno 10765 bound_to 10752
  140.9004  134.1697  157.4464 H   0  0  0  0  0  0  0  0  0  0  0  0  # atno 11005 bound_to 11000
  144.7154  140.4189  143.7048 LP  0  0  0  0  0  0  0  0  0  0  0  0  # atno 17320 bound_to 7965
  145.6625  139.1584  143.2800 LP  0  0  0  0  0  0  0  0  0  0  0  0  # atno 17321 bound_to 7965
  140.7186  143.2567  151.4353 LP  0  0  0  0  0  0  0  0  0  0  0  0  # atno 17342 bound_to 10162
  139.5912  144.1495  152.2090 LP  0  0  0  0  0  0  0  0  0  0  0  0  # atno 17343 bound_to 10162
  157.6276  131.0924  150.8503 LP  0  0  0  0  0  0  0  0  0  0  0  0  # atno 17370 bound_to 10713
  156.8616  130.5115  149.5303 LP  0  0  0  0  0  0  0  0  0  0  0  0  # atno 17371 bound_to 10713
  139.8741  134.9896  156.5463 LP  0  0  0  0  0  0  0  0  0  0  0  0  # atno 17394 bound_to 11000
  140.8236  133.8334  155.8919 LP  0  0  0  0  0  0  0  0  0  0  0  0  # atno 17395 bound_to 11000

$$$$
