AV-unprocessed.smi:613|AV-procd|sdf|3066|dock9
  -GOLD-   2262023593D 1   1.00000     0.00000
 Structure written by MMmdl.
 39 40  0  0  0  0  0  0  0  0  2 V2000
  148.5488  141.8565  157.6300 C   0  0  0  0  0  0  0  0  0  0  0  0
  149.9585  141.9925  157.2833 N   0  0  0  0  0  0  0  0  0  0  0  0
  150.3984  141.5570  155.9571 C   0  0  0  0  0  0  0  0  0  0  0  0
  150.8088  140.0733  155.9249 C   0  0  2  0  0  0  0  0  0  0  0  0
  151.8507  139.7459  157.0135 C   0  0  0  0  0  0  0  0  0  0  0  0
  152.3036  138.3539  156.9369 N   0  0  0  0  0  0  0  0  0  0  0  0
  153.2834  137.9849  157.9674 C   0  0  0  0  0  0  0  0  0  0  0  0
  152.7089  137.8852  159.3866 C   0  0  0  0  0  0  0  0  0  0  0  0
  153.2032  138.7195  160.3045 N   0  0  0  0  0  0  0  0  0  0  0  0
  151.8273  137.0693  159.6488 O   0  0  0  0  0  0  0  0  0  0  0  0
  152.8058  138.0742  155.5951 C   0  0  0  0  0  0  0  0  0  0  0  0
  151.7703  138.4204  154.5130 C   0  0  0  0  0  0  0  0  0  0  0  0
  151.3790  139.7816  154.6514 O   0  0  0  0  0  0  0  0  0  0  0  0
  150.7732  142.8450  158.0649 C   0  0  0  0  0  0  0  0  0  0  0  0
  151.4886  142.3947  159.2017 C   0  0  0  0  0  0  0  0  0  0  0  0
  152.2712  143.3149  159.9194 C   0  0  0  0  0  0  0  0  0  0  0  0
  152.3000  144.6420  159.4598 C   0  0  0  0  0  0  0  0  0  0  0  0
  151.6180  145.0614  158.3725 N   0  0  0  0  0  0  0  0  0  0  0  0
  150.8802  144.1549  157.7092 N   0  3  0  0  0  0  0  0  0  0  0  0
  148.4366  141.3902  158.6092 H   0  0  0  0  0  0  0  0  0  0  0  0
  148.0261  141.2324  156.9045 H   0  0  0  0  0  0  0  0  0  0  0  0
  148.0582  142.8303  157.6454 H   0  0  0  0  0  0  0  0  0  0  0  0
  149.6491  141.7677  155.1938 H   0  0  0  0  0  0  0  0  0  0  0  0
  151.2606  142.1681  155.6870 H   0  0  0  0  0  0  0  0  0  0  0  0
  149.9276  139.4473  156.0787 H   0  0  0  0  0  0  0  0  0  0  0  0
  152.7054  140.4180  156.9175 H   0  0  0  0  0  0  0  0  0  0  0  0
  151.4024  139.9521  157.9856 H   0  0  0  0  0  0  0  0  0  0  0  0
  153.7136  137.0108  157.7302 H   0  0  0  0  0  0  0  0  0  0  0  0
  154.1132  138.6944  157.9593 H   0  0  0  0  0  0  0  0  0  0  0  0
  152.8533  138.6949  161.2512 H   0  0  0  0  0  0  0  0  0  0  0  0
  153.9243  139.3773  160.0456 H   0  0  0  0  0  0  0  0  0  0  0  0
  153.7196  138.6427  155.4130 H   0  0  0  0  0  0  0  0  0  0  0  0
  153.0734  137.0204  155.5081 H   0  0  0  0  0  0  0  0  0  0  0  0
  152.1940  138.2707  153.5196 H   0  0  0  0  0  0  0  0  0  0  0  0
  150.8958  137.7726  154.5901 H   0  0  0  0  0  0  0  0  0  0  0  0
  151.4502  141.3681  159.5337 H   0  0  0  0  0  0  0  0  0  0  0  0
  152.8304  143.0137  160.7929 H   0  0  0  0  0  0  0  0  0  0  0  0
  152.8855  145.3885  159.9763 H   0  0  0  0  0  0  0  0  0  0  0  0
  150.3583  144.4687  156.8905 H   0  0  0  0  0  0  0  0  0  0  0  0
  1  2  1  0  0  0  0
  1 20  1  0  0  0  0
  1 21  1  0  0  0  0
  1 22  1  0  0  0  0
  2  3  1  0  0  0  0
  2 14  1  0  0  0  0
  3  4  1  0  0  0  0
  3 23  1  0  0  0  0
  3 24  1  0  0  0  0
  4 13  1  0  0  0  0
  4  5  1  0  0  0  0
  4 25  1  0  0  0  0
  5  6  1  0  0  0  0
  5 26  1  0  0  0  0
  5 27  1  0  0  0  0
  6  7  1  0  0  0  0
  6 11  1  0  0  0  0
  7  8  1  0  0  0  0
  7 28  1  0  0  0  0
  7 29  1  0  0  0  0
  8  9  1  0  0  0  0
  8 10  2  0  0  0  0
  9 30  1  0  0  0  0
  9 31  1  0  0  0  0
 11 12  1  0  0  0  0
 11 32  1  0  0  0  0
 11 33  1  0  0  0  0
 12 13  1  0  0  0  0
 12 34  1  0  0  0  0
 12 35  1  0  0  0  0
 14 19  1  0  0  0  0
 14 15  2  0  0  0  0
 15 16  1  0  0  0  0
 15 36  1  0  0  0  0
 16 17  2  0  0  0  0
 16 37  1  0  0  0  0
 17 18  1  0  0  0  0
 17 38  1  0  0  0  0
 18 19  2  0  0  0  0
 19 39  1  0  0  0  0
M  CHG  1  19   1
M  END
> <s_m_source_file>
AV-unprocessed.smi

> <i_m_source_file_index>
613

> <i_lp_mmshare_version>
43012

> <i_f3d_flags>
0

> <s_epik_input>
bjFuW2NIXVtjSF1bY0hdYzFOKFtDSDNdKVtDSDJdW0NAQEhdMltDSDJdTihbQ0gyXVtDSDJdTzIpW0NIMl1DKD1PKVtOSDJd

> <s_epik_cmdline>
J2VwaWtfcHl0aG9uJywgJy1waCcsICc3LjAnLCAnLXRuJywgJzgnLCAnLW1hJywgJzIwMCcsICctbWV0YWxfYmluZGluZycsICctaW1hZScsICc8aW5maWxlLm1hZT4nLCAnLW9tYWUnLCAnPG91dGZpbGUubWFlPic=

> <r_lp_tautomer_probability>
0.966961

> <r_epik_Ionization_Penalty>
1.86301

> <r_epik_Ionization_Penalty_Charging>
1.86058

> <r_epik_Ionization_Penalty_Neutral>
0.00243207

> <r_epik_State_Penalty>
1.48112

> <r_epik_Charging_Adjusted_Penalty>
3.3417

> <i_epik_Tot_Q>
1

> <i_epik_Tot_abs_Q>
1

> <r_epik_Metal_State_Penalty>
1.50193

> <b_epik_Metal_Only>
0

> <s_lp_Force_Field>
OPLS_2005

> <r_lp_Energy>
27.1625

> <b_lp_Chiralities_Consistent>
1

> <s_lp_Variant>
AV-unprocessed.smi:613-3

> <Gold.Version>
5.8.1

> <Gold.Id.Protein>
6NUR|6NUR_protein|mol2

> <Gold.PLP.Fitness>
42.7739

> <Gold.PLP.PLP>
-34.1762

> <Gold.PLP.part.hbond>
-3.0000

> <Gold.PLP.part.metal>
0.0000

> <Gold.PLP.part.buried>
-5.6172

> <Gold.PLP.part.nonpolar>
-25.3076

> <Gold.PLP.part.repulsive>
0.2736

> <Gold.PLP.ligand.clash>
0.0000

> <Gold.PLP.ligand.torsion>
1.8100

> <Gold.PLP.Chemscore.Hbond>
4.0000

> <Gold.PLP.Chemscore.CHOScore>
0.0000

> <Gold.PLP.Chemscore.Metal>
0.0000

> <Gold.Chemscore.Hbonds>
donor molecule, donor type, donor heavy atom, donor atom, acceptor molecule, acceptor atom, score
      L1  H    19    39       P1  8028  2.00
      P1  H  6896  6907       L1    10  1.00
      P1  H  7989  7998       L1    13  1.00

> <Gold.PLP.Chemscore.Internal.Correction>
0.2178

> <Gold.Rescore>
     Score         DG    S(hbond)    S(metal)    S(lipo)     H(rot)  DE(clash)    DE(int)     intcor
     16.52     -18.30       2.94        0.00      74.66       2.23       0.05       1.74       ----

> <Gold.Chemscore.Fitness>
16.5211

> <Gold.Chemscore.DG>
-18.3026

> <Gold.Chemscore.ZeroCoef>
-5.4800

> <Gold.Chemscore.Hbond>
2.9366

> <Gold.Chemscore.Metal>
0.0000

> <Gold.Chemscore.Lipo>
74.6621

> <Gold.Chemscore.Internal_Hbond>
0.0000

> <Gold.Chemscore.DEClash>
0.0458

> <Gold.Chemscore.DEInternal>
1.7358

> <Gold.Chemscore.Rot>
2.2348

> <Gold.Chemscore.Internal.Correction>
   9.000000E+99

> <Gold.Chemscore.Hbonds>
donor molecule, donor type, donor heavy atom, donor atom, acceptor molecule, acceptor atom, score
      L1  H    19    39       P1  8028  0.88
      P1  H  6896  6907       L1    10  0.99
      P1  H  7989  7998       L1    13  0.97

> <Gold.Chemscore.Hbond.Weighted>
-9.8083

> <Gold.Chemscore.Metal.Weighted>
-0.0000

> <Gold.Chemscore.Lipo.Weighted>
-8.7355

> <Gold.Chemscore.Internal_Hbond.Weighted>
0.0000

> <Gold.Chemscore.DEClash.Weighted>
0.0458

> <Gold.Chemscore.DEInternal.Weighted>
1.7358

> <Gold.Chemscore.Rot.Weighted>
5.7211

> <Gold.Chemscore.Internal.Correction.Weighted>
   9.000000E+99

> <Gold.Protein.RotatedTorsions>
[ 6907 6896 6895 6894 ] final    9.95 input  -60.11 | X-H torsion
[ 7974 7965 7964 7962 ] final   72.92 input  175.53 | X-H torsion
[ 8008 7997 7996 7995 ] final  -86.36 input   59.86 | X-H torsion
[ 10167 10162 10161 10158 ] final -167.14 input  -65.29 | X-H torsion
[ 10718 10713 10712 10709 ] final   -3.28 input   66.30 | X-H torsion
[ 10763 10752 10751 10750 ] final  107.90 input  -60.55 | X-H torsion
[ 11005 11000 10999 10996 ] final -138.72 input  -57.11 | X-H torsion

> <Gold.Protein.ActiveResidues>
 VAL166  LYS551  ARG553  GLY616  TRP617  ASP618  TYR619  PRO620  LYS621  CYS622 
 ASP623  PHE694  ASN695  SER759  ASP760  ASP761  ALA762  ILE779  LEU786  VAL792 
 PHE793  MET794  SER795  GLU796  ALA797  LYS798  CYS799  TRP800  GLU811  SER814 

> <Gold.Protein.RotatedAtoms>
  151.7303  135.0876  160.0298 H   0  0  0  0  0  0  0  0  0  0  0  0  # atno 6907 bound_to 6896
  152.3545  133.6216  159.5978 H   0  0  0  0  0  0  0  0  0  0  0  0  # atno 6908 bound_to 6896
  150.7562  133.9438  159.3506 H   0  0  0  0  0  0  0  0  0  0  0  0  # atno 6909 bound_to 6896
  145.7473  139.2745  143.1452 H   0  0  0  0  0  0  0  0  0  0  0  0  # atno 7974 bound_to 7965
  154.6510  140.0579  156.9956 H   0  0  0  0  0  0  0  0  0  0  0  0  # atno 8008 bound_to 7997
  155.1371  140.3262  155.4442 H   0  0  0  0  0  0  0  0  0  0  0  0  # atno 8009 bound_to 7997
  156.2576  140.1970  156.6488 H   0  0  0  0  0  0  0  0  0  0  0  0  # atno 8010 bound_to 7997
  139.6069  144.0895  152.1802 H   0  0  0  0  0  0  0  0  0  0  0  0  # atno 10167 bound_to 10162
  156.7784  130.5323  149.5755 H   0  0  0  0  0  0  0  0  0  0  0  0  # atno 10718 bound_to 10713
  153.4132  135.3829  155.2063 H   0  0  0  0  0  0  0  0  0  0  0  0  # atno 10763 bound_to 10752
  154.8739  135.3799  154.4475 H   0  0  0  0  0  0  0  0  0  0  0  0  # atno 10764 bound_to 10752
  153.4986  135.7088  153.5906 H   0  0  0  0  0  0  0  0  0  0  0  0  # atno 10765 bound_to 10752
  140.8589  134.2194  157.4719 H   0  0  0  0  0  0  0  0  0  0  0  0  # atno 11005 bound_to 11000
  146.0390  140.8183  142.9838 LP  0  0  0  0  0  0  0  0  0  0  0  0  # atno 17320 bound_to 7965
  144.6857  140.2882  143.7282 LP  0  0  0  0  0  0  0  0  0  0  0  0  # atno 17321 bound_to 7965
  140.0504  144.5937  150.7340 LP  0  0  0  0  0  0  0  0  0  0  0  0  # atno 17342 bound_to 10162
  140.7291  143.2669  151.4016 LP  0  0  0  0  0  0  0  0  0  0  0  0  # atno 17343 bound_to 10162
  156.1233  130.6126  151.0226 LP  0  0  0  0  0  0  0  0  0  0  0  0  # atno 17370 bound_to 10713
  157.6658  131.0872  150.7732 LP  0  0  0  0  0  0  0  0  0  0  0  0  # atno 17371 bound_to 10713
  139.8706  134.9719  156.4756 LP  0  0  0  0  0  0  0  0  0  0  0  0  # atno 17394 bound_to 11000
  140.8706  133.7991  155.9360 LP  0  0  0  0  0  0  0  0  0  0  0  0  # atno 17395 bound_to 11000

$$$$
