AV-unprocessed.smi:105|AV-procd|sdf|1009|dock2
  -GOLD-   2262018 03D 1   1.00000     0.00000
 Structure written by MMmdl.
 42 45  0  0  0  0  0  0  0  0  1 V2000
  152.2450  143.9107  161.6063 C   0  0  0  0  0  0  0  0  0  0  0  0
  152.9395  143.0691  162.4967 C   0  0  0  0  0  0  0  0  0  0  0  0
  153.6355  141.9464  162.0079 C   0  0  0  0  0  0  0  0  0  0  0  0
  153.6378  141.6586  160.6270 C   0  0  0  0  0  0  0  0  0  0  0  0
  154.3966  140.4486  160.1052 C   0  0  0  0  0  0  0  0  0  0  0  0
  155.1320  139.6973  161.1174 N   0  0  0  0  0  0  0  0  0  0  0  0
  155.0626  138.3484  161.1580 C   0  0  0  0  0  0  0  0  0  0  0  0
  155.0890  137.6097  160.0176 N   0  0  0  0  0  0  0  0  0  0  0  0
  155.0080  136.2771  160.0819 C   0  0  0  0  0  0  0  0  0  0  0  0
  154.8935  135.4986  161.1602 N   0  0  0  0  0  0  0  0  0  0  0  0
  154.8660  136.2380  162.3068 C   0  0  0  0  0  0  0  0  0  0  0  0
  154.9438  137.6567  162.3912 C   0  0  0  0  0  0  0  0  0  0  0  0
  154.8809  138.0611  163.7180 N   0  0  0  0  0  0  0  0  0  0  0  0
  154.7676  136.9434  164.3830 C   0  0  0  0  0  0  0  0  0  0  0  0
  154.7548  135.7987  163.6167 N   0  0  0  0  0  0  0  0  0  0  0  0
  154.6241  134.4363  164.1067 C   0  0  2  0  0  0  0  0  0  0  0  0
  155.7544  134.0557  165.0854 C   0  0  0  0  0  0  0  0  0  0  0  0
  155.5344  132.6064  165.5352 C   0  0  0  0  0  0  0  0  0  0  0  0
  155.4703  131.6965  164.3041 C   0  0  0  0  0  0  0  0  0  0  0  0
  154.4034  132.2168  163.3265 C   0  0  0  0  0  0  0  0  0  0  0  0
  154.6655  133.5799  163.0028 O   0  0  0  0  0  0  0  0  0  0  0  0
  152.9434  142.5069  159.7373 C   0  0  0  0  0  0  0  0  0  0  0  0
  152.2476  143.6295  160.2263 C   0  0  0  0  0  0  0  0  0  0  0  0
  151.7116  144.7717  161.9810 H   0  0  0  0  0  0  0  0  0  0  0  0
  152.9384  143.2849  163.5549 H   0  0  0  0  0  0  0  0  0  0  0  0
  154.1650  141.3052  162.6975 H   0  0  0  0  0  0  0  0  0  0  0  0
  153.6766  139.7733  159.6428 H   0  0  0  0  0  0  0  0  0  0  0  0
  155.0810  140.7519  159.3118 H   0  0  0  0  0  0  0  0  0  0  0  0
  155.8038  140.2262  161.6548 H   0  0  0  0  0  0  0  0  0  0  0  0
  155.0373  135.7613  159.1335 H   0  0  0  0  0  0  0  0  0  0  0  0
  154.6894  136.9257  165.4605 H   0  0  0  0  0  0  0  0  0  0  0  0
  153.6463  134.3499  164.5848 H   0  0  0  0  0  0  0  0  0  0  0  0
  156.7209  134.1627  164.5923 H   0  0  0  0  0  0  0  0  0  0  0  0
  155.7363  134.7355  165.9377 H   0  0  0  0  0  0  0  0  0  0  0  0
  156.3408  132.2899  166.1973 H   0  0  0  0  0  0  0  0  0  0  0  0
  154.6089  132.5282  166.1069 H   0  0  0  0  0  0  0  0  0  0  0  0
  156.4419  131.6776  163.8089 H   0  0  0  0  0  0  0  0  0  0  0  0
  155.2468  130.6710  164.5993 H   0  0  0  0  0  0  0  0  0  0  0  0
  154.4155  131.6276  162.4094 H   0  0  0  0  0  0  0  0  0  0  0  0
  153.4039  132.1196  163.7533 H   0  0  0  0  0  0  0  0  0  0  0  0
  152.9416  142.2992  158.6772 H   0  0  0  0  0  0  0  0  0  0  0  0
  151.7166  144.2753  159.5427 H   0  0  0  0  0  0  0  0  0  0  0  0
  1 23  1  0  0  0  0
  1  2  2  0  0  0  0
  1 24  1  0  0  0  0
  2  3  1  0  0  0  0
  2 25  1  0  0  0  0
  3  4  2  0  0  0  0
  3 26  1  0  0  0  0
  4  5  1  0  0  0  0
  4 22  1  0  0  0  0
  5  6  1  0  0  0  0
  5 27  1  0  0  0  0
  5 28  1  0  0  0  0
  6  7  1  0  0  0  0
  6 29  1  0  0  0  0
  7 12  1  0  0  0  0
  7  8  2  0  0  0  0
  8  9  1  0  0  0  0
  9 10  2  0  0  0  0
  9 30  1  0  0  0  0
 10 11  1  0  0  0  0
 11 15  1  0  0  0  0
 11 12  2  0  0  0  0
 12 13  1  0  0  0  0
 13 14  2  0  0  0  0
 14 15  1  0  0  0  0
 14 31  1  0  0  0  0
 15 16  1  0  0  0  0
 16 21  1  0  0  0  0
 16 17  1  0  0  0  0
 16 32  1  0  0  0  0
 17 18  1  0  0  0  0
 17 33  1  0  0  0  0
 17 34  1  0  0  0  0
 18 19  1  0  0  0  0
 18 35  1  0  0  0  0
 18 36  1  0  0  0  0
 19 20  1  0  0  0  0
 19 37  1  0  0  0  0
 19 38  1  0  0  0  0
 20 21  1  0  0  0  0
 20 39  1  0  0  0  0
 20 40  1  0  0  0  0
 22 23  2  0  0  0  0
 22 41  1  0  0  0  0
 23 42  1  0  0  0  0
M  END
> <s_m_source_file>
AV-unprocessed.smi

> <i_m_source_file_index>
105

> <i_lp_mmshare_version>
43012

> <i_f3d_flags>
0

> <s_epik_input>
W2NIXTFbY0hdW2NIXVtjSF1bY0hdYzFbQ0gyXVtOSF1jKG5bY0hdbjIpYyhjMjMpbltjSF1uM1tDQEBIXTRbQ0gyXVtDSDJdW0NIMl1bQ0gyXU80

> <s_epik_cmdline>
J2VwaWtfcHl0aG9uJywgJy1waCcsICc3LjAnLCAnLXRuJywgJzgnLCAnLW1hJywgJzIwMCcsICctbWV0YWxfYmluZGluZycsICctaW1hZScsICc8aW5maWxlLm1hZT4nLCAnLW9tYWUnLCAnPG91dGZpbGUubWFlPic=

> <r_lp_tautomer_probability>
1

> <r_epik_Ionization_Penalty>
0.000653933

> <r_epik_Ionization_Penalty_Charging>
0

> <r_epik_Ionization_Penalty_Neutral>
0.000653933

> <r_epik_State_Penalty>
-0

> <r_epik_Charging_Adjusted_Penalty>
0

> <i_epik_Tot_Q>
0

> <i_epik_Tot_abs_Q>
0

> <r_epik_Metal_State_Penalty>
-0

> <b_epik_Metal_Only>
0

> <s_epik_Chemistry_Notes>
This compound contains an acetal/aminal-like group ( X-CH(R)-Y where X, Y are N, S, or O) that may be acid/base labile, releasing an aldehyde.

> <s_lp_Force_Field>
OPLS_2005

> <r_lp_Energy>
24.2362

> <b_lp_Chiralities_Consistent>
1

> <s_lp_Variant>
AV-unprocessed.smi:105-1

> <Gold.Version>
5.8.1

> <Gold.Id.Protein>
6NUR|6NUR_protein|mol2

> <Gold.PLP.Fitness>
45.6183

> <Gold.PLP.PLP>
-46.4404

> <Gold.PLP.part.hbond>
0.0000

> <Gold.PLP.part.metal>
0.0000

> <Gold.PLP.part.buried>
-3.7864

> <Gold.PLP.part.nonpolar>
-42.2124

> <Gold.PLP.part.repulsive>
0.0285

> <Gold.PLP.ligand.clash>
0.0000

> <Gold.PLP.ligand.torsion>
0.4273

> <Gold.PLP.Chemscore.Hbond>
0.0000

> <Gold.PLP.Chemscore.CHOScore>
0.0000

> <Gold.PLP.Chemscore.Metal>
0.0000

> <Gold.PLP.Chemscore.Internal.Correction>
0.0325

> <Gold.Rescore>
     Score         DG    S(hbond)    S(metal)    S(lipo)     H(rot)  DE(clash)    DE(int)     intcor
     12.24     -14.22       0.00        0.00     108.69       1.55       0.04       1.94       ----

> <Gold.Chemscore.Fitness>
12.2405

> <Gold.Chemscore.DG>
-14.2173

> <Gold.Chemscore.ZeroCoef>
-5.4800

> <Gold.Chemscore.Hbond>
0.0000

> <Gold.Chemscore.Metal>
0.0000

> <Gold.Chemscore.Lipo>
108.6949

> <Gold.Chemscore.Internal_Hbond>
0.0000

> <Gold.Chemscore.DEClash>
0.0383

> <Gold.Chemscore.DEInternal>
1.9386

> <Gold.Chemscore.Rot>
1.5547

> <Gold.Chemscore.Internal.Correction>
   9.000000E+99

> <Gold.Chemscore.Hbond.Weighted>
-0.0000

> <Gold.Chemscore.Metal.Weighted>
-0.0000

> <Gold.Chemscore.Lipo.Weighted>
-12.7173

> <Gold.Chemscore.Internal_Hbond.Weighted>
0.0000

> <Gold.Chemscore.DEClash.Weighted>
0.0383

> <Gold.Chemscore.DEInternal.Weighted>
1.9386

> <Gold.Chemscore.Rot.Weighted>
3.9800

> <Gold.Chemscore.Internal.Correction.Weighted>
   9.000000E+99

> <Gold.Protein.RotatedTorsions>
[ 6907 6896 6895 6894 ] final  -53.64 input  -60.11 | X-H torsion
[ 7974 7965 7964 7962 ] final -139.02 input  175.53 | X-H torsion
[ 8008 7997 7996 7995 ] final   75.69 input   59.86 | X-H torsion
[ 10167 10162 10161 10158 ] final  -39.41 input  -65.29 | X-H torsion
[ 10718 10713 10712 10709 ] final -178.25 input   66.30 | X-H torsion
[ 10763 10752 10751 10750 ] final  175.88 input  -60.55 | X-H torsion
[ 11005 11000 10999 10996 ] final -179.10 input  -57.11 | X-H torsion

> <Gold.Protein.ActiveResidues>
 VAL166  LYS551  ARG553  GLY616  TRP617  ASP618  TYR619  PRO620  LYS621  CYS622 
 ASP623  PHE694  ASN695  SER759  ASP760  ASP761  ALA762  ILE779  LEU786  VAL792 
 PHE793  MET794  SER795  GLU796  ALA797  LYS798  CYS799  TRP800  GLU811  SER814 

> <Gold.Protein.RotatedAtoms>
  150.8409  134.7700  159.6930 H   0  0  0  0  0  0  0  0  0  0  0  0  # atno 6907 bound_to 6896
  152.4496  134.5418  159.9851 H   0  0  0  0  0  0  0  0  0  0  0  0  # atno 6908 bound_to 6896
  151.5558  133.3372  159.2997 H   0  0  0  0  0  0  0  0  0  0  0  0  # atno 6909 bound_to 6896
  144.8710  140.6367  143.5267 H   0  0  0  0  0  0  0  0  0  0  0  0  # atno 7974 bound_to 7965
  155.8166  140.3471  155.5489 H   0  0  0  0  0  0  0  0  0  0  0  0  # atno 8008 bound_to 7997
  155.8385  140.0938  157.1769 H   0  0  0  0  0  0  0  0  0  0  0  0  # atno 8009 bound_to 7997
  154.4005  140.1399  156.3688 H   0  0  0  0  0  0  0  0  0  0  0  0  # atno 8010 bound_to 7997
  140.7065  143.3216  151.2779 H   0  0  0  0  0  0  0  0  0  0  0  0  # atno 10167 bound_to 10162
  156.8415  130.9688  151.3099 H   0  0  0  0  0  0  0  0  0  0  0  0  # atno 10718 bound_to 10713
  154.4735  135.2772  155.1624 H   0  0  0  0  0  0  0  0  0  0  0  0  # atno 10763 bound_to 10752
  154.3363  135.6179  153.5579 H   0  0  0  0  0  0  0  0  0  0  0  0  # atno 10764 bound_to 10752
  152.9867  135.5778  154.5121 H   0  0  0  0  0  0  0  0  0  0  0  0  # atno 10765 bound_to 10752
  140.4224  134.6594  157.4670 H   0  0  0  0  0  0  0  0  0  0  0  0  # atno 11005 bound_to 11000
  145.4130  139.1577  143.4115 LP  0  0  0  0  0  0  0  0  0  0  0  0  # atno 17320 bound_to 7965
  146.2930  140.4235  142.8732 LP  0  0  0  0  0  0  0  0  0  0  0  0  # atno 17321 bound_to 7965
  139.6671  144.0085  152.2730 LP  0  0  0  0  0  0  0  0  0  0  0  0  # atno 17342 bound_to 10162
  139.9672  144.6518  150.8024 LP  0  0  0  0  0  0  0  0  0  0  0  0  # atno 17343 bound_to 10162
  157.6353  130.8761  149.9347 LP  0  0  0  0  0  0  0  0  0  0  0  0  # atno 17370 bound_to 10713
  156.0878  130.3666  150.0454 LP  0  0  0  0  0  0  0  0  0  0  0  0  # atno 17371 bound_to 10713
  140.0191  134.6574  155.9266 LP  0  0  0  0  0  0  0  0  0  0  0  0  # atno 17394 bound_to 11000
  141.1779  133.6542  156.4900 LP  0  0  0  0  0  0  0  0  0  0  0  0  # atno 17395 bound_to 11000

$$$$
