AV-unprocessed.smi:15|AV-procd|sdf|84|dock4
  -GOLD-   2262015213D 1   1.00000     0.00000
 Structure written by MMmdl.
 53 56  0  0  0  0  0  0  0  0  1 V2000
  152.7750  139.2443  160.0783 C   0  0  0  0  0  0  0  0  0  0  0  0
  151.4909  139.8477  159.4948 C   0  0  0  0  0  0  0  0  0  0  0  0
  151.7535  140.7630  158.3847 N   0  0  0  0  0  0  0  0  0  0  0  0
  151.5831  142.2058  158.5701 C   0  0  0  0  0  0  0  0  0  0  0  0
  152.0094  142.6955  159.9686 C   0  0  1  0  0  0  0  0  0  0  0  0
  151.7996  144.1928  160.1842 C   0  0  0  0  0  0  0  0  0  0  0  0
  151.6397  144.3222  161.6924 C   0  0  0  0  0  0  0  0  0  0  0  0
  151.4087  142.8856  162.1683 C   0  0  0  0  0  0  0  0  0  0  0  0
  151.1797  142.1442  160.9803 O   0  0  0  0  0  0  0  0  0  0  0  0
  151.4347  140.3301  157.1414 C   0  0  0  0  0  0  0  0  0  0  0  0
  152.2401  139.3928  156.5803 N   0  0  0  0  0  0  0  0  0  0  0  0
  152.0050  138.9619  155.3379 C   0  0  0  0  0  0  0  0  0  0  0  0
  151.0474  139.3414  154.4899 N   0  0  0  0  0  0  0  0  0  0  0  0
  150.2434  140.2934  155.0447 C   0  0  0  0  0  0  0  0  0  0  0  0
  150.3548  140.8312  156.3577 C   0  0  0  0  0  0  0  0  0  0  0  0
  149.3617  141.7828  156.5620 N   0  0  0  0  0  0  0  0  0  0  0  0
  148.7024  141.8043  155.4367 C   0  0  0  0  0  0  0  0  0  0  0  0
  149.1806  140.9600  154.4605 N   0  0  0  0  0  0  0  0  0  0  0  0
  148.6604  140.8013  153.1118 C   0  0  0  0  0  0  0  0  0  0  0  0
  147.8267  139.5129  152.8832 C   0  0  1  0  0  0  0  0  0  0  0  0
  148.7640  138.4742  152.6550 O   0  0  0  0  0  0  0  0  0  0  0  0
  146.9305  139.1089  154.0458 C   0  0  0  0  0  0  0  0  0  0  0  0
  145.9390  138.1545  153.3881 C   0  0  0  0  0  0  0  0  0  0  0  0
  145.7698  138.6372  152.0601 O   0  0  0  0  0  0  0  0  0  0  0  0
  146.7988  139.5689  151.7306 C   0  0  2  0  0  0  0  0  0  0  0  0
  147.3413  139.3201  150.3150 C   0  0  0  0  0  0  0  0  0  0  0  0
  152.5374  138.5137  160.8513 H   0  0  0  0  0  0  0  0  0  0  0  0
  153.4100  140.0037  160.5336 H   0  0  0  0  0  0  0  0  0  0  0  0
  153.3550  138.7349  159.3083 H   0  0  0  0  0  0  0  0  0  0  0  0
  150.8547  139.0307  159.1512 H   0  0  0  0  0  0  0  0  0  0  0  0
  150.9384  140.3654  160.2787 H   0  0  0  0  0  0  0  0  0  0  0  0
  152.1767  142.7214  157.8163 H   0  0  0  0  0  0  0  0  0  0  0  0
  150.5493  142.4925  158.3723 H   0  0  0  0  0  0  0  0  0  0  0  0
  153.0505  142.4420  160.1749 H   0  0  0  0  0  0  0  0  0  0  0  0
  152.6219  144.7917  159.7921 H   0  0  0  0  0  0  0  0  0  0  0  0
  150.8823  144.5188  159.6920 H   0  0  0  0  0  0  0  0  0  0  0  0
  152.5315  144.7435  162.1572 H   0  0  0  0  0  0  0  0  0  0  0  0
  150.7957  144.9676  161.9376 H   0  0  0  0  0  0  0  0  0  0  0  0
  152.2978  142.4968  162.6668 H   0  0  0  0  0  0  0  0  0  0  0  0
  150.5667  142.7985  162.8551 H   0  0  0  0  0  0  0  0  0  0  0  0
  152.6872  138.2113  154.9670 H   0  0  0  0  0  0  0  0  0  0  0  0
  147.8541  142.4549  155.2803 H   0  0  0  0  0  0  0  0  0  0  0  0
  148.0565  141.6797  152.8798 H   0  0  0  0  0  0  0  0  0  0  0  0
  149.5048  140.8254  152.4215 H   0  0  0  0  0  0  0  0  0  0  0  0
  149.2980  138.7132  151.9129 H   0  0  0  0  0  0  0  0  0  0  0  0
  147.4702  138.6589  154.8799 H   0  0  0  0  0  0  0  0  0  0  0  0
  146.3782  139.9658  154.4297 H   0  0  0  0  0  0  0  0  0  0  0  0
  146.3512  137.1458  153.3429 H   0  0  0  0  0  0  0  0  0  0  0  0
  144.9883  138.1076  153.9194 H   0  0  0  0  0  0  0  0  0  0  0  0
  146.3003  140.5372  151.7388 H   0  0  0  0  0  0  0  0  0  0  0  0
  148.1336  140.0273  150.0697 H   0  0  0  0  0  0  0  0  0  0  0  0
  146.5505  139.4388  149.5742 H   0  0  0  0  0  0  0  0  0  0  0  0
  147.7421  138.3121  150.2066 H   0  0  0  0  0  0  0  0  0  0  0  0
  1  2  1  0  0  0  0
  1 27  1  0  0  0  0
  1 28  1  0  0  0  0
  1 29  1  0  0  0  0
  2  3  1  0  0  0  0
  2 30  1  0  0  0  0
  2 31  1  0  0  0  0
  3  4  1  0  0  0  0
  3 10  1  0  0  0  0
  4  5  1  0  0  0  0
  4 32  1  0  0  0  0
  4 33  1  0  0  0  0
  5  9  1  0  0  0  0
  5  6  1  0  0  0  0
  5 34  1  0  0  0  0
  6  7  1  0  0  0  0
  6 35  1  0  0  0  0
  6 36  1  0  0  0  0
  7  8  1  0  0  0  0
  7 37  1  0  0  0  0
  7 38  1  0  0  0  0
  8  9  1  0  0  0  0
  8 39  1  0  0  0  0
  8 40  1  0  0  0  0
 10 15  1  0  0  0  0
 10 11  2  0  0  0  0
 11 12  1  0  0  0  0
 12 13  2  0  0  0  0
 12 41  1  0  0  0  0
 13 14  1  0  0  0  0
 14 18  1  0  0  0  0
 14 15  2  0  0  0  0
 15 16  1  0  0  0  0
 16 17  2  0  0  0  0
 17 18  1  0  0  0  0
 17 42  1  0  0  0  0
 18 19  1  0  0  0  0
 19 20  1  0  0  0  0
 19 43  1  0  0  0  0
 19 44  1  0  0  0  0
 20 25  1  0  0  0  0
 20 21  1  0  0  0  0
 20 22  1  0  0  0  0
 21 45  1  0  0  0  0
 22 23  1  0  0  0  0
 22 46  1  0  0  0  0
 22 47  1  0  0  0  0
 23 24  1  0  0  0  0
 23 48  1  0  0  0  0
 23 49  1  0  0  0  0
 24 25  1  0  0  0  0
 25 26  1  0  0  0  0
 25 50  1  0  0  0  0
 26 51  1  0  0  0  0
 26 52  1  0  0  0  0
 26 53  1  0  0  0  0
M  END
> <s_m_source_file>
AV-unprocessed.smi

> <i_m_source_file_index>
15

> <i_lp_mmshare_version>
43012

> <i_f3d_flags>
0

> <s_epik_input>
TzFbQ0gyXVtDSDJdW0NIMl1bQ0BIXTFbQ0gyXU4oW0NIMl1bQ0gzXSljKG5bY0hdbjIpYyhjMjMpbltjSF1uM1tDSDJdW0NAQF00KFtPSF0pW0NIMl1bQ0gyXU9bQ0BIXTRbQ0gzXQ==

> <s_epik_cmdline>
J2VwaWtfcHl0aG9uJywgJy1waCcsICc3LjAnLCAnLXRuJywgJzgnLCAnLW1hJywgJzIwMCcsICctbWV0YWxfYmluZGluZycsICctaW1hZScsICc8aW5maWxlLm1hZT4nLCAnLW9tYWUnLCAnPG91dGZpbGUubWFlPic=

> <r_lp_tautomer_probability>
1

> <r_epik_Ionization_Penalty>
0.00360814

> <r_epik_Ionization_Penalty_Charging>
0

> <r_epik_Ionization_Penalty_Neutral>
0.00360814

> <r_epik_State_Penalty>
0.00237482

> <r_epik_Charging_Adjusted_Penalty>
0.00237482

> <i_epik_Tot_Q>
0

> <i_epik_Tot_abs_Q>
0

> <r_epik_Metal_State_Penalty>
-0

> <b_epik_Metal_Only>
0

> <s_lp_Force_Field>
OPLS_2005

> <r_lp_Energy>
47.1955

> <b_lp_Chiralities_Consistent>
1

> <s_lp_Variant>
AV-unprocessed.smi:15-6

> <Gold.Version>
5.8.1

> <Gold.Id.Protein>
6NUR|6NUR_protein|mol2

> <Gold.PLP.Fitness>
52.7388

> <Gold.PLP.PLP>
-46.8025

> <Gold.PLP.part.hbond>
-4.2165

> <Gold.PLP.part.metal>
0.0000

> <Gold.PLP.part.buried>
-0.9477

> <Gold.PLP.part.nonpolar>
-42.4834

> <Gold.PLP.part.repulsive>
0.4079

> <Gold.PLP.ligand.clash>
0.0000

> <Gold.PLP.ligand.torsion>
1.8452

> <Gold.PLP.Chemscore.Hbond>
2.8500

> <Gold.PLP.Chemscore.CHOScore>
0.0000

> <Gold.PLP.Chemscore.Metal>
0.0000

> <Gold.Chemscore.Hbonds>
donor molecule, donor type, donor heavy atom, donor atom, acceptor molecule, acceptor atom, score
      L1  H    21    45       P1  7957  0.73
      P1  H  7989  7998       L1    13  0.05
      P1  H  7997  8010       L1    11  0.19
      L1  C    17    42       P1  8028  0.45

> <Gold.PLP.Chemscore.Internal.Correction>
1.0767

> <Gold.Rescore>
     Score         DG    S(hbond)    S(metal)    S(lipo)     H(rot)  DE(clash)    DE(int)     intcor
      9.42     -16.06       1.39        0.00     104.19       2.44       3.14       3.51       ----

> <Gold.Chemscore.Fitness>
9.4160

> <Gold.Chemscore.DG>
-16.0571

> <Gold.Chemscore.ZeroCoef>
-5.4800

> <Gold.Chemscore.Hbond>
1.3898

> <Gold.Chemscore.Metal>
0.0000

> <Gold.Chemscore.Lipo>
104.1856

> <Gold.Chemscore.Internal_Hbond>
0.0000

> <Gold.Chemscore.DEClash>
3.1356

> <Gold.Chemscore.DEInternal>
3.5055

> <Gold.Chemscore.Rot>
2.4431

> <Gold.Chemscore.Internal.Correction>
   9.000000E+99

> <Gold.Chemscore.Hbonds>
donor molecule, donor type, donor heavy atom, donor atom, acceptor molecule, acceptor atom, score
      L1  H    21    45       P1  7957  0.17
      P1  H  7997  8010       L1    11  0.02

> <Gold.Chemscore.Hbond.Weighted>
-4.6418

> <Gold.Chemscore.Metal.Weighted>
-0.0000

> <Gold.Chemscore.Lipo.Weighted>
-12.1897

> <Gold.Chemscore.Internal_Hbond.Weighted>
0.0000

> <Gold.Chemscore.DEClash.Weighted>
3.1356

> <Gold.Chemscore.DEInternal.Weighted>
3.5055

> <Gold.Chemscore.Rot.Weighted>
6.2544

> <Gold.Chemscore.Internal.Correction.Weighted>
   9.000000E+99

> <Gold.Protein.RotatedTorsions>
[ 6907 6896 6895 6894 ] final -163.21 input  -60.11 | X-H torsion
[ 7974 7965 7964 7962 ] final -117.22 input  175.53 | X-H torsion
[ 8008 7997 7996 7995 ] final   93.29 input   59.86 | X-H torsion
[ 10167 10162 10161 10158 ] final   92.73 input  -65.29 | X-H torsion
[ 10718 10713 10712 10709 ] final   85.95 input   66.30 | X-H torsion
[ 10763 10752 10751 10750 ] final  -31.99 input  -60.55 | X-H torsion
[ 11005 11000 10999 10996 ] final  -96.06 input  -57.11 | X-H torsion

> <Gold.Protein.ActiveResidues>
 VAL166  LYS551  ARG553  GLY616  TRP617  ASP618  TYR619  PRO620  LYS621  CYS622 
 ASP623  PHE694  ASN695  SER759  ASP760  ASP761  ALA762  ILE779  LEU786  VAL792 
 PHE793  MET794  SER795  GLU796  ALA797  LYS798  CYS799  TRP800  GLU811  SER814 

> <Gold.Protein.RotatedAtoms>
  151.3924  133.3784  159.2722 H   0  0  0  0  0  0  0  0  0  0  0  0  # atno 6907 bound_to 6896
  150.9495  134.8897  159.7673 H   0  0  0  0  0  0  0  0  0  0  0  0  # atno 6908 bound_to 6896
  152.5106  134.3879  159.9426 H   0  0  0  0  0  0  0  0  0  0  0  0  # atno 6909 bound_to 6896
  145.0877  140.8469  143.4001 H   0  0  0  0  0  0  0  0  0  0  0  0  # atno 7974 bound_to 7965
  156.0451  140.3315  155.7287 H   0  0  0  0  0  0  0  0  0  0  0  0  # atno 8008 bound_to 7997
  155.5686  140.0626  157.2829 H   0  0  0  0  0  0  0  0  0  0  0  0  # atno 8009 bound_to 7997
  154.4410  140.1864  156.0844 H   0  0  0  0  0  0  0  0  0  0  0  0  # atno 8010 bound_to 7997
  139.8248  144.6714  150.9473 H   0  0  0  0  0  0  0  0  0  0  0  0  # atno 10167 bound_to 10162
  157.6922  131.0195  150.2899 H   0  0  0  0  0  0  0  0  0  0  0  0  # atno 10718 bound_to 10713
  153.8065  135.6886  153.4847 H   0  0  0  0  0  0  0  0  0  0  0  0  # atno 10763 bound_to 10752
  153.1655  135.4563  154.9830 H   0  0  0  0  0  0  0  0  0  0  0  0  # atno 10764 bound_to 10752
  154.7985  135.3328  154.7549 H   0  0  0  0  0  0  0  0  0  0  0  0  # atno 10765 bound_to 10752
  141.1423  133.8070  157.0520 H   0  0  0  0  0  0  0  0  0  0  0  0  # atno 11005 bound_to 11000
  145.1103  139.2762  143.5641 LP  0  0  0  0  0  0  0  0  0  0  0  0  # atno 17320 bound_to 7965
  146.3531  140.0697  142.8624 LP  0  0  0  0  0  0  0  0  0  0  0  0  # atno 17321 bound_to 7965
  140.7811  143.4057  151.1075 LP  0  0  0  0  0  0  0  0  0  0  0  0  # atno 17342 bound_to 10162
  139.7715  143.8488  152.3121 LP  0  0  0  0  0  0  0  0  0  0  0  0  # atno 17343 bound_to 10162
  156.3432  130.3818  149.7391 LP  0  0  0  0  0  0  0  0  0  0  0  0  # atno 17370 bound_to 10713
  156.4894  130.8078  151.3088 LP  0  0  0  0  0  0  0  0  0  0  0  0  # atno 17371 bound_to 10713
  140.0626  134.9746  157.1331 LP  0  0  0  0  0  0  0  0  0  0  0  0  # atno 17394 bound_to 11000
  140.3826  134.2270  155.7170 LP  0  0  0  0  0  0  0  0  0  0  0  0  # atno 17395 bound_to 11000

$$$$
