AV-unprocessed.smi:506|AV-procd|sdf|2750|dock6
  -GOLD-   2262023213D 1   1.00000     0.00000
 Structure written by MMmdl.
 40 42  0  0  0  0  0  0  0  0  1 V2000
  156.5946  140.2084  163.8511 C   0  0  0  0  0  0  0  0  0  0  0  0
  156.1213  138.8698  163.8798 O   0  0  0  0  0  0  0  0  0  0  0  0
  155.2369  138.4735  162.8996 C   0  0  0  0  0  0  0  0  0  0  0  0
  154.7807  137.1416  162.9477 C   0  0  0  0  0  0  0  0  0  0  0  0
  153.8761  136.6549  161.9856 C   0  0  0  0  0  0  0  0  0  0  0  0
  153.4073  137.4876  160.9511 C   0  0  0  0  0  0  0  0  0  0  0  0
  152.5257  136.9304  160.0513 O   0  0  0  0  0  0  0  0  0  0  0  0
  151.7645  137.7989  159.2226 C   0  0  0  0  0  0  0  0  0  0  0  0
  152.2541  137.6731  157.7728 C   0  0  0  0  0  0  0  0  0  0  0  0
  151.7719  138.7626  156.9358 N   0  0  0  0  0  0  0  0  0  0  0  0
  151.3133  138.7010  155.6604 C   0  0  0  0  0  0  0  0  0  0  0  0
  151.2459  137.4142  154.8966 C   0  0  0  0  0  0  0  0  0  0  0  0
  152.1359  137.3836  153.8015 O   0  0  0  0  0  0  0  0  0  0  0  0
  150.9266  139.8600  155.1260 N   0  0  0  0  0  0  0  0  0  0  0  0
  151.1519  140.7574  156.1516 C   0  0  0  0  0  0  0  0  0  0  0  0
  150.9390  142.1532  156.2135 C   0  0  0  0  0  0  0  0  0  0  0  0
  151.2439  142.8705  157.3890 C   0  0  0  0  0  0  0  0  0  0  0  0
  151.7653  142.2041  158.5168 C   0  0  0  0  0  0  0  0  0  0  0  0
  151.9869  140.8142  158.4755 C   0  0  0  0  0  0  0  0  0  0  0  0
  151.6808  140.1026  157.2998 C   0  0  0  0  0  0  0  0  0  0  0  0
  153.8615  138.8280  160.8986 C   0  0  0  0  0  0  0  0  0  0  0  0
  154.7663  139.3155  161.8620 C   0  0  0  0  0  0  0  0  0  0  0  0
  157.2792  140.3656  164.6846 H   0  0  0  0  0  0  0  0  0  0  0  0
  155.7769  140.9227  163.9568 H   0  0  0  0  0  0  0  0  0  0  0  0
  157.1417  140.4185  162.9310 H   0  0  0  0  0  0  0  0  0  0  0  0
  155.1280  136.4846  163.7314 H   0  0  0  0  0  0  0  0  0  0  0  0
  153.5397  135.6297  162.0412 H   0  0  0  0  0  0  0  0  0  0  0  0
  150.7068  137.5365  159.2727 H   0  0  0  0  0  0  0  0  0  0  0  0
  151.8722  138.8311  159.5590 H   0  0  0  0  0  0  0  0  0  0  0  0
  153.3442  137.6732  157.7472 H   0  0  0  0  0  0  0  0  0  0  0  0
  151.9406  136.7208  157.3459 H   0  0  0  0  0  0  0  0  0  0  0  0
  151.4584  136.5768  155.5607 H   0  0  0  0  0  0  0  0  0  0  0  0
  150.2310  137.2686  154.5249 H   0  0  0  0  0  0  0  0  0  0  0  0
  151.6351  137.2487  153.0118 H   0  0  0  0  0  0  0  0  0  0  0  0
  150.5390  142.6729  155.3556 H   0  0  0  0  0  0  0  0  0  0  0  0
  151.0757  143.9368  157.4257 H   0  0  0  0  0  0  0  0  0  0  0  0
  151.9940  142.7602  159.4142 H   0  0  0  0  0  0  0  0  0  0  0  0
  152.3826  140.3002  159.3389 H   0  0  0  0  0  0  0  0  0  0  0  0
  153.5288  139.5062  160.1277 H   0  0  0  0  0  0  0  0  0  0  0  0
  155.0849  140.3436  161.7820 H   0  0  0  0  0  0  0  0  0  0  0  0
  1  2  1  0  0  0  0
  1 23  1  0  0  0  0
  1 24  1  0  0  0  0
  1 25  1  0  0  0  0
  2  3  1  0  0  0  0
  3 22  1  0  0  0  0
  3  4  2  0  0  0  0
  4  5  1  0  0  0  0
  4 26  1  0  0  0  0
  5  6  2  0  0  0  0
  5 27  1  0  0  0  0
  6  7  1  0  0  0  0
  6 21  1  0  0  0  0
  7  8  1  0  0  0  0
  8  9  1  0  0  0  0
  8 28  1  0  0  0  0
  8 29  1  0  0  0  0
  9 10  1  0  0  0  0
  9 30  1  0  0  0  0
  9 31  1  0  0  0  0
 10 20  1  0  0  0  0
 10 11  1  0  0  0  0
 11 12  1  0  0  0  0
 11 14  2  0  0  0  0
 12 13  1  0  0  0  0
 12 32  1  0  0  0  0
 12 33  1  0  0  0  0
 13 34  1  0  0  0  0
 14 15  1  0  0  0  0
 15 20  2  0  0  0  0
 15 16  1  0  0  0  0
 16 17  2  0  0  0  0
 16 35  1  0  0  0  0
 17 18  1  0  0  0  0
 17 36  1  0  0  0  0
 18 19  2  0  0  0  0
 18 37  1  0  0  0  0
 19 20  1  0  0  0  0
 19 38  1  0  0  0  0
 21 22  2  0  0  0  0
 21 39  1  0  0  0  0
 22 40  1  0  0  0  0
M  END
> <s_m_source_file>
AV-unprocessed.smi

> <i_m_source_file_index>
506

> <i_lp_mmshare_version>
43012

> <i_f3d_flags>
0

> <s_epik_input>
W0NIM11PYzFbY0hdW2NIXWMoW2NIXVtjSF0xKU9bQ0gyXVtDSDJdbihjKG4yKVtDSDJdW09IXSljKGMyMylbY0hdW2NIXVtjSF1bY0hdMw==

> <s_epik_cmdline>
J2VwaWtfcHl0aG9uJywgJy1waCcsICc3LjAnLCAnLXRuJywgJzgnLCAnLW1hJywgJzIwMCcsICctbWV0YWxfYmluZGluZycsICctaW1hZScsICc8aW5maWxlLm1hZT4nLCAnLW9tYWUnLCAnPG91dGZpbGUubWFlPic=

> <r_lp_tautomer_probability>
1

> <r_epik_Ionization_Penalty>
0.0483634

> <r_epik_Ionization_Penalty_Charging>
0

> <r_epik_Ionization_Penalty_Neutral>
0.0483634

> <r_epik_State_Penalty>
0.0411758

> <r_epik_Charging_Adjusted_Penalty>
0.0411758

> <i_epik_Tot_Q>
0

> <i_epik_Tot_abs_Q>
0

> <r_epik_Metal_State_Penalty>
4.26388e-05

> <b_epik_Metal_Only>
0

> <s_lp_Force_Field>
OPLS_2005

> <r_lp_Energy>
17.7354

> <b_lp_Chiralities_Consistent>
1

> <s_lp_Variant>
AV-unprocessed.smi:506-1

> <Gold.Version>
5.8.1

> <Gold.Id.Protein>
6NUR|6NUR_protein|mol2

> <Gold.PLP.Fitness>
47.0709

> <Gold.PLP.PLP>
-37.1879

> <Gold.PLP.part.hbond>
-4.0000

> <Gold.PLP.part.metal>
0.0000

> <Gold.PLP.part.buried>
-4.9337

> <Gold.PLP.part.nonpolar>
-27.9653

> <Gold.PLP.part.repulsive>
0.0418

> <Gold.PLP.ligand.clash>
0.0000

> <Gold.PLP.ligand.torsion>
0.9324

> <Gold.PLP.Chemscore.Hbond>
3.8880

> <Gold.PLP.Chemscore.CHOScore>
0.0000

> <Gold.PLP.Chemscore.Metal>
0.0000

> <Gold.Chemscore.Hbonds>
donor molecule, donor type, donor heavy atom, donor atom, acceptor molecule, acceptor atom, score
      L1  H    13    34       P1  7949  0.94
      P1  H  6896  6908       L1     7  1.00
      P1  H  7989  7998       L1    14  0.98
      P1  H 10752 10765       L1    13  0.93

> <Gold.PLP.Chemscore.Internal.Correction>
0.0838

> <Gold.Rescore>
     Score         DG    S(hbond)    S(metal)    S(lipo)     H(rot)  DE(clash)    DE(int)     intcor
     18.91     -20.11       2.50        0.00     107.26       2.46       0.12       1.08       ----

> <Gold.Chemscore.Fitness>
18.9068

> <Gold.Chemscore.DG>
-20.1076

> <Gold.Chemscore.ZeroCoef>
-5.4800

> <Gold.Chemscore.Hbond>
2.5048

> <Gold.Chemscore.Metal>
0.0000

> <Gold.Chemscore.Lipo>
107.2616

> <Gold.Chemscore.Internal_Hbond>
0.0000

> <Gold.Chemscore.DEClash>
0.1206

> <Gold.Chemscore.DEInternal>
1.0802

> <Gold.Chemscore.Rot>
2.4562

> <Gold.Chemscore.Internal.Correction>
   9.000000E+99

> <Gold.Chemscore.Hbonds>
donor molecule, donor type, donor heavy atom, donor atom, acceptor molecule, acceptor atom, score
      L1  H    13    34       P1  7949  0.81
      P1  H  6896  6908       L1     7  0.85
      P1  H  7989  7998       L1    14  0.32
      P1  H 10752 10765       L1    13  0.19

> <Gold.Chemscore.Hbond.Weighted>
-8.3660

> <Gold.Chemscore.Metal.Weighted>
-0.0000

> <Gold.Chemscore.Lipo.Weighted>
-12.5496

> <Gold.Chemscore.Internal_Hbond.Weighted>
0.0000

> <Gold.Chemscore.DEClash.Weighted>
0.1206

> <Gold.Chemscore.DEInternal.Weighted>
1.0802

> <Gold.Chemscore.Rot.Weighted>
6.2880

> <Gold.Chemscore.Internal.Correction.Weighted>
   9.000000E+99

> <Gold.Protein.RotatedTorsions>
[ 6907 6896 6895 6894 ] final -104.02 input  -60.11 | X-H torsion
[ 7974 7965 7964 7962 ] final  -27.20 input  175.53 | X-H torsion
[ 8008 7997 7996 7995 ] final   97.65 input   59.86 | X-H torsion
[ 10167 10162 10161 10158 ] final  107.58 input  -65.29 | X-H torsion
[ 10718 10713 10712 10709 ] final -124.90 input   66.30 | X-H torsion
[ 10763 10752 10751 10750 ] final  133.91 input  -60.55 | X-H torsion
[ 11005 11000 10999 10996 ] final  -89.31 input  -57.11 | X-H torsion

> <Gold.Protein.ActiveResidues>
 VAL166  LYS551  ARG553  GLY616  TRP617  ASP618  TYR619  PRO620  LYS621  CYS622 
 ASP623  PHE694  ASN695  SER759  ASP760  ASP761  ALA762  ILE779  LEU786  VAL792 
 PHE793  MET794  SER795  GLU796  ALA797  LYS798  CYS799  TRP800  GLU811  SER814 

> <Gold.Protein.RotatedAtoms>
  150.7267  134.0340  159.3742 H   0  0  0  0  0  0  0  0  0  0  0  0  # atno 6907 bound_to 6896
  151.8311  135.0619  160.0446 H   0  0  0  0  0  0  0  0  0  0  0  0  # atno 6908 bound_to 6896
  152.2933  133.5546  159.5608 H   0  0  0  0  0  0  0  0  0  0  0  0  # atno 6909 bound_to 6896
  146.1374  140.5120  142.8667 H   0  0  0  0  0  0  0  0  0  0  0  0  # atno 7974 bound_to 7965
  156.0923  140.3255  155.7832 H   0  0  0  0  0  0  0  0  0  0  0  0  # atno 8008 bound_to 7997
  155.4976  140.0566  157.2961 H   0  0  0  0  0  0  0  0  0  0  0  0  # atno 8009 bound_to 7997
  154.4645  140.1982  156.0170 H   0  0  0  0  0  0  0  0  0  0  0  0  # atno 8010 bound_to 7997
  139.6916  144.7107  151.1339 H   0  0  0  0  0  0  0  0  0  0  0  0  # atno 10167 bound_to 10162
  156.1628  130.6614  151.0074 H   0  0  0  0  0  0  0  0  0  0  0  0  # atno 10718 bound_to 10713
  153.8149  135.3124  155.3404 H   0  0  0  0  0  0  0  0  0  0  0  0  # atno 10763 bound_to 10752
  154.8036  135.4711  154.0340 H   0  0  0  0  0  0  0  0  0  0  0  0  # atno 10764 bound_to 10752
  153.1730  135.6881  153.8670 H   0  0  0  0  0  0  0  0  0  0  0  0  # atno 10765 bound_to 10752
  141.1587  133.7623  156.9577 H   0  0  0  0  0  0  0  0  0  0  0  0  # atno 11005 bound_to 11000
  144.7755  140.5729  143.6641 LP  0  0  0  0  0  0  0  0  0  0  0  0  # atno 17320 bound_to 7965
  145.5125  139.1479  143.3597 LP  0  0  0  0  0  0  0  0  0  0  0  0  # atno 17321 bound_to 7965
  140.7684  143.5551  150.9161 LP  0  0  0  0  0  0  0  0  0  0  0  0  # atno 17342 bound_to 10162
  139.9229  143.6584  152.3093 LP  0  0  0  0  0  0  0  0  0  0  0  0  # atno 17343 bound_to 10162
  157.6745  131.0853  150.7528 LP  0  0  0  0  0  0  0  0  0  0  0  0  # atno 17370 bound_to 10713
  156.7590  130.4792  149.5441 LP  0  0  0  0  0  0  0  0  0  0  0  0  # atno 17371 bound_to 10713
  140.1214  134.9414  157.2209 LP  0  0  0  0  0  0  0  0  0  0  0  0  # atno 17394 bound_to 11000
  140.3067  134.3070  155.7276 LP  0  0  0  0  0  0  0  0  0  0  0  0  # atno 17395 bound_to 11000

$$$$
