AV-unprocessed.smi:2536|AV-procd|sdf|9978|dock3
  -GOLD-   2272014 23D 1   1.00000     0.00000
 Structure written by MMmdl.
 32 33  0  0  0  0  0  0  0  0  1 V2000
  151.5669  145.6208  160.0627 C   0  0  0  0  0  0  0  0  0  0  0  0
  151.6458  144.2862  159.3461 C   0  0  0  0  0  0  0  0  0  0  0  0
  151.3069  144.1771  157.9803 C   0  0  0  0  0  0  0  0  0  0  0  0
  151.3725  143.0018  157.3186 N   0  0  0  0  0  0  0  0  0  0  0  0
  151.7753  141.9360  158.0134 C   0  0  0  0  0  0  0  0  0  0  0  0
  151.8346  140.7516  157.3007 N   0  0  0  0  0  0  0  0  0  0  0  0
  151.4762  140.5991  155.8960 C   0  0  2  0  0  0  0  0  0  0  0  0
  150.0595  141.1266  155.6100 C   0  0  0  0  0  0  0  0  0  0  0  0
  149.6915  140.8588  154.1470 C   0  0  0  0  0  0  0  0  0  0  0  0
  149.8904  139.3730  153.8089 C   0  0  0  0  0  0  0  0  0  0  0  0
  151.2312  138.9866  154.0924 O   0  0  0  0  0  0  0  0  0  0  0  0
  151.5734  139.1228  155.4681 C   0  0  0  0  0  0  0  0  0  0  0  0
  152.1169  141.9197  159.3067 N   0  0  0  0  0  0  0  0  0  0  0  0
  152.0559  143.0887  159.9820 C   0  0  0  0  0  0  0  0  0  0  0  0
  152.4590  143.0171  161.4438 C   0  0  0  0  0  0  0  0  0  0  0  0
  151.2472  146.4128  159.3848 H   0  0  0  0  0  0  0  0  0  0  0  0
  152.5423  145.8951  160.4650 H   0  0  0  0  0  0  0  0  0  0  0  0
  150.8513  145.5714  160.8837 H   0  0  0  0  0  0  0  0  0  0  0  0
  150.9831  145.0362  157.4115 H   0  0  0  0  0  0  0  0  0  0  0  0
  152.0686  139.9181  157.8201 H   0  0  0  0  0  0  0  0  0  0  0  0
  152.1906  141.1658  155.2973 H   0  0  0  0  0  0  0  0  0  0  0  0
  149.3389  140.6319  156.2629 H   0  0  0  0  0  0  0  0  0  0  0  0
  149.9908  142.1943  155.8203 H   0  0  0  0  0  0  0  0  0  0  0  0
  148.6594  141.1545  153.9576 H   0  0  0  0  0  0  0  0  0  0  0  0
  150.3175  141.4683  153.4943 H   0  0  0  0  0  0  0  0  0  0  0  0
  149.1941  138.7494  154.3718 H   0  0  0  0  0  0  0  0  0  0  0  0
  149.6898  139.1991  152.7515 H   0  0  0  0  0  0  0  0  0  0  0  0
  152.5912  138.7571  155.6077 H   0  0  0  0  0  0  0  0  0  0  0  0
  150.9228  138.4920  156.0767 H   0  0  0  0  0  0  0  0  0  0  0  0
  152.3198  143.9614  161.9677 H   0  0  0  0  0  0  0  0  0  0  0  0
  153.5097  142.7383  161.5268 H   0  0  0  0  0  0  0  0  0  0  0  0
  151.8660  142.2611  161.9592 H   0  0  0  0  0  0  0  0  0  0  0  0
  1  2  1  0  0  0  0
  1 16  1  0  0  0  0
  1 17  1  0  0  0  0
  1 18  1  0  0  0  0
  2 14  1  0  0  0  0
  2  3  2  0  0  0  0
  3  4  1  0  0  0  0
  3 19  1  0  0  0  0
  4  5  2  0  0  0  0
  5  6  1  0  0  0  0
  5 13  1  0  0  0  0
  6  7  1  0  0  0  0
  6 20  1  0  0  0  0
  7 12  1  0  0  0  0
  7  8  1  0  0  0  0
  7 21  1  0  0  0  0
  8  9  1  0  0  0  0
  8 22  1  0  0  0  0
  8 23  1  0  0  0  0
  9 10  1  0  0  0  0
  9 24  1  0  0  0  0
  9 25  1  0  0  0  0
 10 11  1  0  0  0  0
 10 26  1  0  0  0  0
 10 27  1  0  0  0  0
 11 12  1  0  0  0  0
 12 28  1  0  0  0  0
 12 29  1  0  0  0  0
 13 14  2  0  0  0  0
 14 15  1  0  0  0  0
 15 30  1  0  0  0  0
 15 31  1  0  0  0  0
 15 32  1  0  0  0  0
M  END
> <s_m_source_file>
AV-unprocessed.smi

> <i_m_source_file_index>
2536

> <i_lp_mmshare_version>
43012

> <i_f3d_flags>
0

> <s_epik_input>
W0NIM11jMVtjSF1uYyhuYzFbQ0gzXSlbTkhdW0NAQEhdMltDSDJdW0NIMl1bQ0gyXU9bQ0gyXTI=

> <s_epik_cmdline>
J2VwaWtfcHl0aG9uJywgJy1waCcsICc3LjAnLCAnLXRuJywgJzgnLCAnLW1hJywgJzIwMCcsICctbWV0YWxfYmluZGluZycsICctaW1hZScsICc8aW5maWxlLm1hZT4nLCAnLW9tYWUnLCAnPG91dGZpbGUubWFlPic=

> <r_lp_tautomer_probability>
1

> <r_epik_Ionization_Penalty>
0.00982357

> <r_epik_Ionization_Penalty_Charging>
0

> <r_epik_Ionization_Penalty_Neutral>
0.00982357

> <r_epik_State_Penalty>
0.0064698

> <r_epik_Charging_Adjusted_Penalty>
0.0064698

> <i_epik_Tot_Q>
0

> <i_epik_Tot_abs_Q>
0

> <r_epik_Metal_State_Penalty>
-0

> <b_epik_Metal_Only>
0

> <s_lp_Force_Field>
OPLS_2005

> <r_lp_Energy>
1.83983

> <b_lp_Chiralities_Consistent>
1

> <s_lp_Variant>
AV-unprocessed.smi:2536-1

> <Gold.Version>
5.8.1

> <Gold.Id.Protein>
6NUR|6NUR_protein|mol2

> <Gold.PLP.Fitness>
38.3470

> <Gold.PLP.PLP>
-34.4263

> <Gold.PLP.part.hbond>
-0.7580

> <Gold.PLP.part.metal>
0.0000

> <Gold.PLP.part.buried>
-2.4961

> <Gold.PLP.part.nonpolar>
-32.0758

> <Gold.PLP.part.repulsive>
0.4009

> <Gold.PLP.ligand.clash>
0.0000

> <Gold.PLP.ligand.torsion>
0.0271

> <Gold.PLP.Chemscore.Hbond>
0.4576

> <Gold.PLP.Chemscore.CHOScore>
0.8664

> <Gold.PLP.Chemscore.Metal>
0.0000

> <Gold.Chemscore.Hbonds>
donor molecule, donor type, donor heavy atom, donor atom, acceptor molecule, acceptor atom, score
      P1  H  7989  7998       L1    11  0.14
      L1  C     3    19       P1  8028  0.45

> <Gold.PLP.Chemscore.Internal.Correction>
0.0031

> <Gold.Rescore>
     Score         DG    S(hbond)    S(metal)    S(lipo)     H(rot)  DE(clash)    DE(int)     intcor
     13.30     -13.38       0.00        0.00      89.43       1.00       0.02       0.06       ----

> <Gold.Chemscore.Fitness>
13.3006

> <Gold.Chemscore.DG>
-13.3832

> <Gold.Chemscore.ZeroCoef>
-5.4800

> <Gold.Chemscore.Hbond>
0.0000

> <Gold.Chemscore.Metal>
0.0000

> <Gold.Chemscore.Lipo>
89.4288

> <Gold.Chemscore.Internal_Hbond>
0.0000

> <Gold.Chemscore.DEClash>
0.0178

> <Gold.Chemscore.DEInternal>
0.0647

> <Gold.Chemscore.Rot>
1.0000

> <Gold.Chemscore.Internal.Correction>
   9.000000E+99

> <Gold.Chemscore.Hbond.Weighted>
-0.0000

> <Gold.Chemscore.Metal.Weighted>
-0.0000

> <Gold.Chemscore.Lipo.Weighted>
-10.4632

> <Gold.Chemscore.Internal_Hbond.Weighted>
0.0000

> <Gold.Chemscore.DEClash.Weighted>
0.0178

> <Gold.Chemscore.DEInternal.Weighted>
0.0647

> <Gold.Chemscore.Rot.Weighted>
2.5600

> <Gold.Chemscore.Internal.Correction.Weighted>
   9.000000E+99

> <Gold.Protein.RotatedTorsions>
[ 6907 6896 6895 6894 ] final   36.89 input  -60.11 | X-H torsion
[ 7974 7965 7964 7962 ] final -139.97 input  175.53 | X-H torsion
[ 8008 7997 7996 7995 ] final -101.14 input   59.86 | X-H torsion
[ 10167 10162 10161 10158 ] final  122.12 input  -65.29 | X-H torsion
[ 10718 10713 10712 10709 ] final   -3.67 input   66.30 | X-H torsion
[ 10763 10752 10751 10750 ] final   -2.07 input  -60.55 | X-H torsion
[ 11005 11000 10999 10996 ] final  -84.23 input  -57.11 | X-H torsion

> <Gold.Protein.ActiveResidues>
 VAL166  LYS551  ARG553  GLY616  TRP617  ASP618  TYR619  PRO620  LYS621  CYS622 
 ASP623  PHE694  ASN695  SER759  ASP760  ASP761  ALA762  ILE779  LEU786  VAL792 
 PHE793  MET794  SER795  GLU796  ALA797  LYS798  CYS799  TRP800  GLU811  SER814 

> <Gold.Protein.RotatedAtoms>
  152.1358  134.9100  160.0556 H   0  0  0  0  0  0  0  0  0  0  0  0  # atno 6907 bound_to 6896
  152.0187  133.3885  159.4257 H   0  0  0  0  0  0  0  0  0  0  0  0  # atno 6908 bound_to 6896
  150.6860  134.3572  159.4978 H   0  0  0  0  0  0  0  0  0  0  0  0  # atno 6909 bound_to 6896
  144.8634  140.6255  143.5313 H   0  0  0  0  0  0  0  0  0  0  0  0  # atno 7974 bound_to 7965
  154.8384  140.0436  157.1525 H   0  0  0  0  0  0  0  0  0  0  0  0  # atno 8008 bound_to 7997
  154.9074  140.3009  155.5264 H   0  0  0  0  0  0  0  0  0  0  0  0  # atno 8009 bound_to 7997
  156.2991  140.2364  156.4109 H   0  0  0  0  0  0  0  0  0  0  0  0  # atno 8010 bound_to 7997
  139.5878  144.7013  151.3366 H   0  0  0  0  0  0  0  0  0  0  0  0  # atno 10167 bound_to 10162
  156.7726  130.5305  149.5764 H   0  0  0  0  0  0  0  0  0  0  0  0  # atno 10718 bound_to 10713
  153.3532  135.6986  153.6771 H   0  0  0  0  0  0  0  0  0  0  0  0  # atno 10763 bound_to 10752
  153.5490  135.3557  155.2751 H   0  0  0  0  0  0  0  0  0  0  0  0  # atno 10764 bound_to 10752
  154.8656  135.4222  154.2773 H   0  0  0  0  0  0  0  0  0  0  0  0  # atno 10765 bound_to 10752
  141.1652  133.7335  156.8837 H   0  0  0  0  0  0  0  0  0  0  0  0  # atno 11005 bound_to 11000
  145.4268  139.1555  143.4044 LP  0  0  0  0  0  0  0  0  0  0  0  0  # atno 17320 bound_to 7965
  146.2878  140.4382  142.8751 LP  0  0  0  0  0  0  0  0  0  0  0  0  # atno 17321 bound_to 7965
  140.7146  143.7299  150.7631 LP  0  0  0  0  0  0  0  0  0  0  0  0  # atno 17342 bound_to 10162
  140.0848  143.4934  152.2511 LP  0  0  0  0  0  0  0  0  0  0  0  0  # atno 17343 bound_to 10162
  156.1268  130.6149  151.0275 LP  0  0  0  0  0  0  0  0  0  0  0  0  # atno 17370 bound_to 10713
  157.6684  131.0867  150.7673 LP  0  0  0  0  0  0  0  0  0  0  0  0  # atno 17371 bound_to 10713
  140.1697  134.9108  157.2818 LP  0  0  0  0  0  0  0  0  0  0  0  0  # atno 17394 bound_to 11000
  140.2516  134.3676  155.7440 LP  0  0  0  0  0  0  0  0  0  0  0  0  # atno 17395 bound_to 11000

$$$$
