AV-unprocessed.smi:232|AV-procd|sdf|1780|dock9
  -GOLD-   2262020323D 1   1.00000     0.00000
 Structure written by MMmdl.
 52 55  0  0  0  0  0  0  0  0  1 V2000
  152.4099  144.5952  158.6914 C   0  0  0  0  0  0  0  0  0  0  0  0
  151.7891  143.1929  158.7129 C   0  0  0  0  0  0  0  0  0  0  0  0
  152.8306  142.0709  158.9092 C   0  0  1  0  0  0  0  0  0  0  0  0
  153.4656  142.0494  160.3088 C   0  0  0  0  0  0  0  0  0  0  0  0
  153.7017  140.5656  160.6152 C   0  0  0  0  0  0  0  0  0  0  0  0
  153.2461  139.8349  159.3485 C   0  0  1  0  0  0  0  0  0  0  0  0
  152.6826  138.4305  159.6188 C   0  0  0  0  0  0  0  0  0  0  0  0
  152.2739  140.7335  158.7368 N   0  0  0  0  0  0  0  0  0  0  0  0
  151.8963  140.4321  157.4718 C   0  0  0  0  0  0  0  0  0  0  0  0
  152.6407  139.5861  156.7106 N   0  0  0  0  0  0  0  0  0  0  0  0
  152.2615  139.3045  155.4601 C   0  0  0  0  0  0  0  0  0  0  0  0
  151.1982  139.7528  154.7884 N   0  0  0  0  0  0  0  0  0  0  0  0
  150.4539  140.6037  155.5517 C   0  0  0  0  0  0  0  0  0  0  0  0
  150.7291  140.9931  156.8916 C   0  0  0  0  0  0  0  0  0  0  0  0
  149.7526  141.8712  157.3447 N   0  0  0  0  0  0  0  0  0  0  0  0
  148.9434  141.9949  156.3275 C   0  0  0  0  0  0  0  0  0  0  0  0
  149.2886  141.2660  155.2113 N   0  0  0  0  0  0  0  0  0  0  0  0
  148.5745  141.2132  153.9483 C   0  0  0  0  0  0  0  0  0  0  0  0
  147.1359  140.6853  154.1110 C   0  0  1  0  0  0  0  0  0  0  0  0
  146.5263  140.5017  152.8464 O   0  0  0  0  0  0  0  0  0  0  0  0
  147.0635  139.3889  154.9428 C   0  0  1  0  0  0  0  0  0  0  0  0
  145.6621  138.7836  155.1337 C   0  0  0  0  0  0  0  0  0  0  0  0
  145.8365  137.3270  154.7349 C   0  0  0  0  0  0  0  0  0  0  0  0
  147.3441  137.1184  154.8170 C   0  0  0  0  0  0  0  0  0  0  0  0
  147.8624  138.3597  154.3697 O   0  0  0  0  0  0  0  0  0  0  0  0
  151.6463  145.3530  158.5151 H   0  0  0  0  0  0  0  0  0  0  0  0
  153.1543  144.6830  157.8997 H   0  0  0  0  0  0  0  0  0  0  0  0
  152.8965  144.8317  159.6379 H   0  0  0  0  0  0  0  0  0  0  0  0
  151.0339  143.1389  159.4979 H   0  0  0  0  0  0  0  0  0  0  0  0
  151.2590  143.0447  157.7717 H   0  0  0  0  0  0  0  0  0  0  0  0
  153.6275  142.2003  158.1742 H   0  0  0  0  0  0  0  0  0  0  0  0
  154.3904  142.6269  160.3330 H   0  0  0  0  0  0  0  0  0  0  0  0
  152.7920  142.4727  161.0552 H   0  0  0  0  0  0  0  0  0  0  0  0
  154.7432  140.3490  160.8547 H   0  0  0  0  0  0  0  0  0  0  0  0
  153.0959  140.2704  161.4731 H   0  0  0  0  0  0  0  0  0  0  0  0
  154.1092  139.7449  158.6867 H   0  0  0  0  0  0  0  0  0  0  0  0
  153.4240  137.8038  160.1147 H   0  0  0  0  0  0  0  0  0  0  0  0
  152.3982  137.9303  158.6926 H   0  0  0  0  0  0  0  0  0  0  0  0
  151.8003  138.4739  160.2581 H   0  0  0  0  0  0  0  0  0  0  0  0
  152.9025  138.6231  154.9203 H   0  0  0  0  0  0  0  0  0  0  0  0
  148.0648  142.6225  156.3650 H   0  0  0  0  0  0  0  0  0  0  0  0
  148.5705  142.2117  153.5086 H   0  0  0  0  0  0  0  0  0  0  0  0
  149.1363  140.5741  153.2661 H   0  0  0  0  0  0  0  0  0  0  0  0
  146.5467  141.4428  154.6296 H   0  0  0  0  0  0  0  0  0  0  0  0
  145.5950  140.6294  152.9427 H   0  0  0  0  0  0  0  0  0  0  0  0
  147.4818  139.5892  155.9308 H   0  0  0  0  0  0  0  0  0  0  0  0
  145.3569  138.8672  156.1775 H   0  0  0  0  0  0  0  0  0  0  0  0
  144.8934  139.2665  154.5299 H   0  0  0  0  0  0  0  0  0  0  0  0
  145.2777  136.6395  155.3705 H   0  0  0  0  0  0  0  0  0  0  0  0
  145.5029  137.1853  153.7062 H   0  0  0  0  0  0  0  0  0  0  0  0
  147.6590  136.9385  155.8461 H   0  0  0  0  0  0  0  0  0  0  0  0
  147.6906  136.2901  154.1989 H   0  0  0  0  0  0  0  0  0  0  0  0
  1  2  1  0  0  0  0
  1 26  1  0  0  0  0
  1 27  1  0  0  0  0
  1 28  1  0  0  0  0
  2  3  1  0  0  0  0
  2 29  1  0  0  0  0
  2 30  1  0  0  0  0
  3  8  1  0  0  0  0
  3  4  1  0  0  0  0
  3 31  1  0  0  0  0
  4  5  1  0  0  0  0
  4 32  1  0  0  0  0
  4 33  1  0  0  0  0
  5  6  1  0  0  0  0
  5 34  1  0  0  0  0
  5 35  1  0  0  0  0
  6  7  1  0  0  0  0
  6  8  1  0  0  0  0
  6 36  1  0  0  0  0
  7 37  1  0  0  0  0
  7 38  1  0  0  0  0
  7 39  1  0  0  0  0
  8  9  1  0  0  0  0
  9 14  1  0  0  0  0
  9 10  2  0  0  0  0
 10 11  1  0  0  0  0
 11 12  2  0  0  0  0
 11 40  1  0  0  0  0
 12 13  1  0  0  0  0
 13 17  1  0  0  0  0
 13 14  2  0  0  0  0
 14 15  1  0  0  0  0
 15 16  2  0  0  0  0
 16 17  1  0  0  0  0
 16 41  1  0  0  0  0
 17 18  1  0  0  0  0
 18 19  1  0  0  0  0
 18 42  1  0  0  0  0
 18 43  1  0  0  0  0
 19 20  1  0  0  0  0
 19 21  1  0  0  0  0
 19 44  1  0  0  0  0
 20 45  1  0  0  0  0
 21 25  1  0  0  0  0
 21 22  1  0  0  0  0
 21 46  1  0  0  0  0
 22 23  1  0  0  0  0
 22 47  1  0  0  0  0
 22 48  1  0  0  0  0
 23 24  1  0  0  0  0
 23 49  1  0  0  0  0
 23 50  1  0  0  0  0
 24 25  1  0  0  0  0
 24 51  1  0  0  0  0
 24 52  1  0  0  0  0
M  END
> <s_m_source_file>
AV-unprocessed.smi

> <i_m_source_file_index>
232

> <i_lp_mmshare_version>
43012

> <i_f3d_flags>
0

> <s_epik_input>
W0NIM11bQ0gyXVtDQEBIXTFbQ0gyXVtDSDJdW0NAQEhdKFtDSDNdKU4xYyhuW2NIXW4yKWMoYzIzKW5bY0hdbjNbQ0gyXVtDQEhdKFtPSF0pW0NAQEhdNFtDSDJdW0NIMl1bQ0gyXU80

> <s_epik_cmdline>
J2VwaWtfcHl0aG9uJywgJy1waCcsICc3LjAnLCAnLXRuJywgJzgnLCAnLW1hJywgJzIwMCcsICctbWV0YWxfYmluZGluZycsICctaW1hZScsICc8aW5maWxlLm1hZT4nLCAnLW9tYWUnLCAnPG91dGZpbGUubWFlPic=

> <r_lp_tautomer_probability>
1

> <r_epik_Ionization_Penalty>
0.00258048

> <r_epik_Ionization_Penalty_Charging>
0

> <r_epik_Ionization_Penalty_Neutral>
0.00258048

> <r_epik_State_Penalty>
0.00168551

> <r_epik_Charging_Adjusted_Penalty>
0.00168551

> <i_epik_Tot_Q>
0

> <i_epik_Tot_abs_Q>
0

> <r_epik_Metal_State_Penalty>
-0

> <b_epik_Metal_Only>
0

> <s_lp_Force_Field>
OPLS_2005

> <r_lp_Energy>
53.8555

> <b_lp_Chiralities_Consistent>
1

> <s_lp_Variant>
AV-unprocessed.smi:232-14

> <Gold.Version>
5.8.1

> <Gold.Id.Protein>
6NUR|6NUR_protein|mol2

> <Gold.PLP.Fitness>
51.4750

> <Gold.PLP.PLP>
-42.0471

> <Gold.PLP.part.hbond>
-3.0000

> <Gold.PLP.part.metal>
0.0000

> <Gold.PLP.part.buried>
-2.9904

> <Gold.PLP.part.nonpolar>
-36.4087

> <Gold.PLP.part.repulsive>
0.3171

> <Gold.PLP.ligand.clash>
0.0000

> <Gold.PLP.ligand.torsion>
0.4923

> <Gold.PLP.Chemscore.Hbond>
3.0000

> <Gold.PLP.Chemscore.CHOScore>
0.4374

> <Gold.PLP.Chemscore.Metal>
0.0000

> <Gold.Chemscore.Hbonds>
donor molecule, donor type, donor heavy atom, donor atom, acceptor molecule, acceptor atom, score
      L1  H    20    45       P1 10175  1.00
      P1  H  7989  7998       L1    12  0.95
      P1  H  7997  8009       L1    10  0.95
      L1  C    16    41       P1  8028  0.48

> <Gold.PLP.Chemscore.Internal.Correction>
0.1001

> <Gold.Rescore>
     Score         DG    S(hbond)    S(metal)    S(lipo)     H(rot)  DE(clash)    DE(int)     intcor
     14.00     -15.69       1.76        0.00      90.23       2.43       0.61       1.08       ----

> <Gold.Chemscore.Fitness>
13.9989

> <Gold.Chemscore.DG>
-15.6918

> <Gold.Chemscore.ZeroCoef>
-5.4800

> <Gold.Chemscore.Hbond>
1.7563

> <Gold.Chemscore.Metal>
0.0000

> <Gold.Chemscore.Lipo>
90.2256

> <Gold.Chemscore.Internal_Hbond>
0.0000

> <Gold.Chemscore.DEClash>
0.6100

> <Gold.Chemscore.DEInternal>
1.0828

> <Gold.Chemscore.Rot>
2.4260

> <Gold.Chemscore.Internal.Correction>
   9.000000E+99

> <Gold.Chemscore.Hbonds>
donor molecule, donor type, donor heavy atom, donor atom, acceptor molecule, acceptor atom, score
      L1  H    20    45       P1 10175  0.68
      P1  H  7989  7998       L1    12  0.18
      P1  H  7997  8009       L1    10  0.20

> <Gold.Chemscore.Hbond.Weighted>
-5.8661

> <Gold.Chemscore.Metal.Weighted>
-0.0000

> <Gold.Chemscore.Lipo.Weighted>
-10.5564

> <Gold.Chemscore.Internal_Hbond.Weighted>
0.0000

> <Gold.Chemscore.DEClash.Weighted>
0.6100

> <Gold.Chemscore.DEInternal.Weighted>
1.0828

> <Gold.Chemscore.Rot.Weighted>
6.2107

> <Gold.Chemscore.Internal.Correction.Weighted>
   9.000000E+99

> <Gold.Protein.RotatedTorsions>
[ 6907 6896 6895 6894 ] final  -85.79 input  -60.11 | X-H torsion
[ 7974 7965 7964 7962 ] final  162.49 input  175.53 | X-H torsion
[ 8008 7997 7996 7995 ] final -163.06 input   59.86 | X-H torsion
[ 10167 10162 10161 10158 ] final  100.24 input  -65.29 | X-H torsion
[ 10718 10713 10712 10709 ] final  -75.75 input   66.30 | X-H torsion
[ 10763 10752 10751 10750 ] final  -69.83 input  -60.55 | X-H torsion
[ 11005 11000 10999 10996 ] final  111.90 input  -57.11 | X-H torsion

> <Gold.Protein.ActiveResidues>
 VAL166  LYS551  ARG553  GLY616  TRP617  ASP618  TYR619  PRO620  LYS621  CYS622 
 ASP623  PHE694  ASN695  SER759  ASP760  ASP761  ALA762  ILE779  LEU786  VAL792 
 PHE793  MET794  SER795  GLU796  ALA797  LYS798  CYS799  TRP800  GLU811  SER814 

> <Gold.Protein.RotatedAtoms>
  150.6869  134.3150  159.4762 H   0  0  0  0  0  0  0  0  0  0  0  0  # atno 6907 bound_to 6896
  152.1032  134.9324  160.0578 H   0  0  0  0  0  0  0  0  0  0  0  0  # atno 6908 bound_to 6896
  152.0596  133.4021  159.4449 H   0  0  0  0  0  0  0  0  0  0  0  0  # atno 6909 bound_to 6896
  144.7634  139.8047  143.6324 H   0  0  0  0  0  0  0  0  0  0  0  0  # atno 7974 bound_to 7965
  155.8158  140.0912  157.1878 H   0  0  0  0  0  0  0  0  0  0  0  0  # atno 8008 bound_to 7997
  154.3979  140.1446  156.3501 H   0  0  0  0  0  0  0  0  0  0  0  0  # atno 8009 bound_to 7997
  155.8318  140.3442  155.5579 H   0  0  0  0  0  0  0  0  0  0  0  0  # atno 8010 bound_to 7997
  139.7544  144.6974  151.0384 H   0  0  0  0  0  0  0  0  0  0  0  0  # atno 10167 bound_to 10162
  156.0197  130.4448  150.3090 H   0  0  0  0  0  0  0  0  0  0  0  0  # atno 10718 bound_to 10713
  154.4090  135.6013  153.5942 H   0  0  0  0  0  0  0  0  0  0  0  0  # atno 10763 bound_to 10752
  152.9790  135.5925  154.4092 H   0  0  0  0  0  0  0  0  0  0  0  0  # atno 10764 bound_to 10752
  154.3902  135.2842  155.2137 H   0  0  0  0  0  0  0  0  0  0  0  0  # atno 10765 bound_to 10752
  139.8914  134.9518  156.6504 H   0  0  0  0  0  0  0  0  0  0  0  0  # atno 11005 bound_to 11000
  146.1719  139.4874  142.9922 LP  0  0  0  0  0  0  0  0  0  0  0  0  # atno 17320 bound_to 7965
  145.6546  141.0255  143.1742 LP  0  0  0  0  0  0  0  0  0  0  0  0  # atno 17321 bound_to 7965
  140.7801  143.4770  151.0069 LP  0  0  0  0  0  0  0  0  0  0  0  0  # atno 17342 bound_to 10162
  139.8457  143.7504  152.3179 LP  0  0  0  0  0  0  0  0  0  0  0  0  # atno 17343 bound_to 10162
  157.1192  131.0242  151.3016 LP  0  0  0  0  0  0  0  0  0  0  0  0  # atno 17370 bound_to 10713
  157.4642  130.7671  149.7263 LP  0  0  0  0  0  0  0  0  0  0  0  0  # atno 17371 bound_to 10713
  140.7525  133.8885  155.8357 LP  0  0  0  0  0  0  0  0  0  0  0  0  # atno 17394 bound_to 11000
  140.9989  134.1177  157.4337 LP  0  0  0  0  0  0  0  0  0  0  0  0  # atno 17395 bound_to 11000

$$$$
