AV-unprocessed.smi:1983|AV-procd|sdf|8036|dock4
  -GOLD-   2272010233D 1   1.00000     0.00000
 Structure written by MMmdl.
 50 51  0  0  0  0  0  0  0  0  2 V2000
  146.9987  135.6083  156.2473 C   0  0  0  0  0  0  0  0  0  0  0  0
  146.5302  135.4805  154.7897 C   0  0  2  0  0  0  0  0  0  0  0  0
  146.7162  134.0525  154.2395 C   0  0  0  0  0  0  0  0  0  0  0  0
  146.9523  134.0878  152.8481 O   0  0  0  0  0  0  0  0  0  0  0  0
  147.2603  136.4438  153.9696 N   0  0  0  0  0  0  0  0  0  0  0  0
  147.2931  137.7685  154.1718 C   0  0  0  0  0  0  0  0  0  0  0  0
  146.6833  138.3476  155.0709 O   0  0  0  0  0  0  0  0  0  0  0  0
  148.0675  138.3902  153.2715 N   0  0  0  0  0  0  0  0  0  0  0  0
  148.3253  139.8271  153.2448 C   0  0  0  0  0  0  0  0  0  0  0  0
  149.1519  140.3593  154.4094 C   0  0  0  0  0  0  0  0  0  0  0  0
  149.9520  139.5185  155.2160 C   0  0  0  0  0  0  0  0  0  0  0  0
  150.6839  140.0694  156.2883 C   0  0  0  0  0  0  0  0  0  0  0  0
  150.6058  141.4594  156.5572 C   0  0  0  0  0  0  0  0  0  0  0  0
  151.3000  142.1005  157.6067 N   0  0  0  0  0  0  0  0  0  0  0  0
  152.0548  141.2718  158.5405 C   0  0  0  0  0  0  0  0  0  0  0  0
  153.0172  142.1357  159.3748 C   0  0  2  0  0  0  0  0  0  0  0  0
  153.7190  141.3192  160.4650 C   0  0  0  0  0  0  0  0  0  0  0  0
  152.2895  143.1857  160.0092 O   0  0  0  0  0  0  0  0  0  0  0  0
  151.5836  144.0480  159.1152 C   0  0  1  0  0  0  0  0  0  0  0  0
  152.5299  144.9531  158.3060 C   0  0  0  0  0  0  0  0  0  0  0  0
  150.6176  143.2295  158.2370 C   0  0  0  0  0  0  0  0  0  0  0  0
  149.8215  142.2204  155.7555 N   0  3  0  0  0  0  0  0  0  0  0  0
  149.1081  141.7339  154.7173 C   0  0  0  0  0  0  0  0  0  0  0  0
  146.4411  134.9378  156.9018 H   0  0  0  0  0  0  0  0  0  0  0  0
  146.8525  136.6229  156.6194 H   0  0  0  0  0  0  0  0  0  0  0  0
  148.0572  135.3658  156.3480 H   0  0  0  0  0  0  0  0  0  0  0  0
  145.4697  135.7386  154.7528 H   0  0  0  0  0  0  0  0  0  0  0  0
  147.5737  133.5662  154.7054 H   0  0  0  0  0  0  0  0  0  0  0  0
  145.8430  133.4334  154.4481 H   0  0  0  0  0  0  0  0  0  0  0  0
  147.5495  134.7962  152.6618 H   0  0  0  0  0  0  0  0  0  0  0  0
  147.7955  136.0669  153.2009 H   0  0  0  0  0  0  0  0  0  0  0  0
  148.5310  137.8290  152.5717 H   0  0  0  0  0  0  0  0  0  0  0  0
  148.8109  140.0918  152.3036 H   0  0  0  0  0  0  0  0  0  0  0  0
  147.3642  140.3415  153.2480 H   0  0  0  0  0  0  0  0  0  0  0  0
  150.0092  138.4569  155.0260 H   0  0  0  0  0  0  0  0  0  0  0  0
  151.2834  139.4068  156.8940 H   0  0  0  0  0  0  0  0  0  0  0  0
  151.3580  140.7423  159.1919 H   0  0  0  0  0  0  0  0  0  0  0  0
  152.6356  140.5241  157.9997 H   0  0  0  0  0  0  0  0  0  0  0  0
  153.7844  142.5594  158.7263 H   0  0  0  0  0  0  0  0  0  0  0  0
  154.3033  140.5063  160.0328 H   0  0  0  0  0  0  0  0  0  0  0  0
  152.9987  140.8828  161.1579 H   0  0  0  0  0  0  0  0  0  0  0  0
  154.3990  141.9455  161.0430 H   0  0  0  0  0  0  0  0  0  0  0  0
  150.9818  144.7062  159.7425 H   0  0  0  0  0  0  0  0  0  0  0  0
  151.9643  145.6948  157.7416 H   0  0  0  0  0  0  0  0  0  0  0  0
  153.1298  144.3924  157.5894 H   0  0  0  0  0  0  0  0  0  0  0  0
  153.2109  145.4913  158.9656 H   0  0  0  0  0  0  0  0  0  0  0  0
  150.1576  143.8903  157.5022 H   0  0  0  0  0  0  0  0  0  0  0  0
  149.8091  142.8349  158.8537 H   0  0  0  0  0  0  0  0  0  0  0  0
  148.5261  142.4583  154.1662 H   0  0  0  0  0  0  0  0  0  0  0  0
  149.7682  143.2214  155.9453 H   0  0  0  0  0  0  0  0  0  0  0  0
  1  2  1  0  0  0  0
  1 24  1  0  0  0  0
  1 25  1  0  0  0  0
  1 26  1  0  0  0  0
  2  3  1  0  0  0  0
  2  5  1  0  0  0  0
  2 27  1  0  0  0  0
  3  4  1  0  0  0  0
  3 28  1  0  0  0  0
  3 29  1  0  0  0  0
  4 30  1  0  0  0  0
  5  6  1  0  0  0  0
  5 31  1  0  0  0  0
  6  7  2  0  0  0  0
  6  8  1  0  0  0  0
  8  9  1  0  0  0  0
  8 32  1  0  0  0  0
  9 10  1  0  0  0  0
  9 33  1  0  0  0  0
  9 34  1  0  0  0  0
 10 23  1  0  0  0  0
 10 11  2  0  0  0  0
 11 12  1  0  0  0  0
 11 35  1  0  0  0  0
 12 13  2  0  0  0  0
 12 36  1  0  0  0  0
 13 14  1  0  0  0  0
 13 22  1  0  0  0  0
 14 21  1  0  0  0  0
 14 15  1  0  0  0  0
 15 16  1  0  0  0  0
 15 37  1  0  0  0  0
 15 38  1  0  0  0  0
 16 17  1  0  0  0  0
 16 18  1  0  0  0  0
 16 39  1  0  0  0  0
 17 40  1  0  0  0  0
 17 41  1  0  0  0  0
 17 42  1  0  0  0  0
 18 19  1  0  0  0  0
 19 20  1  0  0  0  0
 19 21  1  0  0  0  0
 19 43  1  0  0  0  0
 20 44  1  0  0  0  0
 20 45  1  0  0  0  0
 20 46  1  0  0  0  0
 21 47  1  0  0  0  0
 21 48  1  0  0  0  0
 22 23  2  0  0  0  0
 22 50  1  0  0  0  0
 23 49  1  0  0  0  0
M  CHG  1  22   1
M  END
> <s_m_source_file>
AV-unprocessed.smi

> <i_m_source_file_index>
1983

> <i_lp_mmshare_version>
43012

> <i_f3d_flags>
0

> <s_epik_input>
W09IXVtDSDJdW0NAQEhdKFtDSDNdKVtOSF1DKD1PKVtOSF1bQ0gyXWMxW2NIXVtjSF1jKG5bY0hdMSlOMltDSDJdW0NAQEhdKFtDSDNdKU9bQ0BASF0oW0NIM10pW0NIMl0y

> <s_epik_cmdline>
J2VwaWtfcHl0aG9uJywgJy1waCcsICc3LjAnLCAnLXRuJywgJzgnLCAnLW1hJywgJzIwMCcsICctbWV0YWxfYmluZGluZycsICctaW1hZScsICc8aW5maWxlLm1hZT4nLCAnLW9tYWUnLCAnPG91dGZpbGUubWFlPic=

> <r_lp_tautomer_probability>
0.999994

> <r_epik_Ionization_Penalty>
2.55677

> <r_epik_Ionization_Penalty_Charging>
2.55673

> <r_epik_Ionization_Penalty_Neutral>
3.71772e-05

> <r_epik_State_Penalty>
2.72571

> <r_epik_Charging_Adjusted_Penalty>
5.28244

> <i_epik_Tot_Q>
1

> <i_epik_Tot_abs_Q>
1

> <r_epik_Metal_State_Penalty>
2.73364

> <b_epik_Metal_Only>
0

> <s_lp_Force_Field>
OPLS_2005

> <r_lp_Energy>
21.0227

> <b_lp_Chiralities_Consistent>
1

> <s_lp_Variant>
AV-unprocessed.smi:1983-9

> <Gold.Version>
5.8.1

> <Gold.Id.Protein>
6NUR|6NUR_protein|mol2

> <Gold.PLP.Fitness>
50.3790

> <Gold.PLP.PLP>
-37.4729

> <Gold.PLP.part.hbond>
-5.0000

> <Gold.PLP.part.metal>
0.0000

> <Gold.PLP.part.buried>
0.9914

> <Gold.PLP.part.nonpolar>
-33.9311

> <Gold.PLP.part.repulsive>
0.2957

> <Gold.PLP.ligand.clash>
0.0000

> <Gold.PLP.ligand.torsion>
1.0861

> <Gold.PLP.Chemscore.Hbond>
4.8800

> <Gold.PLP.Chemscore.CHOScore>
0.0000

> <Gold.PLP.Chemscore.Metal>
0.0000

> <Gold.Chemscore.Hbonds>
donor molecule, donor type, donor heavy atom, donor atom, acceptor molecule, acceptor atom, score
      L1  H     4    30       P1  7948  0.75
      L1  H     5    31       P1  7948  1.00
      L1  H     8    32       P1  7948  1.00
      L1  H    22    50       P1  8028  1.86

> <Gold.PLP.Chemscore.Internal.Correction>
0.4383

> <Gold.Rescore>
     Score         DG    S(hbond)    S(metal)    S(lipo)     H(rot)  DE(clash)    DE(int)     intcor
     19.97     -23.09       3.65        0.00     104.61       2.66       2.00       1.12       ----

> <Gold.Chemscore.Fitness>
19.9713

> <Gold.Chemscore.DG>
-23.0924

> <Gold.Chemscore.ZeroCoef>
-5.4800

> <Gold.Chemscore.Hbond>
3.6505

> <Gold.Chemscore.Metal>
0.0000

> <Gold.Chemscore.Lipo>
104.6065

> <Gold.Chemscore.Internal_Hbond>
0.0000

> <Gold.Chemscore.DEClash>
2.0048

> <Gold.Chemscore.DEInternal>
1.1164

> <Gold.Chemscore.Rot>
2.6637

> <Gold.Chemscore.Internal.Correction>
   9.000000E+99

> <Gold.Chemscore.Hbonds>
donor molecule, donor type, donor heavy atom, donor atom, acceptor molecule, acceptor atom, score
      L1  H     4    30       P1  7948  0.72
      L1  H     5    31       P1  7948  0.97
      L1  H     8    32       P1  7948  0.97
      L1  H    22    50       P1  8028  0.90

> <Gold.Chemscore.Hbond.Weighted>
-12.1926

> <Gold.Chemscore.Metal.Weighted>
-0.0000

> <Gold.Chemscore.Lipo.Weighted>
-12.2390

> <Gold.Chemscore.Internal_Hbond.Weighted>
0.0000

> <Gold.Chemscore.DEClash.Weighted>
2.0048

> <Gold.Chemscore.DEInternal.Weighted>
1.1164

> <Gold.Chemscore.Rot.Weighted>
6.8191

> <Gold.Chemscore.Internal.Correction.Weighted>
   9.000000E+99

> <Gold.Protein.RotatedTorsions>
[ 6907 6896 6895 6894 ] final  139.59 input  -60.11 | X-H torsion
[ 7974 7965 7964 7962 ] final -102.85 input  175.53 | X-H torsion
[ 8008 7997 7996 7995 ] final  -15.86 input   59.86 | X-H torsion
[ 10167 10162 10161 10158 ] final  -33.84 input  -65.29 | X-H torsion
[ 10718 10713 10712 10709 ] final  139.02 input   66.30 | X-H torsion
[ 10763 10752 10751 10750 ] final   33.55 input  -60.55 | X-H torsion
[ 11005 11000 10999 10996 ] final    3.38 input  -57.11 | X-H torsion

> <Gold.Protein.ActiveResidues>
 VAL166  LYS551  ARG553  GLY616  TRP617  ASP618  TYR619  PRO620  LYS621  CYS622 
 ASP623  PHE694  ASN695  SER759  ASP760  ASP761  ALA762  ILE779  LEU786  VAL792 
 PHE793  MET794  SER795  GLU796  ALA797  LYS798  CYS799  TRP800  GLU811  SER814 

> <Gold.Protein.RotatedAtoms>
  152.2531  133.5232  159.5337 H   0  0  0  0  0  0  0  0  0  0  0  0  # atno 6907 bound_to 6896
  150.7100  134.0932  159.3948 H   0  0  0  0  0  0  0  0  0  0  0  0  # atno 6908 bound_to 6896
  151.8851  135.0438  160.0543 H   0  0  0  0  0  0  0  0  0  0  0  0  # atno 6909 bound_to 6896
  145.2635  140.9276  143.3027 H   0  0  0  0  0  0  0  0  0  0  0  0  # atno 7974 bound_to 7965
  154.5097  140.2185  155.9180 H   0  0  0  0  0  0  0  0  0  0  0  0  # atno 8008 bound_to 7997
  156.1537  140.3156  155.8657 H   0  0  0  0  0  0  0  0  0  0  0  0  # atno 8009 bound_to 7997
  155.3888  140.0477  157.3032 H   0  0  0  0  0  0  0  0  0  0  0  0  # atno 8010 bound_to 7997
  140.7197  143.3591  151.1999 H   0  0  0  0  0  0  0  0  0  0  0  0  # atno 10167 bound_to 10162
  157.4189  131.1036  151.0374 H   0  0  0  0  0  0  0  0  0  0  0  0  # atno 10718 bound_to 10713
  153.0206  135.6384  154.1530 H   0  0  0  0  0  0  0  0  0  0  0  0  # atno 10763 bound_to 10752
  154.1264  135.2843  155.3197 H   0  0  0  0  0  0  0  0  0  0  0  0  # atno 10764 bound_to 10752
  154.6226  135.5520  153.7654 H   0  0  0  0  0  0  0  0  0  0  0  0  # atno 10765 bound_to 10752
  140.5938  133.9899  155.8100 H   0  0  0  0  0  0  0  0  0  0  0  0  # atno 11005 bound_to 11000
  144.9398  139.4202  143.6454 LP  0  0  0  0  0  0  0  0  0  0  0  0  # atno 17320 bound_to 7965
  146.3268  139.8351  142.8901 LP  0  0  0  0  0  0  0  0  0  0  0  0  # atno 17321 bound_to 7965
  139.7139  143.9332  152.2959 LP  0  0  0  0  0  0  0  0  0  0  0  0  # atno 17342 bound_to 10162
  139.9066  144.6881  150.8607 LP  0  0  0  0  0  0  0  0  0  0  0  0  # atno 17343 bound_to 10162
  157.1312  130.6103  149.5530 LP  0  0  0  0  0  0  0  0  0  0  0  0  # atno 17370 bound_to 10713
  155.9874  130.4913  150.7124 LP  0  0  0  0  0  0  0  0  0  0  0  0  # atno 17371 bound_to 10713
  141.0917  133.9906  157.3226 LP  0  0  0  0  0  0  0  0  0  0  0  0  # atno 17394 bound_to 11000
  139.9262  135.0201  156.8243 LP  0  0  0  0  0  0  0  0  0  0  0  0  # atno 17395 bound_to 11000

$$$$
