AV-unprocessed.smi:3314|AV-procd|sdf|12743|dock6
  -GOLD-   2272019 83D 1   1.00000     0.00000
 Structure written by MMmdl.
 37 38  0  0  0  0  0  0  0  0  3 V2000
  152.2350  143.6680  160.9772 C   0  0  0  0  0  0  0  0  0  0  0  0
  152.6462  142.4469  160.1819 C   0  0  0  0  0  0  0  0  0  0  0  0
  153.8272  141.7462  160.4917 C   0  0  0  0  0  0  0  0  0  0  0  0
  154.1558  140.6229  159.7081 C   0  0  0  0  0  0  0  0  0  0  0  0
  155.4107  139.8223  159.9854 C   0  0  0  0  0  0  0  0  0  0  0  0
  153.3919  140.1895  158.6821 N   0  0  0  0  0  0  0  0  0  0  0  0
  152.2485  140.8494  158.3797 C   0  0  0  0  0  0  0  0  0  0  0  0
  151.5050  140.4148  157.3520 N   0  5  0  0  0  0  0  0  0  0  0  0
  150.9980  141.2999  156.4593 C   0  0  0  0  0  0  0  0  0  0  0  0
  150.9589  142.5299  156.5287 O   0  0  0  0  0  0  0  0  0  0  0  0
  150.4029  140.5940  155.2326 C   0  0  2  0  0  0  0  0  0  0  0  0
  149.0047  141.1432  154.8745 C   0  0  0  0  0  0  0  0  0  0  0  0
  148.4294  140.3795  153.7442 N   0  3  2  0  0  0  0  0  0  0  0  0
  147.1093  140.8930  153.3212 C   0  0  0  0  0  0  0  0  0  0  0  0
  148.4108  138.9294  154.0425 C   0  0  0  0  0  0  0  0  0  0  0  0
  149.8173  138.4473  154.4342 C   0  0  0  0  0  0  0  0  0  0  0  0
  150.2903  139.2071  155.5386 O   0  0  0  0  0  0  0  0  0  0  0  0
  151.8505  141.9927  159.1110 C   0  0  0  0  0  0  0  0  0  0  0  0
  152.8356  143.7719  161.8813 H   0  0  0  0  0  0  0  0  0  0  0  0
  151.1878  143.5946  161.2715 H   0  0  0  0  0  0  0  0  0  0  0  0
  152.3617  144.5683  160.3756 H   0  0  0  0  0  0  0  0  0  0  0  0
  154.4643  142.0614  161.3051 H   0  0  0  0  0  0  0  0  0  0  0  0
  156.0951  140.3746  160.6296 H   0  0  0  0  0  0  0  0  0  0  0  0
  155.9329  139.5925  159.0561 H   0  0  0  0  0  0  0  0  0  0  0  0
  155.1564  138.8841  160.4790 H   0  0  0  0  0  0  0  0  0  0  0  0
  151.0628  140.7128  154.3689 H   0  0  0  0  0  0  0  0  0  0  0  0
  148.3306  141.0783  155.7310 H   0  0  0  0  0  0  0  0  0  0  0  0
  149.0769  142.1970  154.6014 H   0  0  0  0  0  0  0  0  0  0  0  0
  146.3749  140.7927  154.1217 H   0  0  0  0  0  0  0  0  0  0  0  0
  146.7448  140.3461  152.4513 H   0  0  0  0  0  0  0  0  0  0  0  0
  147.1768  141.9465  153.0481 H   0  0  0  0  0  0  0  0  0  0  0  0
  147.7100  138.7310  154.8551 H   0  0  0  0  0  0  0  0  0  0  0  0
  148.0582  138.3773  153.1707 H   0  0  0  0  0  0  0  0  0  0  0  0
  149.7887  137.3948  154.7165 H   0  0  0  0  0  0  0  0  0  0  0  0
  150.5084  138.5328  153.5942 H   0  0  0  0  0  0  0  0  0  0  0  0
  150.9410  142.5162  158.8536 H   0  0  0  0  0  0  0  0  0  0  0  0
  149.0569  140.5070  152.9628 H   0  0  0  0  0  0  0  0  0  0  0  0
  1  2  1  0  0  0  0
  1 19  1  0  0  0  0
  1 20  1  0  0  0  0
  1 21  1  0  0  0  0
  2 18  2  0  0  0  0
  2  3  1  0  0  0  0
  3  4  2  0  0  0  0
  3 22  1  0  0  0  0
  4  5  1  0  0  0  0
  4  6  1  0  0  0  0
  5 23  1  0  0  0  0
  5 24  1  0  0  0  0
  5 25  1  0  0  0  0
  6  7  2  0  0  0  0
  7  8  1  0  0  0  0
  7 18  1  0  0  0  0
  8  9  1  0  0  0  0
  9 10  2  0  0  0  0
  9 11  1  0  0  0  0
 11 17  1  0  0  0  0
 11 12  1  0  0  0  0
 11 26  1  0  0  0  0
 12 13  1  0  0  0  0
 12 27  1  0  0  0  0
 12 28  1  0  0  0  0
 13 14  1  0  0  0  0
 13 15  1  0  0  0  0
 13 37  1  0  0  0  0
 14 29  1  0  0  0  0
 14 30  1  0  0  0  0
 14 31  1  0  0  0  0
 15 16  1  0  0  0  0
 15 32  1  0  0  0  0
 15 33  1  0  0  0  0
 16 17  1  0  0  0  0
 16 34  1  0  0  0  0
 16 35  1  0  0  0  0
 18 36  1  0  0  0  0
M  CHG  1   8  -1
M  CHG  1  13   1
M  END
> <s_m_source_file>
AV-unprocessed.smi

> <i_m_source_file_index>
3314

> <i_lp_mmshare_version>
43012

> <i_f3d_flags>
0

> <s_epik_input>
W0NIM11jMVtjSF1jKFtDSDNdKW5jKFtjSF0xKVtOSF1DKD1PKVtDQEBIXTJbQ0gyXU4oW0NIM10pW0NIMl1bQ0gyXU8y

> <s_epik_cmdline>
J2VwaWtfcHl0aG9uJywgJy1waCcsICc3LjAnLCAnLXRuJywgJzgnLCAnLW1hJywgJzIwMCcsICctbWV0YWxfYmluZGluZycsICctaW1hZScsICc8aW5maWxlLm1hZT4nLCAnLW9tYWUnLCAnPG91dGZpbGUubWFlPic=

> <r_epik_Ionization_Penalty>
13.8964

> <r_epik_Ionization_Penalty_Charging>
7.88995

> <r_epik_Ionization_Penalty_Neutral>
6.00641

> <r_epik_State_Penalty>
8.39989

> <r_epik_Charging_Adjusted_Penalty>
16.2898

> <i_epik_Tot_Q>
0

> <i_epik_Tot_abs_Q>
2

> <r_epik_Metal_State_Penalty>
4.31145

> <b_epik_Metal_Only>
1

> <s_lp_Force_Field>
OPLS_2005

> <r_lp_Energy>
9.48457

> <b_lp_Chiralities_Consistent>
1

> <s_lp_Variant>
AV-unprocessed.smi:3314-13

> <Gold.Version>
5.8.1

> <Gold.Id.Protein>
6NUR|6NUR_protein|mol2

> <Gold.PLP.Fitness>
40.9123

> <Gold.PLP.PLP>
-36.6921

> <Gold.PLP.part.hbond>
-2.0000

> <Gold.PLP.part.metal>
0.0000

> <Gold.PLP.part.buried>
-2.9120

> <Gold.PLP.part.nonpolar>
-31.0531

> <Gold.PLP.part.repulsive>
0.2904

> <Gold.PLP.ligand.clash>
0.2212

> <Gold.PLP.ligand.torsion>
0.6864

> <Gold.PLP.Chemscore.Hbond>
1.9360

> <Gold.PLP.Chemscore.CHOScore>
0.0000

> <Gold.PLP.Chemscore.Metal>
0.0000

> <Gold.Chemscore.Hbonds>
donor molecule, donor type, donor heavy atom, donor atom, acceptor molecule, acceptor atom, score
      L1  H    13    37       P1  7957  0.99
      P1  H  7997  8009       L1     6  0.96

> <Gold.PLP.Chemscore.Internal.Correction>
0.0062

> <Gold.Rescore>
     Score         DG    S(hbond)    S(metal)    S(lipo)     H(rot)  DE(clash)    DE(int)     intcor
     16.09     -18.88       1.51        0.00      93.24       1.00       0.80       2.00       ----

> <Gold.Chemscore.Fitness>
16.0856

> <Gold.Chemscore.DG>
-18.8776

> <Gold.Chemscore.ZeroCoef>
-5.4800

> <Gold.Chemscore.Hbond>
1.5114

> <Gold.Chemscore.Metal>
0.0000

> <Gold.Chemscore.Lipo>
93.2441

> <Gold.Chemscore.Internal_Hbond>
0.0000

> <Gold.Chemscore.DEClash>
0.7952

> <Gold.Chemscore.DEInternal>
1.9967

> <Gold.Chemscore.Rot>
1.0000

> <Gold.Chemscore.Internal.Correction>
   9.000000E+99

> <Gold.Chemscore.Hbonds>
donor molecule, donor type, donor heavy atom, donor atom, acceptor molecule, acceptor atom, score
      L1  H    13    37       P1  7957  0.94
      P1  H  7997  8009       L1     6  0.35

> <Gold.Chemscore.Hbond.Weighted>
-5.0480

> <Gold.Chemscore.Metal.Weighted>
-0.0000

> <Gold.Chemscore.Lipo.Weighted>
-10.9096

> <Gold.Chemscore.Internal_Hbond.Weighted>
0.0000

> <Gold.Chemscore.DEClash.Weighted>
0.7952

> <Gold.Chemscore.DEInternal.Weighted>
1.9967

> <Gold.Chemscore.Rot.Weighted>
2.5600

> <Gold.Chemscore.Internal.Correction.Weighted>
   9.000000E+99

> <Gold.Protein.RotatedTorsions>
[ 6907 6896 6895 6894 ] final -103.39 input  -60.11 | X-H torsion
[ 7974 7965 7964 7962 ] final -172.80 input  175.53 | X-H torsion
[ 8008 7997 7996 7995 ] final  149.96 input   59.86 | X-H torsion
[ 10167 10162 10161 10158 ] final   76.12 input  -65.29 | X-H torsion
[ 10718 10713 10712 10709 ] final   90.97 input   66.30 | X-H torsion
[ 10763 10752 10751 10750 ] final -172.31 input  -60.55 | X-H torsion
[ 11005 11000 10999 10996 ] final  -62.11 input  -57.11 | X-H torsion

> <Gold.Protein.ActiveResidues>
 VAL166  LYS551  ARG553  GLY616  TRP617  ASP618  TYR619  PRO620  LYS621  CYS622 
 ASP623  PHE694  ASN695  SER759  ASP760  ASP761  ALA762  ILE779  LEU786  VAL792 
 PHE793  MET794  SER795  GLU796  ALA797  LYS798  CYS799  TRP800  GLU811  SER814 

> <Gold.Protein.RotatedAtoms>
  150.7238  134.0436  159.3774 H   0  0  0  0  0  0  0  0  0  0  0  0  # atno 6907 bound_to 6896
  151.8411  135.0588  160.0457 H   0  0  0  0  0  0  0  0  0  0  0  0  # atno 6908 bound_to 6896
  152.2862  133.5481  159.5565 H   0  0  0  0  0  0  0  0  0  0  0  0  # atno 6909 bound_to 6896
  144.7143  140.1718  143.6367 H   0  0  0  0  0  0  0  0  0  0  0  0  # atno 7974 bound_to 7965
  156.2734  140.2087  156.5942 H   0  0  0  0  0  0  0  0  0  0  0  0  # atno 8008 bound_to 7997
  154.6958  140.0525  157.0433 H   0  0  0  0  0  0  0  0  0  0  0  0  # atno 8009 bound_to 7997
  155.0803  140.3186  155.4606 H   0  0  0  0  0  0  0  0  0  0  0  0  # atno 8010 bound_to 7997
  139.9956  144.5724  150.7780 H   0  0  0  0  0  0  0  0  0  0  0  0  # atno 10167 bound_to 10162
  157.6960  131.0390  150.3658 H   0  0  0  0  0  0  0  0  0  0  0  0  # atno 10718 bound_to 10713
  154.6208  135.2875  155.0328 H   0  0  0  0  0  0  0  0  0  0  0  0  # atno 10763 bound_to 10752
  154.1524  135.6501  153.4970 H   0  0  0  0  0  0  0  0  0  0  0  0  # atno 10764 bound_to 10752
  153.0235  135.5359  154.6996 H   0  0  0  0  0  0  0  0  0  0  0  0  # atno 10765 bound_to 10752
  141.1348  133.6637  156.5478 H   0  0  0  0  0  0  0  0  0  0  0  0  # atno 11005 bound_to 11000
  145.8937  139.2390  143.1534 LP  0  0  0  0  0  0  0  0  0  0  0  0  # atno 17320 bound_to 7965
  145.9878  140.8628  143.0081 LP  0  0  0  0  0  0  0  0  0  0  0  0  # atno 17321 bound_to 7965
  140.7438  143.2852  151.3485 LP  0  0  0  0  0  0  0  0  0  0  0  0  # atno 17342 bound_to 10162
  139.6308  144.0724  152.2474 LP  0  0  0  0  0  0  0  0  0  0  0  0  # atno 17343 bound_to 10162
  156.4089  130.3930  149.6906 LP  0  0  0  0  0  0  0  0  0  0  0  0  # atno 17370 bound_to 10713
  156.4197  130.7763  151.2779 LP  0  0  0  0  0  0  0  0  0  0  0  0  # atno 17371 bound_to 10713
  140.4088  134.7291  157.4823 LP  0  0  0  0  0  0  0  0  0  0  0  0  # atno 17394 bound_to 11000
  140.0442  134.6223  155.8941 LP  0  0  0  0  0  0  0  0  0  0  0  0  # atno 17395 bound_to 11000

$$$$
