AV-unprocessed.smi:2751|AV-procd|sdf|10601|dock9
  -GOLD-   2272015 53D 1   1.00000     0.00000
 Structure written by MMmdl.
 34 35  0  0  0  0  0  0  0  0  1 V2000
  152.2027  139.7750  154.9805 O   0  0  0  0  0  0  0  0  0  0  0  0
  151.0926  139.7009  155.5170 C   0  0  0  0  0  0  0  0  0  0  0  0
  150.8877  140.1440  156.7666 N   0  0  0  0  0  0  0  0  0  0  0  0
  151.8968  140.7541  157.6256 C   0  0  0  0  0  0  0  0  0  0  0  0
  151.2986  141.8689  158.5008 C   0  0  0  0  0  0  0  0  0  0  0  0
  152.2645  142.3527  159.5941 C   0  0  2  0  0  0  0  0  0  0  0  0
  152.9458  141.1775  160.3224 C   0  0  0  0  0  0  0  0  0  0  0  0
  153.8408  141.6901  161.4566 C   0  0  0  0  0  0  0  0  0  0  0  0
  153.0337  142.6147  162.3737 C   0  0  0  0  0  0  0  0  0  0  0  0
  152.3446  143.7138  161.5498 C   0  0  0  0  0  0  0  0  0  0  0  0
  151.5288  143.1245  160.5419 O   0  0  0  0  0  0  0  0  0  0  0  0
  149.9111  139.1971  154.9912 N   0  0  0  0  0  0  0  0  0  0  0  0
  149.0319  140.0016  154.4762 C   0  0  0  0  0  0  0  0  0  0  0  0
  148.9886  141.3840  154.3147 N   0  0  0  0  0  0  0  0  0  0  0  0
  147.8074  141.7058  153.7069 C   0  0  0  0  0  0  0  0  0  0  0  0
  147.1345  140.5793  153.4926 C   0  0  0  0  0  0  0  0  0  0  0  0
  147.8587  139.5204  153.9520 O   0  0  0  0  0  0  0  0  0  0  0  0
  149.9574  140.0562  157.1499 H   0  0  0  0  0  0  0  0  0  0  0  0
  152.3728  139.9926  158.2458 H   0  0  0  0  0  0  0  0  0  0  0  0
  152.6787  141.1624  156.9848 H   0  0  0  0  0  0  0  0  0  0  0  0
  151.0029  142.7115  157.8743 H   0  0  0  0  0  0  0  0  0  0  0  0
  150.3858  141.5029  158.9724 H   0  0  0  0  0  0  0  0  0  0  0  0
  153.0281  142.9824  159.1336 H   0  0  0  0  0  0  0  0  0  0  0  0
  152.1877  140.5084  160.7316 H   0  0  0  0  0  0  0  0  0  0  0  0
  153.5370  140.5881  159.6210 H   0  0  0  0  0  0  0  0  0  0  0  0
  154.2529  140.8554  162.0240 H   0  0  0  0  0  0  0  0  0  0  0  0
  154.6879  142.2352  161.0383 H   0  0  0  0  0  0  0  0  0  0  0  0
  152.2805  142.0343  162.9080 H   0  0  0  0  0  0  0  0  0  0  0  0
  153.6826  143.0582  163.1294 H   0  0  0  0  0  0  0  0  0  0  0  0
  151.7173  144.3286  162.1956 H   0  0  0  0  0  0  0  0  0  0  0  0
  153.0804  144.3788  161.0946 H   0  0  0  0  0  0  0  0  0  0  0  0
  149.6827  142.0664  154.5843 H   0  0  0  0  0  0  0  0  0  0  0  0
  147.5682  142.7359  153.4870 H   0  0  0  0  0  0  0  0  0  0  0  0
  146.1730  140.3730  153.0459 H   0  0  0  0  0  0  0  0  0  0  0  0
  1  2  2  0  0  0  0
  2 12  1  0  0  0  0
  2  3  1  0  0  0  0
  3  4  1  0  0  0  0
  3 18  1  0  0  0  0
  4  5  1  0  0  0  0
  4 19  1  0  0  0  0
  4 20  1  0  0  0  0
  5  6  1  0  0  0  0
  5 21  1  0  0  0  0
  5 22  1  0  0  0  0
  6 11  1  0  0  0  0
  6  7  1  0  0  0  0
  6 23  1  0  0  0  0
  7  8  1  0  0  0  0
  7 24  1  0  0  0  0
  7 25  1  0  0  0  0
  8  9  1  0  0  0  0
  8 26  1  0  0  0  0
  8 27  1  0  0  0  0
  9 10  1  0  0  0  0
  9 28  1  0  0  0  0
  9 29  1  0  0  0  0
 10 11  1  0  0  0  0
 10 30  1  0  0  0  0
 10 31  1  0  0  0  0
 12 13  2  0  0  0  0
 13 17  1  0  0  0  0
 13 14  1  0  0  0  0
 14 32  1  0  0  0  0
 14 15  1  0  0  0  0
 15 33  1  0  0  0  0
 15 16  2  0  0  0  0
 16 34  1  0  0  0  0
 16 17  1  0  0  0  0
M  END
> <s_m_source_file>
AV-unprocessed.smi

> <i_m_source_file_index>
2751

> <i_lp_mmshare_version>
43012

> <i_f3d_flags>
0

> <s_epik_input>
bzFbY0hdW2NIXW5jMVtOSF1DKD1PKVtOSF1bQ0gyXVtDSDJdW0NAQEhdMltDSDJdW0NIMl1bQ0gyXVtDSDJdTzI=

> <s_epik_cmdline>
J2VwaWtfcHl0aG9uJywgJy1waCcsICc3LjAnLCAnLXRuJywgJzgnLCAnLW1hJywgJzIwMCcsICctbWV0YWxfYmluZGluZycsICctaW1hZScsICc8aW5maWxlLm1hZT4nLCAnLW9tYWUnLCAnPG91dGZpbGUubWFlPic=

> <r_lp_tautomer_probability>
0.107061

> <r_epik_Ionization_Penalty>
1.421

> <r_epik_Ionization_Penalty_Charging>
1.42064

> <r_epik_Ionization_Penalty_Neutral>
0.0003614

> <r_epik_State_Penalty>
2.61489

> <r_epik_Charging_Adjusted_Penalty>
4.03553

> <i_epik_Tot_Q>
0

> <i_epik_Tot_abs_Q>
0

> <r_epik_Metal_State_Penalty>
3.57288

> <b_epik_Metal_Only>
0

> <s_lp_Force_Field>
OPLS_2005

> <r_lp_Energy>
32.5826

> <b_lp_Chiralities_Consistent>
1

> <s_lp_Variant>
AV-unprocessed.smi:2751-7

> <Gold.Version>
5.8.1

> <Gold.Id.Protein>
6NUR|6NUR_protein|mol2

> <Gold.PLP.Fitness>
40.6465

> <Gold.PLP.PLP>
-37.4024

> <Gold.PLP.part.hbond>
-1.9037

> <Gold.PLP.part.metal>
0.0000

> <Gold.PLP.part.buried>
-6.4818

> <Gold.PLP.part.nonpolar>
-29.5044

> <Gold.PLP.part.repulsive>
0.6344

> <Gold.PLP.ligand.clash>
0.0000

> <Gold.PLP.ligand.torsion>
1.0380

> <Gold.PLP.Chemscore.Hbond>
0.7680

> <Gold.PLP.Chemscore.CHOScore>
1.0000

> <Gold.PLP.Chemscore.Metal>
0.0000

> <Gold.Chemscore.Hbonds>
donor molecule, donor type, donor heavy atom, donor atom, acceptor molecule, acceptor atom, score
      P1  H  7989  7998       L1     1  0.67
      L1  C    16    34       P1 10175  0.95

> <Gold.PLP.Chemscore.Internal.Correction>
0.0161

> <Gold.Rescore>
     Score         DG    S(hbond)    S(metal)    S(lipo)     H(rot)  DE(clash)    DE(int)     intcor
     13.92     -14.96       1.22        0.00      81.81       1.63       0.03       1.00       ----

> <Gold.Chemscore.Fitness>
13.9232

> <Gold.Chemscore.DG>
-14.9583

> <Gold.Chemscore.ZeroCoef>
-5.4800

> <Gold.Chemscore.Hbond>
1.2234

> <Gold.Chemscore.Metal>
0.0000

> <Gold.Chemscore.Lipo>
81.8116

> <Gold.Chemscore.Internal_Hbond>
0.0000

> <Gold.Chemscore.DEClash>
0.0317

> <Gold.Chemscore.DEInternal>
1.0034

> <Gold.Chemscore.Rot>
1.6328

> <Gold.Chemscore.Internal.Correction>
   9.000000E+99

> <Gold.Chemscore.Hbonds>
donor molecule, donor type, donor heavy atom, donor atom, acceptor molecule, acceptor atom, score
      P1  H  7989  7998       L1     1  0.11
      P1  H  7997  8009       L1     1  0.04

> <Gold.Chemscore.Hbond.Weighted>
-4.0863

> <Gold.Chemscore.Metal.Weighted>
-0.0000

> <Gold.Chemscore.Lipo.Weighted>
-9.5720

> <Gold.Chemscore.Internal_Hbond.Weighted>
0.0000

> <Gold.Chemscore.DEClash.Weighted>
0.0317

> <Gold.Chemscore.DEInternal.Weighted>
1.0034

> <Gold.Chemscore.Rot.Weighted>
4.1799

> <Gold.Chemscore.Internal.Correction.Weighted>
   9.000000E+99

> <Gold.Protein.RotatedTorsions>
[ 6907 6896 6895 6894 ] final   82.85 input  -60.11 | X-H torsion
[ 7974 7965 7964 7962 ] final -100.19 input  175.53 | X-H torsion
[ 8008 7997 7996 7995 ] final -148.73 input   59.86 | X-H torsion
[ 10167 10162 10161 10158 ] final  -43.51 input  -65.29 | X-H torsion
[ 10718 10713 10712 10709 ] final  102.18 input   66.30 | X-H torsion
[ 10763 10752 10751 10750 ] final  -54.63 input  -60.55 | X-H torsion
[ 11005 11000 10999 10996 ] final   98.18 input  -57.11 | X-H torsion

> <Gold.Protein.ActiveResidues>
 VAL166  LYS551  ARG553  GLY616  TRP617  ASP618  TYR619  PRO620  LYS621  CYS622 
 ASP623  PHE694  ASN695  SER759  ASP760  ASP761  ALA762  ILE779  LEU786  VAL792 
 PHE793  MET794  SER795  GLU796  ALA797  LYS798  CYS799  TRP800  GLU811  SER814 

> <Gold.Protein.RotatedAtoms>
  152.5311  134.2986  159.9069 H   0  0  0  0  0  0  0  0  0  0  0  0  # atno 6907 bound_to 6896
  151.2937  133.4147  159.2642 H   0  0  0  0  0  0  0  0  0  0  0  0  # atno 6908 bound_to 6896
  151.0179  134.9462  159.8100 H   0  0  0  0  0  0  0  0  0  0  0  0  # atno 6909 bound_to 6896
  145.2978  140.9369  143.2841 H   0  0  0  0  0  0  0  0  0  0  0  0  # atno 7974 bound_to 7965
  155.5963  140.0657  157.2745 H   0  0  0  0  0  0  0  0  0  0  0  0  # atno 8008 bound_to 7997
  154.4291  140.1826  156.1173 H   0  0  0  0  0  0  0  0  0  0  0  0  # atno 8009 bound_to 7997
  156.0194  140.3318  155.7026 H   0  0  0  0  0  0  0  0  0  0  0  0  # atno 8010 bound_to 7997
  140.6931  143.2979  151.3363 H   0  0  0  0  0  0  0  0  0  0  0  0  # atno 10167 bound_to 10162
  157.6809  131.0746  150.5364 H   0  0  0  0  0  0  0  0  0  0  0  0  # atno 10718 bound_to 10713
  154.1780  135.6448  153.5026 H   0  0  0  0  0  0  0  0  0  0  0  0  # atno 10763 bound_to 10752
  153.0067  135.5399  154.6544 H   0  0  0  0  0  0  0  0  0  0  0  0  # atno 10764 bound_to 10752
  154.5901  135.2933  155.0617 H   0  0  0  0  0  0  0  0  0  0  0  0  # atno 10765 bound_to 10752
  139.8773  134.9037  156.4418 H   0  0  0  0  0  0  0  0  0  0  0  0  # atno 11005 bound_to 11000
  144.9119  139.4518  143.6583 LP  0  0  0  0  0  0  0  0  0  0  0  0  # atno 17320 bound_to 7965
  146.3162  139.7931  142.8981 LP  0  0  0  0  0  0  0  0  0  0  0  0  # atno 17321 bound_to 7965
  139.6355  144.0639  152.2512 LP  0  0  0  0  0  0  0  0  0  0  0  0  # atno 17342 bound_to 10162
  140.0127  144.6212  150.7633 LP  0  0  0  0  0  0  0  0  0  0  0  0  # atno 17343 bound_to 10162
  156.5672  130.4270  149.6035 LP  0  0  0  0  0  0  0  0  0  0  0  0  # atno 17370 bound_to 10713
  156.2771  130.7050  151.1863 LP  0  0  0  0  0  0  0  0  0  0  0  0  # atno 17371 bound_to 10713
  140.8994  133.7790  155.9663 LP  0  0  0  0  0  0  0  0  0  0  0  0  # atno 17394 bound_to 11000
  140.8667  134.2775  157.5209 LP  0  0  0  0  0  0  0  0  0  0  0  0  # atno 17395 bound_to 11000

$$$$
