AV-unprocessed.smi:3335|AV-procd|sdf|12841|dock7
  -GOLD-   2272019223D 1   1.00000     0.00000
 Structure written by MMmdl.
 47 48  0  0  0  0  0  0  0  0  2 V2000
  149.1746  133.2759  155.7792 C   0  0  0  0  0  0  0  0  0  0  0  0
  150.0209  134.5136  155.6947 C   0  0  0  0  0  0  0  0  0  0  0  0
  151.2771  134.7594  156.3166 C   0  0  0  0  0  0  0  0  0  0  0  0
  151.7585  135.9602  156.0418 N   0  0  0  0  0  0  0  0  0  0  0  0
  150.8382  136.5229  155.2265 N   0  0  0  0  0  0  0  0  0  0  0  0
  151.0050  137.8880  154.7311 C   0  0  2  0  0  0  0  0  0  0  0  0
  152.4383  138.4106  154.9528 C   0  0  0  0  0  0  0  0  0  0  0  0
  149.9176  138.8591  155.2661 C   0  0  2  0  0  0  0  0  0  0  0  0
  149.6183  140.0434  154.3219 C   0  0  0  0  0  0  0  0  0  0  0  0
  150.3182  139.3400  156.6116 N   0  3  0  0  0  0  0  0  0  0  0  0
  150.6009  140.7855  156.7700 C   0  0  1  0  0  0  0  0  0  0  0  0
  149.2958  141.5994  156.8900 C   0  0  0  0  0  0  0  0  0  0  0  0
  151.4979  140.9773  158.0071 C   0  0  0  0  0  0  0  0  0  0  0  0
  151.8760  139.9868  158.6341 O   0  0  0  0  0  0  0  0  0  0  0  0
  151.8718  142.2267  158.3597 N   0  0  0  0  0  0  0  0  0  0  0  0
  152.7250  142.5110  159.5127 C   0  0  0  0  0  0  0  0  0  0  0  0
  152.7041  144.0299  159.6813 C   0  0  0  0  0  0  0  0  0  0  0  0
  152.3995  144.5531  158.2852 C   0  0  0  0  0  0  0  0  0  0  0  0
  151.5246  143.4654  157.6622 C   0  0  0  0  0  0  0  0  0  0  0  0
  149.7759  135.6689  155.0086 C   0  0  0  0  0  0  0  0  0  0  0  0
  149.6172  132.5251  156.4343 H   0  0  0  0  0  0  0  0  0  0  0  0
  149.0442  132.8113  154.8019 H   0  0  0  0  0  0  0  0  0  0  0  0
  148.1796  133.4938  156.1674 H   0  0  0  0  0  0  0  0  0  0  0  0
  151.8477  134.1058  156.9599 H   0  0  0  0  0  0  0  0  0  0  0  0
  150.8804  137.8353  153.6481 H   0  0  0  0  0  0  0  0  0  0  0  0
  152.5686  139.3953  154.5029 H   0  0  0  0  0  0  0  0  0  0  0  0
  153.1700  137.7442  154.4949 H   0  0  0  0  0  0  0  0  0  0  0  0
  152.6912  138.4964  156.0094 H   0  0  0  0  0  0  0  0  0  0  0  0
  149.0036  138.2768  155.3776 H   0  0  0  0  0  0  0  0  0  0  0  0
  149.4115  139.7027  153.3080 H   0  0  0  0  0  0  0  0  0  0  0  0
  150.4530  140.7425  154.2714 H   0  0  0  0  0  0  0  0  0  0  0  0
  148.7414  140.6049  154.6412 H   0  0  0  0  0  0  0  0  0  0  0  0
  149.5841  139.1052  157.2645 H   0  0  0  0  0  0  0  0  0  0  0  0
  151.1354  141.1619  155.9001 H   0  0  0  0  0  0  0  0  0  0  0  0
  149.5043  142.6464  157.1143 H   0  0  0  0  0  0  0  0  0  0  0  0
  148.6491  141.2138  157.6795 H   0  0  0  0  0  0  0  0  0  0  0  0
  148.7260  141.5858  155.9614 H   0  0  0  0  0  0  0  0  0  0  0  0
  152.3779  142.0066  160.4163 H   0  0  0  0  0  0  0  0  0  0  0  0
  153.7373  142.1641  159.2990 H   0  0  0  0  0  0  0  0  0  0  0  0
  151.8976  144.3113  160.3596 H   0  0  0  0  0  0  0  0  0  0  0  0
  153.6358  144.4239  160.0883 H   0  0  0  0  0  0  0  0  0  0  0  0
  151.9162  145.5305  158.2953 H   0  0  0  0  0  0  0  0  0  0  0  0
  153.3283  144.6451  157.7204 H   0  0  0  0  0  0  0  0  0  0  0  0
  151.6956  143.3998  156.5874 H   0  0  0  0  0  0  0  0  0  0  0  0
  150.4694  143.6866  157.8299 H   0  0  0  0  0  0  0  0  0  0  0  0
  148.9375  135.9513  154.3888 H   0  0  0  0  0  0  0  0  0  0  0  0
  151.1480  138.8293  156.8777 H   0  0  0  0  0  0  0  0  0  0  0  0
  1  2  1  0  0  0  0
  1 21  1  0  0  0  0
  1 22  1  0  0  0  0
  1 23  1  0  0  0  0
  2 20  2  0  0  0  0
  2  3  1  0  0  0  0
  3  4  2  0  0  0  0
  3 24  1  0  0  0  0
  4  5  1  0  0  0  0
  5  6  1  0  0  0  0
  5 20  1  0  0  0  0
  6  7  1  0  0  0  0
  6  8  1  0  0  0  0
  6 25  1  0  0  0  0
  7 26  1  0  0  0  0
  7 27  1  0  0  0  0
  7 28  1  0  0  0  0
  8  9  1  0  0  0  0
  8 10  1  0  0  0  0
  8 29  1  0  0  0  0
  9 30  1  0  0  0  0
  9 31  1  0  0  0  0
  9 32  1  0  0  0  0
 10 11  1  0  0  0  0
 10 33  1  0  0  0  0
 10 47  1  0  0  0  0
 11 12  1  0  0  0  0
 11 13  1  0  0  0  0
 11 34  1  0  0  0  0
 12 35  1  0  0  0  0
 12 36  1  0  0  0  0
 12 37  1  0  0  0  0
 13 14  2  0  0  0  0
 13 15  1  0  0  0  0
 15 19  1  0  0  0  0
 15 16  1  0  0  0  0
 16 17  1  0  0  0  0
 16 38  1  0  0  0  0
 16 39  1  0  0  0  0
 17 18  1  0  0  0  0
 17 40  1  0  0  0  0
 17 41  1  0  0  0  0
 18 19  1  0  0  0  0
 18 42  1  0  0  0  0
 18 43  1  0  0  0  0
 19 44  1  0  0  0  0
 19 45  1  0  0  0  0
 20 46  1  0  0  0  0
M  CHG  1  10   1
M  END
> <s_m_source_file>
AV-unprocessed.smi

> <i_m_source_file_index>
3335

> <i_lp_mmshare_version>
43012

> <i_f3d_flags>
0

> <s_epik_input>
W0NIM11jMVtjSF1ubihbY0hdMSlbQ0BIXShbQ0gzXSlbQ0BIXShbQ0gzXSlbTkhdW0NASF0oW0NIM10pQyg9TylOMltDSDJdW0NIMl1bQ0gyXVtDSDJdMg==

> <s_epik_cmdline>
J2VwaWtfcHl0aG9uJywgJy1waCcsICc3LjAnLCAnLXRuJywgJzgnLCAnLW1hJywgJzIwMCcsICctbWV0YWxfYmluZGluZycsICctaW1hZScsICc8aW5maWxlLm1hZT4nLCAnLW9tYWUnLCAnPG91dGZpbGUubWFlPic=

> <r_lp_tautomer_probability>
1

> <r_epik_Ionization_Penalty>
0.14175

> <r_epik_Ionization_Penalty_Charging>
0.141731

> <r_epik_Ionization_Penalty_Neutral>
1.91261e-05

> <r_epik_State_Penalty>
0.131043

> <r_epik_Charging_Adjusted_Penalty>
0.272773

> <i_epik_Tot_Q>
1

> <i_epik_Tot_abs_Q>
1

> <r_epik_Metal_State_Penalty>
0.131408

> <b_epik_Metal_Only>
0

> <s_lp_Force_Field>
OPLS_2005

> <r_lp_Energy>
38.6819

> <b_lp_Chiralities_Consistent>
1

> <s_lp_Variant>
AV-unprocessed.smi:3335-5

> <Gold.Version>
5.8.1

> <Gold.Id.Protein>
6NUR|6NUR_protein|mol2

> <Gold.PLP.Fitness>
42.8185

> <Gold.PLP.PLP>
-40.3607

> <Gold.PLP.part.hbond>
-1.0000

> <Gold.PLP.part.metal>
0.0000

> <Gold.PLP.part.buried>
-3.0921

> <Gold.PLP.part.nonpolar>
-36.3981

> <Gold.PLP.part.repulsive>
0.0353

> <Gold.PLP.ligand.clash>
0.3488

> <Gold.PLP.ligand.torsion>
1.5427

> <Gold.PLP.Chemscore.Hbond>
1.0000

> <Gold.PLP.Chemscore.CHOScore>
0.8963

> <Gold.PLP.Chemscore.Metal>
0.0000

> <Gold.Chemscore.Hbonds>
donor molecule, donor type, donor heavy atom, donor atom, acceptor molecule, acceptor atom, score
      P1  H 10752 10765       L1     4  0.95
      L1  C    20    46       P1  7948  0.91

> <Gold.PLP.Chemscore.Internal.Correction>
0.2031

> <Gold.Rescore>
     Score         DG    S(hbond)    S(metal)    S(lipo)     H(rot)  DE(clash)    DE(int)     intcor
     13.55     -16.29       0.90        0.00     103.45       1.68       0.05       2.68       ----

> <Gold.Chemscore.Fitness>
13.5533

> <Gold.Chemscore.DG>
-16.2852

> <Gold.Chemscore.ZeroCoef>
-5.4800

> <Gold.Chemscore.Hbond>
0.8973

> <Gold.Chemscore.Metal>
0.0000

> <Gold.Chemscore.Lipo>
103.4491

> <Gold.Chemscore.Internal_Hbond>
0.0000

> <Gold.Chemscore.DEClash>
0.0502

> <Gold.Chemscore.DEInternal>
2.6816

> <Gold.Chemscore.Rot>
1.6778

> <Gold.Chemscore.Internal.Correction>
   9.000000E+99

> <Gold.Chemscore.Hbonds>
donor molecule, donor type, donor heavy atom, donor atom, acceptor molecule, acceptor atom, score
      P1  H 10752 10765       L1     4  0.05

> <Gold.Chemscore.Hbond.Weighted>
-2.9968

> <Gold.Chemscore.Metal.Weighted>
-0.0000

> <Gold.Chemscore.Lipo.Weighted>
-12.1035

> <Gold.Chemscore.Internal_Hbond.Weighted>
0.0000

> <Gold.Chemscore.DEClash.Weighted>
0.0502

> <Gold.Chemscore.DEInternal.Weighted>
2.6816

> <Gold.Chemscore.Rot.Weighted>
4.2952

> <Gold.Chemscore.Internal.Correction.Weighted>
   9.000000E+99

> <Gold.Protein.RotatedTorsions>
[ 6907 6896 6895 6894 ] final -101.44 input  -60.11 | X-H torsion
[ 7974 7965 7964 7962 ] final -175.10 input  175.53 | X-H torsion
[ 8008 7997 7996 7995 ] final  -91.73 input   59.86 | X-H torsion
[ 10167 10162 10161 10158 ] final   52.60 input  -65.29 | X-H torsion
[ 10718 10713 10712 10709 ] final  161.01 input   66.30 | X-H torsion
[ 10763 10752 10751 10750 ] final -168.01 input  -60.55 | X-H torsion
[ 11005 11000 10999 10996 ] final    3.28 input  -57.11 | X-H torsion

> <Gold.Protein.ActiveResidues>
 VAL166  LYS551  ARG553  GLY616  TRP617  ASP618  TYR619  PRO620  LYS621  CYS622 
 ASP623  PHE694  ASN695  SER759  ASP760  ASP761  ALA762  ILE779  LEU786  VAL792 
 PHE793  MET794  SER795  GLU796  ALA797  LYS798  CYS799  TRP800  GLU811  SER814 

> <Gold.Protein.RotatedAtoms>
  150.7155  134.0734  159.3872 H   0  0  0  0  0  0  0  0  0  0  0  0  # atno 6907 bound_to 6896
  151.8716  135.0485  160.0489 H   0  0  0  0  0  0  0  0  0  0  0  0  # atno 6908 bound_to 6896
  152.2638  133.5285  159.5434 H   0  0  0  0  0  0  0  0  0  0  0  0  # atno 6909 bound_to 6896
  144.7129  140.1372  143.6394 H   0  0  0  0  0  0  0  0  0  0  0  0  # atno 7974 bound_to 7965
  154.7143  140.0516  157.0580 H   0  0  0  0  0  0  0  0  0  0  0  0  # atno 8008 bound_to 7997
  155.0512  140.3179  155.4672 H   0  0  0  0  0  0  0  0  0  0  0  0  # atno 8009 bound_to 7997
  156.2798  140.2115  156.5638 H   0  0  0  0  0  0  0  0  0  0  0  0  # atno 8010 bound_to 7997
  140.2497  144.3493  150.6352 H   0  0  0  0  0  0  0  0  0  0  0  0  # atno 10167 bound_to 10162
  157.1424  131.0544  151.2320 H   0  0  0  0  0  0  0  0  0  0  0  0  # atno 10718 bound_to 10713
  154.6673  135.2934  154.9788 H   0  0  0  0  0  0  0  0  0  0  0  0  # atno 10763 bound_to 10752
  154.0827  135.6602  153.4844 H   0  0  0  0  0  0  0  0  0  0  0  0  # atno 10764 bound_to 10752
  153.0465  135.5201  154.7653 H   0  0  0  0  0  0  0  0  0  0  0  0  # atno 10765 bound_to 10752
  140.5948  133.9890  155.8105 H   0  0  0  0  0  0  0  0  0  0  0  0  # atno 11005 bound_to 11000
  145.9234  139.2560  143.1367 LP  0  0  0  0  0  0  0  0  0  0  0  0  # atno 17320 bound_to 7965
  145.9596  140.8845  143.0217 LP  0  0  0  0  0  0  0  0  0  0  0  0  # atno 17321 bound_to 7965
  140.6050  143.2167  151.6998 LP  0  0  0  0  0  0  0  0  0  0  0  0  # atno 17342 bound_to 10162
  139.5050  144.3733  152.0449 LP  0  0  0  0  0  0  0  0  0  0  0  0  # atno 17343 bound_to 10162
  157.4295  130.7482  149.6978 LP  0  0  0  0  0  0  0  0  0  0  0  0  # atno 17370 bound_to 10713
  155.9786  130.4049  150.3639 LP  0  0  0  0  0  0  0  0  0  0  0  0  # atno 17371 bound_to 10713
  141.0911  133.9915  157.3236 LP  0  0  0  0  0  0  0  0  0  0  0  0  # atno 17394 bound_to 11000
  139.9258  135.0201  156.8228 LP  0  0  0  0  0  0  0  0  0  0  0  0  # atno 17395 bound_to 11000

$$$$
