AV-unprocessed.smi:1641|AV-procd|sdf|6564|dock2
  -GOLD-   22720 7243D 1   1.00000     0.00000
 Structure written by MMmdl.
 40 41  0  0  0  0  0  0  0  0  2 V2000
  144.5253  134.4192  163.1522 C   0  0  0  0  0  0  0  0  0  0  0  0
  145.6705  134.9914  162.3894 C   0  0  0  0  0  0  0  0  0  0  0  0
  146.7526  134.2795  162.0644 N   0  0  0  0  0  0  0  0  0  0  0  0
  147.6796  135.0312  161.3567 N   0  0  0  0  0  0  0  0  0  0  0  0
  147.2927  136.3010  161.1679 C   0  0  0  0  0  0  0  0  0  0  0  0
  148.0451  137.1937  160.5033 N   0  5  0  0  0  0  0  0  0  0  0  0
  148.9879  136.7676  159.6320 C   0  0  0  0  0  0  0  0  0  0  0  0
  150.2090  136.8549  159.7793 O   0  0  0  0  0  0  0  0  0  0  0  0
  148.4809  136.2101  158.5234 N   0  0  0  0  0  0  0  0  0  0  0  0
  149.2404  135.6772  157.3977 C   0  0  0  0  0  0  0  0  0  0  0  0
  148.9351  136.4873  156.1275 C   0  0  0  0  0  0  0  0  0  0  0  0
  149.6251  137.7731  156.0339 N   0  0  0  0  0  0  0  0  0  0  0  0
  148.8635  138.7153  155.2247 C   0  0  0  0  0  0  0  0  0  0  0  0
  149.5466  140.0924  155.1495 C   0  0  2  0  0  0  0  0  0  0  0  0
  148.7905  141.0621  154.2355 C   0  0  0  0  0  0  0  0  0  0  0  0
  150.8684  139.9371  154.6362 O   0  0  0  0  0  0  0  0  0  0  0  0
  151.6895  139.0053  155.3425 C   0  0  1  0  0  0  0  0  0  0  0  0
  152.1697  139.5749  156.6883 C   0  0  0  0  0  0  0  0  0  0  0  0
  150.9701  137.6475  155.4764 C   0  0  0  0  0  0  0  0  0  0  0  0
  145.7072  136.6615  161.8500 S   0  0  0  0  0  0  0  0  0  0  0  0
  144.6950  134.5386  164.2224 H   0  0  0  0  0  0  0  0  0  0  0  0
  144.4120  133.3578  162.9301 H   0  0  0  0  0  0  0  0  0  0  0  0
  143.6011  134.9312  162.8838 H   0  0  0  0  0  0  0  0  0  0  0  0
  147.4751  136.1594  158.4550 H   0  0  0  0  0  0  0  0  0  0  0  0
  150.3137  135.7022  157.5926 H   0  0  0  0  0  0  0  0  0  0  0  0
  148.9618  134.6310  157.2756 H   0  0  0  0  0  0  0  0  0  0  0  0
  149.1570  135.8845  155.2455 H   0  0  0  0  0  0  0  0  0  0  0  0
  147.8589  136.6660  156.1044 H   0  0  0  0  0  0  0  0  0  0  0  0
  148.7330  138.3155  154.2177 H   0  0  0  0  0  0  0  0  0  0  0  0
  147.8636  138.8354  155.6436 H   0  0  0  0  0  0  0  0  0  0  0  0
  149.5942  140.5301  156.1471 H   0  0  0  0  0  0  0  0  0  0  0  0
  147.7731  141.2247  154.5923 H   0  0  0  0  0  0  0  0  0  0  0  0
  148.7311  140.6795  153.2161 H   0  0  0  0  0  0  0  0  0  0  0  0
  149.2885  142.0313  154.1992 H   0  0  0  0  0  0  0  0  0  0  0  0
  152.5774  138.8538  154.7280 H   0  0  0  0  0  0  0  0  0  0  0  0
  152.8828  138.8998  157.1617 H   0  0  0  0  0  0  0  0  0  0  0  0
  151.3477  139.7212  157.3888 H   0  0  0  0  0  0  0  0  0  0  0  0
  152.6665  140.5352  156.5493 H   0  0  0  0  0  0  0  0  0  0  0  0
  151.5794  136.9853  156.0906 H   0  0  0  0  0  0  0  0  0  0  0  0
  150.9100  137.1831  154.4908 H   0  0  0  0  0  0  0  0  0  0  0  0
  1  2  1  0  0  0  0
  1 21  1  0  0  0  0
  1 22  1  0  0  0  0
  1 23  1  0  0  0  0
  2 20  1  0  0  0  0
  2  3  2  0  0  0  0
  3  4  1  0  0  0  0
  4  5  2  0  0  0  0
  5  6  1  0  0  0  0
  5 20  1  0  0  0  0
  6  7  1  0  0  0  0
  7  8  2  0  0  0  0
  7  9  1  0  0  0  0
  9 10  1  0  0  0  0
  9 24  1  0  0  0  0
 10 11  1  0  0  0  0
 10 25  1  0  0  0  0
 10 26  1  0  0  0  0
 11 12  1  0  0  0  0
 11 27  1  0  0  0  0
 11 28  1  0  0  0  0
 12 19  1  0  0  0  0
 12 13  1  0  0  0  0
 13 14  1  0  0  0  0
 13 29  1  0  0  0  0
 13 30  1  0  0  0  0
 14 15  1  0  0  0  0
 14 16  1  0  0  0  0
 14 31  1  0  0  0  0
 15 32  1  0  0  0  0
 15 33  1  0  0  0  0
 15 34  1  0  0  0  0
 16 17  1  0  0  0  0
 17 18  1  0  0  0  0
 17 19  1  0  0  0  0
 17 35  1  0  0  0  0
 18 36  1  0  0  0  0
 18 37  1  0  0  0  0
 18 38  1  0  0  0  0
 19 39  1  0  0  0  0
 19 40  1  0  0  0  0
M  CHG  1   6  -1
M  END
> <s_m_source_file>
AV-unprocessed.smi

> <i_m_source_file_index>
1641

> <i_lp_mmshare_version>
43012

> <i_f3d_flags>
0

> <s_epik_input>
W0NIM11jMW5uYyhzMSlbTkhdQyg9TylbTkhdW0NIMl1bQ0gyXU4yW0NIMl1bQ0BASF0oW0NIM10pT1tDQEBIXShbQ0gzXSlbQ0gyXTI=

> <s_epik_cmdline>
J2VwaWtfcHl0aG9uJywgJy1waCcsICc3LjAnLCAnLXRuJywgJzgnLCAnLW1hJywgJzIwMCcsICctbWV0YWxfYmluZGluZycsICctaW1hZScsICc8aW5maWxlLm1hZT4nLCAnLW9tYWUnLCAnPG91dGZpbGUubWFlPic=

> <r_lp_tautomer_probability>
1

> <r_epik_Ionization_Penalty>
3.81681

> <r_epik_Ionization_Penalty_Charging>
3.36369

> <r_epik_Ionization_Penalty_Neutral>
0.45313

> <r_epik_State_Penalty>
3.571

> <r_epik_Charging_Adjusted_Penalty>
6.93469

> <i_epik_Tot_Q>
-1

> <i_epik_Tot_abs_Q>
1

> <r_epik_Metal_State_Penalty>
0.710322

> <b_epik_Metal_Only>
1

> <s_lp_Force_Field>
OPLS_2005

> <r_lp_Energy>
21.0176

> <b_lp_Chiralities_Consistent>
1

> <s_lp_Variant>
AV-unprocessed.smi:1641-9

> <Gold.Version>
5.8.1

> <Gold.Id.Protein>
6NUR|6NUR_protein|mol2

> <Gold.PLP.Fitness>
42.1417

> <Gold.PLP.PLP>
-29.3843

> <Gold.PLP.part.hbond>
-4.3145

> <Gold.PLP.part.metal>
0.0000

> <Gold.PLP.part.buried>
-5.6090

> <Gold.PLP.part.nonpolar>
-20.5859

> <Gold.PLP.part.repulsive>
0.1936

> <Gold.PLP.ligand.clash>
0.0000

> <Gold.PLP.ligand.torsion>
1.1542

> <Gold.PLP.Chemscore.Hbond>
4.9861

> <Gold.PLP.Chemscore.CHOScore>
0.0000

> <Gold.PLP.Chemscore.Metal>
0.0000

> <Gold.Chemscore.Hbonds>
donor molecule, donor type, donor heavy atom, donor atom, acceptor molecule, acceptor atom, score
      P1  H  6896  6908       L1     8  1.00
      P1  H  6931  6943       L1     6  1.50
      P1  H  6934  6947       L1     6  1.36
      P1  H  7989  7998       L1    16  1.00

> <Gold.PLP.Chemscore.Internal.Correction>
0.1075

> <Gold.Rescore>
     Score         DG    S(hbond)    S(metal)    S(lipo)     H(rot)  DE(clash)    DE(int)     intcor
     15.73     -16.83       2.53        0.00      59.05       1.57       0.01       1.09       ----

> <Gold.Chemscore.Fitness>
15.7314

> <Gold.Chemscore.DG>
-16.8291

> <Gold.Chemscore.ZeroCoef>
-5.4800

> <Gold.Chemscore.Hbond>
2.5316

> <Gold.Chemscore.Metal>
0.0000

> <Gold.Chemscore.Lipo>
59.0545

> <Gold.Chemscore.Internal_Hbond>
0.0000

> <Gold.Chemscore.DEClash>
0.0121

> <Gold.Chemscore.DEInternal>
1.0856

> <Gold.Chemscore.Rot>
1.5686

> <Gold.Chemscore.Internal.Correction>
   9.000000E+99

> <Gold.Chemscore.Hbonds>
donor molecule, donor type, donor heavy atom, donor atom, acceptor molecule, acceptor atom, score
      P1  H  6896  6908       L1     8  0.79
      P1  H  6931  6943       L1     6  0.22
      P1  H  6934  6947       L1     6  0.33
      P1  H  7989  7998       L1    16  0.92

> <Gold.Chemscore.Hbond.Weighted>
-8.4554

> <Gold.Chemscore.Metal.Weighted>
-0.0000

> <Gold.Chemscore.Lipo.Weighted>
-6.9094

> <Gold.Chemscore.Internal_Hbond.Weighted>
0.0000

> <Gold.Chemscore.DEClash.Weighted>
0.0121

> <Gold.Chemscore.DEInternal.Weighted>
1.0856

> <Gold.Chemscore.Rot.Weighted>
4.0157

> <Gold.Chemscore.Internal.Correction.Weighted>
   9.000000E+99

> <Gold.Protein.RotatedTorsions>
[ 6907 6896 6895 6894 ] final -150.96 input  -60.11 | X-H torsion
[ 7974 7965 7964 7962 ] final -174.46 input  175.53 | X-H torsion
[ 8008 7997 7996 7995 ] final   21.24 input   59.86 | X-H torsion
[ 10167 10162 10161 10158 ] final   79.39 input  -65.29 | X-H torsion
[ 10718 10713 10712 10709 ] final -151.35 input   66.30 | X-H torsion
[ 10763 10752 10751 10750 ] final  -96.74 input  -60.55 | X-H torsion
[ 11005 11000 10999 10996 ] final   43.82 input  -57.11 | X-H torsion

> <Gold.Protein.ActiveResidues>
 VAL166  LYS551  ARG553  GLY616  TRP617  ASP618  TYR619  PRO620  LYS621  CYS622 
 ASP623  PHE694  ASN695  SER759  ASP760  ASP761  ALA762  ILE779  LEU786  VAL792 
 PHE793  MET794  SER795  GLU796  ALA797  LYS798  CYS799  TRP800  GLU811  SER814 

> <Gold.Protein.RotatedAtoms>
  151.2061  133.4582  159.2596 H   0  0  0  0  0  0  0  0  0  0  0  0  # atno 6907 bound_to 6896
  151.1021  134.9978  159.8464 H   0  0  0  0  0  0  0  0  0  0  0  0  # atno 6908 bound_to 6896
  152.5444  134.1987  159.8756 H   0  0  0  0  0  0  0  0  0  0  0  0  # atno 6909 bound_to 6896
  144.7132  140.1468  143.6387 H   0  0  0  0  0  0  0  0  0  0  0  0  # atno 7974 bound_to 7965
  154.9476  140.3061  155.5090 H   0  0  0  0  0  0  0  0  0  0  0  0  # atno 8008 bound_to 7997
  156.2990  140.2325  156.4489 H   0  0  0  0  0  0  0  0  0  0  0  0  # atno 8009 bound_to 7997
  154.8085  140.0430  157.1314 H   0  0  0  0  0  0  0  0  0  0  0  0  # atno 8010 bound_to 7997
  139.9608  144.5962  150.8074 H   0  0  0  0  0  0  0  0  0  0  0  0  # atno 10167 bound_to 10162
  156.4581  130.8200  151.2431 H   0  0  0  0  0  0  0  0  0  0  0  0  # atno 10718 bound_to 10713
  154.7266  135.5072  153.8896 H   0  0  0  0  0  0  0  0  0  0  0  0  # atno 10763 bound_to 10752
  153.0910  135.6659  153.9862 H   0  0  0  0  0  0  0  0  0  0  0  0  # atno 10764 bound_to 10752
  153.9673  135.3042  155.3409 H   0  0  0  0  0  0  0  0  0  0  0  0  # atno 10765 bound_to 10752
  140.1609  134.4342  155.8318 H   0  0  0  0  0  0  0  0  0  0  0  0  # atno 11005 bound_to 11000
  145.9152  139.2511  143.1414 LP  0  0  0  0  0  0  0  0  0  0  0  0  # atno 17320 bound_to 7965
  145.9676  140.8786  143.0179 LP  0  0  0  0  0  0  0  0  0  0  0  0  # atno 17321 bound_to 7965
  140.7554  143.3045  151.2997 LP  0  0  0  0  0  0  0  0  0  0  0  0  # atno 17342 bound_to 10162
  139.6556  144.0283  152.2657 LP  0  0  0  0  0  0  0  0  0  0  0  0  # atno 17343 bound_to 10162
  157.7499  131.0116  150.3352 LP  0  0  0  0  0  0  0  0  0  0  0  0  # atno 17370 bound_to 10713
  156.3745  130.3869  149.7149 LP  0  0  0  0  0  0  0  0  0  0  0  0  # atno 17371 bound_to 10713
  141.2209  133.6913  156.7592 LP  0  0  0  0  0  0  0  0  0  0  0  0  # atno 17394 bound_to 11000
  140.2491  134.8554  157.3649 LP  0  0  0  0  0  0  0  0  0  0  0  0  # atno 17395 bound_to 11000

$$$$
