AV-unprocessed.smi:1816|AV-procd|sdf|7364|dock2
  -GOLD-   22720 9 23D 1   1.00000     0.00000
 Structure written by MMmdl.
 36 37  0  0  0  0  0  0  0  0  2 V2000
  147.8190  138.7313  154.2953 C   0  0  0  0  0  0  0  0  0  0  0  0
  146.3954  139.0040  153.7593 C   0  0  2  0  0  0  0  0  0  0  0  0
  146.2907  138.6250  152.2588 C   0  0  0  0  0  0  0  0  0  0  0  0
  146.6366  137.2313  151.9968 N   0  0  0  0  0  0  0  0  0  0  0  0
  145.7617  136.2784  151.6458 C   0  0  0  0  0  0  0  0  0  0  0  0
  144.5564  136.4867  151.5071 O   0  0  0  0  0  0  0  0  0  0  0  0
  146.3723  135.0951  151.4753 N   0  0  0  0  0  0  0  0  0  0  0  0
  145.7821  133.8573  151.1191 C   0  0  0  0  0  0  0  0  0  0  0  0
  146.5761  132.8258  150.8273 N   0  0  0  0  0  0  0  0  0  0  0  0
  145.8473  131.6793  150.4976 C   0  0  0  0  0  0  0  0  0  0  0  0
  144.4869  131.8575  150.5454 C   0  0  0  0  0  0  0  0  0  0  0  0
  144.0603  133.4832  151.0081 S   0  0  0  0  0  0  0  0  0  0  0  0
  145.9968  140.4261  153.9679 N   0  3  0  0  0  0  0  0  0  0  0  0
  145.7004  140.7981  155.3754 C   0  0  0  0  0  0  0  0  0  0  0  0
  146.2389  142.2185  155.5956 C   0  0  0  0  0  0  0  0  0  0  0  0
  146.5873  142.7235  154.2007 C   0  0  0  0  0  0  0  0  0  0  0  0
  146.9398  141.4432  153.4530 C   0  0  0  0  0  0  0  0  0  0  0  0
  148.1166  137.6947  154.1371 H   0  0  0  0  0  0  0  0  0  0  0  0
  147.8927  138.9060  155.3684 H   0  0  0  0  0  0  0  0  0  0  0  0
  148.5561  139.3647  153.8012 H   0  0  0  0  0  0  0  0  0  0  0  0
  145.7012  138.3849  154.3299 H   0  0  0  0  0  0  0  0  0  0  0  0
  145.2887  138.8072  151.8682 H   0  0  0  0  0  0  0  0  0  0  0  0
  146.9629  139.2517  151.6719 H   0  0  0  0  0  0  0  0  0  0  0  0
  147.6097  136.9765  152.0864 H   0  0  0  0  0  0  0  0  0  0  0  0
  147.3712  135.0736  151.6194 H   0  0  0  0  0  0  0  0  0  0  0  0
  146.3797  130.7755  150.2403 H   0  0  0  0  0  0  0  0  0  0  0  0
  143.7133  131.1337  150.3369 H   0  0  0  0  0  0  0  0  0  0  0  0
  144.6230  140.7528  155.5379 H   0  0  0  0  0  0  0  0  0  0  0  0
  146.1718  140.1136  156.0825 H   0  0  0  0  0  0  0  0  0  0  0  0
  145.5240  142.8646  156.1058 H   0  0  0  0  0  0  0  0  0  0  0  0
  147.1420  142.1773  156.2064 H   0  0  0  0  0  0  0  0  0  0  0  0
  145.7132  143.1912  153.7453 H   0  0  0  0  0  0  0  0  0  0  0  0
  147.3985  143.4522  154.2018 H   0  0  0  0  0  0  0  0  0  0  0  0
  147.9645  141.1506  153.6885 H   0  0  0  0  0  0  0  0  0  0  0  0
  146.8577  141.5672  152.3728 H   0  0  0  0  0  0  0  0  0  0  0  0
  145.1375  140.5695  153.4570 H   0  0  0  0  0  0  0  0  0  0  0  0
  1  2  1  0  0  0  0
  1 18  1  0  0  0  0
  1 19  1  0  0  0  0
  1 20  1  0  0  0  0
  2  3  1  0  0  0  0
  2 13  1  0  0  0  0
  2 21  1  0  0  0  0
  3  4  1  0  0  0  0
  3 22  1  0  0  0  0
  3 23  1  0  0  0  0
  4  5  1  0  0  0  0
  4 24  1  0  0  0  0
  5  6  2  0  0  0  0
  5  7  1  0  0  0  0
  7  8  1  0  0  0  0
  7 25  1  0  0  0  0
  8 12  1  0  0  0  0
  8  9  2  0  0  0  0
  9 10  1  0  0  0  0
 10 11  2  0  0  0  0
 10 26  1  0  0  0  0
 11 12  1  0  0  0  0
 11 27  1  0  0  0  0
 13 17  1  0  0  0  0
 13 14  1  0  0  0  0
 13 36  1  0  0  0  0
 14 15  1  0  0  0  0
 14 28  1  0  0  0  0
 14 29  1  0  0  0  0
 15 16  1  0  0  0  0
 15 30  1  0  0  0  0
 15 31  1  0  0  0  0
 16 17  1  0  0  0  0
 16 32  1  0  0  0  0
 16 33  1  0  0  0  0
 17 34  1  0  0  0  0
 17 35  1  0  0  0  0
M  CHG  1  13   1
M  END
> <s_m_source_file>
AV-unprocessed.smi

> <i_m_source_file_index>
1816

> <i_lp_mmshare_version>
43012

> <i_f3d_flags>
0

> <s_epik_input>
W0NIMl0xW0NIMl1bQ0gyXVtDSDJdTjFbQ0BIXShbQ0gzXSlbQ0gyXVtOSF1DKD1PKVtOSF1jMm5bY0hdW2NIXXMy

> <s_epik_cmdline>
J2VwaWtfcHl0aG9uJywgJy1waCcsICc3LjAnLCAnLXRuJywgJzgnLCAnLW1hJywgJzIwMCcsICctbWV0YWxfYmluZGluZycsICctaW1hZScsICc8aW5maWxlLm1hZT4nLCAnLW9tYWUnLCAnPG91dGZpbGUubWFlPic=

> <r_lp_tautomer_probability>
0.999

> <r_epik_Ionization_Penalty>
0.000988651

> <r_epik_Ionization_Penalty_Charging>
0.000848324

> <r_epik_Ionization_Penalty_Neutral>
0.000140327

> <r_epik_State_Penalty>
0.000546901

> <r_epik_Charging_Adjusted_Penalty>
0.00139523

> <i_epik_Tot_Q>
1

> <i_epik_Tot_abs_Q>
1

> <r_epik_Metal_State_Penalty>
0.0571994

> <b_epik_Metal_Only>
0

> <s_lp_Force_Field>
OPLS_2005

> <r_lp_Energy>
26.1685

> <b_lp_Chiralities_Consistent>
1

> <s_lp_Variant>
AV-unprocessed.smi:1816-1

> <Gold.Version>
5.8.1

> <Gold.Id.Protein>
6NUR|6NUR_protein|mol2

> <Gold.PLP.Fitness>
41.3637

> <Gold.PLP.PLP>
-27.7595

> <Gold.PLP.part.hbond>
-2.8817

> <Gold.PLP.part.metal>
0.0000

> <Gold.PLP.part.buried>
-5.1660

> <Gold.PLP.part.nonpolar>
-22.5363

> <Gold.PLP.part.repulsive>
2.4455

> <Gold.PLP.ligand.clash>
0.0000

> <Gold.PLP.ligand.torsion>
0.2148

> <Gold.PLP.Chemscore.Hbond>
3.8873

> <Gold.PLP.Chemscore.CHOScore>
0.7759

> <Gold.PLP.Chemscore.Metal>
0.0000

> <Gold.Chemscore.Hbonds>
donor molecule, donor type, donor heavy atom, donor atom, acceptor molecule, acceptor atom, score
      L1  H     4    24       P1  7948  1.00
      L1  H     7    25       P1  7948  0.88
      L1  H    13    36       P1 10175  2.00
      L1  C    10    26       P1 10747  0.67

> <Gold.PLP.Chemscore.Internal.Correction>
0.0443

> <Gold.Rescore>
     Score         DG    S(hbond)    S(metal)    S(lipo)     H(rot)  DE(clash)    DE(int)     intcor
     16.44     -18.12       2.74        0.00      64.85       1.60       1.59       0.09       ----

> <Gold.Chemscore.Fitness>
16.4420

> <Gold.Chemscore.DG>
-18.1229

> <Gold.Chemscore.ZeroCoef>
-5.4800

> <Gold.Chemscore.Hbond>
2.7421

> <Gold.Chemscore.Metal>
0.0000

> <Gold.Chemscore.Lipo>
64.8534

> <Gold.Chemscore.Internal_Hbond>
0.0000

> <Gold.Chemscore.DEClash>
1.5919

> <Gold.Chemscore.DEInternal>
0.0890

> <Gold.Chemscore.Rot>
1.6029

> <Gold.Chemscore.Internal.Correction>
   9.000000E+99

> <Gold.Chemscore.Hbonds>
donor molecule, donor type, donor heavy atom, donor atom, acceptor molecule, acceptor atom, score
      L1  H     4    24       P1  7948  0.93
      L1  H     7    25       P1  7948  0.71
      L1  H    13    36       P1 10175  0.97

> <Gold.Chemscore.Hbond.Weighted>
-9.1586

> <Gold.Chemscore.Metal.Weighted>
-0.0000

> <Gold.Chemscore.Lipo.Weighted>
-7.5879

> <Gold.Chemscore.Internal_Hbond.Weighted>
0.0000

> <Gold.Chemscore.DEClash.Weighted>
1.5919

> <Gold.Chemscore.DEInternal.Weighted>
0.0890

> <Gold.Chemscore.Rot.Weighted>
4.1035

> <Gold.Chemscore.Internal.Correction.Weighted>
   9.000000E+99

> <Gold.Protein.RotatedTorsions>
[ 6907 6896 6895 6894 ] final -179.02 input  -60.11 | X-H torsion
[ 7974 7965 7964 7962 ] final -113.16 input  175.53 | X-H torsion
[ 8008 7997 7996 7995 ] final  -86.21 input   59.86 | X-H torsion
[ 10167 10162 10161 10158 ] final  139.35 input  -65.29 | X-H torsion
[ 10718 10713 10712 10709 ] final   34.56 input   66.30 | X-H torsion
[ 10763 10752 10751 10750 ] final  149.80 input  -60.55 | X-H torsion
[ 11005 11000 10999 10996 ] final -155.79 input  -57.11 | X-H torsion

> <Gold.Protein.ActiveResidues>
 VAL166  LYS551  ARG553  GLY616  TRP617  ASP618  TYR619  PRO620  LYS621  CYS622 
 ASP623  PHE694  ASN695  SER759  ASP760  ASP761  ALA762  ILE779  LEU786  VAL792 
 PHE793  MET794  SER795  GLU796  ALA797  LYS798  CYS799  TRP800  GLU811  SER814 

> <Gold.Protein.RotatedAtoms>
  151.6467  133.3323  159.3142 H   0  0  0  0  0  0  0  0  0  0  0  0  # atno 6907 bound_to 6896
  150.7980  134.7058  159.6585 H   0  0  0  0  0  0  0  0  0  0  0  0  # atno 6908 bound_to 6896
  152.4070  134.6194  160.0098 H   0  0  0  0  0  0  0  0  0  0  0  0  # atno 6909 bound_to 6896
  145.1353  140.8748  143.3734 H   0  0  0  0  0  0  0  0  0  0  0  0  # atno 7974 bound_to 7965
  154.6494  140.0581  156.9937 H   0  0  0  0  0  0  0  0  0  0  0  0  # atno 8008 bound_to 7997
  155.1395  140.3264  155.4437 H   0  0  0  0  0  0  0  0  0  0  0  0  # atno 8009 bound_to 7997
  156.2569  140.1966  156.6511 H   0  0  0  0  0  0  0  0  0  0  0  0  # atno 8010 bound_to 7997
  139.5081  144.6300  151.5842 H   0  0  0  0  0  0  0  0  0  0  0  0  # atno 10167 bound_to 10162
  157.3119  130.7403  149.6730 H   0  0  0  0  0  0  0  0  0  0  0  0  # atno 10718 bound_to 10713
  154.0770  135.2862  155.3297 H   0  0  0  0  0  0  0  0  0  0  0  0  # atno 10763 bound_to 10752
  154.6709  135.5300  153.8140 H   0  0  0  0  0  0  0  0  0  0  0  0  # atno 10764 bound_to 10752
  153.0463  135.6557  154.0948 H   0  0  0  0  0  0  0  0  0  0  0  0  # atno 10765 bound_to 10752
  140.6826  134.4128  157.5225 H   0  0  0  0  0  0  0  0  0  0  0  0  # atno 11005 bound_to 11000
  145.0591  139.3120  143.5890 LP  0  0  0  0  0  0  0  0  0  0  0  0  # atno 17320 bound_to 7965
  146.3510  140.0026  142.8674 LP  0  0  0  0  0  0  0  0  0  0  0  0  # atno 17321 bound_to 7965
  140.6029  143.9577  150.6398 LP  0  0  0  0  0  0  0  0  0  0  0  0  # atno 17342 bound_to 10162
  140.2794  143.3400  152.1165 LP  0  0  0  0  0  0  0  0  0  0  0  0  # atno 17343 bound_to 10162
  155.9678  130.4249  150.4628 LP  0  0  0  0  0  0  0  0  0  0  0  0  # atno 17370 bound_to 10713
  157.2628  131.0570  151.2309 LP  0  0  0  0  0  0  0  0  0  0  0  0  # atno 17371 bound_to 10713
  139.8947  134.8700  156.2164 LP  0  0  0  0  0  0  0  0  0  0  0  0  # atno 17394 bound_to 11000
  141.0305  133.6991  156.1423 LP  0  0  0  0  0  0  0  0  0  0  0  0  # atno 17395 bound_to 11000

$$$$
