AV-unprocessed.smi:912|AV-procd|sdf|4140|dock7
  -GOLD-   22720 2 43D 1   1.00000     0.00000
 Structure written by MMmdl.
 26 26  0  0  0  0  0  0  0  0  1 V2000
  149.1340  141.6808  154.6258 C   0  0  0  0  0  0  0  0  0  0  0  0
  150.0377  142.3216  155.5791 N   0  0  0  0  0  0  0  0  0  0  0  0
  150.4799  141.5390  156.7489 C   0  0  1  0  0  0  0  0  0  0  0  0
  149.1745  141.0872  157.4547 C   0  0  0  0  0  0  0  0  0  0  0  0
  151.3487  140.3165  156.3420 C   0  0  0  0  0  0  0  0  0  0  0  0
  151.6226  139.4128  157.2897 N   0  0  0  0  0  0  0  0  0  0  0  0
  151.7732  140.1879  155.1943 O   0  0  0  0  0  0  0  0  0  0  0  0
  151.3146  142.3986  157.7212 C   0  0  0  0  0  0  0  0  0  0  0  0
  151.7881  141.8994  158.9608 C   0  0  0  0  0  0  0  0  0  0  0  0
  152.5400  142.7463  159.7991 C   0  0  0  0  0  0  0  0  0  0  0  0
  152.8380  144.0249  159.4903 N   0  0  0  0  0  0  0  0  0  0  0  0
  152.3850  144.5066  158.3150 C   0  0  0  0  0  0  0  0  0  0  0  0
  151.6267  143.7436  157.4057 C   0  0  0  0  0  0  0  0  0  0  0  0
  148.7997  142.4233  153.9015 H   0  0  0  0  0  0  0  0  0  0  0  0
  148.2474  141.2745  155.1117 H   0  0  0  0  0  0  0  0  0  0  0  0
  149.6227  140.8855  154.0631 H   0  0  0  0  0  0  0  0  0  0  0  0
  149.5447  143.1273  155.9364 H   0  0  0  0  0  0  0  0  0  0  0  0
  149.3697  140.4795  158.3386 H   0  0  0  0  0  0  0  0  0  0  0  0
  148.5349  140.4890  156.8054 H   0  0  0  0  0  0  0  0  0  0  0  0
  148.5889  141.9469  157.7824 H   0  0  0  0  0  0  0  0  0  0  0  0
  152.1825  138.6038  157.0626 H   0  0  0  0  0  0  0  0  0  0  0  0
  151.2671  139.5424  158.2257 H   0  0  0  0  0  0  0  0  0  0  0  0
  151.5880  140.8897  159.2863 H   0  0  0  0  0  0  0  0  0  0  0  0
  152.9105  142.3852  160.7470 H   0  0  0  0  0  0  0  0  0  0  0  0
  152.6316  145.5341  158.0921 H   0  0  0  0  0  0  0  0  0  0  0  0
  151.2867  144.1956  156.4857 H   0  0  0  0  0  0  0  0  0  0  0  0
  1  2  1  0  0  0  0
  1 14  1  0  0  0  0
  1 15  1  0  0  0  0
  1 16  1  0  0  0  0
  2  3  1  0  0  0  0
  2 17  1  0  0  0  0
  3  4  1  0  0  0  0
  3  5  1  0  0  0  0
  3  8  1  0  0  0  0
  4 18  1  0  0  0  0
  4 19  1  0  0  0  0
  4 20  1  0  0  0  0
  5  6  1  0  0  0  0
  5  7  2  0  0  0  0
  6 21  1  0  0  0  0
  6 22  1  0  0  0  0
  8 13  1  0  0  0  0
  8  9  2  0  0  0  0
  9 10  1  0  0  0  0
  9 23  1  0  0  0  0
 10 11  2  0  0  0  0
 10 24  1  0  0  0  0
 11 12  1  0  0  0  0
 12 13  2  0  0  0  0
 12 25  1  0  0  0  0
 13 26  1  0  0  0  0
M  END
> <s_m_source_file>
AV-unprocessed.smi

> <i_m_source_file_index>
912

> <i_lp_mmshare_version>
43012

> <i_f3d_flags>
0

> <s_epik_input>
W0NIM11bTkhdW0NAQF0oW0NIM10pKEMoPU8pW05IMl0pYzFbY0hdW2NIXW5bY0hdW2NIXTE=

> <s_epik_cmdline>
J2VwaWtfcHl0aG9uJywgJy1waCcsICc3LjAnLCAnLXRuJywgJzgnLCAnLW1hJywgJzIwMCcsICctbWV0YWxfYmluZGluZycsICctaW1hZScsICc8aW5maWxlLm1hZT4nLCAnLW9tYWUnLCAnPG91dGZpbGUubWFlPic=

> <r_epik_Ionization_Penalty>
0.458428

> <r_epik_Ionization_Penalty_Charging>
0

> <r_epik_Ionization_Penalty_Neutral>
0.458428

> <r_epik_State_Penalty>
0.443707

> <r_epik_Charging_Adjusted_Penalty>
0.443707

> <i_epik_Tot_Q>
0

> <i_epik_Tot_abs_Q>
0

> <r_epik_Metal_State_Penalty>
0.312856

> <b_epik_Metal_Only>
0

> <s_lp_Force_Field>
OPLS_2005

> <r_lp_Energy>
10.7043

> <b_lp_Chiralities_Consistent>
1

> <s_lp_Variant>
AV-unprocessed.smi:912-1

> <Gold.Version>
5.8.1

> <Gold.Id.Protein>
6NUR|6NUR_protein|mol2

> <Gold.PLP.Fitness>
34.2960

> <Gold.PLP.PLP>
-29.3295

> <Gold.PLP.part.hbond>
-2.0000

> <Gold.PLP.part.metal>
0.0000

> <Gold.PLP.part.buried>
-3.6747

> <Gold.PLP.part.nonpolar>
-23.7490

> <Gold.PLP.part.repulsive>
0.0877

> <Gold.PLP.ligand.clash>
0.0000

> <Gold.PLP.ligand.torsion>
0.2695

> <Gold.PLP.Chemscore.Hbond>
1.8240

> <Gold.PLP.Chemscore.CHOScore>
0.0000

> <Gold.PLP.Chemscore.Metal>
0.0000

> <Gold.Chemscore.Hbonds>
donor molecule, donor type, donor heavy atom, donor atom, acceptor molecule, acceptor atom, score
      L1  H     2    17       P1  8028  0.98
      P1  H  7989  7998       L1     7  0.88

> <Gold.PLP.Chemscore.Internal.Correction>
0.0336

> <Gold.Rescore>
     Score         DG    S(hbond)    S(metal)    S(lipo)     H(rot)  DE(clash)    DE(int)     intcor
     14.68     -15.59       1.98        0.00      68.73       1.77       0.09       0.82       ----

> <Gold.Chemscore.Fitness>
14.6821

> <Gold.Chemscore.DG>
-15.5911

> <Gold.Chemscore.ZeroCoef>
-5.4800

> <Gold.Chemscore.Hbond>
1.9772

> <Gold.Chemscore.Metal>
0.0000

> <Gold.Chemscore.Lipo>
68.7329

> <Gold.Chemscore.Internal_Hbond>
0.0000

> <Gold.Chemscore.DEClash>
0.0886

> <Gold.Chemscore.DEInternal>
0.8205

> <Gold.Chemscore.Rot>
1.7712

> <Gold.Chemscore.Internal.Correction>
   9.000000E+99

> <Gold.Chemscore.Hbonds>
donor molecule, donor type, donor heavy atom, donor atom, acceptor molecule, acceptor atom, score
      L1  H     2    17       P1  8028  0.93
      P1  H  7989  7998       L1     7  0.87

> <Gold.Chemscore.Hbond.Weighted>
-6.6037

> <Gold.Chemscore.Metal.Weighted>
-0.0000

> <Gold.Chemscore.Lipo.Weighted>
-8.0417

> <Gold.Chemscore.Internal_Hbond.Weighted>
0.0000

> <Gold.Chemscore.DEClash.Weighted>
0.0886

> <Gold.Chemscore.DEInternal.Weighted>
0.8205

> <Gold.Chemscore.Rot.Weighted>
4.5343

> <Gold.Chemscore.Internal.Correction.Weighted>
   9.000000E+99

> <Gold.Protein.RotatedTorsions>
[ 6907 6896 6895 6894 ] final  128.17 input  -60.11 | X-H torsion
[ 7974 7965 7964 7962 ] final   19.99 input  175.53 | X-H torsion
[ 8008 7997 7996 7995 ] final   97.75 input   59.86 | X-H torsion
[ 10167 10162 10161 10158 ] final -131.12 input  -65.29 | X-H torsion
[ 10718 10713 10712 10709 ] final   84.75 input   66.30 | X-H torsion
[ 10763 10752 10751 10750 ] final   60.74 input  -60.55 | X-H torsion
[ 11005 11000 10999 10996 ] final  153.70 input  -57.11 | X-H torsion

> <Gold.Protein.ActiveResidues>
 VAL166  LYS551  ARG553  GLY616  TRP617  ASP618  TYR619  PRO620  LYS621  CYS622 
 ASP623  PHE694  ASN695  SER759  ASP760  ASP761  ALA762  ILE779  LEU786  VAL792 
 PHE793  MET794  SER795  GLU796  ALA797  LYS798  CYS799  TRP800  GLU811  SER814 

> <Gold.Protein.RotatedAtoms>
  152.3744  133.6462  159.6112 H   0  0  0  0  0  0  0  0  0  0  0  0  # atno 6907 bound_to 6896
  150.7693  133.9217  159.3409 H   0  0  0  0  0  0  0  0  0  0  0  0  # atno 6908 bound_to 6896
  151.7033  135.0927  160.0306 H   0  0  0  0  0  0  0  0  0  0  0  0  # atno 6909 bound_to 6896
  146.2128  139.8234  142.8675 H   0  0  0  0  0  0  0  0  0  0  0  0  # atno 7974 bound_to 7965
  156.0934  140.3254  155.7845 H   0  0  0  0  0  0  0  0  0  0  0  0  # atno 8008 bound_to 7997
  155.4959  140.0565  157.2964 H   0  0  0  0  0  0  0  0  0  0  0  0  # atno 8009 bound_to 7997
  154.4651  140.1985  156.0155 H   0  0  0  0  0  0  0  0  0  0  0  0  # atno 8010 bound_to 7997
  139.9222  143.6369  152.2551 H   0  0  0  0  0  0  0  0  0  0  0  0  # atno 10167 bound_to 10162
  157.6903  131.0146  150.2720 H   0  0  0  0  0  0  0  0  0  0  0  0  # atno 10718 bound_to 10713
  152.9930  135.5525  154.5922 H   0  0  0  0  0  0  0  0  0  0  0  0  # atno 10763 bound_to 10752
  154.5281  135.2812  155.1206 H   0  0  0  0  0  0  0  0  0  0  0  0  # atno 10764 bound_to 10752
  154.2532  135.6395  153.5300 H   0  0  0  0  0  0  0  0  0  0  0  0  # atno 10765 bound_to 10752
  140.1422  134.8731  157.2345 H   0  0  0  0  0  0  0  0  0  0  0  0  # atno 11005 bound_to 11000
  145.3072  141.0210  143.3575 LP  0  0  0  0  0  0  0  0  0  0  0  0  # atno 17320 bound_to 7965
  144.8962  139.4709  143.6654 LP  0  0  0  0  0  0  0  0  0  0  0  0  # atno 17321 bound_to 7965
  139.6852  144.7652  151.1537 LP  0  0  0  0  0  0  0  0  0  0  0  0  # atno 17342 bound_to 10162
  140.7659  143.5668  150.9039 LP  0  0  0  0  0  0  0  0  0  0  0  0  # atno 17343 bound_to 10162
  156.3281  130.3796  149.7515 LP  0  0  0  0  0  0  0  0  0  0  0  0  # atno 17370 bound_to 10713
  156.5064  130.8152  151.3152 LP  0  0  0  0  0  0  0  0  0  0  0  0  # atno 17371 bound_to 10713
  140.2708  134.3462  155.7374 LP  0  0  0  0  0  0  0  0  0  0  0  0  # atno 17394 bound_to 11000
  141.2187  133.7422  156.9220 LP  0  0  0  0  0  0  0  0  0  0  0  0  # atno 17395 bound_to 11000

$$$$
