AV-unprocessed.smi:1239|AV-procd|sdf|5189|dock1
  -GOLD-   22720 4273D 1   1.00000     0.00000
 Structure written by MMmdl.
 49 50  0  0  0  0  0  0  0  0  3 V2000
  148.7681  134.7595  156.1035 C   0  0  0  0  0  0  0  0  0  0  0  0
  149.3567  134.2143  154.7795 C   0  0  2  0  0  0  0  0  0  0  0  0
  150.6270  135.0174  154.3926 C   0  0  0  0  0  0  0  0  0  0  0  0
  150.4043  136.4608  154.3639 N   0  0  0  0  0  0  0  0  0  0  0  0
  150.8310  137.3175  155.3027 C   0  0  0  0  0  0  0  0  0  0  0  0
  151.4545  136.9653  156.3037 O   0  0  0  0  0  0  0  0  0  0  0  0
  150.4719  138.5807  155.0149 N   0  0  0  0  0  0  0  0  0  0  0  0
  150.7670  139.7696  155.7366 C   0  0  0  0  0  0  0  0  0  0  0  0
  151.7244  139.6941  156.7698 C   0  0  0  0  0  0  0  0  0  0  0  0
  152.0375  140.8442  157.5231 C   0  0  0  0  0  0  0  0  0  0  0  0
  151.3818  142.0688  157.2459 C   0  0  0  0  0  0  0  0  0  0  0  0
  151.6394  143.2623  157.9549 N   0  0  0  0  0  0  0  0  0  0  0  0
  151.3292  144.5500  157.3437 C   0  0  0  0  0  0  0  0  0  0  0  0
  152.1821  143.2003  159.3058 C   0  0  0  0  0  0  0  0  0  0  0  0
  150.4600  142.0886  156.2522 N   0  3  0  0  0  0  0  0  0  0  0  0
  150.1313  141.0127  155.5052 C   0  0  0  0  0  0  0  0  0  0  0  0
  148.3767  134.2117  153.6439 N   0  3  0  0  0  0  0  0  0  0  0  0
  148.5109  133.0063  152.7805 C   0  0  0  0  0  0  0  0  0  0  0  0
  147.5580  133.0773  151.5766 C   0  0  0  0  0  0  0  0  0  0  0  0
  146.2216  133.2052  152.0388 O   0  0  0  0  0  0  0  0  0  0  0  0
  146.0399  134.4006  152.7831 C   0  0  0  0  0  0  0  0  0  0  0  0
  146.9480  134.3893  154.0250 C   0  0  0  0  0  0  0  0  0  0  0  0
  149.5113  134.7732  156.9004 H   0  0  0  0  0  0  0  0  0  0  0  0
  147.9524  134.1391  156.4750 H   0  0  0  0  0  0  0  0  0  0  0  0
  148.3978  135.7786  155.9862 H   0  0  0  0  0  0  0  0  0  0  0  0
  149.6386  133.1769  154.9673 H   0  0  0  0  0  0  0  0  0  0  0  0
  151.4593  134.8179  155.0667 H   0  0  0  0  0  0  0  0  0  0  0  0
  150.9663  134.7120  153.4024 H   0  0  0  0  0  0  0  0  0  0  0  0
  149.8943  136.8295  153.5740 H   0  0  0  0  0  0  0  0  0  0  0  0
  149.8899  138.7024  154.1990 H   0  0  0  0  0  0  0  0  0  0  0  0
  152.2238  138.7607  156.9855 H   0  0  0  0  0  0  0  0  0  0  0  0
  152.7775  140.7655  158.3050 H   0  0  0  0  0  0  0  0  0  0  0  0
  150.2622  144.6264  157.1315 H   0  0  0  0  0  0  0  0  0  0  0  0
  151.8790  144.6741  156.4099 H   0  0  0  0  0  0  0  0  0  0  0  0
  151.5987  145.3772  158.0006 H   0  0  0  0  0  0  0  0  0  0  0  0
  153.1571  142.7123  159.3051 H   0  0  0  0  0  0  0  0  0  0  0  0
  151.5132  142.6433  159.9624 H   0  0  0  0  0  0  0  0  0  0  0  0
  152.3087  144.1971  159.7287 H   0  0  0  0  0  0  0  0  0  0  0  0
  149.3663  141.1940  154.7655 H   0  0  0  0  0  0  0  0  0  0  0  0
  149.5281  132.8964  152.4095 H   0  0  0  0  0  0  0  0  0  0  0  0
  148.2931  132.1123  153.3672 H   0  0  0  0  0  0  0  0  0  0  0  0
  147.8151  133.9109  150.9211 H   0  0  0  0  0  0  0  0  0  0  0  0
  147.6389  132.1676  150.9810 H   0  0  0  0  0  0  0  0  0  0  0  0
  146.2482  135.2696  152.1566 H   0  0  0  0  0  0  0  0  0  0  0  0
  144.9949  134.4712  153.0848 H   0  0  0  0  0  0  0  0  0  0  0  0
  146.6464  133.5885  154.7022 H   0  0  0  0  0  0  0  0  0  0  0  0
  146.7979  135.3344  154.5460 H   0  0  0  0  0  0  0  0  0  0  0  0
  149.9819  142.9684  156.0573 H   0  0  0  0  0  0  0  0  0  0  0  0
  148.6068  135.0111  153.0708 H   0  0  0  0  0  0  0  0  0  0  0  0
  1  2  1  0  0  0  0
  1 23  1  0  0  0  0
  1 24  1  0  0  0  0
  1 25  1  0  0  0  0
  2  3  1  0  0  0  0
  2 17  1  0  0  0  0
  2 26  1  0  0  0  0
  3  4  1  0  0  0  0
  3 27  1  0  0  0  0
  3 28  1  0  0  0  0
  4  5  1  0  0  0  0
  4 29  1  0  0  0  0
  5  6  2  0  0  0  0
  5  7  1  0  0  0  0
  7  8  1  0  0  0  0
  7 30  1  0  0  0  0
  8 16  1  0  0  0  0
  8  9  2  0  0  0  0
  9 10  1  0  0  0  0
  9 31  1  0  0  0  0
 10 11  2  0  0  0  0
 10 32  1  0  0  0  0
 11 12  1  0  0  0  0
 11 15  1  0  0  0  0
 12 13  1  0  0  0  0
 12 14  1  0  0  0  0
 13 33  1  0  0  0  0
 13 34  1  0  0  0  0
 13 35  1  0  0  0  0
 14 36  1  0  0  0  0
 14 37  1  0  0  0  0
 14 38  1  0  0  0  0
 15 16  2  0  0  0  0
 15 48  1  0  0  0  0
 16 39  1  0  0  0  0
 17 22  1  0  0  0  0
 17 18  1  0  0  0  0
 17 49  1  0  0  0  0
 18 19  1  0  0  0  0
 18 40  1  0  0  0  0
 18 41  1  0  0  0  0
 19 20  1  0  0  0  0
 19 42  1  0  0  0  0
 19 43  1  0  0  0  0
 20 21  1  0  0  0  0
 21 22  1  0  0  0  0
 21 44  1  0  0  0  0
 21 45  1  0  0  0  0
 22 46  1  0  0  0  0
 22 47  1  0  0  0  0
M  CHG  1  15   1
M  CHG  1  17   1
M  END
> <s_m_source_file>
AV-unprocessed.smi

> <i_m_source_file_index>
1239

> <i_lp_mmshare_version>
43012

> <i_f3d_flags>
0

> <s_epik_input>
W0NIMl0xW0NIMl1PW0NIMl1bQ0gyXU4xW0NASF0oW0NIM10pW0NIMl1bTkhdQyg9TylbTkhdYzJbY0hdW2NIXWMoTihbQ0gzXSlbQ0gzXSluW2NIXTI=

> <s_epik_cmdline>
J2VwaWtfcHl0aG9uJywgJy1waCcsICc3LjAnLCAnLXRuJywgJzgnLCAnLW1hJywgJzIwMCcsICctbWV0YWxfYmluZGluZycsICctaW1hZScsICc8aW5maWxlLm1hZT4nLCAnLW9tYWUnLCAnPG91dGZpbGUubWFlPic=

> <r_lp_tautomer_probability>
0.999994

> <r_epik_Ionization_Penalty>
0.907597

> <r_epik_Ionization_Penalty_Charging>
0.907577

> <r_epik_Ionization_Penalty_Neutral>
2.023e-05

> <r_epik_State_Penalty>
0.909151

> <r_epik_Charging_Adjusted_Penalty>
1.81673

> <i_epik_Tot_Q>
2

> <i_epik_Tot_abs_Q>
2

> <r_epik_Metal_State_Penalty>
1.19543

> <b_epik_Metal_Only>
0

> <s_lp_Force_Field>
OPLS_2005

> <r_lp_Energy>
31.6235

> <b_lp_Chiralities_Consistent>
1

> <s_lp_Variant>
AV-unprocessed.smi:1239-5

> <Gold.Version>
5.8.1

> <Gold.Id.Protein>
6NUR|6NUR_protein|mol2

> <Gold.PLP.Fitness>
44.3526

> <Gold.PLP.PLP>
-33.1358

> <Gold.PLP.part.hbond>
-3.2402

> <Gold.PLP.part.metal>
0.0000

> <Gold.PLP.part.buried>
-3.3357

> <Gold.PLP.part.nonpolar>
-27.8477

> <Gold.PLP.part.repulsive>
0.3098

> <Gold.PLP.ligand.clash>
0.0000

> <Gold.PLP.ligand.torsion>
1.5275

> <Gold.PLP.Chemscore.Hbond>
4.7210

> <Gold.PLP.Chemscore.CHOScore>
0.0000

> <Gold.PLP.Chemscore.Metal>
0.0000

> <Gold.Chemscore.Hbonds>
donor molecule, donor type, donor heavy atom, donor atom, acceptor molecule, acceptor atom, score
      L1  H     4    29       P1  7948  0.82
      L1  H    15    48       P1  8028  1.62
      L1  H    17    49       P1  7948  2.00

> <Gold.PLP.Chemscore.Internal.Correction>
0.1089

> <Gold.Rescore>
     Score         DG    S(hbond)    S(metal)    S(lipo)     H(rot)  DE(clash)    DE(int)     intcor
     15.81     -19.08       2.48        0.00      78.29       1.51       0.27       2.99       ----

> <Gold.Chemscore.Fitness>
15.8145

> <Gold.Chemscore.DG>
-19.0752

> <Gold.Chemscore.ZeroCoef>
-5.4800

> <Gold.Chemscore.Hbond>
2.4825

> <Gold.Chemscore.Metal>
0.0000

> <Gold.Chemscore.Lipo>
78.2915

> <Gold.Chemscore.Internal_Hbond>
0.0000

> <Gold.Chemscore.DEClash>
0.2691

> <Gold.Chemscore.DEInternal>
2.9916

> <Gold.Chemscore.Rot>
1.5064

> <Gold.Chemscore.Internal.Correction>
   9.000000E+99

> <Gold.Chemscore.Hbonds>
donor molecule, donor type, donor heavy atom, donor atom, acceptor molecule, acceptor atom, score
      L1  H     4    29       P1  7948  0.27
      L1  H    15    48       P1  8028  0.80
      L1  H    17    49       P1  7948  0.60

> <Gold.Chemscore.Hbond.Weighted>
-8.2914

> <Gold.Chemscore.Metal.Weighted>
-0.0000

> <Gold.Chemscore.Lipo.Weighted>
-9.1601

> <Gold.Chemscore.Internal_Hbond.Weighted>
0.0000

> <Gold.Chemscore.DEClash.Weighted>
0.2691

> <Gold.Chemscore.DEInternal.Weighted>
2.9916

> <Gold.Chemscore.Rot.Weighted>
3.8563

> <Gold.Chemscore.Internal.Correction.Weighted>
   9.000000E+99

> <Gold.Protein.RotatedTorsions>
[ 6907 6896 6895 6894 ] final  168.05 input  -60.11 | X-H torsion
[ 7974 7965 7964 7962 ] final  -11.97 input  175.53 | X-H torsion
[ 8008 7997 7996 7995 ] final  -48.00 input   59.86 | X-H torsion
[ 10167 10162 10161 10158 ] final  176.52 input  -65.29 | X-H torsion
[ 10718 10713 10712 10709 ] final   13.94 input   66.30 | X-H torsion
[ 10763 10752 10751 10750 ] final  -69.06 input  -60.55 | X-H torsion
[ 11005 11000 10999 10996 ] final    2.06 input  -57.11 | X-H torsion

> <Gold.Protein.ActiveResidues>
 VAL166  LYS551  ARG553  GLY616  TRP617  ASP618  TYR619  PRO620  LYS621  CYS622 
 ASP623  PHE694  ASN695  SER759  ASP760  ASP761  ALA762  ILE779  LEU786  VAL792 
 PHE793  MET794  SER795  GLU796  ALA797  LYS798  CYS799  TRP800  GLU811  SER814 

> <Gold.Protein.RotatedAtoms>
  151.8536  133.3444  159.3681 H   0  0  0  0  0  0  0  0  0  0  0  0  # atno 6907 bound_to 6896
  150.7199  134.5274  159.5693 H   0  0  0  0  0  0  0  0  0  0  0  0  # atno 6908 bound_to 6896
  152.2773  134.7868  160.0454 H   0  0  0  0  0  0  0  0  0  0  0  0  # atno 6909 bound_to 6896
  146.2169  140.2988  142.8373 H   0  0  0  0  0  0  0  0  0  0  0  0  # atno 7974 bound_to 7965
  154.4023  140.1332  156.4267 H   0  0  0  0  0  0  0  0  0  0  0  0  # atno 8008 bound_to 7997
  155.7591  140.3486  155.5168 H   0  0  0  0  0  0  0  0  0  0  0  0  # atno 8009 bound_to 7997
  155.8876  140.0998  157.1431 H   0  0  0  0  0  0  0  0  0  0  0  0  # atno 8010 bound_to 7997
  139.5217  144.2906  152.0467 H   0  0  0  0  0  0  0  0  0  0  0  0  # atno 10167 bound_to 10162
  157.0319  130.6196  149.5737 H   0  0  0  0  0  0  0  0  0  0  0  0  # atno 10718 bound_to 10713
  154.3980  135.6037  153.5880 H   0  0  0  0  0  0  0  0  0  0  0  0  # atno 10763 bound_to 10752
  152.9788  135.5899  154.4219 H   0  0  0  0  0  0  0  0  0  0  0  0  # atno 10764 bound_to 10752
  154.4013  135.2843  155.2073 H   0  0  0  0  0  0  0  0  0  0  0  0  # atno 10765 bound_to 10752
  140.6085  133.9770  155.8166 H   0  0  0  0  0  0  0  0  0  0  0  0  # atno 11005 bound_to 11000
  144.9072  140.7714  143.5830 LP  0  0  0  0  0  0  0  0  0  0  0  0  # atno 17320 bound_to 7965
  145.2917  139.1881  143.4737 LP  0  0  0  0  0  0  0  0  0  0  0  0  # atno 17321 bound_to 7965
  140.2357  144.4322  150.6281 LP  0  0  0  0  0  0  0  0  0  0  0  0  # atno 17342 bound_to 10162
  140.6325  143.2189  151.6465 LP  0  0  0  0  0  0  0  0  0  0  0  0  # atno 17343 bound_to 10162
  156.0066  130.5154  150.7852 LP  0  0  0  0  0  0  0  0  0  0  0  0  # atno 17370 bound_to 10713
  157.5171  131.0929  151.0126 LP  0  0  0  0  0  0  0  0  0  0  0  0  # atno 17371 bound_to 10713
  141.0824  134.0042  157.3365 LP  0  0  0  0  0  0  0  0  0  0  0  0  # atno 17394 bound_to 11000
  139.9202  135.0200  156.8036 LP  0  0  0  0  0  0  0  0  0  0  0  0  # atno 17395 bound_to 11000

$$$$
