AV-unprocessed.smi:1601|AV-procd|sdf|6433|dock2
  -GOLD-   22720 7 73D 1   1.00000     0.00000
 Structure written by MMmdl.
 41 42  0  0  0  0  0  0  0  0  1 V2000
  149.5499  141.8912  158.2780 C   0  0  0  0  0  0  0  0  0  0  0  0
  150.9050  142.4231  157.7422 C   0  0  2  0  0  0  0  0  0  0  0  0
  151.5578  141.3290  156.8535 C   0  0  0  0  0  0  0  0  0  0  0  0
  150.5761  140.6234  156.0389 N   0  0  0  0  0  0  0  0  0  0  0  0
  150.8635  139.8750  154.9633 C   0  0  0  0  0  0  0  0  0  0  0  0
  152.0065  139.7503  154.5218 O   0  0  0  0  0  0  0  0  0  0  0  0
  149.6724  139.1709  154.2888 C   0  0  1  0  0  0  0  0  0  0  0  0
  149.2622  137.8624  154.9955 C   0  0  0  0  0  0  0  0  0  0  0  0
  148.5446  140.0867  154.1467 N   0  0  0  0  0  0  0  0  0  0  0  0
  147.3411  139.8592  153.5097 C   0  0  0  0  0  0  0  0  0  0  0  0
  146.6085  141.0083  153.5927 C   0  0  0  0  0  0  0  0  0  0  0  0
  147.4599  141.9012  154.3008 C   0  0  0  0  0  0  0  0  0  0  0  0
  148.6181  141.3507  154.6252 N   0  0  0  0  0  0  0  0  0  0  0  0
  151.7957  142.9098  158.8216 N   0  0  0  0  0  0  0  0  0  0  0  0
  151.1402  143.8799  159.7067 C   0  0  0  0  0  0  0  0  0  0  0  0
  152.0537  144.3620  160.8471 C   0  0  0  0  0  0  0  0  0  0  0  0
  152.5127  143.2470  161.5983 O   0  0  0  0  0  0  0  0  0  0  0  0
  153.2257  142.3194  160.7922 C   0  0  0  0  0  0  0  0  0  0  0  0
  152.3197  141.8202  159.6535 C   0  0  0  0  0  0  0  0  0  0  0  0
  148.9170  141.4823  157.4909 H   0  0  0  0  0  0  0  0  0  0  0  0
  148.9526  142.6760  158.7402 H   0  0  0  0  0  0  0  0  0  0  0  0
  149.7008  141.1025  159.0161 H   0  0  0  0  0  0  0  0  0  0  0  0
  150.6783  143.2677  157.0895 H   0  0  0  0  0  0  0  0  0  0  0  0
  152.2731  141.7523  156.1501 H   0  0  0  0  0  0  0  0  0  0  0  0
  152.1027  140.6210  157.4809 H   0  0  0  0  0  0  0  0  0  0  0  0
  149.6125  140.6794  156.3352 H   0  0  0  0  0  0  0  0  0  0  0  0
  149.9978  138.9050  153.2818 H   0  0  0  0  0  0  0  0  0  0  0  0
  150.0898  137.1531  155.0250 H   0  0  0  0  0  0  0  0  0  0  0  0
  148.4393  137.3791  154.4684 H   0  0  0  0  0  0  0  0  0  0  0  0
  148.9393  138.0375  156.0224 H   0  0  0  0  0  0  0  0  0  0  0  0
  147.1092  138.9080  153.0537 H   0  0  0  0  0  0  0  0  0  0  0  0
  145.6167  141.1855  153.2039 H   0  0  0  0  0  0  0  0  0  0  0  0
  147.2738  142.9266  154.5843 H   0  0  0  0  0  0  0  0  0  0  0  0
  150.8374  144.7654  159.1518 H   0  0  0  0  0  0  0  0  0  0  0  0
  150.2342  143.4426  160.1290 H   0  0  0  0  0  0  0  0  0  0  0  0
  152.9039  144.9203  160.4518 H   0  0  0  0  0  0  0  0  0  0  0  0
  151.5088  145.0356  161.5087 H   0  0  0  0  0  0  0  0  0  0  0  0
  154.1265  142.7880  160.3926 H   0  0  0  0  0  0  0  0  0  0  0  0
  153.5485  141.4837  161.4132 H   0  0  0  0  0  0  0  0  0  0  0  0
  151.4929  141.2457  160.0744 H   0  0  0  0  0  0  0  0  0  0  0  0
  152.9122  141.1308  159.0548 H   0  0  0  0  0  0  0  0  0  0  0  0
  1  2  1  0  0  0  0
  1 20  1  0  0  0  0
  1 21  1  0  0  0  0
  1 22  1  0  0  0  0
  2  3  1  0  0  0  0
  2 14  1  0  0  0  0
  2 23  1  0  0  0  0
  3  4  1  0  0  0  0
  3 24  1  0  0  0  0
  3 25  1  0  0  0  0
  4  5  1  0  0  0  0
  4 26  1  0  0  0  0
  5  6  2  0  0  0  0
  5  7  1  0  0  0  0
  7  8  1  0  0  0  0
  7  9  1  0  0  0  0
  7 27  1  0  0  0  0
  8 28  1  0  0  0  0
  8 29  1  0  0  0  0
  8 30  1  0  0  0  0
  9 13  1  0  0  0  0
  9 10  1  0  0  0  0
 10 11  2  0  0  0  0
 10 31  1  0  0  0  0
 11 12  1  0  0  0  0
 11 32  1  0  0  0  0
 12 13  2  0  0  0  0
 12 33  1  0  0  0  0
 14 19  1  0  0  0  0
 14 15  1  0  0  0  0
 15 16  1  0  0  0  0
 15 34  1  0  0  0  0
 15 35  1  0  0  0  0
 16 17  1  0  0  0  0
 16 36  1  0  0  0  0
 16 37  1  0  0  0  0
 17 18  1  0  0  0  0
 18 19  1  0  0  0  0
 18 38  1  0  0  0  0
 18 39  1  0  0  0  0
 19 40  1  0  0  0  0
 19 41  1  0  0  0  0
M  END
> <s_m_source_file>
AV-unprocessed.smi

> <i_m_source_file_index>
1601

> <i_lp_mmshare_version>
43012

> <i_f3d_flags>
0

> <s_epik_input>
W0NIMl0xW0NIMl1PW0NIMl1bQ0gyXU4xW0NASF0oW0NIM10pW0NIMl1bTkhdQyg9TylbQ0BIXShbQ0gzXSluMltjSF1bY0hdW2NIXW4y

> <s_epik_cmdline>
J2VwaWtfcHl0aG9uJywgJy1waCcsICc3LjAnLCAnLXRuJywgJzgnLCAnLW1hJywgJzIwMCcsICctbWV0YWxfYmluZGluZycsICctaW1hZScsICc8aW5maWxlLm1hZT4nLCAnLW9tYWUnLCAnPG91dGZpbGUubWFlPic=

> <r_lp_tautomer_probability>
1

> <r_epik_Ionization_Penalty>
0.203323

> <r_epik_Ionization_Penalty_Charging>
0

> <r_epik_Ionization_Penalty_Neutral>
0.203323

> <r_epik_State_Penalty>
0.193192

> <r_epik_Charging_Adjusted_Penalty>
0.193192

> <i_epik_Tot_Q>
0

> <i_epik_Tot_abs_Q>
0

> <r_epik_Metal_State_Penalty>
0.193187

> <b_epik_Metal_Only>
0

> <s_lp_Force_Field>
OPLS_2005

> <r_lp_Energy>
33.4287

> <b_lp_Chiralities_Consistent>
1

> <s_lp_Variant>
AV-unprocessed.smi:1601-3

> <Gold.Version>
5.8.1

> <Gold.Id.Protein>
6NUR|6NUR_protein|mol2

> <Gold.PLP.Fitness>
39.3838

> <Gold.PLP.PLP>
-37.3194

> <Gold.PLP.part.hbond>
-1.0000

> <Gold.PLP.part.metal>
0.0000

> <Gold.PLP.part.buried>
-5.2486

> <Gold.PLP.part.nonpolar>
-30.7636

> <Gold.PLP.part.repulsive>
0.4243

> <Gold.PLP.ligand.clash>
0.0000

> <Gold.PLP.ligand.torsion>
0.8413

> <Gold.PLP.Chemscore.Hbond>
0.1856

> <Gold.PLP.Chemscore.CHOScore>
1.0000

> <Gold.PLP.Chemscore.Metal>
0.0000

> <Gold.Chemscore.Hbonds>
donor molecule, donor type, donor heavy atom, donor atom, acceptor molecule, acceptor atom, score
      P1  H  7989  7998       L1     6  0.35
      L1  C    12    33       P1  8028  0.84

> <Gold.PLP.Chemscore.Internal.Correction>
0.1903

> <Gold.Rescore>
     Score         DG    S(hbond)    S(metal)    S(lipo)     H(rot)  DE(clash)    DE(int)     intcor
      9.92     -12.99       0.70        0.00      83.30       1.79       0.58       2.49       ----

> <Gold.Chemscore.Fitness>
9.9195

> <Gold.Chemscore.DG>
-12.9881

> <Gold.Chemscore.ZeroCoef>
-5.4800

> <Gold.Chemscore.Hbond>
0.6999

> <Gold.Chemscore.Metal>
0.0000

> <Gold.Chemscore.Lipo>
83.2955

> <Gold.Chemscore.Internal_Hbond>
0.0000

> <Gold.Chemscore.DEClash>
0.5769

> <Gold.Chemscore.DEInternal>
2.4917

> <Gold.Chemscore.Rot>
1.7872

> <Gold.Chemscore.Internal.Correction>
   9.000000E+99

> <Gold.Chemscore.Hbonds>
donor molecule, donor type, donor heavy atom, donor atom, acceptor molecule, acceptor atom, score
      P1  H  7989  7998       L1     6  0.01

> <Gold.Chemscore.Hbond.Weighted>
-2.3377

> <Gold.Chemscore.Metal.Weighted>
-0.0000

> <Gold.Chemscore.Lipo.Weighted>
-9.7456

> <Gold.Chemscore.Internal_Hbond.Weighted>
0.0000

> <Gold.Chemscore.DEClash.Weighted>
0.5769

> <Gold.Chemscore.DEInternal.Weighted>
2.4917

> <Gold.Chemscore.Rot.Weighted>
4.5752

> <Gold.Chemscore.Internal.Correction.Weighted>
   9.000000E+99

> <Gold.Protein.RotatedTorsions>
[ 6907 6896 6895 6894 ] final   24.55 input  -60.11 | X-H torsion
[ 7974 7965 7964 7962 ] final   87.49 input  175.53 | X-H torsion
[ 8008 7997 7996 7995 ] final   33.03 input   59.86 | X-H torsion
[ 10167 10162 10161 10158 ] final  146.69 input  -65.29 | X-H torsion
[ 10718 10713 10712 10709 ] final -104.78 input   66.30 | X-H torsion
[ 10763 10752 10751 10750 ] final  -55.46 input  -60.55 | X-H torsion
[ 11005 11000 10999 10996 ] final   78.70 input  -57.11 | X-H torsion

> <Gold.Protein.ActiveResidues>
 VAL166  LYS551  ARG553  GLY616  TRP617  ASP618  TYR619  PRO620  LYS621  CYS622 
 ASP623  PHE694  ASN695  SER759  ASP760  ASP761  ALA762  ILE779  LEU786  VAL792 
 PHE793  MET794  SER795  GLU796  ALA797  LYS798  CYS799  TRP800  GLU811  SER814 

> <Gold.Protein.RotatedAtoms>
  151.9592  135.0132  160.0546 H   0  0  0  0  0  0  0  0  0  0  0  0  # atno 6907 bound_to 6896
  152.1884  133.4751  159.5003 H   0  0  0  0  0  0  0  0  0  0  0  0  # atno 6908 bound_to 6896
  150.6930  134.1661  159.4237 H   0  0  0  0  0  0  0  0  0  0  0  0  # atno 6909 bound_to 6896
  145.5582  139.2301  143.2474 H   0  0  0  0  0  0  0  0  0  0  0  0  # atno 7974 bound_to 7965
  155.1321  140.3258  155.4472 H   0  0  0  0  0  0  0  0  0  0  0  0  # atno 8008 bound_to 7997
  156.2631  140.2008  156.6388 H   0  0  0  0  0  0  0  0  0  0  0  0  # atno 8009 bound_to 7997
  154.6605  140.0548  157.0043 H   0  0  0  0  0  0  0  0  0  0  0  0  # atno 8010 bound_to 7997
  139.4903  144.5811  151.6870 H   0  0  0  0  0  0  0  0  0  0  0  0  # atno 10167 bound_to 10162
  156.0318  130.5531  150.7445 H   0  0  0  0  0  0  0  0  0  0  0  0  # atno 10718 bound_to 10713
  154.1911  135.6427  153.5060 H   0  0  0  0  0  0  0  0  0  0  0  0  # atno 10763 bound_to 10752
  153.0035  135.5429  154.6414 H   0  0  0  0  0  0  0  0  0  0  0  0  # atno 10764 bound_to 10752
  154.5803  135.2924  155.0712 H   0  0  0  0  0  0  0  0  0  0  0  0  # atno 10765 bound_to 10752
  139.9202  134.7784  156.1684 H   0  0  0  0  0  0  0  0  0  0  0  0  # atno 11005 bound_to 11000
  146.1869  140.6407  142.9163 LP  0  0  0  0  0  0  0  0  0  0  0  0  # atno 17320 bound_to 7965
  144.7496  140.5156  143.6811 LP  0  0  0  0  0  0  0  0  0  0  0  0  # atno 17321 bound_to 7965
  140.5417  144.0568  150.6091 LP  0  0  0  0  0  0  0  0  0  0  0  0  # atno 17342 bound_to 10162
  140.3593  143.2917  152.0402 LP  0  0  0  0  0  0  0  0  0  0  0  0  # atno 17343 bound_to 10162
  157.5005  131.0918  151.0320 LP  0  0  0  0  0  0  0  0  0  0  0  0  # atno 17370 bound_to 10713
  157.0702  130.5861  149.5401 LP  0  0  0  0  0  0  0  0  0  0  0  0  # atno 17371 bound_to 10713
  141.0715  133.6794  156.2151 LP  0  0  0  0  0  0  0  0  0  0  0  0  # atno 17394 bound_to 11000
  140.6498  134.5079  157.5576 LP  0  0  0  0  0  0  0  0  0  0  0  0  # atno 17395 bound_to 11000

$$$$
