AV-unprocessed.smi:928|AV-procd|sdf|4193|dock9
  -GOLD-   22720 2103D 1   1.00000     0.00000
 Structure written by MMmdl.
 43 44  0  0  0  0  0  0  0  0  1 V2000
  150.2748  142.2290  157.8169 C   0  0  0  0  0  0  0  0  0  0  0  0
  150.1891  140.8281  157.2015 C   0  0  0  0  0  0  0  0  0  0  0  0
  149.4712  140.8052  155.8925 C   0  0  0  0  0  0  0  0  0  0  0  0
  149.5499  141.7270  154.8780 C   0  0  0  0  0  0  0  0  0  0  0  0
  148.7605  141.4152  153.7688 N   0  0  0  0  0  0  0  0  0  0  0  0
  148.0743  140.2823  153.9339 C   0  0  0  0  0  0  0  0  0  0  0  0
  147.1859  139.6980  152.8882 C   0  0  0  0  0  0  0  0  0  0  0  0
  146.3854  138.4949  153.4116 C   0  0  0  0  0  0  0  0  0  0  0  0
  146.6316  137.2965  152.6187 N   0  0  0  0  0  0  0  0  0  0  0  0
  145.6834  136.4546  152.1858 C   0  0  0  0  0  0  0  0  0  0  0  0
  144.4813  136.5925  152.4137 O   0  0  0  0  0  0  0  0  0  0  0  0
  146.2041  135.4438  151.4770 N   0  0  0  0  0  0  0  0  0  0  0  0
  145.4401  134.3566  150.8684 C   0  0  2  0  0  0  0  0  0  0  0  0
  144.3016  133.8737  151.7916 C   0  0  0  0  0  0  0  0  0  0  0  0
  143.5070  132.7318  151.1376 C   0  0  0  0  0  0  0  0  0  0  0  0
  144.4250  131.5664  150.7344 C   0  0  0  0  0  0  0  0  0  0  0  0
  145.5738  132.0406  149.8249 C   0  0  0  0  0  0  0  0  0  0  0  0
  146.3746  133.1964  150.4559 C   0  0  2  0  0  0  0  0  0  0  0  0
  147.0938  132.7009  151.5707 O   0  0  0  0  0  0  0  0  0  0  0  0
  148.3851  139.5029  155.4803 S   0  0  0  0  0  0  0  0  0  0  0  0
  150.7991  142.2023  158.7723 H   0  0  0  0  0  0  0  0  0  0  0  0
  149.2810  142.6414  157.9938 H   0  0  0  0  0  0  0  0  0  0  0  0
  150.8112  142.9162  157.1619 H   0  0  0  0  0  0  0  0  0  0  0  0
  151.1956  140.4304  157.0675 H   0  0  0  0  0  0  0  0  0  0  0  0
  149.6909  140.1570  157.9017 H   0  0  0  0  0  0  0  0  0  0  0  0
  150.1453  142.6279  154.8586 H   0  0  0  0  0  0  0  0  0  0  0  0
  146.5089  140.4763  152.5337 H   0  0  0  0  0  0  0  0  0  0  0  0
  147.7989  139.4052  152.0346 H   0  0  0  0  0  0  0  0  0  0  0  0
  146.6220  138.3053  154.4601 H   0  0  0  0  0  0  0  0  0  0  0  0
  145.3180  138.7130  153.3690 H   0  0  0  0  0  0  0  0  0  0  0  0
  147.5920  137.0970  152.3802 H   0  0  0  0  0  0  0  0  0  0  0  0
  147.2048  135.4212  151.3492 H   0  0  0  0  0  0  0  0  0  0  0  0
  144.9860  134.7401  149.9522 H   0  0  0  0  0  0  0  0  0  0  0  0
  144.7090  133.5376  152.7460 H   0  0  0  0  0  0  0  0  0  0  0  0
  143.6258  134.6989  152.0196 H   0  0  0  0  0  0  0  0  0  0  0  0
  142.7354  132.3774  151.8217 H   0  0  0  0  0  0  0  0  0  0  0  0
  142.9884  133.1084  150.2552 H   0  0  0  0  0  0  0  0  0  0  0  0
  144.8338  131.0975  151.6301 H   0  0  0  0  0  0  0  0  0  0  0  0
  143.8442  130.7971  150.2249 H   0  0  0  0  0  0  0  0  0  0  0  0
  146.2348  131.2053  149.5902 H   0  0  0  0  0  0  0  0  0  0  0  0
  145.1574  132.3739  148.8735 H   0  0  0  0  0  0  0  0  0  0  0  0
  147.1054  133.5589  149.7318 H   0  0  0  0  0  0  0  0  0  0  0  0
  147.8188  132.1846  151.2550 H   0  0  0  0  0  0  0  0  0  0  0  0
  1  2  1  0  0  0  0
  1 21  1  0  0  0  0
  1 22  1  0  0  0  0
  1 23  1  0  0  0  0
  2  3  1  0  0  0  0
  2 24  1  0  0  0  0
  2 25  1  0  0  0  0
  3 20  1  0  0  0  0
  3  4  2  0  0  0  0
  4  5  1  0  0  0  0
  4 26  1  0  0  0  0
  5  6  2  0  0  0  0
  6  7  1  0  0  0  0
  6 20  1  0  0  0  0
  7  8  1  0  0  0  0
  7 27  1  0  0  0  0
  7 28  1  0  0  0  0
  8  9  1  0  0  0  0
  8 29  1  0  0  0  0
  8 30  1  0  0  0  0
  9 10  1  0  0  0  0
  9 31  1  0  0  0  0
 10 11  2  0  0  0  0
 10 12  1  0  0  0  0
 12 13  1  0  0  0  0
 12 32  1  0  0  0  0
 13 18  1  0  0  0  0
 13 14  1  0  0  0  0
 13 33  1  0  0  0  0
 14 15  1  0  0  0  0
 14 34  1  0  0  0  0
 14 35  1  0  0  0  0
 15 16  1  0  0  0  0
 15 36  1  0  0  0  0
 15 37  1  0  0  0  0
 16 17  1  0  0  0  0
 16 38  1  0  0  0  0
 16 39  1  0  0  0  0
 17 18  1  0  0  0  0
 17 40  1  0  0  0  0
 17 41  1  0  0  0  0
 18 19  1  0  0  0  0
 18 42  1  0  0  0  0
 19 43  1  0  0  0  0
M  END
> <s_m_source_file>
AV-unprocessed.smi

> <i_m_source_file_index>
928

> <i_lp_mmshare_version>
43012

> <i_f3d_flags>
0

> <s_epik_input>
W0NIM11bQ0gyXWMxW2NIXW5jKHMxKVtDSDJdW0NIMl1bTkhdQyg9TylbTkhdW0NAQEhdMltDSDJdW0NIMl1bQ0gyXVtDSDJdW0NASF0yW09IXQ==

> <s_epik_cmdline>
J2VwaWtfcHl0aG9uJywgJy1waCcsICc3LjAnLCAnLXRuJywgJzgnLCAnLW1hJywgJzIwMCcsICctbWV0YWxfYmluZGluZycsICctaW1hZScsICc8aW5maWxlLm1hZT4nLCAnLW9tYWUnLCAnPG91dGZpbGUubWFlPic=

> <r_epik_Ionization_Penalty>
0.000957396

> <r_epik_Ionization_Penalty_Charging>
0

> <r_epik_Ionization_Penalty_Neutral>
0.000957396

> <r_epik_State_Penalty>
0.000586538

> <r_epik_Charging_Adjusted_Penalty>
0.000586538

> <i_epik_Tot_Q>
0

> <i_epik_Tot_abs_Q>
0

> <r_epik_Metal_State_Penalty>
-0

> <b_epik_Metal_Only>
0

> <s_lp_Force_Field>
OPLS_2005

> <r_lp_Energy>
-0.721606

> <b_lp_Chiralities_Consistent>
1

> <s_lp_Variant>
AV-unprocessed.smi:928-3

> <Gold.Version>
5.8.1

> <Gold.Id.Protein>
6NUR|6NUR_protein|mol2

> <Gold.PLP.Fitness>
47.0425

> <Gold.PLP.PLP>
-36.0172

> <Gold.PLP.part.hbond>
-4.0000

> <Gold.PLP.part.metal>
0.0000

> <Gold.PLP.part.buried>
-3.9296

> <Gold.PLP.part.nonpolar>
-28.4275

> <Gold.PLP.part.repulsive>
0.6636

> <Gold.PLP.ligand.clash>
0.0000

> <Gold.PLP.ligand.torsion>
1.0657

> <Gold.PLP.Chemscore.Hbond>
3.6725

> <Gold.PLP.Chemscore.CHOScore>
0.7045

> <Gold.PLP.Chemscore.Metal>
0.0000

> <Gold.Chemscore.Hbonds>
donor molecule, donor type, donor heavy atom, donor atom, acceptor molecule, acceptor atom, score
      L1  H     9    31       P1  7948  1.00
      L1  H    12    32       P1  7948  0.96
      L1  H    19    43       P1 10747  1.00
      P1  H  8011  8017       L1     5  0.77
      L1  C     4    26       P1  8028  0.64

> <Gold.PLP.Chemscore.Internal.Correction>
0.0258

> <Gold.Rescore>
     Score         DG    S(hbond)    S(metal)    S(lipo)     H(rot)  DE(clash)    DE(int)     intcor
     18.09     -20.92       3.00        0.00      94.49       2.21       0.44       2.39       ----

> <Gold.Chemscore.Fitness>
18.0890

> <Gold.Chemscore.DG>
-20.9174

> <Gold.Chemscore.ZeroCoef>
-5.4800

> <Gold.Chemscore.Hbond>
3.0047

> <Gold.Chemscore.Metal>
0.0000

> <Gold.Chemscore.Lipo>
94.4897

> <Gold.Chemscore.Internal_Hbond>
0.0000

> <Gold.Chemscore.DEClash>
0.4419

> <Gold.Chemscore.DEInternal>
2.3865

> <Gold.Chemscore.Rot>
2.2084

> <Gold.Chemscore.Internal.Correction>
   9.000000E+99

> <Gold.Chemscore.Hbonds>
donor molecule, donor type, donor heavy atom, donor atom, acceptor molecule, acceptor atom, score
      L1  H     9    31       P1  7948  1.00
      L1  H    12    32       P1  7948  0.83
      L1  H    19    43       P1 10747  0.95
      P1  H  8011  8017       L1     5  0.18

> <Gold.Chemscore.Hbond.Weighted>
-10.0357

> <Gold.Chemscore.Metal.Weighted>
-0.0000

> <Gold.Chemscore.Lipo.Weighted>
-11.0553

> <Gold.Chemscore.Internal_Hbond.Weighted>
0.0000

> <Gold.Chemscore.DEClash.Weighted>
0.4419

> <Gold.Chemscore.DEInternal.Weighted>
2.3865

> <Gold.Chemscore.Rot.Weighted>
5.6535

> <Gold.Chemscore.Internal.Correction.Weighted>
   9.000000E+99

> <Gold.Protein.RotatedTorsions>
[ 6907 6896 6895 6894 ] final -171.14 input  -60.11 | X-H torsion
[ 7974 7965 7964 7962 ] final  119.77 input  175.53 | X-H torsion
[ 8008 7997 7996 7995 ] final  112.26 input   59.86 | X-H torsion
[ 10167 10162 10161 10158 ] final  156.99 input  -65.29 | X-H torsion
[ 10718 10713 10712 10709 ] final  -75.64 input   66.30 | X-H torsion
[ 10763 10752 10751 10750 ] final  127.87 input  -60.55 | X-H torsion
[ 11005 11000 10999 10996 ] final  147.70 input  -57.11 | X-H torsion

> <Gold.Protein.ActiveResidues>
 VAL166  LYS551  ARG553  GLY616  TRP617  ASP618  TYR619  PRO620  LYS621  CYS622 
 ASP623  PHE694  ASN695  SER759  ASP760  ASP761  ALA762  ILE779  LEU786  VAL792 
 PHE793  MET794  SER795  GLU796  ALA797  LYS798  CYS799  TRP800  GLU811  SER814 

> <Gold.Protein.RotatedAtoms>
  151.5191  133.3470  159.2897 H   0  0  0  0  0  0  0  0  0  0  0  0  # atno 6907 bound_to 6896
  150.8664  134.8030  159.7132 H   0  0  0  0  0  0  0  0  0  0  0  0  # atno 6908 bound_to 6896
  152.4667  134.5068  159.9793 H   0  0  0  0  0  0  0  0  0  0  0  0  # atno 6909 bound_to 6896
  145.1391  139.3279  143.4625 H   0  0  0  0  0  0  0  0  0  0  0  0  # atno 7974 bound_to 7965
  156.2180  140.3003  155.9886 H   0  0  0  0  0  0  0  0  0  0  0  0  # atno 8008 bound_to 7997
  155.2554  140.0427  157.3008 H   0  0  0  0  0  0  0  0  0  0  0  0  # atno 8009 bound_to 7997
  154.5797  140.2372  155.8079 H   0  0  0  0  0  0  0  0  0  0  0  0  # atno 8010 bound_to 7997
  139.4822  144.4958  151.8241 H   0  0  0  0  0  0  0  0  0  0  0  0  # atno 10167 bound_to 10162
  156.0201  130.4446  150.3074 H   0  0  0  0  0  0  0  0  0  0  0  0  # atno 10718 bound_to 10713
  153.7164  135.3260  155.3257 H   0  0  0  0  0  0  0  0  0  0  0  0  # atno 10763 bound_to 10752
  154.8369  135.4489  154.1261 H   0  0  0  0  0  0  0  0  0  0  0  0  # atno 10764 bound_to 10752
  153.2369  135.6966  153.7906 H   0  0  0  0  0  0  0  0  0  0  0  0  # atno 10765 bound_to 10752
  140.0898  134.9048  157.1632 H   0  0  0  0  0  0  0  0  0  0  0  0  # atno 11005 bound_to 11000
  146.3507  140.1421  142.8594 LP  0  0  0  0  0  0  0  0  0  0  0  0  # atno 17320 bound_to 7965
  145.0552  140.9047  143.4972 LP  0  0  0  0  0  0  0  0  0  0  0  0  # atno 17321 bound_to 7965
  140.4447  144.1938  150.5893 LP  0  0  0  0  0  0  0  0  0  0  0  0  # atno 17342 bound_to 10162
  140.4647  143.2435  151.9171 LP  0  0  0  0  0  0  0  0  0  0  0  0  # atno 17343 bound_to 10162
  157.1176  131.0238  151.3022 LP  0  0  0  0  0  0  0  0  0  0  0  0  # atno 17370 bound_to 10713
  157.4654  130.7677  149.7274 LP  0  0  0  0  0  0  0  0  0  0  0  0  # atno 17371 bound_to 10713
  140.3369  134.2747  155.7218 LP  0  0  0  0  0  0  0  0  0  0  0  0  # atno 17394 bound_to 11000
  141.2074  133.7806  157.0121 LP  0  0  0  0  0  0  0  0  0  0  0  0  # atno 17395 bound_to 11000

$$$$
