AV-unprocessed.smi:3312|AV-procd|sdf|12727|dock5
  -GOLD-   2272019 73D 1   1.00000     0.00000
 Structure written by MMmdl.
 39 40  0  0  0  0  0  0  0  0  2 V2000
  144.5020  132.0928  150.5057 C   0  0  0  0  0  0  0  0  0  0  0  0
  145.5557  132.4060  151.5286 C   0  0  0  0  0  0  0  0  0  0  0  0
  145.3679  132.7864  152.8876 C   0  0  0  0  0  0  0  0  0  0  0  0
  146.5082  132.9958  153.5242 N   0  0  0  0  0  0  0  0  0  0  0  0
  147.4617  132.7484  152.6014 N   0  0  0  0  0  0  0  0  0  0  0  0
  148.8634  132.8838  152.9571 C   0  0  0  0  0  0  0  0  0  0  0  0
  149.0558  133.5844  154.3117 C   0  0  0  0  0  0  0  0  0  0  0  0
  148.5676  134.9797  154.2691 N   0  3  0  0  0  0  0  0  0  0  0  0
  149.0621  135.8411  155.3650 C   0  0  0  0  0  0  0  0  0  0  0  0
  150.5396  136.2377  155.1972 C   0  0  0  0  0  0  0  0  0  0  0  0
  151.4109  135.4209  155.5016 O   0  0  0  0  0  0  0  0  0  0  0  0
  150.8403  137.4665  154.7148 N   0  0  0  0  0  0  0  0  0  0  0  0
  149.8784  138.5080  154.3410 C   0  0  0  0  0  0  0  0  0  0  0  0
  150.0683  139.7024  155.2927 C   0  0  0  0  0  0  0  0  0  0  0  0
  151.4122  140.1708  155.2076 O   0  0  0  0  0  0  0  0  0  0  0  0
  152.3771  139.1720  155.5310 C   0  0  0  0  0  0  0  0  0  0  0  0
  152.2127  137.9655  154.5889 C   0  0  0  0  0  0  0  0  0  0  0  0
  146.9143  132.3988  151.3851 C   0  0  0  0  0  0  0  0  0  0  0  0
  143.5287  132.4917  150.7927 H   0  0  0  0  0  0  0  0  0  0  0  0
  144.3811  131.0180  150.3687 H   0  0  0  0  0  0  0  0  0  0  0  0
  144.7465  132.5162  149.5313 H   0  0  0  0  0  0  0  0  0  0  0  0
  144.4412  132.9176  153.4267 H   0  0  0  0  0  0  0  0  0  0  0  0
  149.3222  131.8941  152.9702 H   0  0  0  0  0  0  0  0  0  0  0  0
  149.3608  133.4505  152.1689 H   0  0  0  0  0  0  0  0  0  0  0  0
  148.5134  133.0462  155.0895 H   0  0  0  0  0  0  0  0  0  0  0  0
  150.1092  133.5630  154.5938 H   0  0  0  0  0  0  0  0  0  0  0  0
  148.8557  135.3970  153.3950 H   0  0  0  0  0  0  0  0  0  0  0  0
  148.4642  136.7531  155.3666 H   0  0  0  0  0  0  0  0  0  0  0  0
  148.8991  135.3390  156.3196 H   0  0  0  0  0  0  0  0  0  0  0  0
  150.0694  138.8185  153.3126 H   0  0  0  0  0  0  0  0  0  0  0  0
  148.8405  138.1801  154.3605 H   0  0  0  0  0  0  0  0  0  0  0  0
  149.3937  140.5141  155.0199 H   0  0  0  0  0  0  0  0  0  0  0  0
  149.8342  139.4221  156.3211 H   0  0  0  0  0  0  0  0  0  0  0  0
  153.3750  139.5983  155.4278 H   0  0  0  0  0  0  0  0  0  0  0  0
  152.2644  138.8694  156.5734 H   0  0  0  0  0  0  0  0  0  0  0  0
  152.9650  137.2116  154.8244 H   0  0  0  0  0  0  0  0  0  0  0  0
  152.3974  138.2647  153.5563 H   0  0  0  0  0  0  0  0  0  0  0  0
  147.5293  132.1725  150.5262 H   0  0  0  0  0  0  0  0  0  0  0  0
  147.5587  134.9582  154.3018 H   0  0  0  0  0  0  0  0  0  0  0  0
  1  2  1  0  0  0  0
  1 19  1  0  0  0  0
  1 20  1  0  0  0  0
  1 21  1  0  0  0  0
  2 18  2  0  0  0  0
  2  3  1  0  0  0  0
  3  4  2  0  0  0  0
  3 22  1  0  0  0  0
  4  5  1  0  0  0  0
  5  6  1  0  0  0  0
  5 18  1  0  0  0  0
  6  7  1  0  0  0  0
  6 23  1  0  0  0  0
  6 24  1  0  0  0  0
  7  8  1  0  0  0  0
  7 25  1  0  0  0  0
  7 26  1  0  0  0  0
  8  9  1  0  0  0  0
  8 27  1  0  0  0  0
  8 39  1  0  0  0  0
  9 10  1  0  0  0  0
  9 28  1  0  0  0  0
  9 29  1  0  0  0  0
 10 11  2  0  0  0  0
 10 12  1  0  0  0  0
 12 17  1  0  0  0  0
 12 13  1  0  0  0  0
 13 14  1  0  0  0  0
 13 30  1  0  0  0  0
 13 31  1  0  0  0  0
 14 15  1  0  0  0  0
 14 32  1  0  0  0  0
 14 33  1  0  0  0  0
 15 16  1  0  0  0  0
 16 17  1  0  0  0  0
 16 34  1  0  0  0  0
 16 35  1  0  0  0  0
 17 36  1  0  0  0  0
 17 37  1  0  0  0  0
 18 38  1  0  0  0  0
M  CHG  1   8   1
M  END
> <s_m_source_file>
AV-unprocessed.smi

> <i_m_source_file_index>
3312

> <i_lp_mmshare_version>
43012

> <i_f3d_flags>
0

> <s_epik_input>
W0NIM11jMVtjSF1ubihbY0hdMSlbQ0gyXVtDSDJdW05IXVtDSDJdQyg9TylOMltDSDJdW0NIMl1PW0NIMl1bQ0gyXTI=

> <s_epik_cmdline>
J2VwaWtfcHl0aG9uJywgJy1waCcsICc3LjAnLCAnLXRuJywgJzgnLCAnLW1hJywgJzIwMCcsICctbWV0YWxfYmluZGluZycsICctaW1hZScsICc8aW5maWxlLm1hZT4nLCAnLW9tYWUnLCAnPG91dGZpbGUubWFlPic=

> <r_lp_tautomer_probability>
1

> <r_epik_Ionization_Penalty>
0.325402

> <r_epik_Ionization_Penalty_Charging>
0.325398

> <r_epik_Ionization_Penalty_Neutral>
4.45308e-06

> <r_epik_State_Penalty>
0.321221

> <r_epik_Charging_Adjusted_Penalty>
0.646619

> <i_epik_Tot_Q>
1

> <i_epik_Tot_abs_Q>
1

> <r_epik_Metal_State_Penalty>
0.321643

> <b_epik_Metal_Only>
0

> <s_lp_Force_Field>
OPLS_2005

> <r_lp_Energy>
21.6744

> <b_lp_Chiralities_Consistent>
1

> <s_lp_Variant>
AV-unprocessed.smi:3312-1

> <Gold.Version>
5.8.1

> <Gold.Id.Protein>
6NUR|6NUR_protein|mol2

> <Gold.PLP.Fitness>
52.0400

> <Gold.PLP.PLP>
-35.0846

> <Gold.PLP.part.hbond>
-2.9941

> <Gold.PLP.part.metal>
0.0000

> <Gold.PLP.part.buried>
-2.6817

> <Gold.PLP.part.nonpolar>
-30.0053

> <Gold.PLP.part.repulsive>
0.2375

> <Gold.PLP.ligand.clash>
0.0000

> <Gold.PLP.ligand.torsion>
0.5245

> <Gold.PLP.Chemscore.Hbond>
4.0000

> <Gold.PLP.Chemscore.CHOScore>
1.9905

> <Gold.PLP.Chemscore.Metal>
0.0000

> <Gold.Chemscore.Hbonds>
donor molecule, donor type, donor heavy atom, donor atom, acceptor molecule, acceptor atom, score
      L1  H     8    27       P1  7948  2.00
      P1  H  7989  7998       L1    15  1.00
      P1  H 10752 10764       L1    11  1.00
      L1  C     3    22       P1 10957  1.00
      L1  C    18    38       P1 10747  0.84

> <Gold.PLP.Chemscore.Internal.Correction>
0.0329

> <Gold.Rescore>
     Score         DG    S(hbond)    S(metal)    S(lipo)     H(rot)  DE(clash)    DE(int)     intcor
     17.69     -18.26       2.66        0.00      74.54       1.89       0.07       0.50       ----

> <Gold.Chemscore.Fitness>
17.6896

> <Gold.Chemscore.DG>
-18.2648

> <Gold.Chemscore.ZeroCoef>
-5.4800

> <Gold.Chemscore.Hbond>
2.6632

> <Gold.Chemscore.Metal>
0.0000

> <Gold.Chemscore.Lipo>
74.5412

> <Gold.Chemscore.Internal_Hbond>
0.0000

> <Gold.Chemscore.DEClash>
0.0745

> <Gold.Chemscore.DEInternal>
0.5007

> <Gold.Chemscore.Rot>
1.8874

> <Gold.Chemscore.Internal.Correction>
   9.000000E+99

> <Gold.Chemscore.Hbonds>
donor molecule, donor type, donor heavy atom, donor atom, acceptor molecule, acceptor atom, score
      L1  H     8    27       P1  7948  0.78
      P1  H  7989  7998       L1    15  0.54
      P1  H 10752 10764       L1    11  0.97

> <Gold.Chemscore.Hbond.Weighted>
-8.8952

> <Gold.Chemscore.Metal.Weighted>
-0.0000

> <Gold.Chemscore.Lipo.Weighted>
-8.7213

> <Gold.Chemscore.Internal_Hbond.Weighted>
0.0000

> <Gold.Chemscore.DEClash.Weighted>
0.0745

> <Gold.Chemscore.DEInternal.Weighted>
0.5007

> <Gold.Chemscore.Rot.Weighted>
4.8317

> <Gold.Chemscore.Internal.Correction.Weighted>
   9.000000E+99

> <Gold.Protein.RotatedTorsions>
[ 6907 6896 6895 6894 ] final  138.10 input  -60.11 | X-H torsion
[ 7974 7965 7964 7962 ] final  -33.08 input  175.53 | X-H torsion
[ 8008 7997 7996 7995 ] final  149.09 input   59.86 | X-H torsion
[ 10167 10162 10161 10158 ] final -135.22 input  -65.29 | X-H torsion
[ 10718 10713 10712 10709 ] final   54.67 input   66.30 | X-H torsion
[ 10763 10752 10751 10750 ] final  -47.42 input  -60.55 | X-H torsion
[ 11005 11000 10999 10996 ] final   34.92 input  -57.11 | X-H torsion

> <Gold.Protein.ActiveResidues>
 VAL166  LYS551  ARG553  GLY616  TRP617  ASP618  TYR619  PRO620  LYS621  CYS622 
 ASP623  PHE694  ASN695  SER759  ASP760  ASP761  ALA762  ILE779  LEU786  VAL792 
 PHE793  MET794  SER795  GLU796  ALA797  LYS798  CYS799  TRP800  GLU811  SER814 

> <Gold.Protein.RotatedAtoms>
  152.2705  133.5378  159.5436 H   0  0  0  0  0  0  0  0  0  0  0  0  # atno 6907 bound_to 6896
  150.7157  134.0704  159.3871 H   0  0  0  0  0  0  0  0  0  0  0  0  # atno 6908 bound_to 6896
  151.8619  135.0521  160.0521 H   0  0  0  0  0  0  0  0  0  0  0  0  # atno 6909 bound_to 6896
  146.0939  140.5872  142.8852 H   0  0  0  0  0  0  0  0  0  0  0  0  # atno 7974 bound_to 7965
  156.2768  140.2111  156.5803 H   0  0  0  0  0  0  0  0  0  0  0  0  # atno 8008 bound_to 7997
  154.7064  140.0516  157.0531 H   0  0  0  0  0  0  0  0  0  0  0  0  # atno 8009 bound_to 7997
  155.0664  140.3172  155.4647 H   0  0  0  0  0  0  0  0  0  0  0  0  # atno 8010 bound_to 7997
  139.8801  143.6849  152.2628 H   0  0  0  0  0  0  0  0  0  0  0  0  # atno 10167 bound_to 10162
  157.5277  130.8609  149.8645 H   0  0  0  0  0  0  0  0  0  0  0  0  # atno 10718 bound_to 10713
  154.0611  135.6618  153.4812 H   0  0  0  0  0  0  0  0  0  0  0  0  # atno 10763 bound_to 10752
  153.0426  135.5135  154.7658 H   0  0  0  0  0  0  0  0  0  0  0  0  # atno 10764 bound_to 10752
  154.6695  135.3027  154.9728 H   0  0  0  0  0  0  0  0  0  0  0  0  # atno 10765 bound_to 10752
  140.2480  134.3337  155.7901 H   0  0  0  0  0  0  0  0  0  0  0  0  # atno 11005 bound_to 11000
  144.7381  140.4865  143.6889 LP  0  0  0  0  0  0  0  0  0  0  0  0  # atno 17320 bound_to 7965
  145.5986  139.1501  143.3142 LP  0  0  0  0  0  0  0  0  0  0  0  0  # atno 17321 bound_to 7965
  139.7204  144.7604  151.0965 LP  0  0  0  0  0  0  0  0  0  0  0  0  # atno 17342 bound_to 10162
  140.7746  143.5216  150.9530 LP  0  0  0  0  0  0  0  0  0  0  0  0  # atno 17343 bound_to 10162
  156.0399  130.3741  150.1462 LP  0  0  0  0  0  0  0  0  0  0  0  0  # atno 17370 bound_to 10713
  156.9647  130.9816  151.3471 LP  0  0  0  0  0  0  0  0  0  0  0  0  # atno 17371 bound_to 10713
  141.2204  133.7337  156.8991 LP  0  0  0  0  0  0  0  0  0  0  0  0  # atno 17394 bound_to 11000
  140.1587  134.9180  157.2686 LP  0  0  0  0  0  0  0  0  0  0  0  0  # atno 17395 bound_to 11000

$$$$
