AV-unprocessed.smi:1283|AV-procd|sdf|5361|dock1
  -GOLD-   22720 4503D 1   1.00000     0.00000
 Structure written by MMmdl.
 30 31  0  0  0  0  0  0  0  0  1 V2000
  152.4780  138.7726  153.9493 C   0  0  0  0  0  0  0  0  0  0  0  0
  151.9956  139.4284  155.1640 N   0  0  0  0  0  0  0  0  0  0  0  0
  151.0884  140.4438  154.9461 N   0  0  0  0  0  0  0  0  0  0  0  0
  150.6022  141.0851  155.9522 C   0  0  0  0  0  0  0  0  0  0  0  0
  150.9726  140.7914  157.3290 C   0  0  0  0  0  0  0  0  0  0  0  0
  150.4501  141.4819  158.4157 N   0  0  0  0  0  0  0  0  0  0  0  0
  149.4870  142.5729  158.4267 C   0  0  0  0  0  0  0  0  0  0  0  0
  150.0875  143.8342  159.0603 C   0  0  2  0  0  0  0  0  0  0  0  0
  151.3152  144.3676  158.3239 C   0  0  0  0  0  0  0  0  0  0  0  0
  152.0885  145.1095  159.4040 C   0  0  0  0  0  0  0  0  0  0  0  0
  151.4429  144.6444  160.7124 C   0  0  0  0  0  0  0  0  0  0  0  0
  150.6158  143.5497  160.3458 O   0  0  0  0  0  0  0  0  0  0  0  0
  151.8623  139.7784  157.5129 C   0  0  0  0  0  0  0  0  0  0  0  0
  152.3686  139.3384  159.1103 Cl  0  0  0  0  0  0  0  0  0  0  0  0
  152.4362  139.0232  156.3895 C   0  0  0  0  0  0  0  0  0  0  0  0
  153.2444  138.1040  156.5268 O   0  0  0  0  0  0  0  0  0  0  0  0
  152.2165  137.7135  153.9552 H   0  0  0  0  0  0  0  0  0  0  0  0
  153.5628  138.8571  153.8712 H   0  0  0  0  0  0  0  0  0  0  0  0
  152.0492  139.2124  153.0473 H   0  0  0  0  0  0  0  0  0  0  0  0
  149.8760  141.8837  155.8077 H   0  0  0  0  0  0  0  0  0  0  0  0
  150.9223  141.3402  159.2976 H   0  0  0  0  0  0  0  0  0  0  0  0
  149.1372  142.8077  157.4221 H   0  0  0  0  0  0  0  0  0  0  0  0
  148.6183  142.2478  158.9997 H   0  0  0  0  0  0  0  0  0  0  0  0
  149.3353  144.6216  159.1425 H   0  0  0  0  0  0  0  0  0  0  0  0
  151.9190  143.5401  157.9485 H   0  0  0  0  0  0  0  0  0  0  0  0
  151.0532  145.0022  157.4770 H   0  0  0  0  0  0  0  0  0  0  0  0
  153.1481  144.8545  159.3657 H   0  0  0  0  0  0  0  0  0  0  0  0
  151.9992  146.1906  159.2926 H   0  0  0  0  0  0  0  0  0  0  0  0
  152.1774  144.3497  161.4620 H   0  0  0  0  0  0  0  0  0  0  0  0
  150.8225  145.4353  161.1364 H   0  0  0  0  0  0  0  0  0  0  0  0
  1  2  1  0  0  0  0
  1 17  1  0  0  0  0
  1 18  1  0  0  0  0
  1 19  1  0  0  0  0
  2 15  1  0  0  0  0
  2  3  1  0  0  0  0
  3  4  2  0  0  0  0
  4  5  1  0  0  0  0
  4 20  1  0  0  0  0
  5  6  1  0  0  0  0
  5 13  2  0  0  0  0
  6  7  1  0  0  0  0
  6 21  1  0  0  0  0
  7  8  1  0  0  0  0
  7 22  1  0  0  0  0
  7 23  1  0  0  0  0
  8 12  1  0  0  0  0
  8  9  1  0  0  0  0
  8 24  1  0  0  0  0
  9 10  1  0  0  0  0
  9 25  1  0  0  0  0
  9 26  1  0  0  0  0
 10 11  1  0  0  0  0
 10 27  1  0  0  0  0
 10 28  1  0  0  0  0
 11 12  1  0  0  0  0
 11 29  1  0  0  0  0
 11 30  1  0  0  0  0
 13 14  1  0  0  0  0
 13 15  1  0  0  0  0
 15 16  2  0  0  0  0
M  END
> <s_m_source_file>
AV-unprocessed.smi

> <i_m_source_file_index>
1283

> <i_lp_mmshare_version>
43012

> <i_f3d_flags>
0

> <s_epik_input>
W0NIM11uMW5bY0hdYyhjKENsKWMxPU8pW05IXVtDSDJdW0NAQEhdMltDSDJdW0NIMl1bQ0gyXU8y

> <s_epik_cmdline>
J2VwaWtfcHl0aG9uJywgJy1waCcsICc3LjAnLCAnLXRuJywgJzgnLCAnLW1hJywgJzIwMCcsICctbWV0YWxfYmluZGluZycsICctaW1hZScsICc8aW5maWxlLm1hZT4nLCAnLW9tYWUnLCAnPG91dGZpbGUubWFlPic=

> <r_lp_tautomer_probability>
1

> <r_epik_Ionization_Penalty>
2.40876e-05

> <r_epik_Ionization_Penalty_Charging>
4.17655e-09

> <r_epik_Ionization_Penalty_Neutral>
2.40834e-05

> <r_epik_State_Penalty>
-0

> <r_epik_Charging_Adjusted_Penalty>
4.17655e-09

> <i_epik_Tot_Q>
0

> <i_epik_Tot_abs_Q>
0

> <r_epik_Metal_State_Penalty>
-0

> <b_epik_Metal_Only>
0

> <s_lp_Force_Field>
OPLS_2005

> <r_lp_Energy>
38.2243

> <b_lp_Chiralities_Consistent>
1

> <s_lp_Variant>
AV-unprocessed.smi:1283-1

> <Gold.Version>
5.8.1

> <Gold.Id.Protein>
6NUR|6NUR_protein|mol2

> <Gold.PLP.Fitness>
36.9254

> <Gold.PLP.PLP>
-33.9381

> <Gold.PLP.part.hbond>
-1.8861

> <Gold.PLP.part.metal>
0.0000

> <Gold.PLP.part.buried>
-5.6925

> <Gold.PLP.part.nonpolar>
-26.7695

> <Gold.PLP.part.repulsive>
0.2914

> <Gold.PLP.ligand.clash>
0.0000

> <Gold.PLP.ligand.torsion>
0.0108

> <Gold.PLP.Chemscore.Hbond>
1.0000

> <Gold.PLP.Chemscore.CHOScore>
0.0000

> <Gold.PLP.Chemscore.Metal>
0.0000

> <Gold.Chemscore.Hbonds>
donor molecule, donor type, donor heavy atom, donor atom, acceptor molecule, acceptor atom, score
      P1  H  7989  7998       L1     3  0.85

> <Gold.PLP.Chemscore.Internal.Correction>
0.0088

> <Gold.Rescore>
     Score         DG    S(hbond)    S(metal)    S(lipo)     H(rot)  DE(clash)    DE(int)     intcor
     15.01     -15.03       0.85        0.00      84.10       1.22       0.01       0.01       ----

> <Gold.Chemscore.Fitness>
15.0116

> <Gold.Chemscore.DG>
-15.0267

> <Gold.Chemscore.ZeroCoef>
-5.4800

> <Gold.Chemscore.Hbond>
0.8479

> <Gold.Chemscore.Metal>
0.0000

> <Gold.Chemscore.Lipo>
84.1026

> <Gold.Chemscore.Internal_Hbond>
0.0000

> <Gold.Chemscore.DEClash>
0.0093

> <Gold.Chemscore.DEInternal>
0.0058

> <Gold.Chemscore.Rot>
1.2208

> <Gold.Chemscore.Internal.Correction>
   9.000000E+99

> <Gold.Chemscore.Hbonds>
donor molecule, donor type, donor heavy atom, donor atom, acceptor molecule, acceptor atom, score
      P1  H  7989  7998       L1     3  0.14

> <Gold.Chemscore.Hbond.Weighted>
-2.8320

> <Gold.Chemscore.Metal.Weighted>
-0.0000

> <Gold.Chemscore.Lipo.Weighted>
-9.8400

> <Gold.Chemscore.Internal_Hbond.Weighted>
0.0000

> <Gold.Chemscore.DEClash.Weighted>
0.0093

> <Gold.Chemscore.DEInternal.Weighted>
0.0058

> <Gold.Chemscore.Rot.Weighted>
3.1253

> <Gold.Chemscore.Internal.Correction.Weighted>
   9.000000E+99

> <Gold.Protein.RotatedTorsions>
[ 6907 6896 6895 6894 ] final  125.50 input  -60.11 | X-H torsion
[ 7974 7965 7964 7962 ] final -169.93 input  175.53 | X-H torsion
[ 8008 7997 7996 7995 ] final  -56.03 input   59.86 | X-H torsion
[ 10167 10162 10161 10158 ] final -113.02 input  -65.29 | X-H torsion
[ 10718 10713 10712 10709 ] final  167.09 input   66.30 | X-H torsion
[ 10763 10752 10751 10750 ] final  -83.14 input  -60.55 | X-H torsion
[ 11005 11000 10999 10996 ] final  -36.72 input  -57.11 | X-H torsion

> <Gold.Protein.ActiveResidues>
 VAL166  LYS551  ARG553  GLY616  TRP617  ASP618  TYR619  PRO620  LYS621  CYS622 
 ASP623  PHE694  ASN695  SER759  ASP760  ASP761  ALA762  ILE779  LEU786  VAL792 
 PHE793  MET794  SER795  GLU796  ALA797  LYS798  CYS799  TRP800  GLU811  SER814 

> <Gold.Protein.RotatedAtoms>
  152.3986  133.6784  159.6297 H   0  0  0  0  0  0  0  0  0  0  0  0  # atno 6907 bound_to 6896
  150.7881  133.8830  159.3300 H   0  0  0  0  0  0  0  0  0  0  0  0  # atno 6908 bound_to 6896
  151.6601  135.0992  160.0229 H   0  0  0  0  0  0  0  0  0  0  0  0  # atno 6909 bound_to 6896
  144.7177  140.2147  143.6323 H   0  0  0  0  0  0  0  0  0  0  0  0  # atno 7974 bound_to 7965
  154.4216  140.1139  156.5572 H   0  0  0  0  0  0  0  0  0  0  0  0  # atno 8008 bound_to 7997
  155.6348  140.3496  155.4676 H   0  0  0  0  0  0  0  0  0  0  0  0  # atno 8009 bound_to 7997
  155.9918  140.1181  157.0620 H   0  0  0  0  0  0  0  0  0  0  0  0  # atno 8010 bound_to 7997
  140.1164  143.4482  152.1720 H   0  0  0  0  0  0  0  0  0  0  0  0  # atno 10167 bound_to 10162
  157.0566  131.0328  151.2662 H   0  0  0  0  0  0  0  0  0  0  0  0  # atno 10718 bound_to 10713
  154.5842  135.5566  153.7214 H   0  0  0  0  0  0  0  0  0  0  0  0  # atno 10763 bound_to 10752
  153.0092  135.6327  154.1940 H   0  0  0  0  0  0  0  0  0  0  0  0  # atno 10764 bound_to 10752
  154.1881  135.2884  155.3011 H   0  0  0  0  0  0  0  0  0  0  0  0  # atno 10765 bound_to 10752
  140.9896  133.7012  156.1827 H   0  0  0  0  0  0  0  0  0  0  0  0  # atno 11005 bound_to 11000
  145.8557  139.2198  143.1746 LP  0  0  0  0  0  0  0  0  0  0  0  0  # atno 17320 bound_to 7965
  146.0219  140.8340  142.9919 LP  0  0  0  0  0  0  0  0  0  0  0  0  # atno 17321 bound_to 7965
  139.5592  144.7394  151.4205 LP  0  0  0  0  0  0  0  0  0  0  0  0  # atno 17342 bound_to 10162
  140.6897  143.7891  150.7237 LP  0  0  0  0  0  0  0  0  0  0  0  0  # atno 17343 bound_to 10162
  157.4988  130.7867  149.7583 LP  0  0  0  0  0  0  0  0  0  0  0  0  # atno 17370 bound_to 10713
  155.9991  130.3890  150.2676 LP  0  0  0  0  0  0  0  0  0  0  0  0  # atno 17371 bound_to 10713
  140.7060  134.4512  157.5584 LP  0  0  0  0  0  0  0  0  0  0  0  0  # atno 17394 bound_to 11000
  139.8986  134.8609  156.1994 LP  0  0  0  0  0  0  0  0  0  0  0  0  # atno 17395 bound_to 11000

$$$$
