AV-unprocessed.smi:2177|AV-procd|sdf|8848|dock5
  -GOLD-   2272012 43D 1   1.00000     0.00000
 Structure written by MMmdl.
 42 43  0  0  0  0  0  0  0  0  1 V2000
  151.5025  145.4482  160.0459 C   0  0  0  0  0  0  0  0  0  0  0  0
  152.2281  144.1645  160.3308 C   0  0  0  0  0  0  0  0  0  0  0  0
  152.6926  143.9351  161.5478 N   0  0  0  0  0  0  0  0  0  0  0  0
  153.2920  142.7306  161.4658 N   0  0  0  0  0  0  0  0  0  0  0  0
  153.9270  142.1709  162.6430 C   0  0  0  0  0  0  0  0  0  0  0  0
  153.1995  142.1942  160.1965 C   0  0  0  0  0  0  0  0  0  0  0  0
  153.7944  140.8673  159.8495 C   0  0  0  0  0  0  0  0  0  0  0  0
  152.5184  143.1003  159.4275 C   0  0  0  0  0  0  0  0  0  0  0  0
  152.1668  143.0260  157.9615 C   0  0  0  0  0  0  0  0  0  0  0  0
  151.4300  141.7158  157.6818 C   0  0  0  0  0  0  0  0  0  0  0  0
  150.8533  141.1241  158.5937 O   0  0  0  0  0  0  0  0  0  0  0  0
  151.4446  141.2899  156.4093 N   0  0  0  0  0  0  0  0  0  0  0  0
  150.7020  140.1523  155.8771 C   0  0  2  0  0  0  0  0  0  0  0  0
  151.6801  139.1061  155.3217 C   0  0  0  0  0  0  0  0  0  0  0  0
  149.7120  140.6492  154.8065 C   0  0  2  0  0  0  0  0  0  0  0  0
  148.7823  141.7752  155.2683 C   0  0  0  0  0  0  0  0  0  0  0  0
  147.5564  141.6200  154.3815 C   0  0  0  0  0  0  0  0  0  0  0  0
  147.7348  140.2448  153.7321 C   0  0  0  0  0  0  0  0  0  0  0  0
  148.7914  139.6289  154.4544 O   0  0  0  0  0  0  0  0  0  0  0  0
  152.0397  146.0411  159.3054 H   0  0  0  0  0  0  0  0  0  0  0  0
  151.3912  146.0594  160.9423 H   0  0  0  0  0  0  0  0  0  0  0  0
  150.5046  145.2526  159.6535 H   0  0  0  0  0  0  0  0  0  0  0  0
  153.3689  141.2965  162.9781 H   0  0  0  0  0  0  0  0  0  0  0  0
  153.9563  142.9037  163.4507 H   0  0  0  0  0  0  0  0  0  0  0  0
  154.9479  141.8730  162.4028 H   0  0  0  0  0  0  0  0  0  0  0  0
  153.4871  140.5418  158.8561 H   0  0  0  0  0  0  0  0  0  0  0  0
  153.4827  140.1023  160.5606 H   0  0  0  0  0  0  0  0  0  0  0  0
  154.8833  140.9184  159.8618 H   0  0  0  0  0  0  0  0  0  0  0  0
  151.5374  143.8604  157.6516 H   0  0  0  0  0  0  0  0  0  0  0  0
  153.0598  143.0751  157.3376 H   0  0  0  0  0  0  0  0  0  0  0  0
  151.9561  141.8450  155.7388 H   0  0  0  0  0  0  0  0  0  0  0  0
  150.1230  139.6913  156.6798 H   0  0  0  0  0  0  0  0  0  0  0  0
  151.1473  138.2377  154.9338 H   0  0  0  0  0  0  0  0  0  0  0  0
  152.3603  138.7532  156.0973 H   0  0  0  0  0  0  0  0  0  0  0  0
  152.2827  139.5163  154.5105 H   0  0  0  0  0  0  0  0  0  0  0  0
  150.2492  140.9637  153.9092 H   0  0  0  0  0  0  0  0  0  0  0  0
  148.4982  141.6267  156.3111 H   0  0  0  0  0  0  0  0  0  0  0  0
  149.2412  142.7610  155.1857 H   0  0  0  0  0  0  0  0  0  0  0  0
  146.6428  141.6680  154.9754 H   0  0  0  0  0  0  0  0  0  0  0  0
  147.5061  142.4019  153.6228 H   0  0  0  0  0  0  0  0  0  0  0  0
  146.8272  139.6419  153.7702 H   0  0  0  0  0  0  0  0  0  0  0  0
  148.0298  140.3503  152.6869 H   0  0  0  0  0  0  0  0  0  0  0  0
  1  2  1  0  0  0  0
  1 20  1  0  0  0  0
  1 21  1  0  0  0  0
  1 22  1  0  0  0  0
  2  8  1  0  0  0  0
  2  3  2  0  0  0  0
  3  4  1  0  0  0  0
  4  5  1  0  0  0  0
  4  6  1  0  0  0  0
  5 23  1  0  0  0  0
  5 24  1  0  0  0  0
  5 25  1  0  0  0  0
  6  7  1  0  0  0  0
  6  8  2  0  0  0  0
  7 26  1  0  0  0  0
  7 27  1  0  0  0  0
  7 28  1  0  0  0  0
  8  9  1  0  0  0  0
  9 10  1  0  0  0  0
  9 29  1  0  0  0  0
  9 30  1  0  0  0  0
 10 11  2  0  0  0  0
 10 12  1  0  0  0  0
 12 13  1  0  0  0  0
 12 31  1  0  0  0  0
 13 14  1  0  0  0  0
 13 15  1  0  0  0  0
 13 32  1  0  0  0  0
 14 33  1  0  0  0  0
 14 34  1  0  0  0  0
 14 35  1  0  0  0  0
 15 19  1  0  0  0  0
 15 16  1  0  0  0  0
 15 36  1  0  0  0  0
 16 17  1  0  0  0  0
 16 37  1  0  0  0  0
 16 38  1  0  0  0  0
 17 18  1  0  0  0  0
 17 39  1  0  0  0  0
 17 40  1  0  0  0  0
 18 19  1  0  0  0  0
 18 41  1  0  0  0  0
 18 42  1  0  0  0  0
M  END
> <s_m_source_file>
AV-unprocessed.smi

> <i_m_source_file_index>
2177

> <i_lp_mmshare_version>
43012

> <i_f3d_flags>
0

> <s_epik_input>
W0NIM11jMW5uKFtDSDNdKWMoW0NIM10pYzFbQ0gyXUMoPU8pW05IXVtDQEhdKFtDSDNdKVtDQEBIXTJbQ0gyXVtDSDJdW0NIMl1PMg==

> <s_epik_cmdline>
J2VwaWtfcHl0aG9uJywgJy1waCcsICc3LjAnLCAnLXRuJywgJzgnLCAnLW1hJywgJzIwMCcsICctbWV0YWxfYmluZGluZycsICctaW1hZScsICc8aW5maWxlLm1hZT4nLCAnLW9tYWUnLCAnPG91dGZpbGUubWFlPic=

> <r_lp_tautomer_probability>
1

> <r_epik_Ionization_Penalty>
0.00310467

> <r_epik_Ionization_Penalty_Charging>
0

> <r_epik_Ionization_Penalty_Neutral>
0.00310467

> <r_epik_State_Penalty>
0.00218493

> <r_epik_Charging_Adjusted_Penalty>
0.00218493

> <i_epik_Tot_Q>
0

> <i_epik_Tot_abs_Q>
0

> <r_epik_Metal_State_Penalty>
-0

> <b_epik_Metal_Only>
0

> <s_lp_Force_Field>
OPLS_2005

> <r_lp_Energy>
11.4342

> <b_lp_Chiralities_Consistent>
1

> <s_lp_Variant>
AV-unprocessed.smi:2177-1

> <Gold.Version>
5.8.1

> <Gold.Id.Protein>
6NUR|6NUR_protein|mol2

> <Gold.PLP.Fitness>
45.5670

> <Gold.PLP.PLP>
-46.4087

> <Gold.PLP.part.hbond>
0.0000

> <Gold.PLP.part.metal>
0.0000

> <Gold.PLP.part.buried>
-1.8319

> <Gold.PLP.part.nonpolar>
-44.5097

> <Gold.PLP.part.repulsive>
0.4272

> <Gold.PLP.ligand.clash>
0.0000

> <Gold.PLP.ligand.torsion>
0.4351

> <Gold.PLP.Chemscore.Hbond>
0.0000

> <Gold.PLP.Chemscore.CHOScore>
0.0000

> <Gold.PLP.Chemscore.Metal>
0.0000

> <Gold.PLP.Chemscore.Internal.Correction>
0.0285

> <Gold.Rescore>
     Score         DG    S(hbond)    S(metal)    S(lipo)     H(rot)  DE(clash)    DE(int)     intcor
     13.94     -15.74       0.00        0.00     119.71       1.46       0.24       1.56       ----

> <Gold.Chemscore.Fitness>
13.9429

> <Gold.Chemscore.DG>
-15.7414

> <Gold.Chemscore.ZeroCoef>
-5.4800

> <Gold.Chemscore.Hbond>
0.0000

> <Gold.Chemscore.Metal>
0.0000

> <Gold.Chemscore.Lipo>
119.7085

> <Gold.Chemscore.Internal_Hbond>
0.0000

> <Gold.Chemscore.DEClash>
0.2413

> <Gold.Chemscore.DEInternal>
1.5572

> <Gold.Chemscore.Rot>
1.4627

> <Gold.Chemscore.Internal.Correction>
   9.000000E+99

> <Gold.Chemscore.Hbond.Weighted>
-0.0000

> <Gold.Chemscore.Metal.Weighted>
-0.0000

> <Gold.Chemscore.Lipo.Weighted>
-14.0059

> <Gold.Chemscore.Internal_Hbond.Weighted>
0.0000

> <Gold.Chemscore.DEClash.Weighted>
0.2413

> <Gold.Chemscore.DEInternal.Weighted>
1.5572

> <Gold.Chemscore.Rot.Weighted>
3.7445

> <Gold.Chemscore.Internal.Correction.Weighted>
   9.000000E+99

> <Gold.Protein.RotatedTorsions>
[ 6907 6896 6895 6894 ] final -116.24 input  -60.11 | X-H torsion
[ 7974 7965 7964 7962 ] final  -20.29 input  175.53 | X-H torsion
[ 8008 7997 7996 7995 ] final   51.30 input   59.86 | X-H torsion
[ 10167 10162 10161 10158 ] final  -17.39 input  -65.29 | X-H torsion
[ 10718 10713 10712 10709 ] final  159.56 input   66.30 | X-H torsion
[ 10763 10752 10751 10750 ] final  -81.55 input  -60.55 | X-H torsion
[ 11005 11000 10999 10996 ] final   83.75 input  -57.11 | X-H torsion

> <Gold.Protein.ActiveResidues>
 VAL166  LYS551  ARG553  GLY616  TRP617  ASP618  TYR619  PRO620  LYS621  CYS622 
 ASP623  PHE694  ASN695  SER759  ASP760  ASP761  ALA762  ILE779  LEU786  VAL792 
 PHE793  MET794  SER795  GLU796  ALA797  LYS798  CYS799  TRP800  GLU811  SER814 

> <Gold.Protein.RotatedAtoms>
  150.8040  133.8545  159.3214 H   0  0  0  0  0  0  0  0  0  0  0  0  # atno 6907 bound_to 6896
  151.6349  135.1017  160.0139 H   0  0  0  0  0  0  0  0  0  0  0  0  # atno 6908 bound_to 6896
  152.4129  133.6953  159.6449 H   0  0  0  0  0  0  0  0  0  0  0  0  # atno 6909 bound_to 6896
  146.1796  140.4182  142.8500 H   0  0  0  0  0  0  0  0  0  0  0  0  # atno 7974 bound_to 7965
  155.4331  140.3451  155.4282 H   0  0  0  0  0  0  0  0  0  0  0  0  # atno 8008 bound_to 7997
  156.1324  140.1518  156.9076 H   0  0  0  0  0  0  0  0  0  0  0  0  # atno 8009 bound_to 7997
  154.4905  140.0842  156.7564 H   0  0  0  0  0  0  0  0  0  0  0  0  # atno 8010 bound_to 7997
  140.7246  143.5020  150.9857 H   0  0  0  0  0  0  0  0  0  0  0  0  # atno 10167 bound_to 10162
  157.1625  131.0590  151.2225 H   0  0  0  0  0  0  0  0  0  0  0  0  # atno 10718 bound_to 10713
  154.5649  135.5622  153.7041 H   0  0  0  0  0  0  0  0  0  0  0  0  # atno 10763 bound_to 10752
  153.0030  135.6283  154.2194 H   0  0  0  0  0  0  0  0  0  0  0  0  # atno 10764 bound_to 10752
  154.2132  135.2873  155.2931 H   0  0  0  0  0  0  0  0  0  0  0  0  # atno 10765 bound_to 10752
  139.9021  134.8167  156.2352 H   0  0  0  0  0  0  0  0  0  0  0  0  # atno 11005 bound_to 11000
  144.8292  140.6679  143.6302 LP  0  0  0  0  0  0  0  0  0  0  0  0  # atno 17320 bound_to 7965
  145.4115  139.1579  143.4123 LP  0  0  0  0  0  0  0  0  0  0  0  0  # atno 17321 bound_to 7965
  139.8730  143.7168  152.3164 LP  0  0  0  0  0  0  0  0  0  0  0  0  # atno 17342 bound_to 10162
  139.7424  144.7556  151.0632 LP  0  0  0  0  0  0  0  0  0  0  0  0  # atno 17343 bound_to 10162
  157.4119  130.7390  149.6846 LP  0  0  0  0  0  0  0  0  0  0  0  0  # atno 17370 bound_to 10713
  155.9751  130.4093  150.3871 LP  0  0  0  0  0  0  0  0  0  0  0  0  # atno 17371 bound_to 10713
  141.0320  133.6983  156.1447 LP  0  0  0  0  0  0  0  0  0  0  0  0  # atno 17394 bound_to 11000
  140.7082  134.4490  157.5583 LP  0  0  0  0  0  0  0  0  0  0  0  0  # atno 17395 bound_to 11000

$$$$
