AV-unprocessed.smi:202|AV-procd|sdf|1581|dock6
  -GOLD-   2262019473D 1   1.00000     0.00000
 Structure written by MMmdl.
 49 52  0  0  0  0  0  0  0  0  1 V2000
  145.8392  130.5174  152.2032 C   0  0  0  0  0  0  0  0  0  0  0  0
  146.2455  131.9704  151.9176 C   0  0  0  0  0  0  0  0  0  0  0  0
  146.1727  132.2116  150.3964 C   0  0  0  0  0  0  0  0  0  0  0  0
  144.8150  132.6900  149.8380 C   0  0  0  0  0  0  0  0  0  0  0  0
  144.7257  134.0068  150.0213 F   0  0  0  0  0  0  0  0  0  0  0  0
  144.7172  132.4443  148.5321 F   0  0  0  0  0  0  0  0  0  0  0  0
  143.7913  132.1183  150.4702 F   0  0  0  0  0  0  0  0  0  0  0  0
  145.5224  133.0219  152.7767 C   0  0  0  0  0  0  0  0  0  0  0  0
  146.6588  132.9804  153.6830 N   0  0  0  0  0  0  0  0  0  0  0  0
  147.0146  134.2470  154.2215 C   0  0  0  0  0  0  0  0  0  0  0  0
  146.0811  135.2116  154.4480 N   0  0  0  0  0  0  0  0  0  0  0  0
  146.4294  136.3956  154.9603 C   0  0  0  0  0  0  0  0  0  0  0  0
  147.6396  136.8237  155.3208 N   0  0  0  0  0  0  0  0  0  0  0  0
  148.5830  135.8638  155.1067 C   0  0  0  0  0  0  0  0  0  0  0  0
  148.3557  134.5665  154.5661 C   0  0  0  0  0  0  0  0  0  0  0  0
  149.5533  133.8671  154.4929 N   0  0  0  0  0  0  0  0  0  0  0  0
  150.4384  134.7024  154.9645 C   0  0  0  0  0  0  0  0  0  0  0  0
  149.9416  135.9227  155.3646 N   0  0  0  0  0  0  0  0  0  0  0  0
  150.7014  137.0320  155.9224 C   0  0  0  0  0  0  0  0  0  0  0  0
  151.4925  137.8543  154.8684 C   0  0  0  0  0  0  0  0  0  0  0  0
  152.3115  136.9507  154.1488 O   0  0  0  0  0  0  0  0  0  0  0  0
  150.5524  138.5290  153.8495 C   0  0  0  0  0  0  0  0  0  0  0  0
  149.8383  139.7497  154.4582 C   0  0  0  0  0  0  0  0  0  0  0  0
  150.7970  140.6737  154.9611 O   0  0  0  0  0  0  0  0  0  0  0  0
  151.6002  140.1319  156.0039 C   0  0  0  0  0  0  0  0  0  0  0  0
  152.4123  138.9369  155.4736 C   0  0  0  0  0  0  0  0  0  0  0  0
  147.5191  132.4577  152.6300 C   0  0  0  0  0  0  0  0  0  0  0  0
  144.9441  130.2267  151.6522 H   0  0  0  0  0  0  0  0  0  0  0  0
  145.6238  130.3644  153.2613 H   0  0  0  0  0  0  0  0  0  0  0  0
  146.6337  129.8173  151.9474 H   0  0  0  0  0  0  0  0  0  0  0  0
  146.9472  132.9181  150.0952 H   0  0  0  0  0  0  0  0  0  0  0  0
  146.4265  131.2839  149.8817 H   0  0  0  0  0  0  0  0  0  0  0  0
  145.3986  133.9848  152.2775 H   0  0  0  0  0  0  0  0  0  0  0  0
  144.5920  132.6762  153.2280 H   0  0  0  0  0  0  0  0  0  0  0  0
  145.6228  137.0995  155.1031 H   0  0  0  0  0  0  0  0  0  0  0  0
  151.4859  134.4479  155.0383 H   0  0  0  0  0  0  0  0  0  0  0  0
  150.0042  137.6801  156.4549 H   0  0  0  0  0  0  0  0  0  0  0  0
  151.3710  136.6307  156.6827 H   0  0  0  0  0  0  0  0  0  0  0  0
  152.0105  136.9204  153.2535 H   0  0  0  0  0  0  0  0  0  0  0  0
  151.1283  138.8678  152.9866 H   0  0  0  0  0  0  0  0  0  0  0  0
  149.8213  137.8155  153.4674 H   0  0  0  0  0  0  0  0  0  0  0  0
  149.2408  140.2488  153.6952 H   0  0  0  0  0  0  0  0  0  0  0  0
  149.1490  139.4554  155.2504 H   0  0  0  0  0  0  0  0  0  0  0  0
  152.2747  140.9087  156.3644 H   0  0  0  0  0  0  0  0  0  0  0  0
  150.9724  139.8452  156.8476 H   0  0  0  0  0  0  0  0  0  0  0  0
  153.0469  138.5286  156.2602 H   0  0  0  0  0  0  0  0  0  0  0  0
  153.0932  139.3065  154.7053 H   0  0  0  0  0  0  0  0  0  0  0  0
  148.1786  131.6568  152.9654 H   0  0  0  0  0  0  0  0  0  0  0  0
  148.0609  133.2174  152.0654 H   0  0  0  0  0  0  0  0  0  0  0  0
  1  2  1  0  0  0  0
  1 28  1  0  0  0  0
  1 29  1  0  0  0  0
  1 30  1  0  0  0  0
  2 27  1  0  0  0  0
  2  3  1  0  0  0  0
  2  8  1  0  0  0  0
  3  4  1  0  0  0  0
  3 31  1  0  0  0  0
  3 32  1  0  0  0  0
  4  5  1  0  0  0  0
  4  6  1  0  0  0  0
  4  7  1  0  0  0  0
  8  9  1  0  0  0  0
  8 33  1  0  0  0  0
  8 34  1  0  0  0  0
  9 10  1  0  0  0  0
  9 27  1  0  0  0  0
 10 15  1  0  0  0  0
 10 11  2  0  0  0  0
 11 12  1  0  0  0  0
 12 13  2  0  0  0  0
 12 35  1  0  0  0  0
 13 14  1  0  0  0  0
 14 18  1  0  0  0  0
 14 15  2  0  0  0  0
 15 16  1  0  0  0  0
 16 17  2  0  0  0  0
 17 18  1  0  0  0  0
 17 36  1  0  0  0  0
 18 19  1  0  0  0  0
 19 20  1  0  0  0  0
 19 37  1  0  0  0  0
 19 38  1  0  0  0  0
 20 26  1  0  0  0  0
 20 21  1  0  0  0  0
 20 22  1  0  0  0  0
 21 39  1  0  0  0  0
 22 23  1  0  0  0  0
 22 40  1  0  0  0  0
 22 41  1  0  0  0  0
 23 24  1  0  0  0  0
 23 42  1  0  0  0  0
 23 43  1  0  0  0  0
 24 25  1  0  0  0  0
 25 26  1  0  0  0  0
 25 44  1  0  0  0  0
 25 45  1  0  0  0  0
 26 46  1  0  0  0  0
 26 47  1  0  0  0  0
 27 48  1  0  0  0  0
 27 49  1  0  0  0  0
M  END
> <s_m_source_file>
AV-unprocessed.smi

> <i_m_source_file_index>
202

> <i_lp_mmshare_version>
43012

> <i_f3d_flags>
0

> <s_epik_input>
RkMoRikoRilbQ0gyXUMxKFtDSDNdKVtDSDJdTihbQ0gyXTEpYyhuW2NIXW4yKWMoYzIzKW5bY0hdbjNbQ0gyXUM0KFtPSF0pW0NIMl1bQ0gyXU9bQ0gyXVtDSDJdNA==

> <s_epik_cmdline>
J2VwaWtfcHl0aG9uJywgJy1waCcsICc3LjAnLCAnLXRuJywgJzgnLCAnLW1hJywgJzIwMCcsICctbWV0YWxfYmluZGluZycsICctaW1hZScsICc8aW5maWxlLm1hZT4nLCAnLW9tYWUnLCAnPG91dGZpbGUubWFlPic=

> <r_lp_tautomer_probability>
1

> <r_epik_Ionization_Penalty>
0.00132063

> <r_epik_Ionization_Penalty_Charging>
0

> <r_epik_Ionization_Penalty_Neutral>
0.00132063

> <r_epik_State_Penalty>
0.000845314

> <r_epik_Charging_Adjusted_Penalty>
0.000845314

> <i_epik_Tot_Q>
0

> <i_epik_Tot_abs_Q>
0

> <r_epik_Metal_State_Penalty>
-0

> <b_epik_Metal_Only>
0

> <s_lp_Force_Field>
OPLS_2005

> <r_lp_Energy>
42.0456

> <b_lp_Chiralities_Consistent>
1

> <s_lp_Variant>
AV-unprocessed.smi:202-1

> <Gold.Version>
5.8.1

> <Gold.Id.Protein>
6NUR|6NUR_protein|mol2

> <Gold.PLP.Fitness>
51.9434

> <Gold.PLP.PLP>
-45.4986

> <Gold.PLP.part.hbond>
-2.8328

> <Gold.PLP.part.metal>
0.0000

> <Gold.PLP.part.buried>
-4.0352

> <Gold.PLP.part.nonpolar>
-38.2586

> <Gold.PLP.part.repulsive>
0.4166

> <Gold.PLP.ligand.clash>
0.0000

> <Gold.PLP.ligand.torsion>
1.7197

> <Gold.PLP.Chemscore.Hbond>
2.9040

> <Gold.PLP.Chemscore.CHOScore>
0.0000

> <Gold.PLP.Chemscore.Metal>
0.0000

> <Gold.Chemscore.Hbonds>
donor molecule, donor type, donor heavy atom, donor atom, acceptor molecule, acceptor atom, score
      L1  H    21    39       P1  7949  0.68
      P1  H  7989  7998       L1    24  0.74
      P1  H 10752 10765       L1    21  0.56

> <Gold.PLP.Chemscore.Internal.Correction>
1.1721

> <Gold.Rescore>
     Score         DG    S(hbond)    S(metal)    S(lipo)     H(rot)  DE(clash)    DE(int)     intcor
     11.95     -16.42       2.12        0.00      89.56       2.58       0.45       4.03       ----

> <Gold.Chemscore.Fitness>
11.9456

> <Gold.Chemscore.DG>
-16.4214

> <Gold.Chemscore.ZeroCoef>
-5.4800

> <Gold.Chemscore.Hbond>
2.1195

> <Gold.Chemscore.Metal>
0.0000

> <Gold.Chemscore.Lipo>
89.5600

> <Gold.Chemscore.Internal_Hbond>
0.0000

> <Gold.Chemscore.DEClash>
0.4491

> <Gold.Chemscore.DEInternal>
4.0267

> <Gold.Chemscore.Rot>
2.5845

> <Gold.Chemscore.Internal.Correction>
   9.000000E+99

> <Gold.Chemscore.Hbonds>
donor molecule, donor type, donor heavy atom, donor atom, acceptor molecule, acceptor atom, score
      L1  H    21    39       P1  7949  0.65
      P1  H  7989  7998       L1    24  0.09
      P1  H 10752 10765       L1    21  0.09

> <Gold.Chemscore.Hbond.Weighted>
-7.0792

> <Gold.Chemscore.Metal.Weighted>
-0.0000

> <Gold.Chemscore.Lipo.Weighted>
-10.4785

> <Gold.Chemscore.Internal_Hbond.Weighted>
0.0000

> <Gold.Chemscore.DEClash.Weighted>
0.4491

> <Gold.Chemscore.DEInternal.Weighted>
4.0267

> <Gold.Chemscore.Rot.Weighted>
6.6163

> <Gold.Chemscore.Internal.Correction.Weighted>
   9.000000E+99

> <Gold.Protein.RotatedTorsions>
[ 6907 6896 6895 6894 ] final -118.11 input  -60.11 | X-H torsion
[ 7974 7965 7964 7962 ] final -146.31 input  175.53 | X-H torsion
[ 8008 7997 7996 7995 ] final -121.77 input   59.86 | X-H torsion
[ 10167 10162 10161 10158 ] final   28.10 input  -65.29 | X-H torsion
[ 10718 10713 10712 10709 ] final  -30.45 input   66.30 | X-H torsion
[ 10763 10752 10751 10750 ] final  152.39 input  -60.55 | X-H torsion
[ 11005 11000 10999 10996 ] final -138.18 input  -57.11 | X-H torsion

> <Gold.Protein.ActiveResidues>
 VAL166  LYS551  ARG553  GLY616  TRP617  ASP618  TYR619  PRO620  LYS621  CYS622 
 ASP623  PHE694  ASN695  SER759  ASP760  ASP761  ALA762  ILE779  LEU786  VAL792 
 PHE793  MET794  SER795  GLU796  ALA797  LYS798  CYS799  TRP800  GLU811  SER814 

> <Gold.Protein.RotatedAtoms>
  150.8193  133.8282  159.3146 H   0  0  0  0  0  0  0  0  0  0  0  0  # atno 6907 bound_to 6896
  151.6045  135.1043  160.0077 H   0  0  0  0  0  0  0  0  0  0  0  0  # atno 6908 bound_to 6896
  152.4282  133.7191  159.6580 H   0  0  0  0  0  0  0  0  0  0  0  0  # atno 6909 bound_to 6896
  144.8168  140.5472  143.5605 H   0  0  0  0  0  0  0  0  0  0  0  0  # atno 7974 bound_to 7965
  155.1534  140.0404  157.2826 H   0  0  0  0  0  0  0  0  0  0  0  0  # atno 8008 bound_to 7997
  154.6387  140.2542  155.7320 H   0  0  0  0  0  0  0  0  0  0  0  0  # atno 8009 bound_to 7997
  156.2522  140.2860  156.0772 H   0  0  0  0  0  0  0  0  0  0  0  0  # atno 8010 bound_to 7997
  140.4882  144.0509  150.6288 H   0  0  0  0  0  0  0  0  0  0  0  0  # atno 10167 bound_to 10162
  156.3996  130.4388  149.7332 H   0  0  0  0  0  0  0  0  0  0  0  0  # atno 10718 bound_to 10713
  154.1192  135.2834  155.3212 H   0  0  0  0  0  0  0  0  0  0  0  0  # atno 10763 bound_to 10752
  154.6435  135.5394  153.7820 H   0  0  0  0  0  0  0  0  0  0  0  0  # atno 10764 bound_to 10752
  153.0319  135.6492  154.1347 H   0  0  0  0  0  0  0  0  0  0  0  0  # atno 10765 bound_to 10752
  140.8641  134.2132  157.4690 H   0  0  0  0  0  0  0  0  0  0  0  0  # atno 11005 bound_to 11000
  145.5197  139.1477  143.3559 LP  0  0  0  0  0  0  0  0  0  0  0  0  # atno 17320 bound_to 7965
  146.2471  140.5337  142.8909 LP  0  0  0  0  0  0  0  0  0  0  0  0  # atno 17321 bound_to 7965
  140.3770  143.2823  152.0213 LP  0  0  0  0  0  0  0  0  0  0  0  0  # atno 17342 bound_to 10162
  139.4846  144.6185  151.7301 LP  0  0  0  0  0  0  0  0  0  0  0  0  # atno 17343 bound_to 10162
  156.4354  130.7835  151.2856 LP  0  0  0  0  0  0  0  0  0  0  0  0  # atno 17370 bound_to 10713
  157.7503  131.0141  150.3451 LP  0  0  0  0  0  0  0  0  0  0  0  0  # atno 17371 bound_to 10713
  139.8708  134.9743  156.4842 LP  0  0  0  0  0  0  0  0  0  0  0  0  # atno 17394 bound_to 11000
  140.8649  133.8032  155.9304 LP  0  0  0  0  0  0  0  0  0  0  0  0  # atno 17395 bound_to 11000

$$$$
