AV-unprocessed.smi:1539|AV-procd|sdf|6196|dock9
  -GOLD-   22720 6363D 1   1.00000     0.00000
 Structure written by MMmdl.
 42 43  0  0  0  0  0  0  0  0  2 V2000
  148.1033  132.2603  158.5316 C   0  0  0  0  0  0  0  0  0  0  0  0
  148.9133  131.2783  157.6818 C   0  0  0  0  0  0  0  0  0  0  0  0
  148.5723  130.0952  157.6784 O   0  0  0  0  0  0  0  0  0  0  0  0
  149.9779  131.7330  156.9762 N   0  0  0  0  0  0  0  0  0  0  0  0
  150.3376  133.1590  156.9597 C   0  0  0  0  0  0  0  0  0  0  0  0
  149.5568  133.9254  155.8706 C   0  0  0  0  0  0  0  0  0  0  0  0
  149.7780  133.3703  154.4457 C   0  0  0  0  0  0  0  0  0  0  0  0
  149.3236  131.9712  154.3317 N   0  0  0  0  0  0  0  0  0  0  0  0
  148.0430  131.5852  154.0923 C   0  0  0  0  0  0  0  0  0  0  0  0
  147.6270  130.4458  154.3079 O   0  0  0  0  0  0  0  0  0  0  0  0
  147.2434  132.5548  153.6142 N   0  0  0  0  0  0  0  0  0  0  0  0
  145.8256  132.3988  153.3143 C   0  0  0  0  0  0  0  0  0  0  0  0
  145.5991  131.4074  152.1614 C   0  0  0  0  0  0  0  0  0  0  0  0
  144.7700  131.9884  151.1049 N   0  0  0  0  0  0  0  0  0  0  0  0
  145.0612  132.0566  149.7668 C   0  0  0  0  0  0  0  0  0  0  0  0
  143.9963  132.6778  149.1667 C   0  0  0  0  0  0  0  0  0  0  0  0
  143.1012  132.9620  150.1633 N   0  3  0  0  0  0  0  0  0  0  0  0
  143.5730  132.5403  151.3414 C   0  0  0  0  0  0  0  0  0  0  0  0
  150.3899  130.9862  154.5911 C   0  0  0  0  0  0  0  0  0  0  0  0
  150.8036  130.8981  156.0854 C   0  0  0  0  0  0  0  0  0  0  0  0
  148.7477  132.8084  159.2192 H   0  0  0  0  0  0  0  0  0  0  0  0
  147.3597  131.7297  159.1271 H   0  0  0  0  0  0  0  0  0  0  0  0
  147.5758  132.9729  157.8973 H   0  0  0  0  0  0  0  0  0  0  0  0
  150.1556  133.6141  157.9346 H   0  0  0  0  0  0  0  0  0  0  0  0
  151.4078  133.2799  156.7888 H   0  0  0  0  0  0  0  0  0  0  0  0
  148.4931  133.9204  156.1108 H   0  0  0  0  0  0  0  0  0  0  0  0
  149.8604  134.9723  155.8926 H   0  0  0  0  0  0  0  0  0  0  0  0
  149.2803  134.0057  153.7119 H   0  0  0  0  0  0  0  0  0  0  0  0
  150.8377  133.4419  154.1976 H   0  0  0  0  0  0  0  0  0  0  0  0
  147.6457  133.4698  153.4698 H   0  0  0  0  0  0  0  0  0  0  0  0
  145.2906  132.0763  154.2093 H   0  0  0  0  0  0  0  0  0  0  0  0
  145.4244  133.3777  153.0500 H   0  0  0  0  0  0  0  0  0  0  0  0
  146.5485  131.0949  151.7238 H   0  0  0  0  0  0  0  0  0  0  0  0
  145.0960  130.5059  152.5141 H   0  0  0  0  0  0  0  0  0  0  0  0
  145.9805  131.6672  149.3527 H   0  0  0  0  0  0  0  0  0  0  0  0
  143.8135  132.9319  148.1326 H   0  0  0  0  0  0  0  0  0  0  0  0
  143.0830  132.6286  152.2949 H   0  0  0  0  0  0  0  0  0  0  0  0
  150.1082  129.9909  154.2452 H   0  0  0  0  0  0  0  0  0  0  0  0
  151.2629  131.2382  153.9876 H   0  0  0  0  0  0  0  0  0  0  0  0
  151.8450  131.2084  156.1783 H   0  0  0  0  0  0  0  0  0  0  0  0
  150.8204  129.8555  156.4019 H   0  0  0  0  0  0  0  0  0  0  0  0
  142.2105  133.4245  150.0303 H   0  0  0  0  0  0  0  0  0  0  0  0
  1  2  1  0  0  0  0
  1 21  1  0  0  0  0
  1 22  1  0  0  0  0
  1 23  1  0  0  0  0
  2  3  2  0  0  0  0
  2  4  1  0  0  0  0
  4 20  1  0  0  0  0
  4  5  1  0  0  0  0
  5  6  1  0  0  0  0
  5 24  1  0  0  0  0
  5 25  1  0  0  0  0
  6  7  1  0  0  0  0
  6 26  1  0  0  0  0
  6 27  1  0  0  0  0
  7  8  1  0  0  0  0
  7 28  1  0  0  0  0
  7 29  1  0  0  0  0
  8  9  1  0  0  0  0
  8 19  1  0  0  0  0
  9 10  2  0  0  0  0
  9 11  1  0  0  0  0
 11 12  1  0  0  0  0
 11 30  1  0  0  0  0
 12 13  1  0  0  0  0
 12 31  1  0  0  0  0
 12 32  1  0  0  0  0
 13 14  1  0  0  0  0
 13 33  1  0  0  0  0
 13 34  1  0  0  0  0
 14 18  1  0  0  0  0
 14 15  1  0  0  0  0
 15 16  2  0  0  0  0
 15 35  1  0  0  0  0
 16 17  1  0  0  0  0
 16 36  1  0  0  0  0
 17 18  2  0  0  0  0
 17 42  1  0  0  0  0
 18 37  1  0  0  0  0
 19 20  1  0  0  0  0
 19 38  1  0  0  0  0
 19 39  1  0  0  0  0
 20 40  1  0  0  0  0
 20 41  1  0  0  0  0
M  CHG  1  17   1
M  END
> <s_m_source_file>
AV-unprocessed.smi

> <i_m_source_file_index>
1539

> <i_lp_mmshare_version>
43012

> <i_f3d_flags>
0

> <s_epik_input>
W0NIM11DKD1PKU4xW0NIMl1bQ0gyXVtDSDJdTihbQ0gyXVtDSDJdMSlDKD1PKVtOSF1bQ0gyXVtDSDJdbjJbY0hdW2NIXW5bY0hdMg==

> <s_epik_cmdline>
J2VwaWtfcHl0aG9uJywgJy1waCcsICc3LjAnLCAnLXRuJywgJzgnLCAnLW1hJywgJzIwMCcsICctbWV0YWxfYmluZGluZycsICctaW1hZScsICc8aW5maWxlLm1hZT4nLCAnLW9tYWUnLCAnPG91dGZpbGUubWFlPic=

> <r_lp_tautomer_probability>
1

> <r_epik_Ionization_Penalty>
0.254079

> <r_epik_Ionization_Penalty_Charging>
0

> <r_epik_Ionization_Penalty_Neutral>
0.254079

> <r_epik_State_Penalty>
0.245493

> <r_epik_Charging_Adjusted_Penalty>
0.245493

> <i_epik_Tot_Q>
1

> <i_epik_Tot_abs_Q>
1

> <r_epik_Metal_State_Penalty>
0.535648

> <b_epik_Metal_Only>
0

> <s_lp_Force_Field>
OPLS_2005

> <r_lp_Energy>
43.2206

> <b_lp_Chiralities_Consistent>
1

> <s_lp_Variant>
AV-unprocessed.smi:1539-1

> <Gold.Version>
5.8.1

> <Gold.Id.Protein>
6NUR|6NUR_protein|mol2

> <Gold.PLP.Fitness>
38.1290

> <Gold.PLP.PLP>
-31.6560

> <Gold.PLP.part.hbond>
-1.0000

> <Gold.PLP.part.metal>
0.0000

> <Gold.PLP.part.buried>
-6.2639

> <Gold.PLP.part.nonpolar>
-24.4399

> <Gold.PLP.part.repulsive>
0.1133

> <Gold.PLP.ligand.clash>
0.0000

> <Gold.PLP.ligand.torsion>
0.5265

> <Gold.PLP.Chemscore.Hbond>
2.0000

> <Gold.PLP.Chemscore.CHOScore>
0.5025

> <Gold.PLP.Chemscore.Metal>
0.0000

> <Gold.Chemscore.Hbonds>
donor molecule, donor type, donor heavy atom, donor atom, acceptor molecule, acceptor atom, score
      L1  H    17    42       P1 10186  2.00
      L1  C    18    37       P1 10957  0.38

> <Gold.PLP.Chemscore.Internal.Correction>
0.0184

> <Gold.Rescore>
     Score         DG    S(hbond)    S(metal)    S(lipo)     H(rot)  DE(clash)    DE(int)     intcor
     11.33     -11.92       1.00        0.00      63.76       1.70       0.06       0.53       ----

> <Gold.Chemscore.Fitness>
11.3278

> <Gold.Chemscore.DG>
-11.9187

> <Gold.Chemscore.ZeroCoef>
-5.4800

> <Gold.Chemscore.Hbond>
1.0000

> <Gold.Chemscore.Metal>
0.0000

> <Gold.Chemscore.Lipo>
63.7611

> <Gold.Chemscore.Internal_Hbond>
0.0000

> <Gold.Chemscore.DEClash>
0.0580

> <Gold.Chemscore.DEInternal>
0.5329

> <Gold.Chemscore.Rot>
1.7036

> <Gold.Chemscore.Internal.Correction>
   9.000000E+99

> <Gold.Chemscore.Hbonds>
donor molecule, donor type, donor heavy atom, donor atom, acceptor molecule, acceptor atom, score
      L1  H    17    42       P1 10186  0.99

> <Gold.Chemscore.Hbond.Weighted>
-3.3400

> <Gold.Chemscore.Metal.Weighted>
-0.0000

> <Gold.Chemscore.Lipo.Weighted>
-7.4600

> <Gold.Chemscore.Internal_Hbond.Weighted>
0.0000

> <Gold.Chemscore.DEClash.Weighted>
0.0580

> <Gold.Chemscore.DEInternal.Weighted>
0.5329

> <Gold.Chemscore.Rot.Weighted>
4.3613

> <Gold.Chemscore.Internal.Correction.Weighted>
   9.000000E+99

> <Gold.Protein.RotatedTorsions>
[ 6907 6896 6895 6894 ] final  177.93 input  -60.11 | X-H torsion
[ 7974 7965 7964 7962 ] final  -77.06 input  175.53 | X-H torsion
[ 8008 7997 7996 7995 ] final  -93.19 input   59.86 | X-H torsion
[ 10167 10162 10161 10158 ] final   45.99 input  -65.29 | X-H torsion
[ 10718 10713 10712 10709 ] final -114.38 input   66.30 | X-H torsion
[ 10763 10752 10751 10750 ] final  119.95 input  -60.55 | X-H torsion
[ 11005 11000 10999 10996 ] final  113.69 input  -57.11 | X-H torsion

> <Gold.Protein.ActiveResidues>
 VAL166  LYS551  ARG553  GLY616  TRP617  ASP618  TYR619  PRO620  LYS621  CYS622 
 ASP623  PHE694  ASN695  SER759  ASP760  ASP761  ALA762  ILE779  LEU786  VAL792 
 PHE793  MET794  SER795  GLU796  ALA797  LYS798  CYS799  TRP800  GLU811  SER814 

> <Gold.Protein.RotatedAtoms>
  151.6961  133.3311  159.3254 H   0  0  0  0  0  0  0  0  0  0  0  0  # atno 6907 bound_to 6896
  150.7757  134.6656  159.6373 H   0  0  0  0  0  0  0  0  0  0  0  0  # atno 6908 bound_to 6896
  152.3798  134.6611  160.0199 H   0  0  0  0  0  0  0  0  0  0  0  0  # atno 6909 bound_to 6896
  145.6047  140.9401  143.1222 H   0  0  0  0  0  0  0  0  0  0  0  0  # atno 7974 bound_to 7965
  154.7325  140.0501  157.0739 H   0  0  0  0  0  0  0  0  0  0  0  0  # atno 8008 bound_to 7997
  155.0283  140.3155  155.4748 H   0  0  0  0  0  0  0  0  0  0  0  0  # atno 8009 bound_to 7997
  156.2845  140.2154  156.5404 H   0  0  0  0  0  0  0  0  0  0  0  0  # atno 8010 bound_to 7997
  140.3185  144.2734  150.6187 H   0  0  0  0  0  0  0  0  0  0  0  0  # atno 10167 bound_to 10162
  156.0826  130.6024  150.8767 H   0  0  0  0  0  0  0  0  0  0  0  0  # atno 10718 bound_to 10713
  153.5909  135.3466  155.2910 H   0  0  0  0  0  0  0  0  0  0  0  0  # atno 10763 bound_to 10752
  154.8652  135.4204  154.2517 H   0  0  0  0  0  0  0  0  0  0  0  0  # atno 10764 bound_to 10752
  153.3324  135.7045  153.7007 H   0  0  0  0  0  0  0  0  0  0  0  0  # atno 10765 bound_to 10752
  139.8960  134.9554  156.6778 H   0  0  0  0  0  0  0  0  0  0  0  0  # atno 11005 bound_to 11000
  144.7295  139.7770  143.7352 LP  0  0  0  0  0  0  0  0  0  0  0  0  # atno 17320 bound_to 7965
  146.1550  139.4645  143.0025 LP  0  0  0  0  0  0  0  0  0  0  0  0  # atno 17321 bound_to 7965
  140.5504  143.2207  151.7936 LP  0  0  0  0  0  0  0  0  0  0  0  0  # atno 17342 bound_to 10162
  139.4879  144.4483  151.9684 LP  0  0  0  0  0  0  0  0  0  0  0  0  # atno 17343 bound_to 10162
  157.5949  131.0943  150.9057 LP  0  0  0  0  0  0  0  0  0  0  0  0  # atno 17370 bound_to 10713
  156.9226  130.5320  149.5279 LP  0  0  0  0  0  0  0  0  0  0  0  0  # atno 17371 bound_to 10713
  140.7323  133.9048  155.8220 LP  0  0  0  0  0  0  0  0  0  0  0  0  # atno 17394 bound_to 11000
  141.0144  134.0976  157.4188 LP  0  0  0  0  0  0  0  0  0  0  0  0  # atno 17395 bound_to 11000

$$$$
