AV-unprocessed.smi:113|AV-procd|sdf|1096|dock1
  -GOLD-   2262018203D 1   1.00000     0.00000
 Structure written by MMmdl.
 52 55  0  0  0  0  0  0  0  0  1 V2000
  153.2811  138.3181  160.3095 C   0  0  0  0  0  0  0  0  0  0  0  0
  152.8597  139.7016  159.8597 C   0  0  0  0  0  0  0  0  0  0  0  0
  152.5471  139.9541  158.5122 C   0  0  0  0  0  0  0  0  0  0  0  0
  152.1595  141.2591  158.1309 C   0  0  0  0  0  0  0  0  0  0  0  0
  151.8073  141.5873  156.6759 C   0  0  0  0  0  0  0  0  0  0  0  0
  151.2666  140.5013  155.8704 N   0  0  0  0  0  0  0  0  0  0  0  0
  152.1322  139.4295  155.5408 C   0  0  0  0  0  0  0  0  0  0  0  0
  153.3031  139.4036  155.9260 O   0  0  0  0  0  0  0  0  0  0  0  0
  151.5282  138.3683  154.7315 C   0  0  0  0  0  0  0  0  0  0  0  0
  152.4087  137.2059  154.3006 C   0  0  0  0  0  0  0  0  0  0  0  0
  150.2198  138.4455  154.3899 C   0  0  0  0  0  0  0  0  0  0  0  0
  149.3849  139.4845  154.7644 N   0  0  0  0  0  0  0  0  0  0  0  0
  147.9276  139.4977  154.3629 C   0  0  1  0  0  0  0  0  0  0  0  0
  147.6223  140.6993  153.4671 C   0  0  0  0  0  0  0  0  0  0  0  0
  146.6461  140.0986  152.4777 C   0  0  1  0  0  0  0  0  0  0  0  0
  146.6545  140.8199  151.2627 O   0  0  0  0  0  0  0  0  0  0  0  0
  147.1901  138.6750  152.3249 C   0  0  2  0  0  0  0  0  0  0  0  0
  146.1597  137.6358  151.8569 C   0  0  0  0  0  0  0  0  0  0  0  0
  146.2518  137.4410  150.4618 O   0  0  0  0  0  0  0  0  0  0  0  0
  147.6407  138.3382  153.6356 O   0  0  0  0  0  0  0  0  0  0  0  0
  149.9011  140.5633  155.5111 C   0  0  0  0  0  0  0  0  0  0  0  0
  149.1840  141.5116  155.8392 O   0  0  0  0  0  0  0  0  0  0  0  0
  152.1056  142.2588  159.1396 C   0  0  0  0  0  0  0  0  0  0  0  0
  151.7240  143.5897  158.8426 C   0  0  0  0  0  0  0  0  0  0  0  0
  151.6796  144.5648  159.8549 C   0  0  0  0  0  0  0  0  0  0  0  0
  152.0162  144.2204  161.1743 C   0  0  0  0  0  0  0  0  0  0  0  0
  152.3953  142.9004  161.4778 C   0  0  0  0  0  0  0  0  0  0  0  0
  152.4458  141.9048  160.4786 C   0  0  0  0  0  0  0  0  0  0  0  0
  152.8135  140.6491  160.8163 N   0  0  0  0  0  0  0  0  0  0  0  0
  152.9583  137.5593  159.5958 H   0  0  0  0  0  0  0  0  0  0  0  0
  152.8451  138.0752  161.2793 H   0  0  0  0  0  0  0  0  0  0  0  0
  154.3665  138.2662  160.3972 H   0  0  0  0  0  0  0  0  0  0  0  0
  152.6090  139.1495  157.7950 H   0  0  0  0  0  0  0  0  0  0  0  0
  151.0911  142.4096  156.6388 H   0  0  0  0  0  0  0  0  0  0  0  0
  152.6844  141.9714  156.1532 H   0  0  0  0  0  0  0  0  0  0  0  0
  151.8691  136.4994  153.6694 H   0  0  0  0  0  0  0  0  0  0  0  0
  152.7754  136.6630  155.1724 H   0  0  0  0  0  0  0  0  0  0  0  0
  153.2687  137.5669  153.7351 H   0  0  0  0  0  0  0  0  0  0  0  0
  149.8109  137.6486  153.7875 H   0  0  0  0  0  0  0  0  0  0  0  0
  147.3300  139.4698  155.2751 H   0  0  0  0  0  0  0  0  0  0  0  0
  147.2163  141.5311  154.0434 H   0  0  0  0  0  0  0  0  0  0  0  0
  148.5356  141.0241  152.9648 H   0  0  0  0  0  0  0  0  0  0  0  0
  145.6416  140.0870  152.9037 H   0  0  0  0  0  0  0  0  0  0  0  0
  147.5436  140.8650  150.9451 H   0  0  0  0  0  0  0  0  0  0  0  0
  148.0597  138.6716  151.6653 H   0  0  0  0  0  0  0  0  0  0  0  0
  146.3471  136.6790  152.3447 H   0  0  0  0  0  0  0  0  0  0  0  0
  145.1464  137.9393  152.1215 H   0  0  0  0  0  0  0  0  0  0  0  0
  145.4115  137.6356  150.0751 H   0  0  0  0  0  0  0  0  0  0  0  0
  151.4592  143.8876  157.8396 H   0  0  0  0  0  0  0  0  0  0  0  0
  151.3870  145.5771  159.6178 H   0  0  0  0  0  0  0  0  0  0  0  0
  151.9838  144.9673  161.9538 H   0  0  0  0  0  0  0  0  0  0  0  0
  152.6514  142.6477  162.4964 H   0  0  0  0  0  0  0  0  0  0  0  0
  1  2  1  0  0  0  0
  1 30  1  0  0  0  0
  1 31  1  0  0  0  0
  1 32  1  0  0  0  0
  2 29  1  0  0  0  0
  2  3  2  0  0  0  0
  3  4  1  0  0  0  0
  3 33  1  0  0  0  0
  4  5  1  0  0  0  0
  4 23  2  0  0  0  0
  5  6  1  0  0  0  0
  5 34  1  0  0  0  0
  5 35  1  0  0  0  0
  6 21  1  0  0  0  0
  6  7  1  0  0  0  0
  7  8  2  0  0  0  0
  7  9  1  0  0  0  0
  9 10  1  0  0  0  0
  9 11  2  0  0  0  0
 10 36  1  0  0  0  0
 10 37  1  0  0  0  0
 10 38  1  0  0  0  0
 11 12  1  0  0  0  0
 11 39  1  0  0  0  0
 12 13  1  0  0  0  0
 12 21  1  0  0  0  0
 13 20  1  0  0  0  0
 13 14  1  0  0  0  0
 13 40  1  0  0  0  0
 14 15  1  0  0  0  0
 14 41  1  0  0  0  0
 14 42  1  0  0  0  0
 15 16  1  0  0  0  0
 15 17  1  0  0  0  0
 15 43  1  0  0  0  0
 16 44  1  0  0  0  0
 17 18  1  0  0  0  0
 17 20  1  0  0  0  0
 17 45  1  0  0  0  0
 18 19  1  0  0  0  0
 18 46  1  0  0  0  0
 18 47  1  0  0  0  0
 19 48  1  0  0  0  0
 21 22  2  0  0  0  0
 23 28  1  0  0  0  0
 23 24  1  0  0  0  0
 24 25  2  0  0  0  0
 24 49  1  0  0  0  0
 25 26  1  0  0  0  0
 25 50  1  0  0  0  0
 26 27  2  0  0  0  0
 26 51  1  0  0  0  0
 27 28  1  0  0  0  0
 27 52  1  0  0  0  0
 28 29  2  0  0  0  0
M  END
> <s_m_source_file>
AV-unprocessed.smi

> <i_m_source_file_index>
113

> <i_lp_mmshare_version>
43012

> <i_f3d_flags>
0

> <s_epik_input>
W2NIXTFbY0hdW2NIXVtjSF1jKGMxMiluYyhbQ0gzXSlbY0hdYzJbQ0gyXW4zYyg9TyljKFtDSDNdKVtjSF1uKGMzPU8pW0NAQEhdNFtDSDJdW0NAQEhdKFtPSF0pW0NASF0oTzQpW0NIMl1bT0hd

> <s_epik_cmdline>
J2VwaWtfcHl0aG9uJywgJy1waCcsICc3LjAnLCAnLXRuJywgJzgnLCAnLW1hJywgJzIwMCcsICctbWV0YWxfYmluZGluZycsICctaW1hZScsICc8aW5maWxlLm1hZT4nLCAnLW9tYWUnLCAnPG91dGZpbGUubWFlPic=

> <r_lp_tautomer_probability>
1

> <r_epik_Ionization_Penalty>
0.214728

> <r_epik_Ionization_Penalty_Charging>
3.04883e-08

> <r_epik_Ionization_Penalty_Neutral>
0.214728

> <r_epik_State_Penalty>
0.204913

> <r_epik_Charging_Adjusted_Penalty>
0.204913

> <i_epik_Tot_Q>
0

> <i_epik_Tot_abs_Q>
0

> <r_epik_Metal_State_Penalty>
0.000244761

> <b_epik_Metal_Only>
0

> <s_epik_Chemistry_Notes>
This compound contains an acetal/aminal-like group ( X-CH(R)-Y where X, Y are N, S, or O) that may be acid/base labile, releasing an aldehyde.

> <s_lp_Force_Field>
OPLS_2005

> <r_lp_Energy>
37.2315

> <b_lp_Chiralities_Consistent>
1

> <s_lp_Variant>
AV-unprocessed.smi:113-6

> <Gold.Version>
5.8.1

> <Gold.Id.Protein>
6NUR|6NUR_protein|mol2

> <Gold.PLP.Fitness>
53.3986

> <Gold.PLP.PLP>
-42.9763

> <Gold.PLP.part.hbond>
-4.0622

> <Gold.PLP.part.metal>
0.0000

> <Gold.PLP.part.buried>
12.5538

> <Gold.PLP.part.nonpolar>
-52.9876

> <Gold.PLP.part.repulsive>
0.7276

> <Gold.PLP.ligand.clash>
0.0000

> <Gold.PLP.ligand.torsion>
0.9362

> <Gold.PLP.Chemscore.Hbond>
3.1119

> <Gold.PLP.Chemscore.CHOScore>
0.9799

> <Gold.PLP.Chemscore.Metal>
0.0000

> <Gold.Chemscore.Hbonds>
donor molecule, donor type, donor heavy atom, donor atom, acceptor molecule, acceptor atom, score
      L1  H    16    44       P1  7957  0.60
      L1  H    19    48       P1 10171  1.00
      P1  H  7954  7966       L1    19  0.88
      P1  H  7997  8008       L1     8  0.46
      L1  C    11    39       P1  7948  1.00

> <Gold.PLP.Chemscore.Internal.Correction>
0.0193

> <Gold.Rescore>
     Score         DG    S(hbond)    S(metal)    S(lipo)     H(rot)  DE(clash)    DE(int)     intcor
     16.57     -25.28       2.82        0.00     153.27       2.95       4.61       4.09       ----

> <Gold.Chemscore.Fitness>
16.5685

> <Gold.Chemscore.DG>
-25.2751

> <Gold.Chemscore.ZeroCoef>
-5.4800

> <Gold.Chemscore.Hbond>
2.8164

> <Gold.Chemscore.Metal>
0.0000

> <Gold.Chemscore.Lipo>
153.2678

> <Gold.Chemscore.Internal_Hbond>
0.0000

> <Gold.Chemscore.DEClash>
4.6125

> <Gold.Chemscore.DEInternal>
4.0941

> <Gold.Chemscore.Rot>
2.9469

> <Gold.Chemscore.Internal.Correction>
   9.000000E+99

> <Gold.Chemscore.Hbonds>
donor molecule, donor type, donor heavy atom, donor atom, acceptor molecule, acceptor atom, score
      L1  H    16    44       P1  7957  0.58
      L1  H    19    48       P1 10171  0.99
      P1  H  7954  7966       L1    19  0.57
      P1  H  7997  8008       L1     8  0.46

> <Gold.Chemscore.Hbond.Weighted>
-9.4068

> <Gold.Chemscore.Metal.Weighted>
-0.0000

> <Gold.Chemscore.Lipo.Weighted>
-17.9323

> <Gold.Chemscore.Internal_Hbond.Weighted>
0.0000

> <Gold.Chemscore.DEClash.Weighted>
4.6125

> <Gold.Chemscore.DEInternal.Weighted>
4.0941

> <Gold.Chemscore.Rot.Weighted>
7.5439

> <Gold.Chemscore.Internal.Correction.Weighted>
   9.000000E+99

> <Gold.Protein.RotatedTorsions>
[ 6907 6896 6895 6894 ] final   32.52 input  -60.11 | X-H torsion
[ 7974 7965 7964 7962 ] final    9.69 input  175.53 | X-H torsion
[ 8008 7997 7996 7995 ] final  -29.52 input   59.86 | X-H torsion
[ 10167 10162 10161 10158 ] final  166.19 input  -65.29 | X-H torsion
[ 10718 10713 10712 10709 ] final   62.29 input   66.30 | X-H torsion
[ 10763 10752 10751 10750 ] final -156.25 input  -60.55 | X-H torsion
[ 11005 11000 10999 10996 ] final  -43.62 input  -57.11 | X-H torsion

> <Gold.Protein.ActiveResidues>
 VAL166  LYS551  ARG553  GLY616  TRP617  ASP618  TYR619  PRO620  LYS621  CYS622 
 ASP623  PHE694  ASN695  SER759  ASP760  ASP761  ALA762  ILE779  LEU786  VAL792 
 PHE793  MET794  SER795  GLU796  ALA797  LYS798  CYS799  TRP800  GLU811  SER814 

> <Gold.Protein.RotatedAtoms>
  152.0755  134.9505  160.0573 H   0  0  0  0  0  0  0  0  0  0  0  0  # atno 6907 bound_to 6896
  152.0814  133.4150  159.4511 H   0  0  0  0  0  0  0  0  0  0  0  0  # atno 6908 bound_to 6896
  150.6836  134.2897  159.4705 H   0  0  0  0  0  0  0  0  0  0  0  0  # atno 6909 bound_to 6896
  146.2400  139.9745  142.8443 H   0  0  0  0  0  0  0  0  0  0  0  0  # atno 7974 bound_to 7965
  154.4287  140.1816  156.1261 H   0  0  0  0  0  0  0  0  0  0  0  0  # atno 8008 bound_to 7997
  156.0105  140.3351  155.6910 H   0  0  0  0  0  0  0  0  0  0  0  0  # atno 8009 bound_to 7997
  155.6118  140.0651  157.2694 H   0  0  0  0  0  0  0  0  0  0  0  0  # atno 8010 bound_to 7997
  139.4920  144.4054  151.9362 H   0  0  0  0  0  0  0  0  0  0  0  0  # atno 10167 bound_to 10162
  157.5890  130.9042  149.9569 H   0  0  0  0  0  0  0  0  0  0  0  0  # atno 10718 bound_to 10713
  154.7727  135.3150  154.8156 H   0  0  0  0  0  0  0  0  0  0  0  0  # atno 10763 bound_to 10752
  153.8888  135.6827  153.4766 H   0  0  0  0  0  0  0  0  0  0  0  0  # atno 10764 bound_to 10752
  153.1344  135.4766  154.9334 H   0  0  0  0  0  0  0  0  0  0  0  0  # atno 10765 bound_to 10752
  141.0396  133.6785  156.2759 H   0  0  0  0  0  0  0  0  0  0  0  0  # atno 11005 bound_to 11000
  145.1650  140.9692  143.4355 LP  0  0  0  0  0  0  0  0  0  0  0  0  # atno 17320 bound_to 7965
  145.0081  139.3535  143.6133 LP  0  0  0  0  0  0  0  0  0  0  0  0  # atno 17321 bound_to 7965
  140.3494  144.3108  150.5952 LP  0  0  0  0  0  0  0  0  0  0  0  0  # atno 17342 bound_to 10162
  140.5498  143.2208  151.7945 LP  0  0  0  0  0  0  0  0  0  0  0  0  # atno 17343 bound_to 10162
  156.0942  130.3661  150.0337 LP  0  0  0  0  0  0  0  0  0  0  0  0  # atno 17370 bound_to 10713
  156.8463  130.9443  151.3628 LP  0  0  0  0  0  0  0  0  0  0  0  0  # atno 17371 bound_to 10713
  140.6259  134.5314  157.5553 LP  0  0  0  0  0  0  0  0  0  0  0  0  # atno 17394 bound_to 11000
  139.9266  134.8044  156.1051 LP  0  0  0  0  0  0  0  0  0  0  0  0  # atno 17395 bound_to 11000

$$$$
