AV-unprocessed.smi:1715|AV-procd|sdf|6915|dock1
  -GOLD-   22720 8113D 1   1.00000     0.00000
 Structure written by MMmdl.
 41 42  0  0  0  0  0  0  0  0  2 V2000
  150.9297  142.0517  156.3935 C   0  0  0  0  0  0  0  0  0  0  0  0
  150.4785  140.6187  156.0925 C   0  0  1  0  0  0  0  0  0  0  0  0
  149.0103  140.5608  155.6344 C   0  0  0  0  0  0  0  0  0  0  0  0
  148.6351  139.1760  155.2666 N   0  3  1  0  0  0  0  0  0  0  0  0
  147.1978  139.0557  154.9175 C   0  0  0  0  0  0  0  0  0  0  0  0
  146.9409  139.2225  153.4069 C   0  0  0  0  0  0  0  0  0  0  0  0
  147.0455  137.9508  152.7011 N   0  0  0  0  0  0  0  0  0  0  0  0
  146.0047  137.2110  152.2927 C   0  0  0  0  0  0  0  0  0  0  0  0
  144.8304  137.5309  152.4790 O   0  0  0  0  0  0  0  0  0  0  0  0
  146.4137  136.0952  151.6674 N   0  0  0  0  0  0  0  0  0  0  0  0
  145.6028  135.0709  151.1164 C   0  0  0  0  0  0  0  0  0  0  0  0
  145.9711  133.7001  151.0407 C   0  0  0  0  0  0  0  0  0  0  0  0
  145.0162  132.9731  150.4787 N   0  0  0  0  0  0  0  0  0  0  0  0
  144.0415  133.8668  150.1957 N   0  0  0  0  0  0  0  0  0  0  0  0
  144.3546  135.1560  150.5663 C   0  0  0  0  0  0  0  0  0  0  0  0
  149.5473  138.6598  154.2160 C   0  0  0  0  0  0  0  0  0  0  0  0
  151.0203  138.7681  154.6569 C   0  0  2  0  0  0  0  0  0  0  0  0
  151.4200  137.7323  155.7229 C   0  0  0  0  0  0  0  0  0  0  0  0
  151.3176  140.1042  155.0620 O   0  0  0  0  0  0  0  0  0  0  0  0
  143.1777  133.5851  149.7542 H   0  0  0  0  0  0  0  0  0  0  0  0
  150.3289  142.4947  157.1881 H   0  0  0  0  0  0  0  0  0  0  0  0
  150.8407  142.6875  155.5120 H   0  0  0  0  0  0  0  0  0  0  0  0
  151.9715  142.0724  156.7143 H   0  0  0  0  0  0  0  0  0  0  0  0
  150.6036  140.0274  156.9999 H   0  0  0  0  0  0  0  0  0  0  0  0
  148.3645  140.9183  156.4376 H   0  0  0  0  0  0  0  0  0  0  0  0
  148.8518  141.2198  154.7788 H   0  0  0  0  0  0  0  0  0  0  0  0
  146.8409  138.0680  155.2136 H   0  0  0  0  0  0  0  0  0  0  0  0
  146.6215  139.7777  155.4979 H   0  0  0  0  0  0  0  0  0  0  0  0
  145.9589  139.6542  153.2123 H   0  0  0  0  0  0  0  0  0  0  0  0
  147.6726  139.9080  152.9788 H   0  0  0  0  0  0  0  0  0  0  0  0
  147.9762  137.6125  152.5035 H   0  0  0  0  0  0  0  0  0  0  0  0
  147.4102  135.9615  151.5773 H   0  0  0  0  0  0  0  0  0  0  0  0
  146.8807  133.2184  151.3685 H   0  0  0  0  0  0  0  0  0  0  0  0
  143.6791  135.9834  150.4076 H   0  0  0  0  0  0  0  0  0  0  0  0
  149.3174  137.6230  153.9738 H   0  0  0  0  0  0  0  0  0  0  0  0
  149.3972  139.2355  153.3012 H   0  0  0  0  0  0  0  0  0  0  0  0
  151.6425  138.5741  153.7826 H   0  0  0  0  0  0  0  0  0  0  0  0
  151.3108  136.7190  155.3358 H   0  0  0  0  0  0  0  0  0  0  0  0
  150.8067  137.8022  156.6208 H   0  0  0  0  0  0  0  0  0  0  0  0
  152.4615  137.8603  156.0180 H   0  0  0  0  0  0  0  0  0  0  0  0
  148.7815  138.6130  156.0925 H   0  0  0  0  0  0  0  0  0  0  0  0
  1  2  1  0  0  0  0
  1 21  1  0  0  0  0
  1 22  1  0  0  0  0
  1 23  1  0  0  0  0
  2 19  1  0  0  0  0
  2  3  1  0  0  0  0
  2 24  1  0  0  0  0
  3  4  1  0  0  0  0
  3 25  1  0  0  0  0
  3 26  1  0  0  0  0
  4  5  1  0  0  0  0
  4 16  1  0  0  0  0
  4 41  1  0  0  0  0
  5  6  1  0  0  0  0
  5 27  1  0  0  0  0
  5 28  1  0  0  0  0
  6  7  1  0  0  0  0
  6 29  1  0  0  0  0
  6 30  1  0  0  0  0
  7  8  1  0  0  0  0
  7 31  1  0  0  0  0
  8  9  2  0  0  0  0
  8 10  1  0  0  0  0
 10 11  1  0  0  0  0
 10 32  1  0  0  0  0
 11 15  2  0  0  0  0
 11 12  1  0  0  0  0
 12 13  2  0  0  0  0
 12 33  1  0  0  0  0
 13 14  1  0  0  0  0
 14 20  1  0  0  0  0
 14 15  1  0  0  0  0
 15 34  1  0  0  0  0
 16 17  1  0  0  0  0
 16 35  1  0  0  0  0
 16 36  1  0  0  0  0
 17 18  1  0  0  0  0
 17 19  1  0  0  0  0
 17 37  1  0  0  0  0
 18 38  1  0  0  0  0
 18 39  1  0  0  0  0
 18 40  1  0  0  0  0
M  CHG  1   4   1
M  END
> <s_m_source_file>
AV-unprocessed.smi

> <i_m_source_file_index>
1715

> <i_lp_mmshare_version>
43012

> <i_f3d_flags>
0

> <s_epik_input>
W0NIM11bQ0BASF0xW0NIMl1OKFtDSDJdW0NASF0oTzEpW0NIM10pW0NIMl1bQ0gyXVtOSF1DKD1PKVtOSF1jMltjSF1uW25IXVtjSF0y

> <s_epik_cmdline>
J2VwaWtfcHl0aG9uJywgJy1waCcsICc3LjAnLCAnLXRuJywgJzgnLCAnLW1hJywgJzIwMCcsICctbWV0YWxfYmluZGluZycsICctaW1hZScsICc8aW5maWxlLm1hZT4nLCAnLW9tYWUnLCAnPG91dGZpbGUubWFlPic=

> <r_lp_tautomer_probability>
0.5

> <r_epik_Ionization_Penalty>
0.646007

> <r_epik_Ionization_Penalty_Charging>
0.645968

> <r_epik_Ionization_Penalty_Neutral>
3.91671e-05

> <r_epik_State_Penalty>
0.664063

> <r_epik_Charging_Adjusted_Penalty>
1.31003

> <i_epik_Tot_Q>
1

> <i_epik_Tot_abs_Q>
1

> <r_epik_Metal_State_Penalty>
0.664064

> <b_epik_Metal_Only>
0

> <s_lp_Force_Field>
OPLS_2005

> <r_lp_Energy>
20.0624

> <b_lp_Chiralities_Consistent>
1

> <s_lp_Variant>
AV-unprocessed.smi:1715-7

> <Gold.Version>
5.8.1

> <Gold.Id.Protein>
6NUR|6NUR_protein|mol2

> <Gold.PLP.Fitness>
43.0768

> <Gold.PLP.PLP>
-30.3991

> <Gold.PLP.part.hbond>
-4.0000

> <Gold.PLP.part.metal>
0.0000

> <Gold.PLP.part.buried>
-6.5808

> <Gold.PLP.part.nonpolar>
-21.6884

> <Gold.PLP.part.repulsive>
1.6957

> <Gold.PLP.ligand.clash>
0.0000

> <Gold.PLP.ligand.torsion>
0.8578

> <Gold.PLP.Chemscore.Hbond>
3.7920

> <Gold.PLP.Chemscore.CHOScore>
0.9960

> <Gold.PLP.Chemscore.Metal>
0.0000

> <Gold.Chemscore.Hbonds>
donor molecule, donor type, donor heavy atom, donor atom, acceptor molecule, acceptor atom, score
      L1  H     7    31       P1  7948  0.91
      L1  H    10    32       P1  7948  1.00
      L1  H    14    20       P1 10186  0.18
      P1  H  7989  7998       L1    19  1.00
      L1  C    15    34       P1 10171  0.69

> <Gold.PLP.Chemscore.Internal.Correction>
0.0294

> <Gold.Rescore>
     Score         DG    S(hbond)    S(metal)    S(lipo)     H(rot)  DE(clash)    DE(int)     intcor
     18.23     -20.36       3.54        0.00      62.70       1.67       0.02       2.11       ----

> <Gold.Chemscore.Fitness>
18.2301

> <Gold.Chemscore.DG>
-20.3612

> <Gold.Chemscore.ZeroCoef>
-5.4800

> <Gold.Chemscore.Hbond>
3.5369

> <Gold.Chemscore.Metal>
0.0000

> <Gold.Chemscore.Lipo>
62.6995

> <Gold.Chemscore.Internal_Hbond>
0.0000

> <Gold.Chemscore.DEClash>
0.0248

> <Gold.Chemscore.DEInternal>
2.1063

> <Gold.Chemscore.Rot>
1.6671

> <Gold.Chemscore.Internal.Correction>
   9.000000E+99

> <Gold.Chemscore.Hbonds>
donor molecule, donor type, donor heavy atom, donor atom, acceptor molecule, acceptor atom, score
      L1  H     7    31       P1  7948  0.90
      L1  H    10    32       P1  7948  0.95
      L1  H    14    20       P1 10186  0.18
      P1  H  7989  7998       L1    19  0.30

> <Gold.Chemscore.Hbond.Weighted>
-11.8131

> <Gold.Chemscore.Metal.Weighted>
-0.0000

> <Gold.Chemscore.Lipo.Weighted>
-7.3358

> <Gold.Chemscore.Internal_Hbond.Weighted>
0.0000

> <Gold.Chemscore.DEClash.Weighted>
0.0248

> <Gold.Chemscore.DEInternal.Weighted>
2.1063

> <Gold.Chemscore.Rot.Weighted>
4.2677

> <Gold.Chemscore.Internal.Correction.Weighted>
   9.000000E+99

> <Gold.Protein.RotatedTorsions>
[ 6907 6896 6895 6894 ] final   48.33 input  -60.11 | X-H torsion
[ 7974 7965 7964 7962 ] final   27.65 input  175.53 | X-H torsion
[ 8008 7997 7996 7995 ] final  104.75 input   59.86 | X-H torsion
[ 10167 10162 10161 10158 ] final  -76.48 input  -65.29 | X-H torsion
[ 10718 10713 10712 10709 ] final -103.67 input   66.30 | X-H torsion
[ 10763 10752 10751 10750 ] final  172.25 input  -60.55 | X-H torsion
[ 11005 11000 10999 10996 ] final -137.59 input  -57.11 | X-H torsion

> <Gold.Protein.ActiveResidues>
 VAL166  LYS551  ARG553  GLY616  TRP617  ASP618  TYR619  PRO620  LYS621  CYS622 
 ASP623  PHE694  ASN695  SER759  ASP760  ASP761  ALA762  ILE779  LEU786  VAL792 
 PHE793  MET794  SER795  GLU796  ALA797  LYS798  CYS799  TRP800  GLU811  SER814 

> <Gold.Protein.RotatedAtoms>
  152.2782  134.7857  160.0401 H   0  0  0  0  0  0  0  0  0  0  0  0  # atno 6907 bound_to 6896
  151.8446  133.3424  159.3662 H   0  0  0  0  0  0  0  0  0  0  0  0  # atno 6908 bound_to 6896
  150.7179  134.5286  159.5733 H   0  0  0  0  0  0  0  0  0  0  0  0  # atno 6909 bound_to 6896
  146.1772  139.7162  142.8926 H   0  0  0  0  0  0  0  0  0  0  0  0  # atno 7974 bound_to 7965
  156.1600  140.3142  155.8791 H   0  0  0  0  0  0  0  0  0  0  0  0  # atno 8008 bound_to 7997
  155.3801  140.0487  157.3061 H   0  0  0  0  0  0  0  0  0  0  0  0  # atno 8009 bound_to 7997
  154.5138  140.2174  155.9117 H   0  0  0  0  0  0  0  0  0  0  0  0  # atno 8010 bound_to 7997
  140.4853  143.2392  151.7994 H   0  0  0  0  0  0  0  0  0  0  0  0  # atno 10167 bound_to 10162
  156.0274  130.5478  150.7287 H   0  0  0  0  0  0  0  0  0  0  0  0  # atno 10718 bound_to 10713
  154.4234  135.2758  155.1960 H   0  0  0  0  0  0  0  0  0  0  0  0  # atno 10763 bound_to 10752
  154.3897  135.6069  153.5840 H   0  0  0  0  0  0  0  0  0  0  0  0  # atno 10764 bound_to 10752
  152.9833  135.5900  154.4533 H   0  0  0  0  0  0  0  0  0  0  0  0  # atno 10765 bound_to 10752
  140.8696  134.2067  157.4659 H   0  0  0  0  0  0  0  0  0  0  0  0  # atno 11005 bound_to 11000
  145.4177  141.0403  143.2981 LP  0  0  0  0  0  0  0  0  0  0  0  0  # atno 17320 bound_to 7965
  144.8256  139.5716  143.6967 LP  0  0  0  0  0  0  0  0  0  0  0  0  # atno 17321 bound_to 7965
  139.4841  144.4720  151.9413 LP  0  0  0  0  0  0  0  0  0  0  0  0  # atno 17342 bound_to 10162
  140.3806  144.2741  150.5909 LP  0  0  0  0  0  0  0  0  0  0  0  0  # atno 17343 bound_to 10162
  157.4885  131.0909  151.0455 LP  0  0  0  0  0  0  0  0  0  0  0  0  # atno 17370 bound_to 10713
  157.0868  130.5926  149.5431 LP  0  0  0  0  0  0  0  0  0  0  0  0  # atno 17371 bound_to 10713
  139.8711  134.9768  156.4935 LP  0  0  0  0  0  0  0  0  0  0  0  0  # atno 17394 bound_to 11000
  140.8588  133.8075  155.9244 LP  0  0  0  0  0  0  0  0  0  0  0  0  # atno 17395 bound_to 11000

$$$$
