AV-unprocessed.smi:2751|AV-procd|sdf|10597|dock4
  -GOLD-   2272015 53D 1   1.00000     0.00000
 Structure written by MMmdl.
 35 36  0  0  0  0  0  0  0  0  2 V2000
  144.7666  137.7263  152.7294 O   0  0  0  0  0  0  0  0  0  0  0  0
  145.8660  137.4501  152.2484 C   0  0  0  0  0  0  0  0  0  0  0  0
  146.9338  138.2587  152.3201 N   0  0  0  0  0  0  0  0  0  0  0  0
  146.9525  139.5601  152.9785 C   0  0  0  0  0  0  0  0  0  0  0  0
  148.3780  140.1319  153.0668 C   0  0  0  0  0  0  0  0  0  0  0  0
  148.9063  140.1940  154.5087 C   0  0  2  0  0  0  0  0  0  0  0  0
  148.3343  141.3987  155.2810 C   0  0  0  0  0  0  0  0  0  0  0  0
  148.9390  141.4723  156.6875 C   0  0  0  0  0  0  0  0  0  0  0  0
  150.4682  141.4573  156.5940 C   0  0  0  0  0  0  0  0  0  0  0  0
  150.9394  140.2611  155.7521 C   0  0  0  0  0  0  0  0  0  0  0  0
  150.3283  140.3023  154.4660 O   0  0  0  0  0  0  0  0  0  0  0  0
  146.1477  136.3137  151.5928 N   0  0  0  0  0  0  0  0  0  0  0  0
  145.2469  135.2476  151.3675 C   0  0  0  0  0  0  0  0  0  0  0  0
  145.1111  134.6207  150.2001 N   0  3  0  0  0  0  0  0  0  0  0  0
  144.1619  133.6380  150.3353 C   0  0  0  0  0  0  0  0  0  0  0  0
  143.7350  133.7082  151.6397 C   0  0  0  0  0  0  0  0  0  0  0  0
  144.4081  134.7156  152.3016 O   0  0  0  0  0  0  0  0  0  0  0  0
  147.7987  137.9533  151.8979 H   0  0  0  0  0  0  0  0  0  0  0  0
  146.2921  140.2548  152.4563 H   0  0  0  0  0  0  0  0  0  0  0  0
  146.5386  139.4342  153.9793 H   0  0  0  0  0  0  0  0  0  0  0  0
  149.0546  139.5335  152.4552 H   0  0  0  0  0  0  0  0  0  0  0  0
  148.3883  141.1368  152.6425 H   0  0  0  0  0  0  0  0  0  0  0  0
  148.6306  139.2717  155.0235 H   0  0  0  0  0  0  0  0  0  0  0  0
  148.5545  142.3208  154.7412 H   0  0  0  0  0  0  0  0  0  0  0  0
  147.2483  141.3268  155.3466 H   0  0  0  0  0  0  0  0  0  0  0  0
  148.5976  142.3701  157.2032 H   0  0  0  0  0  0  0  0  0  0  0  0
  148.5984  140.6212  157.2788 H   0  0  0  0  0  0  0  0  0  0  0  0
  150.8169  142.3842  156.1370 H   0  0  0  0  0  0  0  0  0  0  0  0
  150.9070  141.4144  157.5913 H   0  0  0  0  0  0  0  0  0  0  0  0
  152.0220  140.2941  155.6284 H   0  0  0  0  0  0  0  0  0  0  0  0
  150.7044  139.3183  156.2486 H   0  0  0  0  0  0  0  0  0  0  0  0
  145.6050  134.8049  149.3358 H   0  0  0  0  0  0  0  0  0  0  0  0
  143.8908  132.9986  149.5074 H   0  0  0  0  0  0  0  0  0  0  0  0
  143.0114  133.1537  152.2193 H   0  0  0  0  0  0  0  0  0  0  0  0
  147.0851  136.1967  151.2372 H   0  0  0  0  0  0  0  0  0  0  0  0
  1  2  2  0  0  0  0
  2 12  1  0  0  0  0
  2  3  1  0  0  0  0
  3  4  1  0  0  0  0
  3 18  1  0  0  0  0
  4  5  1  0  0  0  0
  4 19  1  0  0  0  0
  4 20  1  0  0  0  0
  5  6  1  0  0  0  0
  5 21  1  0  0  0  0
  5 22  1  0  0  0  0
  6 11  1  0  0  0  0
  6  7  1  0  0  0  0
  6 23  1  0  0  0  0
  7  8  1  0  0  0  0
  7 24  1  0  0  0  0
  7 25  1  0  0  0  0
  8  9  1  0  0  0  0
  8 26  1  0  0  0  0
  8 27  1  0  0  0  0
  9 10  1  0  0  0  0
  9 28  1  0  0  0  0
  9 29  1  0  0  0  0
 10 11  1  0  0  0  0
 10 30  1  0  0  0  0
 10 31  1  0  0  0  0
 12 13  1  0  0  0  0
 12 35  1  0  0  0  0
 13 17  1  0  0  0  0
 13 14  2  0  0  0  0
 14 32  1  0  0  0  0
 14 15  1  0  0  0  0
 15 33  1  0  0  0  0
 15 16  2  0  0  0  0
 16 34  1  0  0  0  0
 16 17  1  0  0  0  0
M  CHG  1  14   1
M  END
> <s_m_source_file>
AV-unprocessed.smi

> <i_m_source_file_index>
2751

> <i_lp_mmshare_version>
43012

> <i_f3d_flags>
0

> <s_epik_input>
bzFbY0hdW2NIXW5jMVtOSF1DKD1PKVtOSF1bQ0gyXVtDSDJdW0NAQEhdMltDSDJdW0NIMl1bQ0gyXVtDSDJdTzI=

> <s_epik_cmdline>
J2VwaWtfcHl0aG9uJywgJy1waCcsICc3LjAnLCAnLXRuJywgJzgnLCAnLW1hJywgJzIwMCcsICctbWV0YWxfYmluZGluZycsICctaW1hZScsICc8aW5maWxlLm1hZT4nLCAnLW9tYWUnLCAnPG91dGZpbGUubWFlPic=

> <r_epik_Ionization_Penalty>
6.63408

> <r_epik_Ionization_Penalty_Charging>
6.57733

> <r_epik_Ionization_Penalty_Neutral>
0.0567487

> <r_epik_State_Penalty>
1.8175

> <r_epik_Charging_Adjusted_Penalty>
8.39483

> <i_epik_Tot_Q>
1

> <i_epik_Tot_abs_Q>
1

> <r_epik_Metal_State_Penalty>
1.83396

> <b_epik_Metal_Only>
0

> <s_lp_Force_Field>
OPLS_2005

> <r_lp_Energy>
16.4857

> <b_lp_Chiralities_Consistent>
1

> <s_lp_Variant>
AV-unprocessed.smi:2751-3

> <Gold.Version>
5.8.1

> <Gold.Id.Protein>
6NUR|6NUR_protein|mol2

> <Gold.PLP.Fitness>
37.9385

> <Gold.PLP.PLP>
-25.7447

> <Gold.PLP.part.hbond>
-4.0000

> <Gold.PLP.part.metal>
0.0000

> <Gold.PLP.part.buried>
-0.2030

> <Gold.PLP.part.nonpolar>
-24.1388

> <Gold.PLP.part.repulsive>
0.7371

> <Gold.PLP.ligand.clash>
0.0000

> <Gold.PLP.ligand.torsion>
0.9347

> <Gold.PLP.Chemscore.Hbond>
3.7120

> <Gold.PLP.Chemscore.CHOScore>
0.9717

> <Gold.PLP.Chemscore.Metal>
0.0000

> <Gold.Chemscore.Hbonds>
donor molecule, donor type, donor heavy atom, donor atom, acceptor molecule, acceptor atom, score
      L1  H     3    18       P1  7948  0.75
      L1  H    12    35       P1  7948  0.83
      L1  H    14    32       P1  7921  1.00
      P1  H  7989  7998       L1    11  1.00
      L1  C    16    34       P1 10957  0.03

> <Gold.PLP.Chemscore.Internal.Correction>
0.0120

> <Gold.Rescore>
     Score         DG    S(hbond)    S(metal)    S(lipo)     H(rot)  DE(clash)    DE(int)     intcor
     17.16     -19.80       3.64        0.00      54.82       1.66       1.75       0.90       ----

> <Gold.Chemscore.Fitness>
17.1566

> <Gold.Chemscore.DG>
-19.8031

> <Gold.Chemscore.ZeroCoef>
-5.4800

> <Gold.Chemscore.Hbond>
3.6386

> <Gold.Chemscore.Metal>
0.0000

> <Gold.Chemscore.Lipo>
54.8153

> <Gold.Chemscore.Internal_Hbond>
0.0000

> <Gold.Chemscore.DEClash>
1.7509

> <Gold.Chemscore.DEInternal>
0.8955

> <Gold.Chemscore.Rot>
1.6575

> <Gold.Chemscore.Internal.Correction>
   9.000000E+99

> <Gold.Chemscore.Hbonds>
donor molecule, donor type, donor heavy atom, donor atom, acceptor molecule, acceptor atom, score
      L1  H     3    18       P1  7948  0.71
      L1  H    12    35       P1  7948  0.83
      L1  H    14    32       P1  7921  0.98
      P1  H  7989  7998       L1    11  0.34

> <Gold.Chemscore.Hbond.Weighted>
-12.1528

> <Gold.Chemscore.Metal.Weighted>
-0.0000

> <Gold.Chemscore.Lipo.Weighted>
-6.4134

> <Gold.Chemscore.Internal_Hbond.Weighted>
0.0000

> <Gold.Chemscore.DEClash.Weighted>
1.7509

> <Gold.Chemscore.DEInternal.Weighted>
0.8955

> <Gold.Chemscore.Rot.Weighted>
4.2431

> <Gold.Chemscore.Internal.Correction.Weighted>
   9.000000E+99

> <Gold.Protein.RotatedTorsions>
[ 6907 6896 6895 6894 ] final   38.35 input  -60.11 | X-H torsion
[ 7974 7965 7964 7962 ] final   85.49 input  175.53 | X-H torsion
[ 8008 7997 7996 7995 ] final   93.67 input   59.86 | X-H torsion
[ 10167 10162 10161 10158 ] final -157.21 input  -65.29 | X-H torsion
[ 10718 10713 10712 10709 ] final   91.39 input   66.30 | X-H torsion
[ 10763 10752 10751 10750 ] final  -19.71 input  -60.55 | X-H torsion
[ 11005 11000 10999 10996 ] final  -99.97 input  -57.11 | X-H torsion

> <Gold.Protein.ActiveResidues>
 VAL166  LYS551  ARG553  GLY616  TRP617  ASP618  TYR619  PRO620  LYS621  CYS622 
 ASP623  PHE694  ASN695  SER759  ASP760  ASP761  ALA762  ILE779  LEU786  VAL792 
 PHE793  MET794  SER795  GLU796  ALA797  LYS798  CYS799  TRP800  GLU811  SER814 

> <Gold.Protein.RotatedAtoms>
  152.1553  134.8956  160.0545 H   0  0  0  0  0  0  0  0  0  0  0  0  # atno 6907 bound_to 6896
  151.9972  133.3807  159.4175 H   0  0  0  0  0  0  0  0  0  0  0  0  # atno 6908 bound_to 6896
  150.6880  134.3795  159.5072 H   0  0  0  0  0  0  0  0  0  0  0  0  # atno 6909 bound_to 6896
  145.5848  139.2330  143.2332 H   0  0  0  0  0  0  0  0  0  0  0  0  # atno 7974 bound_to 7965
  156.0493  140.3310  155.7333 H   0  0  0  0  0  0  0  0  0  0  0  0  # atno 8008 bound_to 7997
  155.5625  140.0620  157.2843 H   0  0  0  0  0  0  0  0  0  0  0  0  # atno 8009 bound_to 7997
  154.4428  140.1875  156.0785 H   0  0  0  0  0  0  0  0  0  0  0  0  # atno 8010 bound_to 7997
  139.6789  143.9616  152.2326 H   0  0  0  0  0  0  0  0  0  0  0  0  # atno 10167 bound_to 10162
  157.6960  131.0405  150.3722 H   0  0  0  0  0  0  0  0  0  0  0  0  # atno 10718 bound_to 10713
  153.6090  135.6997  153.5354 H   0  0  0  0  0  0  0  0  0  0  0  0  # atno 10763 bound_to 10752
  153.3033  135.4122  155.1271 H   0  0  0  0  0  0  0  0  0  0  0  0  # atno 10764 bound_to 10752
  154.8567  135.3654  154.5628 H   0  0  0  0  0  0  0  0  0  0  0  0  # atno 10765 bound_to 10752
  141.1288  133.8362  157.1041 H   0  0  0  0  0  0  0  0  0  0  0  0  # atno 11005 bound_to 11000
  146.1690  140.6675  142.9242 LP  0  0  0  0  0  0  0  0  0  0  0  0  # atno 17320 bound_to 7965
  144.7377  140.4856  143.6891 LP  0  0  0  0  0  0  0  0  0  0  0  0  # atno 17321 bound_to 7965
  139.9400  144.6687  150.8275 LP  0  0  0  0  0  0  0  0  0  0  0  0  # atno 17342 bound_to 10162
  140.7645  143.3251  151.2535 LP  0  0  0  0  0  0  0  0  0  0  0  0  # atno 17343 bound_to 10162
  156.4145  130.3940  149.6868 LP  0  0  0  0  0  0  0  0  0  0  0  0  # atno 17370 bound_to 10713
  156.4140  130.7736  151.2750 LP  0  0  0  0  0  0  0  0  0  0  0  0  # atno 17371 bound_to 10713
  140.0315  134.9899  157.0789 LP  0  0  0  0  0  0  0  0  0  0  0  0  # atno 17394 bound_to 11000
  140.4278  134.1813  155.7167 LP  0  0  0  0  0  0  0  0  0  0  0  0  # atno 17395 bound_to 11000

$$$$
