AV-unprocessed.smi:1091|AV-procd|sdf|4736|dock1
  -GOLD-   22720 3273D 1   1.00000     0.00000
 Structure written by MMmdl.
 38 39  0  0  0  0  0  0  0  0  1 V2000
  146.3660  139.2095  154.0132 O   0  0  0  0  0  0  0  0  0  0  0  0
  147.1987  138.5315  153.4158 C   0  0  0  0  0  0  0  0  0  0  0  0
  148.5332  138.6535  153.5583 N   0  0  0  0  0  0  0  0  0  0  0  0
  149.2612  139.5446  154.3915 C   0  0  0  0  0  0  0  0  0  0  0  0
  148.5328  140.4901  155.1407 C   0  0  0  0  0  0  0  0  0  0  0  0
  149.2249  141.3792  155.9844 C   0  0  0  0  0  0  0  0  0  0  0  0
  150.6288  141.2891  156.0594 C   0  0  0  0  0  0  0  0  0  0  0  0
  151.3032  142.1676  156.8819 O   0  0  0  0  0  0  0  0  0  0  0  0
  150.5657  142.8644  157.8830 C   0  0  0  0  0  0  0  0  0  0  0  0
  151.5300  143.7084  158.7247 C   0  0  0  0  0  0  0  0  0  0  0  0
  152.1883  144.5508  157.9292 F   0  0  0  0  0  0  0  0  0  0  0  0
  150.8537  144.4155  159.6299 F   0  0  0  0  0  0  0  0  0  0  0  0
  152.4133  142.9227  159.3400 F   0  0  0  0  0  0  0  0  0  0  0  0
  151.3378  140.3711  155.3573 N   0  0  0  0  0  0  0  0  0  0  0  0
  150.6684  139.5217  154.5489 C   0  0  0  0  0  0  0  0  0  0  0  0
  146.8208  137.5635  152.5606 N   0  0  0  0  0  0  0  0  0  0  0  0
  145.4660  137.1617  152.1733 C   0  0  0  0  0  0  0  0  0  0  0  0
  144.5866  137.0746  153.4349 C   0  0  0  0  0  0  0  0  0  0  0  0
  143.1224  136.7454  153.1089 C   0  0  0  0  0  0  0  0  0  0  0  0
  142.9735  135.1192  152.3208 S   0  0  0  0  0  0  0  0  0  0  0  0
  144.0998  135.3923  150.9260 C   0  0  0  0  0  0  0  0  0  0  0  0
  145.4934  135.8208  151.4083 C   0  0  0  0  0  0  0  0  0  0  0  0
  149.0910  137.9779  153.0566 H   0  0  0  0  0  0  0  0  0  0  0  0
  147.4562  140.5404  155.0672 H   0  0  0  0  0  0  0  0  0  0  0  0
  148.6891  142.1180  156.5618 H   0  0  0  0  0  0  0  0  0  0  0  0
  149.8196  143.5121  157.4195 H   0  0  0  0  0  0  0  0  0  0  0  0
  150.0409  142.1567  158.5273 H   0  0  0  0  0  0  0  0  0  0  0  0
  151.2903  138.8025  154.0398 H   0  0  0  0  0  0  0  0  0  0  0  0
  147.5674  137.0322  152.1360 H   0  0  0  0  0  0  0  0  0  0  0  0
  145.0376  137.9313  151.5288 H   0  0  0  0  0  0  0  0  0  0  0  0
  144.9864  136.3253  154.1198 H   0  0  0  0  0  0  0  0  0  0  0  0
  144.6217  138.0256  153.9682 H   0  0  0  0  0  0  0  0  0  0  0  0
  142.5240  136.7464  154.0200 H   0  0  0  0  0  0  0  0  0  0  0  0
  142.6994  137.5026  152.4479 H   0  0  0  0  0  0  0  0  0  0  0  0
  144.1678  134.4702  150.3487 H   0  0  0  0  0  0  0  0  0  0  0  0
  143.6747  136.1507  150.2677 H   0  0  0  0  0  0  0  0  0  0  0  0
  146.1501  135.9011  150.5416 H   0  0  0  0  0  0  0  0  0  0  0  0
  145.9191  135.0395  152.0393 H   0  0  0  0  0  0  0  0  0  0  0  0
  1  2  2  0  0  0  0
  2  3  1  0  0  0  0
  2 16  1  0  0  0  0
  3  4  1  0  0  0  0
  3 23  1  0  0  0  0
  4 15  1  0  0  0  0
  4  5  2  0  0  0  0
  5  6  1  0  0  0  0
  5 24  1  0  0  0  0
  6  7  2  0  0  0  0
  6 25  1  0  0  0  0
  7  8  1  0  0  0  0
  7 14  1  0  0  0  0
  8  9  1  0  0  0  0
  9 10  1  0  0  0  0
  9 26  1  0  0  0  0
  9 27  1  0  0  0  0
 10 11  1  0  0  0  0
 10 12  1  0  0  0  0
 10 13  1  0  0  0  0
 14 15  2  0  0  0  0
 15 28  1  0  0  0  0
 16 17  1  0  0  0  0
 16 29  1  0  0  0  0
 17 22  1  0  0  0  0
 17 18  1  0  0  0  0
 17 30  1  0  0  0  0
 18 19  1  0  0  0  0
 18 31  1  0  0  0  0
 18 32  1  0  0  0  0
 19 20  1  0  0  0  0
 19 33  1  0  0  0  0
 19 34  1  0  0  0  0
 20 21  1  0  0  0  0
 21 22  1  0  0  0  0
 21 35  1  0  0  0  0
 21 36  1  0  0  0  0
 22 37  1  0  0  0  0
 22 38  1  0  0  0  0
M  END
> <s_m_source_file>
AV-unprocessed.smi

> <i_m_source_file_index>
1091

> <i_lp_mmshare_version>
43012

> <i_f3d_flags>
0

> <s_epik_input>
W0NIMl0xW0NIMl1TW0NIMl1bQ0gyXVtDSF0xW05IXUMoPU8pW05IXWMyW2NIXVtjSF1jKG5bY0hdMilPW0NIMl1DKEYpKEYpRg==

> <s_epik_cmdline>
J2VwaWtfcHl0aG9uJywgJy1waCcsICc3LjAnLCAnLXRuJywgJzgnLCAnLW1hJywgJzIwMCcsICctbWV0YWxfYmluZGluZycsICctaW1hZScsICc8aW5maWxlLm1hZT4nLCAnLW9tYWUnLCAnPG91dGZpbGUubWFlPic=

> <r_lp_tautomer_probability>
1

> <r_epik_Ionization_Penalty>
4.01219e-05

> <r_epik_Ionization_Penalty_Charging>
0

> <r_epik_Ionization_Penalty_Neutral>
4.01219e-05

> <r_epik_State_Penalty>
-0

> <r_epik_Charging_Adjusted_Penalty>
0

> <i_epik_Tot_Q>
0

> <i_epik_Tot_abs_Q>
0

> <r_epik_Metal_State_Penalty>
-0

> <b_epik_Metal_Only>
0

> <s_lp_Force_Field>
OPLS_2005

> <r_lp_Energy>
17.6645

> <b_lp_Chiralities_Consistent>
1

> <s_lp_Variant>
AV-unprocessed.smi:1091-1

> <Gold.Version>
5.8.1

> <Gold.Id.Protein>
6NUR|6NUR_protein|mol2

> <Gold.PLP.Fitness>
48.1822

> <Gold.PLP.PLP>
-43.5525

> <Gold.PLP.part.hbond>
-4.0000

> <Gold.PLP.part.metal>
0.0000

> <Gold.PLP.part.buried>
-4.0813

> <Gold.PLP.part.nonpolar>
-37.3914

> <Gold.PLP.part.repulsive>
0.3316

> <Gold.PLP.ligand.clash>
0.0000

> <Gold.PLP.ligand.torsion>
0.4024

> <Gold.PLP.Chemscore.Hbond>
1.7579

> <Gold.PLP.Chemscore.CHOScore>
0.0000

> <Gold.PLP.Chemscore.Metal>
0.0000

> <Gold.Chemscore.Hbonds>
donor molecule, donor type, donor heavy atom, donor atom, acceptor molecule, acceptor atom, score
      L1  H     3    23       P1  7948  0.74
      L1  H    16    29       P1  7948  1.00

> <Gold.PLP.Chemscore.Internal.Correction>
0.1607

> <Gold.Rescore>
     Score         DG    S(hbond)    S(metal)    S(lipo)     H(rot)  DE(clash)    DE(int)     intcor
     12.95     -16.06       1.91        0.00      72.51       1.67       0.20       2.91       ----

> <Gold.Chemscore.Fitness>
12.9538

> <Gold.Chemscore.DG>
-16.0578

> <Gold.Chemscore.ZeroCoef>
-5.4800

> <Gold.Chemscore.Hbond>
1.9062

> <Gold.Chemscore.Metal>
0.0000

> <Gold.Chemscore.Lipo>
72.5120

> <Gold.Chemscore.Internal_Hbond>
0.0000

> <Gold.Chemscore.DEClash>
0.1990

> <Gold.Chemscore.DEInternal>
2.9050

> <Gold.Chemscore.Rot>
1.6691

> <Gold.Chemscore.Internal.Correction>
   9.000000E+99

> <Gold.Chemscore.Hbonds>
donor molecule, donor type, donor heavy atom, donor atom, acceptor molecule, acceptor atom, score
      L1  H     3    23       P1  7948  0.71
      L1  H    16    29       P1  7948  0.99

> <Gold.Chemscore.Hbond.Weighted>
-6.3668

> <Gold.Chemscore.Metal.Weighted>
-0.0000

> <Gold.Chemscore.Lipo.Weighted>
-8.4839

> <Gold.Chemscore.Internal_Hbond.Weighted>
0.0000

> <Gold.Chemscore.DEClash.Weighted>
0.1990

> <Gold.Chemscore.DEInternal.Weighted>
2.9050

> <Gold.Chemscore.Rot.Weighted>
4.2729

> <Gold.Chemscore.Internal.Correction.Weighted>
   9.000000E+99

> <Gold.Protein.RotatedTorsions>
[ 6907 6896 6895 6894 ] final -152.69 input  -60.11 | X-H torsion
[ 7974 7965 7964 7962 ] final -109.76 input  175.53 | X-H torsion
[ 8008 7997 7996 7995 ] final  -64.03 input   59.86 | X-H torsion
[ 10167 10162 10161 10158 ] final -133.84 input  -65.29 | X-H torsion
[ 10718 10713 10712 10709 ] final  -22.37 input   66.30 | X-H torsion
[ 10763 10752 10751 10750 ] final -175.47 input  -60.55 | X-H torsion
[ 11005 11000 10999 10996 ] final  -81.94 input  -57.11 | X-H torsion

> <Gold.Protein.ActiveResidues>
 VAL166  LYS551  ARG553  GLY616  TRP617  ASP618  TYR619  PRO620  LYS621  CYS622 
 ASP623  PHE694  ASN695  SER759  ASP760  ASP761  ALA762  ILE779  LEU786  VAL792 
 PHE793  MET794  SER795  GLU796  ALA797  LYS798  CYS799  TRP800  GLU811  SER814 

> <Gold.Protein.RotatedAtoms>
  151.2315  133.4448  159.2603 H   0  0  0  0  0  0  0  0  0  0  0  0  # atno 6907 bound_to 6896
  151.0790  134.9846  159.8357 H   0  0  0  0  0  0  0  0  0  0  0  0  # atno 6908 bound_to 6896
  152.5422  134.2256  159.8857 H   0  0  0  0  0  0  0  0  0  0  0  0  # atno 6909 bound_to 6896
  145.1765  140.8951  143.3504 H   0  0  0  0  0  0  0  0  0  0  0  0  # atno 7974 bound_to 7965
  154.4588  140.0962  156.6834 H   0  0  0  0  0  0  0  0  0  0  0  0  # atno 8008 bound_to 7997
  155.5057  140.3475  155.4361 H   0  0  0  0  0  0  0  0  0  0  0  0  # atno 8009 bound_to 7997
  156.0830  140.1378  156.9677 H   0  0  0  0  0  0  0  0  0  0  0  0  # atno 8010 bound_to 7997
  139.8941  143.6687  152.2607 H   0  0  0  0  0  0  0  0  0  0  0  0  # atno 10167 bound_to 10162
  156.5054  130.4598  149.6677 H   0  0  0  0  0  0  0  0  0  0  0  0  # atno 10718 bound_to 10713
  154.5840  135.2839  155.0704 H   0  0  0  0  0  0  0  0  0  0  0  0  # atno 10763 bound_to 10752
  154.2030  135.6421  153.5096 H   0  0  0  0  0  0  0  0  0  0  0  0  # atno 10764 bound_to 10752
  153.0098  135.5473  154.6503 H   0  0  0  0  0  0  0  0  0  0  0  0  # atno 10765 bound_to 10752
  141.1665  133.7220  156.8497 H   0  0  0  0  0  0  0  0  0  0  0  0  # atno 11005 bound_to 11000
  145.0179  139.3450  143.6087 LP  0  0  0  0  0  0  0  0  0  0  0  0  # atno 17320 bound_to 7965
  146.3460  139.9468  142.8734 LP  0  0  0  0  0  0  0  0  0  0  0  0  # atno 17321 bound_to 7965
  139.7083  144.7624  151.1155 LP  0  0  0  0  0  0  0  0  0  0  0  0  # atno 17342 bound_to 10162
  140.7720  143.5364  150.9363 LP  0  0  0  0  0  0  0  0  0  0  0  0  # atno 17343 bound_to 10162
  156.3291  130.7322  151.2248 LP  0  0  0  0  0  0  0  0  0  0  0  0  # atno 17370 bound_to 10713
  157.7457  131.0434  150.4745 LP  0  0  0  0  0  0  0  0  0  0  0  0  # atno 17371 bound_to 10713
  140.1925  134.8956  157.3076 LP  0  0  0  0  0  0  0  0  0  0  0  0  # atno 17394 bound_to 11000
  140.2275  134.3949  155.7537 LP  0  0  0  0  0  0  0  0  0  0  0  0  # atno 17395 bound_to 11000

$$$$
