AV-unprocessed.smi:94|AV-procd|sdf|853|dock1
  -GOLD-   2262017293D 1   1.00000     0.00000
 Structure written by MMmdl.
 53 55  0  0  0  0  0  0  0  0  1 V2000
  155.1277  138.5360  160.7634 C   0  0  0  0  0  0  0  0  0  0  0  0
  154.2533  138.9235  159.7135 O   0  0  0  0  0  0  0  0  0  0  0  0
  153.6008  140.1360  159.8134 C   0  0  0  0  0  0  0  0  0  0  0  0
  153.9974  141.1613  160.7102 C   0  0  0  0  0  0  0  0  0  0  0  0
  153.2994  142.3822  160.7628 C   0  0  0  0  0  0  0  0  0  0  0  0
  152.1970  142.6024  159.9167 C   0  0  0  0  0  0  0  0  0  0  0  0
  151.4423  143.9150  159.9564 C   0  0  0  0  0  0  0  0  0  0  0  0
  151.7977  141.5937  159.0219 C   0  0  0  0  0  0  0  0  0  0  0  0
  152.4826  140.3554  158.9701 C   0  0  0  0  0  0  0  0  0  0  0  0
  152.0306  139.2680  157.9937 C   0  0  2  0  0  0  0  0  0  0  0  0
  151.8045  139.8538  156.5899 C   0  0  0  0  0  0  0  0  0  0  0  0
  150.8230  138.6019  158.4680 N   0  0  0  0  0  0  0  0  0  0  0  0
  150.6704  137.3093  158.7956 C   0  0  0  0  0  0  0  0  0  0  0  0
  151.5778  136.4832  158.7112 O   0  0  0  0  0  0  0  0  0  0  0  0
  149.2840  136.8700  159.3046 C   0  0  0  0  0  0  0  0  0  0  0  0
  149.2137  135.4505  159.7309 N   0  0  0  0  0  0  0  0  0  0  0  0
  148.9262  135.1664  161.0894 C   0  0  0  0  0  0  0  0  0  0  0  0
  148.7592  136.0696  161.9099 O   0  0  0  0  0  0  0  0  0  0  0  0
  148.8332  133.7519  161.4310 C   0  0  0  0  0  0  0  0  0  0  0  0
  148.5911  133.3877  162.7015 F   0  0  0  0  0  0  0  0  0  0  0  0
  148.9814  132.7992  160.4882 C   0  0  0  0  0  0  0  0  0  0  0  0
  149.2203  133.0882  159.1590 N   0  0  0  0  0  0  0  0  0  0  0  0
  149.3695  131.9467  158.1777 C   0  0  1  0  0  0  0  0  0  0  0  0
  148.4319  132.0549  156.9660 C   0  0  0  0  0  0  0  0  0  0  0  0
  149.2992  131.4742  155.8703 C   0  0  0  0  0  0  0  0  0  0  0  0
  150.6902  131.9452  156.2816 C   0  0  0  0  0  0  0  0  0  0  0  0
  150.6859  131.9099  157.7068 O   0  0  0  0  0  0  0  0  0  0  0  0
  149.3759  134.4352  158.7566 C   0  0  0  0  0  0  0  0  0  0  0  0
  149.6271  134.7265  157.5868 O   0  0  0  0  0  0  0  0  0  0  0  0
  155.5555  137.5605  160.5324 H   0  0  0  0  0  0  0  0  0  0  0  0
  154.5962  138.4462  161.7118 H   0  0  0  0  0  0  0  0  0  0  0  0
  155.9540  139.2392  160.8753 H   0  0  0  0  0  0  0  0  0  0  0  0
  154.8402  141.0375  161.3729 H   0  0  0  0  0  0  0  0  0  0  0  0
  153.6183  143.1497  161.4525 H   0  0  0  0  0  0  0  0  0  0  0  0
  151.6727  144.5066  159.0701 H   0  0  0  0  0  0  0  0  0  0  0  0
  151.7086  144.4996  160.8379 H   0  0  0  0  0  0  0  0  0  0  0  0
  150.3665  143.7359  159.9798 H   0  0  0  0  0  0  0  0  0  0  0  0
  150.9572  141.7867  158.3711 H   0  0  0  0  0  0  0  0  0  0  0  0
  152.8141  138.5103  157.9377 H   0  0  0  0  0  0  0  0  0  0  0  0
  152.7139  140.3205  156.2102 H   0  0  0  0  0  0  0  0  0  0  0  0
  151.0209  140.6123  156.5994 H   0  0  0  0  0  0  0  0  0  0  0  0
  151.5131  139.0826  155.8763 H   0  0  0  0  0  0  0  0  0  0  0  0
  150.0125  139.1939  158.5747 H   0  0  0  0  0  0  0  0  0  0  0  0
  149.0003  137.5321  160.1239 H   0  0  0  0  0  0  0  0  0  0  0  0
  148.5489  137.0868  158.5282 H   0  0  0  0  0  0  0  0  0  0  0  0
  148.8999  131.7665  160.7946 H   0  0  0  0  0  0  0  0  0  0  0  0
  149.1911  131.0336  158.7471 H   0  0  0  0  0  0  0  0  0  0  0  0
  147.5105  131.4974  157.1346 H   0  0  0  0  0  0  0  0  0  0  0  0
  148.1773  133.0909  156.7458 H   0  0  0  0  0  0  0  0  0  0  0  0
  149.2514  130.3848  155.8927 H   0  0  0  0  0  0  0  0  0  0  0  0
  149.0125  131.8099  154.8733 H   0  0  0  0  0  0  0  0  0  0  0  0
  151.4818  131.3182  155.8714 H   0  0  0  0  0  0  0  0  0  0  0  0
  150.8636  132.9669  155.9434 H   0  0  0  0  0  0  0  0  0  0  0  0
  1  2  1  0  0  0  0
  1 30  1  0  0  0  0
  1 31  1  0  0  0  0
  1 32  1  0  0  0  0
  2  3  1  0  0  0  0
  3  9  1  0  0  0  0
  3  4  2  0  0  0  0
  4  5  1  0  0  0  0
  4 33  1  0  0  0  0
  5  6  2  0  0  0  0
  5 34  1  0  0  0  0
  6  7  1  0  0  0  0
  6  8  1  0  0  0  0
  7 35  1  0  0  0  0
  7 36  1  0  0  0  0
  7 37  1  0  0  0  0
  8  9  2  0  0  0  0
  8 38  1  0  0  0  0
  9 10  1  0  0  0  0
 10 11  1  0  0  0  0
 10 12  1  0  0  0  0
 10 39  1  0  0  0  0
 11 40  1  0  0  0  0
 11 41  1  0  0  0  0
 11 42  1  0  0  0  0
 12 13  1  0  0  0  0
 12 43  1  0  0  0  0
 13 14  2  0  0  0  0
 13 15  1  0  0  0  0
 15 16  1  0  0  0  0
 15 44  1  0  0  0  0
 15 45  1  0  0  0  0
 16 28  1  0  0  0  0
 16 17  1  0  0  0  0
 17 18  2  0  0  0  0
 17 19  1  0  0  0  0
 19 20  1  0  0  0  0
 19 21  2  0  0  0  0
 21 22  1  0  0  0  0
 21 46  1  0  0  0  0
 22 23  1  0  0  0  0
 22 28  1  0  0  0  0
 23 27  1  0  0  0  0
 23 24  1  0  0  0  0
 23 47  1  0  0  0  0
 24 25  1  0  0  0  0
 24 48  1  0  0  0  0
 24 49  1  0  0  0  0
 25 26  1  0  0  0  0
 25 50  1  0  0  0  0
 25 51  1  0  0  0  0
 26 27  1  0  0  0  0
 26 52  1  0  0  0  0
 26 53  1  0  0  0  0
 28 29  2  0  0  0  0
M  END
> <s_m_source_file>
AV-unprocessed.smi

> <i_m_source_file_index>
94

> <i_lp_mmshare_version>
43012

> <i_f3d_flags>
0

> <s_epik_input>
W0NIM11PYzFbY0hdW2NIXWMoW0NIM10pW2NIXWMxW0NASF0oW0NIM10pW05IXUMoPU8pW0NIMl1uMmMoPU8pYyhGKVtjSF1uKGMyPU8pW0NAQEhdM1tDSDJdW0NIMl1bQ0gyXU8z

> <s_epik_cmdline>
J2VwaWtfcHl0aG9uJywgJy1waCcsICc3LjAnLCAnLXRuJywgJzgnLCAnLW1hJywgJzIwMCcsICctbWV0YWxfYmluZGluZycsICctaW1hZScsICc8aW5maWxlLm1hZT4nLCAnLW9tYWUnLCAnPG91dGZpbGUubWFlPic=

> <r_lp_tautomer_probability>
1

> <r_epik_Ionization_Penalty>
3.37009e-08

> <r_epik_Ionization_Penalty_Charging>
3.59856e-09

> <r_epik_Ionization_Penalty_Neutral>
3.01024e-08

> <r_epik_State_Penalty>
-0

> <r_epik_Charging_Adjusted_Penalty>
3.59856e-09

> <i_epik_Tot_Q>
0

> <i_epik_Tot_abs_Q>
0

> <r_epik_Metal_State_Penalty>
-0

> <b_epik_Metal_Only>
0

> <s_epik_Chemistry_Notes>
This compound contains an acetal/aminal-like group ( X-CH(R)-Y where X, Y are N, S, or O) that may be acid/base labile, releasing an aldehyde.

> <s_lp_Force_Field>
OPLS_2005

> <r_lp_Energy>
25.2965

> <b_lp_Chiralities_Consistent>
1

> <s_lp_Variant>
AV-unprocessed.smi:94-3

> <Gold.Version>
5.8.1

> <Gold.Id.Protein>
6NUR|6NUR_protein|mol2

> <Gold.PLP.Fitness>
60.0799

> <Gold.PLP.PLP>
-49.8313

> <Gold.PLP.part.hbond>
-4.1587

> <Gold.PLP.part.metal>
0.0000

> <Gold.PLP.part.buried>
-4.0966

> <Gold.PLP.part.nonpolar>
-41.2765

> <Gold.PLP.part.repulsive>
0.1066

> <Gold.PLP.ligand.clash>
0.0000

> <Gold.PLP.ligand.torsion>
0.6538

> <Gold.PLP.Chemscore.Hbond>
3.7920

> <Gold.PLP.Chemscore.CHOScore>
0.0000

> <Gold.PLP.Chemscore.Metal>
0.0000

> <Gold.Chemscore.Hbonds>
donor molecule, donor type, donor heavy atom, donor atom, acceptor molecule, acceptor atom, score
      P1  H  6896  6907       L1    14  0.62
      P1  H  6896  6909       L1    27  0.24
      P1  H  6931  6943       L1    18  0.62

> <Gold.PLP.Chemscore.Internal.Correction>
0.1802

> <Gold.Rescore>
     Score         DG    S(hbond)    S(metal)    S(lipo)     H(rot)  DE(clash)    DE(int)     intcor
     19.08     -23.31       3.45        0.00     104.99       2.34       0.05       4.18       ----

> <Gold.Chemscore.Fitness>
19.0791

> <Gold.Chemscore.DG>
-23.3089

> <Gold.Chemscore.ZeroCoef>
-5.4800

> <Gold.Chemscore.Hbond>
3.4516

> <Gold.Chemscore.Metal>
0.0000

> <Gold.Chemscore.Lipo>
104.9851

> <Gold.Chemscore.Internal_Hbond>
0.0000

> <Gold.Chemscore.DEClash>
0.0453

> <Gold.Chemscore.DEInternal>
4.1845

> <Gold.Chemscore.Rot>
2.3370

> <Gold.Chemscore.Internal.Correction>
   9.000000E+99

> <Gold.Chemscore.Hbonds>
donor molecule, donor type, donor heavy atom, donor atom, acceptor molecule, acceptor atom, score
      P1  H  6896  6907       L1    14  0.37
      P1  H  6896  6909       L1    27  0.01
      P1  H  6931  6943       L1    18  0.63

> <Gold.Chemscore.Hbond.Weighted>
-11.5283

> <Gold.Chemscore.Metal.Weighted>
-0.0000

> <Gold.Chemscore.Lipo.Weighted>
-12.2833

> <Gold.Chemscore.Internal_Hbond.Weighted>
0.0000

> <Gold.Chemscore.DEClash.Weighted>
0.0453

> <Gold.Chemscore.DEInternal.Weighted>
4.1845

> <Gold.Chemscore.Rot.Weighted>
5.9827

> <Gold.Chemscore.Internal.Correction.Weighted>
   9.000000E+99

> <Gold.Protein.RotatedTorsions>
[ 6907 6896 6895 6894 ] final  -29.73 input  -60.11 | X-H torsion
[ 7974 7965 7964 7962 ] final   56.43 input  175.53 | X-H torsion
[ 8008 7997 7996 7995 ] final   -0.72 input   59.86 | X-H torsion
[ 10167 10162 10161 10158 ] final -160.95 input  -65.29 | X-H torsion
[ 10718 10713 10712 10709 ] final   26.04 input   66.30 | X-H torsion
[ 10763 10752 10751 10750 ] final -111.77 input  -60.55 | X-H torsion
[ 11005 11000 10999 10996 ] final   66.55 input  -57.11 | X-H torsion

> <Gold.Protein.ActiveResidues>
 VAL166  LYS551  ARG553  GLY616  TRP617  ASP618  TYR619  PRO620  LYS621  CYS622 
 ASP623  PHE694  ASN695  SER759  ASP760  ASP761  ALA762  ILE779  LEU786  VAL792 
 PHE793  MET794  SER795  GLU796  ALA797  LYS798  CYS799  TRP800  GLU811  SER814 

> <Gold.Protein.RotatedAtoms>
  151.1151  135.0048  159.8512 H   0  0  0  0  0  0  0  0  0  0  0  0  # atno 6907 bound_to 6896
  152.5445  134.1789  159.8637 H   0  0  0  0  0  0  0  0  0  0  0  0  # atno 6908 bound_to 6896
  151.1842  133.4661  159.2627 H   0  0  0  0  0  0  0  0  0  0  0  0  # atno 6909 bound_to 6896
  145.9399  139.3879  143.0370 H   0  0  0  0  0  0  0  0  0  0  0  0  # atno 7974 bound_to 7965
  154.6548  140.2577  155.7173 H   0  0  0  0  0  0  0  0  0  0  0  0  # atno 8008 bound_to 7997
  156.2592  140.2860  156.0918 H   0  0  0  0  0  0  0  0  0  0  0  0  # atno 8009 bound_to 7997
  155.1396  140.0380  157.2785 H   0  0  0  0  0  0  0  0  0  0  0  0  # atno 8010 bound_to 7997
  139.6501  144.0099  152.2155 H   0  0  0  0  0  0  0  0  0  0  0  0  # atno 10167 bound_to 10162
  157.2015  130.6892  149.6190 H   0  0  0  0  0  0  0  0  0  0  0  0  # atno 10718 bound_to 10713
  154.8316  135.4515  154.1090 H   0  0  0  0  0  0  0  0  0  0  0  0  # atno 10763 bound_to 10752
  153.2357  135.6910  153.7845 H   0  0  0  0  0  0  0  0  0  0  0  0  # atno 10764 bound_to 10752
  153.7211  135.3341  155.3243 H   0  0  0  0  0  0  0  0  0  0  0  0  # atno 10765 bound_to 10752
  139.9825  134.6721  156.0237 H   0  0  0  0  0  0  0  0  0  0  0  0  # atno 11005 bound_to 11000
  145.8314  140.9629  143.0847 LP  0  0  0  0  0  0  0  0  0  0  0  0  # atno 17320 bound_to 7965
  144.6777  140.0167  143.7484 LP  0  0  0  0  0  0  0  0  0  0  0  0  # atno 17321 bound_to 7965
  139.9811  144.6427  150.7900 LP  0  0  0  0  0  0  0  0  0  0  0  0  # atno 17342 bound_to 10162
  140.7534  143.3007  151.3088 LP  0  0  0  0  0  0  0  0  0  0  0  0  # atno 17343 bound_to 10162
  155.9700  130.4581  150.5987 LP  0  0  0  0  0  0  0  0  0  0  0  0  # atno 17370 bound_to 10713
  157.3762  131.0773  151.1516 LP  0  0  0  0  0  0  0  0  0  0  0  0  # atno 17371 bound_to 10713
  141.1495  133.6550  156.3969 LP  0  0  0  0  0  0  0  0  0  0  0  0  # atno 17394 bound_to 11000
  140.5068  134.6433  157.5269 LP  0  0  0  0  0  0  0  0  0  0  0  0  # atno 17395 bound_to 11000

$$$$
