AV-unprocessed.smi:1925|AV-procd|sdf|7793|dock4
  -GOLD-   22720 9533D 1   1.00000     0.00000
 Structure written by MMmdl.
 31 32  0  0  0  0  0  0  0  0  1 V2000
  144.8552  136.8029  152.8964 O   0  0  0  0  0  0  0  0  0  0  0  0
  146.0098  136.6480  152.4978 C   0  0  0  0  0  0  0  0  0  0  0  0
  147.0019  137.5121  152.7562 N   0  0  0  0  0  0  0  0  0  0  0  0
  146.8577  138.7500  153.5146 C   0  0  0  0  0  0  0  0  0  0  0  0
  148.1069  139.6453  153.4031 C   0  0  1  0  0  0  0  0  0  0  0  0
  147.9272  141.0373  153.9989 C   0  0  0  0  0  0  0  0  0  0  0  0
  149.2599  141.3295  154.6964 C   0  0  0  0  0  0  0  0  0  0  0  0
  150.1303  140.2787  154.3023 O   0  0  0  0  0  0  0  0  0  0  0  0
  149.3367  139.1167  154.1406 C   0  0  0  0  0  0  0  0  0  0  0  0
  146.4450  135.6167  151.7528 N   0  0  0  0  0  0  0  0  0  0  0  0
  145.7019  134.5061  151.2712 C   0  0  0  0  0  0  0  0  0  0  0  0
  146.4687  133.5030  150.6362 C   0  0  0  0  0  0  0  0  0  0  0  0
  145.8259  132.3599  150.1231 C   0  0  0  0  0  0  0  0  0  0  0  0
  144.4307  132.2484  150.2594 C   0  0  0  0  0  0  0  0  0  0  0  0
  143.7423  133.2915  150.9056 C   0  0  0  0  0  0  0  0  0  0  0  0
  144.3565  134.3880  151.3979 N   0  0  0  0  0  0  0  0  0  0  0  0
  147.9209  137.3059  152.3930 H   0  0  0  0  0  0  0  0  0  0  0  0
  145.9725  139.2924  153.1779 H   0  0  0  0  0  0  0  0  0  0  0  0
  146.6783  138.4859  154.5572 H   0  0  0  0  0  0  0  0  0  0  0  0
  148.3731  139.7658  152.3517 H   0  0  0  0  0  0  0  0  0  0  0  0
  147.7120  141.7681  153.2185 H   0  0  0  0  0  0  0  0  0  0  0  0
  147.1099  141.0725  154.7201 H   0  0  0  0  0  0  0  0  0  0  0  0
  149.6714  142.3015  154.4236 H   0  0  0  0  0  0  0  0  0  0  0  0
  149.1372  141.3045  155.7800 H   0  0  0  0  0  0  0  0  0  0  0  0
  149.0726  138.7137  155.1198 H   0  0  0  0  0  0  0  0  0  0  0  0
  149.8653  138.3455  153.5800 H   0  0  0  0  0  0  0  0  0  0  0  0
  147.4200  135.6313  151.4928 H   0  0  0  0  0  0  0  0  0  0  0  0
  147.5399  133.6047  150.5395 H   0  0  0  0  0  0  0  0  0  0  0  0
  146.3940  131.5830  149.6334 H   0  0  0  0  0  0  0  0  0  0  0  0
  143.9022  131.3869  149.8789 H   0  0  0  0  0  0  0  0  0  0  0  0
  142.6706  133.2448  151.0308 H   0  0  0  0  0  0  0  0  0  0  0  0
  1  2  2  0  0  0  0
  2  3  1  0  0  0  0
  2 10  1  0  0  0  0
  3  4  1  0  0  0  0
  3 17  1  0  0  0  0
  4  5  1  0  0  0  0
  4 18  1  0  0  0  0
  4 19  1  0  0  0  0
  5  9  1  0  0  0  0
  5  6  1  0  0  0  0
  5 20  1  0  0  0  0
  6  7  1  0  0  0  0
  6 21  1  0  0  0  0
  6 22  1  0  0  0  0
  7  8  1  0  0  0  0
  7 23  1  0  0  0  0
  7 24  1  0  0  0  0
  8  9  1  0  0  0  0
  9 25  1  0  0  0  0
  9 26  1  0  0  0  0
 10 11  1  0  0  0  0
 10 27  1  0  0  0  0
 11 16  1  0  0  0  0
 11 12  2  0  0  0  0
 12 13  1  0  0  0  0
 12 28  1  0  0  0  0
 13 14  2  0  0  0  0
 13 29  1  0  0  0  0
 14 15  1  0  0  0  0
 14 30  1  0  0  0  0
 15 16  2  0  0  0  0
 15 31  1  0  0  0  0
M  END
> <s_m_source_file>
AV-unprocessed.smi

> <i_m_source_file_index>
1925

> <i_lp_mmshare_version>
43012

> <i_f3d_flags>
0

> <s_epik_input>
bjFbY0hdW2NIXVtjSF1bY0hdYzFbTkhdQyg9TylbTkhdW0NIMl1bQ0BASF0yW0NIMl1bQ0gyXU9bQ0gyXTI=

> <s_epik_cmdline>
J2VwaWtfcHl0aG9uJywgJy1waCcsICc3LjAnLCAnLXRuJywgJzgnLCAnLW1hJywgJzIwMCcsICctbWV0YWxfYmluZGluZycsICctaW1hZScsICc8aW5maWxlLm1hZT4nLCAnLW9tYWUnLCAnPG91dGZpbGUubWFlPic=

> <r_lp_tautomer_probability>
1

> <r_epik_Ionization_Penalty>
4.81143e-05

> <r_epik_Ionization_Penalty_Charging>
0

> <r_epik_Ionization_Penalty_Neutral>
4.81143e-05

> <r_epik_State_Penalty>
-0

> <r_epik_Charging_Adjusted_Penalty>
0

> <i_epik_Tot_Q>
0

> <i_epik_Tot_abs_Q>
0

> <r_epik_Metal_State_Penalty>
-0

> <b_epik_Metal_Only>
0

> <s_lp_Force_Field>
OPLS_2005

> <r_lp_Energy>
20.4602

> <b_lp_Chiralities_Consistent>
1

> <s_lp_Variant>
AV-unprocessed.smi:1925-2

> <Gold.Version>
5.8.1

> <Gold.Id.Protein>
6NUR|6NUR_protein|mol2

> <Gold.PLP.Fitness>
40.2915

> <Gold.PLP.PLP>
-28.6377

> <Gold.PLP.part.hbond>
-2.9443

> <Gold.PLP.part.metal>
0.0000

> <Gold.PLP.part.buried>
-1.2116

> <Gold.PLP.part.nonpolar>
-25.2362

> <Gold.PLP.part.repulsive>
0.5397

> <Gold.PLP.ligand.clash>
0.0000

> <Gold.PLP.ligand.torsion>
0.1139

> <Gold.PLP.Chemscore.Hbond>
2.9600

> <Gold.PLP.Chemscore.CHOScore>
1.0000

> <Gold.PLP.Chemscore.Metal>
0.0000

> <Gold.Chemscore.Hbonds>
donor molecule, donor type, donor heavy atom, donor atom, acceptor molecule, acceptor atom, score
      L1  H     3    17       P1  7948  0.99
      L1  H    10    27       P1  7948  0.96
      P1  H  7989  7998       L1     8  0.96
      L1  C    15    31       P1 10186  0.90

> <Gold.PLP.Chemscore.Internal.Correction>
0.0017

> <Gold.Rescore>
     Score         DG    S(hbond)    S(metal)    S(lipo)     H(rot)  DE(clash)    DE(int)     intcor
     17.50     -19.15       2.74        0.00      66.28       1.27       0.32       1.34       ----

> <Gold.Chemscore.Fitness>
17.4955

> <Gold.Chemscore.DG>
-19.1549

> <Gold.Chemscore.ZeroCoef>
-5.4800

> <Gold.Chemscore.Hbond>
2.7441

> <Gold.Chemscore.Metal>
0.0000

> <Gold.Chemscore.Lipo>
66.2830

> <Gold.Chemscore.Internal_Hbond>
0.0000

> <Gold.Chemscore.DEClash>
0.3193

> <Gold.Chemscore.DEInternal>
1.3400

> <Gold.Chemscore.Rot>
1.2678

> <Gold.Chemscore.Internal.Correction>
   9.000000E+99

> <Gold.Chemscore.Hbonds>
donor molecule, donor type, donor heavy atom, donor atom, acceptor molecule, acceptor atom, score
      L1  H     3    17       P1  7948  0.90
      L1  H    10    27       P1  7948  0.90
      P1  H  7989  7998       L1     8  0.79

> <Gold.Chemscore.Hbond.Weighted>
-9.1652

> <Gold.Chemscore.Metal.Weighted>
-0.0000

> <Gold.Chemscore.Lipo.Weighted>
-7.7551

> <Gold.Chemscore.Internal_Hbond.Weighted>
0.0000

> <Gold.Chemscore.DEClash.Weighted>
0.3193

> <Gold.Chemscore.DEInternal.Weighted>
1.3400

> <Gold.Chemscore.Rot.Weighted>
3.2455

> <Gold.Chemscore.Internal.Correction.Weighted>
   9.000000E+99

> <Gold.Protein.RotatedTorsions>
[ 6907 6896 6895 6894 ] final  114.01 input  -60.11 | X-H torsion
[ 7974 7965 7964 7962 ] final  -67.27 input  175.53 | X-H torsion
[ 8008 7997 7996 7995 ] final  140.99 input   59.86 | X-H torsion
[ 10167 10162 10161 10158 ] final   -7.03 input  -65.29 | X-H torsion
[ 10718 10713 10712 10709 ] final -162.12 input   66.30 | X-H torsion
[ 10763 10752 10751 10750 ] final -131.16 input  -60.55 | X-H torsion
[ 11005 11000 10999 10996 ] final  159.81 input  -57.11 | X-H torsion

> <Gold.Protein.ActiveResidues>
 VAL166  LYS551  ARG553  GLY616  TRP617  ASP618  TYR619  PRO620  LYS621  CYS622 
 ASP623  PHE694  ASN695  SER759  ASP760  ASP761  ALA762  ILE779  LEU786  VAL792 
 PHE793  MET794  SER795  GLU796  ALA797  LYS798  CYS799  TRP800  GLU811  SER814 

> <Gold.Protein.RotatedAtoms>
  152.4827  133.8296  159.7095 H   0  0  0  0  0  0  0  0  0  0  0  0  # atno 6907 bound_to 6896
  150.8890  133.7259  159.2916 H   0  0  0  0  0  0  0  0  0  0  0  0  # atno 6908 bound_to 6896
  151.4739  135.1051  159.9811 H   0  0  0  0  0  0  0  0  0  0  0  0  # atno 6909 bound_to 6896
  145.7313  140.8996  143.0579 H   0  0  0  0  0  0  0  0  0  0  0  0  # atno 7974 bound_to 7965
  156.2972  140.2327  156.4492 H   0  0  0  0  0  0  0  0  0  0  0  0  # atno 8008 bound_to 7997
  154.8117  140.0442  157.1368 H   0  0  0  0  0  0  0  0  0  0  0  0  # atno 8009 bound_to 7997
  154.9416  140.3030  155.5121 H   0  0  0  0  0  0  0  0  0  0  0  0  # atno 8010 bound_to 7997
  140.7016  143.6127  150.8688 H   0  0  0  0  0  0  0  0  0  0  0  0  # atno 10167 bound_to 10162
  156.6058  130.8830  151.2925 H   0  0  0  0  0  0  0  0  0  0  0  0  # atno 10718 bound_to 10713
  154.8752  135.3839  154.4201 H   0  0  0  0  0  0  0  0  0  0  0  0  # atno 10763 bound_to 10752
  153.4906  135.7030  153.5891 H   0  0  0  0  0  0  0  0  0  0  0  0  # atno 10764 bound_to 10752
  153.4267  135.3888  155.2112 H   0  0  0  0  0  0  0  0  0  0  0  0  # atno 10765 bound_to 10752
  140.1998  134.8346  157.3005 H   0  0  0  0  0  0  0  0  0  0  0  0  # atno 11005 bound_to 11000
  144.6892  139.9334  143.7472 LP  0  0  0  0  0  0  0  0  0  0  0  0  # atno 17320 bound_to 7965
  146.0535  139.3534  143.0625 LP  0  0  0  0  0  0  0  0  0  0  0  0  # atno 17321 bound_to 7965
  139.9850  143.5910  152.2930 LP  0  0  0  0  0  0  0  0  0  0  0  0  # atno 17342 bound_to 10162
  139.6544  144.7662  151.2084 LP  0  0  0  0  0  0  0  0  0  0  0  0  # atno 17343 bound_to 10162
  157.7267  130.9633  150.1668 LP  0  0  0  0  0  0  0  0  0  0  0  0  # atno 17370 bound_to 10713
  156.2430  130.3693  149.8315 LP  0  0  0  0  0  0  0  0  0  0  0  0  # atno 17371 bound_to 10713
  140.2067  134.4188  155.7634 LP  0  0  0  0  0  0  0  0  0  0  0  0  # atno 17394 bound_to 11000
  141.2227  133.7098  156.8272 LP  0  0  0  0  0  0  0  0  0  0  0  0  # atno 17395 bound_to 11000

$$$$
