AV-unprocessed.smi:1964|AV-procd|sdf|7929|dock5
  -GOLD-   2272010103D 1   1.00000     0.00000
 Structure written by MMmdl.
 46 48  0  0  0  0  0  0  0  0  1 V2000
  144.6751  135.7710  162.6023 C   0  0  0  0  0  0  0  0  0  0  0  0
  145.4495  134.4421  162.5559 C   0  0  1  0  0  0  0  0  0  0  0  0
  144.6808  133.3707  161.7526 C   0  0  0  0  0  0  0  0  0  0  0  0
  145.4307  132.0285  161.7372 C   0  0  0  0  0  0  0  0  0  0  0  0
  146.8640  132.1899  161.2074 C   0  0  0  0  0  0  0  0  0  0  0  0
  147.6356  133.2573  162.0043 C   0  0  0  0  0  0  0  0  0  0  0  0
  146.8949  134.6104  162.0250 C   0  0  1  0  0  0  0  0  0  0  0  0
  146.8769  135.1923  160.6872 N   0  0  0  0  0  0  0  0  0  0  0  0
  147.4037  136.3659  160.3034 C   0  0  0  0  0  0  0  0  0  0  0  0
  147.9901  137.1235  161.0748 O   0  0  0  0  0  0  0  0  0  0  0  0
  147.2603  136.7541  158.8201 C   0  0  0  0  0  0  0  0  0  0  0  0
  148.4700  137.3832  158.2371 N   0  0  0  0  0  0  0  0  0  0  0  0
  149.5783  136.5563  157.9197 C   0  0  0  0  0  0  0  0  0  0  0  0
  149.5515  135.3451  158.1433 O   0  0  0  0  0  0  0  0  0  0  0  0
  150.7179  137.2376  157.3103 C   0  0  0  0  0  0  0  0  0  0  0  0
  151.8677  136.4479  157.0164 C   0  0  0  0  0  0  0  0  0  0  0  0
  152.7923  135.8029  156.7547 N   0  0  0  0  0  0  0  0  0  0  0  0
  150.6721  138.5572  157.0343 C   0  0  0  0  0  0  0  0  0  0  0  0
  149.5618  139.3299  157.2957 N   0  0  0  0  0  0  0  0  0  0  0  0
  149.5715  140.7512  157.0941 C   0  0  0  0  0  0  0  0  0  0  0  0
  149.5328  141.3232  155.6897 C   0  0  0  0  0  0  0  0  0  0  0  0
  150.8034  141.3982  156.4990 C   0  0  0  0  0  0  0  0  0  0  0  0
  148.4481  138.7723  157.9598 C   0  0  0  0  0  0  0  0  0  0  0  0
  147.4782  139.4664  158.2738 O   0  0  0  0  0  0  0  0  0  0  0  0
  144.5178  136.1835  161.6053 H   0  0  0  0  0  0  0  0  0  0  0  0
  145.2112  136.5166  163.1897 H   0  0  0  0  0  0  0  0  0  0  0  0
  143.6947  135.6354  163.0590 H   0  0  0  0  0  0  0  0  0  0  0  0
  145.5240  134.0852  163.5844 H   0  0  0  0  0  0  0  0  0  0  0  0
  143.6890  133.2256  162.1819 H   0  0  0  0  0  0  0  0  0  0  0  0
  144.5216  133.7119  160.7284 H   0  0  0  0  0  0  0  0  0  0  0  0
  145.4607  131.6169  162.7469 H   0  0  0  0  0  0  0  0  0  0  0  0
  144.8879  131.3071  161.1259 H   0  0  0  0  0  0  0  0  0  0  0  0
  147.3891  131.2359  161.2621 H   0  0  0  0  0  0  0  0  0  0  0  0
  146.8357  132.4633  160.1516 H   0  0  0  0  0  0  0  0  0  0  0  0
  147.7738  132.9088  163.0286 H   0  0  0  0  0  0  0  0  0  0  0  0
  148.6369  133.3803  161.5896 H   0  0  0  0  0  0  0  0  0  0  0  0
  147.4276  135.2860  162.6968 H   0  0  0  0  0  0  0  0  0  0  0  0
  146.4148  134.6444  159.9764 H   0  0  0  0  0  0  0  0  0  0  0  0
  146.9804  135.8598  158.2618 H   0  0  0  0  0  0  0  0  0  0  0  0
  146.3913  137.4062  158.7202 H   0  0  0  0  0  0  0  0  0  0  0  0
  151.5330  139.0266  156.5801 H   0  0  0  0  0  0  0  0  0  0  0  0
  149.0536  141.3312  157.8558 H   0  0  0  0  0  0  0  0  0  0  0  0
  149.5224  140.6314  154.8497 H   0  0  0  0  0  0  0  0  0  0  0  0
  148.9755  142.2455  155.5398 H   0  0  0  0  0  0  0  0  0  0  0  0
  151.0952  142.3720  156.8869 H   0  0  0  0  0  0  0  0  0  0  0  0
  151.6255  140.7537  156.1932 H   0  0  0  0  0  0  0  0  0  0  0  0
  1  2  1  0  0  0  0
  1 25  1  0  0  0  0
  1 26  1  0  0  0  0
  1 27  1  0  0  0  0
  2  7  1  0  0  0  0
  2  3  1  0  0  0  0
  2 28  1  0  0  0  0
  3  4  1  0  0  0  0
  3 29  1  0  0  0  0
  3 30  1  0  0  0  0
  4  5  1  0  0  0  0
  4 31  1  0  0  0  0
  4 32  1  0  0  0  0
  5  6  1  0  0  0  0
  5 33  1  0  0  0  0
  5 34  1  0  0  0  0
  6  7  1  0  0  0  0
  6 35  1  0  0  0  0
  6 36  1  0  0  0  0
  7  8  1  0  0  0  0
  7 37  1  0  0  0  0
  8  9  1  0  0  0  0
  8 38  1  0  0  0  0
  9 10  2  0  0  0  0
  9 11  1  0  0  0  0
 11 12  1  0  0  0  0
 11 39  1  0  0  0  0
 11 40  1  0  0  0  0
 12 23  1  0  0  0  0
 12 13  1  0  0  0  0
 13 14  2  0  0  0  0
 13 15  1  0  0  0  0
 15 16  1  0  0  0  0
 15 18  2  0  0  0  0
 16 17  3  0  0  0  0
 18 19  1  0  0  0  0
 18 41  1  0  0  0  0
 19 20  1  0  0  0  0
 19 23  1  0  0  0  0
 20 22  1  0  0  0  0
 20 21  1  0  0  0  0
 20 42  1  0  0  0  0
 21 22  1  0  0  0  0
 21 43  1  0  0  0  0
 21 44  1  0  0  0  0
 22 45  1  0  0  0  0
 22 46  1  0  0  0  0
 23 24  2  0  0  0  0
M  END
> <s_m_source_file>
AV-unprocessed.smi

> <i_m_source_file_index>
1964

> <i_lp_mmshare_version>
43012

> <i_f3d_flags>
0

> <s_epik_input>
W0NIM11bQ0BASF0xW0NIMl1bQ0gyXVtDSDJdW0NIMl1bQ0BIXTFbTkhdQyg9TylbQ0gyXW4yYyg9TyljKEMjTilbY0hdbihjMj1PKVtDSF0zW0NIMl1bQ0gyXTM=

> <s_epik_cmdline>
J2VwaWtfcHl0aG9uJywgJy1waCcsICc3LjAnLCAnLXRuJywgJzgnLCAnLW1hJywgJzIwMCcsICctbWV0YWxfYmluZGluZycsICctaW1hZScsICc8aW5maWxlLm1hZT4nLCAnLW9tYWUnLCAnPG91dGZpbGUubWFlPic=

> <r_lp_tautomer_probability>
1

> <r_epik_Ionization_Penalty>
1.91372e-08

> <r_epik_Ionization_Penalty_Charging>
9.0283e-11

> <r_epik_Ionization_Penalty_Neutral>
1.90469e-08

> <r_epik_State_Penalty>
-0

> <r_epik_Charging_Adjusted_Penalty>
9.0283e-11

> <i_epik_Tot_Q>
0

> <i_epik_Tot_abs_Q>
0

> <r_epik_Metal_State_Penalty>
-0

> <b_epik_Metal_Only>
0

> <s_lp_Force_Field>
OPLS_2005

> <r_lp_Energy>
33.6562

> <b_lp_Chiralities_Consistent>
1

> <s_lp_Variant>
AV-unprocessed.smi:1964-2

> <Gold.Version>
5.8.1

> <Gold.Id.Protein>
6NUR|6NUR_protein|mol2

> <Gold.PLP.Fitness>
44.8666

> <Gold.PLP.PLP>
-34.6781

> <Gold.PLP.part.hbond>
-5.0000

> <Gold.PLP.part.metal>
0.0000

> <Gold.PLP.part.buried>
-5.1705

> <Gold.PLP.part.nonpolar>
-24.6548

> <Gold.PLP.part.repulsive>
0.0235

> <Gold.PLP.ligand.clash>
0.0000

> <Gold.PLP.ligand.torsion>
0.5555

> <Gold.PLP.Chemscore.Hbond>
3.7040

> <Gold.PLP.Chemscore.CHOScore>
0.0000

> <Gold.PLP.Chemscore.Metal>
0.0000

> <Gold.Chemscore.Hbonds>
donor molecule, donor type, donor heavy atom, donor atom, acceptor molecule, acceptor atom, score
      P1  H  6896  6908       L1    14  1.00
      P1  H  6931  6943       L1    10  1.00
      P1  H  6934  6947       L1    10  0.68
      P1  H 10752 10764       L1    17  1.00

> <Gold.PLP.Chemscore.Internal.Correction>
0.1875

> <Gold.Rescore>
     Score         DG    S(hbond)    S(metal)    S(lipo)     H(rot)  DE(clash)    DE(int)     intcor
     21.22     -21.81       3.63        0.00      73.17       1.70       0.01       0.58       ----

> <Gold.Chemscore.Fitness>
21.2218

> <Gold.Chemscore.DG>
-21.8087

> <Gold.Chemscore.ZeroCoef>
-5.4800

> <Gold.Chemscore.Hbond>
3.6315

> <Gold.Chemscore.Metal>
0.0000

> <Gold.Chemscore.Lipo>
73.1715

> <Gold.Chemscore.Internal_Hbond>
0.0000

> <Gold.Chemscore.DEClash>
0.0073

> <Gold.Chemscore.DEInternal>
0.5795

> <Gold.Chemscore.Rot>
1.7038

> <Gold.Chemscore.Internal.Correction>
   9.000000E+99

> <Gold.Chemscore.Hbonds>
donor molecule, donor type, donor heavy atom, donor atom, acceptor molecule, acceptor atom, score
      P1  H  6896  6908       L1    14  0.95
      P1  H  6931  6943       L1    10  0.94
      P1  H  6934  6947       L1    10  0.49
      P1  H 10752 10764       L1    17  0.98

> <Gold.Chemscore.Hbond.Weighted>
-12.1294

> <Gold.Chemscore.Metal.Weighted>
-0.0000

> <Gold.Chemscore.Lipo.Weighted>
-8.5611

> <Gold.Chemscore.Internal_Hbond.Weighted>
0.0000

> <Gold.Chemscore.DEClash.Weighted>
0.0073

> <Gold.Chemscore.DEInternal.Weighted>
0.5795

> <Gold.Chemscore.Rot.Weighted>
4.3618

> <Gold.Chemscore.Internal.Correction.Weighted>
   9.000000E+99

> <Gold.Protein.RotatedTorsions>
[ 6907 6896 6895 6894 ] final  170.46 input  -60.11 | X-H torsion
[ 7974 7965 7964 7962 ] final   13.50 input  175.53 | X-H torsion
[ 8008 7997 7996 7995 ] final  154.19 input   59.86 | X-H torsion
[ 10167 10162 10161 10158 ] final  -14.65 input  -65.29 | X-H torsion
[ 10718 10713 10712 10709 ] final -149.74 input   66.30 | X-H torsion
[ 10763 10752 10751 10750 ] final  -22.49 input  -60.55 | X-H torsion
[ 11005 11000 10999 10996 ] final -118.68 input  -57.11 | X-H torsion

> <Gold.Protein.ActiveResidues>
 VAL166  LYS551  ARG553  GLY616  TRP617  ASP618  TYR619  PRO620  LYS621  CYS622 
 ASP623  PHE694  ASN695  SER759  ASP760  ASP761  ALA762  ILE779  LEU786  VAL792 
 PHE793  MET794  SER795  GLU796  ALA797  LYS798  CYS799  TRP800  GLU811  SER814 

> <Gold.Protein.RotatedAtoms>
  151.8157  133.3387  159.3568 H   0  0  0  0  0  0  0  0  0  0  0  0  # atno 6907 bound_to 6896
  150.7311  134.5621  159.5857 H   0  0  0  0  0  0  0  0  0  0  0  0  # atno 6908 bound_to 6896
  152.3042  134.7575  160.0402 H   0  0  0  0  0  0  0  0  0  0  0  0  # atno 6909 bound_to 6896
  146.2328  139.9180  142.8514 H   0  0  0  0  0  0  0  0  0  0  0  0  # atno 7974 bound_to 7965
  156.2543  140.1973  156.6608 H   0  0  0  0  0  0  0  0  0  0  0  0  # atno 8008 bound_to 7997
  154.6466  140.0577  156.9932 H   0  0  0  0  0  0  0  0  0  0  0  0  # atno 8009 bound_to 7997
  155.1482  140.3249  155.4439 H   0  0  0  0  0  0  0  0  0  0  0  0  # atno 8010 bound_to 7997
  140.7205  143.5299  150.9532 H   0  0  0  0  0  0  0  0  0  0  0  0  # atno 10167 bound_to 10162
  156.4371  130.8104  151.2332 H   0  0  0  0  0  0  0  0  0  0  0  0  # atno 10718 bound_to 10713
  153.6528  135.6980  153.5203 H   0  0  0  0  0  0  0  0  0  0  0  0  # atno 10763 bound_to 10752
  153.2693  135.4220  155.0971 H   0  0  0  0  0  0  0  0  0  0  0  0  # atno 10764 bound_to 10752
  154.8472  135.3574  154.6072 H   0  0  0  0  0  0  0  0  0  0  0  0  # atno 10765 bound_to 10752
  141.0269  134.0040  157.3201 H   0  0  0  0  0  0  0  0  0  0  0  0  # atno 11005 bound_to 11000
  145.2164  140.9917  143.4070 LP  0  0  0  0  0  0  0  0  0  0  0  0  # atno 17320 bound_to 7965
  144.9647  139.3943  143.6338 LP  0  0  0  0  0  0  0  0  0  0  0  0  # atno 17321 bound_to 7965
  139.9019  143.6825  152.3130 LP  0  0  0  0  0  0  0  0  0  0  0  0  # atno 17342 bound_to 10162
  139.7178  144.7608  151.1005 LP  0  0  0  0  0  0  0  0  0  0  0  0  # atno 17343 bound_to 10162
  157.7507  131.0180  150.3608 LP  0  0  0  0  0  0  0  0  0  0  0  0  # atno 17370 bound_to 10713
  156.3957  130.3906  149.6996 LP  0  0  0  0  0  0  0  0  0  0  0  0  # atno 17371 bound_to 10713
  139.9182  135.0198  156.7962 LP  0  0  0  0  0  0  0  0  0  0  0  0  # atno 17394 bound_to 11000
  140.6476  133.9761  155.7738 LP  0  0  0  0  0  0  0  0  0  0  0  0  # atno 17395 bound_to 11000

$$$$
