AV-unprocessed.smi:3187|AV-procd|sdf|12180|dock6
  -GOLD-   2272018 23D 1   1.00000     0.00000
 Structure written by MMmdl.
 42 43  0  0  0  0  0  0  0  0  3 V2000
  151.8326  144.9518  158.7890 C   0  0  0  0  0  0  0  0  0  0  0  0
  152.1935  143.5768  159.3263 C   0  0  0  0  0  0  0  0  0  0  0  0
  152.7879  143.4650  160.5297 C   0  0  0  0  0  0  0  0  0  0  0  0
  153.2578  142.1602  161.1298 C   0  0  0  0  0  0  0  0  0  0  0  0
  153.4511  141.0973  160.0461 C   0  0  0  0  0  0  0  0  0  0  0  0
  152.2190  140.9967  159.1321 C   0  0  2  0  0  0  0  0  0  0  0  0
  152.4268  139.8545  158.1183 C   0  0  0  0  0  0  0  0  0  0  0  0
  151.8777  142.3535  158.4410 C   0  0  1  0  0  0  0  0  0  0  0  0
  150.4090  142.3399  157.9394 C   0  0  0  0  0  0  0  0  0  0  0  0
  150.3047  142.2706  156.4653 N   0  3  0  0  0  0  0  0  0  0  0  0
  149.1922  141.4428  155.9517 C   0  0  0  0  0  0  0  0  0  0  0  0
  149.5579  140.6935  154.6584 C   0  0  0  0  0  0  0  0  0  0  0  0
  148.3650  140.2786  153.9159 N   0  0  0  0  0  0  0  0  0  0  0  0
  148.1042  139.0382  153.3912 C   0  0  0  0  0  0  0  0  0  0  0  0
  146.8754  139.1194  152.7878 C   0  0  0  0  0  0  0  0  0  0  0  0
  146.4385  140.4046  152.9691 N   0  3  0  0  0  0  0  0  0  0  0  0
  147.3451  141.1077  153.6559 C   0  0  0  0  0  0  0  0  0  0  0  0
  152.2198  145.0813  157.7781 H   0  0  0  0  0  0  0  0  0  0  0  0
  152.2585  145.7426  159.4079 H   0  0  0  0  0  0  0  0  0  0  0  0
  150.7526  145.0957  158.7787 H   0  0  0  0  0  0  0  0  0  0  0  0
  152.9698  144.3474  161.1261 H   0  0  0  0  0  0  0  0  0  0  0  0
  154.1987  142.3260  161.6553 H   0  0  0  0  0  0  0  0  0  0  0  0
  152.5287  141.8329  161.8717 H   0  0  0  0  0  0  0  0  0  0  0  0
  154.3301  141.3433  159.4483 H   0  0  0  0  0  0  0  0  0  0  0  0
  153.6582  140.1353  160.5166 H   0  0  0  0  0  0  0  0  0  0  0  0
  151.3773  140.7225  159.7705 H   0  0  0  0  0  0  0  0  0  0  0  0
  153.2552  140.0720  157.4433 H   0  0  0  0  0  0  0  0  0  0  0  0
  151.5435  139.6704  157.5086 H   0  0  0  0  0  0  0  0  0  0  0  0
  152.6582  138.9189  158.6284 H   0  0  0  0  0  0  0  0  0  0  0  0
  152.5346  142.4461  157.5745 H   0  0  0  0  0  0  0  0  0  0  0  0
  149.8710  141.4852  158.3438 H   0  0  0  0  0  0  0  0  0  0  0  0
  149.8909  143.2278  158.3049 H   0  0  0  0  0  0  0  0  0  0  0  0
  150.1616  143.2139  156.1327 H   0  0  0  0  0  0  0  0  0  0  0  0
  148.8638  140.7474  156.7255 H   0  0  0  0  0  0  0  0  0  0  0  0
  148.3516  142.1092  155.7558 H   0  0  0  0  0  0  0  0  0  0  0  0
  150.1679  141.3204  154.0056 H   0  0  0  0  0  0  0  0  0  0  0  0
  150.1359  139.7940  154.8719 H   0  0  0  0  0  0  0  0  0  0  0  0
  148.7930  138.2104  153.4822 H   0  0  0  0  0  0  0  0  0  0  0  0
  146.2947  138.3792  152.2566 H   0  0  0  0  0  0  0  0  0  0  0  0
  147.2661  142.1416  153.9419 H   0  0  0  0  0  0  0  0  0  0  0  0
  151.1772  141.9296  156.0872 H   0  0  0  0  0  0  0  0  0  0  0  0
  145.5574  140.7719  152.6313 H   0  0  0  0  0  0  0  0  0  0  0  0
  1  2  1  0  0  0  0
  1 18  1  0  0  0  0
  1 19  1  0  0  0  0
  1 20  1  0  0  0  0
  2  8  1  0  0  0  0
  2  3  2  0  0  0  0
  3  4  1  0  0  0  0
  3 21  1  0  0  0  0
  4  5  1  0  0  0  0
  4 22  1  0  0  0  0
  4 23  1  0  0  0  0
  5  6  1  0  0  0  0
  5 24  1  0  0  0  0
  5 25  1  0  0  0  0
  6  7  1  0  0  0  0
  6  8  1  0  0  0  0
  6 26  1  0  0  0  0
  7 27  1  0  0  0  0
  7 28  1  0  0  0  0
  7 29  1  0  0  0  0
  8  9  1  0  0  0  0
  8 30  1  0  0  0  0
  9 10  1  0  0  0  0
  9 31  1  0  0  0  0
  9 32  1  0  0  0  0
 10 11  1  0  0  0  0
 10 33  1  0  0  0  0
 10 41  1  0  0  0  0
 11 12  1  0  0  0  0
 11 34  1  0  0  0  0
 11 35  1  0  0  0  0
 12 13  1  0  0  0  0
 12 36  1  0  0  0  0
 12 37  1  0  0  0  0
 13 17  1  0  0  0  0
 13 14  1  0  0  0  0
 14 15  2  0  0  0  0
 14 38  1  0  0  0  0
 15 16  1  0  0  0  0
 15 39  1  0  0  0  0
 16 17  2  0  0  0  0
 16 42  1  0  0  0  0
 17 40  1  0  0  0  0
M  CHG  1  10   1
M  CHG  1  16   1
M  END
> <s_m_source_file>
AV-unprocessed.smi

> <i_m_source_file_index>
3187

> <i_lp_mmshare_version>
43012

> <i_f3d_flags>
0

> <s_epik_input>
W0NIM11DMT1bQ0hdW0NIMl1bQ0gyXVtDQEBIXShbQ0gzXSlbQ0BIXTFbQ0gyXVtOSF1bQ0gyXVtDSDJdbjJbY0hdW2NIXW5bY0hdMg==

> <s_epik_cmdline>
J2VwaWtfcHl0aG9uJywgJy1waCcsICc3LjAnLCAnLXRuJywgJzgnLCAnLW1hJywgJzIwMCcsICctbWV0YWxfYmluZGluZycsICctaW1hZScsICc8aW5maWxlLm1hZT4nLCAnLW9tYWUnLCAnPG91dGZpbGUubWFlPic=

> <r_lp_tautomer_probability>
1

> <r_epik_Ionization_Penalty>
1.51066

> <r_epik_Ionization_Penalty_Charging>
0.0026721

> <r_epik_Ionization_Penalty_Neutral>
1.50798

> <r_epik_State_Penalty>
1.12593

> <r_epik_Charging_Adjusted_Penalty>
1.12861

> <i_epik_Tot_Q>
2

> <i_epik_Tot_abs_Q>
2

> <r_epik_Metal_State_Penalty>
5.12155

> <b_epik_Metal_Only>
0

> <s_lp_Force_Field>
OPLS_2005

> <r_lp_Energy>
26.137

> <b_lp_Chiralities_Consistent>
1

> <s_lp_Variant>
AV-unprocessed.smi:3187-6

> <Gold.Version>
5.8.1

> <Gold.Id.Protein>
6NUR|6NUR_protein|mol2

> <Gold.PLP.Fitness>
53.0937

> <Gold.PLP.PLP>
-41.3340

> <Gold.PLP.part.hbond>
-2.0000

> <Gold.PLP.part.metal>
0.0000

> <Gold.PLP.part.buried>
-2.5723

> <Gold.PLP.part.nonpolar>
-37.0502

> <Gold.PLP.part.repulsive>
0.0742

> <Gold.PLP.ligand.clash>
0.0000

> <Gold.PLP.ligand.torsion>
1.4357

> <Gold.PLP.Chemscore.Hbond>
4.0000

> <Gold.PLP.Chemscore.CHOScore>
0.8411

> <Gold.PLP.Chemscore.Metal>
0.0000

> <Gold.Chemscore.Hbonds>
donor molecule, donor type, donor heavy atom, donor atom, acceptor molecule, acceptor atom, score
      L1  H    10    33       P1  8028  1.98
      L1  H    16    42       P1 10175  1.89
      L1  C    14    38       P1  7948  0.88

> <Gold.PLP.Chemscore.Internal.Correction>
0.1077

> <Gold.Rescore>
     Score         DG    S(hbond)    S(metal)    S(lipo)     H(rot)  DE(clash)    DE(int)     intcor
     19.05     -20.63       1.98        0.00     116.10       1.97       0.06       1.52       ----

> <Gold.Chemscore.Fitness>
19.0488

> <Gold.Chemscore.DG>
-20.6324

> <Gold.Chemscore.ZeroCoef>
-5.4800

> <Gold.Chemscore.Hbond>
1.9821

> <Gold.Chemscore.Metal>
0.0000

> <Gold.Chemscore.Lipo>
116.0975

> <Gold.Chemscore.Internal_Hbond>
0.0000

> <Gold.Chemscore.DEClash>
0.0643

> <Gold.Chemscore.DEInternal>
1.5192

> <Gold.Chemscore.Rot>
1.9732

> <Gold.Chemscore.Internal.Correction>
   9.000000E+99

> <Gold.Chemscore.Hbonds>
donor molecule, donor type, donor heavy atom, donor atom, acceptor molecule, acceptor atom, score
      L1  H    10    33       P1  8028  0.88
      L1  H    16    42       P1 10175  0.27

> <Gold.Chemscore.Hbond.Weighted>
-6.6203

> <Gold.Chemscore.Metal.Weighted>
-0.0000

> <Gold.Chemscore.Lipo.Weighted>
-13.5834

> <Gold.Chemscore.Internal_Hbond.Weighted>
0.0000

> <Gold.Chemscore.DEClash.Weighted>
0.0643

> <Gold.Chemscore.DEInternal.Weighted>
1.5192

> <Gold.Chemscore.Rot.Weighted>
5.0514

> <Gold.Chemscore.Internal.Correction.Weighted>
   9.000000E+99

> <Gold.Protein.RotatedTorsions>
[ 6907 6896 6895 6894 ] final   89.28 input  -60.11 | X-H torsion
[ 7974 7965 7964 7962 ] final   64.63 input  175.53 | X-H torsion
[ 8008 7997 7996 7995 ] final   57.18 input   59.86 | X-H torsion
[ 10167 10162 10161 10158 ] final  -13.93 input  -65.29 | X-H torsion
[ 10718 10713 10712 10709 ] final  176.03 input   66.30 | X-H torsion
[ 10763 10752 10751 10750 ] final  148.94 input  -60.55 | X-H torsion
[ 11005 11000 10999 10996 ] final   79.50 input  -57.11 | X-H torsion

> <Gold.Protein.ActiveResidues>
 VAL166  LYS551  ARG553  GLY616  TRP617  ASP618  TYR619  PRO620  LYS621  CYS622 
 ASP623  PHE694  ASN695  SER759  ASP760  ASP761  ALA762  ILE779  LEU786  VAL792 
 PHE793  MET794  SER795  GLU796  ALA797  LYS798  CYS799  TRP800  GLU811  SER814 

> <Gold.Protein.RotatedAtoms>
  152.5434  134.1990  159.8704 H   0  0  0  0  0  0  0  0  0  0  0  0  # atno 6907 bound_to 6896
  151.1980  133.4620  159.2603 H   0  0  0  0  0  0  0  0  0  0  0  0  # atno 6908 bound_to 6896
  151.1017  134.9988  159.8507 H   0  0  0  0  0  0  0  0  0  0  0  0  # atno 6909 bound_to 6896
  145.8480  139.3236  143.0892 H   0  0  0  0  0  0  0  0  0  0  0  0  # atno 7974 bound_to 7965
  155.5296  140.3482  155.4423 H   0  0  0  0  0  0  0  0  0  0  0  0  # atno 8008 bound_to 7997
  156.0728  140.1367  156.9835 H   0  0  0  0  0  0  0  0  0  0  0  0  # atno 8009 bound_to 7997
  154.4537  140.0962  156.6669 H   0  0  0  0  0  0  0  0  0  0  0  0  # atno 8010 bound_to 7997
  140.7191  143.5375  150.9448 H   0  0  0  0  0  0  0  0  0  0  0  0  # atno 10167 bound_to 10162
  156.9261  130.9956  151.2995 H   0  0  0  0  0  0  0  0  0  0  0  0  # atno 10718 bound_to 10713
  154.0629  135.2872  155.3321 H   0  0  0  0  0  0  0  0  0  0  0  0  # atno 10763 bound_to 10752
  154.6796  135.5268  153.8249 H   0  0  0  0  0  0  0  0  0  0  0  0  # atno 10764 bound_to 10752
  153.0515  135.6578  154.0817 H   0  0  0  0  0  0  0  0  0  0  0  0  # atno 10765 bound_to 10752
  139.9170  134.7848  156.1787 H   0  0  0  0  0  0  0  0  0  0  0  0  # atno 11005 bound_to 11000
  145.9390  140.8993  143.0317 LP  0  0  0  0  0  0  0  0  0  0  0  0  # atno 17320 bound_to 7965
  144.6730  140.1522  143.7429 LP  0  0  0  0  0  0  0  0  0  0  0  0  # atno 17321 bound_to 7965
  139.9097  143.6736  152.3117 LP  0  0  0  0  0  0  0  0  0  0  0  0  # atno 17342 bound_to 10162
  139.7114  144.7619  151.1106 LP  0  0  0  0  0  0  0  0  0  0  0  0  # atno 17343 bound_to 10162
  157.5876  130.8421  149.8612 LP  0  0  0  0  0  0  0  0  0  0  0  0  # atno 17370 bound_to 10713
  156.0468  130.3726  150.1297 LP  0  0  0  0  0  0  0  0  0  0  0  0  # atno 17371 bound_to 10713
  141.0655  133.6821  156.2037 LP  0  0  0  0  0  0  0  0  0  0  0  0  # atno 17394 bound_to 11000
  140.6591  134.4986  157.5582 LP  0  0  0  0  0  0  0  0  0  0  0  0  # atno 17395 bound_to 11000

$$$$
