AV-unprocessed.smi:2636|AV-procd|sdf|10258|dock3
  -GOLD-   2272014263D 1   1.00000     0.00000
 Structure written by MMmdl.
 36 37  0  0  0  0  0  0  0  0  1 V2000
  146.1330  142.0771  154.1916 C   0  0  0  0  0  0  0  0  0  0  0  0
  147.4734  141.3642  154.2529 C   0  0  0  0  0  0  0  0  0  0  0  0
  148.5009  141.8119  155.0188 C   0  0  0  0  0  0  0  0  0  0  0  0
  149.7286  141.1747  155.0991 N   0  0  0  0  0  0  0  0  0  0  0  0
  150.7849  141.6116  156.0031 C   0  0  0  0  0  0  0  0  0  0  0  0
  150.9360  140.7241  157.0727 O   0  0  0  0  0  0  0  0  0  0  0  0
  152.2611  140.2587  157.2986 C   0  0  0  0  0  0  0  0  0  0  0  0
  152.5161  140.1025  158.7850 C   0  0  0  0  0  0  0  0  0  0  0  0
  152.4971  141.0659  159.7277 C   0  0  0  0  0  0  0  0  0  0  0  0
  152.3008  142.5147  159.5471 C   0  0  0  0  0  0  0  0  0  0  0  0
  152.1966  143.1102  158.2691 C   0  0  0  0  0  0  0  0  0  0  0  0
  151.9838  144.4964  158.1399 C   0  0  0  0  0  0  0  0  0  0  0  0
  151.8786  145.3025  159.2885 C   0  0  0  0  0  0  0  0  0  0  0  0
  151.9905  144.7207  160.5652 C   0  0  0  0  0  0  0  0  0  0  0  0
  152.2014  143.3338  160.6919 C   0  0  0  0  0  0  0  0  0  0  0  0
  149.9535  139.9898  154.3683 C   0  0  0  0  0  0  0  0  0  0  0  0
  151.0128  139.3641  154.4098 O   0  0  0  0  0  0  0  0  0  0  0  0
  148.8998  139.5332  153.5782 N   0  0  0  0  0  0  0  0  0  0  0  0
  147.6475  140.1429  153.4602 C   0  0  0  0  0  0  0  0  0  0  0  0
  146.7946  139.6407  152.7301 O   0  0  0  0  0  0  0  0  0  0  0  0
  149.0520  138.6856  153.0514 H   0  0  0  0  0  0  0  0  0  0  0  0
  146.1168  142.9634  154.8265 H   0  0  0  0  0  0  0  0  0  0  0  0
  145.3342  141.4134  154.5246 H   0  0  0  0  0  0  0  0  0  0  0  0
  145.9147  142.3924  153.1707 H   0  0  0  0  0  0  0  0  0  0  0  0
  148.3549  142.7075  155.6058 H   0  0  0  0  0  0  0  0  0  0  0  0
  151.7231  141.6746  155.4486 H   0  0  0  0  0  0  0  0  0  0  0  0
  150.5580  142.6120  156.3756 H   0  0  0  0  0  0  0  0  0  0  0  0
  152.4056  139.2945  156.8100 H   0  0  0  0  0  0  0  0  0  0  0  0
  152.9741  140.9569  156.8697 H   0  0  0  0  0  0  0  0  0  0  0  0
  152.7167  139.0902  159.1041 H   0  0  0  0  0  0  0  0  0  0  0  0
  152.6730  140.7567  160.7478 H   0  0  0  0  0  0  0  0  0  0  0  0
  152.2901  142.5094  157.3766 H   0  0  0  0  0  0  0  0  0  0  0  0
  151.9041  144.9411  157.1590 H   0  0  0  0  0  0  0  0  0  0  0  0
  151.7159  146.3657  159.1904 H   0  0  0  0  0  0  0  0  0  0  0  0
  151.9123  145.3377  161.4482 H   0  0  0  0  0  0  0  0  0  0  0  0
  152.2787  142.8969  161.6771 H   0  0  0  0  0  0  0  0  0  0  0  0
  1  2  1  0  0  0  0
  1 22  1  0  0  0  0
  1 23  1  0  0  0  0
  1 24  1  0  0  0  0
  2 19  1  0  0  0  0
  2  3  2  0  0  0  0
  3  4  1  0  0  0  0
  3 25  1  0  0  0  0
  4  5  1  0  0  0  0
  4 16  1  0  0  0  0
  5  6  1  0  0  0  0
  5 26  1  0  0  0  0
  5 27  1  0  0  0  0
  6  7  1  0  0  0  0
  7  8  1  0  0  0  0
  7 28  1  0  0  0  0
  7 29  1  0  0  0  0
  8  9  2  0  0  0  0
  8 30  1  0  0  0  0
  9 10  1  0  0  0  0
  9 31  1  0  0  0  0
 10 15  1  0  0  0  0
 10 11  2  0  0  0  0
 11 12  1  0  0  0  0
 11 32  1  0  0  0  0
 12 13  2  0  0  0  0
 12 33  1  0  0  0  0
 13 14  1  0  0  0  0
 13 34  1  0  0  0  0
 14 15  2  0  0  0  0
 14 35  1  0  0  0  0
 15 36  1  0  0  0  0
 16 17  2  0  0  0  0
 16 18  1  0  0  0  0
 18 21  1  0  0  0  0
 18 19  1  0  0  0  0
 19 20  2  0  0  0  0
M  END
> <s_m_source_file>
AV-unprocessed.smi

> <i_m_source_file_index>
2636

> <i_lp_mmshare_version>
43012

> <i_f3d_flags>
0

> <s_epik_input>
Tz1jMVtuSF1jKD1PKW4oW2NIXWMxW0NIM10pW0NIMl1PW0NIMl0vW0NIXT1bQ0hdL2MyW2NIXVtjSF1bY0hdW2NIXVtjSF0y

> <s_epik_cmdline>
J2VwaWtfcHl0aG9uJywgJy1waCcsICc3LjAnLCAnLXRuJywgJzgnLCAnLW1hJywgJzIwMCcsICctbWV0YWxfYmluZGluZycsICctaW1hZScsICc8aW5maWxlLm1hZT4nLCAnLW9tYWUnLCAnPG91dGZpbGUubWFlPic=

> <r_lp_tautomer_probability>
0.999537

> <r_epik_Ionization_Penalty>
0.00179702

> <r_epik_Ionization_Penalty_Charging>
0.00179702

> <r_epik_Ionization_Penalty_Neutral>
9.83266e-13

> <r_epik_State_Penalty>
0.00121868

> <r_epik_Charging_Adjusted_Penalty>
0.0030157

> <i_epik_Tot_Q>
0

> <i_epik_Tot_abs_Q>
0

> <r_epik_Metal_State_Penalty>
0.826903

> <b_epik_Metal_Only>
0

> <s_epik_Chemistry_Notes>
This compound contains an acetal/aminal-like group ( X-CH(R)-Y where X, Y are N, S, or O) that may be acid/base labile, releasing an aldehyde.

> <s_lp_Force_Field>
OPLS_2005

> <r_lp_Energy>
2.54145

> <b_lp_Chiralities_Consistent>
1

> <s_lp_Variant>
AV-unprocessed.smi:2636-2

> <Gold.Version>
5.8.1

> <Gold.Id.Protein>
6NUR|6NUR_protein|mol2

> <Gold.PLP.Fitness>
50.7000

> <Gold.PLP.PLP>
-48.8688

> <Gold.PLP.part.hbond>
-2.0000

> <Gold.PLP.part.metal>
0.0000

> <Gold.PLP.part.buried>
-2.2204

> <Gold.PLP.part.nonpolar>
-45.1703

> <Gold.PLP.part.repulsive>
0.5140

> <Gold.PLP.ligand.clash>
0.0000

> <Gold.PLP.ligand.torsion>
0.7084

> <Gold.PLP.Chemscore.Hbond>
0.0500

> <Gold.PLP.Chemscore.CHOScore>
0.9987

> <Gold.PLP.Chemscore.Metal>
0.0000

> <Gold.Chemscore.Hbonds>
donor molecule, donor type, donor heavy atom, donor atom, acceptor molecule, acceptor atom, score
      P1  H  7989  7998       L1    17  0.10
      L1  C     3    25       P1  8028  1.00

> <Gold.PLP.Chemscore.Internal.Correction>
0.1019

> <Gold.Rescore>
     Score         DG    S(hbond)    S(metal)    S(lipo)     H(rot)  DE(clash)    DE(int)     intcor
     12.63     -15.55       0.74        0.00     107.05       1.92       0.15       2.77       ----

> <Gold.Chemscore.Fitness>
12.6292

> <Gold.Chemscore.DG>
-15.5493

> <Gold.Chemscore.ZeroCoef>
-5.4800

> <Gold.Chemscore.Hbond>
0.7375

> <Gold.Chemscore.Metal>
0.0000

> <Gold.Chemscore.Lipo>
107.0548

> <Gold.Chemscore.Internal_Hbond>
0.0000

> <Gold.Chemscore.DEClash>
0.1473

> <Gold.Chemscore.DEInternal>
2.7728

> <Gold.Chemscore.Rot>
1.9216

> <Gold.Chemscore.Internal.Correction>
   9.000000E+99

> <Gold.Chemscore.Hbond.Weighted>
-2.4632

> <Gold.Chemscore.Metal.Weighted>
-0.0000

> <Gold.Chemscore.Lipo.Weighted>
-12.5254

> <Gold.Chemscore.Internal_Hbond.Weighted>
0.0000

> <Gold.Chemscore.DEClash.Weighted>
0.1473

> <Gold.Chemscore.DEInternal.Weighted>
2.7728

> <Gold.Chemscore.Rot.Weighted>
4.9193

> <Gold.Chemscore.Internal.Correction.Weighted>
   9.000000E+99

> <Gold.Protein.RotatedTorsions>
[ 6907 6896 6895 6894 ] final   20.37 input  -60.11 | X-H torsion
[ 7974 7965 7964 7962 ] final   82.60 input  175.53 | X-H torsion
[ 8008 7997 7996 7995 ] final  -79.61 input   59.86 | X-H torsion
[ 10167 10162 10161 10158 ] final   87.90 input  -65.29 | X-H torsion
[ 10718 10713 10712 10709 ] final -115.88 input   66.30 | X-H torsion
[ 10763 10752 10751 10750 ] final  -19.26 input  -60.55 | X-H torsion
[ 11005 11000 10999 10996 ] final  101.43 input  -57.11 | X-H torsion

> <Gold.Protein.ActiveResidues>
 VAL166  LYS551  ARG553  GLY616  TRP617  ASP618  TYR619  PRO620  LYS621  CYS622 
 ASP623  PHE694  ASN695  SER759  ASP760  ASP761  ALA762  ILE779  LEU786  VAL792 
 PHE793  MET794  SER795  GLU796  ALA797  LYS798  CYS799  TRP800  GLU811  SER814 

> <Gold.Protein.RotatedAtoms>
  151.8954  135.0400  160.0501 H   0  0  0  0  0  0  0  0  0  0  0  0  # atno 6907 bound_to 6896
  152.2402  133.5125  159.5274 H   0  0  0  0  0  0  0  0  0  0  0  0  # atno 6908 bound_to 6896
  150.7051  134.1015  159.4010 H   0  0  0  0  0  0  0  0  0  0  0  0  # atno 6909 bound_to 6896
  145.6229  139.2389  143.2128 H   0  0  0  0  0  0  0  0  0  0  0  0  # atno 7974 bound_to 7965
  154.5802  140.0676  156.9092 H   0  0  0  0  0  0  0  0  0  0  0  0  # atno 8008 bound_to 7997
  155.2477  140.3349  155.4267 H   0  0  0  0  0  0  0  0  0  0  0  0  # atno 8009 bound_to 7997
  156.2183  140.1788  156.7521 H   0  0  0  0  0  0  0  0  0  0  0  0  # atno 8010 bound_to 7997
  139.8726  144.6484  150.8932 H   0  0  0  0  0  0  0  0  0  0  0  0  # atno 10167 bound_to 10162
  156.0926  130.6105  150.8964 H   0  0  0  0  0  0  0  0  0  0  0  0  # atno 10718 bound_to 10713
  153.6021  135.6999  153.5380 H   0  0  0  0  0  0  0  0  0  0  0  0  # atno 10763 bound_to 10752
  153.3088  135.4107  155.1317 H   0  0  0  0  0  0  0  0  0  0  0  0  # atno 10764 bound_to 10752
  154.8580  135.3667  154.5557 H   0  0  0  0  0  0  0  0  0  0  0  0  # atno 10765 bound_to 10752
  139.8773  134.9183  156.4906 H   0  0  0  0  0  0  0  0  0  0  0  0  # atno 11005 bound_to 11000
  146.1417  140.7048  142.9364 LP  0  0  0  0  0  0  0  0  0  0  0  0  # atno 17320 bound_to 7965
  144.7224  140.4416  143.6998 LP  0  0  0  0  0  0  0  0  0  0  0  0  # atno 17321 bound_to 7965
  140.7758  143.3651  151.1755 LP  0  0  0  0  0  0  0  0  0  0  0  0  # atno 17342 bound_to 10162
  139.7269  143.9134  152.3006 LP  0  0  0  0  0  0  0  0  0  0  0  0  # atno 17343 bound_to 10162
  157.6079  131.0938  150.8847 LP  0  0  0  0  0  0  0  0  0  0  0  0  # atno 17370 bound_to 10713
  156.8992  130.5240  149.5283 LP  0  0  0  0  0  0  0  0  0  0  0  0  # atno 17371 bound_to 10713
  140.8661  133.8023  155.9315 LP  0  0  0  0  0  0  0  0  0  0  0  0  # atno 17394 bound_to 11000
  140.9000  134.2390  157.5047 LP  0  0  0  0  0  0  0  0  0  0  0  0  # atno 17395 bound_to 11000

$$$$
