AV-unprocessed.smi:3338|AV-procd|sdf|12876|dock5
  -GOLD-   2272019283D 1   1.00000     0.00000
 Structure written by MMmdl.
 44 45  0  0  0  0  0  0  0  0  2 V2000
  145.8994  132.1968  150.0659 C   0  0  0  0  0  0  0  0  0  0  0  0
  146.0559  133.5727  150.7286 C   0  0  1  0  0  0  0  0  0  0  0  0
  144.7343  134.3586  150.7104 C   0  0  0  0  0  0  0  0  0  0  0  0
  144.9133  135.7158  151.4023 C   0  0  0  0  0  0  0  0  0  0  0  0
  145.4707  135.5400  152.8237 C   0  0  0  0  0  0  0  0  0  0  0  0
  146.7487  134.7820  152.8093 N   0  3  1  0  0  0  0  0  0  0  0  0
  147.3760  134.7173  154.1540 C   0  0  0  0  0  0  0  0  0  0  0  0
  147.1121  135.9822  154.9871 C   0  0  0  0  0  0  0  0  0  0  0  0
  147.8049  137.1272  154.4139 N   0  0  0  0  0  0  0  0  0  0  0  0
  147.7089  138.3803  154.8843 C   0  0  0  0  0  0  0  0  0  0  0  0
  146.9973  138.6773  155.8445 O   0  0  0  0  0  0  0  0  0  0  0  0
  148.5380  139.4508  154.1527 C   0  0  1  0  0  0  0  0  0  0  0  0
  147.6698  140.4554  153.3684 C   0  0  0  0  0  0  0  0  0  0  0  0
  149.4420  140.1269  155.0766 N   0  0  0  0  0  0  0  0  0  0  0  0
  149.1147  140.8930  156.1769 C   0  0  0  0  0  0  0  0  0  0  0  0
  150.2811  141.3420  156.7264 C   0  0  0  0  0  0  0  0  0  0  0  0
  151.2857  140.7958  155.8805 C   0  0  0  0  0  0  0  0  0  0  0  0
  150.7819  140.0757  154.8919 N   0  0  0  0  0  0  0  0  0  0  0  0
  146.5832  133.4474  152.1721 C   0  0  0  0  0  0  0  0  0  0  0  0
  145.1763  131.5792  150.5997 H   0  0  0  0  0  0  0  0  0  0  0  0
  146.8475  131.6587  150.0480 H   0  0  0  0  0  0  0  0  0  0  0  0
  145.5575  132.2935  149.0350 H   0  0  0  0  0  0  0  0  0  0  0  0
  146.7912  134.1336  150.1491 H   0  0  0  0  0  0  0  0  0  0  0  0
  144.3955  134.5073  149.6843 H   0  0  0  0  0  0  0  0  0  0  0  0
  143.9541  133.7884  151.2168 H   0  0  0  0  0  0  0  0  0  0  0  0
  145.5898  136.3400  150.8168 H   0  0  0  0  0  0  0  0  0  0  0  0
  143.9596  136.2433  151.4386 H   0  0  0  0  0  0  0  0  0  0  0  0
  145.6287  136.5241  153.2670 H   0  0  0  0  0  0  0  0  0  0  0  0
  144.7450  135.0207  153.4519 H   0  0  0  0  0  0  0  0  0  0  0  0
  146.9665  133.8656  154.6995 H   0  0  0  0  0  0  0  0  0  0  0  0
  148.4470  134.5330  154.0539 H   0  0  0  0  0  0  0  0  0  0  0  0
  146.0472  136.2102  155.0303 H   0  0  0  0  0  0  0  0  0  0  0  0
  147.4530  135.8317  156.0128 H   0  0  0  0  0  0  0  0  0  0  0  0
  148.4073  136.9585  153.6211 H   0  0  0  0  0  0  0  0  0  0  0  0
  149.1575  138.9243  153.4249 H   0  0  0  0  0  0  0  0  0  0  0  0
  147.0449  139.9476  152.6327 H   0  0  0  0  0  0  0  0  0  0  0  0
  148.2937  141.1681  152.8284 H   0  0  0  0  0  0  0  0  0  0  0  0
  147.0114  141.0259  154.0248 H   0  0  0  0  0  0  0  0  0  0  0  0
  148.0890  141.0528  156.4754 H   0  0  0  0  0  0  0  0  0  0  0  0
  150.3994  141.9656  157.6001 H   0  0  0  0  0  0  0  0  0  0  0  0
  152.3580  140.9025  155.9533 H   0  0  0  0  0  0  0  0  0  0  0  0
  145.9019  132.8413  152.7719 H   0  0  0  0  0  0  0  0  0  0  0  0
  147.5362  132.9201  152.1522 H   0  0  0  0  0  0  0  0  0  0  0  0
  147.3807  135.3111  152.2253 H   0  0  0  0  0  0  0  0  0  0  0  0
  1  2  1  0  0  0  0
  1 20  1  0  0  0  0
  1 21  1  0  0  0  0
  1 22  1  0  0  0  0
  2 19  1  0  0  0  0
  2  3  1  0  0  0  0
  2 23  1  0  0  0  0
  3  4  1  0  0  0  0
  3 24  1  0  0  0  0
  3 25  1  0  0  0  0
  4  5  1  0  0  0  0
  4 26  1  0  0  0  0
  4 27  1  0  0  0  0
  5  6  1  0  0  0  0
  5 28  1  0  0  0  0
  5 29  1  0  0  0  0
  6  7  1  0  0  0  0
  6 19  1  0  0  0  0
  6 44  1  0  0  0  0
  7  8  1  0  0  0  0
  7 30  1  0  0  0  0
  7 31  1  0  0  0  0
  8  9  1  0  0  0  0
  8 32  1  0  0  0  0
  8 33  1  0  0  0  0
  9 10  1  0  0  0  0
  9 34  1  0  0  0  0
 10 11  2  0  0  0  0
 10 12  1  0  0  0  0
 12 13  1  0  0  0  0
 12 14  1  0  0  0  0
 12 35  1  0  0  0  0
 13 36  1  0  0  0  0
 13 37  1  0  0  0  0
 13 38  1  0  0  0  0
 14 18  1  0  0  0  0
 14 15  1  0  0  0  0
 15 16  2  0  0  0  0
 15 39  1  0  0  0  0
 16 17  1  0  0  0  0
 16 40  1  0  0  0  0
 17 18  2  0  0  0  0
 17 41  1  0  0  0  0
 19 42  1  0  0  0  0
 19 43  1  0  0  0  0
M  CHG  1   6   1
M  END
> <s_m_source_file>
AV-unprocessed.smi

> <i_m_source_file_index>
3338

> <i_lp_mmshare_version>
43012

> <i_f3d_flags>
0

> <s_epik_input>
W0NIM11bQ0BASF0xW0NIMl1bQ0gyXVtDSDJdTihbQ0gyXTEpW0NIMl1bQ0gyXVtOSF1DKD1PKVtDQEhdKFtDSDNdKW4yW2NIXVtjSF1bY0hdbjI=

> <s_epik_cmdline>
J2VwaWtfcHl0aG9uJywgJy1waCcsICc3LjAnLCAnLXRuJywgJzgnLCAnLW1hJywgJzIwMCcsICctbWV0YWxfYmluZGluZycsICctaW1hZScsICc8aW5maWxlLm1hZT4nLCAnLW9tYWUnLCAnPG91dGZpbGUubWFlPic=

> <r_lp_tautomer_probability>
1

> <r_epik_Ionization_Penalty>
0.00225707

> <r_epik_Ionization_Penalty_Charging>
0.00223709

> <r_epik_Ionization_Penalty_Neutral>
1.99775e-05

> <r_epik_State_Penalty>
0.00153978

> <r_epik_Charging_Adjusted_Penalty>
0.00377687

> <i_epik_Tot_Q>
1

> <i_epik_Tot_abs_Q>
1

> <r_epik_Metal_State_Penalty>
-0

> <b_epik_Metal_Only>
0

> <s_lp_Force_Field>
OPLS_2005

> <r_lp_Energy>
20.7823

> <b_lp_Chiralities_Consistent>
1

> <s_lp_Variant>
AV-unprocessed.smi:3338-8

> <Gold.Version>
5.8.1

> <Gold.Id.Protein>
6NUR|6NUR_protein|mol2

> <Gold.PLP.Fitness>
40.6727

> <Gold.PLP.PLP>
-29.2861

> <Gold.PLP.part.hbond>
-3.0000

> <Gold.PLP.part.metal>
0.0000

> <Gold.PLP.part.buried>
-0.7988

> <Gold.PLP.part.nonpolar>
-25.2103

> <Gold.PLP.part.repulsive>
0.0560

> <Gold.PLP.ligand.clash>
0.0000

> <Gold.PLP.ligand.torsion>
0.3841

> <Gold.PLP.Chemscore.Hbond>
4.0000

> <Gold.PLP.Chemscore.CHOScore>
0.0000

> <Gold.PLP.Chemscore.Metal>
0.0000

> <Gold.Chemscore.Hbonds>
donor molecule, donor type, donor heavy atom, donor atom, acceptor molecule, acceptor atom, score
      L1  H     6    44       P1  7948  2.00
      L1  H     9    34       P1  7948  1.00
      P1  H  7989  7998       L1    18  0.95

> <Gold.PLP.Chemscore.Internal.Correction>
0.1548

> <Gold.Rescore>
     Score         DG    S(hbond)    S(metal)    S(lipo)     H(rot)  DE(clash)    DE(int)     intcor
     16.55     -17.15       2.31        0.00      72.33       1.76       0.30       0.30       ----

> <Gold.Chemscore.Fitness>
16.5464

> <Gold.Chemscore.DG>
-17.1472

> <Gold.Chemscore.ZeroCoef>
-5.4800

> <Gold.Chemscore.Hbond>
2.3060

> <Gold.Chemscore.Metal>
0.0000

> <Gold.Chemscore.Lipo>
72.3325

> <Gold.Chemscore.Internal_Hbond>
0.0000

> <Gold.Chemscore.DEClash>
0.3029

> <Gold.Chemscore.DEInternal>
0.2979

> <Gold.Chemscore.Rot>
1.7570

> <Gold.Chemscore.Internal.Correction>
   9.000000E+99

> <Gold.Chemscore.Hbonds>
donor molecule, donor type, donor heavy atom, donor atom, acceptor molecule, acceptor atom, score
      L1  H     6    44       P1  7948  0.98
      L1  H     9    34       P1  7948  0.97
      P1  H  7989  7998       L1    18  0.21

> <Gold.Chemscore.Hbond.Weighted>
-7.7021

> <Gold.Chemscore.Metal.Weighted>
-0.0000

> <Gold.Chemscore.Lipo.Weighted>
-8.4629

> <Gold.Chemscore.Internal_Hbond.Weighted>
0.0000

> <Gold.Chemscore.DEClash.Weighted>
0.3029

> <Gold.Chemscore.DEInternal.Weighted>
0.2979

> <Gold.Chemscore.Rot.Weighted>
4.4979

> <Gold.Chemscore.Internal.Correction.Weighted>
   9.000000E+99

> <Gold.Protein.RotatedTorsions>
[ 6907 6896 6895 6894 ] final   93.64 input  -60.11 | X-H torsion
[ 7974 7965 7964 7962 ] final   53.91 input  175.53 | X-H torsion
[ 8008 7997 7996 7995 ] final   77.09 input   59.86 | X-H torsion
[ 10167 10162 10161 10158 ] final    3.95 input  -65.29 | X-H torsion
[ 10718 10713 10712 10709 ] final   74.31 input   66.30 | X-H torsion
[ 10763 10752 10751 10750 ] final    0.64 input  -60.55 | X-H torsion
[ 11005 11000 10999 10996 ] final -124.99 input  -57.11 | X-H torsion

> <Gold.Protein.ActiveResidues>
 VAL166  LYS551  ARG553  GLY616  TRP617  ASP618  TYR619  PRO620  LYS621  CYS622 
 ASP623  PHE694  ASN695  SER759  ASP760  ASP761  ALA762  ILE779  LEU786  VAL792 
 PHE793  MET794  SER795  GLU796  ALA797  LYS798  CYS799  TRP800  GLU811  SER814 

> <Gold.Protein.RotatedAtoms>
  152.5452  134.1317  159.8441 H   0  0  0  0  0  0  0  0  0  0  0  0  # atno 6907 bound_to 6896
  151.1362  133.4995  159.2605 H   0  0  0  0  0  0  0  0  0  0  0  0  # atno 6908 bound_to 6896
  151.1622  135.0289  159.8770 H   0  0  0  0  0  0  0  0  0  0  0  0  # atno 6909 bound_to 6896
  145.9663  139.4106  143.0218 H   0  0  0  0  0  0  0  0  0  0  0  0  # atno 7974 bound_to 7965
  155.8367  140.3464  155.5606 H   0  0  0  0  0  0  0  0  0  0  0  0  # atno 8008 bound_to 7997
  155.8184  140.0909  157.1883 H   0  0  0  0  0  0  0  0  0  0  0  0  # atno 8009 bound_to 7997
  154.4004  140.1434  156.3458 H   0  0  0  0  0  0  0  0  0  0  0  0  # atno 8010 bound_to 7997
  140.6560  143.7426  150.7654 H   0  0  0  0  0  0  0  0  0  0  0  0  # atno 10167 bound_to 10162
  157.6586  130.9671  150.1192 H   0  0  0  0  0  0  0  0  0  0  0  0  # atno 10718 bound_to 10713
  153.3181  135.6967  153.7055 H   0  0  0  0  0  0  0  0  0  0  0  0  # atno 10763 bound_to 10752
  153.5906  135.3480  155.2910 H   0  0  0  0  0  0  0  0  0  0  0  0  # atno 10764 bound_to 10752
  154.8591  135.4317  154.2338 H   0  0  0  0  0  0  0  0  0  0  0  0  # atno 10765 bound_to 10752
  140.9797  134.0690  157.3778 H   0  0  0  0  0  0  0  0  0  0  0  0  # atno 11005 bound_to 11000
  145.7970  140.9788  143.1019 LP  0  0  0  0  0  0  0  0  0  0  0  0  # atno 17320 bound_to 7965
  144.6826  139.9753  143.7483 LP  0  0  0  0  0  0  0  0  0  0  0  0  # atno 17321 bound_to 7965
  140.1086  143.4720  152.2383 LP  0  0  0  0  0  0  0  0  0  0  0  0  # atno 17342 bound_to 10162
  139.5783  144.7498  151.3707 LP  0  0  0  0  0  0  0  0  0  0  0  0  # atno 17343 bound_to 10162
  156.2068  130.3664  149.8719 LP  0  0  0  0  0  0  0  0  0  0  0  0  # atno 17370 bound_to 10713
  156.6608  130.8781  151.3547 LP  0  0  0  0  0  0  0  0  0  0  0  0  # atno 17371 bound_to 10713
  139.8945  135.0136  156.6955 LP  0  0  0  0  0  0  0  0  0  0  0  0  # atno 17394 bound_to 11000
  140.7204  133.9145  155.8143 LP  0  0  0  0  0  0  0  0  0  0  0  0  # atno 17395 bound_to 11000

$$$$
