AV-unprocessed.smi:2083|AV-procd|sdf|8494|dock10
  -GOLD-   2272011203D 1   1.00000     0.00000
 Structure written by MMmdl.
 45 46  0  0  0  0  0  0  0  0  2 V2000
  151.8820  140.2945  156.0386 C   0  0  0  0  0  0  0  0  0  0  0  0
  151.5368  138.8923  155.6702 C   0  0  0  0  0  0  0  0  0  0  0  0
  150.5360  138.3482  154.9150 C   0  0  0  0  0  0  0  0  0  0  0  0
  150.8075  136.9557  154.9799 C   0  0  0  0  0  0  0  0  0  0  0  0
  149.9829  136.0197  154.3045 N   0  0  0  0  0  0  0  0  0  0  0  0
  149.6283  134.7928  154.7229 C   0  0  0  0  0  0  0  0  0  0  0  0
  149.9557  134.2859  155.7965 O   0  0  0  0  0  0  0  0  0  0  0  0
  148.8640  134.1653  153.8172 N   0  0  0  0  0  0  0  0  0  0  0  0
  148.3328  132.8151  153.9797 C   0  0  0  0  0  0  0  0  0  0  0  0
  146.7826  132.7724  153.9961 C   0  0  2  0  0  0  0  0  0  0  0  0
  146.2919  131.4444  154.6216 C   0  0  0  0  0  0  0  0  0  0  0  0
  146.2575  133.0369  152.6168 N   0  3  1  0  0  0  0  0  0  0  0  0
  146.3620  131.9116  151.6431 C   0  0  0  0  0  0  0  0  0  0  0  0
  145.9360  132.3473  150.2310 C   0  0  0  0  0  0  0  0  0  0  0  0
  144.5227  132.9419  150.2282 C   0  0  0  0  0  0  0  0  0  0  0  0
  144.3960  134.0682  151.2672 C   0  0  2  0  0  0  0  0  0  0  0  0
  145.1041  135.3646  150.8370 C   0  0  0  0  0  0  0  0  0  0  0  0
  144.8667  133.5763  152.6501 C   0  0  0  0  0  0  0  0  0  0  0  0
  151.8757  136.6748  155.7108 N   0  0  0  0  0  0  0  0  0  0  0  0
  152.3483  137.9145  156.1573 O   0  0  0  0  0  0  0  0  0  0  0  0
  151.3433  141.0056  155.4121 H   0  0  0  0  0  0  0  0  0  0  0  0
  152.9497  140.4770  155.9137 H   0  0  0  0  0  0  0  0  0  0  0  0
  151.6228  140.4950  157.0782 H   0  0  0  0  0  0  0  0  0  0  0  0
  149.7411  138.8665  154.3993 H   0  0  0  0  0  0  0  0  0  0  0  0
  149.6365  136.3126  153.4027 H   0  0  0  0  0  0  0  0  0  0  0  0
  148.6369  134.6493  152.9605 H   0  0  0  0  0  0  0  0  0  0  0  0
  148.7488  132.1852  153.1936 H   0  0  0  0  0  0  0  0  0  0  0  0
  148.7201  132.4140  154.9168 H   0  0  0  0  0  0  0  0  0  0  0  0
  146.4113  133.5693  154.6428 H   0  0  0  0  0  0  0  0  0  0  0  0
  146.7052  131.2958  155.6191 H   0  0  0  0  0  0  0  0  0  0  0  0
  146.5848  130.5844  154.0186 H   0  0  0  0  0  0  0  0  0  0  0  0
  145.2088  131.4265  154.7448 H   0  0  0  0  0  0  0  0  0  0  0  0
  147.3886  131.5552  151.5662 H   0  0  0  0  0  0  0  0  0  0  0  0
  145.7510  131.0740  151.9828 H   0  0  0  0  0  0  0  0  0  0  0  0
  146.6465  133.0779  149.8428 H   0  0  0  0  0  0  0  0  0  0  0  0
  145.9781  131.4946  149.5528 H   0  0  0  0  0  0  0  0  0  0  0  0
  144.2654  133.3063  149.2330 H   0  0  0  0  0  0  0  0  0  0  0  0
  143.8039  132.1549  150.4605 H   0  0  0  0  0  0  0  0  0  0  0  0
  143.3359  134.3117  151.3513 H   0  0  0  0  0  0  0  0  0  0  0  0
  146.1820  135.2311  150.7460 H   0  0  0  0  0  0  0  0  0  0  0  0
  144.9320  136.1616  151.5608 H   0  0  0  0  0  0  0  0  0  0  0  0
  144.7303  135.7125  149.8736 H   0  0  0  0  0  0  0  0  0  0  0  0
  144.1948  132.7928  153.0050 H   0  0  0  0  0  0  0  0  0  0  0  0
  144.7787  134.3931  153.3652 H   0  0  0  0  0  0  0  0  0  0  0  0
  146.8422  133.7694  152.2404 H   0  0  0  0  0  0  0  0  0  0  0  0
  1  2  1  0  0  0  0
  1 21  1  0  0  0  0
  1 22  1  0  0  0  0
  1 23  1  0  0  0  0
  2 20  1  0  0  0  0
  2  3  2  0  0  0  0
  3  4  1  0  0  0  0
  3 24  1  0  0  0  0
  4  5  1  0  0  0  0
  4 19  2  0  0  0  0
  5  6  1  0  0  0  0
  5 25  1  0  0  0  0
  6  7  2  0  0  0  0
  6  8  1  0  0  0  0
  8  9  1  0  0  0  0
  8 26  1  0  0  0  0
  9 10  1  0  0  0  0
  9 27  1  0  0  0  0
  9 28  1  0  0  0  0
 10 11  1  0  0  0  0
 10 12  1  0  0  0  0
 10 29  1  0  0  0  0
 11 30  1  0  0  0  0
 11 31  1  0  0  0  0
 11 32  1  0  0  0  0
 12 18  1  0  0  0  0
 12 13  1  0  0  0  0
 12 45  1  0  0  0  0
 13 14  1  0  0  0  0
 13 33  1  0  0  0  0
 13 34  1  0  0  0  0
 14 15  1  0  0  0  0
 14 35  1  0  0  0  0
 14 36  1  0  0  0  0
 15 16  1  0  0  0  0
 15 37  1  0  0  0  0
 15 38  1  0  0  0  0
 16 17  1  0  0  0  0
 16 18  1  0  0  0  0
 16 39  1  0  0  0  0
 17 40  1  0  0  0  0
 17 41  1  0  0  0  0
 17 42  1  0  0  0  0
 18 43  1  0  0  0  0
 18 44  1  0  0  0  0
 19 20  1  0  0  0  0
M  CHG  1  12   1
M  END
> <s_m_source_file>
AV-unprocessed.smi

> <i_m_source_file_index>
2083

> <i_lp_mmshare_version>
43012

> <i_f3d_flags>
0

> <s_epik_input>
W0NIM11jMVtjSF1jKG5vMSlbTkhdQyg9TylbTkhdW0NIMl1bQ0BIXShbQ0gzXSlOMltDSDJdW0NIMl1bQ0gyXVtDQEBIXShbQ0gzXSlbQ0gyXTI=

> <s_epik_cmdline>
J2VwaWtfcHl0aG9uJywgJy1waCcsICc3LjAnLCAnLXRuJywgJzgnLCAnLW1hJywgJzIwMCcsICctbWV0YWxfYmluZGluZycsICctaW1hZScsICc8aW5maWxlLm1hZT4nLCAnLW9tYWUnLCAnPG91dGZpbGUubWFlPic=

> <r_epik_Ionization_Penalty>
0.00216453

> <r_epik_Ionization_Penalty_Charging>
0.00212879

> <r_epik_Ionization_Penalty_Neutral>
3.57418e-05

> <r_epik_State_Penalty>
0.00146033

> <r_epik_Charging_Adjusted_Penalty>
0.00358912

> <i_epik_Tot_Q>
1

> <i_epik_Tot_abs_Q>
1

> <r_epik_Metal_State_Penalty>
0.0215827

> <b_epik_Metal_Only>
0

> <s_lp_Force_Field>
OPLS_2005

> <r_lp_Energy>
21.862

> <b_lp_Chiralities_Consistent>
1

> <s_lp_Variant>
AV-unprocessed.smi:2083-5

> <Gold.Version>
5.8.1

> <Gold.Id.Protein>
6NUR|6NUR_protein|mol2

> <Gold.PLP.Fitness>
40.0671

> <Gold.PLP.PLP>
-32.7393

> <Gold.PLP.part.hbond>
-4.0000

> <Gold.PLP.part.metal>
0.0000

> <Gold.PLP.part.buried>
-2.7120

> <Gold.PLP.part.nonpolar>
-25.6348

> <Gold.PLP.part.repulsive>
0.1404

> <Gold.PLP.ligand.clash>
0.0000

> <Gold.PLP.ligand.torsion>
0.7093

> <Gold.PLP.Chemscore.Hbond>
2.8960

> <Gold.PLP.Chemscore.CHOScore>
0.0000

> <Gold.PLP.Chemscore.Metal>
0.0000

> <Gold.Chemscore.Hbonds>
donor molecule, donor type, donor heavy atom, donor atom, acceptor molecule, acceptor atom, score
      L1  H     5    25       P1  7948  1.00
      L1  H     8    26       P1  7948  0.88
      P1  H 10752 10765       L1    19  1.00

> <Gold.PLP.Chemscore.Internal.Correction>
0.0584

> <Gold.Rescore>
     Score         DG    S(hbond)    S(metal)    S(lipo)     H(rot)  DE(clash)    DE(int)     intcor
     16.78     -17.59       2.36        0.00      69.99       1.55       0.01       0.80       ----

> <Gold.Chemscore.Fitness>
16.7758

> <Gold.Chemscore.DG>
-17.5871

> <Gold.Chemscore.ZeroCoef>
-5.4800

> <Gold.Chemscore.Hbond>
2.3591

> <Gold.Chemscore.Metal>
0.0000

> <Gold.Chemscore.Lipo>
69.9894

> <Gold.Chemscore.Internal_Hbond>
0.0000

> <Gold.Chemscore.DEClash>
0.0098

> <Gold.Chemscore.DEInternal>
0.8015

> <Gold.Chemscore.Rot>
1.5474

> <Gold.Chemscore.Internal.Correction>
   9.000000E+99

> <Gold.Chemscore.Hbonds>
donor molecule, donor type, donor heavy atom, donor atom, acceptor molecule, acceptor atom, score
      L1  H     5    25       P1  7948  0.34
      L1  H     8    26       P1  7948  0.19
      P1  H 10752 10765       L1    19  0.58

> <Gold.Chemscore.Hbond.Weighted>
-7.8795

> <Gold.Chemscore.Metal.Weighted>
-0.0000

> <Gold.Chemscore.Lipo.Weighted>
-8.1888

> <Gold.Chemscore.Internal_Hbond.Weighted>
0.0000

> <Gold.Chemscore.DEClash.Weighted>
0.0098

> <Gold.Chemscore.DEInternal.Weighted>
0.8015

> <Gold.Chemscore.Rot.Weighted>
3.9612

> <Gold.Chemscore.Internal.Correction.Weighted>
   9.000000E+99

> <Gold.Protein.RotatedTorsions>
[ 6907 6896 6895 6894 ] final  102.24 input  -60.11 | X-H torsion
[ 7974 7965 7964 7962 ] final   -4.75 input  175.53 | X-H torsion
[ 8008 7997 7996 7995 ] final -145.41 input   59.86 | X-H torsion
[ 10167 10162 10161 10158 ] final  -91.91 input  -65.29 | X-H torsion
[ 10718 10713 10712 10709 ] final  -81.96 input   66.30 | X-H torsion
[ 10763 10752 10751 10750 ] final -176.78 input  -60.55 | X-H torsion
[ 11005 11000 10999 10996 ] final -143.81 input  -57.11 | X-H torsion

> <Gold.Protein.ActiveResidues>
 VAL166  LYS551  ARG553  GLY616  TRP617  ASP618  TYR619  PRO620  LYS621  CYS622 
 ASP623  PHE694  ASN695  SER759  ASP760  ASP761  ALA762  ILE779  LEU786  VAL792 
 PHE793  MET794  SER795  GLU796  ALA797  LYS798  CYS799  TRP800  GLU811  SER814 

> <Gold.Protein.RotatedAtoms>
  152.5329  134.0005  159.7892 H   0  0  0  0  0  0  0  0  0  0  0  0  # atno 6907 bound_to 6896
  151.0225  133.5856  159.2677 H   0  0  0  0  0  0  0  0  0  0  0  0  # atno 6908 bound_to 6896
  151.2890  135.0743  159.9251 H   0  0  0  0  0  0  0  0  0  0  0  0  # atno 6909 bound_to 6896
  146.2366  140.1918  142.8332 H   0  0  0  0  0  0  0  0  0  0  0  0  # atno 7974 bound_to 7965
  155.5428  140.0609  157.2866 H   0  0  0  0  0  0  0  0  0  0  0  0  # atno 8008 bound_to 7997
  154.4446  140.1916  156.0652 H   0  0  0  0  0  0  0  0  0  0  0  0  # atno 8009 bound_to 7997
  156.0572  140.3277  155.7423 H   0  0  0  0  0  0  0  0  0  0  0  0  # atno 8010 bound_to 7997
  140.3401  143.2947  151.9845 H   0  0  0  0  0  0  0  0  0  0  0  0  # atno 10167 bound_to 10162
  156.0041  130.4620  150.4032 H   0  0  0  0  0  0  0  0  0  0  0  0  # atno 10718 bound_to 10713
  154.5682  135.2825  155.0853 H   0  0  0  0  0  0  0  0  0  0  0  0  # atno 10763 bound_to 10752
  154.2236  135.6387  153.5156 H   0  0  0  0  0  0  0  0  0  0  0  0  # atno 10764 bound_to 10752
  153.0049  135.5520  154.6297 H   0  0  0  0  0  0  0  0  0  0  0  0  # atno 10765 bound_to 10752
  140.8087  134.2770  157.4949 H   0  0  0  0  0  0  0  0  0  0  0  0  # atno 11005 bound_to 11000
  144.9852  140.8496  143.5373 LP  0  0  0  0  0  0  0  0  0  0  0  0  # atno 17320 bound_to 7965
  145.1916  139.2298  143.5239 LP  0  0  0  0  0  0  0  0  0  0  0  0  # atno 17321 bound_to 7965
  139.4842  144.6164  151.7339 LP  0  0  0  0  0  0  0  0  0  0  0  0  # atno 17342 bound_to 10162
  140.5317  144.0720  150.6056 LP  0  0  0  0  0  0  0  0  0  0  0  0  # atno 17343 bound_to 10162
  157.2100  131.0458  151.2604 LP  0  0  0  0  0  0  0  0  0  0  0  0  # atno 17370 bound_to 10713
  157.3897  130.7275  149.6689 LP  0  0  0  0  0  0  0  0  0  0  0  0  # atno 17371 bound_to 10713
  139.8716  134.9471  156.3957 LP  0  0  0  0  0  0  0  0  0  0  0  0  # atno 17394 bound_to 11000
  140.9220  133.7638  155.9918 LP  0  0  0  0  0  0  0  0  0  0  0  0  # atno 17395 bound_to 11000

$$$$
