AV-unprocessed.smi:60|AV-procd|sdf|593|dock5
  -GOLD-   2262016483D 1   1.00000     0.00000
 Structure written by MMmdl.
 36 37  0  0  0  0  0  0  0  0  1 V2000
  152.6259  139.6873  156.5562 O   0  0  0  0  0  0  0  0  0  0  0  0
  151.6552  139.1756  157.1118 C   0  0  0  0  0  0  0  0  0  0  0  0
  151.7138  137.8345  157.5032 N   0  0  0  0  0  0  0  0  0  0  0  0
  150.6957  137.1311  158.1454 C   0  0  0  0  0  0  0  0  0  0  0  0
  150.8517  135.9458  158.4393 O   0  0  0  0  0  0  0  0  0  0  0  0
  149.5143  137.8471  158.4294 N   0  0  0  0  0  0  0  0  0  0  0  0
  148.4292  137.1192  159.0629 C   0  0  0  0  0  0  0  0  0  0  0  0
  148.7407  136.9156  160.4032 O   0  0  0  0  0  0  0  0  0  0  0  0
  148.0046  135.8548  160.9917 C   0  0  0  0  0  0  0  0  0  0  0  0
  148.2724  135.8350  162.5014 C   0  0  0  0  0  0  0  0  0  0  0  0
  148.0848  137.1242  163.0446 O   0  0  0  0  0  0  0  0  0  0  0  0
  149.4017  139.1720  158.0426 C   0  0  0  0  0  0  0  0  0  0  0  0
  150.3927  139.8578  157.4179 C   0  0  0  0  0  0  0  0  0  0  0  0
  150.2323  141.3162  157.0145 C   0  0  0  0  0  0  0  0  0  0  0  0
  151.1463  142.2548  157.7818 C   0  0  0  0  0  0  0  0  0  0  0  0
  151.9401  141.7636  158.8402 C   0  0  0  0  0  0  0  0  0  0  0  0
  152.7928  142.6322  159.5487 C   0  0  0  0  0  0  0  0  0  0  0  0
  152.8538  143.9960  159.2037 C   0  0  0  0  0  0  0  0  0  0  0  0
  152.0616  144.4908  158.1497 C   0  0  0  0  0  0  0  0  0  0  0  0
  151.2098  143.6222  157.4394 C   0  0  0  0  0  0  0  0  0  0  0  0
  152.5661  137.3321  157.3020 H   0  0  0  0  0  0  0  0  0  0  0  0
  147.5026  137.6866  158.9459 H   0  0  0  0  0  0  0  0  0  0  0  0
  148.3049  136.1583  158.5600 H   0  0  0  0  0  0  0  0  0  0  0  0
  146.9416  136.0332  160.8209 H   0  0  0  0  0  0  0  0  0  0  0  0
  148.2487  134.8931  160.5365 H   0  0  0  0  0  0  0  0  0  0  0  0
  147.6369  135.1086  163.0089 H   0  0  0  0  0  0  0  0  0  0  0  0
  149.3069  135.5465  162.6883 H   0  0  0  0  0  0  0  0  0  0  0  0
  147.9767  137.7372  162.3333 H   0  0  0  0  0  0  0  0  0  0  0  0
  148.4768  139.6894  158.2550 H   0  0  0  0  0  0  0  0  0  0  0  0
  150.3898  141.4253  155.9404 H   0  0  0  0  0  0  0  0  0  0  0  0
  149.2022  141.6271  157.1929 H   0  0  0  0  0  0  0  0  0  0  0  0
  151.8991  140.7185  159.1100 H   0  0  0  0  0  0  0  0  0  0  0  0
  153.4006  142.2521  160.3564 H   0  0  0  0  0  0  0  0  0  0  0  0
  153.5078  144.6621  159.7470 H   0  0  0  0  0  0  0  0  0  0  0  0
  152.1085  145.5367  157.8842 H   0  0  0  0  0  0  0  0  0  0  0  0
  150.6085  144.0090  156.6296 H   0  0  0  0  0  0  0  0  0  0  0  0
  1  2  2  0  0  0  0
  2 13  1  0  0  0  0
  2  3  1  0  0  0  0
  3 21  1  0  0  0  0
  3  4  1  0  0  0  0
  4  5  2  0  0  0  0
  4  6  1  0  0  0  0
  6  7  1  0  0  0  0
  6 12  1  0  0  0  0
  7  8  1  0  0  0  0
  7 22  1  0  0  0  0
  7 23  1  0  0  0  0
  8  9  1  0  0  0  0
  9 10  1  0  0  0  0
  9 24  1  0  0  0  0
  9 25  1  0  0  0  0
 10 11  1  0  0  0  0
 10 26  1  0  0  0  0
 10 27  1  0  0  0  0
 11 28  1  0  0  0  0
 12 13  2  0  0  0  0
 12 29  1  0  0  0  0
 13 14  1  0  0  0  0
 14 15  1  0  0  0  0
 14 30  1  0  0  0  0
 14 31  1  0  0  0  0
 15 20  1  0  0  0  0
 15 16  2  0  0  0  0
 16 17  1  0  0  0  0
 16 32  1  0  0  0  0
 17 18  2  0  0  0  0
 17 33  1  0  0  0  0
 18 19  1  0  0  0  0
 18 34  1  0  0  0  0
 19 20  2  0  0  0  0
 19 35  1  0  0  0  0
 20 36  1  0  0  0  0
M  END
> <s_m_source_file>
AV-unprocessed.smi

> <i_m_source_file_index>
60

> <i_lp_mmshare_version>
43012

> <i_f3d_flags>
0

> <s_epik_input>
W09IXVtDSDJdW0NIMl1PW0NIMl1uKGMoPU8pW25IXWMxPU8pW2NIXWMxW0NIMl1jMltjSF1bY0hdW2NIXVtjSF1bY0hdMg==

> <s_epik_cmdline>
J2VwaWtfcHl0aG9uJywgJy1waCcsICc3LjAnLCAnLXRuJywgJzgnLCAnLW1hJywgJzIwMCcsICctbWV0YWxfYmluZGluZycsICctaW1hZScsICc8aW5maWxlLm1hZT4nLCAnLW9tYWUnLCAnPG91dGZpbGUubWFlPic=

> <r_lp_tautomer_probability>
0.999537

> <r_epik_Ionization_Penalty>
0.00298861

> <r_epik_Ionization_Penalty_Charging>
0.00298856

> <r_epik_Ionization_Penalty_Neutral>
5.3532e-08

> <r_epik_State_Penalty>
0.00209779

> <r_epik_Charging_Adjusted_Penalty>
0.00508635

> <i_epik_Tot_Q>
0

> <i_epik_Tot_abs_Q>
0

> <r_epik_Metal_State_Penalty>
1.06718

> <b_epik_Metal_Only>
0

> <s_epik_Chemistry_Notes>
This compound contains an acetal/aminal-like group ( X-CH(R)-Y where X, Y are N, S, or O) that may be acid/base labile, releasing an aldehyde.

> <s_lp_Force_Field>
OPLS_2005

> <r_lp_Energy>
6.34754

> <b_lp_Chiralities_Consistent>
1

> <s_lp_Variant>
AV-unprocessed.smi:60-1

> <Gold.Version>
5.8.1

> <Gold.Id.Protein>
6NUR|6NUR_protein|mol2

> <Gold.PLP.Fitness>
48.8358

> <Gold.PLP.PLP>
-40.7259

> <Gold.PLP.part.hbond>
-5.9250

> <Gold.PLP.part.metal>
0.0000

> <Gold.PLP.part.buried>
-4.4128

> <Gold.PLP.part.nonpolar>
-31.1915

> <Gold.PLP.part.repulsive>
0.0492

> <Gold.PLP.ligand.clash>
0.0000

> <Gold.PLP.ligand.torsion>
0.3687

> <Gold.PLP.Chemscore.Hbond>
2.9284

> <Gold.PLP.Chemscore.CHOScore>
0.0000

> <Gold.PLP.Chemscore.Metal>
0.0000

> <Gold.Chemscore.Hbonds>
donor molecule, donor type, donor heavy atom, donor atom, acceptor molecule, acceptor atom, score
      P1  H  6896  6909       L1     5  0.64
      P1  H  6931  6943       L1     8  0.75
      P1  H  7997  8010       L1     1  1.00

> <Gold.PLP.Chemscore.Internal.Correction>
0.0620

> <Gold.Rescore>
     Score         DG    S(hbond)    S(metal)    S(lipo)     H(rot)  DE(clash)    DE(int)     intcor
     15.61     -16.83       2.62        0.00      93.90       3.28       0.01       1.21       ----

> <Gold.Chemscore.Fitness>
15.6094

> <Gold.Chemscore.DG>
-16.8286

> <Gold.Chemscore.ZeroCoef>
-5.4800

> <Gold.Chemscore.Hbond>
2.6249

> <Gold.Chemscore.Metal>
0.0000

> <Gold.Chemscore.Lipo>
93.9015

> <Gold.Chemscore.Internal_Hbond>
0.0000

> <Gold.Chemscore.DEClash>
0.0089

> <Gold.Chemscore.DEInternal>
1.2104

> <Gold.Chemscore.Rot>
3.2832

> <Gold.Chemscore.Internal.Correction>
   9.000000E+99

> <Gold.Chemscore.Hbonds>
donor molecule, donor type, donor heavy atom, donor atom, acceptor molecule, acceptor atom, score
      P1  H  6896  6909       L1     5  0.64
      P1  H  6931  6943       L1     8  0.40
      P1  H  7997  8010       L1     1  1.00

> <Gold.Chemscore.Hbond.Weighted>
-8.7672

> <Gold.Chemscore.Metal.Weighted>
-0.0000

> <Gold.Chemscore.Lipo.Weighted>
-10.9865

> <Gold.Chemscore.Internal_Hbond.Weighted>
0.0000

> <Gold.Chemscore.DEClash.Weighted>
0.0089

> <Gold.Chemscore.DEInternal.Weighted>
1.2104

> <Gold.Chemscore.Rot.Weighted>
8.4050

> <Gold.Chemscore.Internal.Correction.Weighted>
   9.000000E+99

> <Gold.Protein.RotatedTorsions>
[ 6907 6896 6895 6894 ] final   73.89 input  -60.11 | X-H torsion
[ 7974 7965 7964 7962 ] final  155.36 input  175.53 | X-H torsion
[ 8008 7997 7996 7995 ] final   63.14 input   59.86 | X-H torsion
[ 10167 10162 10161 10158 ] final  -45.61 input  -65.29 | X-H torsion
[ 10718 10713 10712 10709 ] final   59.97 input   66.30 | X-H torsion
[ 10763 10752 10751 10750 ] final  132.39 input  -60.55 | X-H torsion
[ 11005 11000 10999 10996 ] final -138.11 input  -57.11 | X-H torsion

> <Gold.Protein.ActiveResidues>
 VAL166  LYS551  ARG553  GLY616  TRP617  ASP618  TYR619  PRO620  LYS621  CYS622 
 ASP623  PHE694  ASN695  SER759  ASP760  ASP761  ALA762  ILE779  LEU786  VAL792 
 PHE793  MET794  SER795  GLU796  ALA797  LYS798  CYS799  TRP800  GLU811  SER814 

> <Gold.Protein.RotatedAtoms>
  152.4947  134.4353  159.9525 H   0  0  0  0  0  0  0  0  0  0  0  0  # atno 6907 bound_to 6896
  151.4334  133.3657  159.2779 H   0  0  0  0  0  0  0  0  0  0  0  0  # atno 6908 bound_to 6896
  150.9138  134.8579  159.7503 H   0  0  0  0  0  0  0  0  0  0  0  0  # atno 6909 bound_to 6896
  144.8030  139.7057  143.6174 H   0  0  0  0  0  0  0  0  0  0  0  0  # atno 7974 bound_to 7965
  155.6255  140.3496  155.4666 H   0  0  0  0  0  0  0  0  0  0  0  0  # atno 8008 bound_to 7997
  156.0045  140.1220  157.0539 H   0  0  0  0  0  0  0  0  0  0  0  0  # atno 8009 bound_to 7997
  154.4259  140.1094  156.5729 H   0  0  0  0  0  0  0  0  0  0  0  0  # atno 8010 bound_to 7997
  140.6851  143.2871  151.3663 H   0  0  0  0  0  0  0  0  0  0  0  0  # atno 10167 bound_to 10162
  157.5717  130.8912  149.9278 H   0  0  0  0  0  0  0  0  0  0  0  0  # atno 10718 bound_to 10713
  153.7899  135.3156  155.3377 H   0  0  0  0  0  0  0  0  0  0  0  0  # atno 10763 bound_to 10752
  154.8130  135.4655  154.0569 H   0  0  0  0  0  0  0  0  0  0  0  0  # atno 10764 bound_to 10752
  153.1884  135.6904  153.8471 H   0  0  0  0  0  0  0  0  0  0  0  0  # atno 10765 bound_to 10752
  140.8647  134.2125  157.4687 H   0  0  0  0  0  0  0  0  0  0  0  0  # atno 11005 bound_to 11000
  146.2315  139.5824  142.9552 LP  0  0  0  0  0  0  0  0  0  0  0  0  # atno 17320 bound_to 7965
  145.5507  141.0413  143.2280 LP  0  0  0  0  0  0  0  0  0  0  0  0  # atno 17321 bound_to 7965
  139.6203  144.0920  152.2385 LP  0  0  0  0  0  0  0  0  0  0  0  0  # atno 17342 bound_to 10162
  140.0362  144.6042  150.7447 LP  0  0  0  0  0  0  0  0  0  0  0  0  # atno 17343 bound_to 10162
  156.0762  130.3678  150.0673 LP  0  0  0  0  0  0  0  0  0  0  0  0  # atno 17370 bound_to 10713
  156.8825  130.9561  151.3598 LP  0  0  0  0  0  0  0  0  0  0  0  0  # atno 17371 bound_to 10713
  139.8708  134.9746  156.4852 LP  0  0  0  0  0  0  0  0  0  0  0  0  # atno 17394 bound_to 11000
  140.8643  133.8036  155.9297 LP  0  0  0  0  0  0  0  0  0  0  0  0  # atno 17395 bound_to 11000

$$$$
