AV-unprocessed.smi:1348|AV-procd|sdf|5517|dock2
  -GOLD-   22720 5103D 1   1.00000     0.00000
 Structure written by MMmdl.
 31 32  0  0  0  0  0  0  0  0  1 V2000
  153.1236  143.5058  162.7946 C   0  0  0  0  0  0  0  0  0  0  0  0
  152.6966  142.5992  161.6311 C   0  0  0  0  0  0  0  0  0  0  0  0
  153.7572  141.5520  161.2627 C   0  0  0  0  0  0  0  0  0  0  0  0
  152.2470  143.3883  160.4420 C   0  0  0  0  0  0  0  0  0  0  0  0
  152.2837  142.9251  159.1892 N   0  0  0  0  0  0  0  0  0  0  0  0
  151.8316  143.8598  158.2518 C   0  0  0  0  0  0  0  0  0  0  0  0
  151.8257  143.5136  156.7906 C   0  0  0  0  0  0  0  0  0  0  0  0
  150.9222  142.3053  156.5340 C   0  0  0  0  0  0  0  0  0  0  0  0
  151.2321  141.2002  156.9790 O   0  0  0  0  0  0  0  0  0  0  0  0
  149.8125  142.5320  155.8145 N   0  0  0  0  0  0  0  0  0  0  0  0
  148.8271  141.5584  155.4751 C   0  0  0  0  0  0  0  0  0  0  0  0
  149.1800  140.5445  154.4081 C   0  0  0  0  0  0  0  0  0  0  0  0
  148.2031  141.6454  154.0992 C   0  0  0  0  0  0  0  0  0  0  0  0
  151.4300  145.0430  158.8207 C   0  0  0  0  0  0  0  0  0  0  0  0
  151.6213  145.0301  160.5522 S   0  0  0  0  0  0  0  0  0  0  0  0
  152.3165  144.1798  163.0831 H   0  0  0  0  0  0  0  0  0  0  0  0
  153.9868  144.1157  162.5263 H   0  0  0  0  0  0  0  0  0  0  0  0
  153.3923  142.9176  163.6724 H   0  0  0  0  0  0  0  0  0  0  0  0
  151.8243  142.0443  161.9784 H   0  0  0  0  0  0  0  0  0  0  0  0
  153.3882  140.8749  160.4920 H   0  0  0  0  0  0  0  0  0  0  0  0
  154.0311  140.9488  162.1286 H   0  0  0  0  0  0  0  0  0  0  0  0
  154.6656  142.0229  160.8859 H   0  0  0  0  0  0  0  0  0  0  0  0
  151.4772  144.3557  156.1914 H   0  0  0  0  0  0  0  0  0  0  0  0
  152.8363  143.2890  156.4467 H   0  0  0  0  0  0  0  0  0  0  0  0
  149.6454  143.4760  155.4967 H   0  0  0  0  0  0  0  0  0  0  0  0
  148.1775  141.2039  156.2742 H   0  0  0  0  0  0  0  0  0  0  0  0
  150.1659  140.6065  153.9514 H   0  0  0  0  0  0  0  0  0  0  0  0
  148.7822  139.5380  154.5218 H   0  0  0  0  0  0  0  0  0  0  0  0
  147.1533  141.3746  154.0075 H   0  0  0  0  0  0  0  0  0  0  0  0
  148.5375  142.4432  153.4385 H   0  0  0  0  0  0  0  0  0  0  0  0
  151.0415  145.9211  158.3263 H   0  0  0  0  0  0  0  0  0  0  0  0
  1  2  1  0  0  0  0
  1 16  1  0  0  0  0
  1 17  1  0  0  0  0
  1 18  1  0  0  0  0
  2  3  1  0  0  0  0
  2  4  1  0  0  0  0
  2 19  1  0  0  0  0
  3 20  1  0  0  0  0
  3 21  1  0  0  0  0
  3 22  1  0  0  0  0
  4 15  1  0  0  0  0
  4  5  2  0  0  0  0
  5  6  1  0  0  0  0
  6  7  1  0  0  0  0
  6 14  2  0  0  0  0
  7  8  1  0  0  0  0
  7 23  1  0  0  0  0
  7 24  1  0  0  0  0
  8  9  2  0  0  0  0
  8 10  1  0  0  0  0
 10 11  1  0  0  0  0
 10 25  1  0  0  0  0
 11 13  1  0  0  0  0
 11 12  1  0  0  0  0
 11 26  1  0  0  0  0
 12 13  1  0  0  0  0
 12 27  1  0  0  0  0
 12 28  1  0  0  0  0
 13 29  1  0  0  0  0
 13 30  1  0  0  0  0
 14 15  1  0  0  0  0
 14 31  1  0  0  0  0
M  END
> <s_m_source_file>
AV-unprocessed.smi

> <i_m_source_file_index>
1348

> <i_lp_mmshare_version>
43012

> <i_f3d_flags>
0

> <s_epik_input>
W0NIM11bQ0hdKFtDSDNdKWMxbmMoW2NIXXMxKVtDSDJdQyg9TylbTkhdW0NIXTJbQ0gyXVtDSDJdMg==

> <s_epik_cmdline>
J2VwaWtfcHl0aG9uJywgJy1waCcsICc3LjAnLCAnLXRuJywgJzgnLCAnLW1hJywgJzIwMCcsICctbWV0YWxfYmluZGluZycsICctaW1hZScsICc8aW5maWxlLm1hZT4nLCAnLW9tYWUnLCAnPG91dGZpbGUubWFlPic=

> <r_lp_tautomer_probability>
1

> <r_epik_Ionization_Penalty>
4.24015e-05

> <r_epik_Ionization_Penalty_Charging>
0

> <r_epik_Ionization_Penalty_Neutral>
4.24015e-05

> <r_epik_State_Penalty>
-0

> <r_epik_Charging_Adjusted_Penalty>
0

> <i_epik_Tot_Q>
0

> <i_epik_Tot_abs_Q>
0

> <r_epik_Metal_State_Penalty>
-0

> <b_epik_Metal_Only>
0

> <s_lp_Force_Field>
OPLS_2005

> <r_lp_Energy>
6.98318

> <b_lp_Chiralities_Consistent>
1

> <s_lp_Variant>
AV-unprocessed.smi:1348-1

> <Gold.Version>
5.8.1

> <Gold.Id.Protein>
6NUR|6NUR_protein|mol2

> <Gold.PLP.Fitness>
40.9079

> <Gold.PLP.PLP>
-39.8041

> <Gold.PLP.part.hbond>
-0.9819

> <Gold.PLP.part.metal>
0.0000

> <Gold.PLP.part.buried>
-5.9942

> <Gold.PLP.part.nonpolar>
-33.2235

> <Gold.PLP.part.repulsive>
0.1742

> <Gold.PLP.ligand.clash>
0.0000

> <Gold.PLP.ligand.torsion>
1.0003

> <Gold.PLP.Chemscore.Hbond>
0.9920

> <Gold.PLP.Chemscore.CHOScore>
0.0000

> <Gold.PLP.Chemscore.Metal>
0.0000

> <Gold.Chemscore.Hbonds>
donor molecule, donor type, donor heavy atom, donor atom, acceptor molecule, acceptor atom, score
      L1  H    10    25       P1  8028  0.81

> <Gold.PLP.Chemscore.Internal.Correction>
0.1283

> <Gold.Rescore>
     Score         DG    S(hbond)    S(metal)    S(lipo)     H(rot)  DE(clash)    DE(int)     intcor
     14.87     -18.37       0.97        0.00     113.98       1.44       1.81       1.69       ----

> <Gold.Chemscore.Fitness>
14.8695

> <Gold.Chemscore.DG>
-18.3694

> <Gold.Chemscore.ZeroCoef>
-5.4800

> <Gold.Chemscore.Hbond>
0.9693

> <Gold.Chemscore.Metal>
0.0000

> <Gold.Chemscore.Lipo>
113.9814

> <Gold.Chemscore.Internal_Hbond>
0.0000

> <Gold.Chemscore.DEClash>
1.8090

> <Gold.Chemscore.DEInternal>
1.6908

> <Gold.Chemscore.Rot>
1.4390

> <Gold.Chemscore.Internal.Correction>
   9.000000E+99

> <Gold.Chemscore.Hbonds>
donor molecule, donor type, donor heavy atom, donor atom, acceptor molecule, acceptor atom, score
      L1  H    10    25       P1  8028  0.75

> <Gold.Chemscore.Hbond.Weighted>
-3.2373

> <Gold.Chemscore.Metal.Weighted>
-0.0000

> <Gold.Chemscore.Lipo.Weighted>
-13.3358

> <Gold.Chemscore.Internal_Hbond.Weighted>
0.0000

> <Gold.Chemscore.DEClash.Weighted>
1.8090

> <Gold.Chemscore.DEInternal.Weighted>
1.6908

> <Gold.Chemscore.Rot.Weighted>
3.6838

> <Gold.Chemscore.Internal.Correction.Weighted>
   9.000000E+99

> <Gold.Protein.RotatedTorsions>
[ 6907 6896 6895 6894 ] final -123.11 input  -60.11 | X-H torsion
[ 7974 7965 7964 7962 ] final  -77.95 input  175.53 | X-H torsion
[ 8008 7997 7996 7995 ] final  175.71 input   59.86 | X-H torsion
[ 10167 10162 10161 10158 ] final   34.94 input  -65.29 | X-H torsion
[ 10718 10713 10712 10709 ] final    3.56 input   66.30 | X-H torsion
[ 10763 10752 10751 10750 ] final   66.64 input  -60.55 | X-H torsion
[ 11005 11000 10999 10996 ] final   97.19 input  -57.11 | X-H torsion

> <Gold.Protein.ActiveResidues>
 VAL166  LYS551  ARG553  GLY616  TRP617  ASP618  TYR619  PRO620  LYS621  CYS622 
 ASP623  PHE694  ASN695  SER759  ASP760  ASP761  ALA762  ILE779  LEU786  VAL792 
 PHE793  MET794  SER795  GLU796  ALA797  LYS798  CYS799  TRP800  GLU811  SER814 

> <Gold.Protein.RotatedAtoms>
  150.8640  133.7602  159.2982 H   0  0  0  0  0  0  0  0  0  0  0  0  # atno 6907 bound_to 6896
  151.5235  135.1066  159.9894 H   0  0  0  0  0  0  0  0  0  0  0  0  # atno 6908 bound_to 6896
  152.4647  133.7853  159.6928 H   0  0  0  0  0  0  0  0  0  0  0  0  # atno 6909 bound_to 6896
  145.5929  140.9425  143.1282 H   0  0  0  0  0  0  0  0  0  0  0  0  # atno 7974 bound_to 7965
  156.0842  140.1402  156.9675 H   0  0  0  0  0  0  0  0  0  0  0  0  # atno 8008 bound_to 7997
  154.4603  140.0946  156.6921 H   0  0  0  0  0  0  0  0  0  0  0  0  # atno 8009 bound_to 7997
  155.5027  140.3451  155.4376 H   0  0  0  0  0  0  0  0  0  0  0  0  # atno 8010 bound_to 7997
  140.4268  144.1382  150.6154 H   0  0  0  0  0  0  0  0  0  0  0  0  # atno 10167 bound_to 10162
  156.8796  130.5649  149.5653 H   0  0  0  0  0  0  0  0  0  0  0  0  # atno 10718 bound_to 10713
  153.0149  135.5313  154.6855 H   0  0  0  0  0  0  0  0  0  0  0  0  # atno 10763 bound_to 10752
  154.6003  135.2867  155.0544 H   0  0  0  0  0  0  0  0  0  0  0  0  # atno 10764 bound_to 10752
  154.1604  135.6548  153.5037 H   0  0  0  0  0  0  0  0  0  0  0  0  # atno 10765 bound_to 10752
  139.8777  134.8989  156.4271 H   0  0  0  0  0  0  0  0  0  0  0  0  # atno 11005 bound_to 11000
  144.7343  139.7631  143.7335 LP  0  0  0  0  0  0  0  0  0  0  0  0  # atno 17320 bound_to 7965
  146.1633  139.4756  142.9974 LP  0  0  0  0  0  0  0  0  0  0  0  0  # atno 17321 bound_to 7965
  140.4472  143.2501  151.9395 LP  0  0  0  0  0  0  0  0  0  0  0  0  # atno 17342 bound_to 10162
  139.4784  144.5597  151.8258 LP  0  0  0  0  0  0  0  0  0  0  0  0  # atno 17343 bound_to 10162
  156.0684  130.5722  150.9334 LP  0  0  0  0  0  0  0  0  0  0  0  0  # atno 17370 bound_to 10713
  157.6148  131.0934  150.8731 LP  0  0  0  0  0  0  0  0  0  0  0  0  # atno 17371 bound_to 10713
  140.9093  133.7723  155.9772 LP  0  0  0  0  0  0  0  0  0  0  0  0  # atno 17394 bound_to 11000
  140.8564  134.2893  157.5253 LP  0  0  0  0  0  0  0  0  0  0  0  0  # atno 17395 bound_to 11000

$$$$
