AV-unprocessed.smi:2952|AV-procd|sdf|11291|dock8
  -GOLD-   2272016183D 1   1.00000     0.00000
 Structure written by MMmdl.
 38 40  0  0  0  0  0  0  0  0  1 V2000
  151.7858  137.1473  159.4757 O   0  0  0  0  0  0  0  0  0  0  0  0
  151.2561  138.2242  158.7320 C   0  0  0  0  0  0  0  0  0  0  0  0
  152.3592  139.2049  158.3001 C   0  0  0  0  0  0  0  0  0  0  0  0
  151.8422  140.5365  158.0113 N   0  0  0  0  0  0  0  0  0  0  0  0
  151.1479  140.9673  156.9256 C   0  0  0  0  0  0  0  0  0  0  0  0
  150.7819  140.0552  155.7850 C   0  0  0  0  0  0  0  0  0  0  0  0
  149.3767  140.1269  155.3845 N   0  0  0  0  0  0  0  0  0  0  0  0
  149.0343  139.1243  154.3780 C   0  0  0  0  0  0  0  0  0  0  0  0
  147.5585  139.2200  153.9553 C   0  0  0  0  0  0  0  0  0  0  0  0
  147.2829  140.5340  153.4798 O   0  0  0  0  0  0  0  0  0  0  0  0
  147.5633  141.5395  154.4485 C   0  0  0  0  0  0  0  0  0  0  0  0
  149.0397  141.4496  154.8725 C   0  0  0  0  0  0  0  0  0  0  0  0
  150.8252  142.2633  156.9266 N   0  0  0  0  0  0  0  0  0  0  0  0
  151.3373  142.7076  158.1286 C   0  0  0  0  0  0  0  0  0  0  0  0
  151.3140  143.9914  158.7187 C   0  0  0  0  0  0  0  0  0  0  0  0
  151.9152  144.2097  159.9758 C   0  0  0  0  0  0  0  0  0  0  0  0
  152.5471  143.1497  160.6586 C   0  0  0  0  0  0  0  0  0  0  0  0
  153.2801  143.4286  162.1951 Cl  0  0  0  0  0  0  0  0  0  0  0  0
  152.5815  141.8634  160.0869 C   0  0  0  0  0  0  0  0  0  0  0  0
  151.9796  141.6512  158.8323 C   0  0  0  0  0  0  0  0  0  0  0  0
  152.5993  137.4252  159.8687 H   0  0  0  0  0  0  0  0  0  0  0  0
  150.7348  137.8280  157.8603 H   0  0  0  0  0  0  0  0  0  0  0  0
  150.5139  138.7396  159.3419 H   0  0  0  0  0  0  0  0  0  0  0  0
  153.0940  139.2951  159.1006 H   0  0  0  0  0  0  0  0  0  0  0  0
  152.9093  138.8231  157.4408 H   0  0  0  0  0  0  0  0  0  0  0  0
  151.4152  140.3293  154.9407 H   0  0  0  0  0  0  0  0  0  0  0  0
  151.0280  139.0234  156.0310 H   0  0  0  0  0  0  0  0  0  0  0  0
  149.6667  139.2536  153.4986 H   0  0  0  0  0  0  0  0  0  0  0  0
  149.2318  138.1221  154.7591 H   0  0  0  0  0  0  0  0  0  0  0  0
  147.3430  138.5014  153.1645 H   0  0  0  0  0  0  0  0  0  0  0  0
  146.9009  138.9828  154.7929 H   0  0  0  0  0  0  0  0  0  0  0  0
  147.3505  142.5185  154.0191 H   0  0  0  0  0  0  0  0  0  0  0  0
  146.9055  141.4169  155.3103 H   0  0  0  0  0  0  0  0  0  0  0  0
  149.2428  142.2038  155.6338 H   0  0  0  0  0  0  0  0  0  0  0  0
  149.6751  141.6890  154.0184 H   0  0  0  0  0  0  0  0  0  0  0  0
  150.8334  144.8098  158.2031 H   0  0  0  0  0  0  0  0  0  0  0  0
  151.8914  145.1957  160.4161 H   0  0  0  0  0  0  0  0  0  0  0  0
  153.0642  141.0487  160.6058 H   0  0  0  0  0  0  0  0  0  0  0  0
  1  2  1  0  0  0  0
  1 21  1  0  0  0  0
  2  3  1  0  0  0  0
  2 22  1  0  0  0  0
  2 23  1  0  0  0  0
  3  4  1  0  0  0  0
  3 24  1  0  0  0  0
  3 25  1  0  0  0  0
  4 20  1  0  0  0  0
  4  5  1  0  0  0  0
  5  6  1  0  0  0  0
  5 13  2  0  0  0  0
  6  7  1  0  0  0  0
  6 26  1  0  0  0  0
  6 27  1  0  0  0  0
  7 12  1  0  0  0  0
  7  8  1  0  0  0  0
  8  9  1  0  0  0  0
  8 28  1  0  0  0  0
  8 29  1  0  0  0  0
  9 10  1  0  0  0  0
  9 30  1  0  0  0  0
  9 31  1  0  0  0  0
 10 11  1  0  0  0  0
 11 12  1  0  0  0  0
 11 32  1  0  0  0  0
 11 33  1  0  0  0  0
 12 34  1  0  0  0  0
 12 35  1  0  0  0  0
 13 14  1  0  0  0  0
 14 20  2  0  0  0  0
 14 15  1  0  0  0  0
 15 16  2  0  0  0  0
 15 36  1  0  0  0  0
 16 17  1  0  0  0  0
 16 37  1  0  0  0  0
 17 18  1  0  0  0  0
 17 19  2  0  0  0  0
 19 20  1  0  0  0  0
 19 38  1  0  0  0  0
M  END
> <s_m_source_file>
AV-unprocessed.smi

> <i_m_source_file_index>
2952

> <i_lp_mmshare_version>
43012

> <i_f3d_flags>
0

> <s_epik_input>
W2NIXTFbY0hdYyhDbClbY0hdYyhjMTIpbihbQ0gyXVtDSDJdW09IXSljKG4yKVtDSDJdTjNbQ0gyXVtDSDJdT1tDSDJdW0NIMl0z

> <s_epik_cmdline>
J2VwaWtfcHl0aG9uJywgJy1waCcsICc3LjAnLCAnLXRuJywgJzgnLCAnLW1hJywgJzIwMCcsICctbWV0YWxfYmluZGluZycsICctaW1hZScsICc8aW5maWxlLm1hZT4nLCAnLW9tYWUnLCAnPG91dGZpbGUubWFlPic=

> <r_epik_Ionization_Penalty>
0.0905371

> <r_epik_Ionization_Penalty_Charging>
0

> <r_epik_Ionization_Penalty_Neutral>
0.0905371

> <r_epik_State_Penalty>
0.0787939

> <r_epik_Charging_Adjusted_Penalty>
0.0787939

> <i_epik_Tot_Q>
0

> <i_epik_Tot_abs_Q>
0

> <r_epik_Metal_State_Penalty>
8.42675e-05

> <b_epik_Metal_Only>
0

> <s_lp_Force_Field>
OPLS_2005

> <r_lp_Energy>
22.7724

> <b_lp_Chiralities_Consistent>
1

> <s_lp_Variant>
AV-unprocessed.smi:2952-1

> <Gold.Version>
5.8.1

> <Gold.Id.Protein>
6NUR|6NUR_protein|mol2

> <Gold.PLP.Fitness>
44.7741

> <Gold.PLP.PLP>
-42.6369

> <Gold.PLP.part.hbond>
-1.0000

> <Gold.PLP.part.metal>
0.0000

> <Gold.PLP.part.buried>
-6.7386

> <Gold.PLP.part.nonpolar>
-36.3568

> <Gold.PLP.part.repulsive>
1.1475

> <Gold.PLP.ligand.clash>
0.0000

> <Gold.PLP.ligand.torsion>
0.4223

> <Gold.PLP.Chemscore.Hbond>
0.9913

> <Gold.PLP.Chemscore.CHOScore>
0.0000

> <Gold.PLP.Chemscore.Metal>
0.0000

> <Gold.Chemscore.Hbonds>
donor molecule, donor type, donor heavy atom, donor atom, acceptor molecule, acceptor atom, score
      P1  H  6896  6907       L1     1  0.93

> <Gold.PLP.Chemscore.Internal.Correction>
0.0080

> <Gold.Rescore>
     Score         DG    S(hbond)    S(metal)    S(lipo)     H(rot)  DE(clash)    DE(int)     intcor
     14.29     -16.08       0.96        0.00     109.76       2.13       0.07       1.72       ----

> <Gold.Chemscore.Fitness>
14.2940

> <Gold.Chemscore.DG>
-16.0837

> <Gold.Chemscore.ZeroCoef>
-5.4800

> <Gold.Chemscore.Hbond>
0.9590

> <Gold.Chemscore.Metal>
0.0000

> <Gold.Chemscore.Lipo>
109.7610

> <Gold.Chemscore.Internal_Hbond>
0.0000

> <Gold.Chemscore.DEClash>
0.0727

> <Gold.Chemscore.DEInternal>
1.7170

> <Gold.Chemscore.Rot>
2.1256

> <Gold.Chemscore.Internal.Correction>
   9.000000E+99

> <Gold.Chemscore.Hbonds>
donor molecule, donor type, donor heavy atom, donor atom, acceptor molecule, acceptor atom, score
      P1  H  6896  6907       L1     1  0.62

> <Gold.Chemscore.Hbond.Weighted>
-3.2032

> <Gold.Chemscore.Metal.Weighted>
-0.0000

> <Gold.Chemscore.Lipo.Weighted>
-12.8420

> <Gold.Chemscore.Internal_Hbond.Weighted>
0.0000

> <Gold.Chemscore.DEClash.Weighted>
0.0727

> <Gold.Chemscore.DEInternal.Weighted>
1.7170

> <Gold.Chemscore.Rot.Weighted>
5.4415

> <Gold.Chemscore.Internal.Correction.Weighted>
   9.000000E+99

> <Gold.Protein.RotatedTorsions>
[ 6907 6896 6895 6894 ] final   -6.85 input  -60.11 | X-H torsion
[ 7974 7965 7964 7962 ] final -177.69 input  175.53 | X-H torsion
[ 8008 7997 7996 7995 ] final    6.43 input   59.86 | X-H torsion
[ 10167 10162 10161 10158 ] final -175.23 input  -65.29 | X-H torsion
[ 10718 10713 10712 10709 ] final  -69.52 input   66.30 | X-H torsion
[ 10763 10752 10751 10750 ] final -143.02 input  -60.55 | X-H torsion
[ 11005 11000 10999 10996 ] final  -20.29 input  -57.11 | X-H torsion

> <Gold.Protein.ActiveResidues>
 VAL166  LYS551  ARG553  GLY616  TRP617  ASP618  TYR619  PRO620  LYS621  CYS622 
 ASP623  PHE694  ASN695  SER759  ASP760  ASP761  ALA762  ILE779  LEU786  VAL792 
 PHE793  MET794  SER795  GLU796  ALA797  LYS798  CYS799  TRP800  GLU811  SER814 

> <Gold.Protein.RotatedAtoms>
  151.4589  135.1036  159.9718 H   0  0  0  0  0  0  0  0  0  0  0  0  # atno 6907 bound_to 6896
  152.4860  133.8371  159.7143 H   0  0  0  0  0  0  0  0  0  0  0  0  # atno 6908 bound_to 6896
  150.8970  133.7107  159.2916 H   0  0  0  0  0  0  0  0  0  0  0  0  # atno 6909 bound_to 6896
  144.7128  140.0982  143.6418 H   0  0  0  0  0  0  0  0  0  0  0  0  # atno 7974 bound_to 7965
  154.7410  140.2749  155.6373 H   0  0  0  0  0  0  0  0  0  0  0  0  # atno 8008 bound_to 7997
  156.2873  140.2697  156.2063 H   0  0  0  0  0  0  0  0  0  0  0  0  # atno 8009 bound_to 7997
  155.0259  140.0371  157.2445 H   0  0  0  0  0  0  0  0  0  0  0  0  # atno 8010 bound_to 7997
  139.5592  144.1913  152.1210 H   0  0  0  0  0  0  0  0  0  0  0  0  # atno 10167 bound_to 10162
  156.0452  130.4314  150.2159 H   0  0  0  0  0  0  0  0  0  0  0  0  # atno 10718 bound_to 10713
  154.8486  135.3479  154.6121 H   0  0  0  0  0  0  0  0  0  0  0  0  # atno 10763 bound_to 10752
  153.6730  135.6984  153.5146 H   0  0  0  0  0  0  0  0  0  0  0  0  # atno 10764 bound_to 10752
  153.2727  135.4288  155.0960 H   0  0  0  0  0  0  0  0  0  0  0  0  # atno 10765 bound_to 10752
  140.8450  133.7898  155.9903 H   0  0  0  0  0  0  0  0  0  0  0  0  # atno 11005 bound_to 11000
  145.9561  139.2767  143.1183 LP  0  0  0  0  0  0  0  0  0  0  0  0  # atno 17320 bound_to 7965
  145.9271  140.9075  143.0375 LP  0  0  0  0  0  0  0  0  0  0  0  0  # atno 17321 bound_to 7965
  140.1423  144.5191  150.6737 LP  0  0  0  0  0  0  0  0  0  0  0  0  # atno 17342 bound_to 10162
  140.6869  143.2355  151.5235 LP  0  0  0  0  0  0  0  0  0  0  0  0  # atno 17343 bound_to 10162
  157.0250  130.9990  151.3329 LP  0  0  0  0  0  0  0  0  0  0  0  0  # atno 17370 bound_to 10713
  157.5318  130.8063  149.7925 LP  0  0  0  0  0  0  0  0  0  0  0  0  # atno 17371 bound_to 10713
  140.8853  134.2561  157.5123 LP  0  0  0  0  0  0  0  0  0  0  0  0  # atno 17394 bound_to 11000
  139.8703  134.9635  156.4464 LP  0  0  0  0  0  0  0  0  0  0  0  0  # atno 17395 bound_to 11000

$$$$
