AV-unprocessed.smi:2870|AV-procd|sdf|11029|dock1
  -GOLD-   2272015493D 1   1.00000     0.00000
 Structure written by MMmdl.
 40 42  0  0  0  0  0  0  0  0  1 V2000
  153.5469  137.2948  155.7173 N   0  0  0  0  0  0  0  0  0  0  0  0
  152.9828  138.2397  156.0758 C   0  0  0  0  0  0  0  0  0  0  0  0
  152.2607  139.3886  156.5127 C   0  0  0  0  0  0  0  0  0  0  0  0
  152.4679  139.9389  157.7266 C   0  0  0  0  0  0  0  0  0  0  0  0
  151.7892  141.0571  158.1589 N   0  0  0  0  0  0  0  0  0  0  0  0
  151.9249  141.5405  159.5042 C   0  0  0  0  0  0  0  0  0  0  0  0
  152.3204  142.9805  159.7685 C   0  0  0  0  0  0  0  0  0  0  0  0
  153.3061  141.8678  160.0283 C   0  0  0  0  0  0  0  0  0  0  0  0
  150.7730  141.6243  157.3592 C   0  0  0  0  0  0  0  0  0  0  0  0
  150.0987  142.5751  157.7630 O   0  0  0  0  0  0  0  0  0  0  0  0
  150.5490  141.0655  156.0773 N   0  0  0  0  0  0  0  0  0  0  0  0
  149.5319  141.6895  155.2024 C   0  0  0  0  0  0  0  0  0  0  0  0
  148.0888  141.3294  155.5883 C   0  0  0  0  0  0  0  0  0  0  0  0
  147.7832  140.1798  155.9091 O   0  0  0  0  0  0  0  0  0  0  0  0
  147.2089  142.3398  155.5617 N   0  0  0  0  0  0  0  0  0  0  0  0
  145.8004  142.2197  155.9109 C   0  0  0  0  0  0  0  0  0  0  0  0
  144.9370  142.9649  154.9003 C   0  0  0  0  0  0  0  0  0  0  0  0
  145.5603  143.4894  153.5974 C   0  0  0  0  0  0  0  0  0  0  0  0
  144.6204  144.6945  153.6869 C   0  0  0  0  0  0  0  0  0  0  0  0
  144.5095  144.4118  155.1878 C   0  0  0  0  0  0  0  0  0  0  0  0
  151.2771  139.9500  155.5896 C   0  0  0  0  0  0  0  0  0  0  0  0
  151.0741  139.5039  154.4590 O   0  0  0  0  0  0  0  0  0  0  0  0
  153.2004  139.4932  158.3842 H   0  0  0  0  0  0  0  0  0  0  0  0
  151.2381  141.0998  160.2248 H   0  0  0  0  0  0  0  0  0  0  0  0
  152.5172  143.6274  158.9158 H   0  0  0  0  0  0  0  0  0  0  0  0
  151.8756  143.4713  160.6316 H   0  0  0  0  0  0  0  0  0  0  0  0
  153.5207  141.6182  161.0652 H   0  0  0  0  0  0  0  0  0  0  0  0
  154.1485  141.7809  159.3446 H   0  0  0  0  0  0  0  0  0  0  0  0
  149.6231  142.7766  155.2031 H   0  0  0  0  0  0  0  0  0  0  0  0
  149.6959  141.4136  154.1594 H   0  0  0  0  0  0  0  0  0  0  0  0
  147.5384  143.2549  155.2904 H   0  0  0  0  0  0  0  0  0  0  0  0
  145.5165  141.1666  155.9433 H   0  0  0  0  0  0  0  0  0  0  0  0
  145.6494  142.6196  156.9148 H   0  0  0  0  0  0  0  0  0  0  0  0
  144.0461  142.3838  154.6515 H   0  0  0  0  0  0  0  0  0  0  0  0
  146.6105  143.7647  153.7099 H   0  0  0  0  0  0  0  0  0  0  0  0
  145.4035  142.8497  152.7285 H   0  0  0  0  0  0  0  0  0  0  0  0
  145.0778  145.6513  153.4333 H   0  0  0  0  0  0  0  0  0  0  0  0
  143.6800  144.5389  153.1558 H   0  0  0  0  0  0  0  0  0  0  0  0
  143.5057  144.5173  155.6004 H   0  0  0  0  0  0  0  0  0  0  0  0
  145.2457  144.9640  155.7746 H   0  0  0  0  0  0  0  0  0  0  0  0
  1  2  3  0  0  0  0
  2  3  1  0  0  0  0
  3 21  1  0  0  0  0
  3  4  2  0  0  0  0
  4  5  1  0  0  0  0
  4 23  1  0  0  0  0
  5  6  1  0  0  0  0
  5  9  1  0  0  0  0
  6  8  1  0  0  0  0
  6  7  1  0  0  0  0
  6 24  1  0  0  0  0
  7  8  1  0  0  0  0
  7 25  1  0  0  0  0
  7 26  1  0  0  0  0
  8 27  1  0  0  0  0
  8 28  1  0  0  0  0
  9 10  2  0  0  0  0
  9 11  1  0  0  0  0
 11 12  1  0  0  0  0
 11 21  1  0  0  0  0
 12 13  1  0  0  0  0
 12 29  1  0  0  0  0
 12 30  1  0  0  0  0
 13 14  2  0  0  0  0
 13 15  1  0  0  0  0
 15 16  1  0  0  0  0
 15 31  1  0  0  0  0
 16 17  1  0  0  0  0
 16 32  1  0  0  0  0
 16 33  1  0  0  0  0
 17 20  1  0  0  0  0
 17 18  1  0  0  0  0
 17 34  1  0  0  0  0
 18 19  1  0  0  0  0
 18 35  1  0  0  0  0
 18 36  1  0  0  0  0
 19 20  1  0  0  0  0
 19 37  1  0  0  0  0
 19 38  1  0  0  0  0
 20 39  1  0  0  0  0
 20 40  1  0  0  0  0
 21 22  2  0  0  0  0
M  END
> <s_m_source_file>
AV-unprocessed.smi

> <i_m_source_file_index>
2870

> <i_lp_mmshare_version>
43012

> <i_f3d_flags>
0

> <s_epik_input>
TiNDYzFbY0hdbihbQ0hdMltDSDJdW0NIMl0yKWMoPU8pbihjMT1PKVtDSDJdQyg9TylbTkhdW0NIMl1bQ0hdM1tDSDJdW0NIMl1bQ0gyXTM=

> <s_epik_cmdline>
J2VwaWtfcHl0aG9uJywgJy1waCcsICc3LjAnLCAnLXRuJywgJzgnLCAnLW1hJywgJzIwMCcsICctbWV0YWxfYmluZGluZycsICctaW1hZScsICc8aW5maWxlLm1hZT4nLCAnLW9tYWUnLCAnPG91dGZpbGUubWFlPic=

> <r_lp_tautomer_probability>
1

> <r_epik_Ionization_Penalty>
1.93838e-08

> <r_epik_Ionization_Penalty_Charging>
8.20545e-11

> <r_epik_Ionization_Penalty_Neutral>
1.93017e-08

> <r_epik_State_Penalty>
-0

> <r_epik_Charging_Adjusted_Penalty>
8.20545e-11

> <i_epik_Tot_Q>
0

> <i_epik_Tot_abs_Q>
0

> <r_epik_Metal_State_Penalty>
-0

> <b_epik_Metal_Only>
0

> <s_lp_Force_Field>
OPLS_2005

> <r_lp_Energy>
38.3845

> <b_lp_Chiralities_Consistent>
1

> <s_lp_Variant>
AV-unprocessed.smi:2870-1

> <Gold.Version>
5.8.1

> <Gold.Id.Protein>
6NUR|6NUR_protein|mol2

> <Gold.PLP.Fitness>
47.0363

> <Gold.PLP.PLP>
-42.4937

> <Gold.PLP.part.hbond>
-2.9318

> <Gold.PLP.part.metal>
0.0000

> <Gold.PLP.part.buried>
-4.4181

> <Gold.PLP.part.nonpolar>
-36.5975

> <Gold.PLP.part.repulsive>
0.3496

> <Gold.PLP.ligand.clash>
0.0000

> <Gold.PLP.ligand.torsion>
1.2670

> <Gold.PLP.Chemscore.Hbond>
2.2640

> <Gold.PLP.Chemscore.CHOScore>
0.0000

> <Gold.PLP.Chemscore.Metal>
0.0000

> <Gold.Chemscore.Hbonds>
donor molecule, donor type, donor heavy atom, donor atom, acceptor molecule, acceptor atom, score
      L1  H    15    31       P1  8028  0.90
      P1  H  7989  7998       L1    22  1.00
      P1  H 10752 10765       L1     1  0.27

> <Gold.PLP.Chemscore.Internal.Correction>
0.2846

> <Gold.Rescore>
     Score         DG    S(hbond)    S(metal)    S(lipo)     H(rot)  DE(clash)    DE(int)     intcor
     12.27     -13.66       1.31        0.00      75.93       1.98       0.12       1.27       ----

> <Gold.Chemscore.Fitness>
12.2689

> <Gold.Chemscore.DG>
-13.6569

> <Gold.Chemscore.ZeroCoef>
-5.4800

> <Gold.Chemscore.Hbond>
1.3053

> <Gold.Chemscore.Metal>
0.0000

> <Gold.Chemscore.Lipo>
75.9285

> <Gold.Chemscore.Internal_Hbond>
0.0000

> <Gold.Chemscore.DEClash>
0.1169

> <Gold.Chemscore.DEInternal>
1.2710

> <Gold.Chemscore.Rot>
1.9791

> <Gold.Chemscore.Internal.Correction>
   9.000000E+99

> <Gold.Chemscore.Hbonds>
donor molecule, donor type, donor heavy atom, donor atom, acceptor molecule, acceptor atom, score
      L1  H    15    31       P1  8028  0.19
      P1  H  7989  7998       L1    22  0.26
      P1  H 10752 10765       L1     1  0.28

> <Gold.Chemscore.Hbond.Weighted>
-4.3597

> <Gold.Chemscore.Metal.Weighted>
-0.0000

> <Gold.Chemscore.Lipo.Weighted>
-8.8836

> <Gold.Chemscore.Internal_Hbond.Weighted>
0.0000

> <Gold.Chemscore.DEClash.Weighted>
0.1169

> <Gold.Chemscore.DEInternal.Weighted>
1.2710

> <Gold.Chemscore.Rot.Weighted>
5.0665

> <Gold.Chemscore.Internal.Correction.Weighted>
   9.000000E+99

> <Gold.Protein.RotatedTorsions>
[ 6907 6896 6895 6894 ] final  139.04 input  -60.11 | X-H torsion
[ 7974 7965 7964 7962 ] final  -96.71 input  175.53 | X-H torsion
[ 8008 7997 7996 7995 ] final  -97.67 input   59.86 | X-H torsion
[ 10167 10162 10161 10158 ] final -106.47 input  -65.29 | X-H torsion
[ 10718 10713 10712 10709 ] final    7.60 input   66.30 | X-H torsion
[ 10763 10752 10751 10750 ] final -133.46 input  -60.55 | X-H torsion
[ 11005 11000 10999 10996 ] final  167.67 input  -57.11 | X-H torsion

> <Gold.Protein.ActiveResidues>
 VAL166  LYS551  ARG553  GLY616  TRP617  ASP618  TYR619  PRO620  LYS621  CYS622 
 ASP623  PHE694  ASN695  SER759  ASP760  ASP761  ALA762  ILE779  LEU786  VAL792 
 PHE793  MET794  SER795  GLU796  ALA797  LYS798  CYS799  TRP800  GLU811  SER814 

> <Gold.Protein.RotatedAtoms>
  152.2595  133.5285  159.5372 H   0  0  0  0  0  0  0  0  0  0  0  0  # atno 6907 bound_to 6896
  150.7120  134.0849  159.3920 H   0  0  0  0  0  0  0  0  0  0  0  0  # atno 6908 bound_to 6896
  151.8767  135.0469  160.0535 H   0  0  0  0  0  0  0  0  0  0  0  0  # atno 6909 bound_to 6896
  145.3433  140.9464  143.2595 H   0  0  0  0  0  0  0  0  0  0  0  0  # atno 7974 bound_to 7965
  154.7908  140.0461  157.1200 H   0  0  0  0  0  0  0  0  0  0  0  0  # atno 8008 bound_to 7997
  154.9593  140.3075  155.5019 H   0  0  0  0  0  0  0  0  0  0  0  0  # atno 8009 bound_to 7997
  156.2949  140.2273  156.4677 H   0  0  0  0  0  0  0  0  0  0  0  0  # atno 8010 bound_to 7997
  140.1874  143.3918  152.1233 H   0  0  0  0  0  0  0  0  0  0  0  0  # atno 10167 bound_to 10162
  156.9393  130.5855  149.5652 H   0  0  0  0  0  0  0  0  0  0  0  0  # atno 10718 bound_to 10713
  154.8732  135.3765  154.4576 H   0  0  0  0  0  0  0  0  0  0  0  0  # atno 10763 bound_to 10752
  153.5247  135.7028  153.5718 H   0  0  0  0  0  0  0  0  0  0  0  0  # atno 10764 bound_to 10752
  153.3950  135.3962  155.1914 H   0  0  0  0  0  0  0  0  0  0  0  0  # atno 10765 bound_to 10752
  140.2792  134.7764  157.3743 H   0  0  0  0  0  0  0  0  0  0  0  0  # atno 11005 bound_to 11000
  144.8773  139.4953  143.6739 LP  0  0  0  0  0  0  0  0  0  0  0  0  # atno 17320 bound_to 7965
  146.2998  139.7391  142.9099 LP  0  0  0  0  0  0  0  0  0  0  0  0  # atno 17321 bound_to 7965
  139.5270  144.7114  151.5193 LP  0  0  0  0  0  0  0  0  0  0  0  0  # atno 17342 bound_to 10162
  140.6479  143.8757  150.6755 LP  0  0  0  0  0  0  0  0  0  0  0  0  # atno 17343 bound_to 10162
  156.0411  130.5494  150.8774 LP  0  0  0  0  0  0  0  0  0  0  0  0  # atno 17370 bound_to 10713
  157.5795  131.0946  150.9293 LP  0  0  0  0  0  0  0  0  0  0  0  0  # atno 17371 bound_to 10713
  140.1299  134.5108  155.8114 LP  0  0  0  0  0  0  0  0  0  0  0  0  # atno 17394 bound_to 11000
  141.2165  133.6786  156.7021 LP  0  0  0  0  0  0  0  0  0  0  0  0  # atno 17395 bound_to 11000

$$$$
