AV-unprocessed.smi:99|AV-procd|sdf|891|dock9
  -GOLD-   2262017383D 1   1.00000     0.00000
 Structure written by MMmdl.
 52 55  0  0  0  0  0  0  0  0  2 V2000
  146.3226  141.9696  158.9658 O   0  0  0  0  0  0  0  0  0  0  0  0
  146.1835  142.1291  157.7514 C   0  0  0  0  0  0  0  0  0  0  0  0
  146.5922  141.2351  156.8303 O   0  0  0  0  0  0  0  0  0  0  0  0
  147.4119  140.1447  157.2169 C   0  0  0  0  0  0  0  0  0  0  0  0
  147.8897  139.3996  155.9629 C   0  0  2  0  0  0  0  0  0  0  0  0
  147.9592  138.0026  156.1971 O   0  0  0  0  0  0  0  0  0  0  0  0
  148.7574  137.4346  155.2081 C   0  0  2  0  0  0  0  0  0  0  0  0
  149.4043  136.1892  155.7760 N   0  0  0  0  0  0  0  0  0  0  0  0
  149.4558  135.0502  154.9924 C   0  0  0  0  0  0  0  0  0  0  0  0
  149.9910  133.9006  155.4517 C   0  0  0  0  0  0  0  0  0  0  0  0
  150.5212  133.8506  156.8107 C   0  0  0  0  0  0  0  0  0  0  0  0
  151.0225  132.8040  157.2165 O   0  0  0  0  0  0  0  0  0  0  0  0
  150.4325  134.9763  157.5755 N   0  5  0  0  0  0  0  0  0  0  0  0
  149.8807  136.1377  157.1169 C   0  0  0  0  0  0  0  0  0  0  0  0
  149.7716  137.1427  157.8157 O   0  0  0  0  0  0  0  0  0  0  0  0
  149.7677  138.5058  154.7483 C   0  0  1  0  0  0  0  0  0  0  0  0
  149.6914  138.7414  153.3570 O   0  0  0  0  0  0  0  0  0  0  0  0
  149.3037  139.7634  155.4885 C   0  0  2  0  0  0  0  0  0  0  0  0
  150.1489  140.0457  156.5979 O   0  0  0  0  0  0  0  0  0  0  0  0
  151.4238  140.4480  156.4233 C   0  0  0  0  0  0  0  0  0  0  0  0
  152.1165  140.1277  155.4553 O   0  0  0  0  0  0  0  0  0  0  0  0
  151.9064  141.3224  157.5305 C   0  0  0  0  0  0  0  0  0  0  0  0
  151.5250  142.6841  157.5572 C   0  0  0  0  0  0  0  0  0  0  0  0
  151.9703  143.5332  158.5892 C   0  0  0  0  0  0  0  0  0  0  0  0
  152.8039  143.0313  159.6056 C   0  0  0  0  0  0  0  0  0  0  0  0
  153.1913  141.6789  159.5894 C   0  0  0  0  0  0  0  0  0  0  0  0
  152.7457  140.8280  158.5595 C   0  0  0  0  0  0  0  0  0  0  0  0
  145.5404  143.3322  157.1480 C   0  0  0  0  0  0  0  0  0  0  0  0
  145.2276  143.3323  155.7686 C   0  0  0  0  0  0  0  0  0  0  0  0
  144.6295  144.4574  155.1685 C   0  0  0  0  0  0  0  0  0  0  0  0
  144.3360  145.5962  155.9408 C   0  0  0  0  0  0  0  0  0  0  0  0
  144.6401  145.6082  157.3146 C   0  0  0  0  0  0  0  0  0  0  0  0
  145.2389  144.4841  157.9164 C   0  0  0  0  0  0  0  0  0  0  0  0
  148.2710  140.5227  157.7728 H   0  0  0  0  0  0  0  0  0  0  0  0
  146.8600  139.4724  157.8755 H   0  0  0  0  0  0  0  0  0  0  0  0
  147.1922  139.5726  155.1413 H   0  0  0  0  0  0  0  0  0  0  0  0
  148.1141  137.0960  154.3944 H   0  0  0  0  0  0  0  0  0  0  0  0
  149.0632  135.0729  153.9867 H   0  0  0  0  0  0  0  0  0  0  0  0
  150.0241  133.0234  154.8224 H   0  0  0  0  0  0  0  0  0  0  0  0
  150.7915  138.2259  154.9980 H   0  0  0  0  0  0  0  0  0  0  0  0
  149.3821  137.9538  152.9368 H   0  0  0  0  0  0  0  0  0  0  0  0
  149.2626  140.6373  154.8359 H   0  0  0  0  0  0  0  0  0  0  0  0
  150.8875  143.0920  156.7864 H   0  0  0  0  0  0  0  0  0  0  0  0
  151.6731  144.5713  158.5991 H   0  0  0  0  0  0  0  0  0  0  0  0
  153.1470  143.6828  160.3957 H   0  0  0  0  0  0  0  0  0  0  0  0
  153.8340  141.2920  160.3663 H   0  0  0  0  0  0  0  0  0  0  0  0
  153.0658  139.7962  158.5758 H   0  0  0  0  0  0  0  0  0  0  0  0
  145.4454  142.4702  155.1545 H   0  0  0  0  0  0  0  0  0  0  0  0
  144.3978  144.4463  154.1136 H   0  0  0  0  0  0  0  0  0  0  0  0
  143.8790  146.4596  155.4801 H   0  0  0  0  0  0  0  0  0  0  0  0
  144.4161  146.4819  157.9086 H   0  0  0  0  0  0  0  0  0  0  0  0
  145.4625  144.5277  158.9723 H   0  0  0  0  0  0  0  0  0  0  0  0
  1  2  2  0  0  0  0
  2  3  1  0  0  0  0
  2 28  1  0  0  0  0
  3  4  1  0  0  0  0
  4  5  1  0  0  0  0
  4 34  1  0  0  0  0
  4 35  1  0  0  0  0
  5 18  1  0  0  0  0
  5  6  1  0  0  0  0
  5 36  1  0  0  0  0
  6  7  1  0  0  0  0
  7  8  1  0  0  0  0
  7 16  1  0  0  0  0
  7 37  1  0  0  0  0
  8 14  1  0  0  0  0
  8  9  1  0  0  0  0
  9 10  2  0  0  0  0
  9 38  1  0  0  0  0
 10 11  1  0  0  0  0
 10 39  1  0  0  0  0
 11 12  2  0  0  0  0
 11 13  1  0  0  0  0
 13 14  1  0  0  0  0
 14 15  2  0  0  0  0
 16 17  1  0  0  0  0
 16 18  1  0  0  0  0
 16 40  1  0  0  0  0
 17 41  1  0  0  0  0
 18 19  1  0  0  0  0
 18 42  1  0  0  0  0
 19 20  1  0  0  0  0
 20 21  2  0  0  0  0
 20 22  1  0  0  0  0
 22 27  1  0  0  0  0
 22 23  2  0  0  0  0
 23 24  1  0  0  0  0
 23 43  1  0  0  0  0
 24 25  2  0  0  0  0
 24 44  1  0  0  0  0
 25 26  1  0  0  0  0
 25 45  1  0  0  0  0
 26 27  2  0  0  0  0
 26 46  1  0  0  0  0
 27 47  1  0  0  0  0
 28 33  1  0  0  0  0
 28 29  2  0  0  0  0
 29 30  1  0  0  0  0
 29 48  1  0  0  0  0
 30 31  2  0  0  0  0
 30 49  1  0  0  0  0
 31 32  1  0  0  0  0
 31 50  1  0  0  0  0
 32 33  2  0  0  0  0
 32 51  1  0  0  0  0
 33 52  1  0  0  0  0
M  CHG  1  13  -1
M  END
> <s_m_source_file>
AV-unprocessed.smi

> <i_m_source_file_index>
99

> <i_lp_mmshare_version>
43012

> <i_f3d_flags>
0

> <s_epik_input>
W2NIXTFbY0hdW2NIXVtjSF1bY0hdYzFDKD1PKU9bQ0gyXVtDQEBIXTJPW0NAQEhdKG4zW2NIXVtjSF1jKD1PKVtuSF1jMz1PKVtDQEBIXShbT0hdKVtDQEhdMk9DKD1PKWM0W2NIXVtjSF1bY0hdW2NIXVtjSF00

> <s_epik_cmdline>
J2VwaWtfcHl0aG9uJywgJy1waCcsICc3LjAnLCAnLXRuJywgJzgnLCAnLW1hJywgJzIwMCcsICctbWV0YWxfYmluZGluZycsICctaW1hZScsICc8aW5maWxlLm1hZT4nLCAnLW9tYWUnLCAnPG91dGZpbGUubWFlPic=

> <r_lp_tautomer_probability>
1

> <r_epik_Ionization_Penalty>
2.89159

> <r_epik_Ionization_Penalty_Charging>
2.1077e-08

> <r_epik_Ionization_Penalty_Neutral>
2.89159

> <r_epik_State_Penalty>
2.88671

> <r_epik_Charging_Adjusted_Penalty>
2.88671

> <i_epik_Tot_Q>
-1

> <i_epik_Tot_abs_Q>
1

> <r_epik_Metal_State_Penalty>
0.0727308

> <b_epik_Metal_Only>
1

> <s_epik_Chemistry_Notes>
This compound has an ester and may undergo hydrolysis at high or low pH. This compound contains an acetal/aminal-like group ( X-CH(R)-Y where X, Y are N, S, or O) that may be acid/base labile, releasing an aldehyde.

> <s_lp_Force_Field>
OPLS_2005

> <r_lp_Energy>
34.2079

> <b_lp_Chiralities_Consistent>
1

> <s_lp_Variant>
AV-unprocessed.smi:99-27

> <Gold.Version>
5.8.1

> <Gold.Id.Protein>
6NUR|6NUR_protein|mol2

> <Gold.PLP.Fitness>
52.9473

> <Gold.PLP.PLP>
-44.0345

> <Gold.PLP.part.hbond>
-6.1005

> <Gold.PLP.part.metal>
0.0000

> <Gold.PLP.part.buried>
-6.8550

> <Gold.PLP.part.nonpolar>
-32.2606

> <Gold.PLP.part.repulsive>
0.0411

> <Gold.PLP.ligand.clash>
0.0000

> <Gold.PLP.ligand.torsion>
3.0270

> <Gold.PLP.Chemscore.Hbond>
3.8791

> <Gold.PLP.Chemscore.CHOScore>
1.0000

> <Gold.PLP.Chemscore.Metal>
0.0000

> <Gold.Chemscore.Hbonds>
donor molecule, donor type, donor heavy atom, donor atom, acceptor molecule, acceptor atom, score
      L1  H    17    41       P1  7948  0.98
      P1  H  6896  6908       L1    12  0.54
      P1  H  6896  6909       L1    13  0.65
      P1  H  6934  6946       L1     1  0.64
      P1  H  7989  7998       L1    21  0.55
      P1  H  7997  8008       L1    21  0.21
      L1  C     9    38       P1  7948  1.00

> <Gold.PLP.Chemscore.Internal.Correction>
0.3295

> <Gold.Rescore>
     Score         DG    S(hbond)    S(metal)    S(lipo)     H(rot)  DE(clash)    DE(int)     intcor
     13.40     -19.41       3.15        0.00      97.85       3.13       0.37       5.64       ----

> <Gold.Chemscore.Fitness>
13.4008

> <Gold.Chemscore.DG>
-19.4147

> <Gold.Chemscore.ZeroCoef>
-5.4800

> <Gold.Chemscore.Hbond>
3.1470

> <Gold.Chemscore.Metal>
0.0000

> <Gold.Chemscore.Lipo>
97.8494

> <Gold.Chemscore.Internal_Hbond>
0.0000

> <Gold.Chemscore.DEClash>
0.3714

> <Gold.Chemscore.DEInternal>
5.6424

> <Gold.Chemscore.Rot>
3.1346

> <Gold.Chemscore.Internal.Correction>
   9.000000E+99

> <Gold.Chemscore.Hbonds>
donor molecule, donor type, donor heavy atom, donor atom, acceptor molecule, acceptor atom, score
      L1  H    17    41       P1  7948  0.86
      P1  H  6896  6908       L1    12  0.19
      P1  H  6896  6909       L1    13  0.29
      P1  H  6934  6946       L1     1  0.62
      P1  H  7989  7998       L1    21  0.54
      P1  H  7997  8008       L1    21  0.13

> <Gold.Chemscore.Hbond.Weighted>
-10.5108

> <Gold.Chemscore.Metal.Weighted>
-0.0000

> <Gold.Chemscore.Lipo.Weighted>
-11.4484

> <Gold.Chemscore.Internal_Hbond.Weighted>
0.0000

> <Gold.Chemscore.DEClash.Weighted>
0.3714

> <Gold.Chemscore.DEInternal.Weighted>
5.6424

> <Gold.Chemscore.Rot.Weighted>
8.0246

> <Gold.Chemscore.Internal.Correction.Weighted>
   9.000000E+99

> <Gold.Protein.RotatedTorsions>
[ 6907 6896 6895 6894 ] final   63.35 input  -60.11 | X-H torsion
[ 7974 7965 7964 7962 ] final   45.46 input  175.53 | X-H torsion
[ 8008 7997 7996 7995 ] final  -34.71 input   59.86 | X-H torsion
[ 10167 10162 10161 10158 ] final   32.05 input  -65.29 | X-H torsion
[ 10718 10713 10712 10709 ] final -145.70 input   66.30 | X-H torsion
[ 10763 10752 10751 10750 ] final  -39.19 input  -60.55 | X-H torsion
[ 11005 11000 10999 10996 ] final -140.61 input  -57.11 | X-H torsion

> <Gold.Protein.ActiveResidues>
 VAL166  LYS551  ARG553  GLY616  TRP617  ASP618  TYR619  PRO620  LYS621  CYS622 
 ASP623  PHE694  ASN695  SER759  ASP760  ASP761  ALA762  ILE779  LEU786  VAL792 
 PHE793  MET794  SER795  GLU796  ALA797  LYS798  CYS799  TRP800  GLU811  SER814 

> <Gold.Protein.RotatedAtoms>
  152.4246  134.5893  159.9969 H   0  0  0  0  0  0  0  0  0  0  0  0  # atno 6907 bound_to 6896
  151.6033  133.3348  159.3060 H   0  0  0  0  0  0  0  0  0  0  0  0  # atno 6908 bound_to 6896
  150.8135  134.7340  159.6774 H   0  0  0  0  0  0  0  0  0  0  0  0  # atno 6909 bound_to 6896
  146.0478  139.4962  142.9737 H   0  0  0  0  0  0  0  0  0  0  0  0  # atno 7974 bound_to 7965
  154.4113  140.1676  156.2094 H   0  0  0  0  0  0  0  0  0  0  0  0  # atno 8008 bound_to 7997
  155.9457  140.3404  155.6341 H   0  0  0  0  0  0  0  0  0  0  0  0  # atno 8009 bound_to 7997
  155.6933  140.0736  157.2430 H   0  0  0  0  0  0  0  0  0  0  0  0  # atno 8010 bound_to 7997
  140.4533  144.1015  150.6196 H   0  0  0  0  0  0  0  0  0  0  0  0  # atno 10167 bound_to 10162
  156.3858  130.7860  151.2057 H   0  0  0  0  0  0  0  0  0  0  0  0  # atno 10718 bound_to 10713
  153.9252  135.6778  153.4746 H   0  0  0  0  0  0  0  0  0  0  0  0  # atno 10763 bound_to 10752
  153.1008  135.4829  154.8860 H   0  0  0  0  0  0  0  0  0  0  0  0  # atno 10764 bound_to 10752
  154.7457  135.3172  154.8606 H   0  0  0  0  0  0  0  0  0  0  0  0  # atno 10765 bound_to 10752
  140.8406  134.2407  157.4812 H   0  0  0  0  0  0  0  0  0  0  0  0  # atno 11005 bound_to 11000
  145.6776  141.0200  143.1624 LP  0  0  0  0  0  0  0  0  0  0  0  0  # atno 17320 bound_to 7965
  144.7107  139.8383  143.7415 LP  0  0  0  0  0  0  0  0  0  0  0  0  # atno 17321 bound_to 7965
  140.4181  143.2624  151.9750 LP  0  0  0  0  0  0  0  0  0  0  0  0  # atno 17342 bound_to 10162
  139.4798  144.5856  151.7860 LP  0  0  0  0  0  0  0  0  0  0  0  0  # atno 17343 bound_to 10162
  157.7495  131.0330  150.4254 LP  0  0  0  0  0  0  0  0  0  0  0  0  # atno 17370 bound_to 10713
  156.4506  130.4011  149.6638 LP  0  0  0  0  0  0  0  0  0  0  0  0  # atno 17371 bound_to 10713
  139.8703  134.9633  156.4458 LP  0  0  0  0  0  0  0  0  0  0  0  0  # atno 17394 bound_to 11000
  140.8899  133.7855  155.9560 LP  0  0  0  0  0  0  0  0  0  0  0  0  # atno 17395 bound_to 11000

$$$$
