AV-unprocessed.smi:2051|AV-procd|sdf|8327|dock9
  -GOLD-   2272010593D 1   1.00000     0.00000
 Structure written by MMmdl.
 33 34  0  0  0  0  0  0  0  0  1 V2000
  150.0249  142.6241  158.4168 O   0  0  0  0  0  0  0  0  0  0  0  0
  150.9542  142.9549  157.6784 C   0  0  0  0  0  0  0  0  0  0  0  0
  152.1623  143.7321  158.2218 C   0  0  0  0  0  0  0  0  0  0  0  0
  152.8163  143.0809  159.3694 N   0  0  0  0  0  0  0  0  0  0  0  0
  152.7703  143.7612  160.6026 C   0  0  0  0  0  0  0  0  0  0  0  0
  153.3356  143.2596  161.7121 C   0  0  0  0  0  0  0  0  0  0  0  0
  154.0057  141.9843  161.6199 C   0  0  0  0  0  0  0  0  0  0  0  0
  154.0583  141.3265  160.4444 C   0  0  0  0  0  0  0  0  0  0  0  0
  153.4445  141.8727  159.2283 C   0  0  0  0  0  0  0  0  0  0  0  0
  153.4921  141.2806  158.1497 O   0  0  0  0  0  0  0  0  0  0  0  0
  150.9925  142.6587  156.3708 N   0  0  0  0  0  0  0  0  0  0  0  0
  149.9644  141.9225  155.6441 C   0  0  0  0  0  0  0  0  0  0  0  0
  150.4574  140.5317  155.2105 C   0  0  1  0  0  0  0  0  0  0  0  0
  149.5185  139.8173  154.2379 C   0  0  0  0  0  0  0  0  0  0  0  0
  150.4445  138.9258  153.4218 C   0  0  0  0  0  0  0  0  0  0  0  0
  151.8509  139.3716  153.8285 C   0  0  0  0  0  0  0  0  0  0  0  0
  151.6596  140.6271  154.4624 O   0  0  0  0  0  0  0  0  0  0  0  0
  152.8743  143.8679  157.4067 H   0  0  0  0  0  0  0  0  0  0  0  0
  151.8447  144.7411  158.4916 H   0  0  0  0  0  0  0  0  0  0  0  0
  152.2564  144.7114  160.5851 H   0  0  0  0  0  0  0  0  0  0  0  0
  153.2933  143.7976  162.6477 H   0  0  0  0  0  0  0  0  0  0  0  0
  154.4675  141.5558  162.4971 H   0  0  0  0  0  0  0  0  0  0  0  0
  154.5643  140.3736  160.3941 H   0  0  0  0  0  0  0  0  0  0  0  0
  151.7958  142.9611  155.8392 H   0  0  0  0  0  0  0  0  0  0  0  0
  149.0707  141.8301  156.2634 H   0  0  0  0  0  0  0  0  0  0  0  0
  149.6771  142.5084  154.7706 H   0  0  0  0  0  0  0  0  0  0  0  0
  150.6315  139.8953  156.0805 H   0  0  0  0  0  0  0  0  0  0  0  0
  148.7376  139.2578  154.7536 H   0  0  0  0  0  0  0  0  0  0  0  0
  149.0329  140.5369  153.5773 H   0  0  0  0  0  0  0  0  0  0  0  0
  150.2901  137.8681  153.6374 H   0  0  0  0  0  0  0  0  0  0  0  0
  150.2761  139.0785  152.3551 H   0  0  0  0  0  0  0  0  0  0  0  0
  152.2839  138.6709  154.5442 H   0  0  0  0  0  0  0  0  0  0  0  0
  152.5291  139.4529  152.9788 H   0  0  0  0  0  0  0  0  0  0  0  0
  1  2  2  0  0  0  0
  2  3  1  0  0  0  0
  2 11  1  0  0  0  0
  3  4  1  0  0  0  0
  3 18  1  0  0  0  0
  3 19  1  0  0  0  0
  4  9  1  0  0  0  0
  4  5  1  0  0  0  0
  5  6  2  0  0  0  0
  5 20  1  0  0  0  0
  6  7  1  0  0  0  0
  6 21  1  0  0  0  0
  7  8  2  0  0  0  0
  7 22  1  0  0  0  0
  8  9  1  0  0  0  0
  8 23  1  0  0  0  0
  9 10  2  0  0  0  0
 11 12  1  0  0  0  0
 11 24  1  0  0  0  0
 12 13  1  0  0  0  0
 12 25  1  0  0  0  0
 12 26  1  0  0  0  0
 13 17  1  0  0  0  0
 13 14  1  0  0  0  0
 13 27  1  0  0  0  0
 14 15  1  0  0  0  0
 14 28  1  0  0  0  0
 14 29  1  0  0  0  0
 15 16  1  0  0  0  0
 15 30  1  0  0  0  0
 15 31  1  0  0  0  0
 16 17  1  0  0  0  0
 16 32  1  0  0  0  0
 16 33  1  0  0  0  0
M  END
> <s_m_source_file>
AV-unprocessed.smi

> <i_m_source_file_index>
2051

> <i_lp_mmshare_version>
43012

> <i_f3d_flags>
0

> <s_epik_input>
TzFbQ0gyXVtDSDJdW0NIMl1bQ0BIXTFbQ0gyXVtOSF1DKD1PKVtDSDJdbjJbY0hdW2NIXVtjSF1bY0hdYzI9Tw==

> <s_epik_cmdline>
J2VwaWtfcHl0aG9uJywgJy1waCcsICc3LjAnLCAnLXRuJywgJzgnLCAnLW1hJywgJzIwMCcsICctbWV0YWxfYmluZGluZycsICctaW1hZScsICc8aW5maWxlLm1hZT4nLCAnLW9tYWUnLCAnPG91dGZpbGUubWFlPic=

> <r_lp_tautomer_probability>
1

> <r_epik_Ionization_Penalty>
3.94187e-07

> <r_epik_Ionization_Penalty_Charging>
3.67328e-07

> <r_epik_Ionization_Penalty_Neutral>
2.6859e-08

> <r_epik_State_Penalty>
-0

> <r_epik_Charging_Adjusted_Penalty>
3.67328e-07

> <i_epik_Tot_Q>
0

> <i_epik_Tot_abs_Q>
0

> <r_epik_Metal_State_Penalty>
-0

> <b_epik_Metal_Only>
0

> <s_lp_Force_Field>
OPLS_2005

> <r_lp_Energy>
26.6962

> <b_lp_Chiralities_Consistent>
1

> <s_lp_Variant>
AV-unprocessed.smi:2051-2

> <Gold.Version>
5.8.1

> <Gold.Id.Protein>
6NUR|6NUR_protein|mol2

> <Gold.PLP.Fitness>
48.8171

> <Gold.PLP.PLP>
-46.4271

> <Gold.PLP.part.hbond>
-1.4215

> <Gold.PLP.part.metal>
0.0000

> <Gold.PLP.part.buried>
-3.8202

> <Gold.PLP.part.nonpolar>
-40.1955

> <Gold.PLP.part.repulsive>
0.2837

> <Gold.PLP.ligand.clash>
0.0000

> <Gold.PLP.ligand.torsion>
0.1299

> <Gold.PLP.Chemscore.Hbond>
0.8800

> <Gold.PLP.Chemscore.CHOScore>
0.0000

> <Gold.PLP.Chemscore.Metal>
0.0000

> <Gold.Chemscore.Hbonds>
donor molecule, donor type, donor heavy atom, donor atom, acceptor molecule, acceptor atom, score
      P1  H  7997  8009       L1    10  0.30

> <Gold.PLP.Chemscore.Internal.Correction>
0.0098

> <Gold.Rescore>
     Score         DG    S(hbond)    S(metal)    S(lipo)     H(rot)  DE(clash)    DE(int)     intcor
     11.91     -13.31       0.46        0.00      90.73       1.69       0.04       1.36       ----

> <Gold.Chemscore.Fitness>
11.9081

> <Gold.Chemscore.DG>
-13.3087

> <Gold.Chemscore.ZeroCoef>
-5.4800

> <Gold.Chemscore.Hbond>
0.4636

> <Gold.Chemscore.Metal>
0.0000

> <Gold.Chemscore.Lipo>
90.7339

> <Gold.Chemscore.Internal_Hbond>
0.0000

> <Gold.Chemscore.DEClash>
0.0392

> <Gold.Chemscore.DEInternal>
1.3615

> <Gold.Chemscore.Rot>
1.6936

> <Gold.Chemscore.Internal.Correction>
   9.000000E+99

> <Gold.Chemscore.Hbonds>
donor molecule, donor type, donor heavy atom, donor atom, acceptor molecule, acceptor atom, score
      P1  H  7997  8009       L1    10  0.30

> <Gold.Chemscore.Hbond.Weighted>
-1.5486

> <Gold.Chemscore.Metal.Weighted>
-0.0000

> <Gold.Chemscore.Lipo.Weighted>
-10.6159

> <Gold.Chemscore.Internal_Hbond.Weighted>
0.0000

> <Gold.Chemscore.DEClash.Weighted>
0.0392

> <Gold.Chemscore.DEInternal.Weighted>
1.3615

> <Gold.Chemscore.Rot.Weighted>
4.3357

> <Gold.Chemscore.Internal.Correction.Weighted>
   9.000000E+99

> <Gold.Protein.RotatedTorsions>
[ 6907 6896 6895 6894 ] final   41.28 input  -60.11 | X-H torsion
[ 7974 7965 7964 7962 ] final  -62.61 input  175.53 | X-H torsion
[ 8008 7997 7996 7995 ] final  154.01 input   59.86 | X-H torsion
[ 10167 10162 10161 10158 ] final -171.86 input  -65.29 | X-H torsion
[ 10718 10713 10712 10709 ] final  -87.73 input   66.30 | X-H torsion
[ 10763 10752 10751 10750 ] final  -25.59 input  -60.55 | X-H torsion
[ 11005 11000 10999 10996 ] final  121.44 input  -57.11 | X-H torsion

> <Gold.Protein.ActiveResidues>
 VAL166  LYS551  ARG553  GLY616  TRP617  ASP618  TYR619  PRO620  LYS621  CYS622 
 ASP623  PHE694  ASN695  SER759  ASP760  ASP761  ALA762  ILE779  LEU786  VAL792 
 PHE793  MET794  SER795  GLU796  ALA797  LYS798  CYS799  TRP800  GLU811  SER814 

> <Gold.Protein.RotatedAtoms>
  152.1932  134.8654  160.0515 H   0  0  0  0  0  0  0  0  0  0  0  0  # atno 6907 bound_to 6896
  151.9535  133.3668  159.4017 H   0  0  0  0  0  0  0  0  0  0  0  0  # atno 6908 bound_to 6896
  150.6939  134.4239  159.5262 H   0  0  0  0  0  0  0  0  0  0  0  0  # atno 6909 bound_to 6896
  145.7892  140.8719  143.0290 H   0  0  0  0  0  0  0  0  0  0  0  0  # atno 7974 bound_to 7965
  156.2553  140.1978  156.6579 H   0  0  0  0  0  0  0  0  0  0  0  0  # atno 8008 bound_to 7997
  154.6487  140.0574  156.9955 H   0  0  0  0  0  0  0  0  0  0  0  0  # atno 8009 bound_to 7997
  155.1452  140.3246  155.4446 H   0  0  0  0  0  0  0  0  0  0  0  0  # atno 8010 bound_to 7997
  139.5778  144.1493  152.1474 H   0  0  0  0  0  0  0  0  0  0  0  0  # atno 10167 bound_to 10162
  155.9985  130.4810  150.4911 H   0  0  0  0  0  0  0  0  0  0  0  0  # atno 10718 bound_to 10713
  153.7023  135.6955  153.5060 H   0  0  0  0  0  0  0  0  0  0  0  0  # atno 10763 bound_to 10752
  153.2333  135.4330  155.0618 H   0  0  0  0  0  0  0  0  0  0  0  0  # atno 10764 bound_to 10752
  154.8340  135.3489  154.6562 H   0  0  0  0  0  0  0  0  0  0  0  0  # atno 10765 bound_to 10752
  139.9226  134.9639  156.7958 H   0  0  0  0  0  0  0  0  0  0  0  0  # atno 11005 bound_to 11000
  144.6784  140.0099  143.7484 LP  0  0  0  0  0  0  0  0  0  0  0  0  # atno 17320 bound_to 7965
  145.9995  139.3079  143.0936 LP  0  0  0  0  0  0  0  0  0  0  0  0  # atno 17321 bound_to 7965
  140.1040  144.5515  150.6970 LP  0  0  0  0  0  0  0  0  0  0  0  0  # atno 17342 bound_to 10162
  140.7059  143.2467  151.4728 LP  0  0  0  0  0  0  0  0  0  0  0  0  # atno 17343 bound_to 10162
  157.2906  131.0625  151.2136 LP  0  0  0  0  0  0  0  0  0  0  0  0  # atno 17370 bound_to 10713
  157.3150  130.6909  149.6237 LP  0  0  0  0  0  0  0  0  0  0  0  0  # atno 17371 bound_to 10713
  140.6430  133.9801  155.7717 LP  0  0  0  0  0  0  0  0  0  0  0  0  # atno 17394 bound_to 11000
  141.0759  134.0136  157.3459 LP  0  0  0  0  0  0  0  0  0  0  0  0  # atno 17395 bound_to 11000

$$$$
