AV-unprocessed.smi:3314|AV-procd|sdf|12743|dock8
  -GOLD-   2272019 83D 1   1.00000     0.00000
 Structure written by MMmdl.
 37 38  0  0  0  0  0  0  0  0  3 V2000
  151.5588  145.7902  160.0891 C   0  0  0  0  0  0  0  0  0  0  0  0
  151.8479  144.3793  159.6218 C   0  0  0  0  0  0  0  0  0  0  0  0
  152.7183  143.5420  160.3451 C   0  0  0  0  0  0  0  0  0  0  0  0
  152.9500  142.2432  159.8519 C   0  0  0  0  0  0  0  0  0  0  0  0
  153.8741  141.2893  160.5791 C   0  0  0  0  0  0  0  0  0  0  0  0
  152.3758  141.7678  158.7257 N   0  0  0  0  0  0  0  0  0  0  0  0
  151.5292  142.5600  158.0258 C   0  0  0  0  0  0  0  0  0  0  0  0
  150.9743  142.0793  156.9038 N   0  5  0  0  0  0  0  0  0  0  0  0
  151.0645  140.7582  156.6143 C   0  0  0  0  0  0  0  0  0  0  0  0
  151.5920  139.8582  157.2709 O   0  0  0  0  0  0  0  0  0  0  0  0
  150.4075  140.4240  155.2676 C   0  0  2  0  0  0  0  0  0  0  0  0
  149.0114  141.0703  155.1322 C   0  0  0  0  0  0  0  0  0  0  0  0
  148.3762  140.6538  153.8613 N   0  3  2  0  0  0  0  0  0  0  0  0
  147.0550  141.2825  153.6506 C   0  0  0  0  0  0  0  0  0  0  0  0
  148.3319  139.1780  153.7527 C   0  0  0  0  0  0  0  0  0  0  0  0
  149.7390  138.5869  153.9384 C   0  0  0  0  0  0  0  0  0  0  0  0
  150.2711  139.0081  155.1875 O   0  0  0  0  0  0  0  0  0  0  0  0
  151.2496  143.8809  158.4471 C   0  0  0  0  0  0  0  0  0  0  0  0
  151.9306  145.9558  161.1006 H   0  0  0  0  0  0  0  0  0  0  0  0
  150.4850  145.9785  160.0867 H   0  0  0  0  0  0  0  0  0  0  0  0
  152.0367  146.5110  159.4254 H   0  0  0  0  0  0  0  0  0  0  0  0
  153.1964  143.8857  161.2507 H   0  0  0  0  0  0  0  0  0  0  0  0
  154.4938  141.8180  161.3036 H   0  0  0  0  0  0  0  0  0  0  0  0
  154.5351  140.7831  159.8750 H   0  0  0  0  0  0  0  0  0  0  0  0
  153.2931  140.5348  161.1100 H   0  0  0  0  0  0  0  0  0  0  0  0
  151.0383  140.7655  154.4423 H   0  0  0  0  0  0  0  0  0  0  0  0
  148.3677  140.7829  155.9658 H   0  0  0  0  0  0  0  0  0  0  0  0
  149.1003  142.1574  155.1546 H   0  0  0  0  0  0  0  0  0  0  0  0
  146.3480  140.9772  154.4232 H   0  0  0  0  0  0  0  0  0  0  0  0
  146.6454  141.0001  152.6804 H   0  0  0  0  0  0  0  0  0  0  0  0
  147.1391  142.3694  153.6730 H   0  0  0  0  0  0  0  0  0  0  0  0
  147.6564  138.7745  154.5088 H   0  0  0  0  0  0  0  0  0  0  0  0
  147.9339  138.8909  152.7788 H   0  0  0  0  0  0  0  0  0  0  0  0
  149.6942  137.4978  153.9233 H   0  0  0  0  0  0  0  0  0  0  0  0
  150.4011  138.8893  153.1255 H   0  0  0  0  0  0  0  0  0  0  0  0
  150.5800  144.5065  157.8744 H   0  0  0  0  0  0  0  0  0  0  0  0
  148.9779  140.9815  153.1189 H   0  0  0  0  0  0  0  0  0  0  0  0
  1  2  1  0  0  0  0
  1 19  1  0  0  0  0
  1 20  1  0  0  0  0
  1 21  1  0  0  0  0
  2 18  2  0  0  0  0
  2  3  1  0  0  0  0
  3  4  2  0  0  0  0
  3 22  1  0  0  0  0
  4  5  1  0  0  0  0
  4  6  1  0  0  0  0
  5 23  1  0  0  0  0
  5 24  1  0  0  0  0
  5 25  1  0  0  0  0
  6  7  2  0  0  0  0
  7  8  1  0  0  0  0
  7 18  1  0  0  0  0
  8  9  1  0  0  0  0
  9 10  2  0  0  0  0
  9 11  1  0  0  0  0
 11 17  1  0  0  0  0
 11 12  1  0  0  0  0
 11 26  1  0  0  0  0
 12 13  1  0  0  0  0
 12 27  1  0  0  0  0
 12 28  1  0  0  0  0
 13 14  1  0  0  0  0
 13 15  1  0  0  0  0
 13 37  1  0  0  0  0
 14 29  1  0  0  0  0
 14 30  1  0  0  0  0
 14 31  1  0  0  0  0
 15 16  1  0  0  0  0
 15 32  1  0  0  0  0
 15 33  1  0  0  0  0
 16 17  1  0  0  0  0
 16 34  1  0  0  0  0
 16 35  1  0  0  0  0
 18 36  1  0  0  0  0
M  CHG  1   8  -1
M  CHG  1  13   1
M  END
> <s_m_source_file>
AV-unprocessed.smi

> <i_m_source_file_index>
3314

> <i_lp_mmshare_version>
43012

> <i_f3d_flags>
0

> <s_epik_input>
W0NIM11jMVtjSF1jKFtDSDNdKW5jKFtjSF0xKVtOSF1DKD1PKVtDQEBIXTJbQ0gyXU4oW0NIM10pW0NIMl1bQ0gyXU8y

> <s_epik_cmdline>
J2VwaWtfcHl0aG9uJywgJy1waCcsICc3LjAnLCAnLXRuJywgJzgnLCAnLW1hJywgJzIwMCcsICctbWV0YWxfYmluZGluZycsICctaW1hZScsICc8aW5maWxlLm1hZT4nLCAnLW9tYWUnLCAnPG91dGZpbGUubWFlPic=

> <r_epik_Ionization_Penalty>
13.8964

> <r_epik_Ionization_Penalty_Charging>
7.88995

> <r_epik_Ionization_Penalty_Neutral>
6.00641

> <r_epik_State_Penalty>
8.39989

> <r_epik_Charging_Adjusted_Penalty>
16.2898

> <i_epik_Tot_Q>
0

> <i_epik_Tot_abs_Q>
2

> <r_epik_Metal_State_Penalty>
4.31145

> <b_epik_Metal_Only>
1

> <s_lp_Force_Field>
OPLS_2005

> <r_lp_Energy>
9.48457

> <b_lp_Chiralities_Consistent>
1

> <s_lp_Variant>
AV-unprocessed.smi:3314-13

> <Gold.Version>
5.8.1

> <Gold.Id.Protein>
6NUR|6NUR_protein|mol2

> <Gold.PLP.Fitness>
40.8190

> <Gold.PLP.PLP>
-39.8701

> <Gold.PLP.part.hbond>
-1.0000

> <Gold.PLP.part.metal>
0.0000

> <Gold.PLP.part.buried>
-2.6237

> <Gold.PLP.part.nonpolar>
-35.6428

> <Gold.PLP.part.repulsive>
0.2652

> <Gold.PLP.ligand.clash>
0.0000

> <Gold.PLP.ligand.torsion>
0.3360

> <Gold.PLP.Chemscore.Hbond>
0.5382

> <Gold.PLP.Chemscore.CHOScore>
0.0000

> <Gold.PLP.Chemscore.Metal>
0.0000

> <Gold.Chemscore.Hbonds>
donor molecule, donor type, donor heavy atom, donor atom, acceptor molecule, acceptor atom, score
      L1  H    13    37       P1  7957  0.29

> <Gold.PLP.Chemscore.Internal.Correction>
0.0062

> <Gold.Rescore>
     Score         DG    S(hbond)    S(metal)    S(lipo)     H(rot)  DE(clash)    DE(int)     intcor
     15.27     -17.51       0.74        0.00     103.55       1.00       0.07       2.17       ----

> <Gold.Chemscore.Fitness>
15.2726

> <Gold.Chemscore.DG>
-17.5150

> <Gold.Chemscore.ZeroCoef>
-5.4800

> <Gold.Chemscore.Hbond>
0.7423

> <Gold.Chemscore.Metal>
0.0000

> <Gold.Chemscore.Lipo>
103.5536

> <Gold.Chemscore.Internal_Hbond>
0.0000

> <Gold.Chemscore.DEClash>
0.0747

> <Gold.Chemscore.DEInternal>
2.1676

> <Gold.Chemscore.Rot>
1.0000

> <Gold.Chemscore.Internal.Correction>
   9.000000E+99

> <Gold.Chemscore.Hbonds>
donor molecule, donor type, donor heavy atom, donor atom, acceptor molecule, acceptor atom, score
      L1  H    13    37       P1  7957  0.28

> <Gold.Chemscore.Hbond.Weighted>
-2.4792

> <Gold.Chemscore.Metal.Weighted>
-0.0000

> <Gold.Chemscore.Lipo.Weighted>
-12.1158

> <Gold.Chemscore.Internal_Hbond.Weighted>
0.0000

> <Gold.Chemscore.DEClash.Weighted>
0.0747

> <Gold.Chemscore.DEInternal.Weighted>
2.1676

> <Gold.Chemscore.Rot.Weighted>
2.5600

> <Gold.Chemscore.Internal.Correction.Weighted>
   9.000000E+99

> <Gold.Protein.RotatedTorsions>
[ 6907 6896 6895 6894 ] final  -13.34 input  -60.11 | X-H torsion
[ 7974 7965 7964 7962 ] final  -50.27 input  175.53 | X-H torsion
[ 8008 7997 7996 7995 ] final -137.89 input   59.86 | X-H torsion
[ 10167 10162 10161 10158 ] final  159.52 input  -65.29 | X-H torsion
[ 10718 10713 10712 10709 ] final   33.24 input   66.30 | X-H torsion
[ 10763 10752 10751 10750 ] final  -95.77 input  -60.55 | X-H torsion
[ 11005 11000 10999 10996 ] final  -40.36 input  -57.11 | X-H torsion

> <Gold.Protein.ActiveResidues>
 VAL166  LYS551  ARG553  GLY616  TRP617  ASP618  TYR619  PRO620  LYS621  CYS622 
 ASP623  PHE694  ASN695  SER759  ASP760  ASP761  ALA762  ILE779  LEU786  VAL792 
 PHE793  MET794  SER795  GLU796  ALA797  LYS798  CYS799  TRP800  GLU811  SER814 

> <Gold.Protein.RotatedAtoms>
  151.3564  135.0895  159.9419 H   0  0  0  0  0  0  0  0  0  0  0  0  # atno 6907 bound_to 6896
  152.5173  133.9302  159.7587 H   0  0  0  0  0  0  0  0  0  0  0  0  # atno 6908 bound_to 6896
  150.9687  133.6313  159.2771 H   0  0  0  0  0  0  0  0  0  0  0  0  # atno 6909 bound_to 6896
  145.9317  140.7743  142.9596 H   0  0  0  0  0  0  0  0  0  0  0  0  # atno 7974 bound_to 7965
  155.4193  140.0517  157.3026 H   0  0  0  0  0  0  0  0  0  0  0  0  # atno 8008 bound_to 7997
  154.4910  140.2120  155.9508 H   0  0  0  0  0  0  0  0  0  0  0  0  # atno 8009 bound_to 7997
  156.1341  140.3166  155.8399 H   0  0  0  0  0  0  0  0  0  0  0  0  # atno 8010 bound_to 7997
  139.4833  144.4722  151.8561 H   0  0  0  0  0  0  0  0  0  0  0  0  # atno 10167 bound_to 10162
  157.2954  130.7323  149.6635 H   0  0  0  0  0  0  0  0  0  0  0  0  # atno 10718 bound_to 10713
  154.7178  135.5108  153.8765 H   0  0  0  0  0  0  0  0  0  0  0  0  # atno 10763 bound_to 10752
  153.0836  135.6638  154.0003 H   0  0  0  0  0  0  0  0  0  0  0  0  # atno 10764 bound_to 10752
  153.9832  135.3027  155.3398 H   0  0  0  0  0  0  0  0  0  0  0  0  # atno 10765 bound_to 10752
  141.0169  133.6881  156.2310 H   0  0  0  0  0  0  0  0  0  0  0  0  # atno 11005 bound_to 11000
  144.6766  140.2137  143.7374 LP  0  0  0  0  0  0  0  0  0  0  0  0  # atno 17320 bound_to 7965
  145.8418  139.2133  143.1823 LP  0  0  0  0  0  0  0  0  0  0  0  0  # atno 17321 bound_to 7965
  140.4191  144.2267  150.5887 LP  0  0  0  0  0  0  0  0  0  0  0  0  # atno 17342 bound_to 10162
  140.4891  143.2353  151.8844 LP  0  0  0  0  0  0  0  0  0  0  0  0  # atno 17343 bound_to 10162
  155.9669  130.4296  150.4840 LP  0  0  0  0  0  0  0  0  0  0  0  0  # atno 17370 bound_to 10713
  157.2811  131.0607  151.2197 LP  0  0  0  0  0  0  0  0  0  0  0  0  # atno 17371 bound_to 10713
  140.6640  134.4938  157.5584 LP  0  0  0  0  0  0  0  0  0  0  0  0  # atno 17394 bound_to 11000
  139.9122  134.8320  156.1488 LP  0  0  0  0  0  0  0  0  0  0  0  0  # atno 17395 bound_to 11000

$$$$
