AV-unprocessed.smi:2691|AV-procd|sdf|10393|dock9
  -GOLD-   2272014433D 1   1.00000     0.00000
 Structure written by MMmdl.
 50 52  0  0  0  0  0  0  0  0  2 V2000
  152.2822  143.7882  160.4040 C   0  0  0  0  0  0  0  0  0  0  0  0
  152.0327  142.7974  159.2794 C   0  0  0  0  0  0  0  0  0  0  0  0
  151.1691  143.1760  158.2264 C   0  0  0  0  0  0  0  0  0  0  0  0
  150.9582  142.2474  157.2141 C   0  0  0  0  0  0  0  0  0  0  0  0
  150.1751  142.3131  156.0592 N   0  3  0  0  0  0  0  0  0  0  0  0
  150.2830  141.1434  155.3700 C   0  0  0  0  0  0  0  0  0  0  0  0
  151.1254  140.3338  156.0671 N   0  0  0  0  0  0  0  0  0  0  0  0
  151.5725  138.9658  155.7774 C   0  0  0  0  0  0  0  0  0  0  0  0
  150.9643  138.4080  154.4714 C   0  0  1  0  0  0  0  0  0  0  0  0
  151.6439  137.2350  154.0688 O   0  0  0  0  0  0  0  0  0  0  0  0
  149.4353  138.1507  154.4867 C   0  0  0  0  0  0  0  0  0  0  0  0
  148.9715  137.2740  155.5785 N   0  0  0  0  0  0  0  0  0  0  0  0
  148.6374  135.9479  155.2367 C   0  0  0  0  0  0  0  0  0  0  0  0
  148.2278  135.0970  156.1226 N   0  0  0  0  0  0  0  0  0  0  0  0
  148.1167  135.4861  157.4619 C   0  0  0  0  0  0  0  0  0  0  0  0
  147.6294  134.4353  158.4508 C   0  0  0  0  0  0  0  0  0  0  0  0
  147.5929  134.9788  159.8882 C   0  0  0  0  0  0  0  0  0  0  0  0
  148.4593  133.1456  158.3530 C   0  0  0  0  0  0  0  0  0  0  0  0
  148.4299  136.7488  157.8405 C   0  0  0  0  0  0  0  0  0  0  0  0
  148.8945  137.7319  156.8621 C   0  0  0  0  0  0  0  0  0  0  0  0
  149.1950  138.8841  157.1738 O   0  0  0  0  0  0  0  0  0  0  0  0
  151.5725  140.9801  157.2237 C   0  0  0  0  0  0  0  0  0  0  0  0
  152.4275  140.5912  158.2518 C   0  0  0  0  0  0  0  0  0  0  0  0
  152.6552  141.5219  159.2908 C   0  0  0  0  0  0  0  0  0  0  0  0
  153.5838  141.1266  160.4265 C   0  0  0  0  0  0  0  0  0  0  0  0
  151.6998  144.7001  160.2687 H   0  0  0  0  0  0  0  0  0  0  0  0
  153.3354  144.0673  160.4409 H   0  0  0  0  0  0  0  0  0  0  0  0
  152.0038  143.3568  161.3657 H   0  0  0  0  0  0  0  0  0  0  0  0
  150.6922  144.1451  158.2108 H   0  0  0  0  0  0  0  0  0  0  0  0
  149.7850  140.8982  154.4428 H   0  0  0  0  0  0  0  0  0  0  0  0
  152.6611  138.9930  155.7155 H   0  0  0  0  0  0  0  0  0  0  0  0
  151.3225  138.3328  156.6296 H   0  0  0  0  0  0  0  0  0  0  0  0
  151.1538  139.1286  153.6753 H   0  0  0  0  0  0  0  0  0  0  0  0
  151.3448  136.9941  153.2052 H   0  0  0  0  0  0  0  0  0  0  0  0
  148.9347  139.1180  154.5607 H   0  0  0  0  0  0  0  0  0  0  0  0
  149.1036  137.7642  153.5210 H   0  0  0  0  0  0  0  0  0  0  0  0
  148.7416  135.6935  154.1807 H   0  0  0  0  0  0  0  0  0  0  0  0
  146.6037  134.1800  158.1794 H   0  0  0  0  0  0  0  0  0  0  0  0
  146.9878  135.8837  159.9498 H   0  0  0  0  0  0  0  0  0  0  0  0
  148.5912  135.2196  160.2548 H   0  0  0  0  0  0  0  0  0  0  0  0
  147.1597  134.2475  160.5711 H   0  0  0  0  0  0  0  0  0  0  0  0
  148.4491  132.7497  157.3369 H   0  0  0  0  0  0  0  0  0  0  0  0
  148.0602  132.3726  159.0103 H   0  0  0  0  0  0  0  0  0  0  0  0
  149.4993  133.3140  158.6342 H   0  0  0  0  0  0  0  0  0  0  0  0
  148.3424  137.0415  158.8765 H   0  0  0  0  0  0  0  0  0  0  0  0
  152.8980  139.6193  158.2607 H   0  0  0  0  0  0  0  0  0  0  0  0
  154.0151  140.1383  160.2637 H   0  0  0  0  0  0  0  0  0  0  0  0
  153.0422  141.1029  161.3724 H   0  0  0  0  0  0  0  0  0  0  0  0
  154.4063  141.8366  160.5154 H   0  0  0  0  0  0  0  0  0  0  0  0
  149.6051  143.0948  155.7626 H   0  0  0  0  0  0  0  0  0  0  0  0
  1  2  1  0  0  0  0
  1 26  1  0  0  0  0
  1 27  1  0  0  0  0
  1 28  1  0  0  0  0
  2 24  1  0  0  0  0
  2  3  2  0  0  0  0
  3  4  1  0  0  0  0
  3 29  1  0  0  0  0
  4 22  2  0  0  0  0
  4  5  1  0  0  0  0
  5  6  2  0  0  0  0
  5 50  1  0  0  0  0
  6  7  1  0  0  0  0
  6 30  1  0  0  0  0
  7  8  1  0  0  0  0
  7 22  1  0  0  0  0
  8  9  1  0  0  0  0
  8 31  1  0  0  0  0
  8 32  1  0  0  0  0
  9 10  1  0  0  0  0
  9 11  1  0  0  0  0
  9 33  1  0  0  0  0
 10 34  1  0  0  0  0
 11 12  1  0  0  0  0
 11 35  1  0  0  0  0
 11 36  1  0  0  0  0
 12 20  1  0  0  0  0
 12 13  1  0  0  0  0
 13 14  2  0  0  0  0
 13 37  1  0  0  0  0
 14 15  1  0  0  0  0
 15 16  1  0  0  0  0
 15 19  2  0  0  0  0
 16 17  1  0  0  0  0
 16 18  1  0  0  0  0
 16 38  1  0  0  0  0
 17 39  1  0  0  0  0
 17 40  1  0  0  0  0
 17 41  1  0  0  0  0
 18 42  1  0  0  0  0
 18 43  1  0  0  0  0
 18 44  1  0  0  0  0
 19 20  1  0  0  0  0
 19 45  1  0  0  0  0
 20 21  2  0  0  0  0
 22 23  1  0  0  0  0
 23 24  2  0  0  0  0
 23 46  1  0  0  0  0
 24 25  1  0  0  0  0
 25 47  1  0  0  0  0
 25 48  1  0  0  0  0
 25 49  1  0  0  0  0
M  CHG  1   5   1
M  END
> <s_m_source_file>
AV-unprocessed.smi

> <i_m_source_file_index>
2691

> <i_lp_mmshare_version>
43012

> <i_f3d_flags>
0

> <s_epik_input>
W0NIM11jKFtjSF0xKWMoW0NIM10pW2NIXWMoYzEyKW4oW2NIXW4yKVtDSDJdW0NASF0oW09IXSlbQ0gyXW4zW2NIXW5jKFtDSF0oW0NIM10pW0NIM10pW2NIXWMzPU8=

> <s_epik_cmdline>
J2VwaWtfcHl0aG9uJywgJy1waCcsICc3LjAnLCAnLXRuJywgJzgnLCAnLW1hJywgJzIwMCcsICctbWV0YWxfYmluZGluZycsICctaW1hZScsICc8aW5maWxlLm1hZT4nLCAnLW9tYWUnLCAnPG91dGZpbGUubWFlPic=

> <r_lp_tautomer_probability>
1

> <r_epik_Ionization_Penalty>
1.0357

> <r_epik_Ionization_Penalty_Charging>
1.03568

> <r_epik_Ionization_Penalty_Neutral>
1.29543e-05

> <r_epik_State_Penalty>
1.08724

> <r_epik_Charging_Adjusted_Penalty>
2.12292

> <i_epik_Tot_Q>
1

> <i_epik_Tot_abs_Q>
1

> <r_epik_Metal_State_Penalty>
1.18376

> <b_epik_Metal_Only>
0

> <s_lp_Force_Field>
OPLS_2005

> <r_lp_Energy>
24.9035

> <b_lp_Chiralities_Consistent>
1

> <s_lp_Variant>
AV-unprocessed.smi:2691-4

> <Gold.Version>
5.8.1

> <Gold.Id.Protein>
6NUR|6NUR_protein|mol2

> <Gold.PLP.Fitness>
54.7569

> <Gold.PLP.PLP>
-40.9887

> <Gold.PLP.part.hbond>
-3.0000

> <Gold.PLP.part.metal>
0.0000

> <Gold.PLP.part.buried>
-5.2080

> <Gold.PLP.part.nonpolar>
-33.5924

> <Gold.PLP.part.repulsive>
0.1352

> <Gold.PLP.ligand.clash>
0.0000

> <Gold.PLP.ligand.torsion>
0.3488

> <Gold.PLP.Chemscore.Hbond>
3.7873

> <Gold.PLP.Chemscore.CHOScore>
1.0000

> <Gold.PLP.Chemscore.Metal>
0.0000

> <Gold.Chemscore.Hbonds>
donor molecule, donor type, donor heavy atom, donor atom, acceptor molecule, acceptor atom, score
      L1  H     5    50       P1  8028  2.00
      L1  H    10    34       P1  7949  1.00
      P1  H 10752 10764       L1    10  0.77
      L1  C    13    37       P1  7948  1.00

> <Gold.PLP.Chemscore.Internal.Correction>
0.1037

> <Gold.Rescore>
     Score         DG    S(hbond)    S(metal)    S(lipo)     H(rot)  DE(clash)    DE(int)     intcor
     14.71     -17.85       1.94        0.00     105.44       2.52       0.02       3.12       ----

> <Gold.Chemscore.Fitness>
14.7061

> <Gold.Chemscore.DG>
-17.8459

> <Gold.Chemscore.ZeroCoef>
-5.4800

> <Gold.Chemscore.Hbond>
1.9404

> <Gold.Chemscore.Metal>
0.0000

> <Gold.Chemscore.Lipo>
105.4400

> <Gold.Chemscore.Internal_Hbond>
0.0000

> <Gold.Chemscore.DEClash>
0.0222

> <Gold.Chemscore.DEInternal>
3.1176

> <Gold.Chemscore.Rot>
2.5202

> <Gold.Chemscore.Internal.Correction>
   9.000000E+99

> <Gold.Chemscore.Hbonds>
donor molecule, donor type, donor heavy atom, donor atom, acceptor molecule, acceptor atom, score
      L1  H     5    50       P1  8028  1.00
      L1  H    10    34       P1  7949  0.72
      P1  H 10752 10764       L1    10  0.10

> <Gold.Chemscore.Hbond.Weighted>
-6.4811

> <Gold.Chemscore.Metal.Weighted>
-0.0000

> <Gold.Chemscore.Lipo.Weighted>
-12.3365

> <Gold.Chemscore.Internal_Hbond.Weighted>
0.0000

> <Gold.Chemscore.DEClash.Weighted>
0.0222

> <Gold.Chemscore.DEInternal.Weighted>
3.1176

> <Gold.Chemscore.Rot.Weighted>
6.4517

> <Gold.Chemscore.Internal.Correction.Weighted>
   9.000000E+99

> <Gold.Protein.RotatedTorsions>
[ 6907 6896 6895 6894 ] final  -75.80 input  -60.11 | X-H torsion
[ 7974 7965 7964 7962 ] final  -53.53 input  175.53 | X-H torsion
[ 8008 7997 7996 7995 ] final -160.93 input   59.86 | X-H torsion
[ 10167 10162 10161 10158 ] final  101.56 input  -65.29 | X-H torsion
[ 10718 10713 10712 10709 ] final   42.90 input   66.30 | X-H torsion
[ 10763 10752 10751 10750 ] final  -76.80 input  -60.55 | X-H torsion
[ 11005 11000 10999 10996 ] final  -69.59 input  -57.11 | X-H torsion

> <Gold.Protein.ActiveResidues>
 VAL166  LYS551  ARG553  GLY616  TRP617  ASP618  TYR619  PRO620  LYS621  CYS622 
 ASP623  PHE694  ASN695  SER759  ASP760  ASP761  ALA762  ILE779  LEU786  VAL792 
 PHE793  MET794  SER795  GLU796  ALA797  LYS798  CYS799  TRP800  GLU811  SER814 

> <Gold.Protein.RotatedAtoms>
  150.7047  134.4667  159.5405 H   0  0  0  0  0  0  0  0  0  0  0  0  # atno 6907 bound_to 6896
  152.2331  134.8300  160.0480 H   0  0  0  0  0  0  0  0  0  0  0  0  # atno 6908 bound_to 6896
  151.9108  133.3526  159.3900 H   0  0  0  0  0  0  0  0  0  0  0  0  # atno 6909 bound_to 6896
  145.8958  140.8034  142.9768 H   0  0  0  0  0  0  0  0  0  0  0  0  # atno 7974 bound_to 7965
  155.7846  140.0870  157.2041 H   0  0  0  0  0  0  0  0  0  0  0  0  # atno 8008 bound_to 7997
  154.3988  140.1501  156.3150 H   0  0  0  0  0  0  0  0  0  0  0  0  # atno 8009 bound_to 7997
  155.8619  140.3430  155.5765 H   0  0  0  0  0  0  0  0  0  0  0  0  # atno 8010 bound_to 7997
  139.7427  144.7006  151.0551 H   0  0  0  0  0  0  0  0  0  0  0  0  # atno 10167 bound_to 10162
  157.4099  130.7908  149.7422 H   0  0  0  0  0  0  0  0  0  0  0  0  # atno 10718 bound_to 10713
  154.5046  135.5785  153.6557 H   0  0  0  0  0  0  0  0  0  0  0  0  # atno 10763 bound_to 10752
  152.9885  135.6144  154.2958 H   0  0  0  0  0  0  0  0  0  0  0  0  # atno 10764 bound_to 10752
  154.2869  135.2849  155.2652 H   0  0  0  0  0  0  0  0  0  0  0  0  # atno 10765 bound_to 10752
  141.1557  133.6768  156.6623 H   0  0  0  0  0  0  0  0  0  0  0  0  # atno 11005 bound_to 11000
  144.6733  140.1601  143.7423 LP  0  0  0  0  0  0  0  0  0  0  0  0  # atno 17320 bound_to 7965
  145.8852  139.2345  143.1582 LP  0  0  0  0  0  0  0  0  0  0  0  0  # atno 17321 bound_to 7965
  140.7788  143.4904  150.9900 LP  0  0  0  0  0  0  0  0  0  0  0  0  # atno 17342 bound_to 10162
  139.8593  143.7336  152.3174 LP  0  0  0  0  0  0  0  0  0  0  0  0  # atno 17343 bound_to 10162
  155.9847  130.3989  150.3295 LP  0  0  0  0  0  0  0  0  0  0  0  0  # atno 17370 bound_to 10713
  157.1433  131.0302  151.2918 LP  0  0  0  0  0  0  0  0  0  0  0  0  # atno 17371 bound_to 10713
  140.3238  134.7985  157.4273 LP  0  0  0  0  0  0  0  0  0  0  0  0  # atno 17394 bound_to 11000
  140.1074  134.5391  155.8297 LP  0  0  0  0  0  0  0  0  0  0  0  0  # atno 17395 bound_to 11000

$$$$
