AV-unprocessed.smi:1491|AV-procd|sdf|6035|dock4
  -GOLD-   22720 6143D 1   1.00000     0.00000
 Structure written by MMmdl.
 38 39  0  0  0  0  0  0  0  0  1 V2000
  145.0059  135.8707  153.6731 O   0  0  0  0  0  0  0  0  0  0  0  0
  146.1075  135.9202  153.1254 C   0  0  0  0  0  0  0  0  0  0  0  0
  147.0195  136.8757  153.3547 N   0  0  0  0  0  0  0  0  0  0  0  0
  146.8734  137.9652  154.3158 C   0  0  0  0  0  0  0  0  0  0  0  0
  147.5443  139.2596  153.8207 C   0  0  0  0  0  0  0  0  0  0  0  0
  148.9340  139.3594  154.2261 N   0  0  0  0  0  0  0  0  0  0  0  0
  149.8641  138.3300  154.2931 C   0  0  0  0  0  0  0  0  0  0  0  0
  151.0413  138.8920  154.7324 C   0  0  0  0  0  0  0  0  0  0  0  0
  150.8615  140.2580  154.9357 N   0  0  0  0  0  0  0  0  0  0  0  0
  149.5900  140.4611  154.6153 C   0  0  0  0  0  0  0  0  0  0  0  0
  146.5477  135.0173  152.2383 N   0  0  0  0  0  0  0  0  0  0  0  0
  145.8078  133.8390  151.7977 C   0  0  2  0  0  0  0  0  0  0  0  0
  146.4415  133.2828  150.5100 C   0  0  0  0  0  0  0  0  0  0  0  0
  145.6623  132.0674  149.9778 C   0  0  0  0  0  0  0  0  0  0  0  0
  144.1680  132.3779  149.7704 C   0  0  2  0  0  0  0  0  0  0  0  0
  144.0044  133.2609  148.6783 O   0  0  0  0  0  0  0  0  0  0  0  0
  143.5334  132.9805  151.0383 C   0  0  0  0  0  0  0  0  0  0  0  0
  144.3239  134.1886  151.5705 C   0  0  0  0  0  0  0  0  0  0  0  0
  147.8924  136.8289  152.8501 H   0  0  0  0  0  0  0  0  0  0  0  0
  145.8063  138.1431  154.4495 H   0  0  0  0  0  0  0  0  0  0  0  0
  147.2577  137.6833  155.2976 H   0  0  0  0  0  0  0  0  0  0  0  0
  147.4873  139.3285  152.7335 H   0  0  0  0  0  0  0  0  0  0  0  0
  147.0138  140.1264  154.2164 H   0  0  0  0  0  0  0  0  0  0  0  0
  149.6163  137.3105  154.0367 H   0  0  0  0  0  0  0  0  0  0  0  0
  151.9962  138.4220  154.9162 H   0  0  0  0  0  0  0  0  0  0  0  0
  149.1235  141.4339  154.6680 H   0  0  0  0  0  0  0  0  0  0  0  0
  147.4687  135.1468  151.8456 H   0  0  0  0  0  0  0  0  0  0  0  0
  145.8732  133.0647  152.5649 H   0  0  0  0  0  0  0  0  0  0  0  0
  146.4709  134.0598  149.7447 H   0  0  0  0  0  0  0  0  0  0  0  0
  147.4773  132.9972  150.6975 H   0  0  0  0  0  0  0  0  0  0  0  0
  146.1080  131.7139  149.0475 H   0  0  0  0  0  0  0  0  0  0  0  0
  145.7587  131.2478  150.6908 H   0  0  0  0  0  0  0  0  0  0  0  0
  143.6456  131.4558  149.5135 H   0  0  0  0  0  0  0  0  0  0  0  0
  144.7761  133.8022  148.6113 H   0  0  0  0  0  0  0  0  0  0  0  0
  142.4985  133.2656  150.8455 H   0  0  0  0  0  0  0  0  0  0  0  0
  143.4971  132.2147  151.8142 H   0  0  0  0  0  0  0  0  0  0  0  0
  143.8739  134.5356  152.5014 H   0  0  0  0  0  0  0  0  0  0  0  0
  144.2434  135.0159  150.8640 H   0  0  0  0  0  0  0  0  0  0  0  0
  1  2  2  0  0  0  0
  2  3  1  0  0  0  0
  2 11  1  0  0  0  0
  3  4  1  0  0  0  0
  3 19  1  0  0  0  0
  4  5  1  0  0  0  0
  4 20  1  0  0  0  0
  4 21  1  0  0  0  0
  5  6  1  0  0  0  0
  5 22  1  0  0  0  0
  5 23  1  0  0  0  0
  6 10  1  0  0  0  0
  6  7  1  0  0  0  0
  7  8  2  0  0  0  0
  7 24  1  0  0  0  0
  8  9  1  0  0  0  0
  8 25  1  0  0  0  0
  9 10  2  0  0  0  0
 10 26  1  0  0  0  0
 11 12  1  0  0  0  0
 11 27  1  0  0  0  0
 12 18  1  0  0  0  0
 12 13  1  0  0  0  0
 12 28  1  0  0  0  0
 13 14  1  0  0  0  0
 13 29  1  0  0  0  0
 13 30  1  0  0  0  0
 14 15  1  0  0  0  0
 14 31  1  0  0  0  0
 14 32  1  0  0  0  0
 15 16  1  0  0  0  0
 15 17  1  0  0  0  0
 15 33  1  0  0  0  0
 16 34  1  0  0  0  0
 17 18  1  0  0  0  0
 17 35  1  0  0  0  0
 17 36  1  0  0  0  0
 18 37  1  0  0  0  0
 18 38  1  0  0  0  0
M  END
> <s_m_source_file>
AV-unprocessed.smi

> <i_m_source_file_index>
1491

> <i_lp_mmshare_version>
43012

> <i_f3d_flags>
0

> <s_epik_input>
W0NIMl0xW0NIMl1bQ0BIXShbT0hdKVtDSDJdW0NIMl1bQ0BIXTFbTkhdQyg9TylbTkhdW0NIMl1bQ0gyXW4yW2NIXVtjSF1uW2NIXTI=

> <s_epik_cmdline>
J2VwaWtfcHl0aG9uJywgJy1waCcsICc3LjAnLCAnLXRuJywgJzgnLCAnLW1hJywgJzIwMCcsICctbWV0YWxfYmluZGluZycsICctaW1hZScsICc8aW5maWxlLm1hZT4nLCAnLW9tYWUnLCAnPG91dGZpbGUubWFlPic=

> <r_lp_tautomer_probability>
1

> <r_epik_Ionization_Penalty>
0.623245

> <r_epik_Ionization_Penalty_Charging>
0.623187

> <r_epik_Ionization_Penalty_Neutral>
5.75214e-05

> <r_epik_State_Penalty>
0.639392

> <r_epik_Charging_Adjusted_Penalty>
1.26258

> <i_epik_Tot_Q>
0

> <i_epik_Tot_abs_Q>
0

> <r_epik_Metal_State_Penalty>
0.307266

> <b_epik_Metal_Only>
0

> <s_lp_Force_Field>
OPLS_2005

> <r_lp_Energy>
9.71392

> <b_lp_Chiralities_Consistent>
1

> <s_lp_Variant>
AV-unprocessed.smi:1491-4

> <Gold.Version>
5.8.1

> <Gold.Id.Protein>
6NUR|6NUR_protein|mol2

> <Gold.PLP.Fitness>
47.9950

> <Gold.PLP.PLP>
-34.9984

> <Gold.PLP.part.hbond>
-4.3660

> <Gold.PLP.part.metal>
0.0000

> <Gold.PLP.part.buried>
-4.0970

> <Gold.PLP.part.nonpolar>
-26.2879

> <Gold.PLP.part.repulsive>
0.1210

> <Gold.PLP.ligand.clash>
0.0000

> <Gold.PLP.ligand.torsion>
0.9086

> <Gold.PLP.Chemscore.Hbond>
3.9280

> <Gold.PLP.Chemscore.CHOScore>
1.0000

> <Gold.PLP.Chemscore.Metal>
0.0000

> <Gold.Chemscore.Hbonds>
donor molecule, donor type, donor heavy atom, donor atom, acceptor molecule, acceptor atom, score
      L1  H     3    19       P1  7948  1.00
      L1  H    11    27       P1  7948  0.91
      L1  H    16    34       P1  7921  1.00
      P1  H  7989  7998       L1     9  1.00
      L1  C     7    24       P1  7948  1.00

> <Gold.PLP.Chemscore.Internal.Correction>
0.0297

> <Gold.Rescore>
     Score         DG    S(hbond)    S(metal)    S(lipo)     H(rot)  DE(clash)    DE(int)     intcor
     15.03     -17.31       3.00        0.00      71.89       2.57       0.18       2.09       ----

> <Gold.Chemscore.Fitness>
15.0336

> <Gold.Chemscore.DG>
-17.3130

> <Gold.Chemscore.ZeroCoef>
-5.4800

> <Gold.Chemscore.Hbond>
2.9972

> <Gold.Chemscore.Metal>
0.0000

> <Gold.Chemscore.Lipo>
71.8926

> <Gold.Chemscore.Internal_Hbond>
0.0000

> <Gold.Chemscore.DEClash>
0.1849

> <Gold.Chemscore.DEInternal>
2.0945

> <Gold.Chemscore.Rot>
2.5738

> <Gold.Chemscore.Internal.Correction>
   9.000000E+99

> <Gold.Chemscore.Hbonds>
donor molecule, donor type, donor heavy atom, donor atom, acceptor molecule, acceptor atom, score
      L1  H     3    19       P1  7948  0.96
      L1  H    11    27       P1  7948  0.83
      L1  H    16    34       P1  7921  0.95
      P1  H  7989  7998       L1     9  0.07

> <Gold.Chemscore.Hbond.Weighted>
-10.0106

> <Gold.Chemscore.Metal.Weighted>
-0.0000

> <Gold.Chemscore.Lipo.Weighted>
-8.4114

> <Gold.Chemscore.Internal_Hbond.Weighted>
0.0000

> <Gold.Chemscore.DEClash.Weighted>
0.1849

> <Gold.Chemscore.DEInternal.Weighted>
2.0945

> <Gold.Chemscore.Rot.Weighted>
6.5890

> <Gold.Chemscore.Internal.Correction.Weighted>
   9.000000E+99

> <Gold.Protein.RotatedTorsions>
[ 6907 6896 6895 6894 ] final   55.44 input  -60.11 | X-H torsion
[ 7974 7965 7964 7962 ] final -179.54 input  175.53 | X-H torsion
[ 8008 7997 7996 7995 ] final   17.18 input   59.86 | X-H torsion
[ 10167 10162 10161 10158 ] final -116.79 input  -65.29 | X-H torsion
[ 10718 10713 10712 10709 ] final   42.71 input   66.30 | X-H torsion
[ 10763 10752 10751 10750 ] final   46.61 input  -60.55 | X-H torsion
[ 11005 11000 10999 10996 ] final   39.44 input  -57.11 | X-H torsion

> <Gold.Protein.ActiveResidues>
 VAL166  LYS551  ARG553  GLY616  TRP617  ASP618  TYR619  PRO620  LYS621  CYS622 
 ASP623  PHE694  ASN695  SER759  ASP760  ASP761  ALA762  ILE779  LEU786  VAL792 
 PHE793  MET794  SER795  GLU796  ALA797  LYS798  CYS799  TRP800  GLU811  SER814 

> <Gold.Protein.RotatedAtoms>
  152.3539  134.6968  160.0227 H   0  0  0  0  0  0  0  0  0  0  0  0  # atno 6907 bound_to 6896
  151.7313  133.3312  159.3349 H   0  0  0  0  0  0  0  0  0  0  0  0  # atno 6908 bound_to 6896
  150.7558  134.6294  159.6223 H   0  0  0  0  0  0  0  0  0  0  0  0  # atno 6909 bound_to 6896
  144.7137  140.0702  143.6429 H   0  0  0  0  0  0  0  0  0  0  0  0  # atno 7974 bound_to 7965
  154.8877  140.2982  155.5388 H   0  0  0  0  0  0  0  0  0  0  0  0  # atno 8008 bound_to 7997
  156.3021  140.2430  156.3822 H   0  0  0  0  0  0  0  0  0  0  0  0  # atno 8009 bound_to 7997
  154.8651  140.0403  157.1678 H   0  0  0  0  0  0  0  0  0  0  0  0  # atno 8010 bound_to 7997
  140.0754  143.4838  152.1956 H   0  0  0  0  0  0  0  0  0  0  0  0  # atno 10167 bound_to 10162
  157.4079  130.7897  149.7405 H   0  0  0  0  0  0  0  0  0  0  0  0  # atno 10718 bound_to 10713
  152.9809  135.6002  154.3628 H   0  0  0  0  0  0  0  0  0  0  0  0  # atno 10763 bound_to 10752
  154.3308  135.2768  155.2474 H   0  0  0  0  0  0  0  0  0  0  0  0  # atno 10764 bound_to 10752
  154.4599  135.5968  153.6304 H   0  0  0  0  0  0  0  0  0  0  0  0  # atno 10765 bound_to 10752
  140.2028  134.3850  155.8087 H   0  0  0  0  0  0  0  0  0  0  0  0  # atno 11005 bound_to 11000
  145.9789  139.2926  143.1053 LP  0  0  0  0  0  0  0  0  0  0  0  0  # atno 17320 bound_to 7965
  145.9032  140.9229  143.0492 LP  0  0  0  0  0  0  0  0  0  0  0  0  # atno 17321 bound_to 7965
  139.5811  144.7511  151.3638 LP  0  0  0  0  0  0  0  0  0  0  0  0  # atno 17342 bound_to 10162
  140.7105  143.7404  150.7558 LP  0  0  0  0  0  0  0  0  0  0  0  0  # atno 17343 bound_to 10162
  155.9842  130.3994  150.3325 LP  0  0  0  0  0  0  0  0  0  0  0  0  # atno 17370 bound_to 10713
  157.1460  131.0308  151.2906 LP  0  0  0  0  0  0  0  0  0  0  0  0  # atno 17371 bound_to 10713
  141.2227  133.7103  156.8286 LP  0  0  0  0  0  0  0  0  0  0  0  0  # atno 17394 bound_to 11000
  140.2035  134.8879  157.3196 LP  0  0  0  0  0  0  0  0  0  0  0  0  # atno 17395 bound_to 11000

$$$$
