AV-unprocessed.smi:3245|AV-procd|sdf|12404|dock8
  -GOLD-   2272018283D 1   1.00000     0.00000
 Structure written by MMmdl.
 35 36  0  0  0  0  0  0  0  0  1 V2000
  152.9687  139.6364  159.0719 C   0  0  0  0  0  0  0  0  0  0  0  0
  152.4008  141.0251  158.7332 C   0  0  2  0  0  0  0  0  0  0  0  0
  152.6366  142.0612  159.8575 C   0  0  0  0  0  0  0  0  0  0  0  0
  151.9573  143.3206  159.6150 N   0  0  0  0  0  0  0  0  0  0  0  0
  152.4969  144.5883  159.5504 C   0  0  0  0  0  0  0  0  0  0  0  0
  151.4698  145.4545  159.3064 C   0  0  0  0  0  0  0  0  0  0  0  0
  150.3252  144.6116  159.2414 C   0  0  0  0  0  0  0  0  0  0  0  0
  150.6200  143.3351  159.4276 N   0  0  0  0  0  0  0  0  0  0  0  0
  150.9716  140.8681  158.4965 N   0  0  0  0  0  0  0  0  0  0  0  0
  150.6085  141.1771  157.1203 C   0  0  0  0  0  0  0  0  0  0  0  0
  149.1731  140.7024  156.8321 C   0  0  0  0  0  0  0  0  0  0  0  0
  148.7489  141.0394  155.4681 N   0  0  0  0  0  0  0  0  0  0  0  0
  147.6536  141.7510  155.1692 C   0  0  0  0  0  0  0  0  0  0  0  0
  146.8250  142.2176  155.9502 O   0  0  0  0  0  0  0  0  0  0  0  0
  147.5815  141.9118  153.6663 C   0  0  0  0  0  0  0  0  0  0  0  0
  148.7785  141.1888  153.2950 N   0  0  0  0  0  0  0  0  0  0  0  0
  149.4298  140.6997  154.3581 C   0  0  0  0  0  0  0  0  0  0  0  0
  150.4759  140.0539  154.3116 O   0  0  0  0  0  0  0  0  0  0  0  0
  154.0518  139.6673  159.1930 H   0  0  0  0  0  0  0  0  0  0  0  0
  152.7565  138.9199  158.2775 H   0  0  0  0  0  0  0  0  0  0  0  0
  152.5418  139.2459  159.9964 H   0  0  0  0  0  0  0  0  0  0  0  0
  152.8797  141.3640  157.8132 H   0  0  0  0  0  0  0  0  0  0  0  0
  152.2994  141.6818  160.8222 H   0  0  0  0  0  0  0  0  0  0  0  0
  153.7033  142.2647  159.9631 H   0  0  0  0  0  0  0  0  0  0  0  0
  153.5547  144.7654  159.6789 H   0  0  0  0  0  0  0  0  0  0  0  0
  151.5274  146.5268  159.1930 H   0  0  0  0  0  0  0  0  0  0  0  0
  149.2957  144.8874  159.0658 H   0  0  0  0  0  0  0  0  0  0  0  0
  150.6961  139.9178  158.6999 H   0  0  0  0  0  0  0  0  0  0  0  0
  150.6976  142.2436  156.9161 H   0  0  0  0  0  0  0  0  0  0  0  0
  151.3041  140.6666  156.4532 H   0  0  0  0  0  0  0  0  0  0  0  0
  149.1237  139.6196  156.9565 H   0  0  0  0  0  0  0  0  0  0  0  0
  148.4807  141.1103  157.5707 H   0  0  0  0  0  0  0  0  0  0  0  0
  146.6858  141.4476  153.2528 H   0  0  0  0  0  0  0  0  0  0  0  0
  147.6360  142.9598  153.3706 H   0  0  0  0  0  0  0  0  0  0  0  0
  149.0804  141.0782  152.3379 H   0  0  0  0  0  0  0  0  0  0  0  0
  1  2  1  0  0  0  0
  1 19  1  0  0  0  0
  1 20  1  0  0  0  0
  1 21  1  0  0  0  0
  2  3  1  0  0  0  0
  2  9  1  0  0  0  0
  2 22  1  0  0  0  0
  3  4  1  0  0  0  0
  3 23  1  0  0  0  0
  3 24  1  0  0  0  0
  4  8  1  0  0  0  0
  4  5  1  0  0  0  0
  5  6  2  0  0  0  0
  5 25  1  0  0  0  0
  6  7  1  0  0  0  0
  6 26  1  0  0  0  0
  7  8  2  0  0  0  0
  7 27  1  0  0  0  0
  9 10  1  0  0  0  0
  9 28  1  0  0  0  0
 10 11  1  0  0  0  0
 10 29  1  0  0  0  0
 10 30  1  0  0  0  0
 11 12  1  0  0  0  0
 11 31  1  0  0  0  0
 11 32  1  0  0  0  0
 12 17  1  0  0  0  0
 12 13  1  0  0  0  0
 13 14  2  0  0  0  0
 13 15  1  0  0  0  0
 15 16  1  0  0  0  0
 15 33  1  0  0  0  0
 15 34  1  0  0  0  0
 16 17  1  0  0  0  0
 16 35  1  0  0  0  0
 17 18  2  0  0  0  0
M  END
> <s_m_source_file>
AV-unprocessed.smi

> <i_m_source_file_index>
3245

> <i_lp_mmshare_version>
43012

> <i_f3d_flags>
0

> <s_epik_input>
bjFbY0hdW2NIXVtjSF1uMVtDSDJdW0NAQEhdKFtDSDNdKVtOSF1bQ0gyXVtDSDJdTjJDKD1PKVtDSDJdW05IXUMyPU8=

> <s_epik_cmdline>
J2VwaWtfcHl0aG9uJywgJy1waCcsICc3LjAnLCAnLXRuJywgJzgnLCAnLW1hJywgJzIwMCcsICctbWV0YWxfYmluZGluZycsICctaW1hZScsICc8aW5maWxlLm1hZT4nLCAnLW9tYWUnLCAnPG91dGZpbGUubWFlPic=

> <r_lp_tautomer_probability>
1

> <r_epik_Ionization_Penalty>
2.14948

> <r_epik_Ionization_Penalty_Charging>
0

> <r_epik_Ionization_Penalty_Neutral>
2.14948

> <r_epik_State_Penalty>
2.28912

> <r_epik_Charging_Adjusted_Penalty>
2.28912

> <i_epik_Tot_Q>
0

> <i_epik_Tot_abs_Q>
0

> <r_epik_Metal_State_Penalty>
2.36471

> <b_epik_Metal_Only>
0

> <s_lp_Force_Field>
OPLS_2005

> <r_lp_Energy>
24.3933

> <b_lp_Chiralities_Consistent>
1

> <s_lp_Variant>
AV-unprocessed.smi:3245-3

> <Gold.Version>
5.8.1

> <Gold.Id.Protein>
6NUR|6NUR_protein|mol2

> <Gold.PLP.Fitness>
43.7824

> <Gold.PLP.PLP>
-36.3883

> <Gold.PLP.part.hbond>
-2.2770

> <Gold.PLP.part.metal>
0.0000

> <Gold.PLP.part.buried>
-6.3780

> <Gold.PLP.part.nonpolar>
-28.1669

> <Gold.PLP.part.repulsive>
1.3950

> <Gold.PLP.ligand.clash>
0.0000

> <Gold.PLP.ligand.torsion>
0.8490

> <Gold.PLP.Chemscore.Hbond>
2.0000

> <Gold.PLP.Chemscore.CHOScore>
0.9990

> <Gold.PLP.Chemscore.Metal>
0.0000

> <Gold.Chemscore.Hbonds>
donor molecule, donor type, donor heavy atom, donor atom, acceptor molecule, acceptor atom, score
      L1  H    16    35       P1  7957  0.98
      P1  H  7989  7998       L1    18  1.00
      L1  C     7    27       P1  8029  1.00

> <Gold.PLP.Chemscore.Internal.Correction>
0.0952

> <Gold.Rescore>
     Score         DG    S(hbond)    S(metal)    S(lipo)     H(rot)  DE(clash)    DE(int)     intcor
     12.65     -13.52       1.87        0.00      73.54       2.66       0.07       0.79       ----

> <Gold.Chemscore.Fitness>
12.6532

> <Gold.Chemscore.DG>
-13.5168

> <Gold.Chemscore.ZeroCoef>
-5.4800

> <Gold.Chemscore.Hbond>
1.8694

> <Gold.Chemscore.Metal>
0.0000

> <Gold.Chemscore.Lipo>
73.5442

> <Gold.Chemscore.Internal_Hbond>
0.0000

> <Gold.Chemscore.DEClash>
0.0747

> <Gold.Chemscore.DEInternal>
0.7888

> <Gold.Chemscore.Rot>
2.6609

> <Gold.Chemscore.Internal.Correction>
   9.000000E+99

> <Gold.Chemscore.Hbonds>
donor molecule, donor type, donor heavy atom, donor atom, acceptor molecule, acceptor atom, score
      L1  H    16    35       P1  7957  0.92
      P1  H  7989  7998       L1    18  0.78

> <Gold.Chemscore.Hbond.Weighted>
-6.2439

> <Gold.Chemscore.Metal.Weighted>
-0.0000

> <Gold.Chemscore.Lipo.Weighted>
-8.6047

> <Gold.Chemscore.Internal_Hbond.Weighted>
0.0000

> <Gold.Chemscore.DEClash.Weighted>
0.0747

> <Gold.Chemscore.DEInternal.Weighted>
0.7888

> <Gold.Chemscore.Rot.Weighted>
6.8118

> <Gold.Chemscore.Internal.Correction.Weighted>
   9.000000E+99

> <Gold.Protein.RotatedTorsions>
[ 6907 6896 6895 6894 ] final  -47.67 input  -60.11 | X-H torsion
[ 7974 7965 7964 7962 ] final   51.51 input  175.53 | X-H torsion
[ 8008 7997 7996 7995 ] final  -45.88 input   59.86 | X-H torsion
[ 10167 10162 10161 10158 ] final  -53.98 input  -65.29 | X-H torsion
[ 10718 10713 10712 10709 ] final   57.55 input   66.30 | X-H torsion
[ 10763 10752 10751 10750 ] final -126.00 input  -60.55 | X-H torsion
[ 11005 11000 10999 10996 ] final   36.56 input  -57.11 | X-H torsion

> <Gold.Protein.ActiveResidues>
 VAL166  LYS551  ARG553  GLY616  TRP617  ASP618  TYR619  PRO620  LYS621  CYS622 
 ASP623  PHE694  ASN695  SER759  ASP760  ASP761  ALA762  ILE779  LEU786  VAL792 
 PHE793  MET794  SER795  GLU796  ALA797  LYS798  CYS799  TRP800  GLU811  SER814 

> <Gold.Protein.RotatedAtoms>
  150.8984  134.8394  159.7342 H   0  0  0  0  0  0  0  0  0  0  0  0  # atno 6907 bound_to 6896
  152.4878  134.4541  159.9594 H   0  0  0  0  0  0  0  0  0  0  0  0  # atno 6908 bound_to 6896
  151.4595  133.3557  159.2842 H   0  0  0  0  0  0  0  0  0  0  0  0  # atno 6909 bound_to 6896
  145.9906  139.4335  143.0076 H   0  0  0  0  0  0  0  0  0  0  0  0  # atno 7974 bound_to 7965
  154.4003  140.1385  156.3920 H   0  0  0  0  0  0  0  0  0  0  0  0  # atno 8008 bound_to 7997
  155.7905  140.3479  155.5326 H   0  0  0  0  0  0  0  0  0  0  0  0  # atno 8009 bound_to 7997
  155.8584  140.0952  157.1620 H   0  0  0  0  0  0  0  0  0  0  0  0  # atno 8010 bound_to 7997
  140.6456  143.2533  151.4870 H   0  0  0  0  0  0  0  0  0  0  0  0  # atno 10167 bound_to 10162
  157.5523  130.8775  149.8982 H   0  0  0  0  0  0  0  0  0  0  0  0  # atno 10718 bound_to 10713
  154.8741  135.4010  154.3360 H   0  0  0  0  0  0  0  0  0  0  0  0  # atno 10763 bound_to 10752
  153.4166  135.7022  153.6328 H   0  0  0  0  0  0  0  0  0  0  0  0  # atno 10764 bound_to 10752
  153.5008  135.3728  155.2509 H   0  0  0  0  0  0  0  0  0  0  0  0  # atno 10765 bound_to 10752
  140.2313  134.3524  155.7963 H   0  0  0  0  0  0  0  0  0  0  0  0  # atno 11005 bound_to 11000
  145.7635  140.9926  143.1187 LP  0  0  0  0  0  0  0  0  0  0  0  0  # atno 17320 bound_to 7965
  144.6888  139.9359  143.7473 LP  0  0  0  0  0  0  0  0  0  0  0  0  # atno 17321 bound_to 7965
  139.5666  144.2028  152.1774 LP  0  0  0  0  0  0  0  0  0  0  0  0  # atno 17342 bound_to 10162
  140.1311  144.5287  150.6802 LP  0  0  0  0  0  0  0  0  0  0  0  0  # atno 17343 bound_to 10162
  156.0588  130.3703  150.1030 LP  0  0  0  0  0  0  0  0  0  0  0  0  # atno 17370 bound_to 10713
  156.9202  130.9680  151.3550 LP  0  0  0  0  0  0  0  0  0  0  0  0  # atno 17371 bound_to 10713
  141.2217  133.7247  156.8736 LP  0  0  0  0  0  0  0  0  0  0  0  0  # atno 17394 bound_to 11000
  140.1747  134.9075  157.2877 LP  0  0  0  0  0  0  0  0  0  0  0  0  # atno 17395 bound_to 11000

$$$$
