AV-unprocessed.smi:2556|AV-procd|sdf|10025|dock1
  -GOLD-   2272014 73D 1   1.00000     0.00000
 Structure written by MMmdl.
 34 36  0  0  0  0  0  0  0  0  2 V2000
  153.1269  142.2175  160.9281 C   0  0  0  0  0  0  0  0  0  0  0  0
  152.8403  141.4885  159.6894 N   0  0  0  0  0  0  0  0  0  0  0  0
  153.4820  140.3124  159.3993 C   0  0  0  0  0  0  0  0  0  0  0  0
  154.3089  139.8835  160.2055 O   0  0  0  0  0  0  0  0  0  0  0  0
  153.1936  139.6440  158.2285 N   0  5  0  0  0  0  0  0  0  0  0  0
  152.2922  140.0405  157.2749 C   0  0  0  0  0  0  0  0  0  0  0  0
  152.0199  139.4543  156.2291 O   0  0  0  0  0  0  0  0  0  0  0  0
  151.6315  141.3144  157.6315 C   0  0  0  0  0  0  0  0  0  0  0  0
  151.8829  142.0094  158.7761 C   0  0  0  0  0  0  0  0  0  0  0  0
  151.1137  143.1660  158.8482 N   0  0  0  0  0  0  0  0  0  0  0  0
  150.4180  143.1076  157.7134 C   0  0  0  0  0  0  0  0  0  0  0  0
  150.6640  142.0377  156.9309 N   0  0  0  0  0  0  0  0  0  0  0  0
  150.0265  141.7557  155.6526 C   0  0  0  0  0  0  0  0  0  0  0  0
  148.7616  140.8842  155.7951 C   0  0  2  0  0  0  0  0  0  0  0  0
  148.8849  139.6989  155.0331 O   0  0  0  0  0  0  0  0  0  0  0  0
  147.5097  141.6671  155.4322 C   0  0  0  0  0  0  0  0  0  0  0  0
  146.5342  141.9399  156.4153 C   0  0  0  0  0  0  0  0  0  0  0  0
  145.3757  142.6688  156.0820 C   0  0  0  0  0  0  0  0  0  0  0  0
  145.1873  143.1304  154.7650 C   0  0  0  0  0  0  0  0  0  0  0  0
  146.1589  142.8646  153.7812 C   0  0  0  0  0  0  0  0  0  0  0  0
  147.3175  142.1363  154.1140 C   0  0  0  0  0  0  0  0  0  0  0  0
  152.9007  141.5980  161.7970 H   0  0  0  0  0  0  0  0  0  0  0  0
  152.5453  143.1340  161.0213 H   0  0  0  0  0  0  0  0  0  0  0  0
  154.1807  142.4951  160.9725 H   0  0  0  0  0  0  0  0  0  0  0  0
  149.7020  143.8691  157.4416 H   0  0  0  0  0  0  0  0  0  0  0  0
  149.7620  142.7089  155.1926 H   0  0  0  0  0  0  0  0  0  0  0  0
  150.7474  141.2961  154.9786 H   0  0  0  0  0  0  0  0  0  0  0  0
  148.6766  140.5688  156.8360 H   0  0  0  0  0  0  0  0  0  0  0  0
  149.6577  139.7667  154.4941 H   0  0  0  0  0  0  0  0  0  0  0  0
  146.6703  141.5924  157.4290 H   0  0  0  0  0  0  0  0  0  0  0  0
  144.6317  142.8748  156.8372 H   0  0  0  0  0  0  0  0  0  0  0  0
  144.2991  143.6894  154.5102 H   0  0  0  0  0  0  0  0  0  0  0  0
  146.0172  143.2199  152.7712 H   0  0  0  0  0  0  0  0  0  0  0  0
  148.0608  141.9401  153.3546 H   0  0  0  0  0  0  0  0  0  0  0  0
  1  2  1  0  0  0  0
  1 22  1  0  0  0  0
  1 23  1  0  0  0  0
  1 24  1  0  0  0  0
  2  9  1  0  0  0  0
  2  3  1  0  0  0  0
  3  4  2  0  0  0  0
  3  5  1  0  0  0  0
  5  6  1  0  0  0  0
  6  7  2  0  0  0  0
  6  8  1  0  0  0  0
  8 12  1  0  0  0  0
  8  9  2  0  0  0  0
  9 10  1  0  0  0  0
 10 11  2  0  0  0  0
 11 12  1  0  0  0  0
 11 25  1  0  0  0  0
 12 13  1  0  0  0  0
 13 14  1  0  0  0  0
 13 26  1  0  0  0  0
 13 27  1  0  0  0  0
 14 15  1  0  0  0  0
 14 16  1  0  0  0  0
 14 28  1  0  0  0  0
 15 29  1  0  0  0  0
 16 21  1  0  0  0  0
 16 17  2  0  0  0  0
 17 18  1  0  0  0  0
 17 30  1  0  0  0  0
 18 19  2  0  0  0  0
 18 31  1  0  0  0  0
 19 20  1  0  0  0  0
 19 32  1  0  0  0  0
 20 21  2  0  0  0  0
 20 33  1  0  0  0  0
 21 34  1  0  0  0  0
M  CHG  1   5  -1
M  END
> <s_m_source_file>
AV-unprocessed.smi

> <i_m_source_file_index>
2556

> <i_lp_mmshare_version>
43012

> <i_f3d_flags>
0

> <s_epik_input>
Tz1jMVtuSF1jKD1PKW4oW0NIM10pYyhjMTIpbltjSF1uMltDSDJdW0NASF0oW09IXSljM1tjSF1bY0hdW2NIXVtjSF1bY0hdMw==

> <s_epik_cmdline>
J2VwaWtfcHl0aG9uJywgJy1waCcsICc3LjAnLCAnLXRuJywgJzgnLCAnLW1hJywgJzIwMCcsICctbWV0YWxfYmluZGluZycsICctaW1hZScsICc8aW5maWxlLm1hZT4nLCAnLW9tYWUnLCAnPG91dGZpbGUubWFlPic=

> <r_lp_tautomer_probability>
1

> <r_epik_Ionization_Penalty>
4.84872

> <r_epik_Ionization_Penalty_Charging>
0.03865

> <r_epik_Ionization_Penalty_Neutral>
4.81007

> <r_epik_State_Penalty>
4.80988

> <r_epik_Charging_Adjusted_Penalty>
4.84853

> <i_epik_Tot_Q>
-1

> <i_epik_Tot_abs_Q>
1

> <r_epik_Metal_State_Penalty>
0.994041

> <b_epik_Metal_Only>
1

> <s_lp_Force_Field>
OPLS_2005

> <r_lp_Energy>
33.4055

> <b_lp_Chiralities_Consistent>
1

> <s_lp_Variant>
AV-unprocessed.smi:2556-3

> <Gold.Version>
5.8.1

> <Gold.Id.Protein>
6NUR|6NUR_protein|mol2

> <Gold.PLP.Fitness>
42.0861

> <Gold.PLP.PLP>
-36.0008

> <Gold.PLP.part.hbond>
-1.0000

> <Gold.PLP.part.metal>
0.0000

> <Gold.PLP.part.buried>
-3.3954

> <Gold.PLP.part.nonpolar>
-31.6224

> <Gold.PLP.part.repulsive>
0.0650

> <Gold.PLP.ligand.clash>
0.0000

> <Gold.PLP.ligand.torsion>
1.1300

> <Gold.PLP.Chemscore.Hbond>
1.7568

> <Gold.PLP.Chemscore.CHOScore>
1.0000

> <Gold.PLP.Chemscore.Metal>
0.0000

> <Gold.Chemscore.Hbonds>
donor molecule, donor type, donor heavy atom, donor atom, acceptor molecule, acceptor atom, score
      P1  H  7997  8010       L1     5  1.66
      L1  C    11    25       P1  8028  1.00

> <Gold.PLP.Chemscore.Internal.Correction>
0.0750

> <Gold.Rescore>
     Score         DG    S(hbond)    S(metal)    S(lipo)     H(rot)  DE(clash)    DE(int)     intcor
      5.32      -6.78       0.03        0.00      60.14       2.28       0.30       1.16       ----

> <Gold.Chemscore.Fitness>
5.3230

> <Gold.Chemscore.DG>
-6.7802

> <Gold.Chemscore.ZeroCoef>
-5.4800

> <Gold.Chemscore.Hbond>
0.0319

> <Gold.Chemscore.Metal>
0.0000

> <Gold.Chemscore.Lipo>
60.1429

> <Gold.Chemscore.Internal_Hbond>
0.0000

> <Gold.Chemscore.DEClash>
0.3016

> <Gold.Chemscore.DEInternal>
1.1556

> <Gold.Chemscore.Rot>
2.2824

> <Gold.Chemscore.Internal.Correction>
   9.000000E+99

> <Gold.Chemscore.Hbonds>
donor molecule, donor type, donor heavy atom, donor atom, acceptor molecule, acceptor atom, score
      P1  H  7997  8010       L1     5  0.03

> <Gold.Chemscore.Hbond.Weighted>
-0.1065

> <Gold.Chemscore.Metal.Weighted>
-0.0000

> <Gold.Chemscore.Lipo.Weighted>
-7.0367

> <Gold.Chemscore.Internal_Hbond.Weighted>
0.0000

> <Gold.Chemscore.DEClash.Weighted>
0.3016

> <Gold.Chemscore.DEInternal.Weighted>
1.1556

> <Gold.Chemscore.Rot.Weighted>
5.8431

> <Gold.Chemscore.Internal.Correction.Weighted>
   9.000000E+99

> <Gold.Protein.RotatedTorsions>
[ 6907 6896 6895 6894 ] final -131.73 input  -60.11 | X-H torsion
[ 7974 7965 7964 7962 ] final   98.30 input  175.53 | X-H torsion
[ 8008 7997 7996 7995 ] final   16.15 input   59.86 | X-H torsion
[ 10167 10162 10161 10158 ] final  118.73 input  -65.29 | X-H torsion
[ 10718 10713 10712 10709 ] final -154.12 input   66.30 | X-H torsion
[ 10763 10752 10751 10750 ] final -151.66 input  -60.55 | X-H torsion
[ 11005 11000 10999 10996 ] final   76.75 input  -57.11 | X-H torsion

> <Gold.Protein.ActiveResidues>
 VAL166  LYS551  ARG553  GLY616  TRP617  ASP618  TYR619  PRO620  LYS621  CYS622 
 ASP623  PHE694  ASN695  SER759  ASP760  ASP761  ALA762  ILE779  LEU786  VAL792 
 PHE793  MET794  SER795  GLU796  ALA797  LYS798  CYS799  TRP800  GLU811  SER814 

> <Gold.Protein.RotatedAtoms>
  150.9543  133.6515  159.2765 H   0  0  0  0  0  0  0  0  0  0  0  0  # atno 6907 bound_to 6896
  151.3860  135.0947  159.9521 H   0  0  0  0  0  0  0  0  0  0  0  0  # atno 6908 bound_to 6896
  152.5122  133.9067  159.7522 H   0  0  0  0  0  0  0  0  0  0  0  0  # atno 6909 bound_to 6896
  145.4139  139.2330  143.3233 H   0  0  0  0  0  0  0  0  0  0  0  0  # atno 7974 bound_to 7965
  154.8729  140.2961  155.5471 H   0  0  0  0  0  0  0  0  0  0  0  0  # atno 8008 bound_to 7997
  156.3021  140.2457  156.3653 H   0  0  0  0  0  0  0  0  0  0  0  0  # atno 8009 bound_to 7997
  154.8798  140.0398  157.1764 H   0  0  0  0  0  0  0  0  0  0  0  0  # atno 8010 bound_to 7997
  139.6092  144.7077  151.2882 H   0  0  0  0  0  0  0  0  0  0  0  0  # atno 10167 bound_to 10162
  156.4950  130.8365  151.2586 H   0  0  0  0  0  0  0  0  0  0  0  0  # atno 10718 bound_to 10713
  154.8043  135.3254  154.7470 H   0  0  0  0  0  0  0  0  0  0  0  0  # atno 10763 bound_to 10752
  153.8131  135.6894  153.4842 H   0  0  0  0  0  0  0  0  0  0  0  0  # atno 10764 bound_to 10752
  153.1779  135.4598  154.9934 H   0  0  0  0  0  0  0  0  0  0  0  0  # atno 10765 bound_to 10752
  139.9284  134.7627  156.1435 H   0  0  0  0  0  0  0  0  0  0  0  0  # atno 11005 bound_to 11000
  146.2691  140.4855  142.8822 LP  0  0  0  0  0  0  0  0  0  0  0  0  # atno 17320 bound_to 7965
  144.8290  140.6676  143.6303 LP  0  0  0  0  0  0  0  0  0  0  0  0  # atno 17321 bound_to 7965
  140.7307  143.6872  150.7952 LP  0  0  0  0  0  0  0  0  0  0  0  0  # atno 17342 bound_to 10162
  140.0464  143.5294  152.2694 LP  0  0  0  0  0  0  0  0  0  0  0  0  # atno 17343 bound_to 10162
  157.7469  131.0001  150.2913 LP  0  0  0  0  0  0  0  0  0  0  0  0  # atno 17370 bound_to 10713
  156.3389  130.3812  149.7426 LP  0  0  0  0  0  0  0  0  0  0  0  0  # atno 17371 bound_to 10713
  141.0857  133.6735  156.2432 LP  0  0  0  0  0  0  0  0  0  0  0  0  # atno 17394 bound_to 11000
  140.6270  134.5303  157.5555 LP  0  0  0  0  0  0  0  0  0  0  0  0  # atno 17395 bound_to 11000

$$$$
