AV-unprocessed.smi:2030|AV-procd|sdf|8226|dock7
  -GOLD-   2272010493D 1   1.00000     0.00000
 Structure written by MMmdl.
 34 35  0  0  0  0  0  0  0  0  2 V2000
  153.0965  136.8910  164.2019 C   0  0  0  0  0  0  0  0  0  0  0  0
  153.7521  136.5849  162.9324 N   0  0  0  0  0  0  0  0  0  0  0  0
  153.8180  137.6408  162.0479 N   0  0  0  0  0  0  0  0  0  0  0  0
  154.1614  137.4871  160.8069 C   0  0  0  0  0  0  0  0  0  0  0  0
  154.1893  138.6718  159.8972 C   0  0  0  0  0  0  0  0  0  0  0  0
  154.6659  138.4655  158.7743 O   0  0  0  0  0  0  0  0  0  0  0  0
  153.6954  139.8596  160.3577 N   0  5  0  0  0  0  0  0  0  0  0  0
  153.8881  141.1609  159.7170 C   0  0  0  0  0  0  0  0  0  0  0  0
  153.2302  142.2847  160.5521 C   0  0  0  0  0  0  0  0  0  0  0  0
  152.5683  143.3993  159.7437 C   0  0  0  0  0  0  0  0  0  0  0  0
  152.2024  144.6167  160.3626 C   0  0  0  0  0  0  0  0  0  0  0  0
  151.6019  145.6198  159.5779 C   0  0  0  0  0  0  0  0  0  0  0  0
  151.3930  145.3754  158.2073 C   0  0  0  0  0  0  0  0  0  0  0  0
  151.7990  144.1339  157.6795 C   0  0  0  0  0  0  0  0  0  0  0  0
  152.3797  143.1675  158.4214 N   0  0  0  0  0  0  0  0  0  0  0  0
  154.4969  136.1054  160.2727 C   0  0  0  0  0  0  0  0  0  0  0  0
  155.0123  135.1622  161.3777 C   0  0  0  0  0  0  0  0  0  0  0  0
  154.2639  135.3515  162.6995 C   0  0  0  0  0  0  0  0  0  0  0  0
  154.1779  134.4135  163.4925 O   0  0  0  0  0  0  0  0  0  0  0  0
  152.2119  136.2673  164.3359 H   0  0  0  0  0  0  0  0  0  0  0  0
  152.7767  137.9329  164.2563 H   0  0  0  0  0  0  0  0  0  0  0  0
  153.7730  136.7115  165.0386 H   0  0  0  0  0  0  0  0  0  0  0  0
  154.9437  141.3947  159.5716 H   0  0  0  0  0  0  0  0  0  0  0  0
  153.4444  141.1719  158.7206 H   0  0  0  0  0  0  0  0  0  0  0  0
  152.4694  141.8429  161.1964 H   0  0  0  0  0  0  0  0  0  0  0  0
  153.9665  142.7223  161.2282 H   0  0  0  0  0  0  0  0  0  0  0  0
  152.3728  144.7743  161.4174 H   0  0  0  0  0  0  0  0  0  0  0  0
  151.3066  146.5597  160.0199 H   0  0  0  0  0  0  0  0  0  0  0  0
  150.9336  146.1209  157.5757 H   0  0  0  0  0  0  0  0  0  0  0  0
  151.6564  143.9124  156.6321 H   0  0  0  0  0  0  0  0  0  0  0  0
  153.6109  135.6788  159.8016 H   0  0  0  0  0  0  0  0  0  0  0  0
  155.2607  136.1636  159.4965 H   0  0  0  0  0  0  0  0  0  0  0  0
  154.9441  134.1236  161.0521 H   0  0  0  0  0  0  0  0  0  0  0  0
  156.0671  135.3636  161.5681 H   0  0  0  0  0  0  0  0  0  0  0  0
  1  2  1  0  0  0  0
  1 20  1  0  0  0  0
  1 21  1  0  0  0  0
  1 22  1  0  0  0  0
  2 18  1  0  0  0  0
  2  3  1  0  0  0  0
  3  4  2  0  0  0  0
  4  5  1  0  0  0  0
  4 16  1  0  0  0  0
  5  6  2  0  0  0  0
  5  7  1  0  0  0  0
  7  8  1  0  0  0  0
  8  9  1  0  0  0  0
  8 23  1  0  0  0  0
  8 24  1  0  0  0  0
  9 10  1  0  0  0  0
  9 25  1  0  0  0  0
  9 26  1  0  0  0  0
 10 15  1  0  0  0  0
 10 11  2  0  0  0  0
 11 12  1  0  0  0  0
 11 27  1  0  0  0  0
 12 13  2  0  0  0  0
 12 28  1  0  0  0  0
 13 14  1  0  0  0  0
 13 29  1  0  0  0  0
 14 15  2  0  0  0  0
 14 30  1  0  0  0  0
 16 17  1  0  0  0  0
 16 31  1  0  0  0  0
 16 32  1  0  0  0  0
 17 18  1  0  0  0  0
 17 33  1  0  0  0  0
 17 34  1  0  0  0  0
 18 19  2  0  0  0  0
M  CHG  1   7  -1
M  END
> <s_m_source_file>
AV-unprocessed.smi

> <i_m_source_file_index>
2030

> <i_lp_mmshare_version>
43012

> <i_f3d_flags>
0

> <s_epik_input>
Tz1DMVtDSDJdW0NIMl1DKD1OTjFbQ0gzXSlDKD1PKVtOSF1bQ0gyXVtDSDJdYzJbY0hdW2NIXVtjSF1bY0hdbjI=

> <s_epik_cmdline>
J2VwaWtfcHl0aG9uJywgJy1waCcsICc3LjAnLCAnLXRuJywgJzgnLCAnLW1hJywgJzIwMCcsICctbWV0YWxfYmluZGluZycsICctaW1hZScsICc8aW5maWxlLm1hZT4nLCAnLW9tYWUnLCAnPG91dGZpbGUubWFlPic=

> <r_epik_Ionization_Penalty>
5.44594

> <r_epik_Ionization_Penalty_Charging>
5.3715

> <r_epik_Ionization_Penalty_Neutral>
0.0744438

> <r_epik_State_Penalty>
5.38529

> <r_epik_Charging_Adjusted_Penalty>
10.7568

> <i_epik_Tot_Q>
-1

> <i_epik_Tot_abs_Q>
1

> <r_epik_Metal_State_Penalty>
1.42988

> <b_epik_Metal_Only>
1

> <s_epik_Chemistry_Notes>
This compound has an imine and may undergo hydrolysis.

> <s_lp_Force_Field>
OPLS_2005

> <r_lp_Energy>
26.3213

> <b_lp_Chiralities_Consistent>
1

> <s_lp_Variant>
AV-unprocessed.smi:2030-3

> <Gold.Version>
5.8.1

> <Gold.Id.Protein>
6NUR|6NUR_protein|mol2

> <Gold.PLP.Fitness>
45.4276

> <Gold.PLP.PLP>
-41.3079

> <Gold.PLP.part.hbond>
-1.0000

> <Gold.PLP.part.metal>
0.0000

> <Gold.PLP.part.buried>
-5.5385

> <Gold.PLP.part.nonpolar>
-34.2037

> <Gold.PLP.part.repulsive>
0.0316

> <Gold.PLP.ligand.clash>
0.0000

> <Gold.PLP.ligand.torsion>
0.4919

> <Gold.PLP.Chemscore.Hbond>
1.0000

> <Gold.PLP.Chemscore.CHOScore>
0.6910

> <Gold.PLP.Chemscore.Metal>
0.0000

> <Gold.Chemscore.Hbonds>
donor molecule, donor type, donor heavy atom, donor atom, acceptor molecule, acceptor atom, score
      P1  H  7997  8009       L1     6  0.67

> <Gold.PLP.Chemscore.Internal.Correction>
0.0304

> <Gold.Rescore>
     Score         DG    S(hbond)    S(metal)    S(lipo)     H(rot)  DE(clash)    DE(int)     intcor
     16.65     -17.13       1.00        0.00     102.10       1.42       0.07       0.41       ----

> <Gold.Chemscore.Fitness>
16.6466

> <Gold.Chemscore.DG>
-17.1261

> <Gold.Chemscore.ZeroCoef>
-5.4800

> <Gold.Chemscore.Hbond>
0.9970

> <Gold.Chemscore.Metal>
0.0000

> <Gold.Chemscore.Lipo>
102.0998

> <Gold.Chemscore.Internal_Hbond>
0.0000

> <Gold.Chemscore.DEClash>
0.0727

> <Gold.Chemscore.DEInternal>
0.4068

> <Gold.Chemscore.Rot>
1.4178

> <Gold.Chemscore.Internal.Correction>
   9.000000E+99

> <Gold.Chemscore.Hbonds>
donor molecule, donor type, donor heavy atom, donor atom, acceptor molecule, acceptor atom, score
      P1  H  7997  8009       L1     6  0.66

> <Gold.Chemscore.Hbond.Weighted>
-3.3300

> <Gold.Chemscore.Metal.Weighted>
-0.0000

> <Gold.Chemscore.Lipo.Weighted>
-11.9457

> <Gold.Chemscore.Internal_Hbond.Weighted>
0.0000

> <Gold.Chemscore.DEClash.Weighted>
0.0727

> <Gold.Chemscore.DEInternal.Weighted>
0.4068

> <Gold.Chemscore.Rot.Weighted>
3.6295

> <Gold.Chemscore.Internal.Correction.Weighted>
   9.000000E+99

> <Gold.Protein.RotatedTorsions>
[ 6907 6896 6895 6894 ] final -126.78 input  -60.11 | X-H torsion
[ 7974 7965 7964 7962 ] final  171.28 input  175.53 | X-H torsion
[ 8008 7997 7996 7995 ] final  130.54 input   59.86 | X-H torsion
[ 10167 10162 10161 10158 ] final  101.48 input  -65.29 | X-H torsion
[ 10718 10713 10712 10709 ] final  -53.63 input   66.30 | X-H torsion
[ 10763 10752 10751 10750 ] final  -51.32 input  -60.55 | X-H torsion
[ 11005 11000 10999 10996 ] final   47.81 input  -57.11 | X-H torsion

> <Gold.Protein.ActiveResidues>
 VAL166  LYS551  ARG553  GLY616  TRP617  ASP618  TYR619  PRO620  LYS621  CYS622 
 ASP623  PHE694  ASN695  SER759  ASP760  ASP761  ALA762  ILE779  LEU786  VAL792 
 PHE793  MET794  SER795  GLU796  ALA797  LYS798  CYS799  TRP800  GLU811  SER814 

> <Gold.Protein.RotatedAtoms>
  150.9005  133.7125  159.2880 H   0  0  0  0  0  0  0  0  0  0  0  0  # atno 6907 bound_to 6896
  151.4645  135.1039  159.9744 H   0  0  0  0  0  0  0  0  0  0  0  0  # atno 6908 bound_to 6896
  152.4874  133.8360  159.7183 H   0  0  0  0  0  0  0  0  0  0  0  0  # atno 6909 bound_to 6896
  144.7299  139.9327  143.6425 H   0  0  0  0  0  0  0  0  0  0  0  0  # atno 7974 bound_to 7965
  156.2956  140.2593  156.2778 H   0  0  0  0  0  0  0  0  0  0  0  0  # atno 8008 bound_to 7997
  154.9631  140.0392  157.2218 H   0  0  0  0  0  0  0  0  0  0  0  0  # atno 8009 bound_to 7997
  154.7928  140.2815  155.5983 H   0  0  0  0  0  0  0  0  0  0  0  0  # atno 8010 bound_to 7997
  139.7434  144.7005  151.0540 H   0  0  0  0  0  0  0  0  0  0  0  0  # atno 10167 bound_to 10162
  156.1518  130.4151  149.9932 H   0  0  0  0  0  0  0  0  0  0  0  0  # atno 10718 bound_to 10713
  154.1247  135.6529  153.4910 H   0  0  0  0  0  0  0  0  0  0  0  0  # atno 10763 bound_to 10752
  153.0214  135.5278  154.7061 H   0  0  0  0  0  0  0  0  0  0  0  0  # atno 10764 bound_to 10752
  154.6279  135.2972  155.0221 H   0  0  0  0  0  0  0  0  0  0  0  0  # atno 10765 bound_to 10752
  140.1246  134.4784  155.8569 H   0  0  0  0  0  0  0  0  0  0  0  0  # atno 11005 bound_to 11000
  146.0845  139.3833  143.0444 LP  0  0  0  0  0  0  0  0  0  0  0  0  # atno 17320 bound_to 7965
  145.7795  140.9862  143.1106 LP  0  0  0  0  0  0  0  0  0  0  0  0  # atno 17321 bound_to 7965
  140.7789  143.4896  150.9910 LP  0  0  0  0  0  0  0  0  0  0  0  0  # atno 17342 bound_to 10162
  139.8584  143.7346  152.3175 LP  0  0  0  0  0  0  0  0  0  0  0  0  # atno 17343 bound_to 10162
  156.7787  130.9213  151.3645 LP  0  0  0  0  0  0  0  0  0  0  0  0  # atno 17370 bound_to 10713
  157.6663  130.9011  149.9940 LP  0  0  0  0  0  0  0  0  0  0  0  0  # atno 17371 bound_to 10713
  141.2158  133.6773  156.6954 LP  0  0  0  0  0  0  0  0  0  0  0  0  # atno 17394 bound_to 11000
  140.2920  134.8233  157.4025 LP  0  0  0  0  0  0  0  0  0  0  0  0  # atno 17395 bound_to 11000

$$$$
