AV-unprocessed.smi:38|AV-procd|sdf|349|dock9
  -GOLD-   2262016193D 1   1.00000     0.00000
 Structure written by MMmdl.
 27 28  0  0  0  0  0  0  0  0  2 V2000
  153.2548  143.2675  160.1356 O   0  0  0  0  0  0  0  0  0  0  0  0
  152.4808  142.6307  159.4227 C   0  0  0  0  0  0  0  0  0  0  0  0
  152.2731  141.2904  159.5709 N   0  5  0  0  0  0  0  0  0  0  0  0
  151.4146  140.5852  158.7771 C   0  0  0  0  0  0  0  0  0  0  0  0
  151.2112  139.3782  158.9120 O   0  0  0  0  0  0  0  0  0  0  0  0
  150.7131  141.2679  157.7461 N   0  0  0  0  0  0  0  0  0  0  0  0
  149.7560  140.4881  156.8708 C   0  0  1  0  0  0  0  0  0  0  0  0
  149.2646  141.3600  155.7033 C   0  0  0  0  0  0  0  0  0  0  0  0
  149.3417  140.4060  154.5274 C   0  0  1  0  0  0  0  0  0  0  0  0
  149.5423  141.1044  153.3156 O   0  0  0  0  0  0  0  0  0  0  0  0
  150.5496  139.5523  154.9180 C   0  0  2  0  0  0  0  0  0  0  0  0
  150.7125  138.1950  154.2103 C   0  0  0  0  0  0  0  0  0  0  0  0
  149.6785  137.2915  154.5427 O   0  0  0  0  0  0  0  0  0  0  0  0
  150.4163  139.3808  156.3239 O   0  0  0  0  0  0  0  0  0  0  0  0
  150.8969  142.6308  157.5792 C   0  0  0  0  0  0  0  0  0  0  0  0
  151.7427  143.3238  158.3686 C   0  0  0  0  0  0  0  0  0  0  0  0
  151.8997  144.6459  158.1829 F   0  0  0  0  0  0  0  0  0  0  0  0
  148.9602  140.1291  157.5252 H   0  0  0  0  0  0  0  0  0  0  0  0
  148.4279  139.8133  154.4772 H   0  0  0  0  0  0  0  0  0  0  0  0
  151.4607  140.1332  154.7624 H   0  0  0  0  0  0  0  0  0  0  0  0
  148.2617  141.7445  155.8920 H   0  0  0  0  0  0  0  0  0  0  0  0
  149.9456  142.2024  155.5649 H   0  0  0  0  0  0  0  0  0  0  0  0
  149.6518  140.4729  152.6212 H   0  0  0  0  0  0  0  0  0  0  0  0
  150.6901  138.3411  153.1303 H   0  0  0  0  0  0  0  0  0  0  0  0
  151.6787  137.7513  154.4516 H   0  0  0  0  0  0  0  0  0  0  0  0
  149.4192  136.8300  153.7599 H   0  0  0  0  0  0  0  0  0  0  0  0
  150.3602  143.1639  156.8098 H   0  0  0  0  0  0  0  0  0  0  0  0
  1  2  2  0  0  0  0
  2 16  1  0  0  0  0
  2  3  1  0  0  0  0
  3  4  1  0  0  0  0
  4  5  2  0  0  0  0
  4  6  1  0  0  0  0
  6  7  1  0  0  0  0
  6 15  1  0  0  0  0
  7 18  1  0  0  0  0
  7 14  1  0  0  0  0
  7  8  1  0  0  0  0
  8  9  1  0  0  0  0
  8 21  1  0  0  0  0
  8 22  1  0  0  0  0
  9 19  1  0  0  0  0
  9 10  1  0  0  0  0
  9 11  1  0  0  0  0
 10 23  1  0  0  0  0
 11 20  1  0  0  0  0
 11 12  1  0  0  0  0
 11 14  1  0  0  0  0
 12 13  1  0  0  0  0
 12 24  1  0  0  0  0
 12 25  1  0  0  0  0
 13 26  1  0  0  0  0
 15 16  2  0  0  0  0
 15 27  1  0  0  0  0
 16 17  1  0  0  0  0
M  CHG  1   3  -1
M  END
> <s_m_source_file>
AV-unprocessed.smi

> <i_m_source_file_index>
38

> <i_lp_mmshare_version>
43012

> <i_f3d_flags>
0

> <s_epik_input>
Tz1jMVtuSF1jKD1PKW4oW2NIXWMxRilbQ0BIXTJbQ0gyXVtDQEhdKFtPSF0pW0NASF0oTzIpW0NIMl1bT0hd

> <s_epik_cmdline>
J2VwaWtfcHl0aG9uJywgJy1waCcsICc3LjAnLCAnLXRuJywgJzgnLCAnLW1hJywgJzIwMCcsICctbWV0YWxfYmluZGluZycsICctaW1hZScsICc8aW5maWxlLm1hZT4nLCAnLW9tYWUnLCAnPG91dGZpbGUubWFlPic=

> <r_epik_Ionization_Penalty>
1.68146

> <r_epik_Ionization_Penalty_Charging>
3.4211e-08

> <r_epik_Ionization_Penalty_Neutral>
1.68146

> <r_epik_State_Penalty>
1.78593

> <r_epik_Charging_Adjusted_Penalty>
1.78593

> <i_epik_Tot_Q>
-1

> <i_epik_Tot_abs_Q>
1

> <r_epik_Metal_State_Penalty>
0.0113696

> <b_epik_Metal_Only>
0

> <s_epik_Chemistry_Notes>
This compound contains an acetal/aminal-like group ( X-CH(R)-Y where X, Y are N, S, or O) that may be acid/base labile, releasing an aldehyde.

> <s_lp_Force_Field>
OPLS_2005

> <r_lp_Energy>
38.28

> <b_lp_Chiralities_Consistent>
1

> <s_lp_Variant>
AV-unprocessed.smi:38-15

> <Gold.Version>
5.8.1

> <Gold.Id.Protein>
6NUR|6NUR_protein|mol2

> <Gold.PLP.Fitness>
45.2883

> <Gold.PLP.PLP>
-34.2851

> <Gold.PLP.part.hbond>
-3.4881

> <Gold.PLP.part.metal>
0.0000

> <Gold.PLP.part.buried>
-4.3193

> <Gold.PLP.part.nonpolar>
-27.0133

> <Gold.PLP.part.repulsive>
0.0000

> <Gold.PLP.ligand.clash>
0.0000

> <Gold.PLP.ligand.torsion>
0.1486

> <Gold.PLP.Chemscore.Hbond>
2.7653

> <Gold.PLP.Chemscore.CHOScore>
1.0000

> <Gold.PLP.Chemscore.Metal>
0.0000

> <Gold.Chemscore.Hbonds>
donor molecule, donor type, donor heavy atom, donor atom, acceptor molecule, acceptor atom, score
      L1  H    10    23       P1  7957  0.98
      L1  H    13    26       P1  7948  1.00
      P1  H  7989  7998       L1    10  0.01
      P1  H  8011  8017       L1    10  0.70
      L1  C    15    27       P1  8028  1.00

> <Gold.PLP.Chemscore.Internal.Correction>
0.0045

> <Gold.Rescore>
     Score         DG    S(hbond)    S(metal)    S(lipo)     H(rot)  DE(clash)    DE(int)     intcor
      8.96     -10.34       1.98        0.00      48.01       2.88       0.01       1.36       ----

> <Gold.Chemscore.Fitness>
8.9640

> <Gold.Chemscore.DG>
-10.3392

> <Gold.Chemscore.ZeroCoef>
-5.4800

> <Gold.Chemscore.Hbond>
1.9816

> <Gold.Chemscore.Metal>
0.0000

> <Gold.Chemscore.Lipo>
48.0094

> <Gold.Chemscore.Internal_Hbond>
0.0000

> <Gold.Chemscore.DEClash>
0.0147

> <Gold.Chemscore.DEInternal>
1.3605

> <Gold.Chemscore.Rot>
2.8815

> <Gold.Chemscore.Internal.Correction>
   9.000000E+99

> <Gold.Chemscore.Hbonds>
donor molecule, donor type, donor heavy atom, donor atom, acceptor molecule, acceptor atom, score
      L1  H    10    23       P1  7957  0.88
      L1  H    13    26       P1  7948  0.88
      P1  H  8011  8017       L1    10  0.07

> <Gold.Chemscore.Hbond.Weighted>
-6.6187

> <Gold.Chemscore.Metal.Weighted>
-0.0000

> <Gold.Chemscore.Lipo.Weighted>
-5.6171

> <Gold.Chemscore.Internal_Hbond.Weighted>
0.0000

> <Gold.Chemscore.DEClash.Weighted>
0.0147

> <Gold.Chemscore.DEInternal.Weighted>
1.3605

> <Gold.Chemscore.Rot.Weighted>
7.3765

> <Gold.Chemscore.Internal.Correction.Weighted>
   9.000000E+99

> <Gold.Protein.RotatedTorsions>
[ 6907 6896 6895 6894 ] final  123.27 input  -60.11 | X-H torsion
[ 7974 7965 7964 7962 ] final  174.77 input  175.53 | X-H torsion
[ 8008 7997 7996 7995 ] final   -0.22 input   59.86 | X-H torsion
[ 10167 10162 10161 10158 ] final  -47.64 input  -65.29 | X-H torsion
[ 10718 10713 10712 10709 ] final   40.44 input   66.30 | X-H torsion
[ 10763 10752 10751 10750 ] final -150.93 input  -60.55 | X-H torsion
[ 11005 11000 10999 10996 ] final -137.52 input  -57.11 | X-H torsion

> <Gold.Protein.ActiveResidues>
 VAL166  LYS551  ARG553  GLY616  TRP617  ASP618  TYR619  PRO620  LYS621  CYS622 
 ASP623  PHE694  ASN695  SER759  ASP760  ASP761  ALA762  ILE779  LEU786  VAL792 
 PHE793  MET794  SER795  GLU796  ALA797  LYS798  CYS799  TRP800  GLU811  SER814 

> <Gold.Protein.RotatedAtoms>
  152.4175  133.7062  159.6452 H   0  0  0  0  0  0  0  0  0  0  0  0  # atno 6907 bound_to 6896
  150.8052  133.8512  159.3215 H   0  0  0  0  0  0  0  0  0  0  0  0  # atno 6908 bound_to 6896
  151.6238  135.1031  160.0159 H   0  0  0  0  0  0  0  0  0  0  0  0  # atno 6909 bound_to 6896
  144.7215  139.9846  143.6439 H   0  0  0  0  0  0  0  0  0  0  0  0  # atno 7974 bound_to 7965
  154.6605  140.2589  155.7114 H   0  0  0  0  0  0  0  0  0  0  0  0  # atno 8008 bound_to 7997
  156.2616  140.2849  156.0997 H   0  0  0  0  0  0  0  0  0  0  0  0  # atno 8009 bound_to 7997
  155.1315  140.0378  157.2766 H   0  0  0  0  0  0  0  0  0  0  0  0  # atno 8010 bound_to 7997
  140.6766  143.2775  151.3956 H   0  0  0  0  0  0  0  0  0  0  0  0  # atno 10167 bound_to 10162
  157.3821  130.7759  149.7201 H   0  0  0  0  0  0  0  0  0  0  0  0  # atno 10718 bound_to 10713
  154.8089  135.3272  154.7357 H   0  0  0  0  0  0  0  0  0  0  0  0  # atno 10763 bound_to 10752
  153.8010  135.6903  153.4860 H   0  0  0  0  0  0  0  0  0  0  0  0  # atno 10764 bound_to 10752
  153.1854  135.4571  155.0027 H   0  0  0  0  0  0  0  0  0  0  0  0  # atno 10765 bound_to 10752
  140.8703  134.2059  157.4655 H   0  0  0  0  0  0  0  0  0  0  0  0  # atno 11005 bound_to 11000
  146.0460  139.3466  143.0668 LP  0  0  0  0  0  0  0  0  0  0  0  0  # atno 17320 bound_to 7965
  145.8275  140.9648  143.0866 LP  0  0  0  0  0  0  0  0  0  0  0  0  # atno 17321 bound_to 7965
  139.6062  144.1192  152.2252 LP  0  0  0  0  0  0  0  0  0  0  0  0  # atno 17342 bound_to 10162
  140.0591  144.5871  150.7276 LP  0  0  0  0  0  0  0  0  0  0  0  0  # atno 17343 bound_to 10162
  155.9778  130.4058  150.3688 LP  0  0  0  0  0  0  0  0  0  0  0  0  # atno 17370 bound_to 10713
  157.1793  131.0388  151.2756 LP  0  0  0  0  0  0  0  0  0  0  0  0  # atno 17371 bound_to 10713
  139.8712  134.9771  156.4947 LP  0  0  0  0  0  0  0  0  0  0  0  0  # atno 17394 bound_to 11000
  140.8580  133.8081  155.9236 LP  0  0  0  0  0  0  0  0  0  0  0  0  # atno 17395 bound_to 11000

$$$$
