AV-unprocessed.smi:3178|AV-procd|sdf|12131|dock8
  -GOLD-   2272017573D 1   1.00000     0.00000
 Structure written by MMmdl.
 35 35  0  0  0  0  0  0  0  0  1 V2000
  151.2260  139.3912  155.2106 C   0  0  0  0  0  0  0  0  0  0  0  0
  150.4731  140.2819  154.3953 O   0  0  0  0  0  0  0  0  0  0  0  0
  149.1002  140.5104  154.7322 C   0  0  0  0  0  0  0  0  0  0  0  0
  148.6809  141.7067  153.8558 C   0  0  0  0  0  0  0  0  0  0  0  0
  148.2364  139.2895  154.3557 C   0  0  0  0  0  0  0  0  0  0  0  0
  148.9344  140.8501  156.2338 C   0  0  0  0  0  0  0  0  0  0  0  0
  149.7438  142.0035  156.6103 N   0  0  0  0  0  0  0  0  0  0  0  0
  150.8154  141.9784  157.4176 C   0  0  0  0  0  0  0  0  0  0  0  0
  151.2860  140.9436  157.8888 O   0  0  0  0  0  0  0  0  0  0  0  0
  151.4613  143.3279  157.7423 C   0  0  0  0  0  0  0  0  0  0  0  0
  151.8349  143.4256  159.1889 C   0  0  0  0  0  0  0  0  0  0  0  0
  152.4863  142.5538  160.0164 C   0  0  0  0  0  0  0  0  0  0  0  0
  152.5155  143.2186  161.2772 C   0  0  0  0  0  0  0  0  0  0  0  0
  153.1059  142.7300  162.5671 C   0  0  0  0  0  0  0  0  0  0  0  0
  151.9360  144.4092  161.2348 N   0  0  0  0  0  0  0  0  0  0  0  0
  151.5263  144.5249  159.9583 N   0  0  0  0  0  0  0  0  0  0  0  0
  151.0420  145.3485  159.6306 H   0  0  0  0  0  0  0  0  0  0  0  0
  152.2450  139.3420  154.8273 H   0  0  0  0  0  0  0  0  0  0  0  0
  150.8273  138.3776  155.1911 H   0  0  0  0  0  0  0  0  0  0  0  0
  151.2882  139.7293  156.2444 H   0  0  0  0  0  0  0  0  0  0  0  0
  147.6475  141.9966  154.0487 H   0  0  0  0  0  0  0  0  0  0  0  0
  148.7630  141.4647  152.7956 H   0  0  0  0  0  0  0  0  0  0  0  0
  149.3075  142.5812  154.0352 H   0  0  0  0  0  0  0  0  0  0  0  0
  147.1750  139.5126  154.4685 H   0  0  0  0  0  0  0  0  0  0  0  0
  148.4467  138.4268  154.9875 H   0  0  0  0  0  0  0  0  0  0  0  0
  148.4016  138.9930  153.3195 H   0  0  0  0  0  0  0  0  0  0  0  0
  147.8798  141.0412  156.4406 H   0  0  0  0  0  0  0  0  0  0  0  0
  149.2137  140.0064  156.8646 H   0  0  0  0  0  0  0  0  0  0  0  0
  149.4310  142.9011  156.2694 H   0  0  0  0  0  0  0  0  0  0  0  0
  152.3494  143.4634  157.1242 H   0  0  0  0  0  0  0  0  0  0  0  0
  150.7679  144.1249  157.4717 H   0  0  0  0  0  0  0  0  0  0  0  0
  152.8781  141.5805  159.7604 H   0  0  0  0  0  0  0  0  0  0  0  0
  153.2000  141.6439  162.5692 H   0  0  0  0  0  0  0  0  0  0  0  0
  152.4857  143.0092  163.4195 H   0  0  0  0  0  0  0  0  0  0  0  0
  154.0993  143.1497  162.7247 H   0  0  0  0  0  0  0  0  0  0  0  0
  1  2  1  0  0  0  0
  1 18  1  0  0  0  0
  1 19  1  0  0  0  0
  1 20  1  0  0  0  0
  2  3  1  0  0  0  0
  3  4  1  0  0  0  0
  3  5  1  0  0  0  0
  3  6  1  0  0  0  0
  4 21  1  0  0  0  0
  4 22  1  0  0  0  0
  4 23  1  0  0  0  0
  5 24  1  0  0  0  0
  5 25  1  0  0  0  0
  5 26  1  0  0  0  0
  6  7  1  0  0  0  0
  6 27  1  0  0  0  0
  6 28  1  0  0  0  0
  7  8  1  0  0  0  0
  7 29  1  0  0  0  0
  8  9  2  0  0  0  0
  8 10  1  0  0  0  0
 10 30  1  0  0  0  0
 10 31  1  0  0  0  0
 10 11  1  0  0  0  0
 11 16  1  0  0  0  0
 11 12  2  0  0  0  0
 12 13  1  0  0  0  0
 12 32  1  0  0  0  0
 13 14  1  0  0  0  0
 13 15  2  0  0  0  0
 14 33  1  0  0  0  0
 14 34  1  0  0  0  0
 14 35  1  0  0  0  0
 15 16  1  0  0  0  0
 16 17  1  0  0  0  0
M  END
> <s_m_source_file>
AV-unprocessed.smi

> <i_m_source_file_index>
3178

> <i_lp_mmshare_version>
43012

> <i_f3d_flags>
0

> <s_epik_input>
W0NIM11PQyhbQ0gzXSkoW0NIM10pW0NIMl1bTkhdQyg9TylbQ0gyXWMxW2NIXWMoW0NIM10pW25IXW4x

> <s_epik_cmdline>
J2VwaWtfcHl0aG9uJywgJy1waCcsICc3LjAnLCAnLXRuJywgJzgnLCAnLW1hJywgJzIwMCcsICctbWV0YWxfYmluZGluZycsICctaW1hZScsICc8aW5maWxlLm1hZT4nLCAnLW9tYWUnLCAnPG91dGZpbGUubWFlPic=

> <r_lp_tautomer_probability>
0.5

> <r_epik_Ionization_Penalty>
0.000125824

> <r_epik_Ionization_Penalty_Charging>
0

> <r_epik_Ionization_Penalty_Neutral>
0.000125824

> <r_epik_State_Penalty>
0.41068

> <r_epik_Charging_Adjusted_Penalty>
0.41068

> <i_epik_Tot_Q>
0

> <i_epik_Tot_abs_Q>
0

> <r_epik_Metal_State_Penalty>
0.410657

> <b_epik_Metal_Only>
0

> <s_lp_Force_Field>
OPLS_2005

> <r_lp_Energy>
5.55187

> <b_lp_Chiralities_Consistent>
1

> <s_lp_Variant>
AV-unprocessed.smi:3178-2

> <Gold.Version>
5.8.1

> <Gold.Id.Protein>
6NUR|6NUR_protein|mol2

> <Gold.PLP.Fitness>
38.8875

> <Gold.PLP.PLP>
-33.9041

> <Gold.PLP.part.hbond>
-1.9905

> <Gold.PLP.part.metal>
0.0000

> <Gold.PLP.part.buried>
-3.4010

> <Gold.PLP.part.nonpolar>
-29.6872

> <Gold.PLP.part.repulsive>
0.4355

> <Gold.PLP.ligand.clash>
0.0000

> <Gold.PLP.ligand.torsion>
0.5252

> <Gold.PLP.Chemscore.Hbond>
2.0000

> <Gold.PLP.Chemscore.CHOScore>
0.0000

> <Gold.PLP.Chemscore.Metal>
0.0000

> <Gold.Chemscore.Hbonds>
donor molecule, donor type, donor heavy atom, donor atom, acceptor molecule, acceptor atom, score
      L1  H     7    29       P1  8028  1.00
      P1  H  7989  7998       L1     2  1.00

> <Gold.PLP.Chemscore.Internal.Correction>
0.0338

> <Gold.Rescore>
     Score         DG    S(hbond)    S(metal)    S(lipo)     H(rot)  DE(clash)    DE(int)     intcor
     12.70     -17.79       1.96        0.00      90.55       1.89       1.63       3.45       ----

> <Gold.Chemscore.Fitness>
12.7019

> <Gold.Chemscore.DG>
-17.7885

> <Gold.Chemscore.ZeroCoef>
-5.4800

> <Gold.Chemscore.Hbond>
1.9601

> <Gold.Chemscore.Metal>
0.0000

> <Gold.Chemscore.Lipo>
90.5476

> <Gold.Chemscore.Internal_Hbond>
0.0000

> <Gold.Chemscore.DEClash>
1.6344

> <Gold.Chemscore.DEInternal>
3.4522

> <Gold.Chemscore.Rot>
1.8877

> <Gold.Chemscore.Internal.Correction>
   9.000000E+99

> <Gold.Chemscore.Hbonds>
donor molecule, donor type, donor heavy atom, donor atom, acceptor molecule, acceptor atom, score
      L1  H     7    29       P1  8028  0.97
      P1  H  7989  7998       L1     2  0.29

> <Gold.Chemscore.Hbond.Weighted>
-6.5469

> <Gold.Chemscore.Metal.Weighted>
-0.0000

> <Gold.Chemscore.Lipo.Weighted>
-10.5941

> <Gold.Chemscore.Internal_Hbond.Weighted>
0.0000

> <Gold.Chemscore.DEClash.Weighted>
1.6344

> <Gold.Chemscore.DEInternal.Weighted>
3.4522

> <Gold.Chemscore.Rot.Weighted>
4.8325

> <Gold.Chemscore.Internal.Correction.Weighted>
   9.000000E+99

> <Gold.Protein.RotatedTorsions>
[ 6907 6896 6895 6894 ] final   45.68 input  -60.11 | X-H torsion
[ 7974 7965 7964 7962 ] final  -76.68 input  175.53 | X-H torsion
[ 8008 7997 7996 7995 ] final   31.33 input   59.86 | X-H torsion
[ 10167 10162 10161 10158 ] final  119.11 input  -65.29 | X-H torsion
[ 10718 10713 10712 10709 ] final   76.26 input   66.30 | X-H torsion
[ 10763 10752 10751 10750 ] final  132.27 input  -60.55 | X-H torsion
[ 11005 11000 10999 10996 ] final -141.12 input  -57.11 | X-H torsion

> <Gold.Protein.ActiveResidues>
 VAL166  LYS551  ARG553  GLY616  TRP617  ASP618  TYR619  PRO620  LYS621  CYS622 
 ASP623  PHE694  ASN695  SER759  ASP760  ASP761  ALA762  ILE779  LEU786  VAL792 
 PHE793  MET794  SER795  GLU796  ALA797  LYS798  CYS799  TRP800  GLU811  SER814 

> <Gold.Protein.RotatedAtoms>
  152.2474  134.8167  160.0450 H   0  0  0  0  0  0  0  0  0  0  0  0  # atno 6907 bound_to 6896
  151.8860  133.3500  159.3790 H   0  0  0  0  0  0  0  0  0  0  0  0  # atno 6908 bound_to 6896
  150.7073  134.4898  159.5554 H   0  0  0  0  0  0  0  0  0  0  0  0  # atno 6909 bound_to 6896
  145.6097  140.9389  143.1196 H   0  0  0  0  0  0  0  0  0  0  0  0  # atno 7974 bound_to 7965
  155.1048  140.3233  155.4537 H   0  0  0  0  0  0  0  0  0  0  0  0  # atno 8008 bound_to 7997
  156.2707  140.2054  156.6120 H   0  0  0  0  0  0  0  0  0  0  0  0  # atno 8009 bound_to 7997
  154.6802  140.0527  157.0244 H   0  0  0  0  0  0  0  0  0  0  0  0  # atno 8010 bound_to 7997
  139.6067  144.7071  151.2937 H   0  0  0  0  0  0  0  0  0  0  0  0  # atno 10167 bound_to 10162
  157.6666  130.9765  150.1471 H   0  0  0  0  0  0  0  0  0  0  0  0  # atno 10718 bound_to 10713
  153.7879  135.3159  155.3374 H   0  0  0  0  0  0  0  0  0  0  0  0  # atno 10763 bound_to 10752
  154.8137  135.4650  154.0587 H   0  0  0  0  0  0  0  0  0  0  0  0  # atno 10764 bound_to 10752
  153.1896  135.6906  153.8456 H   0  0  0  0  0  0  0  0  0  0  0  0  # atno 10765 bound_to 10752
  140.8356  134.2465  157.4836 H   0  0  0  0  0  0  0  0  0  0  0  0  # atno 11005 bound_to 11000
  144.7275  139.7829  143.7359 LP  0  0  0  0  0  0  0  0  0  0  0  0  # atno 17320 bound_to 7965
  146.1514  139.4598  143.0046 LP  0  0  0  0  0  0  0  0  0  0  0  0  # atno 17321 bound_to 7965
  140.7290  143.6920  150.7914 LP  0  0  0  0  0  0  0  0  0  0  0  0  # atno 17342 bound_to 10162
  140.0507  143.5252  152.2675 LP  0  0  0  0  0  0  0  0  0  0  0  0  # atno 17343 bound_to 10162
  156.2279  130.3679  149.8479 LP  0  0  0  0  0  0  0  0  0  0  0  0  # atno 17370 bound_to 10713
  156.6314  130.8667  151.3496 LP  0  0  0  0  0  0  0  0  0  0  0  0  # atno 17371 bound_to 10713
  139.8704  134.9609  156.4378 LP  0  0  0  0  0  0  0  0  0  0  0  0  # atno 17394 bound_to 11000
  140.8951  133.7820  155.9616 LP  0  0  0  0  0  0  0  0  0  0  0  0  # atno 17395 bound_to 11000

$$$$
