AV-unprocessed.smi:1513|AV-procd|sdf|6113|dock3
  -GOLD-   22720 6243D 1   1.00000     0.00000
 Structure written by MMmdl.
 33 34  0  0  0  0  0  0  0  0  4 V2000
  152.3847  139.5104  154.8302 N   0  5  0  0  0  0  0  0  0  0  0  0
  152.1018  138.5666  156.1157 S   0  0  0  0  0  0  0  0  0  0  0  0
  150.6548  138.4950  156.3672 O   0  0  0  0  0  0  0  0  0  0  0  0
  152.7847  137.2674  155.9901 O   0  0  0  0  0  0  0  0  0  0  0  0
  152.8038  139.5445  157.2163 N   0  5  0  0  0  0  0  0  0  0  0  0
  152.0708  140.0921  158.3538 C   0  0  0  0  0  0  0  0  0  0  0  0
  151.9089  141.6110  158.2287 C   0  0  0  0  0  0  0  0  0  0  0  0
  152.8095  142.4432  158.9402 C   0  0  0  0  0  0  0  0  0  0  0  0
  152.6997  143.8447  158.8507 C   0  0  0  0  0  0  0  0  0  0  0  0
  151.6860  144.4001  158.0514 C   0  0  0  0  0  0  0  0  0  0  0  0
  150.8390  143.5884  157.3866 N   0  3  0  0  0  0  0  0  0  0  0  0
  150.8947  142.2324  157.4320 C   0  0  0  0  0  0  0  0  0  0  0  0
  149.9203  141.5313  156.6902 N   0  0  0  0  0  0  0  0  0  0  0  0
  148.5638  141.7520  157.1772 C   0  0  0  0  0  0  0  0  0  0  0  0
  147.5696  140.8650  156.4074 C   0  0  0  0  0  0  0  0  0  0  0  0
  147.7057  141.0936  155.0075 O   0  0  0  0  0  0  0  0  0  0  0  0
  149.0126  140.7695  154.5425 C   0  0  0  0  0  0  0  0  0  0  0  0
  150.0391  141.6734  155.2444 C   0  0  0  0  0  0  0  0  0  0  0  0
  153.1262  139.0747  154.2688 H   0  0  0  0  0  0  0  0  0  0  0  0
  151.0847  139.6376  158.4551 H   0  0  0  0  0  0  0  0  0  0  0  0
  152.5768  139.8986  159.3002 H   0  0  0  0  0  0  0  0  0  0  0  0
  153.5912  142.0276  159.5622 H   0  0  0  0  0  0  0  0  0  0  0  0
  153.3835  144.4823  159.3914 H   0  0  0  0  0  0  0  0  0  0  0  0
  151.5248  145.4608  157.9269 H   0  0  0  0  0  0  0  0  0  0  0  0
  148.5131  141.5287  158.2437 H   0  0  0  0  0  0  0  0  0  0  0  0
  148.2965  142.8019  157.0532 H   0  0  0  0  0  0  0  0  0  0  0  0
  147.7331  139.8097  156.6278 H   0  0  0  0  0  0  0  0  0  0  0  0
  146.5482  141.0968  156.7090 H   0  0  0  0  0  0  0  0  0  0  0  0
  149.2283  139.7156  154.7277 H   0  0  0  0  0  0  0  0  0  0  0  0
  149.0538  140.9195  153.4636 H   0  0  0  0  0  0  0  0  0  0  0  0
  149.8711  142.7117  154.9558 H   0  0  0  0  0  0  0  0  0  0  0  0
  151.0494  141.4072  154.9313 H   0  0  0  0  0  0  0  0  0  0  0  0
  150.1077  144.0179  156.8203 H   0  0  0  0  0  0  0  0  0  0  0  0
  1  2  1  0  0  0  0
  1 19  1  0  0  0  0
  2  3  2  0  0  0  0
  2  4  2  0  0  0  0
  2  5  1  0  0  0  0
  5  6  1  0  0  0  0
  6  7  1  0  0  0  0
  6 20  1  0  0  0  0
  6 21  1  0  0  0  0
  7 12  1  0  0  0  0
  7  8  2  0  0  0  0
  8  9  1  0  0  0  0
  8 22  1  0  0  0  0
  9 10  2  0  0  0  0
  9 23  1  0  0  0  0
 10 11  1  0  0  0  0
 10 24  1  0  0  0  0
 11 12  2  0  0  0  0
 11 33  1  0  0  0  0
 12 13  1  0  0  0  0
 13 18  1  0  0  0  0
 13 14  1  0  0  0  0
 14 15  1  0  0  0  0
 14 25  1  0  0  0  0
 14 26  1  0  0  0  0
 15 16  1  0  0  0  0
 15 27  1  0  0  0  0
 15 28  1  0  0  0  0
 16 17  1  0  0  0  0
 17 18  1  0  0  0  0
 17 29  1  0  0  0  0
 17 30  1  0  0  0  0
 18 31  1  0  0  0  0
 18 32  1  0  0  0  0
M  CHG  1   1  -1
M  CHG  1   5  -1
M  CHG  1  11   1
M  END
> <s_m_source_file>
AV-unprocessed.smi

> <i_m_source_file_index>
1513

> <i_lp_mmshare_version>
43012

> <i_f3d_flags>
0

> <s_epik_input>
W05IMl1TKD1PKSg9TylbTkhdW0NIMl1jMVtjSF1bY0hdW2NIXW5jMU4yW0NIMl1bQ0gyXU9bQ0gyXVtDSDJdMg==

> <s_epik_cmdline>
J2VwaWtfcHl0aG9uJywgJy1waCcsICc3LjAnLCAnLXRuJywgJzgnLCAnLW1hJywgJzIwMCcsICctbWV0YWxfYmluZGluZycsICctaW1hZScsICc8aW5maWxlLm1hZT4nLCAnLW9tYWUnLCAnPG91dGZpbGUubWFlPic=

> <r_epik_Ionization_Penalty>
8.77184

> <r_epik_Ionization_Penalty_Charging>
8.77184

> <r_epik_Ionization_Penalty_Neutral>
3.18713e-12

> <r_epik_State_Penalty>
5.60098

> <r_epik_Charging_Adjusted_Penalty>
14.3728

> <i_epik_Tot_Q>
-1

> <i_epik_Tot_abs_Q>
3

> <r_epik_Metal_State_Penalty>
2.46454

> <b_epik_Metal_Only>
1

> <s_lp_Force_Field>
OPLS_2005

> <r_lp_Energy>
20.8309

> <b_lp_Chiralities_Consistent>
1

> <s_lp_Variant>
AV-unprocessed.smi:1513-6

> <Gold.Version>
5.8.1

> <Gold.Id.Protein>
6NUR|6NUR_protein|mol2

> <Gold.PLP.Fitness>
47.6000

> <Gold.PLP.PLP>
-32.2665

> <Gold.PLP.part.hbond>
-4.0000

> <Gold.PLP.part.metal>
0.0000

> <Gold.PLP.part.buried>
-4.2721

> <Gold.PLP.part.nonpolar>
-23.4182

> <Gold.PLP.part.repulsive>
0.1856

> <Gold.PLP.ligand.clash>
0.0000

> <Gold.PLP.ligand.torsion>
0.9527

> <Gold.PLP.Chemscore.Hbond>
5.3600

> <Gold.PLP.Chemscore.CHOScore>
0.0000

> <Gold.PLP.Chemscore.Metal>
0.0000

> <Gold.Chemscore.Hbonds>
donor molecule, donor type, donor heavy atom, donor atom, acceptor molecule, acceptor atom, score
      L1  H    11    33       P1  8028  2.00
      P1  H  7989  7998       L1     1  0.72
      P1  H  7997  8008       L1     5  2.00
      P1  H 10752 10764       L1     4  0.65

> <Gold.PLP.Chemscore.Internal.Correction>
1.1590

> <Gold.Rescore>
     Score         DG    S(hbond)    S(metal)    S(lipo)     H(rot)  DE(clash)    DE(int)     intcor
     18.60     -19.92       3.26        0.00      71.87       1.89       0.33       0.99       ----

> <Gold.Chemscore.Fitness>
18.6044

> <Gold.Chemscore.DG>
-19.9228

> <Gold.Chemscore.ZeroCoef>
-5.4800

> <Gold.Chemscore.Hbond>
3.2569

> <Gold.Chemscore.Metal>
0.0000

> <Gold.Chemscore.Lipo>
71.8702

> <Gold.Chemscore.Internal_Hbond>
0.0000

> <Gold.Chemscore.DEClash>
0.3287

> <Gold.Chemscore.DEInternal>
0.9897

> <Gold.Chemscore.Rot>
1.8922

> <Gold.Chemscore.Internal.Correction>
   9.000000E+99

> <Gold.Chemscore.Hbonds>
donor molecule, donor type, donor heavy atom, donor atom, acceptor molecule, acceptor atom, score
      L1  H    11    33       P1  8028  0.98
      P1  H  7989  7998       L1     1  0.17
      P1  H  7997  8008       L1     5  0.70
      P1  H 10752 10764       L1     4  0.61

> <Gold.Chemscore.Hbond.Weighted>
-10.8782

> <Gold.Chemscore.Metal.Weighted>
-0.0000

> <Gold.Chemscore.Lipo.Weighted>
-8.4088

> <Gold.Chemscore.Internal_Hbond.Weighted>
0.0000

> <Gold.Chemscore.DEClash.Weighted>
0.3287

> <Gold.Chemscore.DEInternal.Weighted>
0.9897

> <Gold.Chemscore.Rot.Weighted>
4.8441

> <Gold.Chemscore.Internal.Correction.Weighted>
   9.000000E+99

> <Gold.Protein.RotatedTorsions>
[ 6907 6896 6895 6894 ] final  -40.97 input  -60.11 | X-H torsion
[ 7974 7965 7964 7962 ] final -175.17 input  175.53 | X-H torsion
[ 8008 7997 7996 7995 ] final  -57.42 input   59.86 | X-H torsion
[ 10167 10162 10161 10158 ] final   75.18 input  -65.29 | X-H torsion
[ 10718 10713 10712 10709 ] final  -31.11 input   66.30 | X-H torsion
[ 10763 10752 10751 10750 ] final  -23.98 input  -60.55 | X-H torsion
[ 11005 11000 10999 10996 ] final   52.03 input  -57.11 | X-H torsion

> <Gold.Protein.ActiveResidues>
 VAL166  LYS551  ARG553  GLY616  TRP617  ASP618  TYR619  PRO620  LYS621  CYS622 
 ASP623  PHE694  ASN695  SER759  ASP760  ASP761  ALA762  ILE779  LEU786  VAL792 
 PHE793  MET794  SER795  GLU796  ALA797  LYS798  CYS799  TRP800  GLU811  SER814 

> <Gold.Protein.RotatedAtoms>
  150.9722  134.9093  159.7794 H   0  0  0  0  0  0  0  0  0  0  0  0  # atno 6907 bound_to 6896
  152.5194  134.3525  159.9266 H   0  0  0  0  0  0  0  0  0  0  0  0  # atno 6908 bound_to 6896
  151.3534  133.3876  159.2717 H   0  0  0  0  0  0  0  0  0  0  0  0  # atno 6909 bound_to 6896
  144.7129  140.1361  143.6395 H   0  0  0  0  0  0  0  0  0  0  0  0  # atno 7974 bound_to 7965
  154.4267  140.1107  156.5794 H   0  0  0  0  0  0  0  0  0  0  0  0  # atno 8008 bound_to 7997
  155.6128  140.3494  155.4609 H   0  0  0  0  0  0  0  0  0  0  0  0  # atno 8009 bound_to 7997
  156.0086  140.1214  157.0466 H   0  0  0  0  0  0  0  0  0  0  0  0  # atno 8010 bound_to 7997
  140.0057  144.5652  150.7700 H   0  0  0  0  0  0  0  0  0  0  0  0  # atno 10167 bound_to 10162
  156.3913  130.4373  149.7392 H   0  0  0  0  0  0  0  0  0  0  0  0  # atno 10718 bound_to 10713
  153.6764  135.6969  153.5131 H   0  0  0  0  0  0  0  0  0  0  0  0  # atno 10763 bound_to 10752
  153.2518  135.4272  155.0804 H   0  0  0  0  0  0  0  0  0  0  0  0  # atno 10764 bound_to 10752
  154.8412  135.3533  154.6308 H   0  0  0  0  0  0  0  0  0  0  0  0  # atno 10765 bound_to 10752
  140.0883  134.5243  155.8877 H   0  0  0  0  0  0  0  0  0  0  0  0  # atno 11005 bound_to 11000
  145.9243  139.2566  143.1362 LP  0  0  0  0  0  0  0  0  0  0  0  0  # atno 17320 bound_to 7965
  145.9588  140.8852  143.0221 LP  0  0  0  0  0  0  0  0  0  0  0  0  # atno 17321 bound_to 7965
  140.7401  143.2800  151.3626 LP  0  0  0  0  0  0  0  0  0  0  0  0  # atno 17342 bound_to 10162
  139.6240  144.0850  152.2417 LP  0  0  0  0  0  0  0  0  0  0  0  0  # atno 17343 bound_to 10162
  156.4444  130.7876  151.2898 LP  0  0  0  0  0  0  0  0  0  0  0  0  # atno 17370 bound_to 10713
  157.7499  131.0115  150.3347 LP  0  0  0  0  0  0  0  0  0  0  0  0  # atno 17371 bound_to 10713
  141.2070  133.6660  156.6276 LP  0  0  0  0  0  0  0  0  0  0  0  0  # atno 17394 bound_to 11000
  140.3388  134.7867  157.4382 LP  0  0  0  0  0  0  0  0  0  0  0  0  # atno 17395 bound_to 11000

$$$$
