AV-unprocessed.smi:157|AV-procd|sdf|1310|dock1
  -GOLD-   2262019 03D 1   1.00000     0.00000
 Structure written by MMmdl.
 36 38  0  0  0  0  0  0  0  0  2 V2000
  152.8843  139.6079  154.6139 O   0  0  0  0  0  0  0  0  0  0  0  0
  152.1831  138.4338  154.2622 C   0  0  0  0  0  0  0  0  0  0  0  0
  151.4926  137.8172  155.4962 C   0  0  2  0  0  0  0  0  0  0  0  0
  150.6758  138.8392  156.0728 O   0  0  0  0  0  0  0  0  0  0  0  0
  151.1421  139.1821  157.3433 C   0  0  2  0  0  0  0  0  0  0  0  0
  151.1499  140.6706  157.4641 N   0  0  0  0  0  0  0  0  0  0  0  0
  150.5210  141.5417  156.6474 C   0  0  0  0  0  0  0  0  0  0  0  0
  150.6932  142.8123  156.9699 N   0  3  0  0  0  0  0  0  0  0  0  0
  151.5004  142.8257  158.0876 C   0  0  0  0  0  0  0  0  0  0  0  0
  151.7839  141.4872  158.3716 C   0  0  0  0  0  0  0  0  0  0  0  0
  152.5732  140.9316  159.3901 N   0  0  0  0  0  0  0  0  0  0  0  0
  153.4083  141.6256  160.0929 C   0  0  0  0  0  0  0  0  0  0  0  0
  153.6410  142.9909  160.0790 N   0  0  0  0  0  0  0  0  0  0  0  0
  152.5775  143.9796  160.0805 C   0  0  0  0  0  0  0  0  0  0  0  0
  151.8725  144.1270  158.7258 C   0  0  1  0  0  0  0  0  0  0  0  0
  152.6714  144.9343  157.8857 O   0  0  0  0  0  0  0  0  0  0  0  0
  152.5577  138.6312  157.4608 C   0  0  0  0  0  0  0  0  0  0  0  0
  152.4254  137.3697  156.6380 C   0  0  2  0  0  0  0  0  0  0  0  0
  153.6878  136.8888  156.2228 O   0  0  0  0  0  0  0  0  0  0  0  0
  150.8489  136.9948  155.1815 H   0  0  0  0  0  0  0  0  0  0  0  0
  150.4602  138.8147  158.1110 H   0  0  0  0  0  0  0  0  0  0  0  0
  150.9521  144.6879  158.8929 H   0  0  0  0  0  0  0  0  0  0  0  0
  151.9297  136.6003  157.2319 H   0  0  0  0  0  0  0  0  0  0  0  0
  152.3002  140.3457  154.5268 H   0  0  0  0  0  0  0  0  0  0  0  0
  151.4694  138.6464  153.4659 H   0  0  0  0  0  0  0  0  0  0  0  0
  152.9118  137.7311  153.8569 H   0  0  0  0  0  0  0  0  0  0  0  0
  149.9297  141.2240  155.8074 H   0  0  0  0  0  0  0  0  0  0  0  0
  154.0391  141.1121  160.8201 H   0  0  0  0  0  0  0  0  0  0  0  0
  154.4738  143.3443  160.5286 H   0  0  0  0  0  0  0  0  0  0  0  0
  151.8458  143.6710  160.8287 H   0  0  0  0  0  0  0  0  0  0  0  0
  152.9699  144.9391  160.4190 H   0  0  0  0  0  0  0  0  0  0  0  0
  152.1329  145.6186  157.5193 H   0  0  0  0  0  0  0  0  0  0  0  0
  153.2673  139.3259  157.0077 H   0  0  0  0  0  0  0  0  0  0  0  0
  152.8328  138.4594  158.5019 H   0  0  0  0  0  0  0  0  0  0  0  0
  154.1931  136.6693  156.9911 H   0  0  0  0  0  0  0  0  0  0  0  0
  150.3016  143.6129  156.4904 H   0  0  0  0  0  0  0  0  0  0  0  0
  1  2  1  0  0  0  0
  1 24  1  0  0  0  0
  2  3  1  0  0  0  0
  2 25  1  0  0  0  0
  2 26  1  0  0  0  0
  3 20  1  0  0  0  0
  3 18  1  0  0  0  0
  3  4  1  0  0  0  0
  4  5  1  0  0  0  0
  5 21  1  0  0  0  0
  5  6  1  0  0  0  0
  5 17  1  0  0  0  0
  6 10  1  0  0  0  0
  6  7  1  0  0  0  0
  7  8  2  0  0  0  0
  7 27  1  0  0  0  0
  8  9  1  0  0  0  0
  8 36  1  0  0  0  0
  9 15  1  0  0  0  0
  9 10  2  0  0  0  0
 10 11  1  0  0  0  0
 11 12  2  0  0  0  0
 12 13  1  0  0  0  0
 12 28  1  0  0  0  0
 13 14  1  0  0  0  0
 13 29  1  0  0  0  0
 14 15  1  0  0  0  0
 14 30  1  0  0  0  0
 14 31  1  0  0  0  0
 15 22  1  0  0  0  0
 15 16  1  0  0  0  0
 16 32  1  0  0  0  0
 17 18  1  0  0  0  0
 17 33  1  0  0  0  0
 17 34  1  0  0  0  0
 18 23  1  0  0  0  0
 18 19  1  0  0  0  0
 19 35  1  0  0  0  0
M  CHG  1   8   1
M  END
> <s_m_source_file>
AV-unprocessed.smi

> <i_m_source_file_index>
157

> <i_lp_mmshare_version>
43012

> <i_f3d_flags>
0

> <s_epik_input>
W09IXVtDSDJdW0NASF0xT1tDQEhdKFtDSDJdW0NAQEhdMVtPSF0pbihbY0hdbjIpYyhjMjMpTj1bQ0hdW05IXVtDSDJdW0NASF0zW09IXQ==

> <s_epik_cmdline>
J2VwaWtfcHl0aG9uJywgJy1waCcsICc3LjAnLCAnLXRuJywgJzgnLCAnLW1hJywgJzIwMCcsICctbWV0YWxfYmluZGluZycsICctaW1hZScsICc8aW5maWxlLm1hZT4nLCAnLW9tYWUnLCAnPG91dGZpbGUubWFlPic=

> <r_epik_Ionization_Penalty>
1.68594

> <r_epik_Ionization_Penalty_Charging>
0

> <r_epik_Ionization_Penalty_Neutral>
1.68594

> <r_epik_State_Penalty>
1.79006

> <r_epik_Charging_Adjusted_Penalty>
1.79006

> <i_epik_Tot_Q>
1

> <i_epik_Tot_abs_Q>
1

> <r_epik_Metal_State_Penalty>
5.85324

> <b_epik_Metal_Only>
0

> <s_epik_Chemistry_Notes>
This compound has an imine and may undergo hydrolysis. This compound contains an acetal/aminal-like group ( X-CH(R)-Y where X, Y are N, S, or O) that may be acid/base labile, releasing an aldehyde.

> <s_lp_Force_Field>
OPLS_2005

> <r_lp_Energy>
54.8473

> <b_lp_Chiralities_Consistent>
1

> <s_lp_Variant>
AV-unprocessed.smi:157-20

> <Gold.Version>
5.8.1

> <Gold.Id.Protein>
6NUR|6NUR_protein|mol2

> <Gold.PLP.Fitness>
44.5374

> <Gold.PLP.PLP>
-33.9662

> <Gold.PLP.part.hbond>
-4.0000

> <Gold.PLP.part.metal>
0.0000

> <Gold.PLP.part.buried>
-7.1397

> <Gold.PLP.part.nonpolar>
-23.6413

> <Gold.PLP.part.repulsive>
0.0471

> <Gold.PLP.ligand.clash>
0.0000

> <Gold.PLP.ligand.torsion>
0.3497

> <Gold.PLP.Chemscore.Hbond>
3.7520

> <Gold.PLP.Chemscore.CHOScore>
0.0000

> <Gold.PLP.Chemscore.Metal>
0.0000

> <Gold.Chemscore.Hbonds>
donor molecule, donor type, donor heavy atom, donor atom, acceptor molecule, acceptor atom, score
      L1  H     8    36       P1  8028  2.00
      P1  H  7997  8010       L1     1  0.81
      P1  H 10752 10765       L1    19  0.59

> <Gold.PLP.Chemscore.Internal.Correction>
0.0148

> <Gold.Rescore>
     Score         DG    S(hbond)    S(metal)    S(lipo)     H(rot)  DE(clash)    DE(int)     intcor
     10.61     -10.84       2.48        0.00      55.14       3.67       0.00       0.23       ----

> <Gold.Chemscore.Fitness>
10.6120

> <Gold.Chemscore.DG>
-10.8380

> <Gold.Chemscore.ZeroCoef>
-5.4800

> <Gold.Chemscore.Hbond>
2.4823

> <Gold.Chemscore.Metal>
0.0000

> <Gold.Chemscore.Lipo>
55.1444

> <Gold.Chemscore.Internal_Hbond>
0.0000

> <Gold.Chemscore.DEClash>
0.0000

> <Gold.Chemscore.DEInternal>
0.2260

> <Gold.Chemscore.Rot>
3.6659

> <Gold.Chemscore.Internal.Correction>
   9.000000E+99

> <Gold.Chemscore.Hbonds>
donor molecule, donor type, donor heavy atom, donor atom, acceptor molecule, acceptor atom, score
      L1  H     8    36       P1  8028  0.97
      P1  H  7997  8010       L1     1  0.53
      P1  H 10752 10765       L1    19  0.22

> <Gold.Chemscore.Hbond.Weighted>
-8.2909

> <Gold.Chemscore.Metal.Weighted>
-0.0000

> <Gold.Chemscore.Lipo.Weighted>
-6.4519

> <Gold.Chemscore.Internal_Hbond.Weighted>
0.0000

> <Gold.Chemscore.DEClash.Weighted>
0.0000

> <Gold.Chemscore.DEInternal.Weighted>
0.2260

> <Gold.Chemscore.Rot.Weighted>
9.3848

> <Gold.Chemscore.Internal.Correction.Weighted>
   9.000000E+99

> <Gold.Protein.RotatedTorsions>
[ 6907 6896 6895 6894 ] final -178.98 input  -60.11 | X-H torsion
[ 7974 7965 7964 7962 ] final   96.73 input  175.53 | X-H torsion
[ 8008 7997 7996 7995 ] final  116.58 input   59.86 | X-H torsion
[ 10167 10162 10161 10158 ] final   72.77 input  -65.29 | X-H torsion
[ 10718 10713 10712 10709 ] final   80.58 input   66.30 | X-H torsion
[ 10763 10752 10751 10750 ] final -114.86 input  -60.55 | X-H torsion
[ 11005 11000 10999 10996 ] final  -21.43 input  -57.11 | X-H torsion

> <Gold.Protein.ActiveResidues>
 VAL166  LYS551  ARG553  GLY616  TRP617  ASP618  TYR619  PRO620  LYS621  CYS622 
 ASP623  PHE694  ASN695  SER759  ASP760  ASP761  ALA762  ILE779  LEU786  VAL792 
 PHE793  MET794  SER795  GLU796  ALA797  LYS798  CYS799  TRP800  GLU811  SER814 

> <Gold.Protein.RotatedAtoms>
  151.6460  133.3323  159.3140 H   0  0  0  0  0  0  0  0  0  0  0  0  # atno 6907 bound_to 6896
  150.7984  134.7064  159.6588 H   0  0  0  0  0  0  0  0  0  0  0  0  # atno 6908 bound_to 6896
  152.4073  134.6188  160.0097 H   0  0  0  0  0  0  0  0  0  0  0  0  # atno 6909 bound_to 6896
  145.4349  139.2307  143.3124 H   0  0  0  0  0  0  0  0  0  0  0  0  # atno 7974 bound_to 7965
  156.2447  140.2914  156.0545 H   0  0  0  0  0  0  0  0  0  0  0  0  # atno 8008 bound_to 7997
  155.1844  140.0405  157.2905 H   0  0  0  0  0  0  0  0  0  0  0  0  # atno 8009 bound_to 7997
  154.6237  140.2482  155.7524 H   0  0  0  0  0  0  0  0  0  0  0  0  # atno 8010 bound_to 7997
  140.0317  144.5460  150.7502 H   0  0  0  0  0  0  0  0  0  0  0  0  # atno 10167 bound_to 10162
  157.6810  130.9966  150.2100 H   0  0  0  0  0  0  0  0  0  0  0  0  # atno 10718 bound_to 10713
  154.8458  135.4402  154.1572 H   0  0  0  0  0  0  0  0  0  0  0  0  # atno 10763 bound_to 10752
  153.2718  135.6946  153.7479 H   0  0  0  0  0  0  0  0  0  0  0  0  # atno 10764 bound_to 10752
  153.6716  135.3418  155.3130 H   0  0  0  0  0  0  0  0  0  0  0  0  # atno 10765 bound_to 10752
  140.8560  133.7822  156.0020 H   0  0  0  0  0  0  0  0  0  0  0  0  # atno 11005 bound_to 11000
  146.2587  140.5091  142.8862 LP  0  0  0  0  0  0  0  0  0  0  0  0  # atno 17320 bound_to 7965
  144.8159  140.6466  143.6385 LP  0  0  0  0  0  0  0  0  0  0  0  0  # atno 17321 bound_to 7965
  140.7299  143.2677  151.3989 LP  0  0  0  0  0  0  0  0  0  0  0  0  # atno 17342 bound_to 10162
  139.6072  144.1173  152.2261 LP  0  0  0  0  0  0  0  0  0  0  0  0  # atno 17343 bound_to 10162
  156.2773  130.3729  149.7971 LP  0  0  0  0  0  0  0  0  0  0  0  0  # atno 17370 bound_to 10713
  156.5670  130.8408  151.3345 LP  0  0  0  0  0  0  0  0  0  0  0  0  # atno 17371 bound_to 10713
  140.8736  134.2696  157.5179 LP  0  0  0  0  0  0  0  0  0  0  0  0  # atno 17394 bound_to 11000
  139.8705  134.9580  156.4286 LP  0  0  0  0  0  0  0  0  0  0  0  0  # atno 17395 bound_to 11000

$$$$
