AV-unprocessed.smi:574|AV-procd|sdf|2975|dock6
  -GOLD-   2262023483D 1   1.00000     0.00000
 Structure written by MMmdl.
 40 41  0  0  0  0  0  0  0  0  1 V2000
  145.2829  132.1913  151.0225 C   0  0  0  0  0  0  0  0  0  0  0  0
  145.8241  133.2055  152.0241 C   0  0  0  0  0  0  0  0  0  0  0  0
  146.7614  132.9052  152.7628 O   0  0  0  0  0  0  0  0  0  0  0  0
  145.2218  134.4037  152.0393 N   0  0  0  0  0  0  0  0  0  0  0  0
  145.5830  135.5111  152.9158 C   0  0  0  0  0  0  0  0  0  0  0  0
  145.6885  136.8352  152.1383 C   0  0  0  0  0  0  0  0  0  0  0  0
  146.7772  137.6632  152.6410 N   0  0  0  0  0  0  0  0  0  0  0  0
  146.6253  138.8262  153.2940 C   0  0  0  0  0  0  0  0  0  0  0  0
  145.5287  139.3061  153.5836 O   0  0  0  0  0  0  0  0  0  0  0  0
  147.8954  139.4958  153.7347 C   0  0  0  0  0  0  0  0  0  0  0  0
  148.8868  138.6791  154.1590 N   0  0  0  0  0  0  0  0  0  0  0  0
  150.0363  139.2261  154.5728 C   0  0  0  0  0  0  0  0  0  0  0  0
  151.0465  138.3583  155.0077 N   0  0  0  0  0  0  0  0  0  0  0  0
  150.7557  136.9938  155.4467 C   0  0  0  0  0  0  0  0  0  0  0  0
  150.5949  136.9711  156.9776 C   0  0  0  0  0  0  0  0  0  0  0  0
  151.7822  137.4736  157.5878 O   0  0  0  0  0  0  0  0  0  0  0  0
  152.0860  138.8067  157.1821 C   0  0  0  0  0  0  0  0  0  0  0  0
  152.2631  138.8503  155.6533 C   0  0  0  0  0  0  0  0  0  0  0  0
  150.2901  140.5400  154.6017 N   0  0  0  0  0  0  0  0  0  0  0  0
  149.3128  141.3769  154.1966 C   0  0  0  0  0  0  0  0  0  0  0  0
  148.0639  140.9051  153.7482 C   0  0  0  0  0  0  0  0  0  0  0  0
  146.8338  142.0334  153.2895 Cl  0  0  0  0  0  0  0  0  0  0  0  0
  145.2707  132.6136  150.0175 H   0  0  0  0  0  0  0  0  0  0  0  0
  144.2662  131.9013  151.2887 H   0  0  0  0  0  0  0  0  0  0  0  0
  145.9009  131.2932  151.0070 H   0  0  0  0  0  0  0  0  0  0  0  0
  144.4594  134.5599  151.3958 H   0  0  0  0  0  0  0  0  0  0  0  0
  144.8587  135.5995  153.7276 H   0  0  0  0  0  0  0  0  0  0  0  0
  146.5394  135.2694  153.3799 H   0  0  0  0  0  0  0  0  0  0  0  0
  145.8237  136.6459  151.0721 H   0  0  0  0  0  0  0  0  0  0  0  0
  144.7642  137.4048  152.2381 H   0  0  0  0  0  0  0  0  0  0  0  0
  147.7174  137.3378  152.4675 H   0  0  0  0  0  0  0  0  0  0  0  0
  149.8735  136.5751  154.9634 H   0  0  0  0  0  0  0  0  0  0  0  0
  151.5866  136.3502  155.1555 H   0  0  0  0  0  0  0  0  0  0  0  0
  149.7337  137.5653  157.2875 H   0  0  0  0  0  0  0  0  0  0  0  0
  150.4229  135.9519  157.3241 H   0  0  0  0  0  0  0  0  0  0  0  0
  151.2945  139.4860  157.5027 H   0  0  0  0  0  0  0  0  0  0  0  0
  153.0029  139.1270  157.6770 H   0  0  0  0  0  0  0  0  0  0  0  0
  153.0949  138.2081  155.3623 H   0  0  0  0  0  0  0  0  0  0  0  0
  152.5352  139.8537  155.3275 H   0  0  0  0  0  0  0  0  0  0  0  0
  149.5270  142.4345  154.2417 H   0  0  0  0  0  0  0  0  0  0  0  0
  1  2  1  0  0  0  0
  1 23  1  0  0  0  0
  1 24  1  0  0  0  0
  1 25  1  0  0  0  0
  2  3  2  0  0  0  0
  2  4  1  0  0  0  0
  4  5  1  0  0  0  0
  4 26  1  0  0  0  0
  5  6  1  0  0  0  0
  5 27  1  0  0  0  0
  5 28  1  0  0  0  0
  6  7  1  0  0  0  0
  6 29  1  0  0  0  0
  6 30  1  0  0  0  0
  7  8  1  0  0  0  0
  7 31  1  0  0  0  0
  8  9  2  0  0  0  0
  8 10  1  0  0  0  0
 10 21  1  0  0  0  0
 10 11  2  0  0  0  0
 11 12  1  0  0  0  0
 12 13  1  0  0  0  0
 12 19  2  0  0  0  0
 13 18  1  0  0  0  0
 13 14  1  0  0  0  0
 14 15  1  0  0  0  0
 14 32  1  0  0  0  0
 14 33  1  0  0  0  0
 15 16  1  0  0  0  0
 15 34  1  0  0  0  0
 15 35  1  0  0  0  0
 16 17  1  0  0  0  0
 17 18  1  0  0  0  0
 17 36  1  0  0  0  0
 17 37  1  0  0  0  0
 18 38  1  0  0  0  0
 18 39  1  0  0  0  0
 19 20  1  0  0  0  0
 20 21  2  0  0  0  0
 20 40  1  0  0  0  0
 21 22  1  0  0  0  0
M  END
> <s_m_source_file>
AV-unprocessed.smi

> <i_m_source_file_index>
574

> <i_lp_mmshare_version>
43012

> <i_f3d_flags>
0

> <s_epik_input>
W0NIM11DKD1PKVtOSF1bQ0gyXVtDSDJdW05IXUMoPU8pYzFuYyhuW2NIXWMxQ2wpTjJbQ0gyXVtDSDJdT1tDSDJdW0NIMl0y

> <s_epik_cmdline>
J2VwaWtfcHl0aG9uJywgJy1waCcsICc3LjAnLCAnLXRuJywgJzgnLCAnLW1hJywgJzIwMCcsICctbWV0YWxfYmluZGluZycsICctaW1hZScsICc8aW5maWxlLm1hZT4nLCAnLW9tYWUnLCAnPG91dGZpbGUubWFlPic=

> <r_lp_tautomer_probability>
1

> <r_epik_Ionization_Penalty>
4.61473e-05

> <r_epik_Ionization_Penalty_Charging>
0

> <r_epik_Ionization_Penalty_Neutral>
4.61473e-05

> <r_epik_State_Penalty>
-0

> <r_epik_Charging_Adjusted_Penalty>
0

> <i_epik_Tot_Q>
0

> <i_epik_Tot_abs_Q>
0

> <r_epik_Metal_State_Penalty>
0.0410325

> <b_epik_Metal_Only>
0

> <s_lp_Force_Field>
OPLS_2005

> <r_lp_Energy>
11.2452

> <b_lp_Chiralities_Consistent>
1

> <s_lp_Variant>
AV-unprocessed.smi:574-1

> <Gold.Version>
5.8.1

> <Gold.Id.Protein>
6NUR|6NUR_protein|mol2

> <Gold.PLP.Fitness>
41.5539

> <Gold.PLP.PLP>
-35.0015

> <Gold.PLP.part.hbond>
-2.2206

> <Gold.PLP.part.metal>
0.0000

> <Gold.PLP.part.buried>
-6.5698

> <Gold.PLP.part.nonpolar>
-31.0171

> <Gold.PLP.part.repulsive>
2.7233

> <Gold.PLP.ligand.clash>
0.0000

> <Gold.PLP.ligand.torsion>
1.0452

> <Gold.PLP.Chemscore.Hbond>
1.9214

> <Gold.PLP.Chemscore.CHOScore>
0.8918

> <Gold.PLP.Chemscore.Metal>
0.0000

> <Gold.Chemscore.Hbonds>
donor molecule, donor type, donor heavy atom, donor atom, acceptor molecule, acceptor atom, score
      L1  H     7    31       P1  7948  1.00
      P1  H  7989  7998       L1    19  0.93
      L1  C    20    40       P1  8028  0.46

> <Gold.PLP.Chemscore.Internal.Correction>
0.2029

> <Gold.Rescore>
     Score         DG    S(hbond)    S(metal)    S(lipo)     H(rot)  DE(clash)    DE(int)     intcor
     12.93     -14.96       1.60        0.00      72.40       1.70       0.77       1.26       ----

> <Gold.Chemscore.Fitness>
12.9265

> <Gold.Chemscore.DG>
-14.9619

> <Gold.Chemscore.ZeroCoef>
-5.4800

> <Gold.Chemscore.Hbond>
1.6024

> <Gold.Chemscore.Metal>
0.0000

> <Gold.Chemscore.Lipo>
72.4020

> <Gold.Chemscore.Internal_Hbond>
0.0000

> <Gold.Chemscore.DEClash>
0.7717

> <Gold.Chemscore.DEInternal>
1.2637

> <Gold.Chemscore.Rot>
1.6957

> <Gold.Chemscore.Internal.Correction>
   9.000000E+99

> <Gold.Chemscore.Hbonds>
donor molecule, donor type, donor heavy atom, donor atom, acceptor molecule, acceptor atom, score
      L1  H     7    31       P1  7948  0.99
      P1  H  7989  7998       L1    19  0.25

> <Gold.Chemscore.Hbond.Weighted>
-5.3519

> <Gold.Chemscore.Metal.Weighted>
-0.0000

> <Gold.Chemscore.Lipo.Weighted>
-8.4710

> <Gold.Chemscore.Internal_Hbond.Weighted>
0.0000

> <Gold.Chemscore.DEClash.Weighted>
0.7717

> <Gold.Chemscore.DEInternal.Weighted>
1.2637

> <Gold.Chemscore.Rot.Weighted>
4.3410

> <Gold.Chemscore.Internal.Correction.Weighted>
   9.000000E+99

> <Gold.Protein.RotatedTorsions>
[ 6907 6896 6895 6894 ] final  -72.84 input  -60.11 | X-H torsion
[ 7974 7965 7964 7962 ] final  132.54 input  175.53 | X-H torsion
[ 8008 7997 7996 7995 ] final  154.44 input   59.86 | X-H torsion
[ 10167 10162 10161 10158 ] final   25.60 input  -65.29 | X-H torsion
[ 10718 10713 10712 10709 ] final -117.79 input   66.30 | X-H torsion
[ 10763 10752 10751 10750 ] final  -13.72 input  -60.55 | X-H torsion
[ 11005 11000 10999 10996 ] final -130.34 input  -57.11 | X-H torsion

> <Gold.Protein.ActiveResidues>
 VAL166  LYS551  ARG553  GLY616  TRP617  ASP618  TYR619  PRO620  LYS621  CYS622 
 ASP623  PHE694  ASN695  SER759  ASP760  ASP761  ALA762  ILE779  LEU786  VAL792 
 PHE793  MET794  SER795  GLU796  ALA797  LYS798  CYS799  TRP800  GLU811  SER814 

> <Gold.Protein.RotatedAtoms>
  150.7153  134.5104  159.5604 H   0  0  0  0  0  0  0  0  0  0  0  0  # atno 6907 bound_to 6896
  152.2682  134.7959  160.0428 H   0  0  0  0  0  0  0  0  0  0  0  0  # atno 6908 bound_to 6896
  151.8648  133.3429  159.3752 H   0  0  0  0  0  0  0  0  0  0  0  0  # atno 6909 bound_to 6896
  144.9958  139.4361  143.5317 H   0  0  0  0  0  0  0  0  0  0  0  0  # atno 7974 bound_to 7965
  156.2531  140.1966  156.6647 H   0  0  0  0  0  0  0  0  0  0  0  0  # atno 8008 bound_to 7997
  154.6438  140.0580  156.9902 H   0  0  0  0  0  0  0  0  0  0  0  0  # atno 8009 bound_to 7997
  155.1522  140.3252  155.4431 H   0  0  0  0  0  0  0  0  0  0  0  0  # atno 8010 bound_to 7997
  140.5093  144.0187  150.6365 H   0  0  0  0  0  0  0  0  0  0  0  0  # atno 10167 bound_to 10162
  156.1059  130.6209  150.9208 H   0  0  0  0  0  0  0  0  0  0  0  0  # atno 10718 bound_to 10713
  153.5176  135.7016  153.5748 H   0  0  0  0  0  0  0  0  0  0  0  0  # atno 10763 bound_to 10752
  153.3811  135.3920  155.1857 H   0  0  0  0  0  0  0  0  0  0  0  0  # atno 10764 bound_to 10752
  154.8697  135.3835  154.4662 H   0  0  0  0  0  0  0  0  0  0  0  0  # atno 10765 bound_to 10752
  140.9354  134.1264  157.4198 H   0  0  0  0  0  0  0  0  0  0  0  0  # atno 11005 bound_to 11000
  146.3441  139.9317  142.8752 LP  0  0  0  0  0  0  0  0  0  0  0  0  # atno 17320 bound_to 7965
  145.2222  140.9939  143.4039 LP  0  0  0  0  0  0  0  0  0  0  0  0  # atno 17321 bound_to 7965
  140.3505  143.2966  152.0492 LP  0  0  0  0  0  0  0  0  0  0  0  0  # atno 17342 bound_to 10162
  139.4892  144.6377  151.6941 LP  0  0  0  0  0  0  0  0  0  0  0  0  # atno 17343 bound_to 10162
  157.6235  131.0927  150.8577 LP  0  0  0  0  0  0  0  0  0  0  0  0  # atno 17370 bound_to 10713
  156.8696  130.5141  149.5297 LP  0  0  0  0  0  0  0  0  0  0  0  0  # atno 17371 bound_to 10713
  139.8806  135.0019  156.6095 LP  0  0  0  0  0  0  0  0  0  0  0  0  # atno 17394 bound_to 11000
  140.7806  133.8663  155.8565 LP  0  0  0  0  0  0  0  0  0  0  0  0  # atno 17395 bound_to 11000

$$$$
