AV-unprocessed.smi:902|AV-procd|sdf|4094|dock5
  -GOLD-   22720 1583D 1   1.00000     0.00000
 Structure written by MMmdl.
 42 44  0  0  0  0  0  0  0  0  1 V2000
  152.4936  144.9260  157.6790 C   0  0  0  0  0  0  0  0  0  0  0  0
  152.2468  143.6739  158.3672 N   0  0  0  0  0  0  0  0  0  0  0  0
  152.9375  143.3711  159.4868 N   0  0  0  0  0  0  0  0  0  0  0  0
  152.4831  142.1812  159.8682 C   0  0  0  0  0  0  0  0  0  0  0  0
  153.0407  141.5272  161.1038 C   0  0  0  0  0  0  0  0  0  0  0  0
  153.3030  142.3542  162.3706 C   0  0  0  0  0  0  0  0  0  0  0  0
  154.5350  141.4818  162.6333 C   0  0  0  0  0  0  0  0  0  0  0  0
  154.5097  141.0834  161.1538 C   0  0  0  0  0  0  0  0  0  0  0  0
  151.4744  141.6762  158.9968 C   0  0  0  0  0  0  0  0  0  0  0  0
  151.3615  142.6656  158.0590 C   0  0  0  0  0  0  0  0  0  0  0  0
  150.5406  142.7295  156.9774 N   0  0  0  0  0  0  0  0  0  0  0  0
  150.2295  141.7607  156.0990 C   0  0  0  0  0  0  0  0  0  0  0  0
  150.6663  140.6097  156.1195 O   0  0  0  0  0  0  0  0  0  0  0  0
  149.3659  142.2074  155.1763 N   0  0  0  0  0  0  0  0  0  0  0  0
  148.7935  141.4004  154.1045 C   0  0  0  0  0  0  0  0  0  0  0  0
  147.2759  141.2225  154.1180 C   0  0  0  0  0  0  0  0  0  0  0  0
  146.8487  139.8029  153.7568 C   0  0  0  0  0  0  0  0  0  0  0  0
  145.4567  139.6205  153.9147 O   0  0  0  0  0  0  0  0  0  0  0  0
  146.5021  141.9350  155.2105 C   0  0  0  0  0  0  0  0  0  0  0  0
  146.3677  142.3877  153.7808 C   0  0  0  0  0  0  0  0  0  0  0  0
  152.6252  144.7405  156.6127 H   0  0  0  0  0  0  0  0  0  0  0  0
  153.3941  145.4051  158.0657 H   0  0  0  0  0  0  0  0  0  0  0  0
  151.6450  145.5945  157.8238 H   0  0  0  0  0  0  0  0  0  0  0  0
  152.4124  140.6752  161.3710 H   0  0  0  0  0  0  0  0  0  0  0  0
  153.5640  143.3924  162.1589 H   0  0  0  0  0  0  0  0  0  0  0  0
  152.5227  142.2834  163.1290 H   0  0  0  0  0  0  0  0  0  0  0  0
  155.4249  142.0313  162.9413 H   0  0  0  0  0  0  0  0  0  0  0  0
  154.3248  140.6434  163.2990 H   0  0  0  0  0  0  0  0  0  0  0  0
  154.6709  140.0221  160.9640 H   0  0  0  0  0  0  0  0  0  0  0  0
  155.1663  141.7051  160.5430 H   0  0  0  0  0  0  0  0  0  0  0  0
  150.9363  140.7431  159.0685 H   0  0  0  0  0  0  0  0  0  0  0  0
  150.1035  143.6258  156.8223 H   0  0  0  0  0  0  0  0  0  0  0  0
  149.0592  143.1673  155.2357 H   0  0  0  0  0  0  0  0  0  0  0  0
  149.0724  141.8677  153.1597 H   0  0  0  0  0  0  0  0  0  0  0  0
  149.2725  140.4197  154.0998 H   0  0  0  0  0  0  0  0  0  0  0  0
  147.1377  139.5746  152.7305 H   0  0  0  0  0  0  0  0  0  0  0  0
  147.3591  139.0871  154.4019 H   0  0  0  0  0  0  0  0  0  0  0  0
  145.0142  140.0420  153.1937 H   0  0  0  0  0  0  0  0  0  0  0  0
  145.6492  141.4248  155.6539 H   0  0  0  0  0  0  0  0  0  0  0  0
  147.0552  142.5829  155.8879 H   0  0  0  0  0  0  0  0  0  0  0  0
  146.8332  143.3326  153.5082 H   0  0  0  0  0  0  0  0  0  0  0  0
  145.4332  142.1667  153.2688 H   0  0  0  0  0  0  0  0  0  0  0  0
  1  2  1  0  0  0  0
  1 21  1  0  0  0  0
  1 22  1  0  0  0  0
  1 23  1  0  0  0  0
  2 10  1  0  0  0  0
  2  3  1  0  0  0  0
  3  4  2  0  0  0  0
  4  5  1  0  0  0  0
  4  9  1  0  0  0  0
  5  8  1  0  0  0  0
  5  6  1  0  0  0  0
  5 24  1  0  0  0  0
  6  7  1  0  0  0  0
  6 25  1  0  0  0  0
  6 26  1  0  0  0  0
  7  8  1  0  0  0  0
  7 27  1  0  0  0  0
  7 28  1  0  0  0  0
  8 29  1  0  0  0  0
  8 30  1  0  0  0  0
  9 10  2  0  0  0  0
  9 31  1  0  0  0  0
 10 11  1  0  0  0  0
 11 12  1  0  0  0  0
 11 32  1  0  0  0  0
 12 13  2  0  0  0  0
 12 14  1  0  0  0  0
 14 15  1  0  0  0  0
 14 33  1  0  0  0  0
 15 16  1  0  0  0  0
 15 34  1  0  0  0  0
 15 35  1  0  0  0  0
 16 20  1  0  0  0  0
 16 17  1  0  0  0  0
 16 19  1  0  0  0  0
 17 18  1  0  0  0  0
 17 36  1  0  0  0  0
 17 37  1  0  0  0  0
 18 38  1  0  0  0  0
 19 20  1  0  0  0  0
 19 39  1  0  0  0  0
 19 40  1  0  0  0  0
 20 41  1  0  0  0  0
 20 42  1  0  0  0  0
M  END
> <s_m_source_file>
AV-unprocessed.smi

> <i_m_source_file_index>
902

> <i_lp_mmshare_version>
43012

> <i_f3d_flags>
0

> <s_epik_input>
W0NIMl0xW0NIMl1bQ0gyXVtDSF0xYyhubjJbQ0gzXSlbY0hdYzJbTkhdQyg9TylbTkhdW0NIMl1DMyhbQ0gyXVtPSF0pW0NIMl1bQ0gyXTM=

> <s_epik_cmdline>
J2VwaWtfcHl0aG9uJywgJy1waCcsICc3LjAnLCAnLXRuJywgJzgnLCAnLW1hJywgJzIwMCcsICctbWV0YWxfYmluZGluZycsICctaW1hZScsICc8aW5maWxlLm1hZT4nLCAnLW9tYWUnLCAnPG91dGZpbGUubWFlPic=

> <r_lp_tautomer_probability>
1

> <r_epik_Ionization_Penalty>
9.68756e-05

> <r_epik_Ionization_Penalty_Charging>
0

> <r_epik_Ionization_Penalty_Neutral>
9.68756e-05

> <r_epik_State_Penalty>
-0

> <r_epik_Charging_Adjusted_Penalty>
0

> <i_epik_Tot_Q>
0

> <i_epik_Tot_abs_Q>
0

> <r_epik_Metal_State_Penalty>
-0

> <b_epik_Metal_Only>
0

> <s_lp_Force_Field>
OPLS_2005

> <r_lp_Energy>
26.4992

> <b_lp_Chiralities_Consistent>
1

> <s_lp_Variant>
AV-unprocessed.smi:902-1

> <Gold.Version>
5.8.1

> <Gold.Id.Protein>
6NUR|6NUR_protein|mol2

> <Gold.PLP.Fitness>
51.8015

> <Gold.PLP.PLP>
-44.8006

> <Gold.PLP.part.hbond>
-2.6928

> <Gold.PLP.part.metal>
0.0000

> <Gold.PLP.part.buried>
-2.5129

> <Gold.PLP.part.nonpolar>
-40.0001

> <Gold.PLP.part.repulsive>
0.2572

> <Gold.PLP.ligand.clash>
0.0000

> <Gold.PLP.ligand.torsion>
1.6060

> <Gold.PLP.Chemscore.Hbond>
2.9600

> <Gold.PLP.Chemscore.CHOScore>
0.0000

> <Gold.PLP.Chemscore.Metal>
0.0000

> <Gold.Chemscore.Hbonds>
donor molecule, donor type, donor heavy atom, donor atom, acceptor molecule, acceptor atom, score
      L1  H    11    32       P1  8028  0.96
      L1  H    14    33       P1  8028  1.00
      L1  H    18    38       P1 10175  1.00

> <Gold.PLP.Chemscore.Internal.Correction>
1.3329

> <Gold.Rescore>
     Score         DG    S(hbond)    S(metal)    S(lipo)     H(rot)  DE(clash)    DE(int)     intcor
     19.27     -21.32       2.88        0.00     102.64       2.26       0.55       1.49       ----

> <Gold.Chemscore.Fitness>
19.2740

> <Gold.Chemscore.DG>
-21.3160

> <Gold.Chemscore.ZeroCoef>
-5.4800

> <Gold.Chemscore.Hbond>
2.8801

> <Gold.Chemscore.Metal>
0.0000

> <Gold.Chemscore.Lipo>
102.6371

> <Gold.Chemscore.Internal_Hbond>
0.0000

> <Gold.Chemscore.DEClash>
0.5515

> <Gold.Chemscore.DEInternal>
1.4905

> <Gold.Chemscore.Rot>
2.2626

> <Gold.Chemscore.Internal.Correction>
   9.000000E+99

> <Gold.Chemscore.Hbonds>
donor molecule, donor type, donor heavy atom, donor atom, acceptor molecule, acceptor atom, score
      L1  H    11    32       P1  8028  0.89
      L1  H    14    33       P1  8028  0.99
      L1  H    18    38       P1 10175  0.92

> <Gold.Chemscore.Hbond.Weighted>
-9.6196

> <Gold.Chemscore.Metal.Weighted>
-0.0000

> <Gold.Chemscore.Lipo.Weighted>
-12.0085

> <Gold.Chemscore.Internal_Hbond.Weighted>
0.0000

> <Gold.Chemscore.DEClash.Weighted>
0.5515

> <Gold.Chemscore.DEInternal.Weighted>
1.4905

> <Gold.Chemscore.Rot.Weighted>
5.7922

> <Gold.Chemscore.Internal.Correction.Weighted>
   9.000000E+99

> <Gold.Protein.RotatedTorsions>
[ 6907 6896 6895 6894 ] final  -36.40 input  -60.11 | X-H torsion
[ 7974 7965 7964 7962 ] final  -80.32 input  175.53 | X-H torsion
[ 8008 7997 7996 7995 ] final -127.97 input   59.86 | X-H torsion
[ 10167 10162 10161 10158 ] final  112.96 input  -65.29 | X-H torsion
[ 10718 10713 10712 10709 ] final   31.23 input   66.30 | X-H torsion
[ 10763 10752 10751 10750 ] final  -28.54 input  -60.55 | X-H torsion
[ 11005 11000 10999 10996 ] final   67.74 input  -57.11 | X-H torsion

> <Gold.Protein.ActiveResidues>
 VAL166  LYS551  ARG553  GLY616  TRP617  ASP618  TYR619  PRO620  LYS621  CYS622 
 ASP623  PHE694  ASN695  SER759  ASP760  ASP761  ALA762  ILE779  LEU786  VAL792 
 PHE793  MET794  SER795  GLU796  ALA797  LYS798  CYS799  TRP800  GLU811  SER814 

> <Gold.Protein.RotatedAtoms>
  151.0277  134.9516  159.8093 H   0  0  0  0  0  0  0  0  0  0  0  0  # atno 6907 bound_to 6896
  152.5339  134.2821  159.9021 H   0  0  0  0  0  0  0  0  0  0  0  0  # atno 6908 bound_to 6896
  151.2830  133.4158  159.2662 H   0  0  0  0  0  0  0  0  0  0  0  0  # atno 6909 bound_to 6896
  145.5614  140.9481  143.1445 H   0  0  0  0  0  0  0  0  0  0  0  0  # atno 7974 bound_to 7965
  155.2550  140.0434  157.2991 H   0  0  0  0  0  0  0  0  0  0  0  0  # atno 8008 bound_to 7997
  154.5745  140.2383  155.8112 H   0  0  0  0  0  0  0  0  0  0  0  0  # atno 8009 bound_to 7997
  156.2148  140.2988  155.9822 H   0  0  0  0  0  0  0  0  0  0  0  0  # atno 8010 bound_to 7997
  139.6497  144.7128  151.2072 H   0  0  0  0  0  0  0  0  0  0  0  0  # atno 10167 bound_to 10162
  157.2698  130.7202  149.6498 H   0  0  0  0  0  0  0  0  0  0  0  0  # atno 10718 bound_to 10713
  153.7500  135.6926  153.4948 H   0  0  0  0  0  0  0  0  0  0  0  0  # atno 10763 bound_to 10752
  153.2010  135.4437  155.0265 H   0  0  0  0  0  0  0  0  0  0  0  0  # atno 10764 bound_to 10752
  154.8190  135.3413  154.7021 H   0  0  0  0  0  0  0  0  0  0  0  0  # atno 10765 bound_to 10752
  139.9753  134.6833  156.0367 H   0  0  0  0  0  0  0  0  0  0  0  0  # atno 11005 bound_to 11000
  144.7481  139.7266  143.7284 LP  0  0  0  0  0  0  0  0  0  0  0  0  # atno 17320 bound_to 7965
  146.1848  139.5058  142.9843 LP  0  0  0  0  0  0  0  0  0  0  0  0  # atno 17321 bound_to 7965
  140.7532  143.6171  150.8549 LP  0  0  0  0  0  0  0  0  0  0  0  0  # atno 17342 bound_to 10162
  139.9818  143.5943  152.2940 LP  0  0  0  0  0  0  0  0  0  0  0  0  # atno 17343 bound_to 10162
  155.9663  130.4371  150.5161 LP  0  0  0  0  0  0  0  0  0  0  0  0  # atno 17370 bound_to 10713
  157.3083  131.0659  151.2019 LP  0  0  0  0  0  0  0  0  0  0  0  0  # atno 17371 bound_to 10713
  141.1430  133.6561  156.3785 LP  0  0  0  0  0  0  0  0  0  0  0  0  # atno 17394 bound_to 11000
  140.5208  134.6306  157.5317 LP  0  0  0  0  0  0  0  0  0  0  0  0  # atno 17395 bound_to 11000

$$$$
