AV-unprocessed.smi:1286|AV-procd|sdf|5375|dock10
  -GOLD-   22720 4523D 1   1.00000     0.00000
 Structure written by MMmdl.
 36 37  0  0  0  0  0  0  0  0  1 V2000
  150.1861  139.2077  157.9495 C   0  0  0  0  0  0  0  0  0  0  0  0
  150.4677  140.7161  157.9280 C   0  0  2  0  0  0  0  0  0  0  0  0
  151.0416  141.1638  156.5676 C   0  0  0  0  0  0  0  0  0  0  0  0
  150.1380  140.9022  155.4607 N   0  0  0  0  0  0  0  0  0  0  0  0
  148.9653  141.5541  155.1412 C   0  0  0  0  0  0  0  0  0  0  0  0
  148.4616  140.9585  154.0207 C   0  0  0  0  0  0  0  0  0  0  0  0
  149.4099  139.9399  153.7246 C   0  0  0  0  0  0  0  0  0  0  0  0
  150.4153  139.9129  154.5842 N   0  0  0  0  0  0  0  0  0  0  0  0
  151.4002  141.0465  159.0051 N   0  0  0  0  0  0  0  0  0  0  0  0
  152.6708  140.6240  159.1030 C   0  0  0  0  0  0  0  0  0  0  0  0
  153.2276  139.9388  158.2452 O   0  0  0  0  0  0  0  0  0  0  0  0
  153.4216  141.0291  160.3771 C   0  0  0  0  0  0  0  0  0  0  0  0
  153.6500  142.5516  160.5144 C   0  0  2  0  0  0  0  0  0  0  0  0
  152.7599  143.2107  161.5406 C   0  0  0  0  0  0  0  0  0  0  0  0
  152.0760  144.2396  161.0462 C   0  0  0  0  0  0  0  0  0  0  0  0
  152.3689  144.4786  159.5913 C   0  0  0  0  0  0  0  0  0  0  0  0
  153.3362  143.3343  159.2131 C   0  0  0  0  0  0  0  0  0  0  0  0
  149.4765  138.9310  157.1693 H   0  0  0  0  0  0  0  0  0  0  0  0
  149.7594  138.9014  158.9051 H   0  0  0  0  0  0  0  0  0  0  0  0
  151.0974  138.6300  157.7901 H   0  0  0  0  0  0  0  0  0  0  0  0
  149.5139  141.2238  158.0824 H   0  0  0  0  0  0  0  0  0  0  0  0
  151.2715  142.2302  156.5838 H   0  0  0  0  0  0  0  0  0  0  0  0
  151.9810  140.6466  156.3668 H   0  0  0  0  0  0  0  0  0  0  0  0
  148.5892  142.3752  155.7335 H   0  0  0  0  0  0  0  0  0  0  0  0
  147.5523  141.2096  153.4951 H   0  0  0  0  0  0  0  0  0  0  0  0
  149.3990  139.2253  152.9149 H   0  0  0  0  0  0  0  0  0  0  0  0
  151.0361  141.6111  159.7587 H   0  0  0  0  0  0  0  0  0  0  0  0
  152.8541  140.6654  161.2344 H   0  0  0  0  0  0  0  0  0  0  0  0
  154.3835  140.5143  160.4032 H   0  0  0  0  0  0  0  0  0  0  0  0
  154.6834  142.7429  160.8073 H   0  0  0  0  0  0  0  0  0  0  0  0
  152.7166  142.8754  162.5662 H   0  0  0  0  0  0  0  0  0  0  0  0
  151.3916  144.8596  161.6063 H   0  0  0  0  0  0  0  0  0  0  0  0
  151.4506  144.4453  159.0046 H   0  0  0  0  0  0  0  0  0  0  0  0
  152.8316  145.4576  159.4615 H   0  0  0  0  0  0  0  0  0  0  0  0
  154.2488  143.7242  158.7611 H   0  0  0  0  0  0  0  0  0  0  0  0
  152.8673  142.6879  158.4703 H   0  0  0  0  0  0  0  0  0  0  0  0
  1  2  1  0  0  0  0
  1 18  1  0  0  0  0
  1 19  1  0  0  0  0
  1 20  1  0  0  0  0
  2  3  1  0  0  0  0
  2  9  1  0  0  0  0
  2 21  1  0  0  0  0
  3  4  1  0  0  0  0
  3 22  1  0  0  0  0
  3 23  1  0  0  0  0
  4  8  1  0  0  0  0
  4  5  1  0  0  0  0
  5  6  2  0  0  0  0
  5 24  1  0  0  0  0
  6  7  1  0  0  0  0
  6 25  1  0  0  0  0
  7  8  2  0  0  0  0
  7 26  1  0  0  0  0
  9 10  1  0  0  0  0
  9 27  1  0  0  0  0
 10 11  2  0  0  0  0
 10 12  1  0  0  0  0
 12 13  1  0  0  0  0
 12 28  1  0  0  0  0
 12 29  1  0  0  0  0
 13 17  1  0  0  0  0
 13 14  1  0  0  0  0
 13 30  1  0  0  0  0
 14 15  2  0  0  0  0
 14 31  1  0  0  0  0
 15 16  1  0  0  0  0
 15 32  1  0  0  0  0
 16 17  1  0  0  0  0
 16 33  1  0  0  0  0
 16 34  1  0  0  0  0
 17 35  1  0  0  0  0
 17 36  1  0  0  0  0
M  END
> <s_m_source_file>
AV-unprocessed.smi

> <i_m_source_file_index>
1286

> <i_lp_mmshare_version>
43012

> <i_f3d_flags>
0

> <s_epik_input>
bjFbY0hdW2NIXVtjSF1uMVtDSDJdW0NAQEhdKFtDSDNdKVtOSF1DKD1PKVtDSDJdW0NAQEhdMltDSF09W0NIXVtDSDJdW0NIMl0y

> <s_epik_cmdline>
J2VwaWtfcHl0aG9uJywgJy1waCcsICc3LjAnLCAnLXRuJywgJzgnLCAnLW1hJywgJzIwMCcsICctbWV0YWxfYmluZGluZycsICctaW1hZScsICc8aW5maWxlLm1hZT4nLCAnLW9tYWUnLCAnPG91dGZpbGUubWFlPic=

> <r_lp_tautomer_probability>
1

> <r_epik_Ionization_Penalty>
0.000301761

> <r_epik_Ionization_Penalty_Charging>
0

> <r_epik_Ionization_Penalty_Neutral>
0.000301761

> <r_epik_State_Penalty>
-0

> <r_epik_Charging_Adjusted_Penalty>
0

> <i_epik_Tot_Q>
0

> <i_epik_Tot_abs_Q>
0

> <r_epik_Metal_State_Penalty>
-0

> <b_epik_Metal_Only>
0

> <s_lp_Force_Field>
OPLS_2005

> <r_lp_Energy>
16.2222

> <b_lp_Chiralities_Consistent>
1

> <s_lp_Variant>
AV-unprocessed.smi:1286-1

> <Gold.Version>
5.8.1

> <Gold.Id.Protein>
6NUR|6NUR_protein|mol2

> <Gold.PLP.Fitness>
48.1686

> <Gold.PLP.PLP>
-38.9485

> <Gold.PLP.part.hbond>
-2.0000

> <Gold.PLP.part.metal>
0.0000

> <Gold.PLP.part.buried>
-1.6584

> <Gold.PLP.part.nonpolar>
-36.7058

> <Gold.PLP.part.repulsive>
0.2729

> <Gold.PLP.ligand.clash>
0.0000

> <Gold.PLP.ligand.torsion>
0.8401

> <Gold.PLP.Chemscore.Hbond>
2.0000

> <Gold.PLP.Chemscore.CHOScore>
1.6240

> <Gold.PLP.Chemscore.Metal>
0.0000

> <Gold.Chemscore.Hbonds>
donor molecule, donor type, donor heavy atom, donor atom, acceptor molecule, acceptor atom, score
      P1  H  7989  7998       L1     8  0.72
      P1  H  7997  8010       L1    11  0.98
      L1  C     5    24       P1  8028  1.00
      L1  C     7    26       P1  7957  0.53

> <Gold.PLP.Chemscore.Internal.Correction>
0.0282

> <Gold.Rescore>
     Score         DG    S(hbond)    S(metal)    S(lipo)     H(rot)  DE(clash)    DE(int)     intcor
     15.85     -19.43       1.74        0.00     105.57       1.64       1.61       1.97       ----

> <Gold.Chemscore.Fitness>
15.8494

> <Gold.Chemscore.DG>
-19.4312

> <Gold.Chemscore.ZeroCoef>
-5.4800

> <Gold.Chemscore.Hbond>
1.7356

> <Gold.Chemscore.Metal>
0.0000

> <Gold.Chemscore.Lipo>
105.5665

> <Gold.Chemscore.Internal_Hbond>
0.0000

> <Gold.Chemscore.DEClash>
1.6105

> <Gold.Chemscore.DEInternal>
1.9713

> <Gold.Chemscore.Rot>
1.6394

> <Gold.Chemscore.Internal.Correction>
   9.000000E+99

> <Gold.Chemscore.Hbonds>
donor molecule, donor type, donor heavy atom, donor atom, acceptor molecule, acceptor atom, score
      P1  H  7989  7998       L1     8  0.02
      P1  H  7997  8010       L1    11  0.93

> <Gold.Chemscore.Hbond.Weighted>
-5.7968

> <Gold.Chemscore.Metal.Weighted>
-0.0000

> <Gold.Chemscore.Lipo.Weighted>
-12.3513

> <Gold.Chemscore.Internal_Hbond.Weighted>
0.0000

> <Gold.Chemscore.DEClash.Weighted>
1.6105

> <Gold.Chemscore.DEInternal.Weighted>
1.9713

> <Gold.Chemscore.Rot.Weighted>
4.1969

> <Gold.Chemscore.Internal.Correction.Weighted>
   9.000000E+99

> <Gold.Protein.RotatedTorsions>
[ 6907 6896 6895 6894 ] final -135.75 input  -60.11 | X-H torsion
[ 7974 7965 7964 7962 ] final  139.78 input  175.53 | X-H torsion
[ 8008 7997 7996 7995 ] final   48.02 input   59.86 | X-H torsion
[ 10167 10162 10161 10158 ] final -111.27 input  -65.29 | X-H torsion
[ 10718 10713 10712 10709 ] final   -8.23 input   66.30 | X-H torsion
[ 10763 10752 10751 10750 ] final   32.42 input  -60.55 | X-H torsion
[ 11005 11000 10999 10996 ] final   42.01 input  -57.11 | X-H torsion

> <Gold.Protein.ActiveResidues>
 VAL166  LYS551  ARG553  GLY616  TRP617  ASP618  TYR619  PRO620  LYS621  CYS622 
 ASP623  PHE694  ASN695  SER759  ASP760  ASP761  ALA762  ILE779  LEU786  VAL792 
 PHE793  MET794  SER795  GLU796  ALA797  LYS798  CYS799  TRP800  GLU811  SER814 

> <Gold.Protein.RotatedAtoms>
  151.0017  133.6050  159.2693 H   0  0  0  0  0  0  0  0  0  0  0  0  # atno 6907 bound_to 6896
  151.3234  135.0823  159.9323 H   0  0  0  0  0  0  0  0  0  0  0  0  # atno 6908 bound_to 6896
  152.5275  133.9660  159.7794 H   0  0  0  0  0  0  0  0  0  0  0  0  # atno 6909 bound_to 6896
  144.9247  139.5122  143.5646 H   0  0  0  0  0  0  0  0  0  0  0  0  # atno 7974 bound_to 7965
  155.3788  140.3427  155.4246 H   0  0  0  0  0  0  0  0  0  0  0  0  # atno 8008 bound_to 7997
  156.1622  140.1604  156.8626 H   0  0  0  0  0  0  0  0  0  0  0  0  # atno 8009 bound_to 7997
  154.5150  140.0780  156.8046 H   0  0  0  0  0  0  0  0  0  0  0  0  # atno 8010 bound_to 7997
  140.1354  143.4324  152.1599 H   0  0  0  0  0  0  0  0  0  0  0  0  # atno 10167 bound_to 10162
  156.7056  130.5106  149.5905 H   0  0  0  0  0  0  0  0  0  0  0  0  # atno 10718 bound_to 10713
  153.0263  135.6414  154.1352 H   0  0  0  0  0  0  0  0  0  0  0  0  # atno 10763 bound_to 10752
  154.1080  135.2855  155.3238 H   0  0  0  0  0  0  0  0  0  0  0  0  # atno 10764 bound_to 10752
  154.6352  135.5479  153.7788 H   0  0  0  0  0  0  0  0  0  0  0  0  # atno 10765 bound_to 10752
  140.1780  134.4139  155.8217 H   0  0  0  0  0  0  0  0  0  0  0  0  # atno 11005 bound_to 11000
  146.3221  139.8153  142.8937 LP  0  0  0  0  0  0  0  0  0  0  0  0  # atno 17320 bound_to 7965
  145.3238  141.0250  143.3485 LP  0  0  0  0  0  0  0  0  0  0  0  0  # atno 17321 bound_to 7965
  139.5498  144.7329  151.4469 LP  0  0  0  0  0  0  0  0  0  0  0  0  # atno 17342 bound_to 10162
  140.6792  143.8120  150.7099 LP  0  0  0  0  0  0  0  0  0  0  0  0  # atno 17343 bound_to 10162
  156.1697  130.6429  151.0822 LP  0  0  0  0  0  0  0  0  0  0  0  0  # atno 17370 bound_to 10713
  157.6956  131.0795  150.6979 LP  0  0  0  0  0  0  0  0  0  0  0  0  # atno 17371 bound_to 10713
  141.2221  133.6987  156.7880 LP  0  0  0  0  0  0  0  0  0  0  0  0  # atno 17394 bound_to 11000
  140.2300  134.8693  157.3467 LP  0  0  0  0  0  0  0  0  0  0  0  0  # atno 17395 bound_to 11000

$$$$
