AV-unprocessed.smi:1840|AV-procd|sdf|7495|dock8
  -GOLD-   22720 9193D 1   1.00000     0.00000
 Structure written by MMmdl.
 43 44  0  0  0  0  0  0  0  0  1 V2000
  149.8997  136.5943  156.1641 C   0  0  0  0  0  0  0  0  0  0  0  0
  151.0909  137.5361  155.9428 C   0  0  1  0  0  0  0  0  0  0  0  0
  151.0503  138.1753  154.5379 C   0  0  0  0  0  0  0  0  0  0  0  0
  150.0176  139.1900  154.4137 N   0  0  0  0  0  0  0  0  0  0  0  0
  148.7276  139.0462  153.9479 C   0  0  0  0  0  0  0  0  0  0  0  0
  148.1397  140.2777  153.9934 C   0  0  0  0  0  0  0  0  0  0  0  0
  149.1621  141.1216  154.5107 C   0  0  0  0  0  0  0  0  0  0  0  0
  150.2831  140.4671  154.7665 N   0  0  0  0  0  0  0  0  0  0  0  0
  151.0866  138.5649  156.9826 N   0  0  0  0  0  0  0  0  0  0  0  0
  151.8711  139.6527  157.0022 C   0  0  0  0  0  0  0  0  0  0  0  0
  152.7441  139.8910  156.1671 O   0  0  0  0  0  0  0  0  0  0  0  0
  151.5684  140.4655  158.0235 N   0  0  0  0  0  0  0  0  0  0  0  0
  152.1935  141.7615  158.2787 C   0  0  1  0  0  0  0  0  0  0  0  0
  151.2532  142.8936  157.8111 C   0  0  0  0  0  0  0  0  0  0  0  0
  151.8424  144.2792  158.1107 C   0  0  0  0  0  0  0  0  0  0  0  0
  152.1723  144.4251  159.6022 C   0  0  0  0  0  0  0  0  0  0  0  0
  153.1205  143.3101  160.0684 C   0  0  0  0  0  0  0  0  0  0  0  0
  152.5461  141.9078  159.7801 C   0  0  2  0  0  0  0  0  0  0  0  0
  153.5170  140.8164  160.2660 C   0  0  0  0  0  0  0  0  0  0  0  0
  149.8905  135.7944  155.4232 H   0  0  0  0  0  0  0  0  0  0  0  0
  148.9510  137.1273  156.0893 H   0  0  0  0  0  0  0  0  0  0  0  0
  149.9442  136.1289  157.1494 H   0  0  0  0  0  0  0  0  0  0  0  0
  151.9967  136.9322  156.0235 H   0  0  0  0  0  0  0  0  0  0  0  0
  152.0079  138.6481  154.3158 H   0  0  0  0  0  0  0  0  0  0  0  0
  150.8970  137.4116  153.7732 H   0  0  0  0  0  0  0  0  0  0  0  0
  148.3435  138.0920  153.6187 H   0  0  0  0  0  0  0  0  0  0  0  0
  147.1339  140.5373  153.6985 H   0  0  0  0  0  0  0  0  0  0  0  0
  149.1230  142.1830  154.7071 H   0  0  0  0  0  0  0  0  0  0  0  0
  150.3984  138.4654  157.7145 H   0  0  0  0  0  0  0  0  0  0  0  0
  150.8316  140.1845  158.6536 H   0  0  0  0  0  0  0  0  0  0  0  0
  153.1221  141.8241  157.7073 H   0  0  0  0  0  0  0  0  0  0  0  0
  151.0601  142.8069  156.7411 H   0  0  0  0  0  0  0  0  0  0  0  0
  150.2855  142.7977  158.3056 H   0  0  0  0  0  0  0  0  0  0  0  0
  152.7462  144.4285  157.5187 H   0  0  0  0  0  0  0  0  0  0  0  0
  151.1404  145.0560  157.8063 H   0  0  0  0  0  0  0  0  0  0  0  0
  152.6241  145.3995  159.7893 H   0  0  0  0  0  0  0  0  0  0  0  0
  151.2520  144.3928  160.1866 H   0  0  0  0  0  0  0  0  0  0  0  0
  154.0841  143.4225  159.5695 H   0  0  0  0  0  0  0  0  0  0  0  0
  153.3127  143.4223  161.1359 H   0  0  0  0  0  0  0  0  0  0  0  0
  151.6246  141.8057  160.3560 H   0  0  0  0  0  0  0  0  0  0  0  0
  154.4487  140.8369  159.6999 H   0  0  0  0  0  0  0  0  0  0  0  0
  153.0878  139.8196  160.1640 H   0  0  0  0  0  0  0  0  0  0  0  0
  153.7658  140.9539  161.3185 H   0  0  0  0  0  0  0  0  0  0  0  0
  1  2  1  0  0  0  0
  1 20  1  0  0  0  0
  1 21  1  0  0  0  0
  1 22  1  0  0  0  0
  2  3  1  0  0  0  0
  2  9  1  0  0  0  0
  2 23  1  0  0  0  0
  3  4  1  0  0  0  0
  3 24  1  0  0  0  0
  3 25  1  0  0  0  0
  4  8  1  0  0  0  0
  4  5  1  0  0  0  0
  5  6  2  0  0  0  0
  5 26  1  0  0  0  0
  6  7  1  0  0  0  0
  6 27  1  0  0  0  0
  7  8  2  0  0  0  0
  7 28  1  0  0  0  0
  9 10  1  0  0  0  0
  9 29  1  0  0  0  0
 10 11  2  0  0  0  0
 10 12  1  0  0  0  0
 12 13  1  0  0  0  0
 12 30  1  0  0  0  0
 13 18  1  0  0  0  0
 13 14  1  0  0  0  0
 13 31  1  0  0  0  0
 14 15  1  0  0  0  0
 14 32  1  0  0  0  0
 14 33  1  0  0  0  0
 15 16  1  0  0  0  0
 15 34  1  0  0  0  0
 15 35  1  0  0  0  0
 16 17  1  0  0  0  0
 16 36  1  0  0  0  0
 16 37  1  0  0  0  0
 17 18  1  0  0  0  0
 17 38  1  0  0  0  0
 17 39  1  0  0  0  0
 18 19  1  0  0  0  0
 18 40  1  0  0  0  0
 19 41  1  0  0  0  0
 19 42  1  0  0  0  0
 19 43  1  0  0  0  0
M  END
> <s_m_source_file>
AV-unprocessed.smi

> <i_m_source_file_index>
1840

> <i_lp_mmshare_version>
43012

> <i_f3d_flags>
0

> <s_epik_input>
bjFbY0hdW2NIXVtjSF1uMVtDSDJdW0NAQEhdKFtDSDNdKVtOSF1DKD1PKVtOSF1bQ0BASF0yW0NIMl1bQ0gyXVtDSDJdW0NIMl1bQ0BIXTJbQ0gzXQ==

> <s_epik_cmdline>
J2VwaWtfcHl0aG9uJywgJy1waCcsICc3LjAnLCAnLXRuJywgJzgnLCAnLW1hJywgJzIwMCcsICctbWV0YWxfYmluZGluZycsICctaW1hZScsICc8aW5maWxlLm1hZT4nLCAnLW9tYWUnLCAnPG91dGZpbGUubWFlPic=

> <r_lp_tautomer_probability>
1

> <r_epik_Ionization_Penalty>
7.38659e-05

> <r_epik_Ionization_Penalty_Charging>
0

> <r_epik_Ionization_Penalty_Neutral>
7.38659e-05

> <r_epik_State_Penalty>
-0

> <r_epik_Charging_Adjusted_Penalty>
0

> <i_epik_Tot_Q>
0

> <i_epik_Tot_abs_Q>
0

> <r_epik_Metal_State_Penalty>
-0

> <b_epik_Metal_Only>
0

> <s_lp_Force_Field>
OPLS_2005

> <r_lp_Energy>
7.84096

> <b_lp_Chiralities_Consistent>
1

> <s_lp_Variant>
AV-unprocessed.smi:1840-8

> <Gold.Version>
5.8.1

> <Gold.Id.Protein>
6NUR|6NUR_protein|mol2

> <Gold.PLP.Fitness>
49.2712

> <Gold.PLP.PLP>
-40.6664

> <Gold.PLP.part.hbond>
-2.0000

> <Gold.PLP.part.metal>
0.0000

> <Gold.PLP.part.buried>
-1.4365

> <Gold.PLP.part.nonpolar>
-36.4853

> <Gold.PLP.part.repulsive>
0.1949

> <Gold.PLP.ligand.clash>
0.0000

> <Gold.PLP.ligand.torsion>
0.7655

> <Gold.PLP.Chemscore.Hbond>
1.9760

> <Gold.PLP.Chemscore.CHOScore>
1.3978

> <Gold.PLP.Chemscore.Metal>
0.0000

> <Gold.Chemscore.Hbonds>
donor molecule, donor type, donor heavy atom, donor atom, acceptor molecule, acceptor atom, score
      P1  H  7989  7998       L1     8  0.99
      P1  H  7997  8008       L1    11  1.00
      L1  C     5    26       P1  7948  0.78
      L1  C     7    28       P1  8028  0.56

> <Gold.PLP.Chemscore.Internal.Correction>
0.0145

> <Gold.Rescore>
     Score         DG    S(hbond)    S(metal)    S(lipo)     H(rot)  DE(clash)    DE(int)     intcor
     19.02     -20.68       1.89        0.00     110.13       1.56       0.01       1.66       ----

> <Gold.Chemscore.Fitness>
19.0154

> <Gold.Chemscore.DG>
-20.6801

> <Gold.Chemscore.ZeroCoef>
-5.4800

> <Gold.Chemscore.Hbond>
1.8868

> <Gold.Chemscore.Metal>
0.0000

> <Gold.Chemscore.Lipo>
110.1328

> <Gold.Chemscore.Internal_Hbond>
0.0000

> <Gold.Chemscore.DEClash>
0.0075

> <Gold.Chemscore.DEInternal>
1.6572

> <Gold.Chemscore.Rot>
1.5576

> <Gold.Chemscore.Internal.Correction>
   9.000000E+99

> <Gold.Chemscore.Hbonds>
donor molecule, donor type, donor heavy atom, donor atom, acceptor molecule, acceptor atom, score
      P1  H  7989  7998       L1     8  0.19
      P1  H  7997  8008       L1    11  0.99

> <Gold.Chemscore.Hbond.Weighted>
-6.3020

> <Gold.Chemscore.Metal.Weighted>
-0.0000

> <Gold.Chemscore.Lipo.Weighted>
-12.8855

> <Gold.Chemscore.Internal_Hbond.Weighted>
0.0000

> <Gold.Chemscore.DEClash.Weighted>
0.0075

> <Gold.Chemscore.DEInternal.Weighted>
1.6572

> <Gold.Chemscore.Rot.Weighted>
3.9875

> <Gold.Chemscore.Internal.Correction.Weighted>
   9.000000E+99

> <Gold.Protein.RotatedTorsions>
[ 6907 6896 6895 6894 ] final   35.32 input  -60.11 | X-H torsion
[ 7974 7965 7964 7962 ] final  -46.29 input  175.53 | X-H torsion
[ 8008 7997 7996 7995 ] final  -52.07 input   59.86 | X-H torsion
[ 10167 10162 10161 10158 ] final -103.68 input  -65.29 | X-H torsion
[ 10718 10713 10712 10709 ] final  -55.83 input   66.30 | X-H torsion
[ 10763 10752 10751 10750 ] final -133.97 input  -60.55 | X-H torsion
[ 11005 11000 10999 10996 ] final  -58.84 input  -57.11 | X-H torsion

> <Gold.Protein.ActiveResidues>
 VAL166  LYS551  ARG553  GLY616  TRP617  ASP618  TYR619  PRO620  LYS621  CYS622 
 ASP623  PHE694  ASN695  SER759  ASP760  ASP761  ALA762  ILE779  LEU786  VAL792 
 PHE793  MET794  SER795  GLU796  ALA797  LYS798  CYS799  TRP800  GLU811  SER814 

> <Gold.Protein.RotatedAtoms>
  152.1145  134.9250  160.0565 H   0  0  0  0  0  0  0  0  0  0  0  0  # atno 6907 bound_to 6896
  152.0415  133.3974  159.4347 H   0  0  0  0  0  0  0  0  0  0  0  0  # atno 6908 bound_to 6896
  150.6845  134.3330  159.4879 H   0  0  0  0  0  0  0  0  0  0  0  0  # atno 6909 bound_to 6896
  145.9734  140.7360  142.9399 H   0  0  0  0  0  0  0  0  0  0  0  0  # atno 7974 bound_to 7965
  154.4098  140.1232  156.4932 H   0  0  0  0  0  0  0  0  0  0  0  0  # atno 8008 bound_to 7997
  155.6969  140.3495  155.4897 H   0  0  0  0  0  0  0  0  0  0  0  0  # atno 8009 bound_to 7997
  155.9419  140.1088  157.1038 H   0  0  0  0  0  0  0  0  0  0  0  0  # atno 8010 bound_to 7997
  140.2174  143.3701  152.0999 H   0  0  0  0  0  0  0  0  0  0  0  0  # atno 10167 bound_to 10162
  156.1337  130.4158  150.0224 H   0  0  0  0  0  0  0  0  0  0  0  0  # atno 10718 bound_to 10713
  154.8726  135.3749  154.4660 H   0  0  0  0  0  0  0  0  0  0  0  0  # atno 10763 bound_to 10752
  153.5324  135.7027  153.5682 H   0  0  0  0  0  0  0  0  0  0  0  0  # atno 10764 bound_to 10752
  153.3880  135.3979  155.1868 H   0  0  0  0  0  0  0  0  0  0  0  0  # atno 10765 bound_to 10752
  141.1224  133.6614  156.4981 H   0  0  0  0  0  0  0  0  0  0  0  0  # atno 11005 bound_to 11000
  144.6842  140.2786  143.7295 LP  0  0  0  0  0  0  0  0  0  0  0  0  # atno 17320 bound_to 7965
  145.7874  139.1914  143.2122 LP  0  0  0  0  0  0  0  0  0  0  0  0  # atno 17321 bound_to 7965
  139.5157  144.6966  151.5612 LP  0  0  0  0  0  0  0  0  0  0  0  0  # atno 17342 bound_to 10162
  140.6280  143.9132  150.6581 LP  0  0  0  0  0  0  0  0  0  0  0  0  # atno 17343 bound_to 10162
  156.8129  130.9331  151.3643 LP  0  0  0  0  0  0  0  0  0  0  0  0  # atno 17370 bound_to 10713
  157.6512  130.8886  149.9636 LP  0  0  0  0  0  0  0  0  0  0  0  0  # atno 17371 bound_to 10713
  140.4468  134.6965  157.5019 LP  0  0  0  0  0  0  0  0  0  0  0  0  # atno 17394 bound_to 11000
  140.0192  134.6573  155.9264 LP  0  0  0  0  0  0  0  0  0  0  0  0  # atno 17395 bound_to 11000

$$$$
