AV-unprocessed.smi:3115|AV-procd|sdf|11858|dock2
  -GOLD-   2272017243D 1   1.00000     0.00000
 Structure written by MMmdl.
 33 34  0  0  0  0  0  0  0  0  2 V2000
  151.8955  145.3772  159.3169 C   0  0  0  0  0  0  0  0  0  0  0  0
  152.4019  143.9389  159.1670 C   0  0  2  0  0  0  0  0  0  0  0  0
  151.6557  143.1731  158.0570 C   0  0  0  0  0  0  0  0  0  0  0  0
  152.1091  141.7883  158.0113 N   0  0  0  0  0  0  0  0  0  0  0  0
  151.5620  141.0541  156.9494 C   0  0  0  0  0  0  0  0  0  0  0  0
  150.2670  141.3762  156.4908 C   0  0  0  0  0  0  0  0  0  0  0  0
  149.7234  140.6383  155.4193 C   0  0  0  0  0  0  0  0  0  0  0  0
  148.3352  140.9431  154.8958 C   0  0  0  0  0  0  0  0  0  0  0  0
  148.2754  142.3064  154.3450 N   0  3  0  0  0  0  0  0  0  0  0  0
  150.4941  139.6046  154.8502 C   0  0  0  0  0  0  0  0  0  0  0  0
  151.7767  139.3576  155.3774 C   0  0  0  0  0  0  0  0  0  0  0  0
  152.3030  140.0606  156.4026 N   0  0  0  0  0  0  0  0  0  0  0  0
  151.9849  141.1211  159.3014 C   0  0  0  0  0  0  0  0  0  0  0  0
  152.7154  141.9317  160.3853 C   0  0  0  0  0  0  0  0  0  0  0  0
  152.2091  143.2637  160.4080 O   0  0  0  0  0  0  0  0  0  0  0  0
  152.0326  145.9398  158.3932 H   0  0  0  0  0  0  0  0  0  0  0  0
  152.4349  145.8997  160.1072 H   0  0  0  0  0  0  0  0  0  0  0  0
  150.8346  145.3979  159.5676 H   0  0  0  0  0  0  0  0  0  0  0  0
  153.4691  143.9686  158.9393 H   0  0  0  0  0  0  0  0  0  0  0  0
  150.5808  143.2028  158.2426 H   0  0  0  0  0  0  0  0  0  0  0  0
  151.8301  143.6474  157.0904 H   0  0  0  0  0  0  0  0  0  0  0  0
  149.7052  142.1757  156.9523 H   0  0  0  0  0  0  0  0  0  0  0  0
  148.0617  140.2269  154.1203 H   0  0  0  0  0  0  0  0  0  0  0  0
  147.6042  140.8452  155.6992 H   0  0  0  0  0  0  0  0  0  0  0  0
  148.8354  142.3580  153.5061 H   0  0  0  0  0  0  0  0  0  0  0  0
  148.6294  142.9598  155.0290 H   0  0  0  0  0  0  0  0  0  0  0  0
  150.1169  139.0133  154.0287 H   0  0  0  0  0  0  0  0  0  0  0  0
  152.3959  138.5747  154.9651 H   0  0  0  0  0  0  0  0  0  0  0  0
  150.9312  141.0183  159.5651 H   0  0  0  0  0  0  0  0  0  0  0  0
  152.4027  140.1155  159.2399 H   0  0  0  0  0  0  0  0  0  0  0  0
  152.5610  141.4760  161.3633 H   0  0  0  0  0  0  0  0  0  0  0  0
  153.7916  141.9434  160.2049 H   0  0  0  0  0  0  0  0  0  0  0  0
  147.3167  142.5369  154.1261 H   0  0  0  0  0  0  0  0  0  0  0  0
  1  2  1  0  0  0  0
  1 16  1  0  0  0  0
  1 17  1  0  0  0  0
  1 18  1  0  0  0  0
  2 15  1  0  0  0  0
  2  3  1  0  0  0  0
  2 19  1  0  0  0  0
  3  4  1  0  0  0  0
  3 20  1  0  0  0  0
  3 21  1  0  0  0  0
  4  5  1  0  0  0  0
  4 13  1  0  0  0  0
  5 12  1  0  0  0  0
  5  6  2  0  0  0  0
  6  7  1  0  0  0  0
  6 22  1  0  0  0  0
  7  8  1  0  0  0  0
  7 10  2  0  0  0  0
  8  9  1  0  0  0  0
  8 23  1  0  0  0  0
  8 24  1  0  0  0  0
  9 25  1  0  0  0  0
  9 26  1  0  0  0  0
  9 33  1  0  0  0  0
 10 11  1  0  0  0  0
 10 27  1  0  0  0  0
 11 12  2  0  0  0  0
 11 28  1  0  0  0  0
 13 14  1  0  0  0  0
 13 29  1  0  0  0  0
 13 30  1  0  0  0  0
 14 15  1  0  0  0  0
 14 31  1  0  0  0  0
 14 32  1  0  0  0  0
M  CHG  1   9   1
M  END
> <s_m_source_file>
AV-unprocessed.smi

> <i_m_source_file_index>
3115

> <i_lp_mmshare_version>
43012

> <i_f3d_flags>
0

> <s_epik_input>
W0NIM11bQ0BASF0xW0NIMl1OKFtDSDJdW0NIMl1PMSljMltjSF1jKFtDSDJdW05IMl0pW2NIXVtjSF1uMg==

> <s_epik_cmdline>
J2VwaWtfcHl0aG9uJywgJy1waCcsICc3LjAnLCAnLXRuJywgJzgnLCAnLW1hJywgJzIwMCcsICctbWV0YWxfYmluZGluZycsICctaW1hZScsICc8aW5maWxlLm1hZT4nLCAnLW9tYWUnLCAnPG91dGZpbGUubWFlPic=

> <r_lp_tautomer_probability>
1

> <r_epik_Ionization_Penalty>
0.0768907

> <r_epik_Ionization_Penalty_Charging>
0.0768864

> <r_epik_Ionization_Penalty_Neutral>
4.339e-06

> <r_epik_State_Penalty>
0.0093217

> <r_epik_Charging_Adjusted_Penalty>
0.0862081

> <i_epik_Tot_Q>
1

> <i_epik_Tot_abs_Q>
1

> <r_epik_Metal_State_Penalty>
0.0096683

> <b_epik_Metal_Only>
0

> <s_lp_Force_Field>
OPLS_2005

> <r_lp_Energy>
14.5686

> <b_lp_Chiralities_Consistent>
1

> <s_lp_Variant>
AV-unprocessed.smi:3115-1

> <Gold.Version>
5.8.1

> <Gold.Id.Protein>
6NUR|6NUR_protein|mol2

> <Gold.PLP.Fitness>
41.1606

> <Gold.PLP.PLP>
-33.4324

> <Gold.PLP.part.hbond>
-2.0000

> <Gold.PLP.part.metal>
0.0000

> <Gold.PLP.part.buried>
-2.9196

> <Gold.PLP.part.nonpolar>
-28.9732

> <Gold.PLP.part.repulsive>
1.1635

> <Gold.PLP.ligand.clash>
0.0000

> <Gold.PLP.ligand.torsion>
0.6852

> <Gold.PLP.Chemscore.Hbond>
3.0000

> <Gold.PLP.Chemscore.CHOScore>
0.0000

> <Gold.PLP.Chemscore.Metal>
0.0000

> <Gold.Chemscore.Hbonds>
donor molecule, donor type, donor heavy atom, donor atom, acceptor molecule, acceptor atom, score
      L1  H     9    26       P1  8028  1.98
      P1  H  7997  8008       L1    12  0.99

> <Gold.PLP.Chemscore.Internal.Correction>
0.0986

> <Gold.Rescore>
     Score         DG    S(hbond)    S(metal)    S(lipo)     H(rot)  DE(clash)    DE(int)     intcor
     17.67     -18.44       1.80        0.00      88.07       1.30       0.06       0.72       ----

> <Gold.Chemscore.Fitness>
17.6679

> <Gold.Chemscore.DG>
-18.4448

> <Gold.Chemscore.ZeroCoef>
-5.4800

> <Gold.Chemscore.Hbond>
1.7963

> <Gold.Chemscore.Metal>
0.0000

> <Gold.Chemscore.Lipo>
88.0743

> <Gold.Chemscore.Internal_Hbond>
0.0000

> <Gold.Chemscore.DEClash>
0.0602

> <Gold.Chemscore.DEInternal>
0.7167

> <Gold.Chemscore.Rot>
1.3045

> <Gold.Chemscore.Internal.Correction>
   9.000000E+99

> <Gold.Chemscore.Hbonds>
donor molecule, donor type, donor heavy atom, donor atom, acceptor molecule, acceptor atom, score
      L1  H     9    26       P1  8028  0.94
      P1  H  7997  8008       L1    12  0.82

> <Gold.Chemscore.Hbond.Weighted>
-5.9996

> <Gold.Chemscore.Metal.Weighted>
-0.0000

> <Gold.Chemscore.Lipo.Weighted>
-10.3047

> <Gold.Chemscore.Internal_Hbond.Weighted>
0.0000

> <Gold.Chemscore.DEClash.Weighted>
0.0602

> <Gold.Chemscore.DEInternal.Weighted>
0.7167

> <Gold.Chemscore.Rot.Weighted>
3.3395

> <Gold.Chemscore.Internal.Correction.Weighted>
   9.000000E+99

> <Gold.Protein.RotatedTorsions>
[ 6907 6896 6895 6894 ] final  -38.25 input  -60.11 | X-H torsion
[ 7974 7965 7964 7962 ] final  -23.29 input  175.53 | X-H torsion
[ 8008 7997 7996 7995 ] final  -49.50 input   59.86 | X-H torsion
[ 10167 10162 10161 10158 ] final   78.21 input  -65.29 | X-H torsion
[ 10718 10713 10712 10709 ] final  174.45 input   66.30 | X-H torsion
[ 10763 10752 10751 10750 ] final -177.58 input  -60.55 | X-H torsion
[ 11005 11000 10999 10996 ] final  -88.62 input  -57.11 | X-H torsion

> <Gold.Protein.ActiveResidues>
 VAL166  LYS551  ARG553  GLY616  TRP617  ASP618  TYR619  PRO620  LYS621  CYS622 
 ASP623  PHE694  ASN695  SER759  ASP760  ASP761  ALA762  ILE779  LEU786  VAL792 
 PHE793  MET794  SER795  GLU796  ALA797  LYS798  CYS799  TRP800  GLU811  SER814 

> <Gold.Protein.RotatedAtoms>
  151.0047  134.9350  159.7973 H   0  0  0  0  0  0  0  0  0  0  0  0  # atno 6907 bound_to 6896
  152.5287  134.3107  159.9122 H   0  0  0  0  0  0  0  0  0  0  0  0  # atno 6908 bound_to 6896
  151.3113  133.4038  159.2681 H   0  0  0  0  0  0  0  0  0  0  0  0  # atno 6909 bound_to 6896
  146.1625  140.4595  142.8565 H   0  0  0  0  0  0  0  0  0  0  0  0  # atno 7974 bound_to 7965
  154.4045  140.1295  156.4513 H   0  0  0  0  0  0  0  0  0  0  0  0  # atno 8008 bound_to 7997
  155.7363  140.3490  155.5063 H   0  0  0  0  0  0  0  0  0  0  0  0  # atno 8009 bound_to 7997
  155.9080  140.1031  157.1290 H   0  0  0  0  0  0  0  0  0  0  0  0  # atno 8010 bound_to 7997
  139.9733  144.5879  150.7966 H   0  0  0  0  0  0  0  0  0  0  0  0  # atno 10167 bound_to 10162
  156.9494  131.0026  151.2952 H   0  0  0  0  0  0  0  0  0  0  0  0  # atno 10718 bound_to 10713
  154.5584  135.2818  155.0943 H   0  0  0  0  0  0  0  0  0  0  0  0  # atno 10763 bound_to 10752
  154.2361  135.6365  153.5195 H   0  0  0  0  0  0  0  0  0  0  0  0  # atno 10764 bound_to 10752
  153.0022  135.5549  154.6170 H   0  0  0  0  0  0  0  0  0  0  0  0  # atno 10765 bound_to 10752
  141.1598  133.7581  156.9478 H   0  0  0  0  0  0  0  0  0  0  0  0  # atno 11005 bound_to 11000
  144.8047  140.6277  143.6455 LP  0  0  0  0  0  0  0  0  0  0  0  0  # atno 17320 bound_to 7965
  145.4552  139.1519  143.3897 LP  0  0  0  0  0  0  0  0  0  0  0  0  # atno 17321 bound_to 7965
  140.7514  143.2973  151.3172 LP  0  0  0  0  0  0  0  0  0  0  0  0  # atno 17342 bound_to 10162
  139.6465  144.0442  152.2594 LP  0  0  0  0  0  0  0  0  0  0  0  0  # atno 17343 bound_to 10162
  157.5732  130.8325  149.8420 LP  0  0  0  0  0  0  0  0  0  0  0  0  # atno 17370 bound_to 10713
  156.0369  130.3749  150.1536 LP  0  0  0  0  0  0  0  0  0  0  0  0  # atno 17371 bound_to 10713
  140.1278  134.9376  157.2294 LP  0  0  0  0  0  0  0  0  0  0  0  0  # atno 17394 bound_to 11000
  140.2991  134.3152  155.7294 LP  0  0  0  0  0  0  0  0  0  0  0  0  # atno 17395 bound_to 11000

$$$$
