AV-unprocessed.smi:243|AV-procd|sdf|1852|dock1
  -GOLD-   2262020473D 1   1.00000     0.00000
 Structure written by MMmdl.
 58 61  0  0  0  0  0  0  0  0  2 V2000
  152.1697  142.5494  160.3287 C   0  0  0  0  0  0  0  0  0  0  0  0
  152.8338  141.8122  159.1525 C   0  0  0  0  0  0  0  0  0  0  0  0
  151.9091  141.4776  158.0389 N   0  3  2  0  0  0  0  0  0  0  0  0
  150.8567  142.4961  157.7973 C   0  0  0  0  0  0  0  0  0  0  0  0
  150.1352  142.2148  156.4718 C   0  0  0  0  0  0  0  0  0  0  0  0
  149.5499  140.7828  156.4649 C   0  0  1  0  0  0  0  0  0  0  0  0
  148.6920  140.4550  155.3144 N   0  0  0  0  0  0  0  0  0  0  0  0
  148.5671  141.4105  154.2194 C   0  0  0  0  0  0  0  0  0  0  0  0
  147.8378  139.3980  155.2824 C   0  0  0  0  0  0  0  0  0  0  0  0
  147.6341  138.6584  156.4027 N   0  0  0  0  0  0  0  0  0  0  0  0
  146.7879  137.6249  156.3905 C   0  0  0  0  0  0  0  0  0  0  0  0
  146.0521  137.1627  155.3791 N   0  0  0  0  0  0  0  0  0  0  0  0
  146.2489  137.8991  154.2487 C   0  0  0  0  0  0  0  0  0  0  0  0
  147.1095  139.0260  154.1159 C   0  0  0  0  0  0  0  0  0  0  0  0
  147.0478  139.5135  152.8156 N   0  0  0  0  0  0  0  0  0  0  0  0
  146.1986  138.7243  152.2169 C   0  0  0  0  0  0  0  0  0  0  0  0
  145.6790  137.7193  153.0005 N   0  0  0  0  0  0  0  0  0  0  0  0
  144.7306  136.6954  152.5903 C   0  0  0  0  0  0  0  0  0  0  0  0
  145.3782  135.5502  151.7765 C   0  0  2  0  0  0  0  0  0  0  0  0
  146.1790  136.1074  150.7490 O   0  0  0  0  0  0  0  0  0  0  0  0
  144.3751  134.5911  151.1399 C   0  0  0  0  0  0  0  0  0  0  0  0
  145.1127  133.2598  151.1662 C   0  0  0  0  0  0  0  0  0  0  0  0
  145.7678  133.2984  152.4219 O   0  0  0  0  0  0  0  0  0  0  0  0
  146.2603  134.6178  152.6311 C   0  0  0  0  0  0  0  0  0  0  0  0
  150.6368  139.7205  156.7891 C   0  0  1  0  0  0  0  0  0  0  0  0
  151.6482  139.4531  155.6600 C   0  0  0  0  0  0  0  0  0  0  0  0
  151.3562  140.0998  158.1015 C   0  0  0  0  0  0  0  0  0  0  0  0
  152.9052  142.7632  161.1043 H   0  0  0  0  0  0  0  0  0  0  0  0
  151.3812  141.9545  160.7891 H   0  0  0  0  0  0  0  0  0  0  0  0
  151.7410  143.5032  160.0217 H   0  0  0  0  0  0  0  0  0  0  0  0
  153.6495  142.4191  158.7579 H   0  0  0  0  0  0  0  0  0  0  0  0
  153.2930  140.8914  159.5139 H   0  0  0  0  0  0  0  0  0  0  0  0
  150.1383  142.4967  158.6178 H   0  0  0  0  0  0  0  0  0  0  0  0
  151.3056  143.4895  157.7637 H   0  0  0  0  0  0  0  0  0  0  0  0
  149.3394  142.9462  156.3260 H   0  0  0  0  0  0  0  0  0  0  0  0
  150.8473  142.3635  155.6619 H   0  0  0  0  0  0  0  0  0  0  0  0
  148.8570  140.7595  157.3077 H   0  0  0  0  0  0  0  0  0  0  0  0
  147.5203  141.5715  153.9595 H   0  0  0  0  0  0  0  0  0  0  0  0
  149.0913  141.0502  153.3347 H   0  0  0  0  0  0  0  0  0  0  0  0
  148.9978  142.3762  154.4819 H   0  0  0  0  0  0  0  0  0  0  0  0
  146.6858  137.0917  157.3241 H   0  0  0  0  0  0  0  0  0  0  0  0
  145.9337  138.8497  151.1770 H   0  0  0  0  0  0  0  0  0  0  0  0
  144.2418  136.2983  153.4813 H   0  0  0  0  0  0  0  0  0  0  0  0
  143.9481  137.1766  152.0021 H   0  0  0  0  0  0  0  0  0  0  0  0
  147.0543  136.2297  151.0832 H   0  0  0  0  0  0  0  0  0  0  0  0
  143.4847  134.5069  151.7641 H   0  0  0  0  0  0  0  0  0  0  0  0
  144.0532  134.8866  150.1403 H   0  0  0  0  0  0  0  0  0  0  0  0
  144.4435  132.4032  151.0859 H   0  0  0  0  0  0  0  0  0  0  0  0
  145.8508  133.2017  150.3646 H   0  0  0  0  0  0  0  0  0  0  0  0
  147.3108  134.6637  152.3384 H   0  0  0  0  0  0  0  0  0  0  0  0
  146.2087  134.8544  153.6943 H   0  0  0  0  0  0  0  0  0  0  0  0
  150.1353  138.7710  156.9769 H   0  0  0  0  0  0  0  0  0  0  0  0
  152.1751  140.3589  155.3604 H   0  0  0  0  0  0  0  0  0  0  0  0
  151.1552  139.0399  154.7804 H   0  0  0  0  0  0  0  0  0  0  0  0
  152.3978  138.7252  155.9713 H   0  0  0  0  0  0  0  0  0  0  0  0
  152.1562  139.3872  158.3072 H   0  0  0  0  0  0  0  0  0  0  0  0
  150.6542  140.0279  158.9331 H   0  0  0  0  0  0  0  0  0  0  0  0
  152.4874  141.4929  157.2107 H   0  0  0  0  0  0  0  0  0  0  0  0
  1  2  1  0  0  0  0
  1 28  1  0  0  0  0
  1 29  1  0  0  0  0
  1 30  1  0  0  0  0
  2  3  1  0  0  0  0
  2 31  1  0  0  0  0
  2 32  1  0  0  0  0
  3 27  1  0  0  0  0
  3  4  1  0  0  0  0
  3 58  1  0  0  0  0
  4  5  1  0  0  0  0
  4 33  1  0  0  0  0
  4 34  1  0  0  0  0
  5  6  1  0  0  0  0
  5 35  1  0  0  0  0
  5 36  1  0  0  0  0
  6  7  1  0  0  0  0
  6 25  1  0  0  0  0
  6 37  1  0  0  0  0
  7  8  1  0  0  0  0
  7  9  1  0  0  0  0
  8 38  1  0  0  0  0
  8 39  1  0  0  0  0
  8 40  1  0  0  0  0
  9 14  1  0  0  0  0
  9 10  2  0  0  0  0
 10 11  1  0  0  0  0
 11 12  2  0  0  0  0
 11 41  1  0  0  0  0
 12 13  1  0  0  0  0
 13 17  1  0  0  0  0
 13 14  2  0  0  0  0
 14 15  1  0  0  0  0
 15 16  2  0  0  0  0
 16 17  1  0  0  0  0
 16 42  1  0  0  0  0
 17 18  1  0  0  0  0
 18 19  1  0  0  0  0
 18 43  1  0  0  0  0
 18 44  1  0  0  0  0
 19 24  1  0  0  0  0
 19 20  1  0  0  0  0
 19 21  1  0  0  0  0
 20 45  1  0  0  0  0
 21 22  1  0  0  0  0
 21 46  1  0  0  0  0
 21 47  1  0  0  0  0
 22 23  1  0  0  0  0
 22 48  1  0  0  0  0
 22 49  1  0  0  0  0
 23 24  1  0  0  0  0
 24 50  1  0  0  0  0
 24 51  1  0  0  0  0
 25 26  1  0  0  0  0
 25 27  1  0  0  0  0
 25 52  1  0  0  0  0
 26 53  1  0  0  0  0
 26 54  1  0  0  0  0
 26 55  1  0  0  0  0
 27 56  1  0  0  0  0
 27 57  1  0  0  0  0
M  CHG  1   3   1
M  END
> <s_m_source_file>
AV-unprocessed.smi

> <i_m_source_file_index>
243

> <i_lp_mmshare_version>
43012

> <i_f3d_flags>
0

> <s_epik_input>
W0NIM11bQ0gyXU4xW0NIMl1bQ0gyXVtDQEhdKFtDQEBIXShbQ0gzXSlbQ0gyXTEpTihbQ0gzXSljKG5bY0hdbjIpYyhjMjMpbltjSF1uM1tDSDJdW0NAQF00KFtPSF0pW0NIMl1bQ0gyXU9bQ0gyXTQ=

> <s_epik_cmdline>
J2VwaWtfcHl0aG9uJywgJy1waCcsICc3LjAnLCAnLXRuJywgJzgnLCAnLW1hJywgJzIwMCcsICctbWV0YWxfYmluZGluZycsICctaW1hZScsICc8aW5maWxlLm1hZT4nLCAnLW9tYWUnLCAnPG91dGZpbGUubWFlPic=

> <r_lp_tautomer_probability>
1

> <r_epik_Ionization_Penalty>
0.00253099

> <r_epik_Ionization_Penalty_Charging>
0.00137877

> <r_epik_Ionization_Penalty_Neutral>
0.00115221

> <r_epik_State_Penalty>
-0

> <r_epik_Charging_Adjusted_Penalty>
0.00137877

> <i_epik_Tot_Q>
1

> <i_epik_Tot_abs_Q>
1

> <r_epik_Metal_State_Penalty>
-0

> <b_epik_Metal_Only>
0

> <s_lp_Force_Field>
OPLS_2005

> <r_lp_Energy>
49.3868

> <b_lp_Chiralities_Consistent>
1

> <s_lp_Variant>
AV-unprocessed.smi:243-5

> <Gold.Version>
5.8.1

> <Gold.Id.Protein>
6NUR|6NUR_protein|mol2

> <Gold.PLP.Fitness>
40.3255

> <Gold.PLP.PLP>
-35.6063

> <Gold.PLP.part.hbond>
-1.3039

> <Gold.PLP.part.metal>
0.0000

> <Gold.PLP.part.buried>
-2.1993

> <Gold.PLP.part.nonpolar>
-33.8554

> <Gold.PLP.part.repulsive>
2.0458

> <Gold.PLP.ligand.clash>
0.0000

> <Gold.PLP.ligand.torsion>
0.9367

> <Gold.PLP.Chemscore.Hbond>
1.0000

> <Gold.PLP.Chemscore.CHOScore>
0.9961

> <Gold.PLP.Chemscore.Metal>
0.0000

> <Gold.Chemscore.Hbonds>
donor molecule, donor type, donor heavy atom, donor atom, acceptor molecule, acceptor atom, score
      L1  H    20    45       P1  7948  1.00
      L1  C    16    42       P1 10171  1.00

> <Gold.PLP.Chemscore.Internal.Correction>
0.6040

> <Gold.Rescore>
     Score         DG    S(hbond)    S(metal)    S(lipo)     H(rot)  DE(clash)    DE(int)     intcor
     10.54     -13.26       1.00        0.00      86.92       2.24       0.33       2.38       ----

> <Gold.Chemscore.Fitness>
10.5432

> <Gold.Chemscore.DG>
-13.2597

> <Gold.Chemscore.ZeroCoef>
-5.4800

> <Gold.Chemscore.Hbond>
0.9999

> <Gold.Chemscore.Metal>
0.0000

> <Gold.Chemscore.Lipo>
86.9162

> <Gold.Chemscore.Internal_Hbond>
0.0000

> <Gold.Chemscore.DEClash>
0.3350

> <Gold.Chemscore.DEInternal>
2.3815

> <Gold.Chemscore.Rot>
2.2379

> <Gold.Chemscore.Internal.Correction>
   9.000000E+99

> <Gold.Chemscore.Hbonds>
donor molecule, donor type, donor heavy atom, donor atom, acceptor molecule, acceptor atom, score
      L1  H    20    45       P1  7948  0.95

> <Gold.Chemscore.Hbond.Weighted>
-3.3396

> <Gold.Chemscore.Metal.Weighted>
-0.0000

> <Gold.Chemscore.Lipo.Weighted>
-10.1692

> <Gold.Chemscore.Internal_Hbond.Weighted>
0.0000

> <Gold.Chemscore.DEClash.Weighted>
0.3350

> <Gold.Chemscore.DEInternal.Weighted>
2.3815

> <Gold.Chemscore.Rot.Weighted>
5.7291

> <Gold.Chemscore.Internal.Correction.Weighted>
   9.000000E+99

> <Gold.Protein.RotatedTorsions>
[ 6907 6896 6895 6894 ] final  140.11 input  -60.11 | X-H torsion
[ 7974 7965 7964 7962 ] final  -50.36 input  175.53 | X-H torsion
[ 8008 7997 7996 7995 ] final  -71.92 input   59.86 | X-H torsion
[ 10167 10162 10161 10158 ] final -115.25 input  -65.29 | X-H torsion
[ 10718 10713 10712 10709 ] final   30.18 input   66.30 | X-H torsion
[ 10763 10752 10751 10750 ] final -101.36 input  -60.55 | X-H torsion
[ 11005 11000 10999 10996 ] final  149.19 input  -57.11 | X-H torsion

> <Gold.Protein.ActiveResidues>
 VAL166  LYS551  ARG553  GLY616  TRP617  ASP618  TYR619  PRO620  LYS621  CYS622 
 ASP623  PHE694  ASN695  SER759  ASP760  ASP761  ALA762  ILE779  LEU786  VAL792 
 PHE793  MET794  SER795  GLU796  ALA797  LYS798  CYS799  TRP800  GLU811  SER814 

> <Gold.Protein.RotatedAtoms>
  152.2469  133.5182  159.5302 H   0  0  0  0  0  0  0  0  0  0  0  0  # atno 6907 bound_to 6896
  150.7081  134.1013  159.3975 H   0  0  0  0  0  0  0  0  0  0  0  0  # atno 6908 bound_to 6896
  151.8933  135.0408  160.0550 H   0  0  0  0  0  0  0  0  0  0  0  0  # atno 6909 bound_to 6896
  145.9307  140.7752  142.9601 H   0  0  0  0  0  0  0  0  0  0  0  0  # atno 7974 bound_to 7965
  154.5125  140.0807  156.8017 H   0  0  0  0  0  0  0  0  0  0  0  0  # atno 8008 bound_to 7997
  155.3753  140.3425  155.4226 H   0  0  0  0  0  0  0  0  0  0  0  0  # atno 8009 bound_to 7997
  156.1590  140.1582  156.8632 H   0  0  0  0  0  0  0  0  0  0  0  0  # atno 8010 bound_to 7997
  140.0922  143.4690  152.1863 H   0  0  0  0  0  0  0  0  0  0  0  0  # atno 10167 bound_to 10162
  157.2562  130.7139  149.6430 H   0  0  0  0  0  0  0  0  0  0  0  0  # atno 10718 bound_to 10713
  154.7652  135.4901  153.9540 H   0  0  0  0  0  0  0  0  0  0  0  0  # atno 10763 bound_to 10752
  153.1298  135.6750  153.9204 H   0  0  0  0  0  0  0  0  0  0  0  0  # atno 10764 bound_to 10752
  153.8910  135.3121  155.3426 H   0  0  0  0  0  0  0  0  0  0  0  0  # atno 10765 bound_to 10752
  140.1023  134.8975  157.1814 H   0  0  0  0  0  0  0  0  0  0  0  0  # atno 11005 bound_to 11000
  144.6764  140.2123  143.7375 LP  0  0  0  0  0  0  0  0  0  0  0  0  # atno 17320 bound_to 7965
  145.8429  139.2138  143.1817 LP  0  0  0  0  0  0  0  0  0  0  0  0  # atno 17321 bound_to 7965
  139.5718  144.7467  151.3869 LP  0  0  0  0  0  0  0  0  0  0  0  0  # atno 17342 bound_to 10162
  140.7023  143.7602  150.7423 LP  0  0  0  0  0  0  0  0  0  0  0  0  # atno 17343 bound_to 10162
  155.9665  130.4412  150.5330 LP  0  0  0  0  0  0  0  0  0  0  0  0  # atno 17370 bound_to 10713
  157.3224  131.0684  151.1921 LP  0  0  0  0  0  0  0  0  0  0  0  0  # atno 17371 bound_to 10713
  140.3203  134.2924  155.7248 LP  0  0  0  0  0  0  0  0  0  0  0  0  # atno 17394 bound_to 11000
  141.2109  133.7705  156.9901 LP  0  0  0  0  0  0  0  0  0  0  0  0  # atno 17395 bound_to 11000

$$$$
