AV-unprocessed.smi:1125|AV-procd|sdf|4835|dock8
  -GOLD-   22720 3403D 1   1.00000     0.00000
 Structure written by MMmdl.
 46 47  0  0  0  0  0  0  0  0  2 V2000
  145.4087  136.4249  152.0880 C   0  0  0  0  0  0  0  0  0  0  0  0
  146.4620  135.8481  152.9504 N   0  3  2  0  0  0  0  0  0  0  0  0
  146.4371  134.3640  152.9528 C   0  0  0  0  0  0  0  0  0  0  0  0
  147.6173  133.7899  153.7573 C   0  0  0  0  0  0  0  0  0  0  0  0
  147.6566  134.3448  155.1943 C   0  0  2  0  0  0  0  0  0  0  0  0
  146.5464  133.8350  155.9940 N   0  0  0  0  0  0  0  0  0  0  0  0
  146.6442  133.2050  157.1754 C   0  0  0  0  0  0  0  0  0  0  0  0
  147.7180  132.9439  157.7166 O   0  0  0  0  0  0  0  0  0  0  0  0
  145.3264  132.7957  157.8415 C   0  0  0  0  0  0  0  0  0  0  0  0
  145.4700  132.7719  159.3377 C   0  0  0  0  0  0  0  0  0  0  0  0
  145.2859  131.6945  160.1667 C   0  0  0  0  0  0  0  0  0  0  0  0
  145.5854  132.1003  161.8335 S   0  0  0  0  0  0  0  0  0  0  0  0
  145.9552  133.7577  161.3440 C   0  0  0  0  0  0  0  0  0  0  0  0
  146.3893  134.8626  162.2763 C   0  0  0  0  0  0  0  0  0  0  0  0
  146.7771  136.1089  161.4567 C   0  0  0  0  0  0  0  0  0  0  0  0
  147.6209  134.4437  163.1078 C   0  0  0  0  0  0  0  0  0  0  0  0
  145.2526  135.1941  163.2625 C   0  0  0  0  0  0  0  0  0  0  0  0
  145.8330  133.9358  160.0242 N   0  0  0  0  0  0  0  0  0  0  0  0
  147.6181  135.8830  155.1604 C   0  0  0  0  0  0  0  0  0  0  0  0
  146.4375  136.4103  154.3238 C   0  0  0  0  0  0  0  0  0  0  0  0
  144.4153  136.1723  152.4611 H   0  0  0  0  0  0  0  0  0  0  0  0
  145.4976  136.0481  151.0685 H   0  0  0  0  0  0  0  0  0  0  0  0
  145.4940  137.5114  152.0491 H   0  0  0  0  0  0  0  0  0  0  0  0
  145.4901  134.0141  153.3667 H   0  0  0  0  0  0  0  0  0  0  0  0
  146.4867  133.9971  151.9268 H   0  0  0  0  0  0  0  0  0  0  0  0
  147.5683  132.7004  153.7688 H   0  0  0  0  0  0  0  0  0  0  0  0
  148.5495  134.0436  153.2512 H   0  0  0  0  0  0  0  0  0  0  0  0
  148.5906  134.0381  155.6689 H   0  0  0  0  0  0  0  0  0  0  0  0
  145.6161  134.0067  155.6398 H   0  0  0  0  0  0  0  0  0  0  0  0
  144.5458  133.4947  157.5386 H   0  0  0  0  0  0  0  0  0  0  0  0
  145.0228  131.8160  157.4706 H   0  0  0  0  0  0  0  0  0  0  0  0
  145.0028  130.6875  159.8980 H   0  0  0  0  0  0  0  0  0  0  0  0
  147.1120  136.9217  162.1022 H   0  0  0  0  0  0  0  0  0  0  0  0
  145.9340  136.4829  160.8747 H   0  0  0  0  0  0  0  0  0  0  0  0
  147.5850  135.8882  160.7579 H   0  0  0  0  0  0  0  0  0  0  0  0
  148.4767  134.2110  162.4730 H   0  0  0  0  0  0  0  0  0  0  0  0
  147.4124  133.5659  163.7209 H   0  0  0  0  0  0  0  0  0  0  0  0
  147.9315  135.2410  163.7841 H   0  0  0  0  0  0  0  0  0  0  0  0
  145.5468  135.9792  163.9597 H   0  0  0  0  0  0  0  0  0  0  0  0
  144.9700  134.3198  163.8501 H   0  0  0  0  0  0  0  0  0  0  0  0
  144.3597  135.5420  162.7417 H   0  0  0  0  0  0  0  0  0  0  0  0
  147.5657  136.2829  156.1741 H   0  0  0  0  0  0  0  0  0  0  0  0
  148.5511  136.2558  154.7357 H   0  0  0  0  0  0  0  0  0  0  0  0
  146.4877  137.4987  154.2734 H   0  0  0  0  0  0  0  0  0  0  0  0
  145.4898  136.1616  154.8042 H   0  0  0  0  0  0  0  0  0  0  0  0
  147.3455  136.1206  152.5435 H   0  0  0  0  0  0  0  0  0  0  0  0
  1  2  1  0  0  0  0
  1 21  1  0  0  0  0
  1 22  1  0  0  0  0
  1 23  1  0  0  0  0
  2 20  1  0  0  0  0
  2  3  1  0  0  0  0
  2 46  1  0  0  0  0
  3  4  1  0  0  0  0
  3 24  1  0  0  0  0
  3 25  1  0  0  0  0
  4  5  1  0  0  0  0
  4 26  1  0  0  0  0
  4 27  1  0  0  0  0
  5  6  1  0  0  0  0
  5 19  1  0  0  0  0
  5 28  1  0  0  0  0
  6  7  1  0  0  0  0
  6 29  1  0  0  0  0
  7  8  2  0  0  0  0
  7  9  1  0  0  0  0
  9 10  1  0  0  0  0
  9 30  1  0  0  0  0
  9 31  1  0  0  0  0
 10 18  1  0  0  0  0
 10 11  2  0  0  0  0
 11 12  1  0  0  0  0
 11 32  1  0  0  0  0
 12 13  1  0  0  0  0
 13 14  1  0  0  0  0
 13 18  2  0  0  0  0
 14 15  1  0  0  0  0
 14 16  1  0  0  0  0
 14 17  1  0  0  0  0
 15 33  1  0  0  0  0
 15 34  1  0  0  0  0
 15 35  1  0  0  0  0
 16 36  1  0  0  0  0
 16 37  1  0  0  0  0
 16 38  1  0  0  0  0
 17 39  1  0  0  0  0
 17 40  1  0  0  0  0
 17 41  1  0  0  0  0
 19 20  1  0  0  0  0
 19 42  1  0  0  0  0
 19 43  1  0  0  0  0
 20 44  1  0  0  0  0
 20 45  1  0  0  0  0
M  CHG  1   2   1
M  END
> <s_m_source_file>
AV-unprocessed.smi

> <i_m_source_file_index>
1125

> <i_lp_mmshare_version>
43012

> <i_f3d_flags>
0

> <s_epik_input>
W0NIM11OMVtDSDJdW0NIMl1bQ0hdKFtDSDJdW0NIMl0xKVtOSF1DKD1PKVtDSDJdYzJbY0hdc2MobjIpQyhbQ0gzXSkoW0NIM10pW0NIM10=

> <s_epik_cmdline>
J2VwaWtfcHl0aG9uJywgJy1waCcsICc3LjAnLCAnLXRuJywgJzgnLCAnLW1hJywgJzIwMCcsICctbWV0YWxfYmluZGluZycsICctaW1hZScsICc8aW5maWxlLm1hZT4nLCAnLW9tYWUnLCAnPG91dGZpbGUubWFlPic=

> <r_epik_Ionization_Penalty>
0.00829478

> <r_epik_Ionization_Penalty_Charging>
0.0082618

> <r_epik_Ionization_Penalty_Neutral>
3.29858e-05

> <r_epik_State_Penalty>
0.00621662

> <r_epik_Charging_Adjusted_Penalty>
0.0144784

> <i_epik_Tot_Q>
1

> <i_epik_Tot_abs_Q>
1

> <r_epik_Metal_State_Penalty>
0.00621672

> <b_epik_Metal_Only>
0

> <s_lp_Force_Field>
OPLS_2005

> <r_lp_Energy>
6.26884

> <b_lp_Chiralities_Consistent>
1

> <s_lp_Variant>
AV-unprocessed.smi:1125-2

> <Gold.Version>
5.8.1

> <Gold.Id.Protein>
6NUR|6NUR_protein|mol2

> <Gold.PLP.Fitness>
39.7433

> <Gold.PLP.PLP>
-31.7316

> <Gold.PLP.part.hbond>
-2.0000

> <Gold.PLP.part.metal>
0.0000

> <Gold.PLP.part.buried>
-3.5170

> <Gold.PLP.part.nonpolar>
-25.6386

> <Gold.PLP.part.repulsive>
0.0067

> <Gold.PLP.ligand.clash>
0.0000

> <Gold.PLP.ligand.torsion>
0.5026

> <Gold.PLP.Chemscore.Hbond>
3.0000

> <Gold.PLP.Chemscore.CHOScore>
0.0000

> <Gold.PLP.Chemscore.Metal>
0.0000

> <Gold.Chemscore.Hbonds>
donor molecule, donor type, donor heavy atom, donor atom, acceptor molecule, acceptor atom, score
      L1  H     2    46       P1  7948  2.00

> <Gold.PLP.Chemscore.Internal.Correction>
0.0170

> <Gold.Rescore>
     Score         DG    S(hbond)    S(metal)    S(lipo)     H(rot)  DE(clash)    DE(int)     intcor
     17.36     -17.98       1.96        0.00      81.56       1.40       0.05       0.56       ----

> <Gold.Chemscore.Fitness>
17.3617

> <Gold.Chemscore.DG>
-17.9771

> <Gold.Chemscore.ZeroCoef>
-5.4800

> <Gold.Chemscore.Hbond>
1.9599

> <Gold.Chemscore.Metal>
0.0000

> <Gold.Chemscore.Lipo>
81.5609

> <Gold.Chemscore.Internal_Hbond>
0.0000

> <Gold.Chemscore.DEClash>
0.0517

> <Gold.Chemscore.DEInternal>
0.5637

> <Gold.Chemscore.Rot>
1.4030

> <Gold.Chemscore.Internal.Correction>
   9.000000E+99

> <Gold.Chemscore.Hbonds>
donor molecule, donor type, donor heavy atom, donor atom, acceptor molecule, acceptor atom, score
      L1  H     2    46       P1  7948  1.00

> <Gold.Chemscore.Hbond.Weighted>
-6.5462

> <Gold.Chemscore.Metal.Weighted>
-0.0000

> <Gold.Chemscore.Lipo.Weighted>
-9.5426

> <Gold.Chemscore.Internal_Hbond.Weighted>
0.0000

> <Gold.Chemscore.DEClash.Weighted>
0.0517

> <Gold.Chemscore.DEInternal.Weighted>
0.5637

> <Gold.Chemscore.Rot.Weighted>
3.5917

> <Gold.Chemscore.Internal.Correction.Weighted>
   9.000000E+99

> <Gold.Protein.RotatedTorsions>
[ 6907 6896 6895 6894 ] final  127.45 input  -60.11 | X-H torsion
[ 7974 7965 7964 7962 ] final   41.66 input  175.53 | X-H torsion
[ 8008 7997 7996 7995 ] final  177.42 input   59.86 | X-H torsion
[ 10167 10162 10161 10158 ] final  -76.61 input  -65.29 | X-H torsion
[ 10718 10713 10712 10709 ] final  -71.86 input   66.30 | X-H torsion
[ 10763 10752 10751 10750 ] final -132.95 input  -60.55 | X-H torsion
[ 11005 11000 10999 10996 ] final   89.56 input  -57.11 | X-H torsion

> <Gold.Protein.ActiveResidues>
 VAL166  LYS551  ARG553  GLY616  TRP617  ASP618  TYR619  PRO620  LYS621  CYS622 
 ASP623  PHE694  ASN695  SER759  ASP760  ASP761  ALA762  ILE779  LEU786  VAL792 
 PHE793  MET794  SER795  GLU796  ALA797  LYS798  CYS799  TRP800  GLU811  SER814 

> <Gold.Protein.RotatedAtoms>
  152.3811  133.6547  159.6161 H   0  0  0  0  0  0  0  0  0  0  0  0  # atno 6907 bound_to 6896
  150.7742  133.9112  159.3379 H   0  0  0  0  0  0  0  0  0  0  0  0  # atno 6908 bound_to 6896
  151.6918  135.0946  160.0286 H   0  0  0  0  0  0  0  0  0  0  0  0  # atno 6909 bound_to 6896
  146.0805  139.5390  142.9540 H   0  0  0  0  0  0  0  0  0  0  0  0  # atno 7974 bound_to 7965
  156.0659  140.1359  156.9886 H   0  0  0  0  0  0  0  0  0  0  0  0  # atno 8008 bound_to 7997
  154.4506  140.0982  156.6657 H   0  0  0  0  0  0  0  0  0  0  0  0  # atno 8009 bound_to 7997
  155.5305  140.3458  155.4427 H   0  0  0  0  0  0  0  0  0  0  0  0  # atno 8010 bound_to 7997
  140.4842  143.2395  151.8011 H   0  0  0  0  0  0  0  0  0  0  0  0  # atno 10167 bound_to 10162
  156.0345  130.4360  150.2506 H   0  0  0  0  0  0  0  0  0  0  0  0  # atno 10718 bound_to 10713
  154.8738  135.3781  154.4493 H   0  0  0  0  0  0  0  0  0  0  0  0  # atno 10763 bound_to 10752
  153.5171  135.7029  153.5756 H   0  0  0  0  0  0  0  0  0  0  0  0  # atno 10764 bound_to 10752
  153.4019  135.3946  155.1959 H   0  0  0  0  0  0  0  0  0  0  0  0  # atno 10765 bound_to 10752
  139.8873  134.8559  156.3159 H   0  0  0  0  0  0  0  0  0  0  0  0  # atno 11005 bound_to 11000
  145.6227  141.0319  143.1906 LP  0  0  0  0  0  0  0  0  0  0  0  0  # atno 17320 bound_to 7965
  144.7290  139.7785  143.7354 LP  0  0  0  0  0  0  0  0  0  0  0  0  # atno 17321 bound_to 7965
  139.4839  144.4734  151.9397 LP  0  0  0  0  0  0  0  0  0  0  0  0  # atno 17342 bound_to 10162
  140.3820  144.2725  150.5908 LP  0  0  0  0  0  0  0  0  0  0  0  0  # atno 17343 bound_to 10162
  157.0607  131.0089  151.3223 LP  0  0  0  0  0  0  0  0  0  0  0  0  # atno 17370 bound_to 10713
  157.5073  130.7916  149.7667 LP  0  0  0  0  0  0  0  0  0  0  0  0  # atno 17371 bound_to 10713
  140.9819  133.7262  156.0684 LP  0  0  0  0  0  0  0  0  0  0  0  0  # atno 17394 bound_to 11000
  140.7738  134.3802  157.5502 LP  0  0  0  0  0  0  0  0  0  0  0  0  # atno 17395 bound_to 11000

$$$$
