AV-unprocessed.smi:2893|AV-procd|sdf|11123|dock8
  -GOLD-   2272015593D 1   1.00000     0.00000
 Structure written by MMmdl.
 37 39  0  0  0  0  0  0  0  0  1 V2000
  140.6759  141.2567  155.7224 C   0  0  0  0  0  0  0  0  0  0  0  0
  140.6820  141.0230  154.2059 C   0  0  0  0  0  0  0  0  0  0  0  0
  141.1993  139.7022  153.8692 N   0  0  0  0  0  0  0  0  0  0  0  0
  140.6377  138.5341  154.2258 C   0  0  0  0  0  0  0  0  0  0  0  0
  139.6121  138.4573  154.9036 O   0  0  0  0  0  0  0  0  0  0  0  0
  141.3661  137.2934  153.7830 C   0  0  0  0  0  0  0  0  0  0  0  0
  142.5099  137.3978  152.9621 C   0  0  0  0  0  0  0  0  0  0  0  0
  143.1607  136.2094  152.5888 C   0  0  0  0  0  0  0  0  0  0  0  0
  142.6312  134.9953  153.0649 C   0  0  0  0  0  0  0  0  0  0  0  0
  143.2612  133.7950  152.7074 N   0  0  0  0  0  0  0  0  0  0  0  0
  143.9321  133.6588  151.4179 C   0  0  1  0  0  0  0  0  0  0  0  0
  145.2485  134.4359  151.3406 C   0  0  0  0  0  0  0  0  0  0  0  0
  146.2329  133.3460  150.8924 C   0  0  1  0  0  0  0  0  0  0  0  0
  146.5755  132.3896  152.0418 C   0  0  0  0  0  0  0  0  0  0  0  0
  145.2798  131.5927  152.1784 C   0  0  0  0  0  0  0  0  0  0  0  0
  144.3986  132.2265  151.0878 C   0  0  2  0  0  0  0  0  0  0  0  0
  145.3856  132.5182  150.1128 O   0  0  0  0  0  0  0  0  0  0  0  0
  141.5296  134.9579  153.8537 N   0  0  0  0  0  0  0  0  0  0  0  0
  140.9104  136.0882  154.2097 N   0  0  0  0  0  0  0  0  0  0  0  0
  140.2553  142.2336  155.9614 H   0  0  0  0  0  0  0  0  0  0  0  0
  141.6850  141.2220  156.1341 H   0  0  0  0  0  0  0  0  0  0  0  0
  140.0779  140.5028  156.2350 H   0  0  0  0  0  0  0  0  0  0  0  0
  139.6657  141.0989  153.8188 H   0  0  0  0  0  0  0  0  0  0  0  0
  141.2641  141.7977  153.7042 H   0  0  0  0  0  0  0  0  0  0  0  0
  142.0477  139.6673  153.3220 H   0  0  0  0  0  0  0  0  0  0  0  0
  142.8816  138.3541  152.6240 H   0  0  0  0  0  0  0  0  0  0  0  0
  144.0390  136.2332  151.9606 H   0  0  0  0  0  0  0  0  0  0  0  0
  143.0195  132.9520  153.2076 H   0  0  0  0  0  0  0  0  0  0  0  0
  143.2723  134.0187  150.6271 H   0  0  0  0  0  0  0  0  0  0  0  0
  145.1760  135.2268  150.5934 H   0  0  0  0  0  0  0  0  0  0  0  0
  145.5479  134.8918  152.2857 H   0  0  0  0  0  0  0  0  0  0  0  0
  147.1044  133.7276  150.3599 H   0  0  0  0  0  0  0  0  0  0  0  0
  147.4017  131.7321  151.7688 H   0  0  0  0  0  0  0  0  0  0  0  0
  146.8468  132.9185  152.9561 H   0  0  0  0  0  0  0  0  0  0  0  0
  145.4596  130.5394  151.9607 H   0  0  0  0  0  0  0  0  0  0  0  0
  144.8424  131.6581  153.1749 H   0  0  0  0  0  0  0  0  0  0  0  0
  143.6029  131.5722  150.7306 H   0  0  0  0  0  0  0  0  0  0  0  0
  1  2  1  0  0  0  0
  1 20  1  0  0  0  0
  1 21  1  0  0  0  0
  1 22  1  0  0  0  0
  2  3  1  0  0  0  0
  2 23  1  0  0  0  0
  2 24  1  0  0  0  0
  3  4  1  0  0  0  0
  3 25  1  0  0  0  0
  4  5  2  0  0  0  0
  4  6  1  0  0  0  0
  6 19  1  0  0  0  0
  6  7  2  0  0  0  0
  7  8  1  0  0  0  0
  7 26  1  0  0  0  0
  8  9  2  0  0  0  0
  8 27  1  0  0  0  0
  9 10  1  0  0  0  0
  9 18  1  0  0  0  0
 10 11  1  0  0  0  0
 10 28  1  0  0  0  0
 11 16  1  0  0  0  0
 11 12  1  0  0  0  0
 11 29  1  0  0  0  0
 12 13  1  0  0  0  0
 12 30  1  0  0  0  0
 12 31  1  0  0  0  0
 13 17  1  0  0  0  0
 13 14  1  0  0  0  0
 13 32  1  0  0  0  0
 14 15  1  0  0  0  0
 14 33  1  0  0  0  0
 14 34  1  0  0  0  0
 15 16  1  0  0  0  0
 15 35  1  0  0  0  0
 15 36  1  0  0  0  0
 16 17  1  0  0  0  0
 16 37  1  0  0  0  0
 18 19  2  0  0  0  0
M  END
> <s_m_source_file>
AV-unprocessed.smi

> <i_m_source_file_index>
2893

> <i_lp_mmshare_version>
43012

> <i_f3d_flags>
0

> <s_epik_input>
W0NIM11bQ0gyXVtOSF1DKD1PKWMxW2NIXVtjSF1jKG5uMSlbTkhdW0NASF0oW0NIMl1bQ0BASF0yMylbQ0BASF0oTzMpW0NIMl1bQ0gyXTI=

> <s_epik_cmdline>
J2VwaWtfcHl0aG9uJywgJy1waCcsICc3LjAnLCAnLXRuJywgJzgnLCAnLW1hJywgJzIwMCcsICctbWV0YWxfYmluZGluZycsICctaW1hZScsICc8aW5maWxlLm1hZT4nLCAnLW9tYWUnLCAnPG91dGZpbGUubWFlPic=

> <r_lp_tautomer_probability>
1

> <r_epik_Ionization_Penalty>
0.00432031

> <r_epik_Ionization_Penalty_Charging>
0

> <r_epik_Ionization_Penalty_Neutral>
0.00432031

> <r_epik_State_Penalty>
-0

> <r_epik_Charging_Adjusted_Penalty>
0

> <i_epik_Tot_Q>
0

> <i_epik_Tot_abs_Q>
0

> <r_epik_Metal_State_Penalty>
-0

> <b_epik_Metal_Only>
0

> <s_lp_Force_Field>
OPLS_2005

> <r_lp_Energy>
51.8171

> <b_lp_Chiralities_Consistent>
1

> <s_lp_Variant>
AV-unprocessed.smi:2893-2

> <Gold.Version>
5.8.1

> <Gold.Id.Protein>
6NUR|6NUR_protein|mol2

> <Gold.PLP.Fitness>
37.1385

> <Gold.PLP.PLP>
-31.3399

> <Gold.PLP.part.hbond>
-3.8719

> <Gold.PLP.part.metal>
0.0000

> <Gold.PLP.part.buried>
-6.5418

> <Gold.PLP.part.nonpolar>
-21.2351

> <Gold.PLP.part.repulsive>
0.3707

> <Gold.PLP.ligand.clash>
0.0000

> <Gold.PLP.ligand.torsion>
0.3284

> <Gold.PLP.Chemscore.Hbond>
2.1460

> <Gold.PLP.Chemscore.CHOScore>
0.0000

> <Gold.PLP.Chemscore.Metal>
0.0000

> <Gold.Chemscore.Hbonds>
donor molecule, donor type, donor heavy atom, donor atom, acceptor molecule, acceptor atom, score
      L1  H     3    25       P1 10175  1.00
      L1  H    10    28       P1 10957  1.00
      P1  H 11000 11005       L1    18  0.09

> <Gold.PLP.Chemscore.Internal.Correction>
0.0174

> <Gold.Rescore>
     Score         DG    S(hbond)    S(metal)    S(lipo)     H(rot)  DE(clash)    DE(int)     intcor
     15.20     -15.55       1.94        0.00      57.07       1.21       0.00       0.35       ----

> <Gold.Chemscore.Fitness>
15.2032

> <Gold.Chemscore.DG>
-15.5521

> <Gold.Chemscore.ZeroCoef>
-5.4800

> <Gold.Chemscore.Hbond>
1.9410

> <Gold.Chemscore.Metal>
0.0000

> <Gold.Chemscore.Lipo>
57.0667

> <Gold.Chemscore.Internal_Hbond>
0.0000

> <Gold.Chemscore.DEClash>
0.0038

> <Gold.Chemscore.DEInternal>
0.3451

> <Gold.Chemscore.Rot>
1.2061

> <Gold.Chemscore.Internal.Correction>
   9.000000E+99

> <Gold.Chemscore.Hbonds>
donor molecule, donor type, donor heavy atom, donor atom, acceptor molecule, acceptor atom, score
      L1  H     3    25       P1 10175  0.82
      L1  H    10    28       P1 10957  0.63

> <Gold.Chemscore.Hbond.Weighted>
-6.4829

> <Gold.Chemscore.Metal.Weighted>
-0.0000

> <Gold.Chemscore.Lipo.Weighted>
-6.6768

> <Gold.Chemscore.Internal_Hbond.Weighted>
0.0000

> <Gold.Chemscore.DEClash.Weighted>
0.0038

> <Gold.Chemscore.DEInternal.Weighted>
0.3451

> <Gold.Chemscore.Rot.Weighted>
3.0876

> <Gold.Chemscore.Internal.Correction.Weighted>
   9.000000E+99

> <Gold.Protein.RotatedTorsions>
[ 6907 6896 6895 6894 ] final  -79.68 input  -60.11 | X-H torsion
[ 7974 7965 7964 7962 ] final  125.67 input  175.53 | X-H torsion
[ 8008 7997 7996 7995 ] final  -88.66 input   59.86 | X-H torsion
[ 10167 10162 10161 10158 ] final  -69.64 input  -65.29 | X-H torsion
[ 10718 10713 10712 10709 ] final  -92.08 input   66.30 | X-H torsion
[ 10763 10752 10751 10750 ] final  -46.26 input  -60.55 | X-H torsion
[ 11005 11000 10999 10996 ] final   -4.62 input  -57.11 | X-H torsion

> <Gold.Protein.ActiveResidues>
 VAL166  LYS551  ARG553  GLY616  TRP617  ASP618  TYR619  PRO620  LYS621  CYS622 
 ASP623  PHE694  ASN695  SER759  ASP760  ASP761  ALA762  ILE779  LEU786  VAL792 
 PHE793  MET794  SER795  GLU796  ALA797  LYS798  CYS799  TRP800  GLU811  SER814 

> <Gold.Protein.RotatedAtoms>
  150.6945  134.4085  159.5150 H   0  0  0  0  0  0  0  0  0  0  0  0  # atno 6907 bound_to 6896
  152.1847  134.8721  160.0532 H   0  0  0  0  0  0  0  0  0  0  0  0  # atno 6908 bound_to 6896
  151.9699  133.3687  159.4104 H   0  0  0  0  0  0  0  0  0  0  0  0  # atno 6909 bound_to 6896
  145.0704  139.3735  143.4960 H   0  0  0  0  0  0  0  0  0  0  0  0  # atno 7974 bound_to 7965
  154.6774  140.0551  157.0230 H   0  0  0  0  0  0  0  0  0  0  0  0  # atno 8008 bound_to 7997
  155.1000  140.3228  155.4531 H   0  0  0  0  0  0  0  0  0  0  0  0  # atno 8009 bound_to 7997
  156.2681  140.2033  156.6126 H   0  0  0  0  0  0  0  0  0  0  0  0  # atno 8010 bound_to 7997
  140.5414  143.2315  151.7081 H   0  0  0  0  0  0  0  0  0  0  0  0  # atno 10167 bound_to 10162
  155.9999  130.4973  150.5572 H   0  0  0  0  0  0  0  0  0  0  0  0  # atno 10718 bound_to 10713
  154.0421  135.6642  153.4791 H   0  0  0  0  0  0  0  0  0  0  0  0  # atno 10763 bound_to 10752
  153.0497  135.5092  154.7832 H   0  0  0  0  0  0  0  0  0  0  0  0  # atno 10764 bound_to 10752
  154.6812  135.3045  154.9577 H   0  0  0  0  0  0  0  0  0  0  0  0  # atno 10765 bound_to 10752
  140.6822  133.9143  155.8563 H   0  0  0  0  0  0  0  0  0  0  0  0  # atno 11005 bound_to 11000
  146.3528  140.0446  142.8640 LP  0  0  0  0  0  0  0  0  0  0  0  0  # atno 17320 bound_to 7965
  145.1300  140.9512  143.4550 LP  0  0  0  0  0  0  0  0  0  0  0  0  # atno 17321 bound_to 7965
  139.4990  144.3962  152.0229 LP  0  0  0  0  0  0  0  0  0  0  0  0  # atno 17342 bound_to 10162
  140.3071  144.3580  150.6044 LP  0  0  0  0  0  0  0  0  0  0  0  0  # atno 17343 bound_to 10162
  157.3487  131.0729  151.1731 LP  0  0  0  0  0  0  0  0  0  0  0  0  # atno 17370 bound_to 10713
  157.2555  130.6634  149.5950 LP  0  0  0  0  0  0  0  0  0  0  0  0  # atno 17371 bound_to 10713
  141.0308  134.0759  157.4016 LP  0  0  0  0  0  0  0  0  0  0  0  0  # atno 17394 bound_to 11000
  139.8948  135.0138  156.6970 LP  0  0  0  0  0  0  0  0  0  0  0  0  # atno 17395 bound_to 11000

$$$$
