AV-unprocessed.smi:3348|AV-procd|sdf|12916|dock7
  -GOLD-   2272019333D 1   1.00000     0.00000
 Structure written by MMmdl.
 47 48  0  0  0  0  0  0  0  0  2 V2000
  153.1015  138.5545  154.4930 C   0  0  0  0  0  0  0  0  0  0  0  0
  151.8604  139.3137  154.9895 C   0  0  1  0  0  0  0  0  0  0  0  0
  150.6322  138.9836  154.1166 C   0  0  0  0  0  0  0  0  0  0  0  0
  149.5075  139.8717  154.3604 N   0  0  0  0  0  0  0  0  0  0  0  0
  148.2257  139.5424  154.7490 C   0  0  0  0  0  0  0  0  0  0  0  0
  147.5158  140.7054  154.8379 C   0  0  0  0  0  0  0  0  0  0  0  0
  148.4573  141.7057  154.4676 C   0  0  0  0  0  0  0  0  0  0  0  0
  149.6466  141.2030  154.1783 N   0  0  0  0  0  0  0  0  0  0  0  0
  151.5775  138.9978  156.4083 N   0  3  0  0  0  0  0  0  0  0  0  0
  150.4006  139.6803  156.9847 C   0  0  0  0  0  0  0  0  0  0  0  0
  150.6248  141.1942  157.0431 C   0  0  0  0  0  0  0  0  0  0  0  0
  151.6866  141.4584  157.9483 O   0  0  0  0  0  0  0  0  0  0  0  0
  151.3381  142.2946  159.0458 C   0  0  2  0  0  0  0  0  0  0  0  0
  150.7396  143.6215  158.5304 C   0  0  0  0  0  0  0  0  0  0  0  0
  150.4749  144.6057  159.6791 C   0  0  0  0  0  0  0  0  0  0  0  0
  151.7517  144.8623  160.4908 C   0  0  0  0  0  0  0  0  0  0  0  0
  152.3449  143.5456  161.0139 C   0  0  0  0  0  0  0  0  0  0  0  0
  152.6209  142.5484  159.8704 C   0  0  1  0  0  0  0  0  0  0  0  0
  153.2134  141.2414  160.4228 C   0  0  0  0  0  0  0  0  0  0  0  0
  153.2919  138.7660  153.4405 H   0  0  0  0  0  0  0  0  0  0  0  0
  152.9750  137.4762  154.5959 H   0  0  0  0  0  0  0  0  0  0  0  0
  153.9974  138.8396  155.0442 H   0  0  0  0  0  0  0  0  0  0  0  0
  152.0592  140.3833  154.9066 H   0  0  0  0  0  0  0  0  0  0  0  0
  150.8917  139.0542  153.0593 H   0  0  0  0  0  0  0  0  0  0  0  0
  150.3075  137.9564  154.2895 H   0  0  0  0  0  0  0  0  0  0  0  0
  147.9282  138.5198  154.9302 H   0  0  0  0  0  0  0  0  0  0  0  0
  146.4800  140.8235  155.1194 H   0  0  0  0  0  0  0  0  0  0  0  0
  148.3126  142.7739  154.3996 H   0  0  0  0  0  0  0  0  0  0  0  0
  151.4033  138.0046  156.4673 H   0  0  0  0  0  0  0  0  0  0  0  0
  149.5047  139.4572  156.4051 H   0  0  0  0  0  0  0  0  0  0  0  0
  150.2348  139.3020  157.9942 H   0  0  0  0  0  0  0  0  0  0  0  0
  150.8771  141.5612  156.0485 H   0  0  0  0  0  0  0  0  0  0  0  0
  149.7095  141.6990  157.3567 H   0  0  0  0  0  0  0  0  0  0  0  0
  150.6120  141.7895  159.6860 H   0  0  0  0  0  0  0  0  0  0  0  0
  151.4235  144.0772  157.8132 H   0  0  0  0  0  0  0  0  0  0  0  0
  149.8068  143.4433  157.9963 H   0  0  0  0  0  0  0  0  0  0  0  0
  150.0904  145.5462  159.2829 H   0  0  0  0  0  0  0  0  0  0  0  0
  149.6996  144.2047  160.3331 H   0  0  0  0  0  0  0  0  0  0  0  0
  152.4865  145.3735  159.8675 H   0  0  0  0  0  0  0  0  0  0  0  0
  151.5345  145.5305  161.3248 H   0  0  0  0  0  0  0  0  0  0  0  0
  153.2666  143.7545  161.5583 H   0  0  0  0  0  0  0  0  0  0  0  0
  151.6570  143.1000  161.7339 H   0  0  0  0  0  0  0  0  0  0  0  0
  153.3652  142.9965  159.2102 H   0  0  0  0  0  0  0  0  0  0  0  0
  152.5077  140.7325  161.0798 H   0  0  0  0  0  0  0  0  0  0  0  0
  154.1207  141.4349  160.9959 H   0  0  0  0  0  0  0  0  0  0  0  0
  153.4778  140.5530  159.6198 H   0  0  0  0  0  0  0  0  0  0  0  0
  152.3929  139.2134  156.9640 H   0  0  0  0  0  0  0  0  0  0  0  0
  1  2  1  0  0  0  0
  1 20  1  0  0  0  0
  1 21  1  0  0  0  0
  1 22  1  0  0  0  0
  2  3  1  0  0  0  0
  2  9  1  0  0  0  0
  2 23  1  0  0  0  0
  3  4  1  0  0  0  0
  3 24  1  0  0  0  0
  3 25  1  0  0  0  0
  4  8  1  0  0  0  0
  4  5  1  0  0  0  0
  5  6  2  0  0  0  0
  5 26  1  0  0  0  0
  6  7  1  0  0  0  0
  6 27  1  0  0  0  0
  7  8  2  0  0  0  0
  7 28  1  0  0  0  0
  9 10  1  0  0  0  0
  9 29  1  0  0  0  0
  9 47  1  0  0  0  0
 10 11  1  0  0  0  0
 10 30  1  0  0  0  0
 10 31  1  0  0  0  0
 11 12  1  0  0  0  0
 11 32  1  0  0  0  0
 11 33  1  0  0  0  0
 12 13  1  0  0  0  0
 13 18  1  0  0  0  0
 13 14  1  0  0  0  0
 13 34  1  0  0  0  0
 14 15  1  0  0  0  0
 14 35  1  0  0  0  0
 14 36  1  0  0  0  0
 15 16  1  0  0  0  0
 15 37  1  0  0  0  0
 15 38  1  0  0  0  0
 16 17  1  0  0  0  0
 16 39  1  0  0  0  0
 16 40  1  0  0  0  0
 17 18  1  0  0  0  0
 17 41  1  0  0  0  0
 17 42  1  0  0  0  0
 18 19  1  0  0  0  0
 18 43  1  0  0  0  0
 19 44  1  0  0  0  0
 19 45  1  0  0  0  0
 19 46  1  0  0  0  0
M  CHG  1   9   1
M  END
> <s_m_source_file>
AV-unprocessed.smi

> <i_m_source_file_index>
3348

> <i_lp_mmshare_version>
43012

> <i_f3d_flags>
0

> <s_epik_input>
bjFbY0hdW2NIXVtjSF1uMVtDSDJdW0NAQEhdKFtDSDNdKVtOSF1bQ0gyXVtDSDJdT1tDQEBIXTJbQ0gyXVtDSDJdW0NIMl1bQ0gyXVtDQEhdMltDSDNd

> <s_epik_cmdline>
J2VwaWtfcHl0aG9uJywgJy1waCcsICc3LjAnLCAnLXRuJywgJzgnLCAnLW1hJywgJzIwMCcsICctbWV0YWxfYmluZGluZycsICctaW1hZScsICc8aW5maWxlLm1hZT4nLCAnLW9tYWUnLCAnPG91dGZpbGUubWFlPic=

> <r_lp_tautomer_probability>
1

> <r_epik_Ionization_Penalty>
0.00925088

> <r_epik_Ionization_Penalty_Charging>
0.00924645

> <r_epik_Ionization_Penalty_Neutral>
4.42413e-06

> <r_epik_State_Penalty>
0.0070118

> <r_epik_Charging_Adjusted_Penalty>
0.0162583

> <i_epik_Tot_Q>
1

> <i_epik_Tot_abs_Q>
1

> <r_epik_Metal_State_Penalty>
0.00701222

> <b_epik_Metal_Only>
0

> <s_lp_Force_Field>
OPLS_2005

> <r_lp_Energy>
16.0091

> <b_lp_Chiralities_Consistent>
1

> <s_lp_Variant>
AV-unprocessed.smi:3348-2

> <Gold.Version>
5.8.1

> <Gold.Id.Protein>
6NUR|6NUR_protein|mol2

> <Gold.PLP.Fitness>
47.9759

> <Gold.PLP.PLP>
-44.3326

> <Gold.PLP.part.hbond>
-1.9835

> <Gold.PLP.part.metal>
0.0000

> <Gold.PLP.part.buried>
-4.3286

> <Gold.PLP.part.nonpolar>
-38.2339

> <Gold.PLP.part.repulsive>
0.2625

> <Gold.PLP.ligand.clash>
0.0000

> <Gold.PLP.ligand.torsion>
0.4583

> <Gold.PLP.Chemscore.Hbond>
0.4930

> <Gold.PLP.Chemscore.CHOScore>
1.0000

> <Gold.PLP.Chemscore.Metal>
0.0000

> <Gold.Chemscore.Hbonds>
donor molecule, donor type, donor heavy atom, donor atom, acceptor molecule, acceptor atom, score
      P1  H  7989  7998       L1     8  0.17
      P1  H  8011  8017       L1     8  0.24
      L1  C     7    28       P1  8028  1.00

> <Gold.PLP.Chemscore.Internal.Correction>
0.0811

> <Gold.Rescore>
     Score         DG    S(hbond)    S(metal)    S(lipo)     H(rot)  DE(clash)    DE(int)     intcor
     15.05     -17.10       0.42        0.00     127.06       1.82       0.17       1.88       ----

> <Gold.Chemscore.Fitness>
15.0493

> <Gold.Chemscore.DG>
-17.0992

> <Gold.Chemscore.ZeroCoef>
-5.4800

> <Gold.Chemscore.Hbond>
0.4199

> <Gold.Chemscore.Metal>
0.0000

> <Gold.Chemscore.Lipo>
127.0639

> <Gold.Chemscore.Internal_Hbond>
0.0000

> <Gold.Chemscore.DEClash>
0.1706

> <Gold.Chemscore.DEInternal>
1.8794

> <Gold.Chemscore.Rot>
1.8163

> <Gold.Chemscore.Internal.Correction>
   9.000000E+99

> <Gold.Chemscore.Hbonds>
donor molecule, donor type, donor heavy atom, donor atom, acceptor molecule, acceptor atom, score
      P1  H  7989  7998       L1     8  0.01
      P1  H  8011  8017       L1     8  0.02

> <Gold.Chemscore.Hbond.Weighted>
-1.4025

> <Gold.Chemscore.Metal.Weighted>
-0.0000

> <Gold.Chemscore.Lipo.Weighted>
-14.8665

> <Gold.Chemscore.Internal_Hbond.Weighted>
0.0000

> <Gold.Chemscore.DEClash.Weighted>
0.1706

> <Gold.Chemscore.DEInternal.Weighted>
1.8794

> <Gold.Chemscore.Rot.Weighted>
4.6497

> <Gold.Chemscore.Internal.Correction.Weighted>
   9.000000E+99

> <Gold.Protein.RotatedTorsions>
[ 6907 6896 6895 6894 ] final  172.41 input  -60.11 | X-H torsion
[ 7974 7965 7964 7962 ] final   66.15 input  175.53 | X-H torsion
[ 8008 7997 7996 7995 ] final  -99.97 input   59.86 | X-H torsion
[ 10167 10162 10161 10158 ] final  -63.04 input  -65.29 | X-H torsion
[ 10718 10713 10712 10709 ] final -146.96 input   66.30 | X-H torsion
[ 10763 10752 10751 10750 ] final   60.56 input  -60.55 | X-H torsion
[ 11005 11000 10999 10996 ] final   64.17 input  -57.11 | X-H torsion

> <Gold.Protein.ActiveResidues>
 VAL166  LYS551  ARG553  GLY616  TRP617  ASP618  TYR619  PRO620  LYS621  CYS622 
 ASP623  PHE694  ASN695  SER759  ASP760  ASP761  ALA762  ILE779  LEU786  VAL792 
 PHE793  MET794  SER795  GLU796  ALA797  LYS798  CYS799  TRP800  GLU811  SER814 

> <Gold.Protein.RotatedAtoms>
  151.7848  133.3353  159.3481 H   0  0  0  0  0  0  0  0  0  0  0  0  # atno 6907 bound_to 6896
  150.7413  134.5898  159.5991 H   0  0  0  0  0  0  0  0  0  0  0  0  # atno 6908 bound_to 6896
  152.3251  134.7332  160.0355 H   0  0  0  0  0  0  0  0  0  0  0  0  # atno 6909 bound_to 6896
  145.8300  139.3134  143.0993 H   0  0  0  0  0  0  0  0  0  0  0  0  # atno 7974 bound_to 7965
  154.8221  140.0444  157.1418 H   0  0  0  0  0  0  0  0  0  0  0  0  # atno 8008 bound_to 7997
  154.9247  140.3031  155.5178 H   0  0  0  0  0  0  0  0  0  0  0  0  # atno 8009 bound_to 7997
  156.2981  140.2334  156.4301 H   0  0  0  0  0  0  0  0  0  0  0  0  # atno 8010 bound_to 7997
  140.5898  143.2339  151.6165 H   0  0  0  0  0  0  0  0  0  0  0  0  # atno 10167 bound_to 10162
  156.4015  130.7936  151.2147 H   0  0  0  0  0  0  0  0  0  0  0  0  # atno 10718 bound_to 10713
  152.9925  135.5532  154.5894 H   0  0  0  0  0  0  0  0  0  0  0  0  # atno 10763 bound_to 10752
  154.5259  135.2810  155.1225 H   0  0  0  0  0  0  0  0  0  0  0  0  # atno 10764 bound_to 10752
  154.2559  135.6390  153.5310 H   0  0  0  0  0  0  0  0  0  0  0  0  # atno 10765 bound_to 10752
  139.9976  134.6493  155.9984 H   0  0  0  0  0  0  0  0  0  0  0  0  # atno 11005 bound_to 11000
  145.9581  140.8857  143.0225 LP  0  0  0  0  0  0  0  0  0  0  0  0  # atno 17320 bound_to 7965
  144.6740  140.1774  143.7409 LP  0  0  0  0  0  0  0  0  0  0  0  0  # atno 17321 bound_to 7965
  139.5220  144.3176  152.0939 LP  0  0  0  0  0  0  0  0  0  0  0  0  # atno 17342 bound_to 10162
  140.2338  144.4340  150.6288 LP  0  0  0  0  0  0  0  0  0  0  0  0  # atno 17343 bound_to 10162
  157.7504  131.0285  150.4053 LP  0  0  0  0  0  0  0  0  0  0  0  0  # atno 17370 bound_to 10713
  156.4333  130.3976  149.6745 LP  0  0  0  0  0  0  0  0  0  0  0  0  # atno 17371 bound_to 10713
  141.1617  133.6538  156.4340 LP  0  0  0  0  0  0  0  0  0  0  0  0  # atno 17394 bound_to 11000
  140.4789  134.6683  157.5162 LP  0  0  0  0  0  0  0  0  0  0  0  0  # atno 17395 bound_to 11000

$$$$
