AV-unprocessed.smi:2470|AV-procd|sdf|9735|dock2
  -GOLD-   2272013373D 1   1.00000     0.00000
 Structure written by MMmdl.
 33 34  0  0  0  0  0  0  0  0  1 V2000
  150.9825  136.0181  157.0007 C   0  0  0  0  0  0  0  0  0  0  0  0
  150.8821  134.6424  157.3511 O   0  0  0  0  0  0  0  0  0  0  0  0
  150.1225  133.8192  156.5460 C   0  0  0  0  0  0  0  0  0  0  0  0
  149.4846  134.3603  155.4110 C   0  0  0  0  0  0  0  0  0  0  0  0
  148.7196  133.4824  154.6107 C   0  0  0  0  0  0  0  0  0  0  0  0
  148.0946  134.0671  153.4777 N   0  0  0  0  0  0  0  0  0  0  0  0
  147.0338  133.6115  152.7887 C   0  0  0  0  0  0  0  0  0  0  0  0
  146.4292  132.5654  153.0262 O   0  0  0  0  0  0  0  0  0  0  0  0
  146.7108  134.4477  151.7904 N   0  0  0  0  0  0  0  0  0  0  0  0
  145.6141  134.2674  150.8429 C   0  0  2  0  0  0  0  0  0  0  0  0
  144.3101  134.7672  151.4807 C   0  0  0  0  0  0  0  0  0  0  0  0
  145.4780  132.8303  150.3771 C   0  0  0  0  0  0  0  0  0  0  0  0
  144.2627  132.3737  149.6065 C   0  0  0  0  0  0  0  0  0  0  0  0
  144.4852  131.8938  151.0235 C   0  0  0  0  0  0  0  0  0  0  0  0
  148.6192  132.1730  154.9491 N   0  0  0  0  0  0  0  0  0  0  0  0
  149.2597  131.7591  156.0439 C   0  0  0  0  0  0  0  0  0  0  0  0
  150.0044  132.5062  156.8599 N   0  0  0  0  0  0  0  0  0  0  0  0
  151.5979  136.5340  157.7376 H   0  0  0  0  0  0  0  0  0  0  0  0
  150.0040  136.5004  156.9917 H   0  0  0  0  0  0  0  0  0  0  0  0
  151.4546  136.1471  156.0258 H   0  0  0  0  0  0  0  0  0  0  0  0
  149.5834  135.4083  155.1680 H   0  0  0  0  0  0  0  0  0  0  0  0
  148.4993  134.9343  153.1577 H   0  0  0  0  0  0  0  0  0  0  0  0
  147.2690  135.2809  151.6757 H   0  0  0  0  0  0  0  0  0  0  0  0
  145.7952  134.8746  149.9541 H   0  0  0  0  0  0  0  0  0  0  0  0
  143.4755  134.6826  150.7840 H   0  0  0  0  0  0  0  0  0  0  0  0
  144.3904  135.8158  151.7695 H   0  0  0  0  0  0  0  0  0  0  0  0
  144.0582  134.1929  152.3730 H   0  0  0  0  0  0  0  0  0  0  0  0
  146.4227  132.3781  150.0797 H   0  0  0  0  0  0  0  0  0  0  0  0
  143.4676  133.0979  149.4396 H   0  0  0  0  0  0  0  0  0  0  0  0
  144.4184  131.6579  148.8019 H   0  0  0  0  0  0  0  0  0  0  0  0
  144.7889  130.8585  151.1630 H   0  0  0  0  0  0  0  0  0  0  0  0
  143.8344  132.2975  151.7967 H   0  0  0  0  0  0  0  0  0  0  0  0
  149.1652  130.7130  156.2947 H   0  0  0  0  0  0  0  0  0  0  0  0
  1  2  1  0  0  0  0
  1 18  1  0  0  0  0
  1 19  1  0  0  0  0
  1 20  1  0  0  0  0
  2  3  1  0  0  0  0
  3 17  1  0  0  0  0
  3  4  2  0  0  0  0
  4  5  1  0  0  0  0
  4 21  1  0  0  0  0
  5  6  1  0  0  0  0
  5 15  2  0  0  0  0
  6  7  1  0  0  0  0
  6 22  1  0  0  0  0
  7  8  2  0  0  0  0
  7  9  1  0  0  0  0
  9 10  1  0  0  0  0
  9 23  1  0  0  0  0
 10 11  1  0  0  0  0
 10 12  1  0  0  0  0
 10 24  1  0  0  0  0
 11 25  1  0  0  0  0
 11 26  1  0  0  0  0
 11 27  1  0  0  0  0
 12 14  1  0  0  0  0
 12 13  1  0  0  0  0
 12 28  1  0  0  0  0
 13 14  1  0  0  0  0
 13 29  1  0  0  0  0
 13 30  1  0  0  0  0
 14 31  1  0  0  0  0
 14 32  1  0  0  0  0
 15 16  1  0  0  0  0
 16 17  2  0  0  0  0
 16 33  1  0  0  0  0
M  END
> <s_m_source_file>
AV-unprocessed.smi

> <i_m_source_file_index>
2470

> <i_lp_mmshare_version>
43012

> <i_f3d_flags>
0

> <s_epik_input>
W0NIM11PYzFbY0hdYyhuW2NIXW4xKVtOSF1DKD1PKVtOSF1bQ0BIXShbQ0gzXSlbQ0hdMltDSDJdW0NIMl0y

> <s_epik_cmdline>
J2VwaWtfcHl0aG9uJywgJy1waCcsICc3LjAnLCAnLXRuJywgJzgnLCAnLW1hJywgJzIwMCcsICctbWV0YWxfYmluZGluZycsICctaW1hZScsICc8aW5maWxlLm1hZT4nLCAnLW9tYWUnLCAnPG91dGZpbGUubWFlPic=

> <r_lp_tautomer_probability>
1

> <r_epik_Ionization_Penalty>
2.81207e-05

> <r_epik_Ionization_Penalty_Charging>
0

> <r_epik_Ionization_Penalty_Neutral>
2.81207e-05

> <r_epik_State_Penalty>
-0

> <r_epik_Charging_Adjusted_Penalty>
0

> <i_epik_Tot_Q>
0

> <i_epik_Tot_abs_Q>
0

> <r_epik_Metal_State_Penalty>
-0

> <b_epik_Metal_Only>
0

> <s_lp_Force_Field>
OPLS_2005

> <r_lp_Energy>
11.3699

> <b_lp_Chiralities_Consistent>
1

> <s_lp_Variant>
AV-unprocessed.smi:2470-1

> <Gold.Version>
5.8.1

> <Gold.Id.Protein>
6NUR|6NUR_protein|mol2

> <Gold.PLP.Fitness>
35.1890

> <Gold.PLP.PLP>
-30.0619

> <Gold.PLP.part.hbond>
-3.0000

> <Gold.PLP.part.metal>
0.0000

> <Gold.PLP.part.buried>
-4.6078

> <Gold.PLP.part.nonpolar>
-22.1198

> <Gold.PLP.part.repulsive>
0.2083

> <Gold.PLP.ligand.clash>
0.2851

> <Gold.PLP.ligand.torsion>
0.9596

> <Gold.PLP.Chemscore.Hbond>
2.0835

> <Gold.PLP.Chemscore.CHOScore>
0.0000

> <Gold.PLP.Chemscore.Metal>
0.0000

> <Gold.Chemscore.Hbonds>
donor molecule, donor type, donor heavy atom, donor atom, acceptor molecule, acceptor atom, score
      L1  H     6    22       P1  7948  1.00
      L1  H     9    23       P1  7948  1.00
      P1  H  6896  6907       L1     2  0.17

> <Gold.PLP.Chemscore.Internal.Correction>
1.0809

> <Gold.Rescore>
     Score         DG    S(hbond)    S(metal)    S(lipo)     H(rot)  DE(clash)    DE(int)     intcor
      9.59     -13.35       1.83        0.00      50.33       1.61       0.09       3.67       ----

> <Gold.Chemscore.Fitness>
9.5910

> <Gold.Chemscore.DG>
-13.3522

> <Gold.Chemscore.ZeroCoef>
-5.4800

> <Gold.Chemscore.Hbond>
1.8286

> <Gold.Chemscore.Metal>
0.0000

> <Gold.Chemscore.Lipo>
50.3316

> <Gold.Chemscore.Internal_Hbond>
0.0000

> <Gold.Chemscore.DEClash>
0.0934

> <Gold.Chemscore.DEInternal>
3.6679

> <Gold.Chemscore.Rot>
1.6109

> <Gold.Chemscore.Internal.Correction>
   9.000000E+99

> <Gold.Chemscore.Hbonds>
donor molecule, donor type, donor heavy atom, donor atom, acceptor molecule, acceptor atom, score
      L1  H     6    22       P1  7948  0.68
      L1  H     9    23       P1  7948  0.90
      P1  H  6896  6907       L1     2  0.09

> <Gold.Chemscore.Hbond.Weighted>
-6.1074

> <Gold.Chemscore.Metal.Weighted>
-0.0000

> <Gold.Chemscore.Lipo.Weighted>
-5.8888

> <Gold.Chemscore.Internal_Hbond.Weighted>
0.0000

> <Gold.Chemscore.DEClash.Weighted>
0.0934

> <Gold.Chemscore.DEInternal.Weighted>
3.6679

> <Gold.Chemscore.Rot.Weighted>
4.1240

> <Gold.Chemscore.Internal.Correction.Weighted>
   9.000000E+99

> <Gold.Protein.RotatedTorsions>
[ 6907 6896 6895 6894 ] final -141.71 input  -60.11 | X-H torsion
[ 7974 7965 7964 7962 ] final   46.92 input  175.53 | X-H torsion
[ 8008 7997 7996 7995 ] final    9.49 input   59.86 | X-H torsion
[ 10167 10162 10161 10158 ] final   22.35 input  -65.29 | X-H torsion
[ 10718 10713 10712 10709 ] final  123.20 input   66.30 | X-H torsion
[ 10763 10752 10751 10750 ] final -134.89 input  -60.55 | X-H torsion
[ 11005 11000 10999 10996 ] final -162.12 input  -57.11 | X-H torsion

> <Gold.Protein.ActiveResidues>
 VAL166  LYS551  ARG553  GLY616  TRP617  ASP618  TYR619  PRO620  LYS621  CYS622 
 ASP623  PHE694  ASN695  SER759  ASP760  ASP761  ALA762  ILE779  LEU786  VAL792 
 PHE793  MET794  SER795  GLU796  ALA797  LYS798  CYS799  TRP800  GLU811  SER814 

> <Gold.Protein.RotatedAtoms>
  151.0774  133.5417  159.2622 H   0  0  0  0  0  0  0  0  0  0  0  0  # atno 6907 bound_to 6896
  151.2333  135.0562  159.9006 H   0  0  0  0  0  0  0  0  0  0  0  0  # atno 6908 bound_to 6896
  152.5419  134.0560  159.8185 H   0  0  0  0  0  0  0  0  0  0  0  0  # atno 6909 bound_to 6896
  146.0346  139.4804  142.9816 H   0  0  0  0  0  0  0  0  0  0  0  0  # atno 7974 bound_to 7965
  154.7807  140.2818  155.6066 H   0  0  0  0  0  0  0  0  0  0  0  0  # atno 8008 bound_to 7997
  156.2949  140.2623  156.2560 H   0  0  0  0  0  0  0  0  0  0  0  0  # atno 8009 bound_to 7997
  154.9788  140.0375  157.2258 H   0  0  0  0  0  0  0  0  0  0  0  0  # atno 8010 bound_to 7997
  140.5355  143.9768  150.6489 H   0  0  0  0  0  0  0  0  0  0  0  0  # atno 10167 bound_to 10162
  157.5684  131.1085  150.8413 H   0  0  0  0  0  0  0  0  0  0  0  0  # atno 10718 bound_to 10713
  154.8712  135.3720  154.4810 H   0  0  0  0  0  0  0  0  0  0  0  0  # atno 10763 bound_to 10752
  153.5463  135.7025  153.5617 H   0  0  0  0  0  0  0  0  0  0  0  0  # atno 10764 bound_to 10752
  153.3756  135.4010  155.1784 H   0  0  0  0  0  0  0  0  0  0  0  0  # atno 10765 bound_to 10752
  140.6128  134.4831  157.5217 H   0  0  0  0  0  0  0  0  0  0  0  0  # atno 11005 bound_to 11000
  145.6985  141.0143  143.1517 LP  0  0  0  0  0  0  0  0  0  0  0  0  # atno 17320 bound_to 7965
  144.7046  139.8617  143.7434 LP  0  0  0  0  0  0  0  0  0  0  0  0  # atno 17321 bound_to 7965
  140.3154  143.3171  152.0837 LP  0  0  0  0  0  0  0  0  0  0  0  0  # atno 17342 bound_to 10162
  139.4969  144.6609  151.6467 LP  0  0  0  0  0  0  0  0  0  0  0  0  # atno 17343 bound_to 10162
  156.8891  130.5206  149.5287 LP  0  0  0  0  0  0  0  0  0  0  0  0  # atno 17370 bound_to 10713
  156.0730  130.5759  150.9420 LP  0  0  0  0  0  0  0  0  0  0  0  0  # atno 17371 bound_to 10713
  139.9185  134.8197  156.1287 LP  0  0  0  0  0  0  0  0  0  0  0  0  # atno 17394 bound_to 11000
  141.0796  133.6760  156.2309 LP  0  0  0  0  0  0  0  0  0  0  0  0  # atno 17395 bound_to 11000

$$$$
