AV-unprocessed.smi:2338|AV-procd|sdf|9335|dock1
  -GOLD-   2272012553D 1   1.00000     0.00000
 Structure written by MMmdl.
 31 32  0  0  0  0  0  0  0  0  1 V2000
  149.6326  137.7995  158.6848 N   0  0  0  0  0  0  0  0  0  0  0  0
  150.9187  137.5474  158.4285 C   0  0  0  0  0  0  0  0  0  0  0  0
  151.6976  137.1703  159.3027 O   0  0  0  0  0  0  0  0  0  0  0  0
  151.3998  137.7656  156.9823 C   0  0  1  0  0  0  0  0  0  0  0  0
  150.9794  136.5422  156.1351 C   0  0  0  0  0  0  0  0  0  0  0  0
  151.4011  136.7036  154.7854 O   0  0  0  0  0  0  0  0  0  0  0  0
  150.7951  137.8376  154.1784 C   0  0  0  0  0  0  0  0  0  0  0  0
  151.2286  139.1035  154.9319 C   0  0  0  0  0  0  0  0  0  0  0  0
  150.8958  138.9930  156.3490 N   0  0  0  0  0  0  0  0  0  0  0  0
  151.1282  140.2087  157.0229 C   0  0  0  0  0  0  0  0  0  0  0  0
  152.0272  140.2113  158.0379 N   0  0  0  0  0  0  0  0  0  0  0  0
  152.2613  141.3683  158.6923 C   0  0  0  0  0  0  0  0  0  0  0  0
  151.6253  142.5857  158.3696 C   0  0  0  0  0  0  0  0  0  0  0  0
  151.9121  143.8603  159.1461 C   0  0  0  0  0  0  0  0  0  0  0  0
  152.3643  144.8092  158.3259 F   0  0  0  0  0  0  0  0  0  0  0  0
  150.7877  144.2871  159.7194 F   0  0  0  0  0  0  0  0  0  0  0  0
  152.8265  143.6544  160.0942 F   0  0  0  0  0  0  0  0  0  0  0  0
  150.6944  142.5818  157.3109 C   0  0  0  0  0  0  0  0  0  0  0  0
  150.4413  141.3797  156.6221 C   0  0  0  0  0  0  0  0  0  0  0  0
  149.2941  141.3616  155.3286 Cl  0  0  0  0  0  0  0  0  0  0  0  0
  149.2719  137.6620  159.6178 H   0  0  0  0  0  0  0  0  0  0  0  0
  149.0238  138.1181  157.9451 H   0  0  0  0  0  0  0  0  0  0  0  0
  152.4907  137.8103  156.9827 H   0  0  0  0  0  0  0  0  0  0  0  0
  151.4346  135.6325  156.5283 H   0  0  0  0  0  0  0  0  0  0  0  0
  149.8983  136.3913  156.1648 H   0  0  0  0  0  0  0  0  0  0  0  0
  151.1088  137.8933  153.1359 H   0  0  0  0  0  0  0  0  0  0  0  0
  149.7088  137.7332  154.1804 H   0  0  0  0  0  0  0  0  0  0  0  0
  152.3040  139.2515  154.8199 H   0  0  0  0  0  0  0  0  0  0  0  0
  150.7390  139.9739  154.4922 H   0  0  0  0  0  0  0  0  0  0  0  0
  152.9759  141.3127  159.5002 H   0  0  0  0  0  0  0  0  0  0  0  0
  150.1757  143.4876  157.0329 H   0  0  0  0  0  0  0  0  0  0  0  0
  1  2  1  0  0  0  0
  1 21  1  0  0  0  0
  1 22  1  0  0  0  0
  2  3  2  0  0  0  0
  2  4  1  0  0  0  0
  4  9  1  0  0  0  0
  4  5  1  0  0  0  0
  4 23  1  0  0  0  0
  5  6  1  0  0  0  0
  5 24  1  0  0  0  0
  5 25  1  0  0  0  0
  6  7  1  0  0  0  0
  7  8  1  0  0  0  0
  7 26  1  0  0  0  0
  7 27  1  0  0  0  0
  8  9  1  0  0  0  0
  8 28  1  0  0  0  0
  8 29  1  0  0  0  0
  9 10  1  0  0  0  0
 10 19  1  0  0  0  0
 10 11  2  0  0  0  0
 11 12  1  0  0  0  0
 12 13  2  0  0  0  0
 12 30  1  0  0  0  0
 13 14  1  0  0  0  0
 13 18  1  0  0  0  0
 14 15  1  0  0  0  0
 14 16  1  0  0  0  0
 14 17  1  0  0  0  0
 18 19  2  0  0  0  0
 18 31  1  0  0  0  0
 19 20  1  0  0  0  0
M  END
> <s_m_source_file>
AV-unprocessed.smi

> <i_m_source_file_index>
2338

> <i_lp_mmshare_version>
43012

> <i_f3d_flags>
0

> <s_epik_input>
W05IMl1DKD1PKVtDQEBIXTFbQ0gyXU9bQ0gyXVtDSDJdTjFjMm5bY0hdYyhDKEYpKEYpRilbY0hdYzJDbA==

> <s_epik_cmdline>
J2VwaWtfcHl0aG9uJywgJy1waCcsICc3LjAnLCAnLXRuJywgJzgnLCAnLW1hJywgJzIwMCcsICctbWV0YWxfYmluZGluZycsICctaW1hZScsICc8aW5maWxlLm1hZT4nLCAnLW9tYWUnLCAnPG91dGZpbGUubWFlPic=

> <r_lp_tautomer_probability>
1

> <r_epik_Ionization_Penalty>
1.71167e-07

> <r_epik_Ionization_Penalty_Charging>
0

> <r_epik_Ionization_Penalty_Neutral>
1.71167e-07

> <r_epik_State_Penalty>
-0

> <r_epik_Charging_Adjusted_Penalty>
0

> <i_epik_Tot_Q>
0

> <i_epik_Tot_abs_Q>
0

> <r_epik_Metal_State_Penalty>
-0

> <b_epik_Metal_Only>
0

> <s_lp_Force_Field>
OPLS_2005

> <r_lp_Energy>
18.2769

> <b_lp_Chiralities_Consistent>
1

> <s_lp_Variant>
AV-unprocessed.smi:2338-2

> <Gold.Version>
5.8.1

> <Gold.Id.Protein>
6NUR|6NUR_protein|mol2

> <Gold.PLP.Fitness>
44.9622

> <Gold.PLP.PLP>
-40.0934

> <Gold.PLP.part.hbond>
-1.9708

> <Gold.PLP.part.metal>
0.0000

> <Gold.PLP.part.buried>
-6.5305

> <Gold.PLP.part.nonpolar>
-33.6479

> <Gold.PLP.part.repulsive>
0.2849

> <Gold.PLP.ligand.clash>
0.3458

> <Gold.PLP.ligand.torsion>
0.6512

> <Gold.PLP.Chemscore.Hbond>
1.9913

> <Gold.PLP.Chemscore.CHOScore>
0.0000

> <Gold.PLP.Chemscore.Metal>
0.0000

> <Gold.Chemscore.Hbonds>
donor molecule, donor type, donor heavy atom, donor atom, acceptor molecule, acceptor atom, score
      P1  H  6896  6908       L1     3  0.80
      P1  H 10752 10764       L1     6  0.53

> <Gold.PLP.Chemscore.Internal.Correction>
0.5433

> <Gold.Rescore>
     Score         DG    S(hbond)    S(metal)    S(lipo)     H(rot)  DE(clash)    DE(int)     intcor
     15.82     -16.58       1.91        0.00      73.31       1.51       0.06       0.70       ----

> <Gold.Chemscore.Fitness>
15.8244

> <Gold.Chemscore.DG>
-16.5837

> <Gold.Chemscore.ZeroCoef>
-5.4800

> <Gold.Chemscore.Hbond>
1.9143

> <Gold.Chemscore.Metal>
0.0000

> <Gold.Chemscore.Lipo>
73.3110

> <Gold.Chemscore.Internal_Hbond>
0.0000

> <Gold.Chemscore.DEClash>
0.0552

> <Gold.Chemscore.DEInternal>
0.7042

> <Gold.Chemscore.Rot>
1.5107

> <Gold.Chemscore.Internal.Correction>
   9.000000E+99

> <Gold.Chemscore.Hbonds>
donor molecule, donor type, donor heavy atom, donor atom, acceptor molecule, acceptor atom, score
      P1  H  6896  6908       L1     3  0.74
      P1  H 10752 10764       L1     6  0.08

> <Gold.Chemscore.Hbond.Weighted>
-6.3937

> <Gold.Chemscore.Metal.Weighted>
-0.0000

> <Gold.Chemscore.Lipo.Weighted>
-8.5774

> <Gold.Chemscore.Internal_Hbond.Weighted>
0.0000

> <Gold.Chemscore.DEClash.Weighted>
0.0552

> <Gold.Chemscore.DEInternal.Weighted>
0.7042

> <Gold.Chemscore.Rot.Weighted>
3.8674

> <Gold.Chemscore.Internal.Correction.Weighted>
   9.000000E+99

> <Gold.Protein.RotatedTorsions>
[ 6907 6896 6895 6894 ] final -123.45 input  -60.11 | X-H torsion
[ 7974 7965 7964 7962 ] final  -50.30 input  175.53 | X-H torsion
[ 8008 7997 7996 7995 ] final  106.50 input   59.86 | X-H torsion
[ 10167 10162 10161 10158 ] final   41.65 input  -65.29 | X-H torsion
[ 10718 10713 10712 10709 ] final  122.04 input   66.30 | X-H torsion
[ 10763 10752 10751 10750 ] final  -34.51 input  -60.55 | X-H torsion
[ 11005 11000 10999 10996 ] final -108.32 input  -57.11 | X-H torsion

> <Gold.Protein.ActiveResidues>
 VAL166  LYS551  ARG553  GLY616  TRP617  ASP618  TYR619  PRO620  LYS621  CYS622 
 ASP623  PHE694  ASN695  SER759  ASP760  ASP761  ALA762  ILE779  LEU786  VAL792 
 PHE793  MET794  SER795  GLU796  ALA797  LYS798  CYS799  TRP800  GLU811  SER814 

> <Gold.Protein.RotatedAtoms>
  150.8672  133.7558  159.2972 H   0  0  0  0  0  0  0  0  0  0  0  0  # atno 6907 bound_to 6896
  151.5181  135.1065  159.9881 H   0  0  0  0  0  0  0  0  0  0  0  0  # atno 6908 bound_to 6896
  152.4669  133.7899  159.6952 H   0  0  0  0  0  0  0  0  0  0  0  0  # atno 6909 bound_to 6896
  145.9313  140.7747  142.9598 H   0  0  0  0  0  0  0  0  0  0  0  0  # atno 7974 bound_to 7965
  156.1747  140.3112  155.9038 H   0  0  0  0  0  0  0  0  0  0  0  0  # atno 8008 bound_to 7997
  155.3511  140.0471  157.3063 H   0  0  0  0  0  0  0  0  0  0  0  0  # atno 8009 bound_to 7997
  154.5278  140.2220  155.8869 H   0  0  0  0  0  0  0  0  0  0  0  0  # atno 8010 bound_to 7997
  140.3622  144.2213  150.6137 H   0  0  0  0  0  0  0  0  0  0  0  0  # atno 10167 bound_to 10162
  157.5772  131.1078  150.8256 H   0  0  0  0  0  0  0  0  0  0  0  0  # atno 10718 bound_to 10713
  153.8479  135.6851  153.4795 H   0  0  0  0  0  0  0  0  0  0  0  0  # atno 10763 bound_to 10752
  153.1415  135.4655  154.9500 H   0  0  0  0  0  0  0  0  0  0  0  0  # atno 10764 bound_to 10752
  154.7816  135.3270  154.7926 H   0  0  0  0  0  0  0  0  0  0  0  0  # atno 10765 bound_to 10752
  141.0908  133.9058  157.2080 H   0  0  0  0  0  0  0  0  0  0  0  0  # atno 11005 bound_to 11000
  144.6765  140.2131  143.7375 LP  0  0  0  0  0  0  0  0  0  0  0  0  # atno 17320 bound_to 7965
  145.8422  139.2135  143.1820 LP  0  0  0  0  0  0  0  0  0  0  0  0  # atno 17321 bound_to 7965
  140.5115  143.2289  151.8527 LP  0  0  0  0  0  0  0  0  0  0  0  0  # atno 17342 bound_to 10162
  139.4813  144.4944  151.9143 LP  0  0  0  0  0  0  0  0  0  0  0  0  # atno 17343 bound_to 10162
  156.8711  130.5146  149.5296 LP  0  0  0  0  0  0  0  0  0  0  0  0  # atno 17370 bound_to 10713
  156.0817  130.5826  150.9575 LP  0  0  0  0  0  0  0  0  0  0  0  0  # atno 17371 bound_to 10713
  139.9733  135.0121  156.9568 LP  0  0  0  0  0  0  0  0  0  0  0  0  # atno 17394 bound_to 11000
  140.5257  134.0863  155.7303 LP  0  0  0  0  0  0  0  0  0  0  0  0  # atno 17395 bound_to 11000

$$$$
