AV-unprocessed.smi:3345|AV-procd|sdf|12902|dock3
  -GOLD-   2272019313D 1   1.00000     0.00000
 Structure written by MMmdl.
 40 41  0  0  0  0  0  0  0  0  1 V2000
  152.3284  139.9265  158.0019 C   0  0  0  0  0  0  0  0  0  0  0  0
  151.0331  140.7476  157.9665 C   0  0  1  0  0  0  0  0  0  0  0  0
  151.3204  142.2619  157.8730 C   0  0  0  0  0  0  0  0  0  0  0  0
  151.1846  143.0061  159.1275 N   0  0  0  0  0  0  0  0  0  0  0  0
  152.2407  142.6956  160.0878 C   0  0  0  0  0  0  0  0  0  0  0  0
  152.0734  143.4890  161.3951 C   0  0  0  0  0  0  0  0  0  0  0  0
  152.0403  144.8832  161.1078 O   0  0  0  0  0  0  0  0  0  0  0  0
  150.9966  145.2340  160.2050 C   0  0  0  0  0  0  0  0  0  0  0  0
  151.1607  144.4450  158.8944 C   0  0  0  0  0  0  0  0  0  0  0  0
  150.2248  140.3358  156.8214 N   0  0  0  0  0  0  0  0  0  0  0  0
  150.6690  140.1672  155.5655 C   0  0  0  0  0  0  0  0  0  0  0  0
  151.7886  140.5156  155.1889 O   0  0  0  0  0  0  0  0  0  0  0  0
  149.7059  139.4490  154.6087 C   0  0  1  0  0  0  0  0  0  0  0  0
  149.2047  138.0982  155.1601 C   0  0  0  0  0  0  0  0  0  0  0  0
  148.6105  140.3471  154.2591 N   0  0  0  0  0  0  0  0  0  0  0  0
  148.4068  141.6222  154.5988 C   0  0  0  0  0  0  0  0  0  0  0  0
  147.2587  142.1204  154.1624 N   0  0  0  0  0  0  0  0  0  0  0  0
  146.7604  141.0193  153.5262 C   0  0  0  0  0  0  0  0  0  0  0  0
  147.5241  139.9277  153.5633 N   0  0  0  0  0  0  0  0  0  0  0  0
  152.9470  140.2093  158.8540 H   0  0  0  0  0  0  0  0  0  0  0  0
  152.9200  140.0746  157.0977 H   0  0  0  0  0  0  0  0  0  0  0  0
  152.1147  138.8607  158.0897 H   0  0  0  0  0  0  0  0  0  0  0  0
  150.5037  140.5483  158.8991 H   0  0  0  0  0  0  0  0  0  0  0  0
  152.3179  142.4182  157.4597 H   0  0  0  0  0  0  0  0  0  0  0  0
  150.6282  142.6849  157.1432 H   0  0  0  0  0  0  0  0  0  0  0  0
  152.2388  141.6326  160.3251 H   0  0  0  0  0  0  0  0  0  0  0  0
  153.2155  142.9176  159.6512 H   0  0  0  0  0  0  0  0  0  0  0  0
  151.1580  143.1943  161.9101 H   0  0  0  0  0  0  0  0  0  0  0  0
  152.9022  143.2833  162.0726 H   0  0  0  0  0  0  0  0  0  0  0  0
  150.0277  145.0284  160.6618 H   0  0  0  0  0  0  0  0  0  0  0  0
  151.0376  146.3057  160.0104 H   0  0  0  0  0  0  0  0  0  0  0  0
  152.0818  144.7552  158.3986 H   0  0  0  0  0  0  0  0  0  0  0  0
  150.3422  144.6972  158.2192 H   0  0  0  0  0  0  0  0  0  0  0  0
  149.2847  140.0311  157.0269 H   0  0  0  0  0  0  0  0  0  0  0  0
  150.2555  139.2403  153.6892 H   0  0  0  0  0  0  0  0  0  0  0  0
  150.0372  137.4218  155.3566 H   0  0  0  0  0  0  0  0  0  0  0  0
  148.5474  137.6062  154.4429 H   0  0  0  0  0  0  0  0  0  0  0  0
  148.6480  138.2152  156.0909 H   0  0  0  0  0  0  0  0  0  0  0  0
  149.1088  142.1948  155.1869 H   0  0  0  0  0  0  0  0  0  0  0  0
  145.8015  141.0193  153.0292 H   0  0  0  0  0  0  0  0  0  0  0  0
  1  2  1  0  0  0  0
  1 20  1  0  0  0  0
  1 21  1  0  0  0  0
  1 22  1  0  0  0  0
  2  3  1  0  0  0  0
  2 10  1  0  0  0  0
  2 23  1  0  0  0  0
  3  4  1  0  0  0  0
  3 24  1  0  0  0  0
  3 25  1  0  0  0  0
  4  9  1  0  0  0  0
  4  5  1  0  0  0  0
  5  6  1  0  0  0  0
  5 26  1  0  0  0  0
  5 27  1  0  0  0  0
  6  7  1  0  0  0  0
  6 28  1  0  0  0  0
  6 29  1  0  0  0  0
  7  8  1  0  0  0  0
  8  9  1  0  0  0  0
  8 30  1  0  0  0  0
  8 31  1  0  0  0  0
  9 32  1  0  0  0  0
  9 33  1  0  0  0  0
 10 11  1  0  0  0  0
 10 34  1  0  0  0  0
 11 12  2  0  0  0  0
 11 13  1  0  0  0  0
 13 14  1  0  0  0  0
 13 15  1  0  0  0  0
 13 35  1  0  0  0  0
 14 36  1  0  0  0  0
 14 37  1  0  0  0  0
 14 38  1  0  0  0  0
 15 19  1  0  0  0  0
 15 16  1  0  0  0  0
 16 17  2  0  0  0  0
 16 39  1  0  0  0  0
 17 18  1  0  0  0  0
 18 19  2  0  0  0  0
 18 40  1  0  0  0  0
M  END
> <s_m_source_file>
AV-unprocessed.smi

> <i_m_source_file_index>
3345

> <i_lp_mmshare_version>
43012

> <i_f3d_flags>
0

> <s_epik_input>
W0NIMl0xW0NIMl1PW0NIMl1bQ0gyXU4xW0NIMl1bQ0BASF0oW0NIM10pW05IXUMoPU8pW0NASF0oW0NIM10pbjJbY0hdbltjSF1uMg==

> <s_epik_cmdline>
J2VwaWtfcHl0aG9uJywgJy1waCcsICc3LjAnLCAnLXRuJywgJzgnLCAnLW1hJywgJzIwMCcsICctbWV0YWxfYmluZGluZycsICctaW1hZScsICc8aW5maWxlLm1hZT4nLCAnLW9tYWUnLCAnPG91dGZpbGUubWFlPic=

> <r_lp_tautomer_probability>
1

> <r_epik_Ionization_Penalty>
0.211373

> <r_epik_Ionization_Penalty_Charging>
0

> <r_epik_Ionization_Penalty_Neutral>
0.211373

> <r_epik_State_Penalty>
0.201459

> <r_epik_Charging_Adjusted_Penalty>
0.201459

> <i_epik_Tot_Q>
0

> <i_epik_Tot_abs_Q>
0

> <r_epik_Metal_State_Penalty>
0.201458

> <b_epik_Metal_Only>
0

> <s_lp_Force_Field>
OPLS_2005

> <r_lp_Energy>
29.1888

> <b_lp_Chiralities_Consistent>
1

> <s_lp_Variant>
AV-unprocessed.smi:3345-4

> <Gold.Version>
5.8.1

> <Gold.Id.Protein>
6NUR|6NUR_protein|mol2

> <Gold.PLP.Fitness>
40.7844

> <Gold.PLP.PLP>
-35.4183

> <Gold.PLP.part.hbond>
-1.0000

> <Gold.PLP.part.metal>
0.0000

> <Gold.PLP.part.buried>
-3.3643

> <Gold.PLP.part.nonpolar>
-32.2089

> <Gold.PLP.part.repulsive>
0.6322

> <Gold.PLP.ligand.clash>
0.0000

> <Gold.PLP.ligand.torsion>
1.1875

> <Gold.PLP.Chemscore.Hbond>
0.7520

> <Gold.PLP.Chemscore.CHOScore>
1.7400

> <Gold.PLP.Chemscore.Metal>
0.0000

> <Gold.Chemscore.Hbonds>
donor molecule, donor type, donor heavy atom, donor atom, acceptor molecule, acceptor atom, score
      P1  H  7989  7998       L1    12  0.74
      L1  C    16    39       P1  8028  0.78
      L1  C    18    40       P1 10175  1.00

> <Gold.PLP.Chemscore.Internal.Correction>
0.2649

> <Gold.Rescore>
     Score         DG    S(hbond)    S(metal)    S(lipo)     H(rot)  DE(clash)    DE(int)     intcor
      7.85     -10.11       0.90        0.00      69.29       2.54       0.06       2.20       ----

> <Gold.Chemscore.Fitness>
7.8473

> <Gold.Chemscore.DG>
-10.1067

> <Gold.Chemscore.ZeroCoef>
-5.4800

> <Gold.Chemscore.Hbond>
0.9012

> <Gold.Chemscore.Metal>
0.0000

> <Gold.Chemscore.Lipo>
69.2908

> <Gold.Chemscore.Internal_Hbond>
0.0000

> <Gold.Chemscore.DEClash>
0.0580

> <Gold.Chemscore.DEInternal>
2.2015

> <Gold.Chemscore.Rot>
2.5353

> <Gold.Chemscore.Internal.Correction>
   9.000000E+99

> <Gold.Chemscore.Hbonds>
donor molecule, donor type, donor heavy atom, donor atom, acceptor molecule, acceptor atom, score
      P1  H  7989  7998       L1    12  0.45

> <Gold.Chemscore.Hbond.Weighted>
-3.0102

> <Gold.Chemscore.Metal.Weighted>
-0.0000

> <Gold.Chemscore.Lipo.Weighted>
-8.1070

> <Gold.Chemscore.Internal_Hbond.Weighted>
0.0000

> <Gold.Chemscore.DEClash.Weighted>
0.0580

> <Gold.Chemscore.DEInternal.Weighted>
2.2015

> <Gold.Chemscore.Rot.Weighted>
6.4905

> <Gold.Chemscore.Internal.Correction.Weighted>
   9.000000E+99

> <Gold.Protein.RotatedTorsions>
[ 6907 6896 6895 6894 ] final  -88.90 input  -60.11 | X-H torsion
[ 7974 7965 7964 7962 ] final  -55.28 input  175.53 | X-H torsion
[ 8008 7997 7996 7995 ] final  -67.50 input   59.86 | X-H torsion
[ 10167 10162 10161 10158 ] final   50.34 input  -65.29 | X-H torsion
[ 10718 10713 10712 10709 ] final -126.07 input   66.30 | X-H torsion
[ 10763 10752 10751 10750 ] final  -37.59 input  -60.55 | X-H torsion
[ 11005 11000 10999 10996 ] final  165.89 input  -57.11 | X-H torsion

> <Gold.Protein.ActiveResidues>
 VAL166  LYS551  ARG553  GLY616  TRP617  ASP618  TYR619  PRO620  LYS621  CYS622 
 ASP623  PHE694  ASN695  SER759  ASP760  ASP761  ALA762  ILE779  LEU786  VAL792 
 PHE793  MET794  SER795  GLU796  ALA797  LYS798  CYS799  TRP800  GLU811  SER814 

> <Gold.Protein.RotatedAtoms>
  150.6871  134.2670  159.4572 H   0  0  0  0  0  0  0  0  0  0  0  0  # atno 6907 bound_to 6896
  152.0595  134.9601  160.0584 H   0  0  0  0  0  0  0  0  0  0  0  0  # atno 6908 bound_to 6896
  152.1033  133.4227  159.4634 H   0  0  0  0  0  0  0  0  0  0  0  0  # atno 6909 bound_to 6896
  145.8760  140.8180  142.9864 H   0  0  0  0  0  0  0  0  0  0  0  0  # atno 7974 bound_to 7965
  154.4804  140.0891  156.7363 H   0  0  0  0  0  0  0  0  0  0  0  0  # atno 8008 bound_to 7997
  155.4486  140.3456  155.4280 H   0  0  0  0  0  0  0  0  0  0  0  0  # atno 8009 bound_to 7997
  156.1182  140.1467  156.9230 H   0  0  0  0  0  0  0  0  0  0  0  0  # atno 8010 bound_to 7997
  140.2734  144.3239  150.6284 H   0  0  0  0  0  0  0  0  0  0  0  0  # atno 10167 bound_to 10162
  156.1732  130.6681  151.0207 H   0  0  0  0  0  0  0  0  0  0  0  0  # atno 10718 bound_to 10713
  153.8987  135.6804  153.4756 H   0  0  0  0  0  0  0  0  0  0  0  0  # atno 10763 bound_to 10752
  153.1141  135.4769  154.9083 H   0  0  0  0  0  0  0  0  0  0  0  0  # atno 10764 bound_to 10752
  154.7586  135.3204  154.8376 H   0  0  0  0  0  0  0  0  0  0  0  0  # atno 10765 bound_to 10752
  140.2608  134.7904  157.3588 H   0  0  0  0  0  0  0  0  0  0  0  0  # atno 11005 bound_to 11000
  144.6726  140.1311  143.7443 LP  0  0  0  0  0  0  0  0  0  0  0  0  # atno 17320 bound_to 7965
  145.9080  139.2470  143.1454 LP  0  0  0  0  0  0  0  0  0  0  0  0  # atno 17321 bound_to 7965
  140.5871  143.2169  151.7322 LP  0  0  0  0  0  0  0  0  0  0  0  0  # atno 17342 bound_to 10162
  139.4982  144.3995  152.0196 LP  0  0  0  0  0  0  0  0  0  0  0  0  # atno 17343 bound_to 10162
  157.6817  131.0836  150.7352 LP  0  0  0  0  0  0  0  0  0  0  0  0  # atno 17370 bound_to 10713
  156.7410  130.4739  149.5477 LP  0  0  0  0  0  0  0  0  0  0  0  0  # atno 17371 bound_to 10713
  140.1467  134.4903  155.7991 LP  0  0  0  0  0  0  0  0  0  0  0  0  # atno 17394 bound_to 11000
  141.2190  133.6846  156.7305 LP  0  0  0  0  0  0  0  0  0  0  0  0  # atno 17395 bound_to 11000

$$$$
