AV-unprocessed.smi:1232|AV-procd|sdf|5169|dock5
  -GOLD-   22720 4243D 1   1.00000     0.00000
 Structure written by MMmdl.
 53 54  0  0  0  0  0  0  0  0  1 V2000
  146.1645  135.9044  154.0852 C   0  0  0  0  0  0  0  0  0  0  0  0
  147.1920  135.4017  155.0930 C   0  0  0  0  0  0  0  0  0  0  0  0
  146.8640  135.2015  156.2620 O   0  0  0  0  0  0  0  0  0  0  0  0
  148.4336  135.1981  154.6248 N   0  0  0  0  0  0  0  0  0  0  0  0
  149.5741  134.7280  155.4137 C   0  0  2  0  0  0  0  0  0  0  0  0
  150.7286  135.7372  155.2653 C   0  0  0  0  0  0  0  0  0  0  0  0
  151.7358  135.6434  155.9688 O   0  0  0  0  0  0  0  0  0  0  0  0
  150.5544  136.7099  154.3573 N   0  0  0  0  0  0  0  0  0  0  0  0
  151.5053  137.7840  154.0921 C   0  0  0  0  0  0  0  0  0  0  0  0
  151.6552  138.7633  155.2463 C   0  0  0  0  0  0  0  0  0  0  0  0
  150.7707  139.8508  155.3824 C   0  0  0  0  0  0  0  0  0  0  0  0
  150.9424  140.7406  156.4600 C   0  0  0  0  0  0  0  0  0  0  0  0
  151.9951  140.5177  157.3796 C   0  0  0  0  0  0  0  0  0  0  0  0
  152.1903  141.4014  158.4627 N   0  0  0  0  0  0  0  0  0  0  0  0
  152.5339  140.8282  159.7622 C   0  0  0  0  0  0  0  0  0  0  0  0
  152.9922  141.9324  160.7284 C   0  0  0  0  0  0  0  0  0  0  0  0
  151.9885  142.9384  160.8159 O   0  0  0  0  0  0  0  0  0  0  0  0
  151.7452  143.5653  159.5594 C   0  0  2  0  0  0  0  0  0  0  0  0
  150.7235  144.6873  159.7722 C   0  0  0  0  0  0  0  0  0  0  0  0
  151.2451  142.5113  158.5524 C   0  0  0  0  0  0  0  0  0  0  0  0
  152.8420  139.4669  157.2468 N   0  0  0  0  0  0  0  0  0  0  0  0
  152.6705  138.6155  156.2145 C   0  0  0  0  0  0  0  0  0  0  0  0
  150.0073  133.3294  154.8816 C   0  0  0  0  0  0  0  0  0  0  0  0
  148.8154  132.3549  154.8052 C   0  0  0  0  0  0  0  0  0  0  0  0
  151.1358  132.6827  155.7119 C   0  0  0  0  0  0  0  0  0  0  0  0
  146.5971  136.6689  153.4389 H   0  0  0  0  0  0  0  0  0  0  0  0
  145.3042  136.3389  154.5955 H   0  0  0  0  0  0  0  0  0  0  0  0
  145.8145  135.0815  153.4615 H   0  0  0  0  0  0  0  0  0  0  0  0
  148.6094  135.3959  153.6505 H   0  0  0  0  0  0  0  0  0  0  0  0
  149.2861  134.6428  156.4638 H   0  0  0  0  0  0  0  0  0  0  0  0
  149.7001  136.7103  153.8186 H   0  0  0  0  0  0  0  0  0  0  0  0
  152.4767  137.3619  153.8283 H   0  0  0  0  0  0  0  0  0  0  0  0
  151.1610  138.3359  153.2173 H   0  0  0  0  0  0  0  0  0  0  0  0
  149.9763  140.0097  154.6680 H   0  0  0  0  0  0  0  0  0  0  0  0
  150.2808  141.5885  156.5572 H   0  0  0  0  0  0  0  0  0  0  0  0
  151.6643  140.3118  160.1711 H   0  0  0  0  0  0  0  0  0  0  0  0
  153.3306  140.0912  159.6518 H   0  0  0  0  0  0  0  0  0  0  0  0
  153.1646  141.5146  161.7203 H   0  0  0  0  0  0  0  0  0  0  0  0
  153.9359  142.3703  160.3993 H   0  0  0  0  0  0  0  0  0  0  0  0
  152.6746  144.0073  159.1953 H   0  0  0  0  0  0  0  0  0  0  0  0
  150.5113  145.2073  158.8378 H   0  0  0  0  0  0  0  0  0  0  0  0
  151.0958  145.4235  160.4849 H   0  0  0  0  0  0  0  0  0  0  0  0
  149.7822  144.2957  160.1588 H   0  0  0  0  0  0  0  0  0  0  0  0
  151.0934  142.9881  157.5851 H   0  0  0  0  0  0  0  0  0  0  0  0
  150.2766  142.1201  158.8675 H   0  0  0  0  0  0  0  0  0  0  0  0
  153.3694  137.7937  156.1620 H   0  0  0  0  0  0  0  0  0  0  0  0
  150.3865  133.4487  153.8650 H   0  0  0  0  0  0  0  0  0  0  0  0
  148.3645  132.2061  155.7871 H   0  0  0  0  0  0  0  0  0  0  0  0
  149.1292  131.3788  154.4343 H   0  0  0  0  0  0  0  0  0  0  0  0
  148.0364  132.7135  154.1323 H   0  0  0  0  0  0  0  0  0  0  0  0
  150.8594  132.6060  156.7639 H   0  0  0  0  0  0  0  0  0  0  0  0
  152.0653  133.2480  155.6493 H   0  0  0  0  0  0  0  0  0  0  0  0
  151.3594  131.6772  155.3546 H   0  0  0  0  0  0  0  0  0  0  0  0
  1  2  1  0  0  0  0
  1 26  1  0  0  0  0
  1 27  1  0  0  0  0
  1 28  1  0  0  0  0
  2  3  2  0  0  0  0
  2  4  1  0  0  0  0
  4  5  1  0  0  0  0
  4 29  1  0  0  0  0
  5  6  1  0  0  0  0
  5 23  1  0  0  0  0
  5 30  1  0  0  0  0
  6  7  2  0  0  0  0
  6  8  1  0  0  0  0
  8  9  1  0  0  0  0
  8 31  1  0  0  0  0
  9 10  1  0  0  0  0
  9 32  1  0  0  0  0
  9 33  1  0  0  0  0
 10 22  1  0  0  0  0
 10 11  2  0  0  0  0
 11 12  1  0  0  0  0
 11 34  1  0  0  0  0
 12 13  2  0  0  0  0
 12 35  1  0  0  0  0
 13 14  1  0  0  0  0
 13 21  1  0  0  0  0
 14 20  1  0  0  0  0
 14 15  1  0  0  0  0
 15 16  1  0  0  0  0
 15 36  1  0  0  0  0
 15 37  1  0  0  0  0
 16 17  1  0  0  0  0
 16 38  1  0  0  0  0
 16 39  1  0  0  0  0
 17 18  1  0  0  0  0
 18 19  1  0  0  0  0
 18 20  1  0  0  0  0
 18 40  1  0  0  0  0
 19 41  1  0  0  0  0
 19 42  1  0  0  0  0
 19 43  1  0  0  0  0
 20 44  1  0  0  0  0
 20 45  1  0  0  0  0
 21 22  2  0  0  0  0
 22 46  1  0  0  0  0
 23 24  1  0  0  0  0
 23 25  1  0  0  0  0
 23 47  1  0  0  0  0
 24 48  1  0  0  0  0
 24 49  1  0  0  0  0
 24 50  1  0  0  0  0
 25 51  1  0  0  0  0
 25 52  1  0  0  0  0
 25 53  1  0  0  0  0
M  END
> <s_m_source_file>
AV-unprocessed.smi

> <i_m_source_file_index>
1232

> <i_lp_mmshare_version>
43012

> <i_f3d_flags>
0

> <s_epik_input>
W0NIM11DKD1PKVtOSF1bQ0BASF0oW0NIXShbQ0gzXSlbQ0gzXSlDKD1PKVtOSF1bQ0gyXWMxW2NIXVtjSF1jKG5bY0hdMSlOMltDSDJdW0NIMl1PW0NAQEhdKFtDSDNdKVtDSDJdMg==

> <s_epik_cmdline>
J2VwaWtfcHl0aG9uJywgJy1waCcsICc3LjAnLCAnLXRuJywgJzgnLCAnLW1hJywgJzIwMCcsICctbWV0YWxfYmluZGluZycsICctaW1hZScsICc8aW5maWxlLm1hZT4nLCAnLW9tYWUnLCAnPG91dGZpbGUubWFlPic=

> <r_lp_tautomer_probability>
1

> <r_epik_Ionization_Penalty>
0.00557618

> <r_epik_Ionization_Penalty_Charging>
0

> <r_epik_Ionization_Penalty_Neutral>
0.00557618

> <r_epik_State_Penalty>
0.00408363

> <r_epik_Charging_Adjusted_Penalty>
0.00408363

> <i_epik_Tot_Q>
0

> <i_epik_Tot_abs_Q>
0

> <r_epik_Metal_State_Penalty>
-0

> <b_epik_Metal_Only>
0

> <s_lp_Force_Field>
OPLS_2005

> <r_lp_Energy>
16.2808

> <b_lp_Chiralities_Consistent>
1

> <s_lp_Variant>
AV-unprocessed.smi:1232-3

> <Gold.Version>
5.8.1

> <Gold.Id.Protein>
6NUR|6NUR_protein|mol2

> <Gold.PLP.Fitness>
54.6939

> <Gold.PLP.PLP>
-44.6562

> <Gold.PLP.part.hbond>
-5.1066

> <Gold.PLP.part.metal>
0.0000

> <Gold.PLP.part.buried>
-3.1755

> <Gold.PLP.part.nonpolar>
-36.4730

> <Gold.PLP.part.repulsive>
0.1951

> <Gold.PLP.ligand.clash>
0.0000

> <Gold.PLP.ligand.torsion>
0.8748

> <Gold.PLP.Chemscore.Hbond>
3.7760

> <Gold.PLP.Chemscore.CHOScore>
0.0000

> <Gold.PLP.Chemscore.Metal>
0.0000

> <Gold.Chemscore.Hbonds>
donor molecule, donor type, donor heavy atom, donor atom, acceptor molecule, acceptor atom, score
      L1  H     4    29       P1  7948  1.00
      L1  H     8    31       P1  7948  0.62
      P1  H  7997  8008       L1    21  0.83
      P1  H 10752 10765       L1     7  1.00

> <Gold.PLP.Chemscore.Internal.Correction>
0.4593

> <Gold.Rescore>
     Score         DG    S(hbond)    S(metal)    S(lipo)     H(rot)  DE(clash)    DE(int)     intcor
     20.31     -22.38       2.94        0.00     107.14       2.13       0.22       1.85       ----

> <Gold.Chemscore.Fitness>
20.3092

> <Gold.Chemscore.DG>
-22.3804

> <Gold.Chemscore.ZeroCoef>
-5.4800

> <Gold.Chemscore.Hbond>
2.9408

> <Gold.Chemscore.Metal>
0.0000

> <Gold.Chemscore.Lipo>
107.1399

> <Gold.Chemscore.Internal_Hbond>
0.0000

> <Gold.Chemscore.DEClash>
0.2238

> <Gold.Chemscore.DEInternal>
1.8473

> <Gold.Chemscore.Rot>
2.1317

> <Gold.Chemscore.Internal.Correction>
   9.000000E+99

> <Gold.Chemscore.Hbonds>
donor molecule, donor type, donor heavy atom, donor atom, acceptor molecule, acceptor atom, score
      L1  H     4    29       P1  7948  0.93
      L1  H     8    31       P1  7948  0.40
      P1  H  7997  8008       L1    21  0.31
      P1  H 10752 10765       L1     7  0.60

> <Gold.Chemscore.Hbond.Weighted>
-9.8222

> <Gold.Chemscore.Metal.Weighted>
-0.0000

> <Gold.Chemscore.Lipo.Weighted>
-12.5354

> <Gold.Chemscore.Internal_Hbond.Weighted>
0.0000

> <Gold.Chemscore.DEClash.Weighted>
0.2238

> <Gold.Chemscore.DEInternal.Weighted>
1.8473

> <Gold.Chemscore.Rot.Weighted>
5.4572

> <Gold.Chemscore.Internal.Correction.Weighted>
   9.000000E+99

> <Gold.Protein.RotatedTorsions>
[ 6907 6896 6895 6894 ] final  130.08 input  -60.11 | X-H torsion
[ 7974 7965 7964 7962 ] final  -85.09 input  175.53 | X-H torsion
[ 8008 7997 7996 7995 ] final  -91.42 input   59.86 | X-H torsion
[ 10167 10162 10161 10158 ] final  -57.45 input  -65.29 | X-H torsion
[ 10718 10713 10712 10709 ] final   76.11 input   66.30 | X-H torsion
[ 10763 10752 10751 10750 ] final -159.89 input  -60.55 | X-H torsion
[ 11005 11000 10999 10996 ] final  163.91 input  -57.11 | X-H torsion

> <Gold.Protein.ActiveResidues>
 VAL166  LYS551  ARG553  GLY616  TRP617  ASP618  TYR619  PRO620  LYS621  CYS622 
 ASP623  PHE694  ASN695  SER759  ASP760  ASP761  ALA762  ILE779  LEU786  VAL792 
 PHE793  MET794  SER795  GLU796  ALA797  LYS798  CYS799  TRP800  GLU811  SER814 

> <Gold.Protein.RotatedAtoms>
  152.3561  133.6239  159.5980 H   0  0  0  0  0  0  0  0  0  0  0  0  # atno 6907 bound_to 6896
  150.7569  133.9498  159.3491 H   0  0  0  0  0  0  0  0  0  0  0  0  # atno 6908 bound_to 6896
  151.7343  135.0869  160.0356 H   0  0  0  0  0  0  0  0  0  0  0  0  # atno 6909 bound_to 6896
  145.4979  140.9549  143.1776 H   0  0  0  0  0  0  0  0  0  0  0  0  # atno 7974 bound_to 7965
  154.7105  140.0519  157.0546 H   0  0  0  0  0  0  0  0  0  0  0  0  # atno 8008 bound_to 7997
  155.0561  140.3184  155.4657 H   0  0  0  0  0  0  0  0  0  0  0  0  # atno 8009 bound_to 7997
  156.2788  140.2107  156.5687 H   0  0  0  0  0  0  0  0  0  0  0  0  # atno 8010 bound_to 7997
  140.6257  143.2437  151.5369 H   0  0  0  0  0  0  0  0  0  0  0  0  # atno 10167 bound_to 10162
  157.6660  130.9758  150.1449 H   0  0  0  0  0  0  0  0  0  0  0  0  # atno 10718 bound_to 10713
  154.7437  135.3075  154.8683 H   0  0  0  0  0  0  0  0  0  0  0  0  # atno 10763 bound_to 10752
  153.9490  135.6766  153.4748 H   0  0  0  0  0  0  0  0  0  0  0  0  # atno 10764 bound_to 10752
  153.1034  135.4901  154.8834 H   0  0  0  0  0  0  0  0  0  0  0  0  # atno 10765 bound_to 10752
  140.2405  134.8054  157.3406 H   0  0  0  0  0  0  0  0  0  0  0  0  # atno 11005 bound_to 11000
  144.7796  139.6554  143.7160 LP  0  0  0  0  0  0  0  0  0  0  0  0  # atno 17320 bound_to 7965
  146.2244  139.5695  142.9597 LP  0  0  0  0  0  0  0  0  0  0  0  0  # atno 17321 bound_to 7965
  139.5478  144.2475  152.1474 LP  0  0  0  0  0  0  0  0  0  0  0  0  # atno 17342 bound_to 10162
  140.1706  144.4939  150.6581 LP  0  0  0  0  0  0  0  0  0  0  0  0  # atno 17343 bound_to 10162
  156.2263  130.3678  149.8497 LP  0  0  0  0  0  0  0  0  0  0  0  0  # atno 17370 bound_to 10713
  156.6336  130.8676  151.3500 LP  0  0  0  0  0  0  0  0  0  0  0  0  # atno 17371 bound_to 10713
  140.1658  134.4671  155.7864 LP  0  0  0  0  0  0  0  0  0  0  0  0  # atno 17394 bound_to 11000
  141.2211  133.6920  156.7622 LP  0  0  0  0  0  0  0  0  0  0  0  0  # atno 17395 bound_to 11000

$$$$
