AV-unprocessed.smi:278|AV-procd|sdf|2088|dock9
  -GOLD-   2262021363D 1   1.00000     0.00000
 Structure written by MMmdl.
 50 54  0  0  0  0  0  0  0  0  1 V2000
  146.7499  139.4356  156.7003 O   0  0  0  0  0  0  0  0  0  0  0  0
  145.8831  140.0209  155.6655 S   0  0  0  0  0  0  0  0  0  0  0  0
  144.5887  139.4064  155.3341 O   0  0  0  0  0  0  0  0  0  0  0  0
  145.6212  141.7981  156.0396 C   0  0  0  0  0  0  0  0  0  0  0  0
  146.0750  142.5715  154.7941 C   0  0  0  0  0  0  0  0  0  0  0  0
  147.1739  141.7689  154.0735 C   0  0  1  0  0  0  0  0  0  0  0  0
  148.5380  141.8211  154.7700 C   0  0  0  0  0  0  0  0  0  0  0  0
  149.1826  140.5532  154.4538 N   0  0  0  0  0  0  0  0  0  0  0  0
  150.3263  140.1766  155.0845 C   0  0  0  0  0  0  0  0  0  0  0  0
  151.3044  139.5666  154.3625 N   0  0  0  0  0  0  0  0  0  0  0  0
  152.4490  139.1959  154.9431 C   0  0  0  0  0  0  0  0  0  0  0  0
  152.8192  139.3309  156.2171 N   0  0  0  0  0  0  0  0  0  0  0  0
  151.8377  139.9236  156.9542 C   0  0  0  0  0  0  0  0  0  0  0  0
  150.5714  140.3693  156.4768 C   0  0  0  0  0  0  0  0  0  0  0  0
  149.8397  140.9067  157.5314 N   0  0  0  0  0  0  0  0  0  0  0  0
  150.6306  140.7996  158.5635 C   0  0  0  0  0  0  0  0  0  0  0  0
  151.8541  140.2276  158.3033 N   0  0  0  0  0  0  0  0  0  0  0  0
  152.9291  139.9973  159.2519 C   0  0  0  0  0  0  0  0  0  0  0  0
  153.5278  138.5824  159.1234 C   0  0  1  0  0  0  0  0  0  0  0  0
  154.9061  138.6892  158.8207 O   0  0  0  0  0  0  0  0  0  0  0  0
  153.3609  137.7555  160.4115 C   0  0  2  0  0  0  0  0  0  0  0  0
  154.2563  138.2029  161.5696 C   0  0  0  0  0  0  0  0  0  0  0  0
  154.3573  136.9362  162.3869 C   0  0  0  0  0  0  0  0  0  0  0  0
  154.4482  135.8748  161.2957 C   0  0  0  0  0  0  0  0  0  0  0  0
  153.7273  136.3958  160.1819 O   0  0  0  0  0  0  0  0  0  0  0  0
  148.1830  139.5550  154.0940 C   0  0  0  0  0  0  0  0  0  0  0  0
  146.8302  140.2795  154.1052 C   0  0  1  0  0  0  0  0  0  0  0  0
  147.2891  142.1031  153.0414 H   0  0  0  0  0  0  0  0  0  0  0  0
  146.1926  139.9855  153.2711 H   0  0  0  0  0  0  0  0  0  0  0  0
  144.5774  141.9794  156.2969 H   0  0  0  0  0  0  0  0  0  0  0  0
  146.2384  142.0538  156.9011 H   0  0  0  0  0  0  0  0  0  0  0  0
  145.2242  142.6743  154.1196 H   0  0  0  0  0  0  0  0  0  0  0  0
  146.4032  143.5811  155.0431 H   0  0  0  0  0  0  0  0  0  0  0  0
  149.1320  142.6668  154.4217 H   0  0  0  0  0  0  0  0  0  0  0  0
  148.4217  141.9094  155.8511 H   0  0  0  0  0  0  0  0  0  0  0  0
  153.1728  138.7270  154.2928 H   0  0  0  0  0  0  0  0  0  0  0  0
  150.3445  141.1436  159.5470 H   0  0  0  0  0  0  0  0  0  0  0  0
  153.6994  140.7544  159.0989 H   0  0  0  0  0  0  0  0  0  0  0  0
  152.5332  140.1534  160.2561 H   0  0  0  0  0  0  0  0  0  0  0  0
  153.0429  138.0593  158.2981 H   0  0  0  0  0  0  0  0  0  0  0  0
  155.3814  138.7977  159.6304 H   0  0  0  0  0  0  0  0  0  0  0  0
  152.3198  137.7674  160.7387 H   0  0  0  0  0  0  0  0  0  0  0  0
  155.2440  138.4908  161.2057 H   0  0  0  0  0  0  0  0  0  0  0  0
  153.8409  139.0409  162.1299 H   0  0  0  0  0  0  0  0  0  0  0  0
  155.2110  136.9273  163.0650 H   0  0  0  0  0  0  0  0  0  0  0  0
  153.4492  136.7968  162.9749 H   0  0  0  0  0  0  0  0  0  0  0  0
  155.4861  135.7260  160.9953 H   0  0  0  0  0  0  0  0  0  0  0  0
  154.0471  134.9130  161.6161 H   0  0  0  0  0  0  0  0  0  0  0  0
  148.4057  139.1934  153.0899 H   0  0  0  0  0  0  0  0  0  0  0  0
  148.1872  138.6955  154.7643 H   0  0  0  0  0  0  0  0  0  0  0  0
  1  2  2  0  0  0  0
  2 27  1  0  0  0  0
  2  3  2  0  0  0  0
  2  4  1  0  0  0  0
  4  5  1  0  0  0  0
  4 30  1  0  0  0  0
  4 31  1  0  0  0  0
  5  6  1  0  0  0  0
  5 32  1  0  0  0  0
  5 33  1  0  0  0  0
  6 28  1  0  0  0  0
  6 27  1  0  0  0  0
  6  7  1  0  0  0  0
  7  8  1  0  0  0  0
  7 34  1  0  0  0  0
  7 35  1  0  0  0  0
  8  9  1  0  0  0  0
  8 26  1  0  0  0  0
  9 14  1  0  0  0  0
  9 10  2  0  0  0  0
 10 11  1  0  0  0  0
 11 12  2  0  0  0  0
 11 36  1  0  0  0  0
 12 13  1  0  0  0  0
 13 17  1  0  0  0  0
 13 14  2  0  0  0  0
 14 15  1  0  0  0  0
 15 16  2  0  0  0  0
 16 17  1  0  0  0  0
 16 37  1  0  0  0  0
 17 18  1  0  0  0  0
 18 19  1  0  0  0  0
 18 38  1  0  0  0  0
 18 39  1  0  0  0  0
 19 20  1  0  0  0  0
 19 21  1  0  0  0  0
 19 40  1  0  0  0  0
 20 41  1  0  0  0  0
 21 25  1  0  0  0  0
 21 22  1  0  0  0  0
 21 42  1  0  0  0  0
 22 23  1  0  0  0  0
 22 43  1  0  0  0  0
 22 44  1  0  0  0  0
 23 24  1  0  0  0  0
 23 45  1  0  0  0  0
 23 46  1  0  0  0  0
 24 25  1  0  0  0  0
 24 47  1  0  0  0  0
 24 48  1  0  0  0  0
 26 27  1  0  0  0  0
 26 49  1  0  0  0  0
 26 50  1  0  0  0  0
 27 29  1  0  0  0  0
M  END
> <s_m_source_file>
AV-unprocessed.smi

> <i_m_source_file_index>
278

> <i_lp_mmshare_version>
43012

> <i_f3d_flags>
0

> <s_epik_input>
W0NIMl0xW0NIMl1TKD1PKSg9TylbQ0BASF0oW0NAQEhdMTIpW0NIMl1OKFtDSDJdMiljKG5bY0hdbjMpYyhjMzQpbltjSF1uNFtDSDJdW0NASF0oW09IXSlbQ0BASF01W0NIMl1bQ0gyXVtDSDJdTzU=

> <s_epik_cmdline>
J2VwaWtfcHl0aG9uJywgJy1waCcsICc3LjAnLCAnLXRuJywgJzgnLCAnLW1hJywgJzIwMCcsICctbWV0YWxfYmluZGluZycsICctaW1hZScsICc8aW5maWxlLm1hZT4nLCAnLW9tYWUnLCAnPG91dGZpbGUubWFlPic=

> <r_lp_tautomer_probability>
1

> <r_epik_Ionization_Penalty>
0.000636766

> <r_epik_Ionization_Penalty_Charging>
0

> <r_epik_Ionization_Penalty_Neutral>
0.000636766

> <r_epik_State_Penalty>
0.000329976

> <r_epik_Charging_Adjusted_Penalty>
0.000329976

> <i_epik_Tot_Q>
0

> <i_epik_Tot_abs_Q>
0

> <r_epik_Metal_State_Penalty>
-0

> <b_epik_Metal_Only>
0

> <s_lp_Force_Field>
OPLS_2005

> <r_lp_Energy>
48.1975

> <b_lp_Chiralities_Consistent>
1

> <s_lp_Variant>
AV-unprocessed.smi:278-2

> <Gold.Version>
5.8.1

> <Gold.Id.Protein>
6NUR|6NUR_protein|mol2

> <Gold.PLP.Fitness>
48.2706

> <Gold.PLP.PLP>
-41.5703

> <Gold.PLP.part.hbond>
-3.8659

> <Gold.PLP.part.metal>
0.0000

> <Gold.PLP.part.buried>
-1.6400

> <Gold.PLP.part.nonpolar>
-36.4515

> <Gold.PLP.part.repulsive>
0.2707

> <Gold.PLP.ligand.clash>
0.0000

> <Gold.PLP.ligand.torsion>
2.0438

> <Gold.PLP.Chemscore.Hbond>
3.4975

> <Gold.PLP.Chemscore.CHOScore>
0.0000

> <Gold.PLP.Chemscore.Metal>
0.0000

> <Gold.Chemscore.Hbonds>
donor molecule, donor type, donor heavy atom, donor atom, acceptor molecule, acceptor atom, score
      P1  H  6896  6907       L1    25  0.76
      P1  H  7989  7998       L1    10  0.75
      P1  H  7997  8008       L1    20  0.96
      P1  H  7997  8009       L1    12  0.94

> <Gold.PLP.Chemscore.Internal.Correction>
0.2955

> <Gold.Rescore>
     Score         DG    S(hbond)    S(metal)    S(lipo)     H(rot)  DE(clash)    DE(int)     intcor
     12.36     -14.22       1.73        0.00      71.96       2.13       0.04       1.82       ----

> <Gold.Chemscore.Fitness>
12.3565

> <Gold.Chemscore.DG>
-14.2169

> <Gold.Chemscore.ZeroCoef>
-5.4800

> <Gold.Chemscore.Hbond>
1.7312

> <Gold.Chemscore.Metal>
0.0000

> <Gold.Chemscore.Lipo>
71.9588

> <Gold.Chemscore.Internal_Hbond>
0.0000

> <Gold.Chemscore.DEClash>
0.0414

> <Gold.Chemscore.DEInternal>
1.8190

> <Gold.Chemscore.Rot>
2.1346

> <Gold.Chemscore.Internal.Correction>
   9.000000E+99

> <Gold.Chemscore.Hbonds>
donor molecule, donor type, donor heavy atom, donor atom, acceptor molecule, acceptor atom, score
      P1  H  6896  6907       L1    25  0.19
      P1  H  7989  7998       L1    10  0.05
      P1  H  7997  8008       L1    20  0.73
      P1  H  7997  8009       L1    12  0.23

> <Gold.Chemscore.Hbond.Weighted>
-5.7823

> <Gold.Chemscore.Metal.Weighted>
-0.0000

> <Gold.Chemscore.Lipo.Weighted>
-8.4192

> <Gold.Chemscore.Internal_Hbond.Weighted>
0.0000

> <Gold.Chemscore.DEClash.Weighted>
0.0414

> <Gold.Chemscore.DEInternal.Weighted>
1.8190

> <Gold.Chemscore.Rot.Weighted>
5.4646

> <Gold.Chemscore.Internal.Correction.Weighted>
   9.000000E+99

> <Gold.Protein.RotatedTorsions>
[ 6907 6896 6895 6894 ] final   33.56 input  -60.11 | X-H torsion
[ 7974 7965 7964 7962 ] final   99.48 input  175.53 | X-H torsion
[ 8008 7997 7996 7995 ] final -140.62 input   59.86 | X-H torsion
[ 10167 10162 10161 10158 ] final   77.02 input  -65.29 | X-H torsion
[ 10718 10713 10712 10709 ] final  -54.51 input   66.30 | X-H torsion
[ 10763 10752 10751 10750 ] final  148.52 input  -60.55 | X-H torsion
[ 11005 11000 10999 10996 ] final   63.17 input  -57.11 | X-H torsion

> <Gold.Protein.ActiveResidues>
 VAL166  LYS551  ARG553  GLY616  TRP617  ASP618  TYR619  PRO620  LYS621  CYS622 
 ASP623  PHE694  ASN695  SER759  ASP760  ASP761  ALA762  ILE779  LEU786  VAL792 
 PHE793  MET794  SER795  GLU796  ALA797  LYS798  CYS799  TRP800  GLU811  SER814 

> <Gold.Protein.RotatedAtoms>
  152.0901  134.9413  160.0571 H   0  0  0  0  0  0  0  0  0  0  0  0  # atno 6907 bound_to 6896
  152.0667  133.4082  159.4449 H   0  0  0  0  0  0  0  0  0  0  0  0  # atno 6908 bound_to 6896
  150.6837  134.3058  159.4769 H   0  0  0  0  0  0  0  0  0  0  0  0  # atno 6909 bound_to 6896
  145.3983  139.2351  143.3314 H   0  0  0  0  0  0  0  0  0  0  0  0  # atno 7974 bound_to 7965
  155.4643  140.0548  157.2987 H   0  0  0  0  0  0  0  0  0  0  0  0  # atno 8008 bound_to 7997
  154.4724  140.2046  155.9915 H   0  0  0  0  0  0  0  0  0  0  0  0  # atno 8009 bound_to 7997
  156.1078  140.3209  155.8035 H   0  0  0  0  0  0  0  0  0  0  0  0  # atno 8010 bound_to 7997
  139.9860  144.5792  150.7859 H   0  0  0  0  0  0  0  0  0  0  0  0  # atno 10167 bound_to 10162
  156.1444  130.4153  150.0048 H   0  0  0  0  0  0  0  0  0  0  0  0  # atno 10718 bound_to 10713
  154.0560  135.2878  155.3332 H   0  0  0  0  0  0  0  0  0  0  0  0  # atno 10763 bound_to 10752
  154.6838  135.5253  153.8303 H   0  0  0  0  0  0  0  0  0  0  0  0  # atno 10764 bound_to 10752
  153.0541  135.6588  154.0753 H   0  0  0  0  0  0  0  0  0  0  0  0  # atno 10765 bound_to 10752
  140.0042  134.6394  155.9881 H   0  0  0  0  0  0  0  0  0  0  0  0  # atno 11005 bound_to 11000
  146.2764  140.4677  142.8794 LP  0  0  0  0  0  0  0  0  0  0  0  0  # atno 17320 bound_to 7965
  144.8391  140.6829  143.6241 LP  0  0  0  0  0  0  0  0  0  0  0  0  # atno 17321 bound_to 7965
  140.7472  143.2903  151.3350 LP  0  0  0  0  0  0  0  0  0  0  0  0  # atno 17342 bound_to 10162
  139.6375  144.0603  152.2527 LP  0  0  0  0  0  0  0  0  0  0  0  0  # atno 17343 bound_to 10162
  156.7924  130.9261  151.3646 LP  0  0  0  0  0  0  0  0  0  0  0  0  # atno 17370 bound_to 10713
  157.6604  130.8961  149.9818 LP  0  0  0  0  0  0  0  0  0  0  0  0  # atno 17371 bound_to 10713
  141.1665  133.6537  156.4497 LP  0  0  0  0  0  0  0  0  0  0  0  0  # atno 17394 bound_to 11000
  140.4671  134.6788  157.5112 LP  0  0  0  0  0  0  0  0  0  0  0  0  # atno 17395 bound_to 11000

$$$$
