AV-unprocessed.smi:72|AV-procd|sdf|671|dock10
  -GOLD-   2262016573D 1   1.00000     0.00000
 Structure written by MMmdl.
 29 30  0  0  0  0  0  0  0  0  1 V2000
  153.4373  136.2715  159.2708 N   0  0  0  0  0  0  0  0  0  0  0  0
  152.8731  136.9331  158.3244 C   0  0  0  0  0  0  0  0  0  0  0  0
  151.4991  137.2017  158.2310 N   0  0  0  0  0  0  0  0  0  0  0  0
  151.0677  137.8895  157.2192 C   0  0  0  0  0  0  0  0  0  0  0  0
  151.9606  138.3934  156.1870 N   0  0  0  0  0  0  0  0  0  0  0  0
  151.4212  139.2005  155.0243 C   0  0  2  0  0  0  0  0  0  0  0  0
  150.6884  140.2698  155.5378 O   0  0  0  0  0  0  0  0  0  0  0  0
  149.5314  140.4761  154.7423 C   0  0  2  0  0  0  0  0  0  0  0  0
  148.4659  141.1986  155.5818 C   0  0  0  0  0  0  0  0  0  0  0  0
  149.0148  142.3363  156.2114 O   0  0  0  0  0  0  0  0  0  0  0  0
  149.1470  139.0645  154.2833 C   0  0  1  0  0  0  0  0  0  0  0  0
  148.4344  139.1125  153.0633 O   0  0  0  0  0  0  0  0  0  0  0  0
  150.4986  138.3881  154.0858 C   0  0  2  0  0  0  0  0  0  0  0  0
  150.4201  137.0058  154.3844 O   0  0  0  0  0  0  0  0  0  0  0  0
  153.3476  138.1168  156.2564 C   0  0  0  0  0  0  0  0  0  0  0  0
  154.1431  138.4909  155.3953 O   0  0  0  0  0  0  0  0  0  0  0  0
  153.7444  137.3999  157.3304 N   0  0  0  0  0  0  0  0  0  0  0  0
  152.2832  139.6144  154.4994 H   0  0  0  0  0  0  0  0  0  0  0  0
  149.8320  141.0890  153.8899 H   0  0  0  0  0  0  0  0  0  0  0  0
  148.5646  138.5570  155.0542 H   0  0  0  0  0  0  0  0  0  0  0  0
  150.8632  138.5240  153.0664 H   0  0  0  0  0  0  0  0  0  0  0  0
  154.4330  136.2100  159.1161 H   0  0  0  0  0  0  0  0  0  0  0  0
  150.0137  138.1305  157.0730 H   0  0  0  0  0  0  0  0  0  0  0  0
  147.6132  141.4901  154.9683 H   0  0  0  0  0  0  0  0  0  0  0  0
  148.0898  140.5328  156.3590 H   0  0  0  0  0  0  0  0  0  0  0  0
  148.7086  143.1074  155.7592 H   0  0  0  0  0  0  0  0  0  0  0  0
  149.0225  139.4005  152.3824 H   0  0  0  0  0  0  0  0  0  0  0  0
  149.9488  136.5751  153.6879 H   0  0  0  0  0  0  0  0  0  0  0  0
  154.7281  137.1875  157.4096 H   0  0  0  0  0  0  0  0  0  0  0  0
  1  2  2  0  0  0  0
  1 22  1  0  0  0  0
  2 17  1  0  0  0  0
  2  3  1  0  0  0  0
  3  4  2  0  0  0  0
  4  5  1  0  0  0  0
  4 23  1  0  0  0  0
  5  6  1  0  0  0  0
  5 15  1  0  0  0  0
  6 18  1  0  0  0  0
  6 13  1  0  0  0  0
  6  7  1  0  0  0  0
  7  8  1  0  0  0  0
  8 19  1  0  0  0  0
  8  9  1  0  0  0  0
  8 11  1  0  0  0  0
  9 10  1  0  0  0  0
  9 24  1  0  0  0  0
  9 25  1  0  0  0  0
 10 26  1  0  0  0  0
 11 20  1  0  0  0  0
 11 12  1  0  0  0  0
 11 13  1  0  0  0  0
 12 27  1  0  0  0  0
 13 21  1  0  0  0  0
 13 14  1  0  0  0  0
 14 28  1  0  0  0  0
 15 16  2  0  0  0  0
 15 17  1  0  0  0  0
 17 29  1  0  0  0  0
M  END
> <s_m_source_file>
AV-unprocessed.smi

> <i_m_source_file_index>
72

> <i_lp_mmshare_version>
43012

> <i_f3d_flags>
0

> <s_epik_input>
W05IMl1jMW5bY0hdbihjKD1PKW4xKVtDQEBIXTJPW0NASF0oW0NIMl1bT0hdKVtDQEBIXShbT0hdKVtDQEhdMltPSF0=

> <s_epik_cmdline>
J2VwaWtfcHl0aG9uJywgJy1waCcsICc3LjAnLCAnLXRuJywgJzgnLCAnLW1hJywgJzIwMCcsICctbWV0YWxfYmluZGluZycsICctaW1hZScsICc8aW5maWxlLm1hZT4nLCAnLW9tYWUnLCAnPG91dGZpbGUubWFlPic=

> <r_lp_tautomer_probability>
7.17554e-07

> <r_epik_Ionization_Penalty>
0.0066451

> <r_epik_Ionization_Penalty_Charging>
0.00663793

> <r_epik_Ionization_Penalty_Neutral>
7.17052e-06

> <r_epik_State_Penalty>
0.419231

> <r_epik_Charging_Adjusted_Penalty>
0.425868

> <i_epik_Tot_Q>
0

> <i_epik_Tot_abs_Q>
0

> <r_epik_Metal_State_Penalty>
1.44144

> <b_epik_Metal_Only>
0

> <s_epik_Chemistry_Notes>
This compound contains an acetal/aminal-like group ( X-CH(R)-Y where X, Y are N, S, or O) that may be acid/base labile, releasing an aldehyde.

> <s_lp_Force_Field>
OPLS_2005

> <r_lp_Energy>
42.2993

> <b_lp_Chiralities_Consistent>
1

> <s_lp_Variant>
AV-unprocessed.smi:72-9

> <Gold.Version>
5.8.1

> <Gold.Id.Protein>
6NUR|6NUR_protein|mol2

> <Gold.PLP.Fitness>
36.9336

> <Gold.PLP.PLP>
-23.6605

> <Gold.PLP.part.hbond>
-6.7809

> <Gold.PLP.part.metal>
0.0000

> <Gold.PLP.part.buried>
-4.4805

> <Gold.PLP.part.nonpolar>
-14.6322

> <Gold.PLP.part.repulsive>
0.1901

> <Gold.PLP.ligand.clash>
0.0000

> <Gold.PLP.ligand.torsion>
0.1476

> <Gold.PLP.Chemscore.Hbond>
4.4873

> <Gold.PLP.Chemscore.CHOScore>
0.0000

> <Gold.PLP.Chemscore.Metal>
0.0000

> <Gold.Chemscore.Hbonds>
donor molecule, donor type, donor heavy atom, donor atom, acceptor molecule, acceptor atom, score
      L1  H    10    26       P1  8028  0.90
      L1  H    12    27       P1  7957  0.91
      L1  H    14    28       P1  7948  0.91
      P1  H  6896  6907       L1     1  1.00
      P1  H  7997  8010       L1    16  0.53

> <Gold.PLP.Chemscore.Internal.Correction>
0.1065

> <Gold.Rescore>
     Score         DG    S(hbond)    S(metal)    S(lipo)     H(rot)  DE(clash)    DE(int)     intcor
      9.90     -10.20       3.64        0.00      25.17       4.06       0.00       0.30       ----

> <Gold.Chemscore.Fitness>
9.9046

> <Gold.Chemscore.DG>
-10.2037

> <Gold.Chemscore.ZeroCoef>
-5.4800

> <Gold.Chemscore.Hbond>
3.6444

> <Gold.Chemscore.Metal>
0.0000

> <Gold.Chemscore.Lipo>
25.1719

> <Gold.Chemscore.Internal_Hbond>
0.0000

> <Gold.Chemscore.DEClash>
0.0004

> <Gold.Chemscore.DEInternal>
0.2987

> <Gold.Chemscore.Rot>
4.0600

> <Gold.Chemscore.Internal.Correction>
   9.000000E+99

> <Gold.Chemscore.Hbonds>
donor molecule, donor type, donor heavy atom, donor atom, acceptor molecule, acceptor atom, score
      L1  H    10    26       P1  8028  0.86
      L1  H    12    27       P1  7957  0.87
      L1  H    14    28       P1  7948  0.22
      P1  H  6896  6907       L1     1  0.83
      P1  H  7997  8010       L1    16  0.23

> <Gold.Chemscore.Hbond.Weighted>
-12.1722

> <Gold.Chemscore.Metal.Weighted>
-0.0000

> <Gold.Chemscore.Lipo.Weighted>
-2.9451

> <Gold.Chemscore.Internal_Hbond.Weighted>
0.0000

> <Gold.Chemscore.DEClash.Weighted>
0.0004

> <Gold.Chemscore.DEInternal.Weighted>
0.2987

> <Gold.Chemscore.Rot.Weighted>
10.3936

> <Gold.Chemscore.Internal.Correction.Weighted>
   9.000000E+99

> <Gold.Protein.RotatedTorsions>
[ 6907 6896 6895 6894 ] final   50.34 input  -60.11 | X-H torsion
[ 7974 7965 7964 7962 ] final  -63.13 input  175.53 | X-H torsion
[ 8008 7997 7996 7995 ] final  107.20 input   59.86 | X-H torsion
[ 10167 10162 10161 10158 ] final  162.86 input  -65.29 | X-H torsion
[ 10718 10713 10712 10709 ] final  175.36 input   66.30 | X-H torsion
[ 10763 10752 10751 10750 ] final   62.20 input  -60.55 | X-H torsion
[ 11005 11000 10999 10996 ] final  -52.02 input  -57.11 | X-H torsion

> <Gold.Protein.ActiveResidues>
 VAL166  LYS551  ARG553  GLY616  TRP617  ASP618  TYR619  PRO620  LYS621  CYS622 
 ASP623  PHE694  ASN695  SER759  ASP760  ASP761  ALA762  ILE779  LEU786  VAL792 
 PHE793  MET794  SER795  GLU796  ALA797  LYS798  CYS799  TRP800  GLU811  SER814 

> <Gold.Protein.RotatedAtoms>
  152.3007  134.7614  160.0358 H   0  0  0  0  0  0  0  0  0  0  0  0  # atno 6907 bound_to 6896
  151.8128  133.3379  159.3568 H   0  0  0  0  0  0  0  0  0  0  0  0  # atno 6908 bound_to 6896
  150.7272  134.5577  159.5871 H   0  0  0  0  0  0  0  0  0  0  0  0  # atno 6909 bound_to 6896
  145.7829  140.8752  143.0321 H   0  0  0  0  0  0  0  0  0  0  0  0  # atno 7974 bound_to 7965
  156.1805  140.3099  155.9140 H   0  0  0  0  0  0  0  0  0  0  0  0  # atno 8008 bound_to 7997
  155.3394  140.0465  157.3061 H   0  0  0  0  0  0  0  0  0  0  0  0  # atno 8009 bound_to 7997
  154.5337  140.2239  155.8769 H   0  0  0  0  0  0  0  0  0  0  0  0  # atno 8010 bound_to 7997
  139.4866  144.4395  151.8969 H   0  0  0  0  0  0  0  0  0  0  0  0  # atno 10167 bound_to 10162
  156.9360  130.9986  151.2978 H   0  0  0  0  0  0  0  0  0  0  0  0  # atno 10718 bound_to 10713
  152.9975  135.5473  154.6156 H   0  0  0  0  0  0  0  0  0  0  0  0  # atno 10763 bound_to 10752
  154.5466  135.2823  155.1049 H   0  0  0  0  0  0  0  0  0  0  0  0  # atno 10764 bound_to 10752
  154.2305  135.6434  153.5226 H   0  0  0  0  0  0  0  0  0  0  0  0  # atno 10765 bound_to 10752
  141.0902  133.6634  156.3962 H   0  0  0  0  0  0  0  0  0  0  0  0  # atno 11005 bound_to 11000
  144.6793  140.0014  143.7484 LP  0  0  0  0  0  0  0  0  0  0  0  0  # atno 17320 bound_to 7965
  146.0056  139.3127  143.0901 LP  0  0  0  0  0  0  0  0  0  0  0  0  # atno 17321 bound_to 7965
  140.3846  144.2692  150.5905 LP  0  0  0  0  0  0  0  0  0  0  0  0  # atno 17342 bound_to 10162
  140.5202  143.2268  151.8401 LP  0  0  0  0  0  0  0  0  0  0  0  0  # atno 17343 bound_to 10162
  157.5816  130.8380  149.8531 LP  0  0  0  0  0  0  0  0  0  0  0  0  # atno 17370 bound_to 10713
  156.0426  130.3735  150.1398 LP  0  0  0  0  0  0  0  0  0  0  0  0  # atno 17371 bound_to 10713
  140.5270  134.6249  157.5337 LP  0  0  0  0  0  0  0  0  0  0  0  0  # atno 17394 bound_to 11000
  139.9726  134.7267  156.0011 LP  0  0  0  0  0  0  0  0  0  0  0  0  # atno 17395 bound_to 11000

$$$$
