AV-unprocessed.smi:2775|AV-procd|sdf|10701|dock8
  -GOLD-   2272015143D 1   1.00000     0.00000
 Structure written by MMmdl.
 43 46  0  0  0  0  0  0  0  0  2 V2000
  150.3332  141.3814  155.6600 C   0  0  0  0  0  0  0  0  0  0  0  0
  149.1401  141.0971  154.7681 C   0  0  0  0  0  0  0  0  0  0  0  0
  148.3283  142.1312  154.4559 N   0  3  0  0  0  0  0  0  0  0  0  0
  147.2422  142.0007  153.6664 C   0  0  0  0  0  0  0  0  0  0  0  0
  146.9084  140.7413  153.1319 C   0  0  0  0  0  0  0  0  0  0  0  0
  147.7166  139.6175  153.4400 C   0  0  0  0  0  0  0  0  0  0  0  0
  147.4691  138.3093  152.9397 N   0  0  0  0  0  0  0  0  0  0  0  0
  146.3156  137.7513  152.5247 C   0  0  0  0  0  0  0  0  0  0  0  0
  145.2248  138.3167  152.5110 O   0  0  0  0  0  0  0  0  0  0  0  0
  146.4458  136.4767  152.1180 N   0  0  0  0  0  0  0  0  0  0  0  0
  145.3930  135.5941  151.6127 C   0  0  1  0  0  0  0  0  0  0  0  0
  145.7768  134.1062  151.7199 C   0  0  2  0  0  0  0  0  0  0  0  0
  145.9314  133.2814  150.4708 C   0  0  0  0  0  0  0  0  0  0  0  0
  144.5755  132.5796  150.3544 C   0  0  0  0  0  0  0  0  0  0  0  0
  143.6805  133.3963  151.1064 O   0  0  0  0  0  0  0  0  0  0  0  0
  144.3781  133.8420  152.2656 C   0  0  2  0  0  0  0  0  0  0  0  0
  144.2323  135.3323  152.5964 C   0  0  0  0  0  0  0  0  0  0  0  0
  144.2560  135.7993  154.0644 C   0  0  0  0  0  0  0  0  0  0  0  0
  143.2141  136.8616  153.7038 C   0  0  0  0  0  0  0  0  0  0  0  0
  142.8816  136.0474  152.4500 C   0  0  0  0  0  0  0  0  0  0  0  0
  148.8558  139.8071  154.2614 C   0  0  0  0  0  0  0  0  0  0  0  0
  149.8923  138.4743  154.6486 Cl  0  0  0  0  0  0  0  0  0  0  0  0
  150.2646  140.8012  156.5807 H   0  0  0  0  0  0  0  0  0  0  0  0
  150.3879  142.4372  155.9283 H   0  0  0  0  0  0  0  0  0  0  0  0
  151.2599  141.1133  155.1521 H   0  0  0  0  0  0  0  0  0  0  0  0
  146.6786  142.9038  153.4821 H   0  0  0  0  0  0  0  0  0  0  0  0
  146.0455  140.6693  152.4885 H   0  0  0  0  0  0  0  0  0  0  0  0
  148.2684  137.6919  152.9471 H   0  0  0  0  0  0  0  0  0  0  0  0
  147.3753  136.0825  152.1481 H   0  0  0  0  0  0  0  0  0  0  0  0
  145.0353  135.8404  150.6105 H   0  0  0  0  0  0  0  0  0  0  0  0
  146.5376  133.9240  152.4814 H   0  0  0  0  0  0  0  0  0  0  0  0
  146.1149  133.9173  149.6041 H   0  0  0  0  0  0  0  0  0  0  0  0
  146.7500  132.5646  150.5391 H   0  0  0  0  0  0  0  0  0  0  0  0
  144.2462  132.4688  149.3210 H   0  0  0  0  0  0  0  0  0  0  0  0
  144.6174  131.5881  150.8078 H   0  0  0  0  0  0  0  0  0  0  0  0
  144.3467  133.1482  153.1067 H   0  0  0  0  0  0  0  0  0  0  0  0
  143.8579  135.0476  154.7477 H   0  0  0  0  0  0  0  0  0  0  0  0
  145.2033  136.1971  154.4281 H   0  0  0  0  0  0  0  0  0  0  0  0
  142.3942  136.9530  154.4167 H   0  0  0  0  0  0  0  0  0  0  0  0
  143.6585  137.8308  153.4752 H   0  0  0  0  0  0  0  0  0  0  0  0
  142.7727  136.6390  151.5408 H   0  0  0  0  0  0  0  0  0  0  0  0
  142.0339  135.3766  152.5975 H   0  0  0  0  0  0  0  0  0  0  0  0
  148.5499  143.0542  154.8302 H   0  0  0  0  0  0  0  0  0  0  0  0
  1  2  1  0  0  0  0
  1 23  1  0  0  0  0
  1 24  1  0  0  0  0
  1 25  1  0  0  0  0
  2 21  1  0  0  0  0
  2  3  2  0  0  0  0
  3  4  1  0  0  0  0
  3 43  1  0  0  0  0
  4  5  2  0  0  0  0
  4 26  1  0  0  0  0
  5  6  1  0  0  0  0
  5 27  1  0  0  0  0
  6  7  1  0  0  0  0
  6 21  2  0  0  0  0
  7  8  1  0  0  0  0
  7 28  1  0  0  0  0
  8  9  2  0  0  0  0
  8 10  1  0  0  0  0
 10 11  1  0  0  0  0
 10 29  1  0  0  0  0
 11 17  1  0  0  0  0
 11 12  1  0  0  0  0
 11 30  1  0  0  0  0
 12 16  1  0  0  0  0
 12 13  1  0  0  0  0
 12 31  1  0  0  0  0
 13 14  1  0  0  0  0
 13 32  1  0  0  0  0
 13 33  1  0  0  0  0
 14 15  1  0  0  0  0
 14 34  1  0  0  0  0
 14 35  1  0  0  0  0
 15 16  1  0  0  0  0
 16 17  1  0  0  0  0
 16 36  1  0  0  0  0
 17 20  1  0  0  0  0
 17 18  1  0  0  0  0
 18 19  1  0  0  0  0
 18 37  1  0  0  0  0
 18 38  1  0  0  0  0
 19 20  1  0  0  0  0
 19 39  1  0  0  0  0
 19 40  1  0  0  0  0
 20 41  1  0  0  0  0
 20 42  1  0  0  0  0
 21 22  1  0  0  0  0
M  CHG  1   3   1
M  END
> <s_m_source_file>
AV-unprocessed.smi

> <i_m_source_file_index>
2775

> <i_lp_mmshare_version>
43012

> <i_f3d_flags>
0

> <s_epik_input>
W0NIM11jMW5bY0hdW2NIXWMoYzFDbClbTkhdQyg9TylbTkhdW0NAQEhdMltDQEhdKFtDSDJdW0NIMl1PMylbQ0BASF0zQzI0W0NIMl1bQ0gyXVtDSDJdNA==

> <s_epik_cmdline>
J2VwaWtfcHl0aG9uJywgJy1waCcsICc3LjAnLCAnLXRuJywgJzgnLCAnLW1hJywgJzIwMCcsICctbWV0YWxfYmluZGluZycsICctaW1hZScsICc8aW5maWxlLm1hZT4nLCAnLW9tYWUnLCAnPG91dGZpbGUubWFlPic=

> <r_epik_Ionization_Penalty>
2.4104

> <r_epik_Ionization_Penalty_Charging>
2.41038

> <r_epik_Ionization_Penalty_Neutral>
1.9872e-05

> <r_epik_State_Penalty>
2.56896

> <r_epik_Charging_Adjusted_Penalty>
4.97934

> <i_epik_Tot_Q>
1

> <i_epik_Tot_abs_Q>
1

> <r_epik_Metal_State_Penalty>
2.57906

> <b_epik_Metal_Only>
0

> <s_lp_Force_Field>
OPLS_2005

> <r_lp_Energy>
60.4294

> <b_lp_Chiralities_Consistent>
1

> <s_lp_Variant>
AV-unprocessed.smi:2775-14

> <Gold.Version>
5.8.1

> <Gold.Id.Protein>
6NUR|6NUR_protein|mol2

> <Gold.PLP.Fitness>
45.7907

> <Gold.PLP.PLP>
-34.7875

> <Gold.PLP.part.hbond>
-3.0756

> <Gold.PLP.part.metal>
0.0000

> <Gold.PLP.part.buried>
-4.5797

> <Gold.PLP.part.nonpolar>
-30.4028

> <Gold.PLP.part.repulsive>
3.4715

> <Gold.PLP.ligand.clash>
0.0000

> <Gold.PLP.ligand.torsion>
0.2719

> <Gold.PLP.Chemscore.Hbond>
3.7840

> <Gold.PLP.Chemscore.CHOScore>
0.0000

> <Gold.PLP.Chemscore.Metal>
0.0000

> <Gold.Chemscore.Hbonds>
donor molecule, donor type, donor heavy atom, donor atom, acceptor molecule, acceptor atom, score
      L1  H     3    43       P1  8028  2.00
      L1  H     7    28       P1  7948  0.75
      L1  H    10    29       P1  7948  0.99

> <Gold.PLP.Chemscore.Internal.Correction>
0.1950

> <Gold.Rescore>
     Score         DG    S(hbond)    S(metal)    S(lipo)     H(rot)  DE(clash)    DE(int)     intcor
     17.95     -23.59       2.88        0.00      94.46       1.00       3.28       2.36       ----

> <Gold.Chemscore.Fitness>
17.9463

> <Gold.Chemscore.DG>
-23.5876

> <Gold.Chemscore.ZeroCoef>
-5.4800

> <Gold.Chemscore.Hbond>
2.8790

> <Gold.Chemscore.Metal>
0.0000

> <Gold.Chemscore.Lipo>
94.4591

> <Gold.Chemscore.Internal_Hbond>
0.0000

> <Gold.Chemscore.DEClash>
3.2800

> <Gold.Chemscore.DEInternal>
2.3613

> <Gold.Chemscore.Rot>
1.0000

> <Gold.Chemscore.Internal.Correction>
   9.000000E+99

> <Gold.Chemscore.Hbonds>
donor molecule, donor type, donor heavy atom, donor atom, acceptor molecule, acceptor atom, score
      L1  H     3    43       P1  8028  1.00
      L1  H     7    28       P1  7948  0.73
      L1  H    10    29       P1  7948  0.92

> <Gold.Chemscore.Hbond.Weighted>
-9.6159

> <Gold.Chemscore.Metal.Weighted>
-0.0000

> <Gold.Chemscore.Lipo.Weighted>
-11.0517

> <Gold.Chemscore.Internal_Hbond.Weighted>
0.0000

> <Gold.Chemscore.DEClash.Weighted>
3.2800

> <Gold.Chemscore.DEInternal.Weighted>
2.3613

> <Gold.Chemscore.Rot.Weighted>
2.5600

> <Gold.Chemscore.Internal.Correction.Weighted>
   9.000000E+99

> <Gold.Protein.RotatedTorsions>
[ 6907 6896 6895 6894 ] final   30.21 input  -60.11 | X-H torsion
[ 7974 7965 7964 7962 ] final   43.42 input  175.53 | X-H torsion
[ 8008 7997 7996 7995 ] final  178.55 input   59.86 | X-H torsion
[ 10167 10162 10161 10158 ] final  -25.31 input  -65.29 | X-H torsion
[ 10718 10713 10712 10709 ] final   16.44 input   66.30 | X-H torsion
[ 10763 10752 10751 10750 ] final  153.69 input  -60.55 | X-H torsion
[ 11005 11000 10999 10996 ] final   88.54 input  -57.11 | X-H torsion

> <Gold.Protein.ActiveResidues>
 VAL166  LYS551  ARG553  GLY616  TRP617  ASP618  TYR619  PRO620  LYS621  CYS622 
 ASP623  PHE694  ASN695  SER759  ASP760  ASP761  ALA762  ILE779  LEU786  VAL792 
 PHE793  MET794  SER795  GLU796  ALA797  LYS798  CYS799  TRP800  GLU811  SER814 

> <Gold.Protein.RotatedAtoms>
  152.0427  134.9702  160.0573 H   0  0  0  0  0  0  0  0  0  0  0  0  # atno 6907 bound_to 6896
  152.1134  133.4308  159.4650 H   0  0  0  0  0  0  0  0  0  0  0  0  # atno 6908 bound_to 6896
  150.6845  134.2540  159.4565 H   0  0  0  0  0  0  0  0  0  0  0  0  # atno 6909 bound_to 6896
  146.0657  139.5189  142.9630 H   0  0  0  0  0  0  0  0  0  0  0  0  # atno 7974 bound_to 7965
  156.0534  140.1330  157.0024 H   0  0  0  0  0  0  0  0  0  0  0  0  # atno 8008 bound_to 7997
  154.4446  140.1006  156.6480 H   0  0  0  0  0  0  0  0  0  0  0  0  # atno 8009 bound_to 7997
  155.5489  140.3462  155.4466 H   0  0  0  0  0  0  0  0  0  0  0  0  # atno 8010 bound_to 7997
  140.7286  143.4276  151.0853 H   0  0  0  0  0  0  0  0  0  0  0  0  # atno 10167 bound_to 10162
  157.0679  130.6336  149.5799 H   0  0  0  0  0  0  0  0  0  0  0  0  # atno 10718 bound_to 10713
  154.1403  135.2821  155.3162 H   0  0  0  0  0  0  0  0  0  0  0  0  # atno 10763 bound_to 10752
  154.6292  135.5441  153.7664 H   0  0  0  0  0  0  0  0  0  0  0  0  # atno 10764 bound_to 10752
  153.0253  135.6458  154.1550 H   0  0  0  0  0  0  0  0  0  0  0  0  # atno 10765 bound_to 10752
  139.8894  134.8494  156.3015 H   0  0  0  0  0  0  0  0  0  0  0  0  # atno 11005 bound_to 11000
  145.6481  141.0269  143.1775 LP  0  0  0  0  0  0  0  0  0  0  0  0  # atno 17320 bound_to 7965
  144.7201  139.8060  143.7385 LP  0  0  0  0  0  0  0  0  0  0  0  0  # atno 17321 bound_to 7965
  139.7929  143.8193  152.3154 LP  0  0  0  0  0  0  0  0  0  0  0  0  # atno 17342 bound_to 10162
  139.8183  144.7306  150.9606 LP  0  0  0  0  0  0  0  0  0  0  0  0  # atno 17343 bound_to 10162
  155.9959  130.5027  150.7476 LP  0  0  0  0  0  0  0  0  0  0  0  0  # atno 17370 bound_to 10713
  157.4902  131.0910  151.0436 LP  0  0  0  0  0  0  0  0  0  0  0  0  # atno 17371 bound_to 10713
  140.9910  133.7209  156.0814 LP  0  0  0  0  0  0  0  0  0  0  0  0  # atno 17394 bound_to 11000
  140.7625  134.3923  157.5523 LP  0  0  0  0  0  0  0  0  0  0  0  0  # atno 17395 bound_to 11000

$$$$
