AV-unprocessed.smi:2390|AV-procd|sdf|9480|dock2
  -GOLD-   2272013113D 1   1.00000     0.00000
 Structure written by MMmdl.
 46 47  0  0  0  0  0  0  0  0  2 V2000
  150.8699  144.6962  159.2754 C   0  0  0  0  0  0  0  0  0  0  0  0
  151.6245  143.3957  159.4560 C   0  0  0  0  0  0  0  0  0  0  0  0
  152.6884  143.3022  160.3737 C   0  0  0  0  0  0  0  0  0  0  0  0
  153.3603  142.0725  160.4859 C   0  0  0  0  0  0  0  0  0  0  0  0
  152.9400  140.9915  159.6870 C   0  0  0  0  0  0  0  0  0  0  0  0
  151.8461  141.1661  158.8007 C   0  0  0  0  0  0  0  0  0  0  0  0
  151.4178  140.1027  157.9626 N   0  0  0  0  0  0  0  0  0  0  0  0
  150.4926  140.1340  156.9880 C   0  0  0  0  0  0  0  0  0  0  0  0
  149.8453  141.1270  156.6540 O   0  0  0  0  0  0  0  0  0  0  0  0
  150.3534  138.9323  156.4079 N   0  0  0  0  0  0  0  0  0  0  0  0
  149.4415  138.6098  155.3081 C   0  0  1  0  0  0  0  0  0  0  0  0
  150.2508  138.4543  154.0100 C   0  0  0  0  0  0  0  0  0  0  0  0
  148.5480  137.3731  155.6303 C   0  0  1  0  0  0  0  0  0  0  0  0
  147.9993  137.4303  157.0780 C   0  0  0  0  0  0  0  0  0  0  0  0
  147.4844  137.2106  154.5844 N   0  3  0  0  0  0  0  0  0  0  0  0
  146.5647  136.0784  154.8706 C   0  0  0  0  0  0  0  0  0  0  0  0
  145.6097  135.8453  153.6895 C   0  0  0  0  0  0  0  0  0  0  0  0
  144.8707  137.0328  153.4396 O   0  0  0  0  0  0  0  0  0  0  0  0
  145.7198  138.1146  153.0822 C   0  0  0  0  0  0  0  0  0  0  0  0
  146.6941  138.4211  154.2333 C   0  0  0  0  0  0  0  0  0  0  0  0
  151.2220  142.3609  158.6863 N   0  0  0  0  0  0  0  0  0  0  0  0
  150.9301  145.3097  160.1748 H   0  0  0  0  0  0  0  0  0  0  0  0
  149.8162  144.5101  159.0643 H   0  0  0  0  0  0  0  0  0  0  0  0
  151.2923  145.2626  158.4449 H   0  0  0  0  0  0  0  0  0  0  0  0
  152.9882  144.1510  160.9710 H   0  0  0  0  0  0  0  0  0  0  0  0
  154.1897  141.9604  161.1685 H   0  0  0  0  0  0  0  0  0  0  0  0
  153.4701  140.0541  159.7586 H   0  0  0  0  0  0  0  0  0  0  0  0
  151.9457  139.2467  158.0502 H   0  0  0  0  0  0  0  0  0  0  0  0
  150.9314  138.1769  156.7475 H   0  0  0  0  0  0  0  0  0  0  0  0
  148.8010  139.4752  155.1380 H   0  0  0  0  0  0  0  0  0  0  0  0
  149.6032  138.1942  153.1722 H   0  0  0  0  0  0  0  0  0  0  0  0
  151.0192  137.6859  154.0914 H   0  0  0  0  0  0  0  0  0  0  0  0
  150.7542  139.3873  153.7540 H   0  0  0  0  0  0  0  0  0  0  0  0
  149.1767  136.4824  155.5836 H   0  0  0  0  0  0  0  0  0  0  0  0
  148.8012  137.5392  157.8066 H   0  0  0  0  0  0  0  0  0  0  0  0
  147.4779  136.5125  157.3499 H   0  0  0  0  0  0  0  0  0  0  0  0
  147.3125  138.2648  157.2220 H   0  0  0  0  0  0  0  0  0  0  0  0
  147.1218  135.1619  155.0599 H   0  0  0  0  0  0  0  0  0  0  0  0
  145.9918  136.2916  155.7742 H   0  0  0  0  0  0  0  0  0  0  0  0
  146.1590  135.5437  152.7960 H   0  0  0  0  0  0  0  0  0  0  0  0
  144.9131  135.0397  153.9225 H   0  0  0  0  0  0  0  0  0  0  0  0
  146.2637  137.8774  152.1660 H   0  0  0  0  0  0  0  0  0  0  0  0
  145.1051  138.9891  152.8683 H   0  0  0  0  0  0  0  0  0  0  0  0
  146.1447  138.7702  155.1091 H   0  0  0  0  0  0  0  0  0  0  0  0
  147.3449  139.2314  153.9060 H   0  0  0  0  0  0  0  0  0  0  0  0
  147.9795  136.9639  153.7384 H   0  0  0  0  0  0  0  0  0  0  0  0
  1  2  1  0  0  0  0
  1 22  1  0  0  0  0
  1 23  1  0  0  0  0
  1 24  1  0  0  0  0
  2 21  1  0  0  0  0
  2  3  2  0  0  0  0
  3  4  1  0  0  0  0
  3 25  1  0  0  0  0
  4  5  2  0  0  0  0
  4 26  1  0  0  0  0
  5  6  1  0  0  0  0
  5 27  1  0  0  0  0
  6  7  1  0  0  0  0
  6 21  2  0  0  0  0
  7  8  1  0  0  0  0
  7 28  1  0  0  0  0
  8  9  2  0  0  0  0
  8 10  1  0  0  0  0
 10 11  1  0  0  0  0
 10 29  1  0  0  0  0
 11 12  1  0  0  0  0
 11 13  1  0  0  0  0
 11 30  1  0  0  0  0
 12 31  1  0  0  0  0
 12 32  1  0  0  0  0
 12 33  1  0  0  0  0
 13 14  1  0  0  0  0
 13 15  1  0  0  0  0
 13 34  1  0  0  0  0
 14 35  1  0  0  0  0
 14 36  1  0  0  0  0
 14 37  1  0  0  0  0
 15 20  1  0  0  0  0
 15 16  1  0  0  0  0
 15 46  1  0  0  0  0
 16 17  1  0  0  0  0
 16 38  1  0  0  0  0
 16 39  1  0  0  0  0
 17 18  1  0  0  0  0
 17 40  1  0  0  0  0
 17 41  1  0  0  0  0
 18 19  1  0  0  0  0
 19 20  1  0  0  0  0
 19 42  1  0  0  0  0
 19 43  1  0  0  0  0
 20 44  1  0  0  0  0
 20 45  1  0  0  0  0
M  CHG  1  15   1
M  END
> <s_m_source_file>
AV-unprocessed.smi

> <i_m_source_file_index>
2390

> <i_lp_mmshare_version>
43012

> <i_f3d_flags>
0

> <s_epik_input>
W0NIM11jMVtjSF1bY0hdW2NIXWMobjEpW05IXUMoPU8pW05IXVtDQEhdKFtDSDNdKVtDQEhdKFtDSDNdKU4yW0NIMl1bQ0gyXU9bQ0gyXVtDSDJdMg==

> <s_epik_cmdline>
J2VwaWtfcHl0aG9uJywgJy1waCcsICc3LjAnLCAnLXRuJywgJzgnLCAnLW1hJywgJzIwMCcsICctbWV0YWxfYmluZGluZycsICctaW1hZScsICc8aW5maWxlLm1hZT4nLCAnLW9tYWUnLCAnPG91dGZpbGUubWFlPic=

> <r_epik_Ionization_Penalty>
0.60259

> <r_epik_Ionization_Penalty_Charging>
0.602531

> <r_epik_Ionization_Penalty_Neutral>
5.9516e-05

> <r_epik_State_Penalty>
0.617039

> <r_epik_Charging_Adjusted_Penalty>
1.21957

> <i_epik_Tot_Q>
1

> <i_epik_Tot_abs_Q>
1

> <r_epik_Metal_State_Penalty>
0.617047

> <b_epik_Metal_Only>
0

> <s_lp_Force_Field>
OPLS_2005

> <r_lp_Energy>
33.8146

> <b_lp_Chiralities_Consistent>
1

> <s_lp_Variant>
AV-unprocessed.smi:2390-8

> <Gold.Version>
5.8.1

> <Gold.Id.Protein>
6NUR|6NUR_protein|mol2

> <Gold.PLP.Fitness>
41.5470

> <Gold.PLP.PLP>
-36.1539

> <Gold.PLP.part.hbond>
-1.0000

> <Gold.PLP.part.metal>
0.0000

> <Gold.PLP.part.buried>
-4.4173

> <Gold.PLP.part.nonpolar>
-31.4645

> <Gold.PLP.part.repulsive>
0.6792

> <Gold.PLP.ligand.clash>
0.0000

> <Gold.PLP.ligand.torsion>
0.3773

> <Gold.PLP.Chemscore.Hbond>
2.0000

> <Gold.PLP.Chemscore.CHOScore>
0.0000

> <Gold.PLP.Chemscore.Metal>
0.0000

> <Gold.Chemscore.Hbonds>
donor molecule, donor type, donor heavy atom, donor atom, acceptor molecule, acceptor atom, score
      L1  H    15    46       P1  7948  0.98

> <Gold.PLP.Chemscore.Internal.Correction>
0.1477

> <Gold.Rescore>
     Score         DG    S(hbond)    S(metal)    S(lipo)     H(rot)  DE(clash)    DE(int)     intcor
     14.00     -16.06       1.00        0.00      94.46       1.48       0.01       2.04       ----

> <Gold.Chemscore.Fitness>
14.0023

> <Gold.Chemscore.DG>
-16.0601

> <Gold.Chemscore.ZeroCoef>
-5.4800

> <Gold.Chemscore.Hbond>
0.9963

> <Gold.Chemscore.Metal>
0.0000

> <Gold.Chemscore.Lipo>
94.4641

> <Gold.Chemscore.Internal_Hbond>
0.0000

> <Gold.Chemscore.DEClash>
0.0149

> <Gold.Chemscore.DEInternal>
2.0430

> <Gold.Chemscore.Rot>
1.4844

> <Gold.Chemscore.Internal.Correction>
   9.000000E+99

> <Gold.Chemscore.Hbonds>
donor molecule, donor type, donor heavy atom, donor atom, acceptor molecule, acceptor atom, score
      L1  H    15    46       P1  7948  0.48

> <Gold.Chemscore.Hbond.Weighted>
-3.3278

> <Gold.Chemscore.Metal.Weighted>
-0.0000

> <Gold.Chemscore.Lipo.Weighted>
-11.0523

> <Gold.Chemscore.Internal_Hbond.Weighted>
0.0000

> <Gold.Chemscore.DEClash.Weighted>
0.0149

> <Gold.Chemscore.DEInternal.Weighted>
2.0430

> <Gold.Chemscore.Rot.Weighted>
3.8000

> <Gold.Chemscore.Internal.Correction.Weighted>
   9.000000E+99

> <Gold.Protein.RotatedTorsions>
[ 6907 6896 6895 6894 ] final   55.19 input  -60.11 | X-H torsion
[ 7974 7965 7964 7962 ] final   53.28 input  175.53 | X-H torsion
[ 8008 7997 7996 7995 ] final -143.93 input   59.86 | X-H torsion
[ 10167 10162 10161 10158 ] final -122.98 input  -65.29 | X-H torsion
[ 10718 10713 10712 10709 ] final -138.69 input   66.30 | X-H torsion
[ 10763 10752 10751 10750 ] final   -3.12 input  -60.55 | X-H torsion
[ 11005 11000 10999 10996 ] final -165.58 input  -57.11 | X-H torsion

> <Gold.Protein.ActiveResidues>
 VAL166  LYS551  ARG553  GLY616  TRP617  ASP618  TYR619  PRO620  LYS621  CYS622 
 ASP623  PHE694  ASN695  SER759  ASP760  ASP761  ALA762  ILE779  LEU786  VAL792 
 PHE793  MET794  SER795  GLU796  ALA797  LYS798  CYS799  TRP800  GLU811  SER814 

> <Gold.Protein.RotatedAtoms>
  152.3514  134.7000  160.0234 H   0  0  0  0  0  0  0  0  0  0  0  0  # atno 6907 bound_to 6896
  151.7352  133.3314  159.3359 H   0  0  0  0  0  0  0  0  0  0  0  0  # atno 6908 bound_to 6896
  150.7543  134.6261  159.6206 H   0  0  0  0  0  0  0  0  0  0  0  0  # atno 6909 bound_to 6896
  145.9728  139.4165  143.0180 H   0  0  0  0  0  0  0  0  0  0  0  0  # atno 7974 bound_to 7965
  155.5187  140.0589  157.2911 H   0  0  0  0  0  0  0  0  0  0  0  0  # atno 8008 bound_to 7997
  154.4525  140.1956  156.0422 H   0  0  0  0  0  0  0  0  0  0  0  0  # atno 8009 bound_to 7997
  156.0734  140.3257  155.7608 H   0  0  0  0  0  0  0  0  0  0  0  0  # atno 8010 bound_to 7997
  140.0084  143.5467  152.2273 H   0  0  0  0  0  0  0  0  0  0  0  0  # atno 10167 bound_to 10162
  156.3022  130.7435  151.1490 H   0  0  0  0  0  0  0  0  0  0  0  0  # atno 10718 bound_to 10713
  153.3672  135.6993  153.6666 H   0  0  0  0  0  0  0  0  0  0  0  0  # atno 10763 bound_to 10752
  153.5331  135.3588  155.2685 H   0  0  0  0  0  0  0  0  0  0  0  0  # atno 10764 bound_to 10752
  154.8676  135.4185  154.2942 H   0  0  0  0  0  0  0  0  0  0  0  0  # atno 10765 bound_to 10752
  140.5741  134.5208  157.5167 H   0  0  0  0  0  0  0  0  0  0  0  0  # atno 11005 bound_to 11000
  145.7882  140.9826  143.1063 LP  0  0  0  0  0  0  0  0  0  0  0  0  # atno 17320 bound_to 7965
  144.6841  139.9649  143.7481 LP  0  0  0  0  0  0  0  0  0  0  0  0  # atno 17321 bound_to 7965
  139.6222  144.7631  151.2715 LP  0  0  0  0  0  0  0  0  0  0  0  0  # atno 17342 bound_to 10162
  140.7391  143.6628  150.8149 LP  0  0  0  0  0  0  0  0  0  0  0  0  # atno 17343 bound_to 10162
  157.7371  131.0555  150.5376 LP  0  0  0  0  0  0  0  0  0  0  0  0  # atno 17370 bound_to 10713
  156.5505  130.4230  149.6110 LP  0  0  0  0  0  0  0  0  0  0  0  0  # atno 17371 bound_to 10713
  139.9348  134.7896  156.0833 LP  0  0  0  0  0  0  0  0  0  0  0  0  # atno 17394 bound_to 11000
  141.1037  133.6667  156.2815 LP  0  0  0  0  0  0  0  0  0  0  0  0  # atno 17395 bound_to 11000

$$$$
