AV-unprocessed.smi:3299|AV-procd|sdf|12649|dock5
  -GOLD-   2272018583D 1   1.00000     0.00000
 Structure written by MMmdl.
 34 35  0  0  0  0  0  0  0  0  1 V2000
  153.3123  142.4494  161.0397 C   0  0  0  0  0  0  0  0  0  0  0  0
  152.4602  143.3162  160.1667 C   0  0  0  0  0  0  0  0  0  0  0  0
  152.2600  144.6697  160.2923 C   0  0  0  0  0  0  0  0  0  0  0  0
  151.1901  145.2895  159.0639 S   0  0  0  0  0  0  0  0  0  0  0  0
  151.0547  143.6529  158.4176 C   0  0  0  0  0  0  0  0  0  0  0  0
  150.2946  143.2294  157.2996 N   0  0  0  0  0  0  0  0  0  0  0  0
  150.1559  141.9814  156.8241 C   0  0  0  0  0  0  0  0  0  0  0  0
  150.6756  140.9763  157.3082 O   0  0  0  0  0  0  0  0  0  0  0  0
  149.3704  141.9652  155.7354 N   0  0  0  0  0  0  0  0  0  0  0  0
  148.9872  140.7962  154.9406 C   0  0  1  0  0  0  0  0  0  0  0  0
  147.8454  141.1133  153.9479 C   0  0  0  0  0  0  0  0  0  0  0  0
  147.1765  139.8674  153.3438 C   0  0  0  0  0  0  0  0  0  0  0  0
  146.5731  140.1982  152.1116 O   0  0  0  0  0  0  0  0  0  0  0  0
  150.1491  140.1019  154.2451 C   0  0  0  0  0  0  0  0  0  0  0  0
  150.2594  138.5960  154.2338 C   0  0  0  0  0  0  0  0  0  0  0  0
  151.2412  139.4219  155.0351 C   0  0  0  0  0  0  0  0  0  0  0  0
  151.7661  142.7487  159.0931 N   0  0  0  0  0  0  0  0  0  0  0  0
  153.9117  143.0444  161.7292 H   0  0  0  0  0  0  0  0  0  0  0  0
  153.9981  141.8443  160.4463 H   0  0  0  0  0  0  0  0  0  0  0  0
  152.7012  141.7708  161.6351 H   0  0  0  0  0  0  0  0  0  0  0  0
  152.6757  145.3384  161.0315 H   0  0  0  0  0  0  0  0  0  0  0  0
  149.8080  143.9609  156.8031 H   0  0  0  0  0  0  0  0  0  0  0  0
  148.9960  142.8497  155.4244 H   0  0  0  0  0  0  0  0  0  0  0  0
  148.5872  140.0864  155.6660 H   0  0  0  0  0  0  0  0  0  0  0  0
  147.0892  141.7324  154.4323 H   0  0  0  0  0  0  0  0  0  0  0  0
  148.2486  141.7206  153.1363 H   0  0  0  0  0  0  0  0  0  0  0  0
  147.9103  139.0782  153.1786 H   0  0  0  0  0  0  0  0  0  0  0  0
  146.4106  139.4702  154.0101 H   0  0  0  0  0  0  0  0  0  0  0  0
  145.6503  140.3406  152.2570 H   0  0  0  0  0  0  0  0  0  0  0  0
  150.4677  140.5930  153.3277 H   0  0  0  0  0  0  0  0  0  0  0  0
  149.5141  138.0273  154.7863 H   0  0  0  0  0  0  0  0  0  0  0  0
  150.6222  138.1269  153.3215 H   0  0  0  0  0  0  0  0  0  0  0  0
  152.2580  139.5039  154.6566 H   0  0  0  0  0  0  0  0  0  0  0  0
  151.1472  139.4013  156.1190 H   0  0  0  0  0  0  0  0  0  0  0  0
  1  2  1  0  0  0  0
  1 18  1  0  0  0  0
  1 19  1  0  0  0  0
  1 20  1  0  0  0  0
  2 17  1  0  0  0  0
  2  3  2  0  0  0  0
  3  4  1  0  0  0  0
  3 21  1  0  0  0  0
  4  5  1  0  0  0  0
  5  6  1  0  0  0  0
  5 17  2  0  0  0  0
  6  7  1  0  0  0  0
  6 22  1  0  0  0  0
  7  8  2  0  0  0  0
  7  9  1  0  0  0  0
  9 10  1  0  0  0  0
  9 23  1  0  0  0  0
 10 11  1  0  0  0  0
 10 14  1  0  0  0  0
 10 24  1  0  0  0  0
 11 12  1  0  0  0  0
 11 25  1  0  0  0  0
 11 26  1  0  0  0  0
 12 13  1  0  0  0  0
 12 27  1  0  0  0  0
 12 28  1  0  0  0  0
 13 29  1  0  0  0  0
 14 16  1  0  0  0  0
 14 15  1  0  0  0  0
 14 30  1  0  0  0  0
 15 16  1  0  0  0  0
 15 31  1  0  0  0  0
 15 32  1  0  0  0  0
 16 33  1  0  0  0  0
 16 34  1  0  0  0  0
M  END
> <s_m_source_file>
AV-unprocessed.smi

> <i_m_source_file_index>
3299

> <i_lp_mmshare_version>
43012

> <i_f3d_flags>
0

> <s_epik_input>
W0NIM11jMVtjSF1zYyhuMSlbTkhdQyg9TylbTkhdW0NASF0oW0NIMl1bQ0gyXVtPSF0pW0NIXTJbQ0gyXVtDSDJdMg==

> <s_epik_cmdline>
J2VwaWtfcHl0aG9uJywgJy1waCcsICc3LjAnLCAnLXRuJywgJzgnLCAnLW1hJywgJzIwMCcsICctbWV0YWxfYmluZGluZycsICctaW1hZScsICc8aW5maWxlLm1hZT4nLCAnLW9tYWUnLCAnPG91dGZpbGUubWFlPic=

> <r_lp_tautomer_probability>
0.999

> <r_epik_Ionization_Penalty>
0.000568872

> <r_epik_Ionization_Penalty_Charging>
0

> <r_epik_Ionization_Penalty_Neutral>
0.000568872

> <r_epik_State_Penalty>
0.000177984

> <r_epik_Charging_Adjusted_Penalty>
0.000177984

> <i_epik_Tot_Q>
0

> <i_epik_Tot_abs_Q>
0

> <r_epik_Metal_State_Penalty>
-0

> <b_epik_Metal_Only>
0

> <s_lp_Force_Field>
OPLS_2005

> <r_lp_Energy>
11.9184

> <b_lp_Chiralities_Consistent>
1

> <s_lp_Variant>
AV-unprocessed.smi:3299-2

> <Gold.Version>
5.8.1

> <Gold.Id.Protein>
6NUR|6NUR_protein|mol2

> <Gold.PLP.Fitness>
47.7742

> <Gold.PLP.PLP>
-39.3992

> <Gold.PLP.part.hbond>
-3.8246

> <Gold.PLP.part.metal>
0.0000

> <Gold.PLP.part.buried>
-3.6406

> <Gold.PLP.part.nonpolar>
-32.7697

> <Gold.PLP.part.repulsive>
0.1571

> <Gold.PLP.ligand.clash>
0.0000

> <Gold.PLP.ligand.torsion>
0.8486

> <Gold.PLP.Chemscore.Hbond>
2.9673

> <Gold.PLP.Chemscore.CHOScore>
0.0000

> <Gold.PLP.Chemscore.Metal>
0.0000

> <Gold.Chemscore.Hbonds>
donor molecule, donor type, donor heavy atom, donor atom, acceptor molecule, acceptor atom, score
      L1  H     6    22       P1  8028  1.00
      L1  H     9    23       P1  8028  0.99
      L1  H    13    29       P1 10175  1.00

> <Gold.PLP.Chemscore.Internal.Correction>
1.1704

> <Gold.Rescore>
     Score         DG    S(hbond)    S(metal)    S(lipo)     H(rot)  DE(clash)    DE(int)     intcor
     15.31     -18.92       2.83        0.00      86.30       2.39       0.08       3.53       ----

> <Gold.Chemscore.Fitness>
15.3072

> <Gold.Chemscore.DG>
-18.9176

> <Gold.Chemscore.ZeroCoef>
-5.4800

> <Gold.Chemscore.Hbond>
2.8333

> <Gold.Chemscore.Metal>
0.0000

> <Gold.Chemscore.Lipo>
86.3005

> <Gold.Chemscore.Internal_Hbond>
0.0000

> <Gold.Chemscore.DEClash>
0.0786

> <Gold.Chemscore.DEInternal>
3.5319

> <Gold.Chemscore.Rot>
2.3917

> <Gold.Chemscore.Internal.Correction>
   9.000000E+99

> <Gold.Chemscore.Hbonds>
donor molecule, donor type, donor heavy atom, donor atom, acceptor molecule, acceptor atom, score
      L1  H     6    22       P1  8028  0.96
      L1  H     9    23       P1  8028  0.93
      L1  H    13    29       P1 10175  0.44

> <Gold.Chemscore.Hbond.Weighted>
-9.4633

> <Gold.Chemscore.Metal.Weighted>
-0.0000

> <Gold.Chemscore.Lipo.Weighted>
-10.0972

> <Gold.Chemscore.Internal_Hbond.Weighted>
0.0000

> <Gold.Chemscore.DEClash.Weighted>
0.0786

> <Gold.Chemscore.DEInternal.Weighted>
3.5319

> <Gold.Chemscore.Rot.Weighted>
6.1228

> <Gold.Chemscore.Internal.Correction.Weighted>
   9.000000E+99

> <Gold.Protein.RotatedTorsions>
[ 6907 6896 6895 6894 ] final   46.86 input  -60.11 | X-H torsion
[ 7974 7965 7964 7962 ] final   61.67 input  175.53 | X-H torsion
[ 8008 7997 7996 7995 ] final -102.83 input   59.86 | X-H torsion
[ 10167 10162 10161 10158 ] final  -88.62 input  -65.29 | X-H torsion
[ 10718 10713 10712 10709 ] final   -6.85 input   66.30 | X-H torsion
[ 10763 10752 10751 10750 ] final -142.96 input  -60.55 | X-H torsion
[ 11005 11000 10999 10996 ] final   54.92 input  -57.11 | X-H torsion

> <Gold.Protein.ActiveResidues>
 VAL166  LYS551  ARG553  GLY616  TRP617  ASP618  TYR619  PRO620  LYS621  CYS622 
 ASP623  PHE694  ASN695  SER759  ASP760  ASP761  ALA762  ILE779  LEU786  VAL792 
 PHE793  MET794  SER795  GLU796  ALA797  LYS798  CYS799  TRP800  GLU811  SER814 

> <Gold.Protein.RotatedAtoms>
  152.2613  134.8031  160.0429 H   0  0  0  0  0  0  0  0  0  0  0  0  # atno 6907 bound_to 6896
  151.8676  133.3464  159.3732 H   0  0  0  0  0  0  0  0  0  0  0  0  # atno 6908 bound_to 6896
  150.7118  134.5071  159.5634 H   0  0  0  0  0  0  0  0  0  0  0  0  # atno 6909 bound_to 6896
  145.8821  139.3450  143.0700 H   0  0  0  0  0  0  0  0  0  0  0  0  # atno 7974 bound_to 7965
  154.8623  140.0426  157.1673 H   0  0  0  0  0  0  0  0  0  0  0  0  # atno 8008 bound_to 7997
  154.8827  140.2975  155.5395 H   0  0  0  0  0  0  0  0  0  0  0  0  # atno 8009 bound_to 7997
  156.2998  140.2408  156.3832 H   0  0  0  0  0  0  0  0  0  0  0  0  # atno 8010 bound_to 7997
  140.3729  143.2785  151.9478 H   0  0  0  0  0  0  0  0  0  0  0  0  # atno 10167 bound_to 10162
  156.7259  130.5165  149.5857 H   0  0  0  0  0  0  0  0  0  0  0  0  # atno 10718 bound_to 10713
  154.8489  135.3481  154.6111 H   0  0  0  0  0  0  0  0  0  0  0  0  # atno 10763 bound_to 10752
  153.6719  135.6984  153.5149 H   0  0  0  0  0  0  0  0  0  0  0  0  # atno 10764 bound_to 10752
  153.2735  135.4285  155.0968 H   0  0  0  0  0  0  0  0  0  0  0  0  # atno 10765 bound_to 10752
  140.0648  134.5552  155.9112 H   0  0  0  0  0  0  0  0  0  0  0  0  # atno 11005 bound_to 11000
  145.9011  140.9242  143.0502 LP  0  0  0  0  0  0  0  0  0  0  0  0  # atno 17320 bound_to 7965
  144.6727  140.1034  143.7459 LP  0  0  0  0  0  0  0  0  0  0  0  0  # atno 17321 bound_to 7965
  139.4802  144.5890  151.7804 LP  0  0  0  0  0  0  0  0  0  0  0  0  # atno 17342 bound_to 10162
  140.5015  144.1162  150.5972 LP  0  0  0  0  0  0  0  0  0  0  0  0  # atno 17343 bound_to 10162
  156.1562  130.6343  151.0660 LP  0  0  0  0  0  0  0  0  0  0  0  0  # atno 17370 bound_to 10713
  157.6879  131.0819  150.7191 LP  0  0  0  0  0  0  0  0  0  0  0  0  # atno 17371 bound_to 10713
  141.1988  133.6603  156.5811 LP  0  0  0  0  0  0  0  0  0  0  0  0  # atno 17394 bound_to 11000
  140.3716  134.7601  157.4602 LP  0  0  0  0  0  0  0  0  0  0  0  0  # atno 17395 bound_to 11000

$$$$
