AV-unprocessed.smi:2568|AV-procd|sdf|10101|dock8
  -GOLD-   2272014113D 1   1.00000     0.00000
 Structure written by MMmdl.
 23 24  0  0  0  0  0  0  0  0  2 V2000
  155.5418  139.7582  160.5111 C   0  0  0  0  0  0  0  0  0  0  0  0
  154.4836  140.5560  159.7848 C   0  0  0  0  0  0  0  0  0  0  0  0
  153.6358  140.0807  158.8556 N   0  5  0  0  0  0  0  0  0  0  0  0
  152.8508  141.0505  158.4322 N   0  0  0  0  0  0  0  0  0  0  0  0
  153.2340  142.1438  159.1104 C   0  0  0  0  0  0  0  0  0  0  0  0
  152.5834  143.5067  158.9759 C   0  0  1  0  0  0  0  0  0  0  0  0
  151.4354  143.4743  157.9467 C   0  0  0  0  0  0  0  0  0  0  0  0
  150.8085  144.7912  157.8303 N   0  0  0  0  0  0  0  0  0  0  0  0
  150.3644  145.2836  159.1324 C   0  0  0  0  0  0  0  0  0  0  0  0
  151.5338  145.2775  160.1315 C   0  0  0  0  0  0  0  0  0  0  0  0
  152.0691  143.9626  160.2259 O   0  0  0  0  0  0  0  0  0  0  0  0
  154.2322  141.8495  159.9570 N   0  0  0  0  0  0  0  0  0  0  0  0
  155.5008  138.7085  160.2198 H   0  0  0  0  0  0  0  0  0  0  0  0
  155.3921  139.8243  161.5887 H   0  0  0  0  0  0  0  0  0  0  0  0
  156.5329  140.1446  160.2741 H   0  0  0  0  0  0  0  0  0  0  0  0
  153.3570  144.2005  158.6408 H   0  0  0  0  0  0  0  0  0  0  0  0
  151.8140  143.1567  156.9749 H   0  0  0  0  0  0  0  0  0  0  0  0
  150.6922  142.7355  158.2498 H   0  0  0  0  0  0  0  0  0  0  0  0
  150.0159  144.7338  157.1994 H   0  0  0  0  0  0  0  0  0  0  0  0
  149.9605  146.2912  159.0335 H   0  0  0  0  0  0  0  0  0  0  0  0
  149.5563  144.6565  159.5111 H   0  0  0  0  0  0  0  0  0  0  0  0
  152.3110  145.9824  159.8314 H   0  0  0  0  0  0  0  0  0  0  0  0
  151.1863  145.5879  161.1169 H   0  0  0  0  0  0  0  0  0  0  0  0
  1 13  1  0  0  0  0
  1 14  1  0  0  0  0
  1 15  1  0  0  0  0
  1  2  1  0  0  0  0
  2 12  2  0  0  0  0
  2  3  1  0  0  0  0
  3  4  1  0  0  0  0
  4  5  2  0  0  0  0
  5 12  1  0  0  0  0
  5  6  1  0  0  0  0
  6 11  1  0  0  0  0
  6  7  1  0  0  0  0
  6 16  1  0  0  0  0
  7  8  1  0  0  0  0
  7 17  1  0  0  0  0
  7 18  1  0  0  0  0
  8  9  1  0  0  0  0
  8 19  1  0  0  0  0
  9 10  1  0  0  0  0
  9 20  1  0  0  0  0
  9 21  1  0  0  0  0
 10 11  1  0  0  0  0
 10 22  1  0  0  0  0
 10 23  1  0  0  0  0
M  CHG  1   3  -1
M  END
> <s_m_source_file>
AV-unprocessed.smi

> <i_m_source_file_index>
2568

> <i_lp_mmshare_version>
43012

> <i_f3d_flags>
0

> <s_epik_input>
W0NIM11jMW5bbkhdYyhuMSlbQ0BASF0yW0NIMl1bTkhdW0NIMl1bQ0gyXU8y

> <s_epik_cmdline>
J2VwaWtfcHl0aG9uJywgJy1waCcsICc3LjAnLCAnLXRuJywgJzgnLCAnLW1hJywgJzIwMCcsICctbWV0YWxfYmluZGluZycsICctaW1hZScsICc8aW5maWxlLm1hZT4nLCAnLW9tYWUnLCAnPG91dGZpbGUubWFlPic=

> <r_epik_Ionization_Penalty>
17.7898

> <r_epik_Ionization_Penalty_Charging>
16.2165

> <r_epik_Ionization_Penalty_Neutral>
1.5733

> <r_epik_State_Penalty>
6.78491

> <r_epik_Charging_Adjusted_Penalty>
23.0014

> <i_epik_Tot_Q>
-1

> <i_epik_Tot_abs_Q>
1

> <r_epik_Metal_State_Penalty>
3.02615

> <b_epik_Metal_Only>
1

> <s_lp_Force_Field>
OPLS_2005

> <r_lp_Energy>
14.4772

> <b_lp_Chiralities_Consistent>
1

> <s_lp_Variant>
AV-unprocessed.smi:2568-14

> <Gold.Version>
5.8.1

> <Gold.Id.Protein>
6NUR|6NUR_protein|mol2

> <Gold.PLP.Fitness>
30.7290

> <Gold.PLP.PLP>
-22.8290

> <Gold.PLP.part.hbond>
-3.0953

> <Gold.PLP.part.metal>
0.0000

> <Gold.PLP.part.buried>
-1.0019

> <Gold.PLP.part.nonpolar>
-17.8505

> <Gold.PLP.part.repulsive>
0.0549

> <Gold.PLP.ligand.clash>
0.0000

> <Gold.PLP.ligand.torsion>
0.0098

> <Gold.PLP.Chemscore.Hbond>
2.6364

> <Gold.PLP.Chemscore.CHOScore>
0.0000

> <Gold.PLP.Chemscore.Metal>
0.0000

> <Gold.Chemscore.Hbonds>
donor molecule, donor type, donor heavy atom, donor atom, acceptor molecule, acceptor atom, score
      L1  H     8    19       P1  8028  0.95
      P1  H  7997  8010       L1     3  1.69

> <Gold.PLP.Chemscore.Internal.Correction>
0.0103

> <Gold.Rescore>
     Score         DG    S(hbond)    S(metal)    S(lipo)     H(rot)  DE(clash)    DE(int)     intcor
     12.57     -12.60       0.98        0.00      54.80       1.00       0.02       0.01       ----

> <Gold.Chemscore.Fitness>
12.5683

> <Gold.Chemscore.DG>
-12.5954

> <Gold.Chemscore.ZeroCoef>
-5.4800

> <Gold.Chemscore.Hbond>
0.9771

> <Gold.Chemscore.Metal>
0.0000

> <Gold.Chemscore.Lipo>
54.8018

> <Gold.Chemscore.Internal_Hbond>
0.0000

> <Gold.Chemscore.DEClash>
0.0219

> <Gold.Chemscore.DEInternal>
0.0052

> <Gold.Chemscore.Rot>
1.0000

> <Gold.Chemscore.Internal.Correction>
   9.000000E+99

> <Gold.Chemscore.Hbonds>
donor molecule, donor type, donor heavy atom, donor atom, acceptor molecule, acceptor atom, score
      L1  H     8    19       P1  8028  0.22
      P1  H  7997  8010       L1     3  0.04

> <Gold.Chemscore.Hbond.Weighted>
-3.2635

> <Gold.Chemscore.Metal.Weighted>
-0.0000

> <Gold.Chemscore.Lipo.Weighted>
-6.4118

> <Gold.Chemscore.Internal_Hbond.Weighted>
0.0000

> <Gold.Chemscore.DEClash.Weighted>
0.0219

> <Gold.Chemscore.DEInternal.Weighted>
0.0052

> <Gold.Chemscore.Rot.Weighted>
2.5600

> <Gold.Chemscore.Internal.Correction.Weighted>
   9.000000E+99

> <Gold.Protein.RotatedTorsions>
[ 6907 6896 6895 6894 ] final   19.68 input  -60.11 | X-H torsion
[ 7974 7965 7964 7962 ] final   75.74 input  175.53 | X-H torsion
[ 8008 7997 7996 7995 ] final   15.69 input   59.86 | X-H torsion
[ 10167 10162 10161 10158 ] final -118.06 input  -65.29 | X-H torsion
[ 10718 10713 10712 10709 ] final   42.72 input   66.30 | X-H torsion
[ 10763 10752 10751 10750 ] final  -34.81 input  -60.55 | X-H torsion
[ 11005 11000 10999 10996 ] final  -64.44 input  -57.11 | X-H torsion

> <Gold.Protein.ActiveResidues>
 VAL166  LYS551  ARG553  GLY616  TRP617  ASP618  TYR619  PRO620  LYS621  CYS622 
 ASP623  PHE694  ASN695  SER759  ASP760  ASP761  ALA762  ILE779  LEU786  VAL792 
 PHE793  MET794  SER795  GLU796  ALA797  LYS798  CYS799  TRP800  GLU811  SER814 

> <Gold.Protein.RotatedAtoms>
  151.8847  135.0440  160.0491 H   0  0  0  0  0  0  0  0  0  0  0  0  # atno 6907 bound_to 6896
  152.2484  133.5190  159.5319 H   0  0  0  0  0  0  0  0  0  0  0  0  # atno 6908 bound_to 6896
  150.7076  134.0910  159.3974 H   0  0  0  0  0  0  0  0  0  0  0  0  # atno 6909 bound_to 6896
  145.7117  139.2617  143.1647 H   0  0  0  0  0  0  0  0  0  0  0  0  # atno 7974 bound_to 7965
  154.8662  140.2952  155.5509 H   0  0  0  0  0  0  0  0  0  0  0  0  # atno 8008 bound_to 7997
  156.3021  140.2469  156.3577 H   0  0  0  0  0  0  0  0  0  0  0  0  # atno 8009 bound_to 7997
  154.8865  140.0396  157.1802 H   0  0  0  0  0  0  0  0  0  0  0  0  # atno 8010 bound_to 7997
  140.0616  143.4962  152.2028 H   0  0  0  0  0  0  0  0  0  0  0  0  # atno 10167 bound_to 10162
  157.4080  130.7898  149.7405 H   0  0  0  0  0  0  0  0  0  0  0  0  # atno 10718 bound_to 10713
  153.8529  135.6847  153.4790 H   0  0  0  0  0  0  0  0  0  0  0  0  # atno 10763 bound_to 10752
  153.1387  135.4667  154.9460 H   0  0  0  0  0  0  0  0  0  0  0  0  # atno 10764 bound_to 10752
  154.7794  135.3264  154.7971 H   0  0  0  0  0  0  0  0  0  0  0  0  # atno 10765 bound_to 10752
  141.1425  133.6666  156.5834 H   0  0  0  0  0  0  0  0  0  0  0  0  # atno 11005 bound_to 11000
  146.0706  140.7873  142.9690 LP  0  0  0  0  0  0  0  0  0  0  0  0  # atno 17320 bound_to 7965
  144.6940  140.3336  143.7211 LP  0  0  0  0  0  0  0  0  0  0  0  0  # atno 17321 bound_to 7965
  139.5890  144.7543  151.3447 LP  0  0  0  0  0  0  0  0  0  0  0  0  # atno 17342 bound_to 10162
  140.7169  143.7242  150.7673 LP  0  0  0  0  0  0  0  0  0  0  0  0  # atno 17343 bound_to 10162
  155.9842  130.3993  150.3324 LP  0  0  0  0  0  0  0  0  0  0  0  0  # atno 17370 bound_to 10713
  157.1459  131.0308  151.2907 LP  0  0  0  0  0  0  0  0  0  0  0  0  # atno 17371 bound_to 10713
  140.3820  134.7515  157.4667 LP  0  0  0  0  0  0  0  0  0  0  0  0  # atno 17394 bound_to 11000
  140.0630  134.5968  155.8727 LP  0  0  0  0  0  0  0  0  0  0  0  0  # atno 17395 bound_to 11000

$$$$
