AV-unprocessed.smi:2720|AV-procd|sdf|10498|dock1
  -GOLD-   2272014543D 1   1.00000     0.00000
 Structure written by MMmdl.
 31 32  0  0  0  0  0  0  0  0  2 V2000
  149.4297  141.2539  153.2811 O   0  0  0  0  0  0  0  0  0  0  0  0
  148.8250  140.8773  154.5058 C   0  0  0  0  0  0  0  0  0  0  0  0
  149.9519  140.8319  155.5728 C   0  0  0  0  0  0  0  0  0  0  0  0
  150.8451  139.6014  155.5202 C   0  0  0  0  0  0  0  0  0  0  0  0
  151.0487  138.9029  154.3111 C   0  0  0  0  0  0  0  0  0  0  0  0
  151.8888  137.7712  154.3217 C   0  0  0  0  0  0  0  0  0  0  0  0
  152.5104  137.3193  155.4319 N   0  0  0  0  0  0  0  0  0  0  0  0
  152.3081  137.9899  156.5862 C   0  0  0  0  0  0  0  0  0  0  0  0
  151.4873  139.1313  156.6842 C   0  0  0  0  0  0  0  0  0  0  0  0
  147.7793  141.9558  154.8744 C   0  0  0  0  0  0  0  0  0  0  0  0
  146.5886  141.9894  153.8983 C   0  0  0  0  0  0  0  0  0  0  0  0
  145.9604  140.6566  153.7923 N   0  3  0  0  0  0  0  0  0  0  0  0
  146.9071  139.6146  153.3443 C   0  0  0  0  0  0  0  0  0  0  0  0
  148.1119  139.5168  154.2986 C   0  0  0  0  0  0  0  0  0  0  0  0
  149.4242  140.5092  152.6986 H   0  0  0  0  0  0  0  0  0  0  0  0
  150.5697  141.7299  155.5218 H   0  0  0  0  0  0  0  0  0  0  0  0
  149.5026  140.8503  156.5668 H   0  0  0  0  0  0  0  0  0  0  0  0
  150.5773  139.2244  153.3940 H   0  0  0  0  0  0  0  0  0  0  0  0
  152.0674  137.2151  153.4132 H   0  0  0  0  0  0  0  0  0  0  0  0
  152.8163  137.6063  157.4583 H   0  0  0  0  0  0  0  0  0  0  0  0
  151.3590  139.6338  157.6318 H   0  0  0  0  0  0  0  0  0  0  0  0
  147.3964  141.7604  155.8773 H   0  0  0  0  0  0  0  0  0  0  0  0
  148.2483  142.9398  154.9176 H   0  0  0  0  0  0  0  0  0  0  0  0
  145.8420  142.7065  154.2404 H   0  0  0  0  0  0  0  0  0  0  0  0
  146.9102  142.3162  152.9087 H   0  0  0  0  0  0  0  0  0  0  0  0
  145.5982  140.3962  154.6984 H   0  0  0  0  0  0  0  0  0  0  0  0
  146.3861  138.6580  153.2982 H   0  0  0  0  0  0  0  0  0  0  0  0
  147.2388  139.8424  152.3304 H   0  0  0  0  0  0  0  0  0  0  0  0
  148.8066  138.7693  153.9132 H   0  0  0  0  0  0  0  0  0  0  0  0
  147.7655  139.1428  155.2631 H   0  0  0  0  0  0  0  0  0  0  0  0
  145.1936  140.7064  153.1366 H   0  0  0  0  0  0  0  0  0  0  0  0
  1  2  1  0  0  0  0
  1 15  1  0  0  0  0
  2 14  1  0  0  0  0
  2  3  1  0  0  0  0
  2 10  1  0  0  0  0
  3  4  1  0  0  0  0
  3 16  1  0  0  0  0
  3 17  1  0  0  0  0
  4  9  1  0  0  0  0
  4  5  2  0  0  0  0
  5  6  1  0  0  0  0
  5 18  1  0  0  0  0
  6  7  2  0  0  0  0
  6 19  1  0  0  0  0
  7  8  1  0  0  0  0
  8  9  2  0  0  0  0
  8 20  1  0  0  0  0
  9 21  1  0  0  0  0
 10 11  1  0  0  0  0
 10 22  1  0  0  0  0
 10 23  1  0  0  0  0
 11 12  1  0  0  0  0
 11 24  1  0  0  0  0
 11 25  1  0  0  0  0
 12 13  1  0  0  0  0
 12 26  1  0  0  0  0
 12 31  1  0  0  0  0
 13 14  1  0  0  0  0
 13 27  1  0  0  0  0
 13 28  1  0  0  0  0
 14 29  1  0  0  0  0
 14 30  1  0  0  0  0
M  CHG  1  12   1
M  END
> <s_m_source_file>
AV-unprocessed.smi

> <i_m_source_file_index>
2720

> <i_lp_mmshare_version>
43012

> <i_f3d_flags>
0

> <s_epik_input>
W0NIMl0xW0NIMl1bTkhdW0NIMl1bQ0gyXUMxKFtPSF0pW0NIMl1jMltjSF1bY0hdbltjSF1bY0hdMg==

> <s_epik_cmdline>
J2VwaWtfcHl0aG9uJywgJy1waCcsICc3LjAnLCAnLXRuJywgJzgnLCAnLW1hJywgJzIwMCcsICctbWV0YWxfYmluZGluZycsICctaW1hZScsICc8aW5maWxlLm1hZT4nLCAnLW9tYWUnLCAnPG91dGZpbGUubWFlPic=

> <r_epik_Ionization_Penalty>
0.069741

> <r_epik_Ionization_Penalty_Charging>
0.000197202

> <r_epik_Ionization_Penalty_Neutral>
0.0695438

> <r_epik_State_Penalty>
0.060924

> <r_epik_Charging_Adjusted_Penalty>
0.0611212

> <i_epik_Tot_Q>
1

> <i_epik_Tot_abs_Q>
1

> <r_epik_Metal_State_Penalty>
6.4163e-05

> <b_epik_Metal_Only>
0

> <s_lp_Force_Field>
OPLS_2005

> <r_lp_Energy>
18.1257

> <b_lp_Chiralities_Consistent>
1

> <s_lp_Variant>
AV-unprocessed.smi:2720-1

> <Gold.Version>
5.8.1

> <Gold.Id.Protein>
6NUR|6NUR_protein|mol2

> <Gold.PLP.Fitness>
42.8479

> <Gold.PLP.PLP>
-27.3227

> <Gold.PLP.part.hbond>
-4.5760

> <Gold.PLP.part.metal>
0.0000

> <Gold.PLP.part.buried>
-0.8538

> <Gold.PLP.part.nonpolar>
-22.4026

> <Gold.PLP.part.repulsive>
0.0313

> <Gold.PLP.ligand.clash>
0.0000

> <Gold.PLP.ligand.torsion>
0.5685

> <Gold.PLP.Chemscore.Hbond>
4.5528

> <Gold.PLP.Chemscore.CHOScore>
1.0000

> <Gold.PLP.Chemscore.Metal>
0.0000

> <Gold.Chemscore.Hbonds>
donor molecule, donor type, donor heavy atom, donor atom, acceptor molecule, acceptor atom, score
      L1  H     1    15       P1  7957  0.88
      L1  H    12    31       P1 10175  2.00
      P1  H  7989  7998       L1     1  0.02
      P1  H  8011  8017       L1     1  1.00
      P1  H 10752 10763       L1     7  0.66
      L1  C     6    19       P1  7949  1.00

> <Gold.PLP.Chemscore.Internal.Correction>
0.0037

> <Gold.Rescore>
     Score         DG    S(hbond)    S(metal)    S(lipo)     H(rot)  DE(clash)    DE(int)     intcor
     16.59     -17.91       2.44        0.00      71.83       1.61       0.02       1.30       ----

> <Gold.Chemscore.Fitness>
16.5903

> <Gold.Chemscore.DG>
-17.9119

> <Gold.Chemscore.ZeroCoef>
-5.4800

> <Gold.Chemscore.Hbond>
2.4400

> <Gold.Chemscore.Metal>
0.0000

> <Gold.Chemscore.Lipo>
71.8327

> <Gold.Chemscore.Internal_Hbond>
0.0000

> <Gold.Chemscore.DEClash>
0.0216

> <Gold.Chemscore.DEInternal>
1.3000

> <Gold.Chemscore.Rot>
1.6102

> <Gold.Chemscore.Internal.Correction>
   9.000000E+99

> <Gold.Chemscore.Hbonds>
donor molecule, donor type, donor heavy atom, donor atom, acceptor molecule, acceptor atom, score
      L1  H     1    15       P1  7957  0.86
      L1  H    12    31       P1 10175  0.78
      P1  H  8011  8017       L1     1  0.32
      P1  H 10752 10763       L1     7  0.16

> <Gold.Chemscore.Hbond.Weighted>
-8.1497

> <Gold.Chemscore.Metal.Weighted>
-0.0000

> <Gold.Chemscore.Lipo.Weighted>
-8.4044

> <Gold.Chemscore.Internal_Hbond.Weighted>
0.0000

> <Gold.Chemscore.DEClash.Weighted>
0.0216

> <Gold.Chemscore.DEInternal.Weighted>
1.3000

> <Gold.Chemscore.Rot.Weighted>
4.1222

> <Gold.Chemscore.Internal.Correction.Weighted>
   9.000000E+99

> <Gold.Protein.RotatedTorsions>
[ 6907 6896 6895 6894 ] final   76.69 input  -60.11 | X-H torsion
[ 7974 7965 7964 7962 ] final  109.20 input  175.53 | X-H torsion
[ 8008 7997 7996 7995 ] final  -53.10 input   59.86 | X-H torsion
[ 10167 10162 10161 10158 ] final   -0.72 input  -65.29 | X-H torsion
[ 10718 10713 10712 10709 ] final -148.54 input   66.30 | X-H torsion
[ 10763 10752 10751 10750 ] final   73.68 input  -60.55 | X-H torsion
[ 11005 11000 10999 10996 ] final   20.65 input  -57.11 | X-H torsion

> <Gold.Protein.ActiveResidues>
 VAL166  LYS551  ARG553  GLY616  TRP617  ASP618  TYR619  PRO620  LYS621  CYS622 
 ASP623  PHE694  ASN695  SER759  ASP760  ASP761  ALA762  ILE779  LEU786  VAL792 
 PHE793  MET794  SER795  GLU796  ALA797  LYS798  CYS799  TRP800  GLU811  SER814 

> <Gold.Protein.RotatedAtoms>
  152.5084  134.3930  159.9390 H   0  0  0  0  0  0  0  0  0  0  0  0  # atno 6907 bound_to 6896
  151.3891  133.3789  159.2726 H   0  0  0  0  0  0  0  0  0  0  0  0  # atno 6908 bound_to 6896
  150.9446  134.8873  159.7693 H   0  0  0  0  0  0  0  0  0  0  0  0  # atno 6909 bound_to 6896
  145.2709  139.2667  143.3967 H   0  0  0  0  0  0  0  0  0  0  0  0  # atno 7974 bound_to 7965
  154.4124  140.1208  156.5099 H   0  0  0  0  0  0  0  0  0  0  0  0  # atno 8008 bound_to 7997
  155.6809  140.3496  155.4835 H   0  0  0  0  0  0  0  0  0  0  0  0  # atno 8009 bound_to 7997
  155.9552  140.1112  157.0933 H   0  0  0  0  0  0  0  0  0  0  0  0  # atno 8010 bound_to 7997
  140.6779  143.6861  150.8066 H   0  0  0  0  0  0  0  0  0  0  0  0  # atno 10167 bound_to 10162
  156.4215  130.8031  151.2254 H   0  0  0  0  0  0  0  0  0  0  0  0  # atno 10718 bound_to 10713
  153.0537  135.5054  154.7930 H   0  0  0  0  0  0  0  0  0  0  0  0  # atno 10763 bound_to 10752
  154.6772  135.2962  154.9665 H   0  0  0  0  0  0  0  0  0  0  0  0  # atno 10764 bound_to 10752
  154.0463  135.6710  153.4848 H   0  0  0  0  0  0  0  0  0  0  0  0  # atno 10765 bound_to 10752
  140.4003  134.1726  155.7664 H   0  0  0  0  0  0  0  0  0  0  0  0  # atno 11005 bound_to 11000
  146.3247  140.3151  142.8629 LP  0  0  0  0  0  0  0  0  0  0  0  0  # atno 17320 bound_to 7965
  144.9336  140.8002  143.5674 LP  0  0  0  0  0  0  0  0  0  0  0  0  # atno 17321 bound_to 7965
  140.0557  143.5205  152.2652 LP  0  0  0  0  0  0  0  0  0  0  0  0  # atno 17342 bound_to 10162
  139.6083  144.7602  151.3010 LP  0  0  0  0  0  0  0  0  0  0  0  0  # atno 17343 bound_to 10162
  157.7508  131.0226  150.3800 LP  0  0  0  0  0  0  0  0  0  0  0  0  # atno 17370 bound_to 10713
  156.4119  130.3936  149.6885 LP  0  0  0  0  0  0  0  0  0  0  0  0  # atno 17371 bound_to 10713
  141.1859  133.8313  157.1087 LP  0  0  0  0  0  0  0  0  0  0  0  0  # atno 17394 bound_to 11000
  140.0341  134.9886  157.0838 LP  0  0  0  0  0  0  0  0  0  0  0  0  # atno 17395 bound_to 11000

$$$$
