AV-unprocessed.smi:457|AV-procd|sdf|2619|dock6
  -GOLD-   2262023 23D 1   1.00000     0.00000
 Structure written by MMmdl.
 41 41  0  0  0  0  0  0  0  0  1 V2000
  147.6527  140.9800  153.6489 C   0  0  0  0  0  0  0  0  0  0  0  0
  148.3446  140.8895  155.0123 C   0  0  0  0  0  0  0  0  0  0  0  0
  149.4297  141.9650  155.1898 C   0  0  0  0  0  0  0  0  0  0  0  0
  150.4491  141.5786  156.1449 N   0  0  0  0  0  0  0  0  0  0  0  0
  150.7267  142.2912  157.3150 C   0  0  0  0  0  0  0  0  0  0  0  0
  150.0023  143.4462  157.5671 N   0  0  0  0  0  0  0  0  0  0  0  0
  151.6998  141.8963  158.1869 C   0  0  0  0  0  0  0  0  0  0  0  0
  151.9971  142.5820  159.3621 N   0  0  0  0  0  0  0  0  0  0  0  0
  151.2661  143.7910  159.7357 C   0  0  0  0  0  0  0  0  0  0  0  0
  152.1652  145.0344  159.7501 C   0  0  0  0  0  0  0  0  0  0  0  0
  153.0797  142.1448  160.2421 C   0  0  0  0  0  0  0  0  0  0  0  0
  152.9146  142.6629  161.6778 C   0  0  0  0  0  0  0  0  0  0  0  0
  154.0272  142.2394  162.4470 O   0  0  0  0  0  0  0  0  0  0  0  0
  154.0770  142.8629  163.7183 C   0  0  0  0  0  0  0  0  0  0  0  0
  152.4952  140.6927  157.9166 C   0  0  0  0  0  0  0  0  0  0  0  0
  153.3789  140.2379  158.6424 O   0  0  0  0  0  0  0  0  0  0  0  0
  152.1897  140.0417  156.7240 N   0  0  0  0  0  0  0  0  0  0  0  0
  151.2116  140.4324  155.8165 C   0  0  0  0  0  0  0  0  0  0  0  0
  151.0506  139.7810  154.7837 O   0  0  0  0  0  0  0  0  0  0  0  0
  152.7271  139.2175  156.4974 H   0  0  0  0  0  0  0  0  0  0  0  0
  146.8882  140.2092  153.5493 H   0  0  0  0  0  0  0  0  0  0  0  0
  148.3670  140.8481  152.8358 H   0  0  0  0  0  0  0  0  0  0  0  0
  147.1685  141.9480  153.5172 H   0  0  0  0  0  0  0  0  0  0  0  0
  147.5954  140.9844  155.7989 H   0  0  0  0  0  0  0  0  0  0  0  0
  148.7871  139.8994  155.1264 H   0  0  0  0  0  0  0  0  0  0  0  0
  149.9373  142.1791  154.2498 H   0  0  0  0  0  0  0  0  0  0  0  0
  149.0121  142.9218  155.5089 H   0  0  0  0  0  0  0  0  0  0  0  0
  149.2910  143.7728  156.9291 H   0  0  0  0  0  0  0  0  0  0  0  0
  150.1085  143.9655  158.4264 H   0  0  0  0  0  0  0  0  0  0  0  0
  150.4294  143.9487  159.0558 H   0  0  0  0  0  0  0  0  0  0  0  0
  150.8272  143.6595  160.7256 H   0  0  0  0  0  0  0  0  0  0  0  0
  151.6058  145.9106  160.0781 H   0  0  0  0  0  0  0  0  0  0  0  0
  152.5683  145.2554  158.7620 H   0  0  0  0  0  0  0  0  0  0  0  0
  153.0051  144.9029  160.4328 H   0  0  0  0  0  0  0  0  0  0  0  0
  153.1365  141.0565  160.2471 H   0  0  0  0  0  0  0  0  0  0  0  0
  154.0351  142.4913  159.8456 H   0  0  0  0  0  0  0  0  0  0  0  0
  152.8574  143.7526  161.6769 H   0  0  0  0  0  0  0  0  0  0  0  0
  151.9947  142.2838  162.1240 H   0  0  0  0  0  0  0  0  0  0  0  0
  154.9451  142.5015  164.2695 H   0  0  0  0  0  0  0  0  0  0  0  0
  153.1864  142.6341  164.3057 H   0  0  0  0  0  0  0  0  0  0  0  0
  154.1651  143.9461  163.6230 H   0  0  0  0  0  0  0  0  0  0  0  0
  1  2  1  0  0  0  0
  1 21  1  0  0  0  0
  1 22  1  0  0  0  0
  1 23  1  0  0  0  0
  2  3  1  0  0  0  0
  2 24  1  0  0  0  0
  2 25  1  0  0  0  0
  3  4  1  0  0  0  0
  3 26  1  0  0  0  0
  3 27  1  0  0  0  0
  4 18  1  0  0  0  0
  4  5  1  0  0  0  0
  5  6  1  0  0  0  0
  5  7  2  0  0  0  0
  6 28  1  0  0  0  0
  6 29  1  0  0  0  0
  7  8  1  0  0  0  0
  7 15  1  0  0  0  0
  8  9  1  0  0  0  0
  8 11  1  0  0  0  0
  9 10  1  0  0  0  0
  9 30  1  0  0  0  0
  9 31  1  0  0  0  0
 10 32  1  0  0  0  0
 10 33  1  0  0  0  0
 10 34  1  0  0  0  0
 11 12  1  0  0  0  0
 11 35  1  0  0  0  0
 11 36  1  0  0  0  0
 12 13  1  0  0  0  0
 12 37  1  0  0  0  0
 12 38  1  0  0  0  0
 13 14  1  0  0  0  0
 14 39  1  0  0  0  0
 14 40  1  0  0  0  0
 14 41  1  0  0  0  0
 15 16  2  0  0  0  0
 15 17  1  0  0  0  0
 17 20  1  0  0  0  0
 17 18  1  0  0  0  0
 18 19  2  0  0  0  0
M  END
> <s_m_source_file>
AV-unprocessed.smi

> <i_m_source_file_index>
457

> <i_lp_mmshare_version>
43012

> <i_f3d_flags>
0

> <s_epik_input>
W0NIM11bQ0gyXVtDSDJdbjFjKFtOSDJdKWMoYyg9TylbbkhdYzE9TylOKFtDSDJdW0NIM10pW0NIMl1bQ0gyXU9bQ0gzXQ==

> <s_epik_cmdline>
J2VwaWtfcHl0aG9uJywgJy1waCcsICc3LjAnLCAnLXRuJywgJzgnLCAnLW1hJywgJzIwMCcsICctbWV0YWxfYmluZGluZycsICctaW1hZScsICc8aW5maWxlLm1hZT4nLCAnLW9tYWUnLCAnPG91dGZpbGUubWFlPic=

> <r_lp_tautomer_probability>
1

> <r_epik_Ionization_Penalty>
0.000127086

> <r_epik_Ionization_Penalty_Charging>
2.15301e-06

> <r_epik_Ionization_Penalty_Neutral>
0.000124933

> <r_epik_State_Penalty>
-0

> <r_epik_Charging_Adjusted_Penalty>
2.15301e-06

> <i_epik_Tot_Q>
0

> <i_epik_Tot_abs_Q>
0

> <r_epik_Metal_State_Penalty>
-0

> <b_epik_Metal_Only>
0

> <s_epik_Chemistry_Notes>
This compound has an imine and may undergo hydrolysis.

> <s_lp_Force_Field>
OPLS_2005

> <r_lp_Energy>
18.1381

> <b_lp_Chiralities_Consistent>
1

> <s_lp_Variant>
AV-unprocessed.smi:457-1

> <Gold.Version>
5.8.1

> <Gold.Id.Protein>
6NUR|6NUR_protein|mol2

> <Gold.PLP.Fitness>
50.5804

> <Gold.PLP.PLP>
-43.1605

> <Gold.PLP.part.hbond>
-4.2013

> <Gold.PLP.part.metal>
0.0000

> <Gold.PLP.part.buried>
0.4165

> <Gold.PLP.part.nonpolar>
-36.5458

> <Gold.PLP.part.repulsive>
0.3509

> <Gold.PLP.ligand.clash>
22.7857

> <Gold.PLP.ligand.torsion>
0.5094

> <Gold.PLP.Chemscore.Hbond>
2.7920

> <Gold.PLP.Chemscore.CHOScore>
0.0000

> <Gold.PLP.Chemscore.Metal>
0.0000

> <Gold.Chemscore.Hbonds>
donor molecule, donor type, donor heavy atom, donor atom, acceptor molecule, acceptor atom, score
      L1  H     6    28       P1  8028  0.98
      P1  H  7989  7998       L1    19  1.00
      P1  H  7997  8010       L1    16  0.77

> <Gold.PLP.Chemscore.Internal.Correction>
22.8484

> <Gold.Rescore>
     Score         DG    S(hbond)    S(metal)    S(lipo)     H(rot)  DE(clash)    DE(int)     intcor
     10.11     -15.84       1.64        0.00      88.34       2.12       1.34       4.39       ----

> <Gold.Chemscore.Fitness>
10.1120

> <Gold.Chemscore.DG>
-15.8406

> <Gold.Chemscore.ZeroCoef>
-5.4800

> <Gold.Chemscore.Hbond>
1.6350

> <Gold.Chemscore.Metal>
0.0000

> <Gold.Chemscore.Lipo>
88.3449

> <Gold.Chemscore.Internal_Hbond>
0.0000

> <Gold.Chemscore.DEClash>
1.3396

> <Gold.Chemscore.DEInternal>
4.3890

> <Gold.Chemscore.Rot>
2.1237

> <Gold.Chemscore.Internal.Correction>
   9.000000E+99

> <Gold.Chemscore.Hbonds>
donor molecule, donor type, donor heavy atom, donor atom, acceptor molecule, acceptor atom, score
      L1  H     6    28       P1  8028  0.68
      P1  H  7989  7998       L1    19  0.45
      P1  H  7997  8010       L1    16  0.14

> <Gold.Chemscore.Hbond.Weighted>
-5.4610

> <Gold.Chemscore.Metal.Weighted>
-0.0000

> <Gold.Chemscore.Lipo.Weighted>
-10.3364

> <Gold.Chemscore.Internal_Hbond.Weighted>
0.0000

> <Gold.Chemscore.DEClash.Weighted>
1.3396

> <Gold.Chemscore.DEInternal.Weighted>
4.3890

> <Gold.Chemscore.Rot.Weighted>
5.4367

> <Gold.Chemscore.Internal.Correction.Weighted>
   9.000000E+99

> <Gold.Protein.RotatedTorsions>
[ 6907 6896 6895 6894 ] final -112.10 input  -60.11 | X-H torsion
[ 7974 7965 7964 7962 ] final  140.16 input  175.53 | X-H torsion
[ 8008 7997 7996 7995 ] final   16.71 input   59.86 | X-H torsion
[ 10167 10162 10161 10158 ] final -128.46 input  -65.29 | X-H torsion
[ 10718 10713 10712 10709 ] final   46.95 input   66.30 | X-H torsion
[ 10763 10752 10751 10750 ] final    8.57 input  -60.55 | X-H torsion
[ 11005 11000 10999 10996 ] final  113.85 input  -57.11 | X-H torsion

> <Gold.Protein.ActiveResidues>
 VAL166  LYS551  ARG553  GLY616  TRP617  ASP618  TYR619  PRO620  LYS621  CYS622 
 ASP623  PHE694  ASN695  SER759  ASP760  ASP761  ALA762  ILE779  LEU786  VAL792 
 PHE793  MET794  SER795  GLU796  ALA797  LYS798  CYS799  TRP800  GLU811  SER814 

> <Gold.Protein.RotatedAtoms>
  150.7735  133.9139  159.3377 H   0  0  0  0  0  0  0  0  0  0  0  0  # atno 6907 bound_to 6896
  151.7020  135.0926  160.0262 H   0  0  0  0  0  0  0  0  0  0  0  0  # atno 6908 bound_to 6896
  152.3762  133.6446  159.6161 H   0  0  0  0  0  0  0  0  0  0  0  0  # atno 6909 bound_to 6896
  144.9212  139.5165  143.5662 H   0  0  0  0  0  0  0  0  0  0  0  0  # atno 7974 bound_to 7965
  154.8809  140.2973  155.5425 H   0  0  0  0  0  0  0  0  0  0  0  0  # atno 8008 bound_to 7997
  156.3022  140.2442  156.3746 H   0  0  0  0  0  0  0  0  0  0  0  0  # atno 8009 bound_to 7997
  154.8718  140.0401  157.1718 H   0  0  0  0  0  0  0  0  0  0  0  0  # atno 8010 bound_to 7997
  139.9500  143.6066  152.2478 H   0  0  0  0  0  0  0  0  0  0  0  0  # atno 10167 bound_to 10162
  157.4534  130.8152  149.7812 H   0  0  0  0  0  0  0  0  0  0  0  0  # atno 10718 bound_to 10713
  153.2235  135.6884  153.7972 H   0  0  0  0  0  0  0  0  0  0  0  0  # atno 10763 bound_to 10752
  153.7162  135.3274  155.3258 H   0  0  0  0  0  0  0  0  0  0  0  0  # atno 10764 bound_to 10752
  154.8281  135.4602  154.1093 H   0  0  0  0  0  0  0  0  0  0  0  0  # atno 10765 bound_to 10752
  139.8964  134.9557  156.6803 H   0  0  0  0  0  0  0  0  0  0  0  0  # atno 11005 bound_to 11000
  146.3205  139.8093  142.8949 LP  0  0  0  0  0  0  0  0  0  0  0  0  # atno 17320 bound_to 7965
  145.3293  141.0262  143.3456 LP  0  0  0  0  0  0  0  0  0  0  0  0  # atno 17321 bound_to 7965
  139.6636  144.7662  151.1916 LP  0  0  0  0  0  0  0  0  0  0  0  0  # atno 17342 bound_to 10162
  140.7585  143.5972  150.8736 LP  0  0  0  0  0  0  0  0  0  0  0  0  # atno 17343 bound_to 10162
  155.9997  130.3887  150.2655 LP  0  0  0  0  0  0  0  0  0  0  0  0  # atno 17370 bound_to 10713
  157.0828  131.0148  151.3150 LP  0  0  0  0  0  0  0  0  0  0  0  0  # atno 17371 bound_to 10713
  140.7305  133.9063  155.8208 LP  0  0  0  0  0  0  0  0  0  0  0  0  # atno 17394 bound_to 11000
  141.0157  134.0958  157.4174 LP  0  0  0  0  0  0  0  0  0  0  0  0  # atno 17395 bound_to 11000

$$$$
