AV-unprocessed.smi:513|AV-procd|sdf|2773|dock8
  -GOLD-   2262023243D 1   1.00000     0.00000
 Structure written by MMmdl.
 42 44  0  0  0  0  0  0  0  0  1 V2000
  150.6697  137.2498  154.6544 C   0  0  0  0  0  0  0  0  0  0  0  0
  151.9563  137.3342  155.2389 O   0  0  0  0  0  0  0  0  0  0  0  0
  152.2477  138.6305  155.7357 C   0  0  0  0  0  0  0  0  0  0  0  0
  151.1625  139.0512  156.7361 C   0  0  0  0  0  0  0  0  0  0  0  0
  151.6928  139.9377  157.7703 N   0  0  0  0  0  0  0  0  0  0  0  0
  152.3542  139.6239  158.9201 C   0  0  0  0  0  0  0  0  0  0  0  0
  152.6795  138.3113  159.2646 N   0  0  0  0  0  0  0  0  0  0  0  0
  152.9896  137.2584  158.3015 C   0  0  0  0  0  0  0  0  0  0  0  0
  154.2620  136.4909  158.7148 C   0  0  0  0  0  0  0  0  0  0  0  0
  154.0647  135.8705  160.0210 N   0  0  0  0  0  0  0  0  0  0  0  0
  153.7689  136.9167  160.9938 C   0  0  0  0  0  0  0  0  0  0  0  0
  152.4938  137.6689  160.5639 C   0  0  0  0  0  0  0  0  0  0  0  0
  152.6248  140.6692  159.7079 N   0  0  0  0  0  0  0  0  0  0  0  0
  152.1229  141.7418  158.9888 C   0  0  0  0  0  0  0  0  0  0  0  0
  151.5575  141.3259  157.8285 C   0  0  0  0  0  0  0  0  0  0  0  0
  150.9145  142.2559  156.8910 C   0  0  0  0  0  0  0  0  0  0  0  0
  150.3820  141.9018  155.8413 O   0  0  0  0  0  0  0  0  0  0  0  0
  150.9628  143.5455  157.3051 N   0  0  0  0  0  0  0  0  0  0  0  0
  151.5191  144.0300  158.4575 C   0  0  0  0  0  0  0  0  0  0  0  0
  151.4772  145.2370  158.6934 O   0  0  0  0  0  0  0  0  0  0  0  0
  152.1054  143.1273  159.3100 N   0  0  0  0  0  0  0  0  0  0  0  0
  152.7237  143.5407  160.5712 C   0  0  0  0  0  0  0  0  0  0  0  0
  150.5354  144.2272  156.6950 H   0  0  0  0  0  0  0  0  0  0  0  0
  150.4988  136.2358  154.2929 H   0  0  0  0  0  0  0  0  0  0  0  0
  150.5764  137.9304  153.8072 H   0  0  0  0  0  0  0  0  0  0  0  0
  149.8905  137.4839  155.3811 H   0  0  0  0  0  0  0  0  0  0  0  0
  153.2225  138.6325  156.2253 H   0  0  0  0  0  0  0  0  0  0  0  0
  152.2951  139.3442  154.9119 H   0  0  0  0  0  0  0  0  0  0  0  0
  150.3484  139.5301  156.2024 H   0  0  0  0  0  0  0  0  0  0  0  0
  150.7173  138.1765  157.2082 H   0  0  0  0  0  0  0  0  0  0  0  0
  152.1407  136.5786  158.2131 H   0  0  0  0  0  0  0  0  0  0  0  0
  153.1386  137.7015  157.3163 H   0  0  0  0  0  0  0  0  0  0  0  0
  154.4858  135.7135  157.9841 H   0  0  0  0  0  0  0  0  0  0  0  0
  155.1237  137.1591  158.7465 H   0  0  0  0  0  0  0  0  0  0  0  0
  154.9036  135.3790  160.2944 H   0  0  0  0  0  0  0  0  0  0  0  0
  153.6238  136.4577  161.9720 H   0  0  0  0  0  0  0  0  0  0  0  0
  154.6164  137.5982  161.0788 H   0  0  0  0  0  0  0  0  0  0  0  0
  152.2056  138.4037  161.3144 H   0  0  0  0  0  0  0  0  0  0  0  0
  151.6553  136.9739  160.5001 H   0  0  0  0  0  0  0  0  0  0  0  0
  152.7283  144.6192  160.7318 H   0  0  0  0  0  0  0  0  0  0  0  0
  153.7602  143.2035  160.6057 H   0  0  0  0  0  0  0  0  0  0  0  0
  152.1958  143.0859  161.4099 H   0  0  0  0  0  0  0  0  0  0  0  0
  1  2  1  0  0  0  0
  1 24  1  0  0  0  0
  1 25  1  0  0  0  0
  1 26  1  0  0  0  0
  2  3  1  0  0  0  0
  3  4  1  0  0  0  0
  3 27  1  0  0  0  0
  3 28  1  0  0  0  0
  4  5  1  0  0  0  0
  4 29  1  0  0  0  0
  4 30  1  0  0  0  0
  5 15  1  0  0  0  0
  5  6  1  0  0  0  0
  6  7  1  0  0  0  0
  6 13  2  0  0  0  0
  7 12  1  0  0  0  0
  7  8  1  0  0  0  0
  8  9  1  0  0  0  0
  8 31  1  0  0  0  0
  8 32  1  0  0  0  0
  9 10  1  0  0  0  0
  9 33  1  0  0  0  0
  9 34  1  0  0  0  0
 10 11  1  0  0  0  0
 10 35  1  0  0  0  0
 11 12  1  0  0  0  0
 11 36  1  0  0  0  0
 11 37  1  0  0  0  0
 12 38  1  0  0  0  0
 12 39  1  0  0  0  0
 13 14  1  0  0  0  0
 14 21  1  0  0  0  0
 14 15  2  0  0  0  0
 15 16  1  0  0  0  0
 16 17  2  0  0  0  0
 16 18  1  0  0  0  0
 18 23  1  0  0  0  0
 18 19  1  0  0  0  0
 19 20  2  0  0  0  0
 19 21  1  0  0  0  0
 21 22  1  0  0  0  0
 22 40  1  0  0  0  0
 22 41  1  0  0  0  0
 22 42  1  0  0  0  0
M  END
> <s_m_source_file>
AV-unprocessed.smi

> <i_m_source_file_index>
513

> <i_lp_mmshare_version>
43012

> <i_f3d_flags>
0

> <s_epik_input>
W0NIM11uMWMoPU8pW25IXWMoPU8pYyhjMTIpbihbQ0gyXVtDSDJdT1tDSDNdKWMobjIpTjNbQ0gyXVtDSDJdW05IXVtDSDJdW0NIMl0z

> <s_epik_cmdline>
J2VwaWtfcHl0aG9uJywgJy1waCcsICc3LjAnLCAnLXRuJywgJzgnLCAnLW1hJywgJzIwMCcsICctbWV0YWxfYmluZGluZycsICctaW1hZScsICc8aW5maWxlLm1hZT4nLCAnLW9tYWUnLCAnPG91dGZpbGUubWFlPic=

> <r_epik_Ionization_Penalty>
2.51416

> <r_epik_Ionization_Penalty_Charging>
1.6225e-05

> <r_epik_Ionization_Penalty_Neutral>
2.51414

> <r_epik_State_Penalty>
2.67993

> <r_epik_Charging_Adjusted_Penalty>
2.67995

> <i_epik_Tot_Q>
0

> <i_epik_Tot_abs_Q>
0

> <r_epik_Metal_State_Penalty>
2.70812

> <b_epik_Metal_Only>
0

> <s_lp_Force_Field>
OPLS_2005

> <r_lp_Energy>
48.0947

> <b_lp_Chiralities_Consistent>
1

> <s_lp_Variant>
AV-unprocessed.smi:513-2

> <Gold.Version>
5.8.1

> <Gold.Id.Protein>
6NUR|6NUR_protein|mol2

> <Gold.PLP.Fitness>
43.3809

> <Gold.PLP.PLP>
-36.4548

> <Gold.PLP.part.hbond>
-2.9779

> <Gold.PLP.part.metal>
0.0000

> <Gold.PLP.part.buried>
-7.3879

> <Gold.PLP.part.nonpolar>
-27.5308

> <Gold.PLP.part.repulsive>
0.2696

> <Gold.PLP.ligand.clash>
0.0000

> <Gold.PLP.ligand.torsion>
1.0582

> <Gold.PLP.Chemscore.Hbond>
2.9113

> <Gold.PLP.Chemscore.CHOScore>
0.0000

> <Gold.PLP.Chemscore.Metal>
0.0000

> <Gold.Chemscore.Hbonds>
donor molecule, donor type, donor heavy atom, donor atom, acceptor molecule, acceptor atom, score
      L1  H    18    23       P1  8028  0.94
      P1  H  6896  6908       L1    10  1.00
      P1  H 10752 10765       L1     2  0.76

> <Gold.PLP.Chemscore.Internal.Correction>
0.3086

> <Gold.Rescore>
     Score         DG    S(hbond)    S(metal)    S(lipo)     H(rot)  DE(clash)    DE(int)     intcor
     13.75     -15.09       2.13        0.00      55.37       1.55       0.03       1.31       ----

> <Gold.Chemscore.Fitness>
13.7488

> <Gold.Chemscore.DG>
-15.0893

> <Gold.Chemscore.ZeroCoef>
-5.4800

> <Gold.Chemscore.Hbond>
2.1272

> <Gold.Chemscore.Metal>
0.0000

> <Gold.Chemscore.Lipo>
55.3750

> <Gold.Chemscore.Internal_Hbond>
0.0000

> <Gold.Chemscore.DEClash>
0.0348

> <Gold.Chemscore.DEInternal>
1.3058

> <Gold.Chemscore.Rot>
1.5526

> <Gold.Chemscore.Internal.Correction>
   9.000000E+99

> <Gold.Chemscore.Hbonds>
donor molecule, donor type, donor heavy atom, donor atom, acceptor molecule, acceptor atom, score
      L1  H    18    23       P1  8028  0.88
      P1  H  6896  6908       L1    10  0.30
      P1  H 10752 10765       L1     2  0.45

> <Gold.Chemscore.Hbond.Weighted>
-7.1050

> <Gold.Chemscore.Metal.Weighted>
-0.0000

> <Gold.Chemscore.Lipo.Weighted>
-6.4789

> <Gold.Chemscore.Internal_Hbond.Weighted>
0.0000

> <Gold.Chemscore.DEClash.Weighted>
0.0348

> <Gold.Chemscore.DEInternal.Weighted>
1.3058

> <Gold.Chemscore.Rot.Weighted>
3.9745

> <Gold.Chemscore.Internal.Correction.Weighted>
   9.000000E+99

> <Gold.Protein.RotatedTorsions>
[ 6907 6896 6895 6894 ] final  -64.11 input  -60.11 | X-H torsion
[ 7974 7965 7964 7962 ] final  -11.14 input  175.53 | X-H torsion
[ 8008 7997 7996 7995 ] final  -68.38 input   59.86 | X-H torsion
[ 10167 10162 10161 10158 ] final  -32.29 input  -65.29 | X-H torsion
[ 10718 10713 10712 10709 ] final  111.18 input   66.30 | X-H torsion
[ 10763 10752 10751 10750 ] final -172.72 input  -60.55 | X-H torsion
[ 11005 11000 10999 10996 ] final   66.25 input  -57.11 | X-H torsion

> <Gold.Protein.ActiveResidues>
 VAL166  LYS551  ARG553  GLY616  TRP617  ASP618  TYR619  PRO620  LYS621  CYS622 
 ASP623  PHE694  ASN695  SER759  ASP760  ASP761  ALA762  ILE779  LEU786  VAL792 
 PHE793  MET794  SER795  GLU796  ALA797  LYS798  CYS799  TRP800  GLU811  SER814 

> <Gold.Protein.RotatedAtoms>
  150.7606  134.6343  159.6202 H   0  0  0  0  0  0  0  0  0  0  0  0  # atno 6907 bound_to 6896
  152.3611  134.6868  160.0216 H   0  0  0  0  0  0  0  0  0  0  0  0  # atno 6908 bound_to 6896
  151.7258  133.3280  159.3363 H   0  0  0  0  0  0  0  0  0  0  0  0  # atno 6909 bound_to 6896
  146.2197  140.2867  142.8366 H   0  0  0  0  0  0  0  0  0  0  0  0  # atno 7974 bound_to 7965
  154.4864  140.0874  156.7495 H   0  0  0  0  0  0  0  0  0  0  0  0  # atno 8008 bound_to 7997
  155.4340  140.3451  155.4265 H   0  0  0  0  0  0  0  0  0  0  0  0  # atno 8009 bound_to 7997
  156.1267  140.1489  156.9114 H   0  0  0  0  0  0  0  0  0  0  0  0  # atno 8010 bound_to 7997
  140.7223  143.3706  151.1786 H   0  0  0  0  0  0  0  0  0  0  0  0  # atno 10167 bound_to 10162
  157.6457  131.0946  150.6711 H   0  0  0  0  0  0  0  0  0  0  0  0  # atno 10718 bound_to 10713
  154.6160  135.2870  155.0379 H   0  0  0  0  0  0  0  0  0  0  0  0  # atno 10763 bound_to 10752
  154.1591  135.6491  153.4985 H   0  0  0  0  0  0  0  0  0  0  0  0  # atno 10764 bound_to 10752
  153.0215  135.5374  154.6932 H   0  0  0  0  0  0  0  0  0  0  0  0  # atno 10765 bound_to 10752
  139.9843  134.6693  156.0205 H   0  0  0  0  0  0  0  0  0  0  0  0  # atno 11005 bound_to 11000
  144.9157  140.7809  143.5780 LP  0  0  0  0  0  0  0  0  0  0  0  0  # atno 17320 bound_to 7965
  145.2801  139.1921  143.4795 LP  0  0  0  0  0  0  0  0  0  0  0  0  # atno 17321 bound_to 7965
  139.7276  143.9123  152.3008 LP  0  0  0  0  0  0  0  0  0  0  0  0  # atno 17342 bound_to 10162
  139.8901  144.6970  150.8780 LP  0  0  0  0  0  0  0  0  0  0  0  0  # atno 17343 bound_to 10162
  156.7029  130.4628  149.5568 LP  0  0  0  0  0  0  0  0  0  0  0  0  # atno 17370 bound_to 10713
  156.1783  130.6482  151.0921 LP  0  0  0  0  0  0  0  0  0  0  0  0  # atno 17371 bound_to 10713
  141.1511  133.6548  156.4015 LP  0  0  0  0  0  0  0  0  0  0  0  0  # atno 17394 bound_to 11000
  140.5033  134.6464  157.5257 LP  0  0  0  0  0  0  0  0  0  0  0  0  # atno 17395 bound_to 11000

$$$$
