AV-unprocessed.smi:178|AV-procd|sdf|1446|dock6
  -GOLD-   2262019233D 1   1.00000     0.00000
 Structure written by MMmdl.
 50 52  0  0  0  0  0  0  0  0  1 V2000
  150.9603  141.3507  156.1051 C   0  0  0  0  0  0  0  0  0  0  0  0
  150.8333  140.2478  155.2250 O   0  0  0  0  0  0  0  0  0  0  0  0
  149.6000  139.5678  155.3815 C   0  0  0  0  0  0  0  0  0  0  0  0
  149.8602  138.0555  155.3041 C   0  0  0  0  0  0  0  0  0  0  0  0
  148.6964  137.2585  155.6999 N   0  0  0  0  0  0  0  0  0  0  0  0
  148.7932  136.4330  156.9013 C   0  0  0  0  0  0  0  0  0  0  0  0
  149.5375  137.1378  158.0432 C   0  0  0  0  0  0  0  0  0  0  0  0
  148.7872  137.1019  159.3067 C   0  0  0  0  0  0  0  0  0  0  0  0
  148.1965  137.0735  160.3011 N   0  0  0  0  0  0  0  0  0  0  0  0
  147.6111  137.1832  154.8748 C   0  0  0  0  0  0  0  0  0  0  0  0
  147.1116  138.3449  154.3732 N   0  0  0  0  0  0  0  0  0  0  0  0
  146.0466  138.3463  153.5685 C   0  0  0  0  0  0  0  0  0  0  0  0
  145.3294  137.3102  153.1362 N   0  0  0  0  0  0  0  0  0  0  0  0
  145.8202  136.1354  153.6220 C   0  0  0  0  0  0  0  0  0  0  0  0
  146.9439  135.9783  154.4873 C   0  0  0  0  0  0  0  0  0  0  0  0
  147.1321  134.6238  154.7477 N   0  0  0  0  0  0  0  0  0  0  0  0
  146.1779  134.0245  154.0917 C   0  0  0  0  0  0  0  0  0  0  0  0
  145.3449  134.8576  153.3839 N   0  0  0  0  0  0  0  0  0  0  0  0
  144.2064  134.4608  152.5697 C   0  0  0  0  0  0  0  0  0  0  0  0
  144.6069  133.8639  151.1998 C   0  0  2  0  0  0  0  0  0  0  0  0
  144.9973  134.9250  150.3420 O   0  0  0  0  0  0  0  0  0  0  0  0
  143.4989  133.0744  150.5189 C   0  0  0  0  0  0  0  0  0  0  0  0
  144.2757  132.1494  149.5907 C   0  0  0  0  0  0  0  0  0  0  0  0
  145.4503  131.8114  150.3165 O   0  0  0  0  0  0  0  0  0  0  0  0
  145.7267  132.8044  151.3036 C   0  0  1  0  0  0  0  0  0  0  0  0
  147.1716  133.3135  151.1767 C   0  0  0  0  0  0  0  0  0  0  0  0
  151.9199  141.8410  155.9420 H   0  0  0  0  0  0  0  0  0  0  0  0
  150.9187  141.0301  157.1470 H   0  0  0  0  0  0  0  0  0  0  0  0
  150.1733  142.0859  155.9329 H   0  0  0  0  0  0  0  0  0  0  0  0
  149.1509  139.8303  156.3403 H   0  0  0  0  0  0  0  0  0  0  0  0
  148.9064  139.8772  154.5992 H   0  0  0  0  0  0  0  0  0  0  0  0
  150.1301  137.7969  154.2799 H   0  0  0  0  0  0  0  0  0  0  0  0
  150.7273  137.7883  155.9090 H   0  0  0  0  0  0  0  0  0  0  0  0
  147.7839  136.1892  157.2339 H   0  0  0  0  0  0  0  0  0  0  0  0
  149.2504  135.4714  156.6714 H   0  0  0  0  0  0  0  0  0  0  0  0
  150.5090  136.6775  158.2211 H   0  0  0  0  0  0  0  0  0  0  0  0
  149.7150  138.1843  157.7974 H   0  0  0  0  0  0  0  0  0  0  0  0
  145.7228  139.3170  153.2231 H   0  0  0  0  0  0  0  0  0  0  0  0
  146.0580  132.9507  154.1011 H   0  0  0  0  0  0  0  0  0  0  0  0
  143.6148  133.7401  153.1358 H   0  0  0  0  0  0  0  0  0  0  0  0
  143.5684  135.3343  152.4299 H   0  0  0  0  0  0  0  0  0  0  0  0
  145.3743  134.5516  149.5597 H   0  0  0  0  0  0  0  0  0  0  0  0
  142.9610  132.4725  151.2525 H   0  0  0  0  0  0  0  0  0  0  0  0
  142.7703  133.6963  149.9967 H   0  0  0  0  0  0  0  0  0  0  0  0
  143.7091  131.2615  149.3098 H   0  0  0  0  0  0  0  0  0  0  0  0
  144.5624  132.6734  148.6780 H   0  0  0  0  0  0  0  0  0  0  0  0
  145.6318  132.2917  152.2617 H   0  0  0  0  0  0  0  0  0  0  0  0
  147.3846  134.0791  151.9229 H   0  0  0  0  0  0  0  0  0  0  0  0
  147.3657  133.7376  150.1913 H   0  0  0  0  0  0  0  0  0  0  0  0
  147.8806  132.4988  151.3257 H   0  0  0  0  0  0  0  0  0  0  0  0
  1  2  1  0  0  0  0
  1 27  1  0  0  0  0
  1 28  1  0  0  0  0
  1 29  1  0  0  0  0
  2  3  1  0  0  0  0
  3  4  1  0  0  0  0
  3 30  1  0  0  0  0
  3 31  1  0  0  0  0
  4  5  1  0  0  0  0
  4 32  1  0  0  0  0
  4 33  1  0  0  0  0
  5  6  1  0  0  0  0
  5 10  1  0  0  0  0
  6  7  1  0  0  0  0
  6 34  1  0  0  0  0
  6 35  1  0  0  0  0
  7  8  1  0  0  0  0
  7 36  1  0  0  0  0
  7 37  1  0  0  0  0
  8  9  3  0  0  0  0
 10 15  1  0  0  0  0
 10 11  2  0  0  0  0
 11 12  1  0  0  0  0
 12 13  2  0  0  0  0
 12 38  1  0  0  0  0
 13 14  1  0  0  0  0
 14 18  1  0  0  0  0
 14 15  2  0  0  0  0
 15 16  1  0  0  0  0
 16 17  2  0  0  0  0
 17 18  1  0  0  0  0
 17 39  1  0  0  0  0
 18 19  1  0  0  0  0
 19 20  1  0  0  0  0
 19 40  1  0  0  0  0
 19 41  1  0  0  0  0
 20 25  1  0  0  0  0
 20 21  1  0  0  0  0
 20 22  1  0  0  0  0
 21 42  1  0  0  0  0
 22 23  1  0  0  0  0
 22 43  1  0  0  0  0
 22 44  1  0  0  0  0
 23 24  1  0  0  0  0
 23 45  1  0  0  0  0
 23 46  1  0  0  0  0
 24 25  1  0  0  0  0
 25 26  1  0  0  0  0
 25 47  1  0  0  0  0
 26 48  1  0  0  0  0
 26 49  1  0  0  0  0
 26 50  1  0  0  0  0
M  END
> <s_m_source_file>
AV-unprocessed.smi

> <i_m_source_file_index>
178

> <i_lp_mmshare_version>
43012

> <i_f3d_flags>
0

> <s_epik_input>
W0NIM11PW0NIMl1bQ0gyXU4oW0NIMl1bQ0gyXUMjTiljKG5bY0hdbjEpYyhjMTIpbltjSF1uMltDSDJdW0NAQF0zKFtPSF0pW0NIMl1bQ0gyXU9bQ0BIXTNbQ0gzXQ==

> <s_epik_cmdline>
J2VwaWtfcHl0aG9uJywgJy1waCcsICc3LjAnLCAnLXRuJywgJzgnLCAnLW1hJywgJzIwMCcsICctbWV0YWxfYmluZGluZycsICctaW1hZScsICc8aW5maWxlLm1hZT4nLCAnLW9tYWUnLCAnPG91dGZpbGUubWFlPic=

> <r_lp_tautomer_probability>
1

> <r_epik_Ionization_Penalty>
0.000885317

> <r_epik_Ionization_Penalty_Charging>
0

> <r_epik_Ionization_Penalty_Neutral>
0.000885317

> <r_epik_State_Penalty>
0.00047273

> <r_epik_Charging_Adjusted_Penalty>
0.00047273

> <i_epik_Tot_Q>
0

> <i_epik_Tot_abs_Q>
0

> <r_epik_Metal_State_Penalty>
-0

> <b_epik_Metal_Only>
0

> <s_lp_Force_Field>
OPLS_2005

> <r_lp_Energy>
29.3608

> <b_lp_Chiralities_Consistent>
1

> <s_lp_Variant>
AV-unprocessed.smi:178-2

> <Gold.Version>
5.8.1

> <Gold.Id.Protein>
6NUR|6NUR_protein|mol2

> <Gold.PLP.Fitness>
36.4035

> <Gold.PLP.PLP>
-29.1106

> <Gold.PLP.part.hbond>
-4.0000

> <Gold.PLP.part.metal>
0.0000

> <Gold.PLP.part.buried>
-3.5394

> <Gold.PLP.part.nonpolar>
-21.0022

> <Gold.PLP.part.repulsive>
0.5670

> <Gold.PLP.ligand.clash>
0.0000

> <Gold.PLP.ligand.torsion>
2.2137

> <Gold.PLP.Chemscore.Hbond>
2.8036

> <Gold.PLP.Chemscore.CHOScore>
1.0000

> <Gold.PLP.Chemscore.Metal>
0.0000

> <Gold.Chemscore.Hbonds>
donor molecule, donor type, donor heavy atom, donor atom, acceptor molecule, acceptor atom, score
      L1  H    21    42       P1  7921  0.85
      P1  H  6931  6943       L1     9  0.51
      P1  H  6934  6947       L1     9  0.27
      P1  H  7989  7998       L1     2  1.00
      L1  C    12    38       P1 10175  1.00

> <Gold.PLP.Chemscore.Internal.Correction>
0.3094

> <Gold.Rescore>
     Score         DG    S(hbond)    S(metal)    S(lipo)     H(rot)  DE(clash)    DE(int)     intcor
     10.09     -12.86       2.55        0.00      63.93       3.37       0.38       2.39       ----

> <Gold.Chemscore.Fitness>
10.0924

> <Gold.Chemscore.DG>
-12.8574

> <Gold.Chemscore.ZeroCoef>
-5.4800

> <Gold.Chemscore.Hbond>
2.5548

> <Gold.Chemscore.Metal>
0.0000

> <Gold.Chemscore.Lipo>
63.9281

> <Gold.Chemscore.Internal_Hbond>
0.0000

> <Gold.Chemscore.DEClash>
0.3784

> <Gold.Chemscore.DEInternal>
2.3866

> <Gold.Chemscore.Rot>
3.3732

> <Gold.Chemscore.Internal.Correction>
   9.000000E+99

> <Gold.Chemscore.Hbonds>
donor molecule, donor type, donor heavy atom, donor atom, acceptor molecule, acceptor atom, score
      L1  H    21    42       P1  7921  0.77
      P1  H  6931  6943       L1     9  0.46
      P1  H  6934  6947       L1     9  0.25
      P1  H  7989  7998       L1     2  0.47

> <Gold.Chemscore.Hbond.Weighted>
-8.5332

> <Gold.Chemscore.Metal.Weighted>
-0.0000

> <Gold.Chemscore.Lipo.Weighted>
-7.4796

> <Gold.Chemscore.Internal_Hbond.Weighted>
0.0000

> <Gold.Chemscore.DEClash.Weighted>
0.3784

> <Gold.Chemscore.DEInternal.Weighted>
2.3866

> <Gold.Chemscore.Rot.Weighted>
8.6354

> <Gold.Chemscore.Internal.Correction.Weighted>
   9.000000E+99

> <Gold.Protein.RotatedTorsions>
[ 6907 6896 6895 6894 ] final -125.47 input  -60.11 | X-H torsion
[ 7974 7965 7964 7962 ] final -136.60 input  175.53 | X-H torsion
[ 8008 7997 7996 7995 ] final  178.94 input   59.86 | X-H torsion
[ 10167 10162 10161 10158 ] final  -45.65 input  -65.29 | X-H torsion
[ 10718 10713 10712 10709 ] final  -18.31 input   66.30 | X-H torsion
[ 10763 10752 10751 10750 ] final  -38.80 input  -60.55 | X-H torsion
[ 11005 11000 10999 10996 ] final  -82.07 input  -57.11 | X-H torsion

> <Gold.Protein.ActiveResidues>
 VAL166  LYS551  ARG553  GLY616  TRP617  ASP618  TYR619  PRO620  LYS621  CYS622 
 ASP623  PHE694  ASN695  SER759  ASP760  ASP761  ALA762  ILE779  LEU786  VAL792 
 PHE793  MET794  SER795  GLU796  ALA797  LYS798  CYS799  TRP800  GLU811  SER814 

> <Gold.Protein.RotatedAtoms>
  150.8871  133.7293  159.2914 H   0  0  0  0  0  0  0  0  0  0  0  0  # atno 6907 bound_to 6896
  151.4855  135.1053  159.9799 H   0  0  0  0  0  0  0  0  0  0  0  0  # atno 6908 bound_to 6896
  152.4797  133.8177  159.7092 H   0  0  0  0  0  0  0  0  0  0  0  0  # atno 6909 bound_to 6896
  144.8913  140.6646  143.5143 H   0  0  0  0  0  0  0  0  0  0  0  0  # atno 7974 bound_to 7965
  156.0490  140.1321  157.0071 H   0  0  0  0  0  0  0  0  0  0  0  0  # atno 8008 bound_to 7997
  154.4426  140.1014  156.6419 H   0  0  0  0  0  0  0  0  0  0  0  0  # atno 8009 bound_to 7997
  155.5552  140.3463  155.4480 H   0  0  0  0  0  0  0  0  0  0  0  0  # atno 8010 bound_to 7997
  140.6849  143.2869  151.3669 H   0  0  0  0  0  0  0  0  0  0  0  0  # atno 10167 bound_to 10162
  156.5613  130.4726  149.6405 H   0  0  0  0  0  0  0  0  0  0  0  0  # atno 10718 bound_to 10713
  153.9188  135.6784  153.4748 H   0  0  0  0  0  0  0  0  0  0  0  0  # atno 10763 bound_to 10752
  153.1039  135.4814  154.8914 H   0  0  0  0  0  0  0  0  0  0  0  0  # atno 10764 bound_to 10752
  154.7489  135.3179  154.8550 H   0  0  0  0  0  0  0  0  0  0  0  0  # atno 10765 bound_to 10752
  141.1664  133.7227  156.8517 H   0  0  0  0  0  0  0  0  0  0  0  0  # atno 11005 bound_to 11000
  145.3777  139.1644  143.4297 LP  0  0  0  0  0  0  0  0  0  0  0  0  # atno 17320 bound_to 7965
  146.3055  140.3855  142.8688 LP  0  0  0  0  0  0  0  0  0  0  0  0  # atno 17321 bound_to 7965
  139.6200  144.0926  152.2382 LP  0  0  0  0  0  0  0  0  0  0  0  0  # atno 17342 bound_to 10162
  140.0367  144.6039  150.7444 LP  0  0  0  0  0  0  0  0  0  0  0  0  # atno 17343 bound_to 10162
  156.2797  130.7063  151.1884 LP  0  0  0  0  0  0  0  0  0  0  0  0  # atno 17370 bound_to 10713
  157.7368  131.0559  150.5393 LP  0  0  0  0  0  0  0  0  0  0  0  0  # atno 17371 bound_to 10713
  140.1911  134.8965  157.3061 LP  0  0  0  0  0  0  0  0  0  0  0  0  # atno 17394 bound_to 11000
  140.2289  134.3932  155.7531 LP  0  0  0  0  0  0  0  0  0  0  0  0  # atno 17395 bound_to 11000

$$$$
