AV-unprocessed.smi:223|AV-procd|sdf|1703|dock7
  -GOLD-   2262020163D 1   1.00000     0.00000
 Structure written by MMmdl.
 47 50  0  0  0  0  0  0  0  0  1 V2000
  153.0069  137.2527  160.1445 C   0  0  0  0  0  0  0  0  0  0  0  0
  152.9640  137.9610  158.7851 C   0  0  2  0  0  0  0  0  0  0  0  0
  153.5475  137.0943  157.7471 C   0  0  0  0  0  0  0  0  0  0  0  0
  154.0054  136.4134  156.9312 N   0  0  0  0  0  0  0  0  0  0  0  0
  153.6533  139.3389  158.8597 C   0  0  0  0  0  0  0  0  0  0  0  0
  152.8295  140.4386  158.3567 N   0  0  0  0  0  0  0  0  0  0  0  0
  152.2417  140.2654  157.1426 C   0  0  0  0  0  0  0  0  0  0  0  0
  152.7545  139.3465  156.2800 N   0  0  0  0  0  0  0  0  0  0  0  0
  152.2139  139.1745  155.0710 C   0  0  0  0  0  0  0  0  0  0  0  0
  151.1692  139.8010  154.5286 N   0  0  0  0  0  0  0  0  0  0  0  0
  150.6395  140.7157  155.3897 C   0  0  0  0  0  0  0  0  0  0  0  0
  151.1090  141.0101  156.7023 C   0  0  0  0  0  0  0  0  0  0  0  0
  150.3102  141.9933  157.2748 N   0  0  0  0  0  0  0  0  0  0  0  0
  149.4316  142.2727  156.3517 C   0  0  0  0  0  0  0  0  0  0  0  0
  149.5489  141.5443  155.1899 N   0  0  0  0  0  0  0  0  0  0  0  0
  148.7072  141.6482  154.0070 C   0  0  0  0  0  0  0  0  0  0  0  0
  147.1967  141.4964  154.3054 C   0  0  1  0  0  0  0  0  0  0  0  0
  146.5099  141.2514  153.0897 O   0  0  0  0  0  0  0  0  0  0  0  0
  146.8926  140.3524  155.2643 C   0  0  0  0  0  0  0  0  0  0  0  0
  145.6100  140.8152  155.9420 C   0  0  0  0  0  0  0  0  0  0  0  0
  145.8288  142.2041  156.1222 O   0  0  0  0  0  0  0  0  0  0  0  0
  146.5455  142.7110  154.9997 C   0  0  0  0  0  0  0  0  0  0  0  0
  152.1129  141.2329  159.3515 C   0  0  0  0  0  0  0  0  0  0  0  0
  152.2654  142.7376  159.3418 C   0  0  0  0  0  0  0  0  0  0  0  0
  152.9062  141.9194  160.4383 C   0  0  0  0  0  0  0  0  0  0  0  0
  152.4983  136.2894  160.0988 H   0  0  0  0  0  0  0  0  0  0  0  0
  152.5169  137.8485  160.9151 H   0  0  0  0  0  0  0  0  0  0  0  0
  154.0342  137.0722  160.4626 H   0  0  0  0  0  0  0  0  0  0  0  0
  151.9169  138.0995  158.5157 H   0  0  0  0  0  0  0  0  0  0  0  0
  153.8831  139.5630  159.9019 H   0  0  0  0  0  0  0  0  0  0  0  0
  154.6174  139.3001  158.3566 H   0  0  0  0  0  0  0  0  0  0  0  0
  152.6875  138.4298  154.4485 H   0  0  0  0  0  0  0  0  0  0  0  0
  148.6636  143.0187  156.4964 H   0  0  0  0  0  0  0  0  0  0  0  0
  148.9040  142.6097  153.5313 H   0  0  0  0  0  0  0  0  0  0  0  0
  149.0257  140.8863  153.2946 H   0  0  0  0  0  0  0  0  0  0  0  0
  145.5980  141.1000  153.2869 H   0  0  0  0  0  0  0  0  0  0  0  0
  146.7945  139.3820  154.7758 H   0  0  0  0  0  0  0  0  0  0  0  0
  147.6791  140.2682  156.0156 H   0  0  0  0  0  0  0  0  0  0  0  0
  144.7460  140.6611  155.2940 H   0  0  0  0  0  0  0  0  0  0  0  0
  145.4261  140.3101  156.8905 H   0  0  0  0  0  0  0  0  0  0  0  0
  147.2841  143.4213  155.3693 H   0  0  0  0  0  0  0  0  0  0  0  0
  145.8726  143.2562  154.3363 H   0  0  0  0  0  0  0  0  0  0  0  0
  151.1323  140.8585  159.6398 H   0  0  0  0  0  0  0  0  0  0  0  0
  152.9231  143.1780  158.5946 H   0  0  0  0  0  0  0  0  0  0  0  0
  151.3907  143.3304  159.6003 H   0  0  0  0  0  0  0  0  0  0  0  0
  152.4599  141.9686  161.4293 H   0  0  0  0  0  0  0  0  0  0  0  0
  153.9897  141.8190  160.4188 H   0  0  0  0  0  0  0  0  0  0  0  0
  1  2  1  0  0  0  0
  1 26  1  0  0  0  0
  1 27  1  0  0  0  0
  1 28  1  0  0  0  0
  2  3  1  0  0  0  0
  2  5  1  0  0  0  0
  2 29  1  0  0  0  0
  3  4  3  0  0  0  0
  5  6  1  0  0  0  0
  5 30  1  0  0  0  0
  5 31  1  0  0  0  0
  6  7  1  0  0  0  0
  6 23  1  0  0  0  0
  7 12  1  0  0  0  0
  7  8  2  0  0  0  0
  8  9  1  0  0  0  0
  9 10  2  0  0  0  0
  9 32  1  0  0  0  0
 10 11  1  0  0  0  0
 11 15  1  0  0  0  0
 11 12  2  0  0  0  0
 12 13  1  0  0  0  0
 13 14  2  0  0  0  0
 14 15  1  0  0  0  0
 14 33  1  0  0  0  0
 15 16  1  0  0  0  0
 16 17  1  0  0  0  0
 16 34  1  0  0  0  0
 16 35  1  0  0  0  0
 17 22  1  0  0  0  0
 17 18  1  0  0  0  0
 17 19  1  0  0  0  0
 18 36  1  0  0  0  0
 19 20  1  0  0  0  0
 19 37  1  0  0  0  0
 19 38  1  0  0  0  0
 20 21  1  0  0  0  0
 20 39  1  0  0  0  0
 20 40  1  0  0  0  0
 21 22  1  0  0  0  0
 22 41  1  0  0  0  0
 22 42  1  0  0  0  0
 23 25  1  0  0  0  0
 23 24  1  0  0  0  0
 23 43  1  0  0  0  0
 24 25  1  0  0  0  0
 24 44  1  0  0  0  0
 24 45  1  0  0  0  0
 25 46  1  0  0  0  0
 25 47  1  0  0  0  0
M  END
> <s_m_source_file>
AV-unprocessed.smi

> <i_m_source_file_index>
223

> <i_lp_mmshare_version>
43012

> <i_f3d_flags>
0

> <s_epik_input>
TiNDW0NAQEhdKFtDSDNdKVtDSDJdTihbQ0hdMVtDSDJdW0NIMl0xKWMobltjSF1uMiljKGMyMyluW2NIXW4zW0NIMl1bQ0BAXTQoW09IXSlbQ0gyXVtDSDJdT1tDSDJdNA==

> <s_epik_cmdline>
J2VwaWtfcHl0aG9uJywgJy1waCcsICc3LjAnLCAnLXRuJywgJzgnLCAnLW1hJywgJzIwMCcsICctbWV0YWxfYmluZGluZycsICctaW1hZScsICc8aW5maWxlLm1hZT4nLCAnLW9tYWUnLCAnPG91dGZpbGUubWFlPic=

> <r_lp_tautomer_probability>
1

> <r_epik_Ionization_Penalty>
0.000756152

> <r_epik_Ionization_Penalty_Charging>
0

> <r_epik_Ionization_Penalty_Neutral>
0.000756152

> <r_epik_State_Penalty>
0.00038036

> <r_epik_Charging_Adjusted_Penalty>
0.00038036

> <i_epik_Tot_Q>
0

> <i_epik_Tot_abs_Q>
0

> <r_epik_Metal_State_Penalty>
-0

> <b_epik_Metal_Only>
0

> <s_lp_Force_Field>
OPLS_2005

> <r_lp_Energy>
37.204

> <b_lp_Chiralities_Consistent>
1

> <s_lp_Variant>
AV-unprocessed.smi:223-1

> <Gold.Version>
5.8.1

> <Gold.Id.Protein>
6NUR|6NUR_protein|mol2

> <Gold.PLP.Fitness>
50.5622

> <Gold.PLP.PLP>
-39.7680

> <Gold.PLP.part.hbond>
-4.0000

> <Gold.PLP.part.metal>
0.0000

> <Gold.PLP.part.buried>
-0.4926

> <Gold.PLP.part.nonpolar>
-35.0469

> <Gold.PLP.part.repulsive>
0.2525

> <Gold.PLP.ligand.clash>
0.0000

> <Gold.PLP.ligand.torsion>
1.6297

> <Gold.PLP.Chemscore.Hbond>
3.5192

> <Gold.PLP.Chemscore.CHOScore>
0.7154

> <Gold.PLP.Chemscore.Metal>
0.0000

> <Gold.Chemscore.Hbonds>
donor molecule, donor type, donor heavy atom, donor atom, acceptor molecule, acceptor atom, score
      L1  H    18    36       P1 10175  0.61
      P1  H  7989  7998       L1    10  0.75
      P1  H  7997  8009       L1     8  0.80
      P1  H 10752 10763       L1     4  1.00
      L1  C    14    33       P1  8028  0.53

> <Gold.PLP.Chemscore.Internal.Correction>
1.3497

> <Gold.Rescore>
     Score         DG    S(hbond)    S(metal)    S(lipo)     H(rot)  DE(clash)    DE(int)     intcor
      6.10     -12.79       1.70        0.00      73.36       2.72       1.32       5.38       ----

> <Gold.Chemscore.Fitness>
6.0992

> <Gold.Chemscore.DG>
-12.7946

> <Gold.Chemscore.ZeroCoef>
-5.4800

> <Gold.Chemscore.Hbond>
1.7026

> <Gold.Chemscore.Metal>
0.0000

> <Gold.Chemscore.Lipo>
73.3645

> <Gold.Chemscore.Internal_Hbond>
0.0000

> <Gold.Chemscore.DEClash>
1.3176

> <Gold.Chemscore.DEInternal>
5.3778

> <Gold.Chemscore.Rot>
2.7171

> <Gold.Chemscore.Internal.Correction>
   9.000000E+99

> <Gold.Chemscore.Hbonds>
donor molecule, donor type, donor heavy atom, donor atom, acceptor molecule, acceptor atom, score
      L1  H    18    36       P1 10175  0.23
      P1  H  7989  7998       L1    10  0.07
      P1  H  7997  8009       L1     8  0.08
      P1  H 10752 10763       L1     4  0.96

> <Gold.Chemscore.Hbond.Weighted>
-5.6867

> <Gold.Chemscore.Metal.Weighted>
-0.0000

> <Gold.Chemscore.Lipo.Weighted>
-8.5836

> <Gold.Chemscore.Internal_Hbond.Weighted>
0.0000

> <Gold.Chemscore.DEClash.Weighted>
1.3176

> <Gold.Chemscore.DEInternal.Weighted>
5.3778

> <Gold.Chemscore.Rot.Weighted>
6.9558

> <Gold.Chemscore.Internal.Correction.Weighted>
   9.000000E+99

> <Gold.Protein.RotatedTorsions>
[ 6907 6896 6895 6894 ] final  -53.35 input  -60.11 | X-H torsion
[ 7974 7965 7964 7962 ] final -156.87 input  175.53 | X-H torsion
[ 8008 7997 7996 7995 ] final -147.27 input   59.86 | X-H torsion
[ 10167 10162 10161 10158 ] final  135.90 input  -65.29 | X-H torsion
[ 10718 10713 10712 10709 ] final -136.82 input   66.30 | X-H torsion
[ 10763 10752 10751 10750 ] final  142.67 input  -60.55 | X-H torsion
[ 11005 11000 10999 10996 ] final  -78.52 input  -57.11 | X-H torsion

> <Gold.Protein.ActiveResidues>
 VAL166  LYS551  ARG553  GLY616  TRP617  ASP618  TYR619  PRO620  LYS621  CYS622 
 ASP623  PHE694  ASN695  SER759  ASP760  ASP761  ALA762  ILE779  LEU786  VAL792 
 PHE793  MET794  SER795  GLU796  ALA797  LYS798  CYS799  TRP800  GLU811  SER814 

> <Gold.Protein.RotatedAtoms>
  150.8435  134.7735  159.6950 H   0  0  0  0  0  0  0  0  0  0  0  0  # atno 6907 bound_to 6896
  152.4517  134.5376  159.9839 H   0  0  0  0  0  0  0  0  0  0  0  0  # atno 6908 bound_to 6896
  151.5511  133.3379  159.2989 H   0  0  0  0  0  0  0  0  0  0  0  0  # atno 6909 bound_to 6896
  144.7573  140.4049  143.6002 H   0  0  0  0  0  0  0  0  0  0  0  0  # atno 7974 bound_to 7965
  155.5729  140.0636  157.2802 H   0  0  0  0  0  0  0  0  0  0  0  0  # atno 8008 bound_to 7997
  154.4355  140.1866  156.0943 H   0  0  0  0  0  0  0  0  0  0  0  0  # atno 8009 bound_to 7997
  156.0363  140.3301  155.7198 H   0  0  0  0  0  0  0  0  0  0  0  0  # atno 8010 bound_to 7997
  139.5200  144.6493  151.5349 H   0  0  0  0  0  0  0  0  0  0  0  0  # atno 10167 bound_to 10162
  156.2813  130.7322  151.1320 H   0  0  0  0  0  0  0  0  0  0  0  0  # atno 10718 bound_to 10713
  153.9597  135.2961  155.3434 H   0  0  0  0  0  0  0  0  0  0  0  0  # atno 10763 bound_to 10752
  154.7381  135.5037  153.9080 H   0  0  0  0  0  0  0  0  0  0  0  0  # atno 10764 bound_to 10752
  153.0953  135.6719  153.9886 H   0  0  0  0  0  0  0  0  0  0  0  0  # atno 10765 bound_to 10752
  141.1665  133.7067  156.7984 H   0  0  0  0  0  0  0  0  0  0  0  0  # atno 11005 bound_to 11000
  145.6735  139.1604  143.2741 LP  0  0  0  0  0  0  0  0  0  0  0  0  # atno 17320 bound_to 7965
  146.1599  140.6804  142.9282 LP  0  0  0  0  0  0  0  0  0  0  0  0  # atno 17321 bound_to 7965
  140.6291  143.9111  150.6590 LP  0  0  0  0  0  0  0  0  0  0  0  0  # atno 17342 bound_to 10162
  140.2409  143.3664  152.1487 LP  0  0  0  0  0  0  0  0  0  0  0  0  # atno 17343 bound_to 10162
  157.7315  131.0607  150.5674 LP  0  0  0  0  0  0  0  0  0  0  0  0  # atno 17370 bound_to 10713
  156.5780  130.4297  149.5990 LP  0  0  0  0  0  0  0  0  0  0  0  0  # atno 17371 bound_to 10713
  140.2274  134.8711  157.3441 LP  0  0  0  0  0  0  0  0  0  0  0  0  # atno 17394 bound_to 11000
  140.1926  134.4353  155.7707 LP  0  0  0  0  0  0  0  0  0  0  0  0  # atno 17395 bound_to 11000

$$$$
