AV-unprocessed.smi:1680|AV-procd|sdf|6738|dock2
  -GOLD-   22720 7483D 1   1.00000     0.00000
 Structure written by MMmdl.
 39 40  0  0  0  0  0  0  0  0  2 V2000
  150.5953  141.4400  157.8850 C   0  0  0  0  0  0  0  0  0  0  0  0
  150.9771  140.2914  156.9487 C   0  0  0  0  0  0  0  0  0  0  0  0
  151.5883  139.3352  157.4253 O   0  0  0  0  0  0  0  0  0  0  0  0
  150.6341  140.3599  155.6399 N   0  0  0  0  0  0  0  0  0  0  0  0
  149.8314  141.4204  155.0231 C   0  0  0  0  0  0  0  0  0  0  0  0
  148.4766  140.8328  154.5879 C   0  0  0  0  0  0  0  0  0  0  0  0
  148.6521  139.6626  153.6852 N   0  3  0  0  0  0  0  0  0  0  0  0
  147.3519  139.0941  153.2497 C   0  0  0  0  0  0  0  0  0  0  0  0
  146.3676  138.9052  154.4207 C   0  0  0  0  0  0  0  0  0  0  0  0
  144.9811  138.9676  153.9720 N   0  0  0  0  0  0  0  0  0  0  0  0
  144.0283  138.0862  154.3090 C   0  0  0  0  0  0  0  0  0  0  0  0
  144.2353  137.1167  155.0395 O   0  0  0  0  0  0  0  0  0  0  0  0
  142.8484  138.4009  153.7461 N   0  0  0  0  0  0  0  0  0  0  0  0
  141.6140  137.7054  153.8446 C   0  0  0  0  0  0  0  0  0  0  0  0
  141.4728  136.5244  154.4666 N   0  0  0  0  0  0  0  0  0  0  0  0
  140.1641  136.0624  154.4128 N   0  0  0  0  0  0  0  0  0  0  0  0
  139.3711  136.9120  153.7538 C   0  0  0  0  0  0  0  0  0  0  0  0
  140.1452  138.3606  153.1354 S   0  0  0  0  0  0  0  0  0  0  0  0
  149.5885  138.6449  154.2386 C   0  0  0  0  0  0  0  0  0  0  0  0
  150.9161  139.2830  154.6869 C   0  0  0  0  0  0  0  0  0  0  0  0
  149.5129  141.5679  157.9209 H   0  0  0  0  0  0  0  0  0  0  0  0
  151.0533  142.3739  157.5580 H   0  0  0  0  0  0  0  0  0  0  0  0
  150.9401  141.2388  158.9000 H   0  0  0  0  0  0  0  0  0  0  0  0
  149.6670  142.2801  155.6712 H   0  0  0  0  0  0  0  0  0  0  0  0
  150.3649  141.8088  154.1544 H   0  0  0  0  0  0  0  0  0  0  0  0
  147.9061  140.5283  155.4671 H   0  0  0  0  0  0  0  0  0  0  0  0
  147.8933  141.6026  154.0810 H   0  0  0  0  0  0  0  0  0  0  0  0
  146.9136  139.7230  152.4731 H   0  0  0  0  0  0  0  0  0  0  0  0
  147.5334  138.1213  152.7905 H   0  0  0  0  0  0  0  0  0  0  0  0
  146.5517  137.9559  154.9266 H   0  0  0  0  0  0  0  0  0  0  0  0
  146.4989  139.6866  155.1680 H   0  0  0  0  0  0  0  0  0  0  0  0
  144.7286  139.7381  153.3700 H   0  0  0  0  0  0  0  0  0  0  0  0
  142.8319  139.2297  153.1705 H   0  0  0  0  0  0  0  0  0  0  0  0
  138.3228  136.6840  153.6304 H   0  0  0  0  0  0  0  0  0  0  0  0
  149.1181  138.1432  155.0859 H   0  0  0  0  0  0  0  0  0  0  0  0
  149.7987  137.8787  153.4932 H   0  0  0  0  0  0  0  0  0  0  0  0
  151.4430  139.6966  153.8257 H   0  0  0  0  0  0  0  0  0  0  0  0
  151.5742  138.5151  155.0957 H   0  0  0  0  0  0  0  0  0  0  0  0
  149.0915  140.0301  152.8532 H   0  0  0  0  0  0  0  0  0  0  0  0
  1  2  1  0  0  0  0
  1 21  1  0  0  0  0
  1 22  1  0  0  0  0
  1 23  1  0  0  0  0
  2  3  2  0  0  0  0
  2  4  1  0  0  0  0
  4 20  1  0  0  0  0
  4  5  1  0  0  0  0
  5  6  1  0  0  0  0
  5 24  1  0  0  0  0
  5 25  1  0  0  0  0
  6  7  1  0  0  0  0
  6 26  1  0  0  0  0
  6 27  1  0  0  0  0
  7  8  1  0  0  0  0
  7 19  1  0  0  0  0
  7 39  1  0  0  0  0
  8  9  1  0  0  0  0
  8 28  1  0  0  0  0
  8 29  1  0  0  0  0
  9 10  1  0  0  0  0
  9 30  1  0  0  0  0
  9 31  1  0  0  0  0
 10 11  1  0  0  0  0
 10 32  1  0  0  0  0
 11 12  2  0  0  0  0
 11 13  1  0  0  0  0
 13 14  1  0  0  0  0
 13 33  1  0  0  0  0
 14 18  1  0  0  0  0
 14 15  2  0  0  0  0
 15 16  1  0  0  0  0
 16 17  2  0  0  0  0
 17 18  1  0  0  0  0
 17 34  1  0  0  0  0
 19 20  1  0  0  0  0
 19 35  1  0  0  0  0
 19 36  1  0  0  0  0
 20 37  1  0  0  0  0
 20 38  1  0  0  0  0
M  CHG  1   7   1
M  END
> <s_m_source_file>
AV-unprocessed.smi

> <i_m_source_file_index>
1680

> <i_lp_mmshare_version>
43012

> <i_f3d_flags>
0

> <s_epik_input>
W0NIM11DKD1PKU4xW0NIMl1bQ0gyXU4oW0NIMl1bQ0gyXTEpW0NIMl1bQ0gyXVtOSF1DKD1PKVtOSF1jMm5uW2NIXXMy

> <s_epik_cmdline>
J2VwaWtfcHl0aG9uJywgJy1waCcsICc3LjAnLCAnLXRuJywgJzgnLCAnLW1hJywgJzIwMCcsICctbWV0YWxfYmluZGluZycsICctaW1hZScsICc8aW5maWxlLm1hZT4nLCAnLW9tYWUnLCAnPG91dGZpbGUubWFlPic=

> <r_lp_tautomer_probability>
1

> <r_epik_Ionization_Penalty>
0.679071

> <r_epik_Ionization_Penalty_Charging>
0.67523

> <r_epik_Ionization_Penalty_Neutral>
0.00384089

> <r_epik_State_Penalty>
0.695776

> <r_epik_Charging_Adjusted_Penalty>
1.37101

> <i_epik_Tot_Q>
1

> <i_epik_Tot_abs_Q>
1

> <r_epik_Metal_State_Penalty>
1.03363

> <b_epik_Metal_Only>
0

> <s_lp_Force_Field>
OPLS_2005

> <r_lp_Energy>
38.3378

> <b_lp_Chiralities_Consistent>
1

> <s_lp_Variant>
AV-unprocessed.smi:1680-2

> <Gold.Version>
5.8.1

> <Gold.Id.Protein>
6NUR|6NUR_protein|mol2

> <Gold.PLP.Fitness>
44.6762

> <Gold.PLP.PLP>
-33.4095

> <Gold.PLP.part.hbond>
-4.2572

> <Gold.PLP.part.metal>
0.0000

> <Gold.PLP.part.buried>
-3.0041

> <Gold.PLP.part.nonpolar>
-24.8748

> <Gold.PLP.part.repulsive>
0.2659

> <Gold.PLP.ligand.clash>
0.0000

> <Gold.PLP.ligand.torsion>
0.3914

> <Gold.PLP.Chemscore.Hbond>
4.0000

> <Gold.PLP.Chemscore.CHOScore>
0.0000

> <Gold.PLP.Chemscore.Metal>
0.0000

> <Gold.Chemscore.Hbonds>
donor molecule, donor type, donor heavy atom, donor atom, acceptor molecule, acceptor atom, score
      L1  H     7    39       P1  7957  1.00
      L1  H    10    32       P1 10175  0.99
      L1  H    13    33       P1 10175  1.00
      P1  H 11000 11005       L1    16  0.91

> <Gold.PLP.Chemscore.Internal.Correction>
0.0496

> <Gold.Rescore>
     Score         DG    S(hbond)    S(metal)    S(lipo)     H(rot)  DE(clash)    DE(int)     intcor
     18.46     -20.47       3.82        0.00      59.14       1.83       0.31       1.69       ----

> <Gold.Chemscore.Fitness>
18.4611

> <Gold.Chemscore.DG>
-20.4674

> <Gold.Chemscore.ZeroCoef>
-5.4800

> <Gold.Chemscore.Hbond>
3.8159

> <Gold.Chemscore.Metal>
0.0000

> <Gold.Chemscore.Lipo>
59.1438

> <Gold.Chemscore.Internal_Hbond>
0.0000

> <Gold.Chemscore.DEClash>
0.3148

> <Gold.Chemscore.DEInternal>
1.6915

> <Gold.Chemscore.Rot>
1.8272

> <Gold.Chemscore.Internal.Correction>
   9.000000E+99

> <Gold.Chemscore.Hbonds>
donor molecule, donor type, donor heavy atom, donor atom, acceptor molecule, acceptor atom, score
      L1  H     7    39       P1  7957  0.99
      L1  H    10    32       P1 10175  0.91
      L1  H    13    33       P1 10175  0.93
      P1  H 11000 11005       L1    16  0.38

> <Gold.Chemscore.Hbond.Weighted>
-12.7452

> <Gold.Chemscore.Metal.Weighted>
-0.0000

> <Gold.Chemscore.Lipo.Weighted>
-6.9198

> <Gold.Chemscore.Internal_Hbond.Weighted>
0.0000

> <Gold.Chemscore.DEClash.Weighted>
0.3148

> <Gold.Chemscore.DEInternal.Weighted>
1.6915

> <Gold.Chemscore.Rot.Weighted>
4.6776

> <Gold.Chemscore.Internal.Correction.Weighted>
   9.000000E+99

> <Gold.Protein.RotatedTorsions>
[ 6907 6896 6895 6894 ] final   22.66 input  -60.11 | X-H torsion
[ 7974 7965 7964 7962 ] final -161.38 input  175.53 | X-H torsion
[ 8008 7997 7996 7995 ] final   89.22 input   59.86 | X-H torsion
[ 10167 10162 10161 10158 ] final  113.57 input  -65.29 | X-H torsion
[ 10718 10713 10712 10709 ] final   26.41 input   66.30 | X-H torsion
[ 10763 10752 10751 10750 ] final  -92.47 input  -60.55 | X-H torsion
[ 11005 11000 10999 10996 ] final   49.69 input  -57.11 | X-H torsion

> <Gold.Protein.ActiveResidues>
 VAL166  LYS551  ARG553  GLY616  TRP617  ASP618  TYR619  PRO620  LYS621  CYS622 
 ASP623  PHE694  ASN695  SER759  ASP760  ASP761  ALA762  ILE779  LEU786  VAL792 
 PHE793  MET794  SER795  GLU796  ALA797  LYS798  CYS799  TRP800  GLU811  SER814 

> <Gold.Protein.RotatedAtoms>
  151.9305  135.0258  160.0528 H   0  0  0  0  0  0  0  0  0  0  0  0  # atno 6907 bound_to 6896
  152.2122  133.4915  159.5125 H   0  0  0  0  0  0  0  0  0  0  0  0  # atno 6908 bound_to 6896
  150.6979  134.1369  159.4133 H   0  0  0  0  0  0  0  0  0  0  0  0  # atno 6909 bound_to 6896
  144.7393  140.3405  143.6135 H   0  0  0  0  0  0  0  0  0  0  0  0  # atno 7974 bound_to 7965
  155.9973  140.3363  155.6811 H   0  0  0  0  0  0  0  0  0  0  0  0  # atno 8008 bound_to 7997
  155.6338  140.0688  157.2658 H   0  0  0  0  0  0  0  0  0  0  0  0  # atno 8009 bound_to 7997
  154.4238  140.1755  156.1488 H   0  0  0  0  0  0  0  0  0  0  0  0  # atno 8010 bound_to 7997
  139.6452  144.7126  151.2158 H   0  0  0  0  0  0  0  0  0  0  0  0  # atno 10167 bound_to 10162
  157.2065  130.6914  149.6210 H   0  0  0  0  0  0  0  0  0  0  0  0  # atno 10718 bound_to 10713
  154.6864  135.5230  153.8332 H   0  0  0  0  0  0  0  0  0  0  0  0  # atno 10763 bound_to 10752
  153.0600  135.6565  154.0494 H   0  0  0  0  0  0  0  0  0  0  0  0  # atno 10764 bound_to 10752
  154.0375  135.2980  155.3339 H   0  0  0  0  0  0  0  0  0  0  0  0  # atno 10765 bound_to 10752
  140.1082  134.4991  155.8701 H   0  0  0  0  0  0  0  0  0  0  0  0  # atno 11005 bound_to 11000
  145.7379  139.1755  143.2393 LP  0  0  0  0  0  0  0  0  0  0  0  0  # atno 17320 bound_to 7965
  146.1156  140.7373  142.9482 LP  0  0  0  0  0  0  0  0  0  0  0  0  # atno 17321 bound_to 7965
  140.7511  143.6244  150.8483 LP  0  0  0  0  0  0  0  0  0  0  0  0  # atno 17342 bound_to 10162
  139.9886  143.5872  152.2918 LP  0  0  0  0  0  0  0  0  0  0  0  0  # atno 17343 bound_to 10162
  155.9695  130.4565  150.5929 LP  0  0  0  0  0  0  0  0  0  0  0  0  # atno 17370 bound_to 10713
  157.3715  131.0766  151.1553 LP  0  0  0  0  0  0  0  0  0  0  0  0  # atno 17371 bound_to 10713
  141.2123  133.6718  156.6652 LP  0  0  0  0  0  0  0  0  0  0  0  0  # atno 17394 bound_to 11000
  140.3127  134.8072  157.4189 LP  0  0  0  0  0  0  0  0  0  0  0  0  # atno 17395 bound_to 11000

$$$$
