AV-unprocessed.smi:1667|AV-procd|sdf|6674|dock8
  -GOLD-   22720 7383D 1   1.00000     0.00000
 Structure written by MMmdl.
 45 47  0  0  0  0  0  0  0  0  1 V2000
  151.6891  135.6673  154.6880 C   0  0  0  0  0  0  0  0  0  0  0  0
  151.7608  137.1465  154.3256 C   0  0  0  0  0  0  0  0  0  0  0  0
  151.6599  137.4935  153.1499 O   0  0  0  0  0  0  0  0  0  0  0  0
  151.9378  137.9934  155.3548 N   0  0  0  0  0  0  0  0  0  0  0  0
  152.0444  139.4580  155.3387 C   0  0  2  0  0  0  0  0  0  0  0  0
  152.9680  140.0141  154.2395 C   0  0  0  0  0  0  0  0  0  0  0  0
  152.3868  139.9808  156.7157 C   0  0  0  0  0  0  0  0  0  0  0  0
  153.5724  139.7643  157.2928 N   0  0  0  0  0  0  0  0  0  0  0  0
  153.4556  140.4123  158.5047 C   0  0  0  0  0  0  0  0  0  0  0  0
  154.3731  140.5380  159.5720 C   0  0  0  0  0  0  0  0  0  0  0  0
  154.0242  141.2613  160.7313 C   0  0  0  0  0  0  0  0  0  0  0  0
  152.7561  141.8685  160.8386 C   0  0  0  0  0  0  0  0  0  0  0  0
  151.8282  141.7556  159.7855 C   0  0  0  0  0  0  0  0  0  0  0  0
  152.1819  141.0315  158.6308 C   0  0  0  0  0  0  0  0  0  0  0  0
  151.5207  140.7381  157.4424 N   0  0  0  0  0  0  0  0  0  0  0  0
  150.1738  141.1793  157.1005 C   0  0  0  0  0  0  0  0  0  0  0  0
  150.1411  142.0642  155.8377 C   0  0  2  0  0  0  0  0  0  0  0  0
  150.2171  143.4330  156.1894 O   0  0  0  0  0  0  0  0  0  0  0  0
  148.9224  141.7561  154.9821 C   0  0  0  0  0  0  0  0  0  0  0  0
  148.9544  140.6775  154.0721 C   0  0  0  0  0  0  0  0  0  0  0  0
  147.8262  140.3810  153.2823 C   0  0  0  0  0  0  0  0  0  0  0  0
  146.6591  141.1603  153.3993 C   0  0  0  0  0  0  0  0  0  0  0  0
  146.6196  142.2348  154.3080 C   0  0  0  0  0  0  0  0  0  0  0  0
  145.4969  142.9827  154.4235 F   0  0  0  0  0  0  0  0  0  0  0  0
  147.7468  142.5307  155.0988 C   0  0  0  0  0  0  0  0  0  0  0  0
  151.0338  139.7698  155.0845 H   0  0  0  0  0  0  0  0  0  0  0  0
  150.8077  135.4683  155.2983 H   0  0  0  0  0  0  0  0  0  0  0  0
  152.5746  135.3685  155.2496 H   0  0  0  0  0  0  0  0  0  0  0  0
  151.6305  135.0501  153.7910 H   0  0  0  0  0  0  0  0  0  0  0  0
  152.0136  137.5718  156.2690 H   0  0  0  0  0  0  0  0  0  0  0  0
  152.8733  141.0982  154.1725 H   0  0  0  0  0  0  0  0  0  0  0  0
  152.7131  139.6009  153.2633 H   0  0  0  0  0  0  0  0  0  0  0  0
  154.0179  139.7966  154.4355 H   0  0  0  0  0  0  0  0  0  0  0  0
  155.3468  140.0767  159.4980 H   0  0  0  0  0  0  0  0  0  0  0  0
  154.7328  141.3506  161.5417 H   0  0  0  0  0  0  0  0  0  0  0  0
  152.4965  142.4213  161.7296 H   0  0  0  0  0  0  0  0  0  0  0  0
  150.8563  142.2197  159.8647 H   0  0  0  0  0  0  0  0  0  0  0  0
  149.5624  140.2908  156.9371 H   0  0  0  0  0  0  0  0  0  0  0  0
  149.7218  141.6857  157.9524 H   0  0  0  0  0  0  0  0  0  0  0  0
  151.0323  141.8532  155.2449 H   0  0  0  0  0  0  0  0  0  0  0  0
  149.3919  143.6891  156.5726 H   0  0  0  0  0  0  0  0  0  0  0  0
  149.8440  140.0721  153.9775 H   0  0  0  0  0  0  0  0  0  0  0  0
  147.8553  139.5553  152.5869 H   0  0  0  0  0  0  0  0  0  0  0  0
  145.7943  140.9328  152.7936 H   0  0  0  0  0  0  0  0  0  0  0  0
  147.7049  143.3537  155.7971 H   0  0  0  0  0  0  0  0  0  0  0  0
  1  2  1  0  0  0  0
  1 27  1  0  0  0  0
  1 28  1  0  0  0  0
  1 29  1  0  0  0  0
  2  3  2  0  0  0  0
  2  4  1  0  0  0  0
  4  5  1  0  0  0  0
  4 30  1  0  0  0  0
  5 26  1  0  0  0  0
  5  6  1  0  0  0  0
  5  7  1  0  0  0  0
  6 31  1  0  0  0  0
  6 32  1  0  0  0  0
  6 33  1  0  0  0  0
  7 15  1  0  0  0  0
  7  8  2  0  0  0  0
  8  9  1  0  0  0  0
  9 14  2  0  0  0  0
  9 10  1  0  0  0  0
 10 11  2  0  0  0  0
 10 34  1  0  0  0  0
 11 12  1  0  0  0  0
 11 35  1  0  0  0  0
 12 13  2  0  0  0  0
 12 36  1  0  0  0  0
 13 14  1  0  0  0  0
 13 37  1  0  0  0  0
 14 15  1  0  0  0  0
 15 16  1  0  0  0  0
 16 17  1  0  0  0  0
 16 38  1  0  0  0  0
 16 39  1  0  0  0  0
 17 18  1  0  0  0  0
 17 19  1  0  0  0  0
 17 40  1  0  0  0  0
 18 41  1  0  0  0  0
 19 25  1  0  0  0  0
 19 20  2  0  0  0  0
 20 21  1  0  0  0  0
 20 42  1  0  0  0  0
 21 22  2  0  0  0  0
 21 43  1  0  0  0  0
 22 23  1  0  0  0  0
 22 44  1  0  0  0  0
 23 24  1  0  0  0  0
 23 25  2  0  0  0  0
 25 45  1  0  0  0  0
M  END
> <s_m_source_file>
AV-unprocessed.smi

> <i_m_source_file_index>
1667

> <i_lp_mmshare_version>
43012

> <i_f3d_flags>
0

> <s_epik_input>
W0NIM11DKD1PKVtOSF1bQ0BASF0oW0NIM10pYyhuMSluKGMoYzEyKVtjSF1bY0hdW2NIXVtjSF0yKVtDSDJdW0NASF0oW09IXSljM1tjSF1bY0hdW2NIXWMoRilbY0hdMw==

> <s_epik_cmdline>
J2VwaWtfcHl0aG9uJywgJy1waCcsICc3LjAnLCAnLXRuJywgJzgnLCAnLW1hJywgJzIwMCcsICctbWV0YWxfYmluZGluZycsICctaW1hZScsICc8aW5maWxlLm1hZT4nLCAnLW9tYWUnLCAnPG91dGZpbGUubWFlPic=

> <r_epik_Ionization_Penalty>
0.133011

> <r_epik_Ionization_Penalty_Charging>
0

> <r_epik_Ionization_Penalty_Neutral>
0.133011

> <r_epik_State_Penalty>
0.122384

> <r_epik_Charging_Adjusted_Penalty>
0.122384

> <i_epik_Tot_Q>
0

> <i_epik_Tot_abs_Q>
0

> <r_epik_Metal_State_Penalty>
0.0997374

> <b_epik_Metal_Only>
0

> <s_lp_Force_Field>
OPLS_2005

> <r_lp_Energy>
10.1709

> <b_lp_Chiralities_Consistent>
1

> <s_lp_Variant>
AV-unprocessed.smi:1667-2

> <Gold.Version>
5.8.1

> <Gold.Id.Protein>
6NUR|6NUR_protein|mol2

> <Gold.PLP.Fitness>
53.0475

> <Gold.PLP.PLP>
-46.5881

> <Gold.PLP.part.hbond>
-2.6836

> <Gold.PLP.part.metal>
0.0000

> <Gold.PLP.part.buried>
2.0084

> <Gold.PLP.part.nonpolar>
-46.8932

> <Gold.PLP.part.repulsive>
0.4602

> <Gold.PLP.ligand.clash>
0.0000

> <Gold.PLP.ligand.torsion>
1.3730

> <Gold.PLP.Chemscore.Hbond>
3.0000

> <Gold.PLP.Chemscore.CHOScore>
0.0000

> <Gold.PLP.Chemscore.Metal>
0.0000

> <Gold.Chemscore.Hbonds>
donor molecule, donor type, donor heavy atom, donor atom, acceptor molecule, acceptor atom, score
      L1  H    18    41       P1  8028  0.08

> <Gold.PLP.Chemscore.Internal.Correction>
0.2054

> <Gold.Rescore>
     Score         DG    S(hbond)    S(metal)    S(lipo)     H(rot)  DE(clash)    DE(int)     intcor
     15.13     -20.34       1.93        0.00     125.94       2.48       3.57       1.64       ----

> <Gold.Chemscore.Fitness>
15.1324

> <Gold.Chemscore.DG>
-20.3372

> <Gold.Chemscore.ZeroCoef>
-5.4800

> <Gold.Chemscore.Hbond>
1.9343

> <Gold.Chemscore.Metal>
0.0000

> <Gold.Chemscore.Lipo>
125.9406

> <Gold.Chemscore.Internal_Hbond>
0.0000

> <Gold.Chemscore.DEClash>
3.5668

> <Gold.Chemscore.DEInternal>
1.6380

> <Gold.Chemscore.Rot>
2.4760

> <Gold.Chemscore.Internal.Correction>
   9.000000E+99

> <Gold.Chemscore.Hbonds>
donor molecule, donor type, donor heavy atom, donor atom, acceptor molecule, acceptor atom, score
      L1  H    18    41       P1  8028  0.08

> <Gold.Chemscore.Hbond.Weighted>
-6.4607

> <Gold.Chemscore.Metal.Weighted>
-0.0000

> <Gold.Chemscore.Lipo.Weighted>
-14.7351

> <Gold.Chemscore.Internal_Hbond.Weighted>
0.0000

> <Gold.Chemscore.DEClash.Weighted>
3.5668

> <Gold.Chemscore.DEInternal.Weighted>
1.6380

> <Gold.Chemscore.Rot.Weighted>
6.3385

> <Gold.Chemscore.Internal.Correction.Weighted>
   9.000000E+99

> <Gold.Protein.RotatedTorsions>
[ 6907 6896 6895 6894 ] final   80.14 input  -60.11 | X-H torsion
[ 7974 7965 7964 7962 ] final  -61.36 input  175.53 | X-H torsion
[ 8008 7997 7996 7995 ] final   44.73 input   59.86 | X-H torsion
[ 10167 10162 10161 10158 ] final  149.81 input  -65.29 | X-H torsion
[ 10718 10713 10712 10709 ] final  -39.48 input   66.30 | X-H torsion
[ 10763 10752 10751 10750 ] final   34.58 input  -60.55 | X-H torsion
[ 11005 11000 10999 10996 ] final -145.16 input  -57.11 | X-H torsion

> <Gold.Protein.ActiveResidues>
 VAL166  LYS551  ARG553  GLY616  TRP617  ASP618  TYR619  PRO620  LYS621  CYS622 
 ASP623  PHE694  ASN695  SER759  ASP760  ASP761  ALA762  ILE779  LEU786  VAL792 
 PHE793  MET794  SER795  GLU796  ALA797  LYS798  CYS799  TRP800  GLU811  SER814 

> <Gold.Protein.RotatedAtoms>
  152.5224  134.3403  159.9214 H   0  0  0  0  0  0  0  0  0  0  0  0  # atno 6907 bound_to 6896
  151.3352  133.3978  159.2674 H   0  0  0  0  0  0  0  0  0  0  0  0  # atno 6908 bound_to 6896
  150.9848  134.9213  159.7923 H   0  0  0  0  0  0  0  0  0  0  0  0  # atno 6909 bound_to 6896
  145.8044  140.8636  143.0214 H   0  0  0  0  0  0  0  0  0  0  0  0  # atno 7974 bound_to 7965
  155.3242  140.3398  155.4240 H   0  0  0  0  0  0  0  0  0  0  0  0  # atno 8008 bound_to 7997
  156.1894  140.1692  156.8159 H   0  0  0  0  0  0  0  0  0  0  0  0  # atno 8009 bound_to 7997
  154.5424  140.0722  156.8516 H   0  0  0  0  0  0  0  0  0  0  0  0  # atno 8010 bound_to 7997
  139.4857  144.5572  151.7295 H   0  0  0  0  0  0  0  0  0  0  0  0  # atno 10167 bound_to 10162
  156.2920  130.4229  149.8229 H   0  0  0  0  0  0  0  0  0  0  0  0  # atno 10718 bound_to 10713
  153.0158  135.6356  154.1691 H   0  0  0  0  0  0  0  0  0  0  0  0  # atno 10763 bound_to 10752
  154.1430  135.2833  155.3157 H   0  0  0  0  0  0  0  0  0  0  0  0  # atno 10764 bound_to 10752
  154.6110  135.5556  153.7535 H   0  0  0  0  0  0  0  0  0  0  0  0  # atno 10765 bound_to 10752
  140.7950  134.2923  157.4999 H   0  0  0  0  0  0  0  0  0  0  0  0  # atno 11005 bound_to 11000
  144.6765  140.0305  143.7482 LP  0  0  0  0  0  0  0  0  0  0  0  0  # atno 17320 bound_to 7965
  145.9844  139.2966  143.1023 LP  0  0  0  0  0  0  0  0  0  0  0  0  # atno 17321 bound_to 7965
  140.5136  144.0987  150.6002 LP  0  0  0  0  0  0  0  0  0  0  0  0  # atno 17342 bound_to 10162
  140.3921  143.2747  152.0048 LP  0  0  0  0  0  0  0  0  0  0  0  0  # atno 17343 bound_to 10162
  156.5638  130.8395  151.3336 LP  0  0  0  0  0  0  0  0  0  0  0  0  # atno 17370 bound_to 10713
  157.7345  130.9747  150.2032 LP  0  0  0  0  0  0  0  0  0  0  0  0  # atno 17371 bound_to 10713
  139.8727  134.9397  156.3748 LP  0  0  0  0  0  0  0  0  0  0  0  0  # atno 17394 bound_to 11000
  140.9351  133.7552  156.0075 LP  0  0  0  0  0  0  0  0  0  0  0  0  # atno 17395 bound_to 11000

$$$$
