AV-unprocessed.smi:2819|AV-procd|sdf|10852|dock9
  -GOLD-   2272015293D 1   1.00000     0.00000
 Structure written by MMmdl.
 49 50  0  0  0  0  0  0  0  0  1 V2000
  143.9506  131.8370  150.3900 C   0  0  0  0  0  0  0  0  0  0  0  0
  144.5950  132.8663  151.1986 N   0  0  0  0  0  0  0  0  0  0  0  0
  144.0702  134.2259  151.2080 C   0  0  0  0  0  0  0  0  0  0  0  0
  145.6806  132.5228  152.0347 C   0  0  0  0  0  0  0  0  0  0  0  0
  145.9052  131.1914  152.4615 C   0  0  0  0  0  0  0  0  0  0  0  0
  147.0209  130.9688  153.2911 C   0  0  0  0  0  0  0  0  0  0  0  0
  147.8407  131.9716  153.6654 N   0  0  0  0  0  0  0  0  0  0  0  0
  147.5528  133.1994  153.2154 C   0  0  0  0  0  0  0  0  0  0  0  0
  148.3486  134.2703  153.5608 N   0  0  0  0  0  0  0  0  0  0  0  0
  148.9083  134.6088  154.7380 C   0  0  0  0  0  0  0  0  0  0  0  0
  148.8001  133.9761  155.7892 O   0  0  0  0  0  0  0  0  0  0  0  0
  149.6243  135.7371  154.6252 N   0  0  0  0  0  0  0  0  0  0  0  0
  150.3976  136.3698  155.6942 C   0  0  0  0  0  0  0  0  0  0  0  0
  150.7718  137.8483  155.3770 C   0  0  0  0  0  0  0  0  0  0  0  0
  151.8257  137.8185  154.2437 C   0  0  0  0  0  0  0  0  0  0  0  0
  149.4978  138.5131  154.7950 C   0  0  0  0  0  0  0  0  0  0  0  0
  151.2448  138.5681  156.5935 N   0  0  0  0  0  0  0  0  0  0  0  0
  151.5678  139.9847  156.3884 C   0  0  0  0  0  0  0  0  0  0  0  0
  151.9300  140.6920  157.7055 C   0  0  0  0  0  0  0  0  0  0  0  0
  153.0157  140.0177  158.3297 O   0  0  0  0  0  0  0  0  0  0  0  0
  152.7224  138.6528  158.6012 C   0  0  0  0  0  0  0  0  0  0  0  0
  152.3672  137.9290  157.2914 C   0  0  0  0  0  0  0  0  0  0  0  0
  146.5200  133.5132  152.4279 N   0  0  0  0  0  0  0  0  0  0  0  0
  144.6680  131.3823  149.7061 H   0  0  0  0  0  0  0  0  0  0  0  0
  143.1375  132.2501  149.7928 H   0  0  0  0  0  0  0  0  0  0  0  0
  143.5343  131.0556  151.0266 H   0  0  0  0  0  0  0  0  0  0  0  0
  143.7347  134.5010  152.2084 H   0  0  0  0  0  0  0  0  0  0  0  0
  143.2206  134.3285  150.5328 H   0  0  0  0  0  0  0  0  0  0  0  0
  144.8353  134.9345  150.8894 H   0  0  0  0  0  0  0  0  0  0  0  0
  145.2677  130.3674  152.1792 H   0  0  0  0  0  0  0  0  0  0  0  0
  147.2555  129.9799  153.6564 H   0  0  0  0  0  0  0  0  0  0  0  0
  148.5510  134.8973  152.7964 H   0  0  0  0  0  0  0  0  0  0  0  0
  149.6624  136.1845  153.7210 H   0  0  0  0  0  0  0  0  0  0  0  0
  149.8115  136.3037  156.6105 H   0  0  0  0  0  0  0  0  0  0  0  0
  151.2976  135.7911  155.9096 H   0  0  0  0  0  0  0  0  0  0  0  0
  151.4388  137.3024  153.3642 H   0  0  0  0  0  0  0  0  0  0  0  0
  152.7333  137.2929  154.5400 H   0  0  0  0  0  0  0  0  0  0  0  0
  152.1114  138.8186  153.9191 H   0  0  0  0  0  0  0  0  0  0  0  0
  149.0415  137.8941  154.0215 H   0  0  0  0  0  0  0  0  0  0  0  0
  149.7100  139.4747  154.3277 H   0  0  0  0  0  0  0  0  0  0  0  0
  148.7425  138.6811  155.5635 H   0  0  0  0  0  0  0  0  0  0  0  0
  152.4020  140.0854  155.6943 H   0  0  0  0  0  0  0  0  0  0  0  0
  150.7252  140.5164  155.9502 H   0  0  0  0  0  0  0  0  0  0  0  0
  152.2173  141.7258  157.5130 H   0  0  0  0  0  0  0  0  0  0  0  0
  151.0719  140.7176  158.3789 H   0  0  0  0  0  0  0  0  0  0  0  0
  153.5916  138.1880  159.0667 H   0  0  0  0  0  0  0  0  0  0  0  0
  151.9007  138.5838  159.3162 H   0  0  0  0  0  0  0  0  0  0  0  0
  152.1364  136.8943  157.5374 H   0  0  0  0  0  0  0  0  0  0  0  0
  153.2489  137.9133  156.6509 H   0  0  0  0  0  0  0  0  0  0  0  0
  1  2  1  0  0  0  0
  1 24  1  0  0  0  0
  1 25  1  0  0  0  0
  1 26  1  0  0  0  0
  2  3  1  0  0  0  0
  2  4  1  0  0  0  0
  3 27  1  0  0  0  0
  3 28  1  0  0  0  0
  3 29  1  0  0  0  0
  4 23  1  0  0  0  0
  4  5  2  0  0  0  0
  5  6  1  0  0  0  0
  5 30  1  0  0  0  0
  6  7  2  0  0  0  0
  6 31  1  0  0  0  0
  7  8  1  0  0  0  0
  8  9  1  0  0  0  0
  8 23  2  0  0  0  0
  9 10  1  0  0  0  0
  9 32  1  0  0  0  0
 10 11  2  0  0  0  0
 10 12  1  0  0  0  0
 12 13  1  0  0  0  0
 12 33  1  0  0  0  0
 13 14  1  0  0  0  0
 13 34  1  0  0  0  0
 13 35  1  0  0  0  0
 14 15  1  0  0  0  0
 14 16  1  0  0  0  0
 14 17  1  0  0  0  0
 15 36  1  0  0  0  0
 15 37  1  0  0  0  0
 15 38  1  0  0  0  0
 16 39  1  0  0  0  0
 16 40  1  0  0  0  0
 16 41  1  0  0  0  0
 17 22  1  0  0  0  0
 17 18  1  0  0  0  0
 18 19  1  0  0  0  0
 18 42  1  0  0  0  0
 18 43  1  0  0  0  0
 19 20  1  0  0  0  0
 19 44  1  0  0  0  0
 19 45  1  0  0  0  0
 20 21  1  0  0  0  0
 21 22  1  0  0  0  0
 21 46  1  0  0  0  0
 21 47  1  0  0  0  0
 22 48  1  0  0  0  0
 22 49  1  0  0  0  0
M  END
> <s_m_source_file>
AV-unprocessed.smi

> <i_m_source_file_index>
2819

> <i_lp_mmshare_version>
43012

> <i_f3d_flags>
0

> <s_epik_input>
W0NIM11OKFtDSDNdKWMxW2NIXVtjSF1uYyhuMSlbTkhdQyg9TylbTkhdW0NIMl1DKFtDSDNdKShbQ0gzXSlOMltDSDJdW0NIMl1PW0NIMl1bQ0gyXTI=

> <s_epik_cmdline>
J2VwaWtfcHl0aG9uJywgJy1waCcsICc3LjAnLCAnLXRuJywgJzgnLCAnLW1hJywgJzIwMCcsICctbWV0YWxfYmluZGluZycsICctaW1hZScsICc8aW5maWxlLm1hZT4nLCAnLW9tYWUnLCAnPG91dGZpbGUubWFlPic=

> <r_lp_tautomer_probability>
1

> <r_epik_Ionization_Penalty>
1.38931

> <r_epik_Ionization_Penalty_Charging>
0

> <r_epik_Ionization_Penalty_Neutral>
1.38931

> <r_epik_State_Penalty>
1.41304

> <r_epik_Charging_Adjusted_Penalty>
1.41304

> <i_epik_Tot_Q>
0

> <i_epik_Tot_abs_Q>
0

> <r_epik_Metal_State_Penalty>
0.631353

> <b_epik_Metal_Only>
0

> <s_lp_Force_Field>
OPLS_2005

> <r_lp_Energy>
40.3447

> <b_lp_Chiralities_Consistent>
1

> <s_lp_Variant>
AV-unprocessed.smi:2819-3

> <Gold.Version>
5.8.1

> <Gold.Id.Protein>
6NUR|6NUR_protein|mol2

> <Gold.PLP.Fitness>
40.7534

> <Gold.PLP.PLP>
-33.5241

> <Gold.PLP.part.hbond>
-3.0000

> <Gold.PLP.part.metal>
0.0000

> <Gold.PLP.part.buried>
-5.4602

> <Gold.PLP.part.nonpolar>
-25.8974

> <Gold.PLP.part.repulsive>
0.2768

> <Gold.PLP.ligand.clash>
0.0000

> <Gold.PLP.ligand.torsion>
0.8408

> <Gold.PLP.Chemscore.Hbond>
2.9440

> <Gold.PLP.Chemscore.CHOScore>
0.0000

> <Gold.PLP.Chemscore.Metal>
0.0000

> <Gold.Chemscore.Hbonds>
donor molecule, donor type, donor heavy atom, donor atom, acceptor molecule, acceptor atom, score
      L1  H     9    32       P1  7948  1.00
      L1  H    12    33       P1  7948  0.94
      P1  H  7997  8009       L1    20  0.98

> <Gold.PLP.Chemscore.Internal.Correction>
0.0788

> <Gold.Rescore>
     Score         DG    S(hbond)    S(metal)    S(lipo)     H(rot)  DE(clash)    DE(int)     intcor
     17.24     -18.41       2.56        0.00      70.55       1.51       0.20       0.97       ----

> <Gold.Chemscore.Fitness>
17.2353

> <Gold.Chemscore.DG>
-18.4102

> <Gold.Chemscore.ZeroCoef>
-5.4800

> <Gold.Chemscore.Hbond>
2.5555

> <Gold.Chemscore.Metal>
0.0000

> <Gold.Chemscore.Lipo>
70.5462

> <Gold.Chemscore.Internal_Hbond>
0.0000

> <Gold.Chemscore.DEClash>
0.2020

> <Gold.Chemscore.DEInternal>
0.9729

> <Gold.Chemscore.Rot>
1.5075

> <Gold.Chemscore.Internal.Correction>
   9.000000E+99

> <Gold.Chemscore.Hbonds>
donor molecule, donor type, donor heavy atom, donor atom, acceptor molecule, acceptor atom, score
      L1  H     9    32       P1  7948  0.39
      L1  H    12    33       P1  7948  0.36
      P1  H  7997  8009       L1    20  0.32

> <Gold.Chemscore.Hbond.Weighted>
-8.5353

> <Gold.Chemscore.Metal.Weighted>
-0.0000

> <Gold.Chemscore.Lipo.Weighted>
-8.2539

> <Gold.Chemscore.Internal_Hbond.Weighted>
0.0000

> <Gold.Chemscore.DEClash.Weighted>
0.2020

> <Gold.Chemscore.DEInternal.Weighted>
0.9729

> <Gold.Chemscore.Rot.Weighted>
3.8591

> <Gold.Chemscore.Internal.Correction.Weighted>
   9.000000E+99

> <Gold.Protein.RotatedTorsions>
[ 6907 6896 6895 6894 ] final -126.96 input  -60.11 | X-H torsion
[ 7974 7965 7964 7962 ] final  141.02 input  175.53 | X-H torsion
[ 8008 7997 7996 7995 ] final  158.52 input   59.86 | X-H torsion
[ 10167 10162 10161 10158 ] final -117.80 input  -65.29 | X-H torsion
[ 10718 10713 10712 10709 ] final   69.92 input   66.30 | X-H torsion
[ 10763 10752 10751 10750 ] final   64.32 input  -60.55 | X-H torsion
[ 11005 11000 10999 10996 ] final  166.18 input  -57.11 | X-H torsion

> <Gold.Protein.ActiveResidues>
 VAL166  LYS551  ARG553  GLY616  TRP617  ASP618  TYR619  PRO620  LYS621  CYS622 
 ASP623  PHE694  ASN695  SER759  ASP760  ASP761  ALA762  ILE779  LEU786  VAL792 
 PHE793  MET794  SER795  GLU796  ALA797  LYS798  CYS799  TRP800  GLU811  SER814 

> <Gold.Protein.RotatedAtoms>
  150.9023  133.7102  159.2875 H   0  0  0  0  0  0  0  0  0  0  0  0  # atno 6907 bound_to 6896
  151.4617  135.1037  159.9736 H   0  0  0  0  0  0  0  0  0  0  0  0  # atno 6908 bound_to 6896
  152.4884  133.8385  159.7195 H   0  0  0  0  0  0  0  0  0  0  0  0  # atno 6909 bound_to 6896
  144.9134  139.5263  143.5698 H   0  0  0  0  0  0  0  0  0  0  0  0  # atno 7974 bound_to 7965
  156.2298  140.1856  156.7272 H   0  0  0  0  0  0  0  0  0  0  0  0  # atno 8008 bound_to 7997
  154.6002  140.0637  156.9386 H   0  0  0  0  0  0  0  0  0  0  0  0  # atno 8009 bound_to 7997
  155.2187  140.3305  155.4321 H   0  0  0  0  0  0  0  0  0  0  0  0  # atno 8010 bound_to 7997
  140.0644  143.4937  152.2014 H   0  0  0  0  0  0  0  0  0  0  0  0  # atno 10167 bound_to 10162
  157.6372  130.9451  150.0580 H   0  0  0  0  0  0  0  0  0  0  0  0  # atno 10718 bound_to 10713
  153.0051  135.5397  154.6492 H   0  0  0  0  0  0  0  0  0  0  0  0  # atno 10763 bound_to 10752
  154.5728  135.2843  155.0812 H   0  0  0  0  0  0  0  0  0  0  0  0  # atno 10764 bound_to 10752
  154.1971  135.6490  153.5129 H   0  0  0  0  0  0  0  0  0  0  0  0  # atno 10765 bound_to 10752
  140.2638  134.7881  157.3614 H   0  0  0  0  0  0  0  0  0  0  0  0  # atno 11005 bound_to 11000
  146.3170  139.7957  142.8976 LP  0  0  0  0  0  0  0  0  0  0  0  0  # atno 17320 bound_to 7965
  145.3416  141.0289  143.3389 LP  0  0  0  0  0  0  0  0  0  0  0  0  # atno 17321 bound_to 7965
  139.5874  144.7536  151.3486 LP  0  0  0  0  0  0  0  0  0  0  0  0  # atno 17342 bound_to 10162
  140.7156  143.7275  150.7649 LP  0  0  0  0  0  0  0  0  0  0  0  0  # atno 17343 bound_to 10162
  156.1621  130.3644  149.9284 LP  0  0  0  0  0  0  0  0  0  0  0  0  # atno 17370 bound_to 10713
  156.7279  130.9032  151.3623 LP  0  0  0  0  0  0  0  0  0  0  0  0  # atno 17371 bound_to 10713
  140.1439  134.4936  155.8011 LP  0  0  0  0  0  0  0  0  0  0  0  0  # atno 17394 bound_to 11000
  141.2187  133.6836  156.7259 LP  0  0  0  0  0  0  0  0  0  0  0  0  # atno 17395 bound_to 11000

$$$$
