AV-unprocessed.smi:3064|AV-procd|sdf|11689|dock7
  -GOLD-   2272017 93D 1   1.00000     0.00000
 Structure written by MMmdl.
 21 22  0  0  0  0  0  0  0  0  1 V2000
  152.6158  144.5572  158.3788 C   0  0  0  0  0  0  0  0  0  0  0  0
  151.6668  144.1404  157.4807 C   0  0  0  0  0  0  0  0  0  0  0  0
  151.3588  142.4307  157.6151 S   0  0  0  0  0  0  0  0  0  0  0  0
  152.5653  142.3421  158.8953 C   0  0  0  0  0  0  0  0  0  0  0  0
  152.8847  141.0737  159.6210 C   0  0  2  0  0  0  0  0  0  0  0  0
  153.9422  141.2802  160.7227 C   0  0  0  0  0  0  0  0  0  0  0  0
  154.2762  140.0022  161.3493 N   0  0  0  0  0  0  0  0  0  0  0  0
  154.7045  139.0216  160.3529 C   0  0  0  0  0  0  0  0  0  0  0  0
  153.6360  138.8721  159.2547 C   0  0  0  0  0  0  0  0  0  0  0  0
  153.3777  140.1406  158.6619 O   0  0  0  0  0  0  0  0  0  0  0  0
  153.1108  143.5286  159.1839 N   0  0  0  0  0  0  0  0  0  0  0  0
  152.9935  145.5597  158.5153 H   0  0  0  0  0  0  0  0  0  0  0  0
  151.1304  144.7328  156.7547 H   0  0  0  0  0  0  0  0  0  0  0  0
  151.9587  140.6921  160.0552 H   0  0  0  0  0  0  0  0  0  0  0  0
  154.8400  141.7266  160.2931 H   0  0  0  0  0  0  0  0  0  0  0  0
  153.5729  141.9791  161.4734 H   0  0  0  0  0  0  0  0  0  0  0  0
  155.0158  140.1403  162.0305 H   0  0  0  0  0  0  0  0  0  0  0  0
  155.6481  139.3353  159.9047 H   0  0  0  0  0  0  0  0  0  0  0  0
  154.8891  138.0590  160.8302 H   0  0  0  0  0  0  0  0  0  0  0  0
  153.9860  138.1867  158.4827 H   0  0  0  0  0  0  0  0  0  0  0  0
  152.7150  138.4504  159.6603 H   0  0  0  0  0  0  0  0  0  0  0  0
  1 11  1  0  0  0  0
  1  2  2  0  0  0  0
  1 12  1  0  0  0  0
  2  3  1  0  0  0  0
  2 13  1  0  0  0  0
  3  4  1  0  0  0  0
  4  5  1  0  0  0  0
  4 11  2  0  0  0  0
  5 10  1  0  0  0  0
  5  6  1  0  0  0  0
  5 14  1  0  0  0  0
  6  7  1  0  0  0  0
  6 15  1  0  0  0  0
  6 16  1  0  0  0  0
  7  8  1  0  0  0  0
  7 17  1  0  0  0  0
  8  9  1  0  0  0  0
  8 18  1  0  0  0  0
  8 19  1  0  0  0  0
  9 10  1  0  0  0  0
  9 20  1  0  0  0  0
  9 21  1  0  0  0  0
M  END
> <s_m_source_file>
AV-unprocessed.smi

> <i_m_source_file_index>
3064

> <i_lp_mmshare_version>
43012

> <i_f3d_flags>
0

> <s_epik_input>
bjFbY0hdW2NIXXNjMVtDQEBIXTJbQ0gyXVtOSF1bQ0gyXVtDSDJdTzI=

> <s_epik_cmdline>
J2VwaWtfcHl0aG9uJywgJy1waCcsICc3LjAnLCAnLXRuJywgJzgnLCAnLW1hJywgJzIwMCcsICctbWV0YWxfYmluZGluZycsICctaW1hZScsICc8aW5maWxlLm1hZT4nLCAnLW9tYWUnLCAnPG91dGZpbGUubWFlPic=

> <r_epik_Ionization_Penalty>
0.980767

> <r_epik_Ionization_Penalty_Charging>
0

> <r_epik_Ionization_Penalty_Neutral>
0.980767

> <r_epik_State_Penalty>
1.0271

> <r_epik_Charging_Adjusted_Penalty>
1.0271

> <i_epik_Tot_Q>
0

> <i_epik_Tot_abs_Q>
0

> <r_epik_Metal_State_Penalty>
1.02673

> <b_epik_Metal_Only>
0

> <s_lp_Force_Field>
OPLS_2005

> <r_lp_Energy>
8.04051

> <b_lp_Chiralities_Consistent>
1

> <s_lp_Variant>
AV-unprocessed.smi:3064-3

> <Gold.Version>
5.8.1

> <Gold.Id.Protein>
6NUR|6NUR_protein|mol2

> <Gold.PLP.Fitness>
30.9528

> <Gold.PLP.PLP>
-25.0249

> <Gold.PLP.part.hbond>
-1.0000

> <Gold.PLP.part.metal>
0.0000

> <Gold.PLP.part.buried>
-3.2291

> <Gold.PLP.part.nonpolar>
-21.4598

> <Gold.PLP.part.repulsive>
0.0000

> <Gold.PLP.ligand.clash>
0.0000

> <Gold.PLP.ligand.torsion>
0.0053

> <Gold.PLP.Chemscore.Hbond>
0.9760

> <Gold.PLP.Chemscore.CHOScore>
1.0000

> <Gold.PLP.Chemscore.Metal>
0.0000

> <Gold.Chemscore.Hbonds>
donor molecule, donor type, donor heavy atom, donor atom, acceptor molecule, acceptor atom, score
      P1  H  7997  8010       L1    10  0.98
      L1  C     2    13       P1  8028  1.00

> <Gold.PLP.Chemscore.Internal.Correction>
0.0106

> <Gold.Rescore>
     Score         DG    S(hbond)    S(metal)    S(lipo)     H(rot)  DE(clash)    DE(int)     intcor
     14.22     -14.40       0.85        0.00      73.81       1.00       0.15       0.02       ----

> <Gold.Chemscore.Fitness>
14.2240

> <Gold.Chemscore.DG>
-14.3971

> <Gold.Chemscore.ZeroCoef>
-5.4800

> <Gold.Chemscore.Hbond>
0.8509

> <Gold.Chemscore.Metal>
0.0000

> <Gold.Chemscore.Lipo>
73.8057

> <Gold.Chemscore.Internal_Hbond>
0.0000

> <Gold.Chemscore.DEClash>
0.1550

> <Gold.Chemscore.DEInternal>
0.0182

> <Gold.Chemscore.Rot>
1.0000

> <Gold.Chemscore.Internal.Correction>
   9.000000E+99

> <Gold.Chemscore.Hbonds>
donor molecule, donor type, donor heavy atom, donor atom, acceptor molecule, acceptor atom, score
      P1  H  7997  8010       L1    10  0.22

> <Gold.Chemscore.Hbond.Weighted>
-2.8419

> <Gold.Chemscore.Metal.Weighted>
-0.0000

> <Gold.Chemscore.Lipo.Weighted>
-8.6353

> <Gold.Chemscore.Internal_Hbond.Weighted>
0.0000

> <Gold.Chemscore.DEClash.Weighted>
0.1550

> <Gold.Chemscore.DEInternal.Weighted>
0.0182

> <Gold.Chemscore.Rot.Weighted>
2.5600

> <Gold.Chemscore.Internal.Correction.Weighted>
   9.000000E+99

> <Gold.Protein.RotatedTorsions>
[ 6907 6896 6895 6894 ] final -132.05 input  -60.11 | X-H torsion
[ 7974 7965 7964 7962 ] final  -57.60 input  175.53 | X-H torsion
[ 8008 7997 7996 7995 ] final   30.92 input   59.86 | X-H torsion
[ 10167 10162 10161 10158 ] final -151.71 input  -65.29 | X-H torsion
[ 10718 10713 10712 10709 ] final  158.22 input   66.30 | X-H torsion
[ 10763 10752 10751 10750 ] final   49.86 input  -60.55 | X-H torsion
[ 11005 11000 10999 10996 ] final   95.52 input  -57.11 | X-H torsion

> <Gold.Protein.ActiveResidues>
 VAL166  LYS551  ARG553  GLY616  TRP617  ASP618  TYR619  PRO620  LYS621  CYS622 
 ASP623  PHE694  ASN695  SER759  ASP760  ASP761  ALA762  ILE779  LEU786  VAL792 
 PHE793  MET794  SER795  GLU796  ALA797  LYS798  CYS799  TRP800  GLU811  SER814 

> <Gold.Protein.RotatedAtoms>
  150.9579  133.6477  159.2759 H   0  0  0  0  0  0  0  0  0  0  0  0  # atno 6907 bound_to 6896
  151.3810  135.0938  159.9506 H   0  0  0  0  0  0  0  0  0  0  0  0  # atno 6908 bound_to 6896
  152.5136  133.9113  159.7544 H   0  0  0  0  0  0  0  0  0  0  0  0  # atno 6909 bound_to 6896
  145.8491  140.8364  142.9995 H   0  0  0  0  0  0  0  0  0  0  0  0  # atno 7974 bound_to 7965
  155.0982  140.3227  155.4554 H   0  0  0  0  0  0  0  0  0  0  0  0  # atno 8008 bound_to 7997
  156.2724  140.2066  156.6055 H   0  0  0  0  0  0  0  0  0  0  0  0  # atno 8009 bound_to 7997
  154.6850  140.0522  157.0292 H   0  0  0  0  0  0  0  0  0  0  0  0  # atno 8010 bound_to 7997
  139.7244  143.8907  152.2514 H   0  0  0  0  0  0  0  0  0  0  0  0  # atno 10167 bound_to 10162
  157.1808  131.0632  151.2132 H   0  0  0  0  0  0  0  0  0  0  0  0  # atno 10718 bound_to 10713
  152.9785  135.5898  154.4157 H   0  0  0  0  0  0  0  0  0  0  0  0  # atno 10763 bound_to 10752
  154.3787  135.2767  155.2226 H   0  0  0  0  0  0  0  0  0  0  0  0  # atno 10764 bound_to 10752
  154.4149  135.6073  153.6029 H   0  0  0  0  0  0  0  0  0  0  0  0  # atno 10765 bound_to 10752
  139.8788  134.8903  156.4023 H   0  0  0  0  0  0  0  0  0  0  0  0  # atno 11005 bound_to 11000
  144.6730  140.0927  143.7464 LP  0  0  0  0  0  0  0  0  0  0  0  0  # atno 17320 bound_to 7965
  145.9378  139.2648  143.1287 LP  0  0  0  0  0  0  0  0  0  0  0  0  # atno 17321 bound_to 7965
  139.8812  144.7016  150.8876 LP  0  0  0  0  0  0  0  0  0  0  0  0  # atno 17342 bound_to 10162
  140.7760  143.3660  151.1739 LP  0  0  0  0  0  0  0  0  0  0  0  0  # atno 17343 bound_to 10162
  157.3954  130.7304  149.6728 LP  0  0  0  0  0  0  0  0  0  0  0  0  # atno 17370 bound_to 10713
  155.9724  130.4135  150.4086 LP  0  0  0  0  0  0  0  0  0  0  0  0  # atno 17371 bound_to 10713
  140.9258  133.7613  155.9963 LP  0  0  0  0  0  0  0  0  0  0  0  0  # atno 17394 bound_to 11000
  140.8387  134.3092  157.5321 LP  0  0  0  0  0  0  0  0  0  0  0  0  # atno 17395 bound_to 11000

$$$$
