AV-unprocessed.smi:743|AV-procd|sdf|3564|dock1
  -GOLD-   22720 0563D 1   1.00000     0.00000
 Structure written by MMmdl.
 28 29  0  0  0  0  0  0  0  0  1 V2000
  151.7649  138.2596  154.8509 C   0  0  0  0  0  0  0  0  0  0  0  0
  150.6139  139.0972  154.5904 N   0  0  0  0  0  0  0  0  0  0  0  0
  149.3822  138.7355  154.0907 C   0  0  0  0  0  0  0  0  0  0  0  0
  148.6167  139.8674  154.0115 C   0  0  0  0  0  0  0  0  0  0  0  0
  147.1891  140.0383  153.5285 C   0  0  2  0  0  0  0  0  0  0  0  0
  146.2940  140.3278  154.6524 N   0  0  0  0  0  0  0  0  0  0  0  0
  145.5066  139.4475  155.2994 C   0  0  0  0  0  0  0  0  0  0  0  0
  144.8809  139.7695  156.3067 O   0  0  0  0  0  0  0  0  0  0  0  0
  145.3472  138.0243  154.7370 C   0  0  0  0  0  0  0  0  0  0  0  0
  146.3943  137.6405  153.6763 C   0  0  0  0  0  0  0  0  0  0  0  0
  146.6679  138.8172  152.7312 C   0  0  2  0  0  0  0  0  0  0  0  0
  147.5675  138.4245  151.6613 N   0  0  0  0  0  0  0  0  0  0  0  0
  149.4911  140.8806  154.5021 C   0  0  0  0  0  0  0  0  0  0  0  0
  150.6817  140.4186  154.8465 N   0  0  0  0  0  0  0  0  0  0  0  0
  145.7241  139.0935  152.2589 H   0  0  0  0  0  0  0  0  0  0  0  0
  151.5499  137.2294  154.5659 H   0  0  0  0  0  0  0  0  0  0  0  0
  152.0111  138.2897  155.9127 H   0  0  0  0  0  0  0  0  0  0  0  0
  152.6188  138.6155  154.2736 H   0  0  0  0  0  0  0  0  0  0  0  0
  149.1546  137.7124  153.8296 H   0  0  0  0  0  0  0  0  0  0  0  0
  147.1376  140.9074  152.8718 H   0  0  0  0  0  0  0  0  0  0  0  0
  146.3379  141.2652  155.0251 H   0  0  0  0  0  0  0  0  0  0  0  0
  145.3637  137.3043  155.5555 H   0  0  0  0  0  0  0  0  0  0  0  0
  144.3526  137.9654  154.2939 H   0  0  0  0  0  0  0  0  0  0  0  0
  147.3163  137.3225  154.1653 H   0  0  0  0  0  0  0  0  0  0  0  0
  146.0361  136.7788  153.1118 H   0  0  0  0  0  0  0  0  0  0  0  0
  148.4010  138.9944  151.6900 H   0  0  0  0  0  0  0  0  0  0  0  0
  147.8647  137.4691  151.7987 H   0  0  0  0  0  0  0  0  0  0  0  0
  149.2941  141.9365  154.6150 H   0  0  0  0  0  0  0  0  0  0  0  0
  1  2  1  0  0  0  0
  1 16  1  0  0  0  0
  1 17  1  0  0  0  0
  1 18  1  0  0  0  0
  2 14  1  0  0  0  0
  2  3  1  0  0  0  0
  3  4  2  0  0  0  0
  3 19  1  0  0  0  0
  4  5  1  0  0  0  0
  4 13  1  0  0  0  0
  5 11  1  0  0  0  0
  5  6  1  0  0  0  0
  5 20  1  0  0  0  0
  6  7  1  0  0  0  0
  6 21  1  0  0  0  0
  7  8  2  0  0  0  0
  7  9  1  0  0  0  0
  9 10  1  0  0  0  0
  9 22  1  0  0  0  0
  9 23  1  0  0  0  0
 10 11  1  0  0  0  0
 10 24  1  0  0  0  0
 10 25  1  0  0  0  0
 11 15  1  0  0  0  0
 11 12  1  0  0  0  0
 12 26  1  0  0  0  0
 12 27  1  0  0  0  0
 13 14  2  0  0  0  0
 13 28  1  0  0  0  0
M  END
> <s_m_source_file>
AV-unprocessed.smi

> <i_m_source_file_index>
743

> <i_lp_mmshare_version>
43012

> <i_f3d_flags>
0

> <s_epik_input>
W0NIM11uMVtjSF1jKFtjSF1uMSlbQ0BASF0yW05IXUMoPU8pW0NIMl1bQ0gyXVtDQEBIXTJbTkgyXQ==

> <s_epik_cmdline>
J2VwaWtfcHl0aG9uJywgJy1waCcsICc3LjAnLCAnLXRuJywgJzgnLCAnLW1hJywgJzIwMCcsICctbWV0YWxfYmluZGluZycsICctaW1hZScsICc8aW5maWxlLm1hZT4nLCAnLW9tYWUnLCAnPG91dGZpbGUubWFlPic=

> <r_lp_tautomer_probability>
1

> <r_epik_Ionization_Penalty>
2.50279

> <r_epik_Ionization_Penalty_Charging>
0

> <r_epik_Ionization_Penalty_Neutral>
2.50279

> <r_epik_State_Penalty>
2.66754

> <r_epik_Charging_Adjusted_Penalty>
2.66754

> <i_epik_Tot_Q>
0

> <i_epik_Tot_abs_Q>
0

> <r_epik_Metal_State_Penalty>
2.66721

> <b_epik_Metal_Only>
0

> <s_lp_Force_Field>
OPLS_2005

> <r_lp_Energy>
9.07017

> <b_lp_Chiralities_Consistent>
1

> <s_lp_Variant>
AV-unprocessed.smi:743-5

> <Gold.Version>
5.8.1

> <Gold.Id.Protein>
6NUR|6NUR_protein|mol2

> <Gold.PLP.Fitness>
35.0474

> <Gold.PLP.PLP>
-23.6189

> <Gold.PLP.part.hbond>
-4.0000

> <Gold.PLP.part.metal>
0.0000

> <Gold.PLP.part.buried>
-0.6743

> <Gold.PLP.part.nonpolar>
-19.1621

> <Gold.PLP.part.repulsive>
0.1245

> <Gold.PLP.ligand.clash>
0.0000

> <Gold.PLP.ligand.torsion>
0.2946

> <Gold.PLP.Chemscore.Hbond>
3.0000

> <Gold.PLP.Chemscore.CHOScore>
1.0000

> <Gold.PLP.Chemscore.Metal>
0.0000

> <Gold.Chemscore.Hbonds>
donor molecule, donor type, donor heavy atom, donor atom, acceptor molecule, acceptor atom, score
      L1  H    12    26       P1  7957  1.00
      L1  H    12    27       P1  7948  1.00
      P1  H  7989  7998       L1    14  0.90
      L1  C     3    19       P1  7948  1.00

> <Gold.PLP.Chemscore.Internal.Correction>
0.0178

> <Gold.Rescore>
     Score         DG    S(hbond)    S(metal)    S(lipo)     H(rot)  DE(clash)    DE(int)     intcor
     13.69     -14.96       2.02        0.00      45.19       1.00       0.19       1.07       ----

> <Gold.Chemscore.Fitness>
13.6949

> <Gold.Chemscore.DG>
-14.9565

> <Gold.Chemscore.ZeroCoef>
-5.4800

> <Gold.Chemscore.Hbond>
2.0207

> <Gold.Chemscore.Metal>
0.0000

> <Gold.Chemscore.Lipo>
45.1896

> <Gold.Chemscore.Internal_Hbond>
0.0000

> <Gold.Chemscore.DEClash>
0.1871

> <Gold.Chemscore.DEInternal>
1.0745

> <Gold.Chemscore.Rot>
1.0000

> <Gold.Chemscore.Internal.Correction>
   9.000000E+99

> <Gold.Chemscore.Hbonds>
donor molecule, donor type, donor heavy atom, donor atom, acceptor molecule, acceptor atom, score
      L1  H    12    26       P1  7957  0.84
      L1  H    12    27       P1  7948  0.97
      P1  H  7989  7998       L1    14  0.05

> <Gold.Chemscore.Hbond.Weighted>
-6.7493

> <Gold.Chemscore.Metal.Weighted>
-0.0000

> <Gold.Chemscore.Lipo.Weighted>
-5.2872

> <Gold.Chemscore.Internal_Hbond.Weighted>
0.0000

> <Gold.Chemscore.DEClash.Weighted>
0.1871

> <Gold.Chemscore.DEInternal.Weighted>
1.0745

> <Gold.Chemscore.Rot.Weighted>
2.5600

> <Gold.Chemscore.Internal.Correction.Weighted>
   9.000000E+99

> <Gold.Protein.RotatedTorsions>
[ 6907 6896 6895 6894 ] final   99.78 input  -60.11 | X-H torsion
[ 7974 7965 7964 7962 ] final   37.74 input  175.53 | X-H torsion
[ 8008 7997 7996 7995 ] final  -17.82 input   59.86 | X-H torsion
[ 10167 10162 10161 10158 ] final -123.47 input  -65.29 | X-H torsion
[ 10718 10713 10712 10709 ] final -169.89 input   66.30 | X-H torsion
[ 10763 10752 10751 10750 ] final   60.94 input  -60.55 | X-H torsion
[ 11005 11000 10999 10996 ] final -159.17 input  -57.11 | X-H torsion

> <Gold.Protein.ActiveResidues>
 VAL166  LYS551  ARG553  GLY616  TRP617  ASP618  TYR619  PRO620  LYS621  CYS622 
 ASP623  PHE694  ASN695  SER759  ASP760  ASP761  ALA762  ILE779  LEU786  VAL792 
 PHE793  MET794  SER795  GLU796  ALA797  LYS798  CYS799  TRP800  GLU811  SER814 

> <Gold.Protein.RotatedAtoms>
  152.5385  134.0377  159.8053 H   0  0  0  0  0  0  0  0  0  0  0  0  # atno 6907 bound_to 6896
  151.0538  133.5594  159.2647 H   0  0  0  0  0  0  0  0  0  0  0  0  # atno 6908 bound_to 6896
  151.2518  135.0632  159.9118 H   0  0  0  0  0  0  0  0  0  0  0  0  # atno 6909 bound_to 6896
  146.1114  139.5857  142.9349 H   0  0  0  0  0  0  0  0  0  0  0  0  # atno 7974 bound_to 7965
  154.4951  140.2132  155.9465 H   0  0  0  0  0  0  0  0  0  0  0  0  # atno 8008 bound_to 7997
  156.1359  140.3188  155.8387 H   0  0  0  0  0  0  0  0  0  0  0  0  # atno 8009 bound_to 7997
  155.4211  140.0497  157.3016 H   0  0  0  0  0  0  0  0  0  0  0  0  # atno 8010 bound_to 7997
  140.0031  143.5519  152.2295 H   0  0  0  0  0  0  0  0  0  0  0  0  # atno 10167 bound_to 10162
  156.7181  130.9259  151.3095 H   0  0  0  0  0  0  0  0  0  0  0  0  # atno 10718 bound_to 10713
  152.9935  135.5518  154.5954 H   0  0  0  0  0  0  0  0  0  0  0  0  # atno 10763 bound_to 10752
  154.5306  135.2813  155.1185 H   0  0  0  0  0  0  0  0  0  0  0  0  # atno 10764 bound_to 10752
  154.2502  135.6400  153.5290 H   0  0  0  0  0  0  0  0  0  0  0  0  # atno 10765 bound_to 10752
  140.6455  134.4505  157.5234 H   0  0  0  0  0  0  0  0  0  0  0  0  # atno 11005 bound_to 11000
  145.5655  141.0400  143.2203 LP  0  0  0  0  0  0  0  0  0  0  0  0  # atno 17320 bound_to 7965
  144.7515  139.7182  143.7271 LP  0  0  0  0  0  0  0  0  0  0  0  0  # atno 17321 bound_to 7965
  139.6257  144.7637  151.2643 LP  0  0  0  0  0  0  0  0  0  0  0  0  # atno 17342 bound_to 10162
  140.7411  143.6568  150.8200 LP  0  0  0  0  0  0  0  0  0  0  0  0  # atno 17343 bound_to 10162
  157.6909  130.9232  150.0511 LP  0  0  0  0  0  0  0  0  0  0  0  0  # atno 17370 bound_to 10713
  156.1613  130.3644  149.9295 LP  0  0  0  0  0  0  0  0  0  0  0  0  # atno 17371 bound_to 10713
  139.9064  134.8439  156.1689 LP  0  0  0  0  0  0  0  0  0  0  0  0  # atno 17394 bound_to 11000
  141.0575  133.6858  156.1888 LP  0  0  0  0  0  0  0  0  0  0  0  0  # atno 17395 bound_to 11000

$$$$
