AV-unprocessed.smi:1120|AV-procd|sdf|4824|dock3
  -GOLD-   22720 3383D 1   1.00000     0.00000
 Structure written by MMmdl.
 48 49  0  0  0  0  0  0  0  0  3 V2000
  153.3405  142.6971  160.7265 C   0  0  0  0  0  0  0  0  0  0  0  0
  152.1241  142.2954  159.8812 C   0  0  2  0  0  0  0  0  0  0  0  0
  152.1673  140.8022  159.4807 C   0  0  0  0  0  0  0  0  0  0  0  0
  150.9729  140.3853  158.5860 C   0  0  0  0  0  0  0  0  0  0  0  0
  150.8431  141.2402  157.3029 C   0  0  1  0  0  0  0  0  0  0  0  0
  149.6326  140.8718  156.5832 N   0  5  0  0  0  0  0  0  0  0  0  0
  149.7262  140.4184  155.0300 S   0  0  0  0  0  0  0  0  0  0  0  0
  149.1106  141.3946  154.1149 O   0  0  0  0  0  0  0  0  0  0  0  0
  151.0623  139.9200  154.6647 O   0  0  0  0  0  0  0  0  0  0  0  0
  148.6135  138.9458  155.0366 C   0  0  0  0  0  0  0  0  0  0  0  0
  147.4385  139.1707  154.0872 C   0  0  0  0  0  0  0  0  0  0  0  0
  146.6151  140.0548  154.3234 O   0  0  0  0  0  0  0  0  0  0  0  0
  147.3683  138.3589  153.0201 N   0  0  0  0  0  0  0  0  0  0  0  0
  146.3181  138.3777  152.0057 C   0  0  0  0  0  0  0  0  0  0  0  0
  145.0067  137.7328  152.4953 C   0  0  0  0  0  0  0  0  0  0  0  0
  144.8624  136.2660  152.1270 C   0  0  0  0  0  0  0  0  0  0  0  0
  143.6276  135.5886  152.2246 C   0  0  0  0  0  0  0  0  0  0  0  0
  143.5646  134.2192  151.8919 C   0  0  0  0  0  0  0  0  0  0  0  0
  144.7349  133.5569  151.4667 C   0  0  0  0  0  0  0  0  0  0  0  0
  145.9409  134.2818  151.3870 C   0  0  0  0  0  0  0  0  0  0  0  0
  145.9611  135.5913  151.7170 N   0  3  0  0  0  0  0  0  0  0  0  0
  150.8101  142.7362  157.7033 C   0  0  0  0  0  0  0  0  0  0  0  0
  152.0017  143.1550  158.6010 C   0  0  0  0  0  0  0  0  0  0  0  0
  154.2704  142.5572  160.1745 H   0  0  0  0  0  0  0  0  0  0  0  0
  153.4000  142.0994  161.6365 H   0  0  0  0  0  0  0  0  0  0  0  0
  153.2828  143.7447  161.0225 H   0  0  0  0  0  0  0  0  0  0  0  0
  151.2298  142.4580  160.4847 H   0  0  0  0  0  0  0  0  0  0  0  0
  153.1085  140.5849  158.9713 H   0  0  0  0  0  0  0  0  0  0  0  0
  152.1694  140.1857  160.3802 H   0  0  0  0  0  0  0  0  0  0  0  0
  151.0735  139.3328  158.3182 H   0  0  0  0  0  0  0  0  0  0  0  0
  150.0553  140.4629  159.1715 H   0  0  0  0  0  0  0  0  0  0  0  0
  151.7349  141.0669  156.6990 H   0  0  0  0  0  0  0  0  0  0  0  0
  149.1910  138.0738  154.7289 H   0  0  0  0  0  0  0  0  0  0  0  0
  148.2618  138.7763  156.0544 H   0  0  0  0  0  0  0  0  0  0  0  0
  148.0902  137.6601  152.9133 H   0  0  0  0  0  0  0  0  0  0  0  0
  146.1290  139.3963  151.6631 H   0  0  0  0  0  0  0  0  0  0  0  0
  146.6855  137.8317  151.1368 H   0  0  0  0  0  0  0  0  0  0  0  0
  144.9390  137.8272  153.5797 H   0  0  0  0  0  0  0  0  0  0  0  0
  144.1558  138.2834  152.0919 H   0  0  0  0  0  0  0  0  0  0  0  0
  142.7417  136.1083  152.5597 H   0  0  0  0  0  0  0  0  0  0  0  0
  142.6302  133.6823  151.9661 H   0  0  0  0  0  0  0  0  0  0  0  0
  144.7109  132.5071  151.2134 H   0  0  0  0  0  0  0  0  0  0  0  0
  146.8873  133.8556  151.0865 H   0  0  0  0  0  0  0  0  0  0  0  0
  150.8016  143.3618  156.8105 H   0  0  0  0  0  0  0  0  0  0  0  0
  149.8808  142.9518  158.2331 H   0  0  0  0  0  0  0  0  0  0  0  0
  151.8851  144.2031  158.8786 H   0  0  0  0  0  0  0  0  0  0  0  0
  152.9324  143.1018  158.0323 H   0  0  0  0  0  0  0  0  0  0  0  0
  146.8518  136.0884  151.6702 H   0  0  0  0  0  0  0  0  0  0  0  0
  1  2  1  0  0  0  0
  1 24  1  0  0  0  0
  1 25  1  0  0  0  0
  1 26  1  0  0  0  0
  2 23  1  0  0  0  0
  2  3  1  0  0  0  0
  2 27  1  0  0  0  0
  3  4  1  0  0  0  0
  3 28  1  0  0  0  0
  3 29  1  0  0  0  0
  4  5  1  0  0  0  0
  4 30  1  0  0  0  0
  4 31  1  0  0  0  0
  5  6  1  0  0  0  0
  5 22  1  0  0  0  0
  5 32  1  0  0  0  0
  6  7  1  0  0  0  0
  7  8  2  0  0  0  0
  7  9  2  0  0  0  0
  7 10  1  0  0  0  0
 10 11  1  0  0  0  0
 10 33  1  0  0  0  0
 10 34  1  0  0  0  0
 11 12  2  0  0  0  0
 11 13  1  0  0  0  0
 13 14  1  0  0  0  0
 13 35  1  0  0  0  0
 14 15  1  0  0  0  0
 14 36  1  0  0  0  0
 14 37  1  0  0  0  0
 15 16  1  0  0  0  0
 15 38  1  0  0  0  0
 15 39  1  0  0  0  0
 16 21  1  0  0  0  0
 16 17  2  0  0  0  0
 17 18  1  0  0  0  0
 17 40  1  0  0  0  0
 18 19  2  0  0  0  0
 18 41  1  0  0  0  0
 19 20  1  0  0  0  0
 19 42  1  0  0  0  0
 20 21  2  0  0  0  0
 20 43  1  0  0  0  0
 21 48  1  0  0  0  0
 22 23  1  0  0  0  0
 22 44  1  0  0  0  0
 22 45  1  0  0  0  0
 23 46  1  0  0  0  0
 23 47  1  0  0  0  0
M  CHG  1   6  -1
M  CHG  1  21   1
M  END
> <s_m_source_file>
AV-unprocessed.smi

> <i_m_source_file_index>
1120

> <i_lp_mmshare_version>
43012

> <i_f3d_flags>
0

> <s_epik_input>
W0NIM11bQ0BASF0xW0NIMl1bQ0gyXVtDQEhdKFtDSDJdW0NIMl0xKVtOSF1TKD1PKSg9TylbQ0gyXUMoPU8pW05IXVtDSDJdW0NIMl1jMltjSF1bY0hdW2NIXVtjSF1uMg==

> <s_epik_cmdline>
J2VwaWtfcHl0aG9uJywgJy1waCcsICc3LjAnLCAnLXRuJywgJzgnLCAnLW1hJywgJzIwMCcsICctbWV0YWxfYmluZGluZycsICctaW1hZScsICc8aW5maWxlLm1hZT4nLCAnLW9tYWUnLCAnPG91dGZpbGUubWFlPic=

> <r_epik_Ionization_Penalty>
7.48373

> <r_epik_Ionization_Penalty_Charging>
7.48373

> <r_epik_Ionization_Penalty_Neutral>
1.58512e-08

> <r_epik_State_Penalty>
7.71683

> <r_epik_Charging_Adjusted_Penalty>
15.2006

> <i_epik_Tot_Q>
0

> <i_epik_Tot_abs_Q>
2

> <r_epik_Metal_State_Penalty>
3.7254

> <b_epik_Metal_Only>
1

> <s_lp_Force_Field>
OPLS_2005

> <r_lp_Energy>
6.08915

> <b_lp_Chiralities_Consistent>
1

> <s_lp_Variant>
AV-unprocessed.smi:1120-7

> <Gold.Version>
5.8.1

> <Gold.Id.Protein>
6NUR|6NUR_protein|mol2

> <Gold.PLP.Fitness>
54.8685

> <Gold.PLP.PLP>
-42.1002

> <Gold.PLP.part.hbond>
-5.7553

> <Gold.PLP.part.metal>
0.0000

> <Gold.PLP.part.buried>
-3.6209

> <Gold.PLP.part.nonpolar>
-35.1052

> <Gold.PLP.part.repulsive>
0.5802

> <Gold.PLP.ligand.clash>
0.0000

> <Gold.PLP.ligand.torsion>
1.1417

> <Gold.PLP.Chemscore.Hbond>
4.6385

> <Gold.PLP.Chemscore.CHOScore>
0.0000

> <Gold.PLP.Chemscore.Metal>
0.0000

> <Gold.Chemscore.Hbonds>
donor molecule, donor type, donor heavy atom, donor atom, acceptor molecule, acceptor atom, score
      L1  H    13    35       P1  7948  1.00
      L1  H    21    48       P1  7948  1.72
      P1  H  7989  7998       L1     9  1.00
      P1  H  8011  8017       L1     8  0.47

> <Gold.PLP.Chemscore.Internal.Correction>
1.1362

> <Gold.Rescore>
     Score         DG    S(hbond)    S(metal)    S(lipo)     H(rot)  DE(clash)    DE(int)     intcor
     20.38     -22.95       3.22        0.00     100.72       1.98       0.07       2.51       ----

> <Gold.Chemscore.Fitness>
20.3804

> <Gold.Chemscore.DG>
-22.9514

> <Gold.Chemscore.ZeroCoef>
-5.4800

> <Gold.Chemscore.Hbond>
3.2227

> <Gold.Chemscore.Metal>
0.0000

> <Gold.Chemscore.Lipo>
100.7231

> <Gold.Chemscore.Internal_Hbond>
0.0000

> <Gold.Chemscore.DEClash>
0.0656

> <Gold.Chemscore.DEInternal>
2.5054

> <Gold.Chemscore.Rot>
1.9832

> <Gold.Chemscore.Internal.Correction>
   9.000000E+99

> <Gold.Chemscore.Hbonds>
donor molecule, donor type, donor heavy atom, donor atom, acceptor molecule, acceptor atom, score
      L1  H    13    35       P1  7948  0.93
      L1  H    21    48       P1  7948  0.81
      P1  H  7989  7998       L1     9  0.65
      P1  H  8011  8017       L1     8  0.47

> <Gold.Chemscore.Hbond.Weighted>
-10.7637

> <Gold.Chemscore.Metal.Weighted>
-0.0000

> <Gold.Chemscore.Lipo.Weighted>
-11.7846

> <Gold.Chemscore.Internal_Hbond.Weighted>
0.0000

> <Gold.Chemscore.DEClash.Weighted>
0.0656

> <Gold.Chemscore.DEInternal.Weighted>
2.5054

> <Gold.Chemscore.Rot.Weighted>
5.0769

> <Gold.Chemscore.Internal.Correction.Weighted>
   9.000000E+99

> <Gold.Protein.RotatedTorsions>
[ 6907 6896 6895 6894 ] final   30.81 input  -60.11 | X-H torsion
[ 7974 7965 7964 7962 ] final  119.11 input  175.53 | X-H torsion
[ 8008 7997 7996 7995 ] final  -26.57 input   59.86 | X-H torsion
[ 10167 10162 10161 10158 ] final   55.45 input  -65.29 | X-H torsion
[ 10718 10713 10712 10709 ] final -173.62 input   66.30 | X-H torsion
[ 10763 10752 10751 10750 ] final  -44.70 input  -60.55 | X-H torsion
[ 11005 11000 10999 10996 ] final  178.28 input  -57.11 | X-H torsion

> <Gold.Protein.ActiveResidues>
 VAL166  LYS551  ARG553  GLY616  TRP617  ASP618  TYR619  PRO620  LYS621  CYS622 
 ASP623  PHE694  ASN695  SER759  ASP760  ASP761  ALA762  ILE779  LEU786  VAL792 
 PHE793  MET794  SER795  GLU796  ALA797  LYS798  CYS799  TRP800  GLU811  SER814 

> <Gold.Protein.RotatedAtoms>
  152.0514  134.9651  160.0574 H   0  0  0  0  0  0  0  0  0  0  0  0  # atno 6907 bound_to 6896
  152.1051  133.4265  159.4613 H   0  0  0  0  0  0  0  0  0  0  0  0  # atno 6908 bound_to 6896
  150.6841  134.2634  159.4602 H   0  0  0  0  0  0  0  0  0  0  0  0  # atno 6909 bound_to 6896
  145.1470  139.3233  143.4586 H   0  0  0  0  0  0  0  0  0  0  0  0  # atno 7974 bound_to 7965
  154.4419  140.1896  156.0796 H   0  0  0  0  0  0  0  0  0  0  0  0  # atno 8008 bound_to 7997
  156.0449  140.3315  155.7258 H   0  0  0  0  0  0  0  0  0  0  0  0  # atno 8009 bound_to 7997
  155.5645  140.0607  157.2812 H   0  0  0  0  0  0  0  0  0  0  0  0  # atno 8010 bound_to 7997
  140.2193  144.3805  150.6457 H   0  0  0  0  0  0  0  0  0  0  0  0  # atno 10167 bound_to 10162
  156.7731  130.9456  151.3120 H   0  0  0  0  0  0  0  0  0  0  0  0  # atno 10718 bound_to 10713
  154.0165  135.6675  153.4769 H   0  0  0  0  0  0  0  0  0  0  0  0  # atno 10763 bound_to 10752
  153.0598  135.5034  154.8064 H   0  0  0  0  0  0  0  0  0  0  0  0  # atno 10764 bound_to 10752
  154.6964  135.3070  154.9370 H   0  0  0  0  0  0  0  0  0  0  0  0  # atno 10765 bound_to 10752
  140.3934  134.6842  157.4520 H   0  0  0  0  0  0  0  0  0  0  0  0  # atno 11005 bound_to 11000
  146.3499  140.1530  142.8592 LP  0  0  0  0  0  0  0  0  0  0  0  0  # atno 17320 bound_to 7965
  145.0471  140.8989  143.5018 LP  0  0  0  0  0  0  0  0  0  0  0  0  # atno 17321 bound_to 7965
  140.6266  143.2182  151.6583 LP  0  0  0  0  0  0  0  0  0  0  0  0  # atno 17342 bound_to 10162
  139.5150  144.3392  152.0755 LP  0  0  0  0  0  0  0  0  0  0  0  0  # atno 17343 bound_to 10162
  157.6682  130.9026  149.9979 LP  0  0  0  0  0  0  0  0  0  0  0  0  # atno 17370 bound_to 10713
  156.1265  130.3644  149.9800 LP  0  0  0  0  0  0  0  0  0  0  0  0  # atno 17371 bound_to 10713
  140.0390  134.6295  155.9006 LP  0  0  0  0  0  0  0  0  0  0  0  0  # atno 17394 bound_to 11000
  141.1883  133.6562  156.5317 LP  0  0  0  0  0  0  0  0  0  0  0  0  # atno 17395 bound_to 11000

$$$$
