AV-unprocessed.smi:689|AV-procd|sdf|3359|dock1
  -GOLD-   22720 0333D 1   1.00000     0.00000
 Structure written by MMmdl.
 34 35  0  0  0  0  0  0  0  0  1 V2000
  152.9900  137.4683  157.4178 C   0  0  0  0  0  0  0  0  0  0  0  0
  152.1048  138.1686  156.4272 C   0  0  0  0  0  0  0  0  0  0  0  0
  152.5513  139.2400  155.7938 N   0  0  0  0  0  0  0  0  0  0  0  0
  151.5142  139.6453  154.9484 O   0  0  0  0  0  0  0  0  0  0  0  0
  150.4719  138.7911  155.1066 C   0  0  0  0  0  0  0  0  0  0  0  0
  149.2654  139.0566  154.2711 C   0  0  0  0  0  0  0  0  0  0  0  0
  150.7783  137.8312  156.0328 C   0  0  0  0  0  0  0  0  0  0  0  0
  149.9360  136.6791  156.5166 C   0  0  0  0  0  0  0  0  0  0  0  0
  149.6927  136.8372  158.0157 C   0  0  0  0  0  0  0  0  0  0  0  0
  150.6251  136.8740  158.8172 O   0  0  0  0  0  0  0  0  0  0  0  0
  148.3494  136.8814  158.3993 N   0  0  0  0  0  0  0  0  0  0  0  0
  147.7564  136.6373  160.0044 S   0  0  0  0  0  0  0  0  0  0  0  0
  148.8598  136.8835  160.9462 O   0  0  0  0  0  0  0  0  0  0  0  0
  146.5105  137.4117  160.1086 O   0  0  0  0  0  0  0  0  0  0  0  0
  147.3067  134.8419  160.0059 C   0  0  0  0  0  0  0  0  0  0  0  0
  146.8593  134.3369  161.3653 C   0  0  0  0  0  0  0  0  0  0  0  0
  145.9179  135.1520  162.2228 C   0  0  0  0  0  0  0  0  0  0  0  0
  147.3565  134.9820  162.6396 C   0  0  0  0  0  0  0  0  0  0  0  0
  153.3121  136.5001  157.0338 H   0  0  0  0  0  0  0  0  0  0  0  0
  152.4638  137.2943  158.3562 H   0  0  0  0  0  0  0  0  0  0  0  0
  153.8835  138.0509  157.6453 H   0  0  0  0  0  0  0  0  0  0  0  0
  148.5048  138.2908  154.4214 H   0  0  0  0  0  0  0  0  0  0  0  0
  149.5255  139.0682  153.2125 H   0  0  0  0  0  0  0  0  0  0  0  0
  148.8267  140.0218  154.5232 H   0  0  0  0  0  0  0  0  0  0  0  0
  148.9717  136.6457  156.0088 H   0  0  0  0  0  0  0  0  0  0  0  0
  150.4169  135.7207  156.3163 H   0  0  0  0  0  0  0  0  0  0  0  0
  147.6070  136.8494  157.7015 H   0  0  0  0  0  0  0  0  0  0  0  0
  146.4899  134.7159  159.2948 H   0  0  0  0  0  0  0  0  0  0  0  0
  148.1520  134.2584  159.6417 H   0  0  0  0  0  0  0  0  0  0  0  0
  146.7205  133.2588  161.4066 H   0  0  0  0  0  0  0  0  0  0  0  0
  145.6145  136.1317  161.8591 H   0  0  0  0  0  0  0  0  0  0  0  0
  145.1632  134.6122  162.7911 H   0  0  0  0  0  0  0  0  0  0  0  0
  147.5652  134.3264  163.4827 H   0  0  0  0  0  0  0  0  0  0  0  0
  148.0090  135.8486  162.5504 H   0  0  0  0  0  0  0  0  0  0  0  0
  1  2  1  0  0  0  0
  1 19  1  0  0  0  0
  1 20  1  0  0  0  0
  1 21  1  0  0  0  0
  2  7  1  0  0  0  0
  2  3  2  0  0  0  0
  3  4  1  0  0  0  0
  4  5  1  0  0  0  0
  5  6  1  0  0  0  0
  5  7  2  0  0  0  0
  6 22  1  0  0  0  0
  6 23  1  0  0  0  0
  6 24  1  0  0  0  0
  7  8  1  0  0  0  0
  8  9  1  0  0  0  0
  8 25  1  0  0  0  0
  8 26  1  0  0  0  0
  9 10  2  0  0  0  0
  9 11  1  0  0  0  0
 11 12  1  0  0  0  0
 11 27  1  0  0  0  0
 12 13  2  0  0  0  0
 12 14  2  0  0  0  0
 12 15  1  0  0  0  0
 15 16  1  0  0  0  0
 15 28  1  0  0  0  0
 15 29  1  0  0  0  0
 16 18  1  0  0  0  0
 16 17  1  0  0  0  0
 16 30  1  0  0  0  0
 17 18  1  0  0  0  0
 17 31  1  0  0  0  0
 17 32  1  0  0  0  0
 18 33  1  0  0  0  0
 18 34  1  0  0  0  0
M  END
> <s_m_source_file>
AV-unprocessed.smi

> <i_m_source_file_index>
689

> <i_lp_mmshare_version>
43012

> <i_f3d_flags>
0

> <s_epik_input>
W0NIM11jMW5vYyhbQ0gzXSljMVtDSDJdQyg9TylbTkhdUyg9TykoPU8pW0NIMl1bQ0hdMltDSDJdW0NIMl0y

> <s_epik_cmdline>
J2VwaWtfcHl0aG9uJywgJy1waCcsICc3LjAnLCAnLXRuJywgJzgnLCAnLW1hJywgJzIwMCcsICctbWV0YWxfYmluZGluZycsICctaW1hZScsICc8aW5maWxlLm1hZT4nLCAnLW9tYWUnLCAnPG91dGZpbGUubWFlPic=

> <r_epik_Ionization_Penalty>
2.32728

> <r_epik_Ionization_Penalty_Charging>
0

> <r_epik_Ionization_Penalty_Neutral>
2.32728

> <r_epik_State_Penalty>
2.47991

> <r_epik_Charging_Adjusted_Penalty>
2.47991

> <i_epik_Tot_Q>
0

> <i_epik_Tot_abs_Q>
0

> <r_epik_Metal_State_Penalty>
2.4915

> <b_epik_Metal_Only>
0

> <s_lp_Force_Field>
OPLS_2005

> <r_lp_Energy>
-0.069028

> <b_lp_Chiralities_Consistent>
1

> <s_lp_Variant>
AV-unprocessed.smi:689-2

> <Gold.Version>
5.8.1

> <Gold.Id.Protein>
6NUR|6NUR_protein|mol2

> <Gold.PLP.Fitness>
40.8780

> <Gold.PLP.PLP>
-26.1502

> <Gold.PLP.part.hbond>
-4.9778

> <Gold.PLP.part.metal>
0.0000

> <Gold.PLP.part.buried>
-5.6113

> <Gold.PLP.part.nonpolar>
-17.1216

> <Gold.PLP.part.repulsive>
0.1370

> <Gold.PLP.ligand.clash>
0.0000

> <Gold.PLP.ligand.torsion>
0.8757

> <Gold.PLP.Chemscore.Hbond>
4.9440

> <Gold.PLP.Chemscore.CHOScore>
0.0000

> <Gold.PLP.Chemscore.Metal>
0.0000

> <Gold.Chemscore.Hbonds>
donor molecule, donor type, donor heavy atom, donor atom, acceptor molecule, acceptor atom, score
      P1  H  6896  6907       L1    10  0.76
      P1  H  6931  6943       L1    13  0.98
      P1  H  6934  6947       L1    14  1.00
      P1  H  7989  7998       L1     4  1.00
      P1  H  7997  8009       L1     3  0.91

> <Gold.PLP.Chemscore.Internal.Correction>
1.6473

> <Gold.Rescore>
     Score         DG    S(hbond)    S(metal)    S(lipo)     H(rot)  DE(clash)    DE(int)     intcor
     19.19     -22.49       4.46        0.00      54.10       1.65       0.05       3.25       ----

> <Gold.Chemscore.Fitness>
19.1854

> <Gold.Chemscore.DG>
-22.4864

> <Gold.Chemscore.ZeroCoef>
-5.4800

> <Gold.Chemscore.Hbond>
4.4627

> <Gold.Chemscore.Metal>
0.0000

> <Gold.Chemscore.Lipo>
54.1027

> <Gold.Chemscore.Internal_Hbond>
0.0000

> <Gold.Chemscore.DEClash>
0.0515

> <Gold.Chemscore.DEInternal>
3.2495

> <Gold.Chemscore.Rot>
1.6519

> <Gold.Chemscore.Internal.Correction>
   9.000000E+99

> <Gold.Chemscore.Hbonds>
donor molecule, donor type, donor heavy atom, donor atom, acceptor molecule, acceptor atom, score
      P1  H  6896  6907       L1    10  0.71
      P1  H  6931  6943       L1    13  0.92
      P1  H  6934  6947       L1    14  0.30
      P1  H  7989  7998       L1     4  0.98
      P1  H  7997  8009       L1     3  0.85

> <Gold.Chemscore.Hbond.Weighted>
-14.9054

> <Gold.Chemscore.Metal.Weighted>
-0.0000

> <Gold.Chemscore.Lipo.Weighted>
-6.3300

> <Gold.Chemscore.Internal_Hbond.Weighted>
0.0000

> <Gold.Chemscore.DEClash.Weighted>
0.0515

> <Gold.Chemscore.DEInternal.Weighted>
3.2495

> <Gold.Chemscore.Rot.Weighted>
4.2290

> <Gold.Chemscore.Internal.Correction.Weighted>
   9.000000E+99

> <Gold.Protein.RotatedTorsions>
[ 6907 6896 6895 6894 ] final  -29.53 input  -60.11 | X-H torsion
[ 7974 7965 7964 7962 ] final   98.17 input  175.53 | X-H torsion
[ 8008 7997 7996 7995 ] final -165.37 input   59.86 | X-H torsion
[ 10167 10162 10161 10158 ] final  144.94 input  -65.29 | X-H torsion
[ 10718 10713 10712 10709 ] final   60.05 input   66.30 | X-H torsion
[ 10763 10752 10751 10750 ] final   49.83 input  -60.55 | X-H torsion
[ 11005 11000 10999 10996 ] final  -74.20 input  -57.11 | X-H torsion

> <Gold.Protein.ActiveResidues>
 VAL166  LYS551  ARG553  GLY616  TRP617  ASP618  TYR619  PRO620  LYS621  CYS622 
 ASP623  PHE694  ASN695  SER759  ASP760  ASP761  ALA762  ILE779  LEU786  VAL792 
 PHE793  MET794  SER795  GLU796  ALA797  LYS798  CYS799  TRP800  GLU811  SER814 

> <Gold.Protein.RotatedAtoms>
  151.1180  135.0063  159.8524 H   0  0  0  0  0  0  0  0  0  0  0  0  # atno 6907 bound_to 6896
  152.5446  134.1757  159.8625 H   0  0  0  0  0  0  0  0  0  0  0  0  # atno 6908 bound_to 6896
  151.1812  133.4679  159.2627 H   0  0  0  0  0  0  0  0  0  0  0  0  # atno 6909 bound_to 6896
  145.4158  139.2328  143.3223 H   0  0  0  0  0  0  0  0  0  0  0  0  # atno 7974 bound_to 7965
  155.8489  140.0960  157.1688 H   0  0  0  0  0  0  0  0  0  0  0  0  # atno 8008 bound_to 7997
  154.3984  140.1387  156.3881 H   0  0  0  0  0  0  0  0  0  0  0  0  # atno 8009 bound_to 7997
  155.7983  140.3453  155.5391 H   0  0  0  0  0  0  0  0  0  0  0  0  # atno 8010 bound_to 7997
  139.4936  144.5936  151.6628 H   0  0  0  0  0  0  0  0  0  0  0  0  # atno 10167 bound_to 10162
  157.5723  130.8917  149.9288 H   0  0  0  0  0  0  0  0  0  0  0  0  # atno 10718 bound_to 10713
  152.9786  135.5899  154.4153 H   0  0  0  0  0  0  0  0  0  0  0  0  # atno 10763 bound_to 10752
  154.3784  135.2767  155.2228 H   0  0  0  0  0  0  0  0  0  0  0  0  # atno 10764 bound_to 10752
  154.4152  135.6072  153.6031 H   0  0  0  0  0  0  0  0  0  0  0  0  # atno 10765 bound_to 10752
  141.1632  133.6903  156.7327 H   0  0  0  0  0  0  0  0  0  0  0  0  # atno 11005 bound_to 11000
  146.2682  140.4875  142.8825 LP  0  0  0  0  0  0  0  0  0  0  0  0  # atno 17320 bound_to 7965
  144.8278  140.6658  143.6310 LP  0  0  0  0  0  0  0  0  0  0  0  0  # atno 17321 bound_to 7965
  140.5569  144.0333  150.6152 LP  0  0  0  0  0  0  0  0  0  0  0  0  # atno 17342 bound_to 10162
  140.3406  143.3022  152.0592 LP  0  0  0  0  0  0  0  0  0  0  0  0  # atno 17343 bound_to 10162
  156.0768  130.3678  150.0660 LP  0  0  0  0  0  0  0  0  0  0  0  0  # atno 17370 bound_to 10713
  156.8812  130.9557  151.3599 LP  0  0  0  0  0  0  0  0  0  0  0  0  # atno 17371 bound_to 10713
  140.2733  134.8375  157.3867 LP  0  0  0  0  0  0  0  0  0  0  0  0  # atno 17394 bound_to 11000
  140.1501  134.4860  155.7967 LP  0  0  0  0  0  0  0  0  0  0  0  0  # atno 17395 bound_to 11000

$$$$
