AV-unprocessed.smi:153|AV-procd|sdf|1265|dock2
  -GOLD-   2262018513D 1   1.00000     0.00000
 Structure written by MMmdl.
 59 62  0  0  0  0  0  0  0  0  1 V2000
  151.5543  144.6737  158.9551 C   0  0  0  0  0  0  0  0  0  0  0  0
  152.7332  143.9725  159.6493 C   0  0  1  0  0  0  0  0  0  0  0  0
  152.5096  144.1762  161.0462 O   0  0  0  0  0  0  0  0  0  0  0  0
  152.6495  142.9590  161.7614 C   0  0  0  0  0  0  0  0  0  0  0  0
  152.2472  141.8970  160.7487 C   0  0  0  0  0  0  0  0  0  0  0  0
  152.8407  142.4338  159.4542 C   0  0  2  0  0  0  0  0  0  0  0  0
  154.2161  142.0898  159.4494 O   0  0  0  0  0  0  0  0  0  0  0  0
  152.1867  141.7999  158.1950 C   0  0  0  0  0  0  0  0  0  0  0  0
  151.1644  140.7893  158.4500 N   0  0  0  0  0  0  0  0  0  0  0  0
  149.7951  140.9405  158.4193 C   0  0  0  0  0  0  0  0  0  0  0  0
  149.1092  139.8600  158.6688 N   0  0  0  0  0  0  0  0  0  0  0  0
  150.0696  138.8749  158.8653 C   0  0  0  0  0  0  0  0  0  0  0  0
  150.0264  137.4806  159.1693 C   0  0  0  0  0  0  0  0  0  0  0  0
  148.8780  136.7818  159.3922 N   0  0  0  0  0  0  0  0  0  0  0  0
  147.9057  136.6885  158.3053 C   0  0  0  0  0  0  0  0  0  0  0  0
  148.9223  135.6744  160.3477 C   0  0  0  0  0  0  0  0  0  0  0  0
  147.8094  135.7421  161.4186 C   0  0  1  0  0  0  0  0  0  0  0  0
  147.9740  136.8739  162.2501 O   0  0  0  0  0  0  0  0  0  0  0  0
  146.3827  135.7640  160.8247 C   0  0  0  0  0  0  0  0  0  0  0  0
  145.2932  135.3244  161.7024 N   0  0  0  0  0  0  0  0  0  0  0  0
  145.0341  136.2504  162.8033 C   0  0  0  0  0  0  0  0  0  0  0  0
  143.9072  135.7492  163.7232 C   0  0  0  0  0  0  0  0  0  0  0  0
  144.2292  134.4528  164.2154 O   0  0  0  0  0  0  0  0  0  0  0  0
  144.4416  133.5086  163.1717 C   0  0  0  0  0  0  0  0  0  0  0  0
  145.5733  134.0030  162.2547 C   0  0  0  0  0  0  0  0  0  0  0  0
  151.2191  136.8297  159.2432 N   0  0  0  0  0  0  0  0  0  0  0  0
  152.3674  137.4849  159.0577 C   0  0  0  0  0  0  0  0  0  0  0  0
  152.5547  138.7770  158.7904 N   0  0  0  0  0  0  0  0  0  0  0  0
  151.3670  139.4413  158.7015 C   0  0  0  0  0  0  0  0  0  0  0  0
  151.6968  144.7371  157.8787 H   0  0  0  0  0  0  0  0  0  0  0  0
  151.4539  145.6980  159.3144 H   0  0  0  0  0  0  0  0  0  0  0  0
  150.6115  144.1621  159.1501 H   0  0  0  0  0  0  0  0  0  0  0  0
  153.6592  144.4710  159.3577 H   0  0  0  0  0  0  0  0  0  0  0  0
  153.6900  142.8357  162.0649 H   0  0  0  0  0  0  0  0  0  0  0  0
  152.0279  142.9461  162.6569 H   0  0  0  0  0  0  0  0  0  0  0  0
  152.5973  140.8983  161.0133 H   0  0  0  0  0  0  0  0  0  0  0  0
  151.1590  141.8616  160.6800 H   0  0  0  0  0  0  0  0  0  0  0  0
  154.4978  141.9676  160.3430 H   0  0  0  0  0  0  0  0  0  0  0  0
  151.7373  142.5778  157.5766 H   0  0  0  0  0  0  0  0  0  0  0  0
  152.9633  141.3486  157.5770 H   0  0  0  0  0  0  0  0  0  0  0  0
  149.3044  141.8775  158.2046 H   0  0  0  0  0  0  0  0  0  0  0  0
  147.6778  137.6758  157.9019 H   0  0  0  0  0  0  0  0  0  0  0  0
  146.9704  136.2554  158.6601 H   0  0  0  0  0  0  0  0  0  0  0  0
  148.2837  136.0612  157.4973 H   0  0  0  0  0  0  0  0  0  0  0  0
  148.9413  134.7048  159.8552 H   0  0  0  0  0  0  0  0  0  0  0  0
  149.8866  135.7427  160.8524 H   0  0  0  0  0  0  0  0  0  0  0  0
  147.8739  134.8674  162.0668 H   0  0  0  0  0  0  0  0  0  0  0  0
  147.4058  136.7784  162.9990 H   0  0  0  0  0  0  0  0  0  0  0  0
  146.1861  136.8010  160.5487 H   0  0  0  0  0  0  0  0  0  0  0  0
  146.3586  135.2089  159.8855 H   0  0  0  0  0  0  0  0  0  0  0  0
  145.9434  136.3938  163.3890 H   0  0  0  0  0  0  0  0  0  0  0  0
  144.7505  137.2286  162.4177 H   0  0  0  0  0  0  0  0  0  0  0  0
  143.7752  136.4276  164.5662 H   0  0  0  0  0  0  0  0  0  0  0  0
  142.9578  135.7166  163.1861 H   0  0  0  0  0  0  0  0  0  0  0  0
  144.7019  132.5450  163.6094 H   0  0  0  0  0  0  0  0  0  0  0  0
  143.5195  133.3661  162.6057 H   0  0  0  0  0  0  0  0  0  0  0  0
  145.7168  133.2859  161.4457 H   0  0  0  0  0  0  0  0  0  0  0  0
  146.5075  134.0278  162.8180 H   0  0  0  0  0  0  0  0  0  0  0  0
  153.2643  136.8891  159.1407 H   0  0  0  0  0  0  0  0  0  0  0  0
  1  2  1  0  0  0  0
  1 30  1  0  0  0  0
  1 31  1  0  0  0  0
  1 32  1  0  0  0  0
  2  6  1  0  0  0  0
  2  3  1  0  0  0  0
  2 33  1  0  0  0  0
  3  4  1  0  0  0  0
  4  5  1  0  0  0  0
  4 34  1  0  0  0  0
  4 35  1  0  0  0  0
  5  6  1  0  0  0  0
  5 36  1  0  0  0  0
  5 37  1  0  0  0  0
  6  7  1  0  0  0  0
  6  8  1  0  0  0  0
  7 38  1  0  0  0  0
  8  9  1  0  0  0  0
  8 39  1  0  0  0  0
  8 40  1  0  0  0  0
  9 29  1  0  0  0  0
  9 10  1  0  0  0  0
 10 11  2  0  0  0  0
 10 41  1  0  0  0  0
 11 12  1  0  0  0  0
 12 29  2  0  0  0  0
 12 13  1  0  0  0  0
 13 14  1  0  0  0  0
 13 26  2  0  0  0  0
 14 15  1  0  0  0  0
 14 16  1  0  0  0  0
 15 42  1  0  0  0  0
 15 43  1  0  0  0  0
 15 44  1  0  0  0  0
 16 17  1  0  0  0  0
 16 45  1  0  0  0  0
 16 46  1  0  0  0  0
 17 18  1  0  0  0  0
 17 19  1  0  0  0  0
 17 47  1  0  0  0  0
 18 48  1  0  0  0  0
 19 20  1  0  0  0  0
 19 49  1  0  0  0  0
 19 50  1  0  0  0  0
 20 25  1  0  0  0  0
 20 21  1  0  0  0  0
 21 22  1  0  0  0  0
 21 51  1  0  0  0  0
 21 52  1  0  0  0  0
 22 23  1  0  0  0  0
 22 53  1  0  0  0  0
 22 54  1  0  0  0  0
 23 24  1  0  0  0  0
 24 25  1  0  0  0  0
 24 55  1  0  0  0  0
 24 56  1  0  0  0  0
 25 57  1  0  0  0  0
 25 58  1  0  0  0  0
 26 27  1  0  0  0  0
 27 28  2  0  0  0  0
 27 59  1  0  0  0  0
 28 29  1  0  0  0  0
M  END
> <s_m_source_file>
AV-unprocessed.smi

> <i_m_source_file_index>
153

> <i_lp_mmshare_version>
43012

> <i_f3d_flags>
0

> <s_epik_input>
W0NIMl0xW0NIMl1PW0NAQEhdKFtDSDNdKVtDQEBdMShbT0hdKVtDSDJdbihbY0hdbjIpYyhjMjMpbltjSF1uYzNOKFtDSDNdKVtDSDJdW0NASF0oW09IXSlbQ0gyXU40W0NIMl1bQ0gyXU9bQ0gyXVtDSDJdNA==

> <s_epik_cmdline>
J2VwaWtfcHl0aG9uJywgJy1waCcsICc3LjAnLCAnLXRuJywgJzgnLCAnLW1hJywgJzIwMCcsICctbWV0YWxfYmluZGluZycsICctaW1hZScsICc8aW5maWxlLm1hZT4nLCAnLW9tYWUnLCAnPG91dGZpbGUubWFlPic=

> <r_lp_tautomer_probability>
1

> <r_epik_Ionization_Penalty>
0.424123

> <r_epik_Ionization_Penalty_Charging>
0

> <r_epik_Ionization_Penalty_Neutral>
0.424123

> <r_epik_State_Penalty>
0.421495

> <r_epik_Charging_Adjusted_Penalty>
0.421495

> <i_epik_Tot_Q>
0

> <i_epik_Tot_abs_Q>
0

> <r_epik_Metal_State_Penalty>
0.421223

> <b_epik_Metal_Only>
0

> <s_lp_Force_Field>
OPLS_2005

> <r_lp_Energy>
59.9447

> <b_lp_Chiralities_Consistent>
1

> <s_lp_Variant>
AV-unprocessed.smi:153-16

> <Gold.Version>
5.8.1

> <Gold.Id.Protein>
6NUR|6NUR_protein|mol2

> <Gold.PLP.Fitness>
47.4303

> <Gold.PLP.PLP>
-43.9001

> <Gold.PLP.part.hbond>
-3.5410

> <Gold.PLP.part.metal>
0.0000

> <Gold.PLP.part.buried>
-5.1269

> <Gold.PLP.part.nonpolar>
-35.3237

> <Gold.PLP.part.repulsive>
0.2423

> <Gold.PLP.ligand.clash>
0.0000

> <Gold.PLP.ligand.torsion>
2.6460

> <Gold.PLP.Chemscore.Hbond>
2.7120

> <Gold.PLP.Chemscore.CHOScore>
0.0000

> <Gold.PLP.Chemscore.Metal>
0.0000

> <Gold.Chemscore.Hbonds>
donor molecule, donor type, donor heavy atom, donor atom, acceptor molecule, acceptor atom, score
      P1  H  6896  6907       L1    26  0.93
      P1  H  6931  6943       L1    18  1.00

> <Gold.PLP.Chemscore.Internal.Correction>
0.6861

> <Gold.Rescore>
     Score         DG    S(hbond)    S(metal)    S(lipo)     H(rot)  DE(clash)    DE(int)     intcor
     14.58     -17.20       2.35        0.00     110.10       3.52       0.04       2.58       ----

> <Gold.Chemscore.Fitness>
14.5848

> <Gold.Chemscore.DG>
-17.1980

> <Gold.Chemscore.ZeroCoef>
-5.4800

> <Gold.Chemscore.Hbond>
2.3473

> <Gold.Chemscore.Metal>
0.0000

> <Gold.Chemscore.Lipo>
110.0991

> <Gold.Chemscore.Internal_Hbond>
0.0000

> <Gold.Chemscore.DEClash>
0.0353

> <Gold.Chemscore.DEInternal>
2.5780

> <Gold.Chemscore.Rot>
3.5170

> <Gold.Chemscore.Internal.Correction>
   9.000000E+99

> <Gold.Chemscore.Hbonds>
donor molecule, donor type, donor heavy atom, donor atom, acceptor molecule, acceptor atom, score
      P1  H  6896  6907       L1    26  0.79
      P1  H  6931  6943       L1    18  0.99

> <Gold.Chemscore.Hbond.Weighted>
-7.8400

> <Gold.Chemscore.Metal.Weighted>
-0.0000

> <Gold.Chemscore.Lipo.Weighted>
-12.8816

> <Gold.Chemscore.Internal_Hbond.Weighted>
0.0000

> <Gold.Chemscore.DEClash.Weighted>
0.0353

> <Gold.Chemscore.DEInternal.Weighted>
2.5780

> <Gold.Chemscore.Rot.Weighted>
9.0036

> <Gold.Chemscore.Internal.Correction.Weighted>
   9.000000E+99

> <Gold.Protein.RotatedTorsions>
[ 6907 6896 6895 6894 ] final  -33.48 input  -60.11 | X-H torsion
[ 7974 7965 7964 7962 ] final  -82.54 input  175.53 | X-H torsion
[ 8008 7997 7996 7995 ] final -106.76 input   59.86 | X-H torsion
[ 10167 10162 10161 10158 ] final  -85.08 input  -65.29 | X-H torsion
[ 10718 10713 10712 10709 ] final  -96.99 input   66.30 | X-H torsion
[ 10763 10752 10751 10750 ] final -137.05 input  -60.55 | X-H torsion
[ 11005 11000 10999 10996 ] final   -4.85 input  -57.11 | X-H torsion

> <Gold.Protein.ActiveResidues>
 VAL166  LYS551  ARG553  GLY616  TRP617  ASP618  TYR619  PRO620  LYS621  CYS622 
 ASP623  PHE694  ASN695  SER759  ASP760  ASP761  ALA762  ILE779  LEU786  VAL792 
 PHE793  MET794  SER795  GLU796  ALA797  LYS798  CYS799  TRP800  GLU811  SER814 

> <Gold.Protein.RotatedAtoms>
  151.0650  134.9761  159.8279 H   0  0  0  0  0  0  0  0  0  0  0  0  # atno 6907 bound_to 6896
  152.5401  134.2370  159.8857 H   0  0  0  0  0  0  0  0  0  0  0  0  # atno 6908 bound_to 6896
  151.2392  133.4365  159.2640 H   0  0  0  0  0  0  0  0  0  0  0  0  # atno 6909 bound_to 6896
  145.5320  140.9520  143.1598 H   0  0  0  0  0  0  0  0  0  0  0  0  # atno 7974 bound_to 7965
  154.9193  140.0408  157.1989 H   0  0  0  0  0  0  0  0  0  0  0  0  # atno 8008 bound_to 7997
  154.8270  140.2893  155.5726 H   0  0  0  0  0  0  0  0  0  0  0  0  # atno 8009 bound_to 7997
  156.2984  140.2508  156.3188 H   0  0  0  0  0  0  0  0  0  0  0  0  # atno 8010 bound_to 7997
  140.4071  143.2638  151.9066 H   0  0  0  0  0  0  0  0  0  0  0  0  # atno 10167 bound_to 10162
  156.0074  130.5175  150.6307 H   0  0  0  0  0  0  0  0  0  0  0  0  # atno 10718 bound_to 10713
  154.8670  135.3654  154.5161 H   0  0  0  0  0  0  0  0  0  0  0  0  # atno 10763 bound_to 10752
  153.5793  135.7018  153.5475 H   0  0  0  0  0  0  0  0  0  0  0  0  # atno 10764 bound_to 10752
  153.3471  135.4082  155.1580 H   0  0  0  0  0  0  0  0  0  0  0  0  # atno 10765 bound_to 10752
  140.6848  133.9122  155.8578 H   0  0  0  0  0  0  0  0  0  0  0  0  # atno 11005 bound_to 11000
  144.7621  139.6932  143.7230 LP  0  0  0  0  0  0  0  0  0  0  0  0  # atno 17320 bound_to 7965
  146.2038  139.5349  142.9726 LP  0  0  0  0  0  0  0  0  0  0  0  0  # atno 17321 bound_to 7965
  139.4783  144.5574  151.8292 LP  0  0  0  0  0  0  0  0  0  0  0  0  # atno 17342 bound_to 10162
  140.4677  144.1631  150.5914 LP  0  0  0  0  0  0  0  0  0  0  0  0  # atno 17343 bound_to 10162
  157.4106  131.0823  151.1224 LP  0  0  0  0  0  0  0  0  0  0  0  0  # atno 17370 bound_to 10713
  157.1857  130.6329  149.5687 LP  0  0  0  0  0  0  0  0  0  0  0  0  # atno 17371 bound_to 10713
  141.0289  134.0784  157.4037 LP  0  0  0  0  0  0  0  0  0  0  0  0  # atno 17394 bound_to 11000
  139.8941  135.0134  156.6933 LP  0  0  0  0  0  0  0  0  0  0  0  0  # atno 17395 bound_to 11000

$$$$
