AV-unprocessed.smi:3095|AV-procd|sdf|11793|dock1
  -GOLD-   2272017173D 1   1.00000     0.00000
 Structure written by MMmdl.
 25 26  0  0  0  0  0  0  0  0  2 V2000
  151.5040  143.3859  157.9223 C   0  0  0  0  0  0  0  0  0  0  0  0
  151.2721  142.0778  157.2333 C   0  0  0  0  0  0  0  0  0  0  0  0
  151.8074  140.8608  157.5729 C   0  0  0  0  0  0  0  0  0  0  0  0
  151.2714  139.5945  156.5036 S   0  0  0  0  0  0  0  0  0  0  0  0
  150.3370  140.7865  155.6069 C   0  0  0  0  0  0  0  0  0  0  0  0
  149.4814  140.4287  154.4336 C   0  0  1  0  0  0  0  0  0  0  0  0
  149.5262  138.9239  154.1079 C   0  0  0  0  0  0  0  0  0  0  0  0
  148.6031  138.6227  152.9963 N   0  3  0  0  0  0  0  0  0  0  0  0
  147.2341  139.0939  153.2857 C   0  0  0  0  0  0  0  0  0  0  0  0
  147.2531  140.5885  153.6528 C   0  0  0  0  0  0  0  0  0  0  0  0
  148.1418  140.8064  154.7438 O   0  0  0  0  0  0  0  0  0  0  0  0
  150.4290  142.0179  156.1199 N   0  0  0  0  0  0  0  0  0  0  0  0
  152.1540  143.2700  158.7900 H   0  0  0  0  0  0  0  0  0  0  0  0
  150.5667  143.8208  158.2696 H   0  0  0  0  0  0  0  0  0  0  0  0
  151.9753  144.1055  157.2528 H   0  0  0  0  0  0  0  0  0  0  0  0
  152.4806  140.6329  158.3865 H   0  0  0  0  0  0  0  0  0  0  0  0
  149.8279  141.0079  153.5757 H   0  0  0  0  0  0  0  0  0  0  0  0
  150.5354  138.6184  153.8305 H   0  0  0  0  0  0  0  0  0  0  0  0
  149.2387  138.3349  154.9803 H   0  0  0  0  0  0  0  0  0  0  0  0
  148.9361  139.0894  152.1647 H   0  0  0  0  0  0  0  0  0  0  0  0
  146.6001  138.9199  152.4160 H   0  0  0  0  0  0  0  0  0  0  0  0
  146.8202  138.5094  154.1086 H   0  0  0  0  0  0  0  0  0  0  0  0
  147.5555  141.1956  152.7979 H   0  0  0  0  0  0  0  0  0  0  0  0
  146.2542  140.9177  153.9393 H   0  0  0  0  0  0  0  0  0  0  0  0
  148.5884  137.6262  152.8310 H   0  0  0  0  0  0  0  0  0  0  0  0
  1  2  1  0  0  0  0
  1 13  1  0  0  0  0
  1 14  1  0  0  0  0
  1 15  1  0  0  0  0
  2 12  1  0  0  0  0
  2  3  2  0  0  0  0
  3  4  1  0  0  0  0
  3 16  1  0  0  0  0
  4  5  1  0  0  0  0
  5  6  1  0  0  0  0
  5 12  2  0  0  0  0
  6 11  1  0  0  0  0
  6  7  1  0  0  0  0
  6 17  1  0  0  0  0
  7  8  1  0  0  0  0
  7 18  1  0  0  0  0
  7 19  1  0  0  0  0
  8  9  1  0  0  0  0
  8 20  1  0  0  0  0
  8 25  1  0  0  0  0
  9 10  1  0  0  0  0
  9 21  1  0  0  0  0
  9 22  1  0  0  0  0
 10 11  1  0  0  0  0
 10 23  1  0  0  0  0
 10 24  1  0  0  0  0
M  CHG  1   8   1
M  END
> <s_m_source_file>
AV-unprocessed.smi

> <i_m_source_file_index>
3095

> <i_lp_mmshare_version>
43012

> <i_f3d_flags>
0

> <s_epik_input>
W0NIM11jMVtjSF1zYyhuMSlbQ0BASF0yW0NIMl1bTkhdW0NIMl1bQ0gyXU8y

> <s_epik_cmdline>
J2VwaWtfcHl0aG9uJywgJy1waCcsICc3LjAnLCAnLXRuJywgJzgnLCAnLW1hJywgJzIwMCcsICctbWV0YWxfYmluZGluZycsICctaW1hZScsICc8aW5maWxlLm1hZT4nLCAnLW9tYWUnLCAnPG91dGZpbGUubWFlPic=

> <r_epik_Ionization_Penalty>
0.125709

> <r_epik_Ionization_Penalty_Charging>
0.125708

> <r_epik_Ionization_Penalty_Neutral>
7.00244e-07

> <r_epik_State_Penalty>
0.0155371

> <r_epik_Charging_Adjusted_Penalty>
0.141245

> <i_epik_Tot_Q>
1

> <i_epik_Tot_abs_Q>
1

> <r_epik_Metal_State_Penalty>
0.0155948

> <b_epik_Metal_Only>
0

> <s_lp_Force_Field>
OPLS_2005

> <r_lp_Energy>
6.74863

> <b_lp_Chiralities_Consistent>
1

> <s_lp_Variant>
AV-unprocessed.smi:3095-2

> <Gold.Version>
5.8.1

> <Gold.Id.Protein>
6NUR|6NUR_protein|mol2

> <Gold.PLP.Fitness>
32.2874

> <Gold.PLP.PLP>
-23.3709

> <Gold.PLP.part.hbond>
-1.9336

> <Gold.PLP.part.metal>
0.0000

> <Gold.PLP.part.buried>
-2.1364

> <Gold.PLP.part.nonpolar>
-19.0272

> <Gold.PLP.part.repulsive>
0.2898

> <Gold.PLP.ligand.clash>
0.0000

> <Gold.PLP.ligand.torsion>
0.0093

> <Gold.PLP.Chemscore.Hbond>
2.9750

> <Gold.PLP.Chemscore.CHOScore>
0.0000

> <Gold.PLP.Chemscore.Metal>
0.0000

> <Gold.Chemscore.Hbonds>
donor molecule, donor type, donor heavy atom, donor atom, acceptor molecule, acceptor atom, score
      L1  H     8    20       P1  7957  0.98
      L1  H     8    25       P1  7948  2.00

> <Gold.PLP.Chemscore.Internal.Correction>
0.0100

> <Gold.Rescore>
     Score         DG    S(hbond)    S(metal)    S(lipo)     H(rot)  DE(clash)    DE(int)     intcor
     17.07     -17.09       1.97        0.00      64.79       1.00       0.01       0.01       ----

> <Gold.Chemscore.Fitness>
17.0680

> <Gold.Chemscore.DG>
-17.0935

> <Gold.Chemscore.ZeroCoef>
-5.4800

> <Gold.Chemscore.Hbond>
1.9739

> <Gold.Chemscore.Metal>
0.0000

> <Gold.Chemscore.Lipo>
64.7908

> <Gold.Chemscore.Internal_Hbond>
0.0000

> <Gold.Chemscore.DEClash>
0.0136

> <Gold.Chemscore.DEInternal>
0.0119

> <Gold.Chemscore.Rot>
1.0000

> <Gold.Chemscore.Internal.Correction>
   9.000000E+99

> <Gold.Chemscore.Hbonds>
donor molecule, donor type, donor heavy atom, donor atom, acceptor molecule, acceptor atom, score
      L1  H     8    20       P1  7957  0.89
      L1  H     8    25       P1  7948  0.94

> <Gold.Chemscore.Hbond.Weighted>
-6.5930

> <Gold.Chemscore.Metal.Weighted>
-0.0000

> <Gold.Chemscore.Lipo.Weighted>
-7.5805

> <Gold.Chemscore.Internal_Hbond.Weighted>
0.0000

> <Gold.Chemscore.DEClash.Weighted>
0.0136

> <Gold.Chemscore.DEInternal.Weighted>
0.0119

> <Gold.Chemscore.Rot.Weighted>
2.5600

> <Gold.Chemscore.Internal.Correction.Weighted>
   9.000000E+99

> <Gold.Protein.RotatedTorsions>
[ 6907 6896 6895 6894 ] final  -39.62 input  -60.11 | X-H torsion
[ 7974 7965 7964 7962 ] final  -10.48 input  175.53 | X-H torsion
[ 8008 7997 7996 7995 ] final   52.91 input   59.86 | X-H torsion
[ 10167 10162 10161 10158 ] final   30.14 input  -65.29 | X-H torsion
[ 10718 10713 10712 10709 ] final  -57.88 input   66.30 | X-H torsion
[ 10763 10752 10751 10750 ] final  -96.17 input  -60.55 | X-H torsion
[ 11005 11000 10999 10996 ] final  161.28 input  -57.11 | X-H torsion

> <Gold.Protein.ActiveResidues>
 VAL166  LYS551  ARG553  GLY616  TRP617  ASP618  TYR619  PRO620  LYS621  CYS622 
 ASP623  PHE694  ASN695  SER759  ASP760  ASP761  ALA762  ILE779  LEU786  VAL792 
 PHE793  MET794  SER795  GLU796  ALA797  LYS798  CYS799  TRP800  GLU811  SER814 

> <Gold.Protein.RotatedAtoms>
  150.9881  134.9222  159.7883 H   0  0  0  0  0  0  0  0  0  0  0  0  # atno 6907 bound_to 6896
  152.5243  134.3318  159.9195 H   0  0  0  0  0  0  0  0  0  0  0  0  # atno 6908 bound_to 6896
  151.3324  133.3954  159.2698 H   0  0  0  0  0  0  0  0  0  0  0  0  # atno 6909 bound_to 6896
  146.2219  140.2770  142.8360 H   0  0  0  0  0  0  0  0  0  0  0  0  # atno 7974 bound_to 7965
  155.4595  140.3461  155.4311 H   0  0  0  0  0  0  0  0  0  0  0  0  # atno 8008 bound_to 7997
  156.1169  140.1476  156.9289 H   0  0  0  0  0  0  0  0  0  0  0  0  # atno 8009 bound_to 7997
  154.4796  140.0874  156.7323 H   0  0  0  0  0  0  0  0  0  0  0  0  # atno 8010 bound_to 7997
  140.4704  144.0771  150.6236 H   0  0  0  0  0  0  0  0  0  0  0  0  # atno 10167 bound_to 10162
  156.1177  130.4169  150.0501 H   0  0  0  0  0  0  0  0  0  0  0  0  # atno 10718 bound_to 10713
  154.7215  135.5093  153.8819 H   0  0  0  0  0  0  0  0  0  0  0  0  # atno 10763 bound_to 10752
  153.0866  135.6647  153.9945 H   0  0  0  0  0  0  0  0  0  0  0  0  # atno 10764 bound_to 10752
  153.9766  135.3033  155.3403 H   0  0  0  0  0  0  0  0  0  0  0  0  # atno 10765 bound_to 10752
  140.2142  134.8244  157.3153 H   0  0  0  0  0  0  0  0  0  0  0  0  # atno 11005 bound_to 11000
  144.9226  140.7885  143.5739 LP  0  0  0  0  0  0  0  0  0  0  0  0  # atno 17320 bound_to 7965
  145.2707  139.1955  143.4843 LP  0  0  0  0  0  0  0  0  0  0  0  0  # atno 17321 bound_to 7965
  140.3984  143.2716  151.9977 LP  0  0  0  0  0  0  0  0  0  0  0  0  # atno 17342 bound_to 10162
  139.4818  144.6019  151.7591 LP  0  0  0  0  0  0  0  0  0  0  0  0  # atno 17343 bound_to 10162
  156.8448  130.9438  151.3629 LP  0  0  0  0  0  0  0  0  0  0  0  0  # atno 17370 bound_to 10713
  157.6360  130.8767  149.9360 LP  0  0  0  0  0  0  0  0  0  0  0  0  # atno 17371 bound_to 10713
  140.1918  134.4362  155.7711 LP  0  0  0  0  0  0  0  0  0  0  0  0  # atno 17394 bound_to 11000
  141.2225  133.7030  156.8039 LP  0  0  0  0  0  0  0  0  0  0  0  0  # atno 17395 bound_to 11000

$$$$
