AV-unprocessed.smi:3034|AV-procd|sdf|11577|dock5
  -GOLD-   2272016543D 1   1.00000     0.00000
 Structure written by MMmdl.
 32 32  0  0  0  0  0  0  0  0  1 V2000
  150.2446  135.5261  155.2521 C   0  0  0  0  0  0  0  0  0  0  0  0
  150.7815  136.9262  154.9374 C   0  0  0  0  0  0  0  0  0  0  0  0
  150.5063  137.9303  156.0641 C   0  0  0  0  0  0  0  0  0  0  0  0
  151.2393  139.5727  155.6717 S   0  0  0  0  0  0  0  0  0  0  0  0
  152.7053  139.4551  155.6729 O   0  0  0  0  0  0  0  0  0  0  0  0
  150.5493  140.1250  154.4958 O   0  0  0  0  0  0  0  0  0  0  0  0
  150.7931  140.5219  157.0374 N   0  0  0  0  0  0  0  0  0  0  0  0
  151.2764  140.0912  158.3496 C   0  0  0  0  0  0  0  0  0  0  0  0
  152.5318  140.8807  158.7601 C   0  0  2  0  0  0  0  0  0  0  0  0
  153.0616  140.3075  159.9409 O   0  0  0  0  0  0  0  0  0  0  0  0
  152.2095  142.3572  158.9480 C   0  0  0  0  0  0  0  0  0  0  0  0
  152.4713  142.9914  160.1820 C   0  0  0  0  0  0  0  0  0  0  0  0
  152.1771  144.3624  160.3110 C   0  0  0  0  0  0  0  0  0  0  0  0
  151.6352  145.0469  159.2066 C   0  0  0  0  0  0  0  0  0  0  0  0
  151.4108  144.3266  158.0169 C   0  0  0  0  0  0  0  0  0  0  0  0
  151.6902  143.0124  157.8829 N   0  0  0  0  0  0  0  0  0  0  0  0
  150.4392  134.8418  154.4259 H   0  0  0  0  0  0  0  0  0  0  0  0
  149.1677  135.5453  155.4217 H   0  0  0  0  0  0  0  0  0  0  0  0
  150.7185  135.1143  156.1436 H   0  0  0  0  0  0  0  0  0  0  0  0
  151.8551  136.8667  154.7559 H   0  0  0  0  0  0  0  0  0  0  0  0
  150.3313  137.2861  154.0116 H   0  0  0  0  0  0  0  0  0  0  0  0
  149.4339  138.0627  156.2092 H   0  0  0  0  0  0  0  0  0  0  0  0
  150.9307  137.5853  157.0072 H   0  0  0  0  0  0  0  0  0  0  0  0
  149.7859  140.6787  157.0556 H   0  0  0  0  0  0  0  0  0  0  0  0
  150.4810  140.2751  159.0733 H   0  0  0  0  0  0  0  0  0  0  0  0
  151.4628  139.0164  158.3465 H   0  0  0  0  0  0  0  0  0  0  0  0
  153.2899  140.7924  157.9804 H   0  0  0  0  0  0  0  0  0  0  0  0
  152.4994  139.5956  160.2052 H   0  0  0  0  0  0  0  0  0  0  0  0
  152.8926  142.4430  161.0117 H   0  0  0  0  0  0  0  0  0  0  0  0
  152.3659  144.8801  161.2397 H   0  0  0  0  0  0  0  0  0  0  0  0
  151.3985  146.0988  159.2691 H   0  0  0  0  0  0  0  0  0  0  0  0
  150.9973  144.8196  157.1494 H   0  0  0  0  0  0  0  0  0  0  0  0
  1  2  1  0  0  0  0
  1 17  1  0  0  0  0
  1 18  1  0  0  0  0
  1 19  1  0  0  0  0
  2  3  1  0  0  0  0
  2 20  1  0  0  0  0
  2 21  1  0  0  0  0
  3  4  1  0  0  0  0
  3 22  1  0  0  0  0
  3 23  1  0  0  0  0
  4  5  2  0  0  0  0
  4  6  2  0  0  0  0
  4  7  1  0  0  0  0
  7  8  1  0  0  0  0
  7 24  1  0  0  0  0
  8  9  1  0  0  0  0
  8 25  1  0  0  0  0
  8 26  1  0  0  0  0
  9 10  1  0  0  0  0
  9 11  1  0  0  0  0
  9 27  1  0  0  0  0
 10 28  1  0  0  0  0
 11 16  1  0  0  0  0
 11 12  2  0  0  0  0
 12 13  1  0  0  0  0
 12 29  1  0  0  0  0
 13 14  2  0  0  0  0
 13 30  1  0  0  0  0
 14 15  1  0  0  0  0
 14 31  1  0  0  0  0
 15 16  2  0  0  0  0
 15 32  1  0  0  0  0
M  END
> <s_m_source_file>
AV-unprocessed.smi

> <i_m_source_file_index>
3034

> <i_lp_mmshare_version>
43012

> <i_f3d_flags>
0

> <s_epik_input>
W0NIM11bQ0gyXVtDSDJdUyg9TykoPU8pW05IXVtDSDJdW0NASF0oW09IXSljMVtjSF1bY0hdW2NIXVtjSF1uMQ==

> <s_epik_cmdline>
J2VwaWtfcHl0aG9uJywgJy1waCcsICc3LjAnLCAnLXRuJywgJzgnLCAnLW1hJywgJzIwMCcsICctbWV0YWxfYmluZGluZycsICctaW1hZScsICc8aW5maWxlLm1hZT4nLCAnLW9tYWUnLCAnPG91dGZpbGUubWFlPic=

> <r_epik_Ionization_Penalty>
0.00187371

> <r_epik_Ionization_Penalty_Charging>
0

> <r_epik_Ionization_Penalty_Neutral>
0.00187371

> <r_epik_State_Penalty>
0.0012608

> <r_epik_Charging_Adjusted_Penalty>
0.0012608

> <i_epik_Tot_Q>
0

> <i_epik_Tot_abs_Q>
0

> <r_epik_Metal_State_Penalty>
0.0168387

> <b_epik_Metal_Only>
0

> <s_lp_Force_Field>
OPLS_2005

> <r_lp_Energy>
4.86563

> <b_lp_Chiralities_Consistent>
1

> <s_lp_Variant>
AV-unprocessed.smi:3034-1

> <Gold.Version>
5.8.1

> <Gold.Id.Protein>
6NUR|6NUR_protein|mol2

> <Gold.PLP.Fitness>
42.3741

> <Gold.PLP.PLP>
-33.9362

> <Gold.PLP.part.hbond>
-1.8914

> <Gold.PLP.part.metal>
0.0000

> <Gold.PLP.part.buried>
-5.4722

> <Gold.PLP.part.nonpolar>
-27.1213

> <Gold.PLP.part.repulsive>
0.1673

> <Gold.PLP.ligand.clash>
0.0000

> <Gold.PLP.ligand.torsion>
0.3596

> <Gold.PLP.Chemscore.Hbond>
1.9913

> <Gold.PLP.Chemscore.CHOScore>
1.0000

> <Gold.PLP.Chemscore.Metal>
0.0000

> <Gold.Chemscore.Hbonds>
donor molecule, donor type, donor heavy atom, donor atom, acceptor molecule, acceptor atom, score
      P1  H  7989  7998       L1     6  1.00
      P1  H  7997  8008       L1     5  1.00
      L1  C    15    32       P1  8028  0.97

> <Gold.PLP.Chemscore.Internal.Correction>
0.1835

> <Gold.Rescore>
     Score         DG    S(hbond)    S(metal)    S(lipo)     H(rot)  DE(clash)    DE(int)     intcor
     13.74     -15.46       1.97        0.00      86.49       2.63       0.00       1.73       ----

> <Gold.Chemscore.Fitness>
13.7353

> <Gold.Chemscore.DG>
-15.4642

> <Gold.Chemscore.ZeroCoef>
-5.4800

> <Gold.Chemscore.Hbond>
1.9734

> <Gold.Chemscore.Metal>
0.0000

> <Gold.Chemscore.Lipo>
86.4912

> <Gold.Chemscore.Internal_Hbond>
0.0000

> <Gold.Chemscore.DEClash>
0.0000

> <Gold.Chemscore.DEInternal>
1.7290

> <Gold.Chemscore.Rot>
2.6275

> <Gold.Chemscore.Internal.Correction>
   9.000000E+99

> <Gold.Chemscore.Hbonds>
donor molecule, donor type, donor heavy atom, donor atom, acceptor molecule, acceptor atom, score
      P1  H  7989  7998       L1     6  0.78
      P1  H  7997  8008       L1     5  1.00

> <Gold.Chemscore.Hbond.Weighted>
-6.5913

> <Gold.Chemscore.Metal.Weighted>
-0.0000

> <Gold.Chemscore.Lipo.Weighted>
-10.1195

> <Gold.Chemscore.Internal_Hbond.Weighted>
0.0000

> <Gold.Chemscore.DEClash.Weighted>
0.0000

> <Gold.Chemscore.DEInternal.Weighted>
1.7290

> <Gold.Chemscore.Rot.Weighted>
6.7265

> <Gold.Chemscore.Internal.Correction.Weighted>
   9.000000E+99

> <Gold.Protein.RotatedTorsions>
[ 6907 6896 6895 6894 ] final  -47.66 input  -60.11 | X-H torsion
[ 7974 7965 7964 7962 ] final    5.19 input  175.53 | X-H torsion
[ 8008 7997 7996 7995 ] final  -34.12 input   59.86 | X-H torsion
[ 10167 10162 10161 10158 ] final  136.67 input  -65.29 | X-H torsion
[ 10718 10713 10712 10709 ] final  169.45 input   66.30 | X-H torsion
[ 10763 10752 10751 10750 ] final -178.58 input  -60.55 | X-H torsion
[ 11005 11000 10999 10996 ] final -161.13 input  -57.11 | X-H torsion

> <Gold.Protein.ActiveResidues>
 VAL166  LYS551  ARG553  GLY616  TRP617  ASP618  TYR619  PRO620  LYS621  CYS622 
 ASP623  PHE694  ASN695  SER759  ASP760  ASP761  ALA762  ILE779  LEU786  VAL792 
 PHE793  MET794  SER795  GLU796  ALA797  LYS798  CYS799  TRP800  GLU811  SER814 

> <Gold.Protein.RotatedAtoms>
  150.8985  134.8395  159.7343 H   0  0  0  0  0  0  0  0  0  0  0  0  # atno 6907 bound_to 6896
  152.4879  134.4539  159.9593 H   0  0  0  0  0  0  0  0  0  0  0  0  # atno 6908 bound_to 6896
  151.4593  133.3558  159.2842 H   0  0  0  0  0  0  0  0  0  0  0  0  # atno 6909 bound_to 6896
  146.2441  140.0421  142.8381 H   0  0  0  0  0  0  0  0  0  0  0  0  # atno 7974 bound_to 7965
  154.4129  140.1692  156.1997 H   0  0  0  0  0  0  0  0  0  0  0  0  # atno 8008 bound_to 7997
  155.9534  140.3399  155.6404 H   0  0  0  0  0  0  0  0  0  0  0  0  # atno 8009 bound_to 7997
  155.6841  140.0726  157.2464 H   0  0  0  0  0  0  0  0  0  0  0  0  # atno 8010 bound_to 7997
  139.5171  144.6452  151.5460 H   0  0  0  0  0  0  0  0  0  0  0  0  # atno 10167 bound_to 10162
  157.0225  131.0236  151.2770 H   0  0  0  0  0  0  0  0  0  0  0  0  # atno 10718 bound_to 10713
  154.5460  135.2809  155.1053 H   0  0  0  0  0  0  0  0  0  0  0  0  # atno 10763 bound_to 10752
  154.2517  135.6338  153.5246 H   0  0  0  0  0  0  0  0  0  0  0  0  # atno 10764 bound_to 10752
  152.9990  135.5584  154.6012 H   0  0  0  0  0  0  0  0  0  0  0  0  # atno 10765 bound_to 10752
  140.6238  134.4722  157.5225 H   0  0  0  0  0  0  0  0  0  0  0  0  # atno 11005 bound_to 11000
  145.1060  140.9376  143.4684 LP  0  0  0  0  0  0  0  0  0  0  0  0  # atno 17320 bound_to 7965
  145.0624  139.3095  143.5873 LP  0  0  0  0  0  0  0  0  0  0  0  0  # atno 17321 bound_to 7965
  140.6234  143.9215  150.6544 LP  0  0  0  0  0  0  0  0  0  0  0  0  # atno 17342 bound_to 10162
  140.2496  143.3603  152.1417 LP  0  0  0  0  0  0  0  0  0  0  0  0  # atno 17343 bound_to 10162
  157.5239  130.8015  149.7840 LP  0  0  0  0  0  0  0  0  0  0  0  0  # atno 17370 bound_to 10713
  156.0097  130.3839  150.2306 LP  0  0  0  0  0  0  0  0  0  0  0  0  # atno 17371 bound_to 10713
  139.9143  134.8280  156.1421 LP  0  0  0  0  0  0  0  0  0  0  0  0  # atno 17394 bound_to 11000
  141.0723  133.6791  156.2166 LP  0  0  0  0  0  0  0  0  0  0  0  0  # atno 17395 bound_to 11000

$$$$
