AV-unprocessed.smi:614|AV-procd|sdf|3069|dock1
  -GOLD-   2262023593D 1   1.00000     0.00000
 Structure written by MMmdl.
 44 45  0  0  0  0  0  0  0  0  1 V2000
  141.8626  135.1483  153.0428 C   0  0  0  0  0  0  0  0  0  0  0  0
  143.2057  135.3541  152.5454 N   0  0  0  0  0  0  0  0  0  0  0  0
  143.7792  134.8673  151.3883 C   0  0  0  0  0  0  0  0  0  0  0  0
  145.0658  135.3246  151.3448 C   0  0  0  0  0  0  0  0  0  0  0  0
  145.1806  136.0923  152.5368 C   0  0  0  0  0  0  0  0  0  0  0  0
  146.3987  136.7415  152.8639 N   0  0  0  0  0  0  0  0  0  0  0  0
  146.5722  137.8081  153.6629 C   0  0  0  0  0  0  0  0  0  0  0  0
  145.6646  138.4261  154.2181 O   0  0  0  0  0  0  0  0  0  0  0  0
  147.8757  138.1173  153.7705 N   0  0  0  0  0  0  0  0  0  0  0  0
  148.5111  139.1893  154.5526 C   0  0  2  0  0  0  0  0  0  0  0  0
  147.9798  138.9729  155.9891 C   0  0  0  0  0  0  0  0  0  0  0  0
  147.9600  140.5680  154.0753 C   0  0  0  0  0  0  0  0  0  0  0  0
  148.6112  141.0922  152.9354 O   0  0  0  0  0  0  0  0  0  0  0  0
  150.0801  139.0880  154.5169 C   0  0  0  0  0  0  0  0  0  0  0  0
  150.6267  137.6363  154.5144 C   0  0  0  0  0  0  0  0  0  0  0  0
  152.1558  137.6051  154.3565 C   0  0  0  0  0  0  0  0  0  0  0  0
  152.8482  138.4301  155.4509 C   0  0  0  0  0  0  0  0  0  0  0  0
  152.3167  139.8704  155.4725 C   0  0  0  0  0  0  0  0  0  0  0  0
  150.7880  139.8973  155.6332 C   0  0  0  0  0  0  0  0  0  0  0  0
  144.0671  136.1113  153.2568 N   0  0  0  0  0  0  0  0  0  0  0  0
  141.2954  134.5312  152.3453 H   0  0  0  0  0  0  0  0  0  0  0  0
  141.3599  136.1091  153.1562 H   0  0  0  0  0  0  0  0  0  0  0  0
  141.9008  134.6464  154.0101 H   0  0  0  0  0  0  0  0  0  0  0  0
  143.2300  134.2416  150.7001 H   0  0  0  0  0  0  0  0  0  0  0  0
  145.8057  135.1377  150.5808 H   0  0  0  0  0  0  0  0  0  0  0  0
  147.2305  136.3417  152.4560 H   0  0  0  0  0  0  0  0  0  0  0  0
  148.5157  137.5332  153.2529 H   0  0  0  0  0  0  0  0  0  0  0  0
  148.3473  139.7271  156.6843 H   0  0  0  0  0  0  0  0  0  0  0  0
  148.2521  137.9959  156.3881 H   0  0  0  0  0  0  0  0  0  0  0  0
  146.8905  139.0303  156.0155 H   0  0  0  0  0  0  0  0  0  0  0  0
  146.8875  140.5163  153.8825 H   0  0  0  0  0  0  0  0  0  0  0  0
  148.0866  141.3134  154.8612 H   0  0  0  0  0  0  0  0  0  0  0  0
  148.6112  140.4332  152.2585 H   0  0  0  0  0  0  0  0  0  0  0  0
  150.4100  139.5256  153.5745 H   0  0  0  0  0  0  0  0  0  0  0  0
  150.3598  137.1289  155.4412 H   0  0  0  0  0  0  0  0  0  0  0  0
  150.1843  137.0548  153.7061 H   0  0  0  0  0  0  0  0  0  0  0  0
  152.5115  136.5750  154.3888 H   0  0  0  0  0  0  0  0  0  0  0  0
  152.4294  137.9956  153.3757 H   0  0  0  0  0  0  0  0  0  0  0  0
  152.6808  137.9636  156.4226 H   0  0  0  0  0  0  0  0  0  0  0  0
  153.9265  138.4330  155.2894 H   0  0  0  0  0  0  0  0  0  0  0  0
  152.7851  140.4261  156.2853 H   0  0  0  0  0  0  0  0  0  0  0  0
  152.5967  140.3788  154.5490 H   0  0  0  0  0  0  0  0  0  0  0  0
  150.4541  140.9345  155.6304 H   0  0  0  0  0  0  0  0  0  0  0  0
  150.5344  139.4948  156.6135 H   0  0  0  0  0  0  0  0  0  0  0  0
  1  2  1  0  0  0  0
  1 21  1  0  0  0  0
  1 22  1  0  0  0  0
  1 23  1  0  0  0  0
  2 20  1  0  0  0  0
  2  3  1  0  0  0  0
  3  4  2  0  0  0  0
  3 24  1  0  0  0  0
  4  5  1  0  0  0  0
  4 25  1  0  0  0  0
  5  6  1  0  0  0  0
  5 20  2  0  0  0  0
  6  7  1  0  0  0  0
  6 26  1  0  0  0  0
  7  8  2  0  0  0  0
  7  9  1  0  0  0  0
  9 10  1  0  0  0  0
  9 27  1  0  0  0  0
 10 11  1  0  0  0  0
 10 12  1  0  0  0  0
 10 14  1  0  0  0  0
 11 28  1  0  0  0  0
 11 29  1  0  0  0  0
 11 30  1  0  0  0  0
 12 13  1  0  0  0  0
 12 31  1  0  0  0  0
 12 32  1  0  0  0  0
 13 33  1  0  0  0  0
 14 19  1  0  0  0  0
 14 15  1  0  0  0  0
 14 34  1  0  0  0  0
 15 16  1  0  0  0  0
 15 35  1  0  0  0  0
 15 36  1  0  0  0  0
 16 17  1  0  0  0  0
 16 37  1  0  0  0  0
 16 38  1  0  0  0  0
 17 18  1  0  0  0  0
 17 39  1  0  0  0  0
 17 40  1  0  0  0  0
 18 19  1  0  0  0  0
 18 41  1  0  0  0  0
 18 42  1  0  0  0  0
 19 43  1  0  0  0  0
 19 44  1  0  0  0  0
M  END
> <s_m_source_file>
AV-unprocessed.smi

> <i_m_source_file_index>
614

> <i_lp_mmshare_version>
43012

> <i_f3d_flags>
0

> <s_epik_input>
W0NIM11uMVtjSF1bY0hdYyhuMSlbTkhdQyg9TylbTkhdW0NAQF0oW0NIM10pKFtDSDJdW09IXSlbQ0hdMltDSDJdW0NIMl1bQ0gyXVtDSDJdW0NIMl0y

> <s_epik_cmdline>
J2VwaWtfcHl0aG9uJywgJy1waCcsICc3LjAnLCAnLXRuJywgJzgnLCAnLW1hJywgJzIwMCcsICctbWV0YWxfYmluZGluZycsICctaW1hZScsICc8aW5maWxlLm1hZT4nLCAnLW9tYWUnLCAnPG91dGZpbGUubWFlPic=

> <r_lp_tautomer_probability>
1

> <r_epik_Ionization_Penalty>
3.66621e-05

> <r_epik_Ionization_Penalty_Charging>
0

> <r_epik_Ionization_Penalty_Neutral>
3.66621e-05

> <r_epik_State_Penalty>
-0

> <r_epik_Charging_Adjusted_Penalty>
0

> <i_epik_Tot_Q>
0

> <i_epik_Tot_abs_Q>
0

> <r_epik_Metal_State_Penalty>
-0

> <b_epik_Metal_Only>
0

> <s_lp_Force_Field>
OPLS_2005

> <r_lp_Energy>
19.716

> <b_lp_Chiralities_Consistent>
1

> <s_lp_Variant>
AV-unprocessed.smi:614-2

> <Gold.Version>
5.8.1

> <Gold.Id.Protein>
6NUR|6NUR_protein|mol2

> <Gold.PLP.Fitness>
42.7944

> <Gold.PLP.PLP>
-30.3684

> <Gold.PLP.part.hbond>
-3.6940

> <Gold.PLP.part.metal>
0.0000

> <Gold.PLP.part.buried>
0.2447

> <Gold.PLP.part.nonpolar>
-27.4456

> <Gold.PLP.part.repulsive>
0.1883

> <Gold.PLP.ligand.clash>
0.0000

> <Gold.PLP.ligand.torsion>
0.8838

> <Gold.PLP.Chemscore.Hbond>
3.6640

> <Gold.PLP.Chemscore.CHOScore>
1.0000

> <Gold.PLP.Chemscore.Metal>
0.0000

> <Gold.Chemscore.Hbonds>
donor molecule, donor type, donor heavy atom, donor atom, acceptor molecule, acceptor atom, score
      L1  H     6    26       P1  7948  1.00
      L1  H     9    27       P1  7948  1.00
      L1  H    13    33       P1  7957  0.67
      P1  H  8011  8017       L1    13  1.00
      L1  C     3    24       P1 10186  1.00

> <Gold.PLP.Chemscore.Internal.Correction>
0.2017

> <Gold.Rescore>
     Score         DG    S(hbond)    S(metal)    S(lipo)     H(rot)  DE(clash)    DE(int)     intcor
     15.15     -18.23       2.89        0.00      71.77       2.07       0.11       2.97       ----

> <Gold.Chemscore.Fitness>
15.1502

> <Gold.Chemscore.DG>
-18.2325

> <Gold.Chemscore.ZeroCoef>
-5.4800

> <Gold.Chemscore.Hbond>
2.8913

> <Gold.Chemscore.Metal>
0.0000

> <Gold.Chemscore.Lipo>
71.7717

> <Gold.Chemscore.Internal_Hbond>
0.0000

> <Gold.Chemscore.DEClash>
0.1107

> <Gold.Chemscore.DEInternal>
2.9716

> <Gold.Chemscore.Rot>
2.0710

> <Gold.Chemscore.Internal.Correction>
   9.000000E+99

> <Gold.Chemscore.Hbonds>
donor molecule, donor type, donor heavy atom, donor atom, acceptor molecule, acceptor atom, score
      L1  H     6    26       P1  7948  1.00
      L1  H     9    27       P1  7948  0.97
      L1  H    13    33       P1  7957  0.63
      P1  H  8011  8017       L1    13  0.48

> <Gold.Chemscore.Hbond.Weighted>
-9.6569

> <Gold.Chemscore.Metal.Weighted>
-0.0000

> <Gold.Chemscore.Lipo.Weighted>
-8.3973

> <Gold.Chemscore.Internal_Hbond.Weighted>
0.0000

> <Gold.Chemscore.DEClash.Weighted>
0.1107

> <Gold.Chemscore.DEInternal.Weighted>
2.9716

> <Gold.Chemscore.Rot.Weighted>
5.3017

> <Gold.Chemscore.Internal.Correction.Weighted>
   9.000000E+99

> <Gold.Protein.RotatedTorsions>
[ 6907 6896 6895 6894 ] final  -47.52 input  -60.11 | X-H torsion
[ 7974 7965 7964 7962 ] final  -39.67 input  175.53 | X-H torsion
[ 8008 7997 7996 7995 ] final -176.10 input   59.86 | X-H torsion
[ 10167 10162 10161 10158 ] final  117.36 input  -65.29 | X-H torsion
[ 10718 10713 10712 10709 ] final   68.99 input   66.30 | X-H torsion
[ 10763 10752 10751 10750 ] final  139.76 input  -60.55 | X-H torsion
[ 11005 11000 10999 10996 ] final  -63.51 input  -57.11 | X-H torsion

> <Gold.Protein.ActiveResidues>
 VAL166  LYS551  ARG553  GLY616  TRP617  ASP618  TYR619  PRO620  LYS621  CYS622 
 ASP623  PHE694  ASN695  SER759  ASP760  ASP761  ALA762  ILE779  LEU786  VAL792 
 PHE793  MET794  SER795  GLU796  ALA797  LYS798  CYS799  TRP800  GLU811  SER814 

> <Gold.Protein.RotatedAtoms>
  150.8999  134.8411  159.7352 H   0  0  0  0  0  0  0  0  0  0  0  0  # atno 6907 bound_to 6896
  152.4886  134.4518  159.9587 H   0  0  0  0  0  0  0  0  0  0  0  0  # atno 6908 bound_to 6896
  151.4571  133.3563  159.2839 H   0  0  0  0  0  0  0  0  0  0  0  0  # atno 6909 bound_to 6896
  146.0375  140.6652  142.9103 H   0  0  0  0  0  0  0  0  0  0  0  0  # atno 7974 bound_to 7965
  155.9907  140.1200  157.0641 H   0  0  0  0  0  0  0  0  0  0  0  0  # atno 8008 bound_to 7997
  154.4210  140.1126  156.5629 H   0  0  0  0  0  0  0  0  0  0  0  0  # atno 8009 bound_to 7997
  155.6347  140.3473  155.4697 H   0  0  0  0  0  0  0  0  0  0  0  0  # atno 8010 bound_to 7997
  139.6184  144.7096  151.2689 H   0  0  0  0  0  0  0  0  0  0  0  0  # atno 10167 bound_to 10162
  157.6321  130.9402  150.0453 H   0  0  0  0  0  0  0  0  0  0  0  0  # atno 10718 bound_to 10713
  153.9114  135.3010  155.3448 H   0  0  0  0  0  0  0  0  0  0  0  0  # atno 10763 bound_to 10752
  154.7621  135.4929  153.9487 H   0  0  0  0  0  0  0  0  0  0  0  0  # atno 10764 bound_to 10752
  153.1190  135.6778  153.9469 H   0  0  0  0  0  0  0  0  0  0  0  0  # atno 10765 bound_to 10752
  141.1395  133.6653  156.5692 H   0  0  0  0  0  0  0  0  0  0  0  0  # atno 11005 bound_to 11000
  144.7059  140.3847  143.7119 LP  0  0  0  0  0  0  0  0  0  0  0  0  # atno 17320 bound_to 7965
  145.6939  139.1645  143.2631 LP  0  0  0  0  0  0  0  0  0  0  0  0  # atno 17321 bound_to 7965
  140.7366  143.6703  150.8087 LP  0  0  0  0  0  0  0  0  0  0  0  0  # atno 17342 bound_to 10162
  140.0310  143.5444  152.2760 LP  0  0  0  0  0  0  0  0  0  0  0  0  # atno 17343 bound_to 10162
  156.1532  130.3642  149.9408 LP  0  0  0  0  0  0  0  0  0  0  0  0  # atno 17370 bound_to 10713
  156.7423  130.9084  151.3633 LP  0  0  0  0  0  0  0  0  0  0  0  0  # atno 17371 bound_to 10713
  140.3926  134.7426  157.4731 LP  0  0  0  0  0  0  0  0  0  0  0  0  # atno 17394 bound_to 11000
  140.0555  134.6070  155.8811 LP  0  0  0  0  0  0  0  0  0  0  0  0  # atno 17395 bound_to 11000

$$$$
