AV-unprocessed.smi:2808|AV-procd|sdf|10824|dock9
  -GOLD-   2272015263D 1   1.00000     0.00000
 Structure written by MMmdl.
 43 44  0  0  0  0  0  0  0  0  1 V2000
  144.2933  143.4873  162.3421 C   0  0  0  0  0  0  0  0  0  0  0  0
  144.9442  143.2096  160.9997 C   0  0  0  0  0  0  0  0  0  0  0  0
  146.1793  143.8751  160.6407 C   0  0  0  0  0  0  0  0  0  0  0  0
  146.7415  143.6184  159.4502 C   0  0  0  0  0  0  0  0  0  0  0  0
  146.1671  142.7188  158.5350 N   0  0  0  0  0  0  0  0  0  0  0  0
  146.8692  142.5205  157.2558 C   0  0  0  0  0  0  0  0  0  0  0  0
  148.2158  141.8015  157.4153 C   0  0  0  0  0  0  0  0  0  0  0  0
  148.2634  140.6483  157.8441 O   0  0  0  0  0  0  0  0  0  0  0  0
  149.3026  142.5008  157.0483 N   0  0  0  0  0  0  0  0  0  0  0  0
  150.7005  142.0606  157.1024 C   0  0  0  0  0  0  0  0  0  0  0  0
  151.0109  141.1921  155.9494 C   0  0  0  0  0  0  0  0  0  0  0  0
  151.2551  140.5115  155.0460 N   0  0  0  0  0  0  0  0  0  0  0  0
  151.5880  143.3231  156.9737 C   0  0  0  0  0  0  0  0  0  0  0  0
  151.8181  144.1241  158.2677 C   0  0  0  0  0  0  0  0  0  0  0  0
  153.0446  143.6300  159.0562 C   0  0  0  0  0  0  0  0  0  0  0  0
  152.8585  142.2799  159.7667 C   0  0  0  0  0  0  0  0  0  0  0  0
  152.3992  141.1260  158.8577 C   0  0  0  0  0  0  0  0  0  0  0  0
  150.9324  141.2754  158.4206 C   0  0  0  0  0  0  0  0  0  0  0  0
  145.0013  142.0575  158.8047 C   0  0  0  0  0  0  0  0  0  0  0  0
  144.5013  141.2727  157.9962 O   0  0  0  0  0  0  0  0  0  0  0  0
  144.3931  142.3462  160.1132 C   0  0  0  0  0  0  0  0  0  0  0  0
  143.1755  141.6557  160.3941 C   0  0  0  0  0  0  0  0  0  0  0  0
  142.1903  141.1015  160.6432 N   0  0  0  0  0  0  0  0  0  0  0  0
  144.8795  144.1975  162.9257 H   0  0  0  0  0  0  0  0  0  0  0  0
  144.2040  142.5672  162.9201 H   0  0  0  0  0  0  0  0  0  0  0  0
  143.2959  143.9058  162.2029 H   0  0  0  0  0  0  0  0  0  0  0  0
  146.6447  144.5752  161.3189 H   0  0  0  0  0  0  0  0  0  0  0  0
  147.6571  144.0889  159.1221 H   0  0  0  0  0  0  0  0  0  0  0  0
  146.2561  141.9400  156.5652 H   0  0  0  0  0  0  0  0  0  0  0  0
  147.0218  143.4827  156.7627 H   0  0  0  0  0  0  0  0  0  0  0  0
  149.1499  143.4373  156.7038 H   0  0  0  0  0  0  0  0  0  0  0  0
  152.5586  143.0494  156.5571 H   0  0  0  0  0  0  0  0  0  0  0  0
  151.1509  143.9845  156.2236 H   0  0  0  0  0  0  0  0  0  0  0  0
  152.0023  145.1629  157.9916 H   0  0  0  0  0  0  0  0  0  0  0  0
  150.9238  144.1371  158.8916 H   0  0  0  0  0  0  0  0  0  0  0  0
  153.9087  143.5761  158.3929 H   0  0  0  0  0  0  0  0  0  0  0  0
  153.3001  144.3777  159.8078 H   0  0  0  0  0  0  0  0  0  0  0  0
  153.8069  142.0044  160.2288 H   0  0  0  0  0  0  0  0  0  0  0  0
  152.1548  142.3966  160.5918 H   0  0  0  0  0  0  0  0  0  0  0  0
  153.0592  141.0107  157.9973 H   0  0  0  0  0  0  0  0  0  0  0  0
  152.4896  140.2009  159.4282 H   0  0  0  0  0  0  0  0  0  0  0  0
  150.3604  141.7210  159.2361 H   0  0  0  0  0  0  0  0  0  0  0  0
  150.5137  140.2753  158.3018 H   0  0  0  0  0  0  0  0  0  0  0  0
  1  2  1  0  0  0  0
  1 24  1  0  0  0  0
  1 25  1  0  0  0  0
  1 26  1  0  0  0  0
  2 21  2  0  0  0  0
  2  3  1  0  0  0  0
  3  4  2  0  0  0  0
  3 27  1  0  0  0  0
  4  5  1  0  0  0  0
  4 28  1  0  0  0  0
  5  6  1  0  0  0  0
  5 19  1  0  0  0  0
  6  7  1  0  0  0  0
  6 29  1  0  0  0  0
  6 30  1  0  0  0  0
  7  8  2  0  0  0  0
  7  9  1  0  0  0  0
  9 10  1  0  0  0  0
  9 31  1  0  0  0  0
 10 18  1  0  0  0  0
 10 11  1  0  0  0  0
 10 13  1  0  0  0  0
 11 12  3  0  0  0  0
 13 14  1  0  0  0  0
 13 32  1  0  0  0  0
 13 33  1  0  0  0  0
 14 15  1  0  0  0  0
 14 34  1  0  0  0  0
 14 35  1  0  0  0  0
 15 16  1  0  0  0  0
 15 36  1  0  0  0  0
 15 37  1  0  0  0  0
 16 17  1  0  0  0  0
 16 38  1  0  0  0  0
 16 39  1  0  0  0  0
 17 18  1  0  0  0  0
 17 40  1  0  0  0  0
 17 41  1  0  0  0  0
 18 42  1  0  0  0  0
 18 43  1  0  0  0  0
 19 20  2  0  0  0  0
 19 21  1  0  0  0  0
 21 22  1  0  0  0  0
 22 23  3  0  0  0  0
M  END
> <s_m_source_file>
AV-unprocessed.smi

> <i_m_source_file_index>
2808

> <i_lp_mmshare_version>
43012

> <i_f3d_flags>
0

> <s_epik_input>
W0NIM11jMVtjSF1bY0hdbihjKD1PKWMxQyNOKVtDSDJdQyg9TylbTkhdQzIoQyNOKVtDSDJdW0NIMl1bQ0gyXVtDSDJdW0NIMl1bQ0gyXTI=

> <s_epik_cmdline>
J2VwaWtfcHl0aG9uJywgJy1waCcsICc3LjAnLCAnLXRuJywgJzgnLCAnLW1hJywgJzIwMCcsICctbWV0YWxfYmluZGluZycsICctaW1hZScsICc8aW5maWxlLm1hZT4nLCAnLW9tYWUnLCAnPG91dGZpbGUubWFlPic=

> <r_lp_tautomer_probability>
1

> <r_epik_Ionization_Penalty>
4.51384e-07

> <r_epik_Ionization_Penalty_Charging>
2.41788e-10

> <r_epik_Ionization_Penalty_Neutral>
4.51142e-07

> <r_epik_State_Penalty>
-0

> <r_epik_Charging_Adjusted_Penalty>
2.41788e-10

> <i_epik_Tot_Q>
0

> <i_epik_Tot_abs_Q>
0

> <r_epik_Metal_State_Penalty>
-0

> <b_epik_Metal_Only>
0

> <s_lp_Force_Field>
OPLS_2005

> <r_lp_Energy>
25.2429

> <b_lp_Chiralities_Consistent>
1

> <s_lp_Variant>
AV-unprocessed.smi:2808-1

> <Gold.Version>
5.8.1

> <Gold.Id.Protein>
6NUR|6NUR_protein|mol2

> <Gold.PLP.Fitness>
51.1366

> <Gold.PLP.PLP>
-43.2517

> <Gold.PLP.part.hbond>
-3.5654

> <Gold.PLP.part.metal>
0.0000

> <Gold.PLP.part.buried>
-6.0925

> <Gold.PLP.part.nonpolar>
-32.5015

> <Gold.PLP.part.repulsive>
0.0676

> <Gold.PLP.ligand.clash>
0.0000

> <Gold.PLP.ligand.torsion>
0.4459

> <Gold.PLP.Chemscore.Hbond>
2.0000

> <Gold.PLP.Chemscore.CHOScore>
0.9223

> <Gold.PLP.Chemscore.Metal>
0.0000

> <Gold.Chemscore.Hbonds>
donor molecule, donor type, donor heavy atom, donor atom, acceptor molecule, acceptor atom, score
      L1  H     9    31       P1  8028  1.00
      P1  H  7989  7998       L1    12  0.96
      L1  C     4    28       P1  8029  0.71

> <Gold.PLP.Chemscore.Internal.Correction>
0.0097

> <Gold.Rescore>
     Score         DG    S(hbond)    S(metal)    S(lipo)     H(rot)  DE(clash)    DE(int)     intcor
     16.74     -18.91       1.91        0.00      93.72       1.52       0.31       1.86       ----

> <Gold.Chemscore.Fitness>
16.7421

> <Gold.Chemscore.DG>
-18.9145

> <Gold.Chemscore.ZeroCoef>
-5.4800

> <Gold.Chemscore.Hbond>
1.9067

> <Gold.Chemscore.Metal>
0.0000

> <Gold.Chemscore.Lipo>
93.7224

> <Gold.Chemscore.Internal_Hbond>
0.0000

> <Gold.Chemscore.DEClash>
0.3114

> <Gold.Chemscore.DEInternal>
1.8610

> <Gold.Chemscore.Rot>
1.5232

> <Gold.Chemscore.Internal.Correction>
   9.000000E+99

> <Gold.Chemscore.Hbonds>
donor molecule, donor type, donor heavy atom, donor atom, acceptor molecule, acceptor atom, score
      L1  H     9    31       P1  8028  0.94
      P1  H  7989  7998       L1    12  0.92

> <Gold.Chemscore.Hbond.Weighted>
-6.3685

> <Gold.Chemscore.Metal.Weighted>
-0.0000

> <Gold.Chemscore.Lipo.Weighted>
-10.9655

> <Gold.Chemscore.Internal_Hbond.Weighted>
0.0000

> <Gold.Chemscore.DEClash.Weighted>
0.3114

> <Gold.Chemscore.DEInternal.Weighted>
1.8610

> <Gold.Chemscore.Rot.Weighted>
3.8995

> <Gold.Chemscore.Internal.Correction.Weighted>
   9.000000E+99

> <Gold.Protein.RotatedTorsions>
[ 6907 6896 6895 6894 ] final -134.54 input  -60.11 | X-H torsion
[ 7974 7965 7964 7962 ] final  101.33 input  175.53 | X-H torsion
[ 8008 7997 7996 7995 ] final  -23.95 input   59.86 | X-H torsion
[ 10167 10162 10161 10158 ] final  -56.92 input  -65.29 | X-H torsion
[ 10718 10713 10712 10709 ] final   92.09 input   66.30 | X-H torsion
[ 10763 10752 10751 10750 ] final  -73.33 input  -60.55 | X-H torsion
[ 11005 11000 10999 10996 ] final   41.79 input  -57.11 | X-H torsion

> <Gold.Protein.ActiveResidues>
 VAL166  LYS551  ARG553  GLY616  TRP617  ASP618  TYR619  PRO620  LYS621  CYS622 
 ASP623  PHE694  ASN695  SER759  ASP760  ASP761  ALA762  ILE779  LEU786  VAL792 
 PHE793  MET794  SER795  GLU796  ALA797  LYS798  CYS799  TRP800  GLU811  SER814 

> <Gold.Protein.RotatedAtoms>
  150.9871  133.6187  159.2713 H   0  0  0  0  0  0  0  0  0  0  0  0  # atno 6907 bound_to 6896
  151.3421  135.0865  159.9384 H   0  0  0  0  0  0  0  0  0  0  0  0  # atno 6908 bound_to 6896
  152.5234  133.9480  159.7712 H   0  0  0  0  0  0  0  0  0  0  0  0  # atno 6909 bound_to 6896
  145.3737  139.2393  143.3441 H   0  0  0  0  0  0  0  0  0  0  0  0  # atno 7974 bound_to 7965
  154.4556  140.1966  156.0390 H   0  0  0  0  0  0  0  0  0  0  0  0  # atno 8008 bound_to 7997
  156.0739  140.3281  155.7581 H   0  0  0  0  0  0  0  0  0  0  0  0  # atno 8009 bound_to 7997
  155.5220  140.0570  157.2896 H   0  0  0  0  0  0  0  0  0  0  0  0  # atno 8010 bound_to 7997
  140.6289  143.2450  151.5293 H   0  0  0  0  0  0  0  0  0  0  0  0  # atno 10167 bound_to 10162
  157.6959  131.0431  150.3828 H   0  0  0  0  0  0  0  0  0  0  0  0  # atno 10718 bound_to 10713
  154.4580  135.5901  153.6236 H   0  0  0  0  0  0  0  0  0  0  0  0  # atno 10763 bound_to 10752
  152.9820  135.6037  154.3522 H   0  0  0  0  0  0  0  0  0  0  0  0  # atno 10764 bound_to 10752
  154.3391  135.2842  155.2411 H   0  0  0  0  0  0  0  0  0  0  0  0  # atno 10765 bound_to 10752
  140.1801  134.4114  155.8205 H   0  0  0  0  0  0  0  0  0  0  0  0  # atno 11005 bound_to 11000
  146.2873  140.4393  142.8753 LP  0  0  0  0  0  0  0  0  0  0  0  0  # atno 17320 bound_to 7965
  144.8557  140.7067  143.6139 LP  0  0  0  0  0  0  0  0  0  0  0  0  # atno 17321 bound_to 7965
  139.5505  144.2407  152.1522 LP  0  0  0  0  0  0  0  0  0  0  0  0  # atno 17342 bound_to 10162
  140.1646  144.4994  150.6613 LP  0  0  0  0  0  0  0  0  0  0  0  0  # atno 17343 bound_to 10162
  156.4240  130.3958  149.6805 LP  0  0  0  0  0  0  0  0  0  0  0  0  # atno 17370 bound_to 10713
  156.4046  130.7692  151.2701 LP  0  0  0  0  0  0  0  0  0  0  0  0  # atno 17371 bound_to 10713
  141.2222  133.6996  156.7915 LP  0  0  0  0  0  0  0  0  0  0  0  0  # atno 17394 bound_to 11000
  140.2277  134.8709  157.3444 LP  0  0  0  0  0  0  0  0  0  0  0  0  # atno 17395 bound_to 11000

$$$$
