AV-unprocessed.smi:1465|AV-procd|sdf|5951|dock9
  -GOLD-   22720 6 33D 1   1.00000     0.00000
 Structure written by MMmdl.
 54 55  0  0  0  0  0  0  0  0  2 V2000
  149.2424  141.4279  154.9988 C   0  0  0  0  0  0  0  0  0  0  0  0
  148.6553  141.8207  156.2264 O   0  0  0  0  0  0  0  0  0  0  0  0
  149.5463  141.6934  157.3226 C   0  0  0  0  0  0  0  0  0  0  0  0
  150.7667  142.6008  157.0978 C   0  0  0  0  0  0  0  0  0  0  0  0
  151.6861  142.5748  158.2444 N   0  0  0  0  0  0  0  0  0  0  0  0
  152.3488  141.3594  158.5033 C   0  0  0  0  0  0  0  0  0  0  0  0
  153.2125  141.2115  159.5273 C   0  0  0  0  0  0  0  0  0  0  0  0
  153.8571  139.9152  159.7494 C   0  0  0  0  0  0  0  0  0  0  0  0
  154.1162  139.1023  158.8605 O   0  0  0  0  0  0  0  0  0  0  0  0
  154.1501  139.6704  161.0386 N   0  0  0  0  0  0  0  0  0  0  0  0
  154.7818  138.4572  161.5485 C   0  0  2  0  0  0  0  0  0  0  0  0
  153.8061  137.2682  161.4914 C   0  0  0  0  0  0  0  0  0  0  0  0
  154.4235  136.0095  162.1231 C   0  0  0  0  0  0  0  0  0  0  0  0
  154.8540  136.2664  163.5231 N   0  3  1  0  0  0  0  0  0  0  0  0
  155.3410  135.0482  164.2207 C   0  0  0  0  0  0  0  0  0  0  0  0
  154.3408  133.8738  164.1523 C   0  0  0  0  0  0  0  0  0  0  0  0
  154.4706  132.9397  165.3672 C   0  0  0  0  0  0  0  0  0  0  0  0
  154.5244  133.0833  162.8483 C   0  0  0  0  0  0  0  0  0  0  0  0
  155.8273  137.3865  163.5961 C   0  0  0  0  0  0  0  0  0  0  0  0
  155.2376  138.6756  162.9997 C   0  0  0  0  0  0  0  0  0  0  0  0
  153.4466  142.3721  160.3742 C   0  0  0  0  0  0  0  0  0  0  0  0
  152.8080  143.5345  160.1357 C   0  0  0  0  0  0  0  0  0  0  0  0
  151.8623  143.6825  159.0255 C   0  0  0  0  0  0  0  0  0  0  0  0
  151.2655  144.7383  158.8131 O   0  0  0  0  0  0  0  0  0  0  0  0
  148.5173  141.5440  154.1931 H   0  0  0  0  0  0  0  0  0  0  0  0
  149.5515  140.3821  155.0252 H   0  0  0  0  0  0  0  0  0  0  0  0
  150.1105  142.0442  154.7619 H   0  0  0  0  0  0  0  0  0  0  0  0
  149.0367  141.9915  158.2400 H   0  0  0  0  0  0  0  0  0  0  0  0
  149.8553  140.6542  157.4470 H   0  0  0  0  0  0  0  0  0  0  0  0
  151.2827  142.3033  156.1838 H   0  0  0  0  0  0  0  0  0  0  0  0
  150.4307  143.6218  156.9090 H   0  0  0  0  0  0  0  0  0  0  0  0
  152.0956  140.5620  157.8183 H   0  0  0  0  0  0  0  0  0  0  0  0
  153.9120  140.3806  161.7156 H   0  0  0  0  0  0  0  0  0  0  0  0
  155.6622  138.2280  160.9446 H   0  0  0  0  0  0  0  0  0  0  0  0
  152.8828  137.5199  162.0156 H   0  0  0  0  0  0  0  0  0  0  0  0
  153.5270  137.0587  160.4580 H   0  0  0  0  0  0  0  0  0  0  0  0
  153.6898  135.2050  162.0922 H   0  0  0  0  0  0  0  0  0  0  0  0
  155.2790  135.6774  161.5327 H   0  0  0  0  0  0  0  0  0  0  0  0
  156.3067  134.7583  163.8033 H   0  0  0  0  0  0  0  0  0  0  0  0
  155.5240  135.2752  165.2722 H   0  0  0  0  0  0  0  0  0  0  0  0
  153.3248  134.2675  164.1398 H   0  0  0  0  0  0  0  0  0  0  0  0
  155.4708  132.5097  165.4321 H   0  0  0  0  0  0  0  0  0  0  0  0
  153.7596  132.1153  165.3048 H   0  0  0  0  0  0  0  0  0  0  0  0
  154.2729  133.4669  166.3009 H   0  0  0  0  0  0  0  0  0  0  0  0
  155.5213  132.6457  162.7855 H   0  0  0  0  0  0  0  0  0  0  0  0
  154.3865  133.7233  161.9765 H   0  0  0  0  0  0  0  0  0  0  0  0
  153.8008  132.2708  162.7752 H   0  0  0  0  0  0  0  0  0  0  0  0
  156.1015  137.5698  164.6360 H   0  0  0  0  0  0  0  0  0  0  0  0
  156.7428  137.1108  163.0698 H   0  0  0  0  0  0  0  0  0  0  0  0
  155.9793  139.4743  163.0428 H   0  0  0  0  0  0  0  0  0  0  0  0
  154.3942  139.0032  163.6099 H   0  0  0  0  0  0  0  0  0  0  0  0
  154.1309  142.3311  161.2088 H   0  0  0  0  0  0  0  0  0  0  0  0
  152.9971  144.3821  160.7784 H   0  0  0  0  0  0  0  0  0  0  0  0
  154.0373  136.5740  164.0316 H   0  0  0  0  0  0  0  0  0  0  0  0
  1  2  1  0  0  0  0
  1 25  1  0  0  0  0
  1 26  1  0  0  0  0
  1 27  1  0  0  0  0
  2  3  1  0  0  0  0
  3  4  1  0  0  0  0
  3 28  1  0  0  0  0
  3 29  1  0  0  0  0
  4  5  1  0  0  0  0
  4 30  1  0  0  0  0
  4 31  1  0  0  0  0
  5 23  1  0  0  0  0
  5  6  1  0  0  0  0
  6  7  2  0  0  0  0
  6 32  1  0  0  0  0
  7  8  1  0  0  0  0
  7 21  1  0  0  0  0
  8  9  2  0  0  0  0
  8 10  1  0  0  0  0
 10 11  1  0  0  0  0
 10 33  1  0  0  0  0
 11 20  1  0  0  0  0
 11 12  1  0  0  0  0
 11 34  1  0  0  0  0
 12 13  1  0  0  0  0
 12 35  1  0  0  0  0
 12 36  1  0  0  0  0
 13 14  1  0  0  0  0
 13 37  1  0  0  0  0
 13 38  1  0  0  0  0
 14 15  1  0  0  0  0
 14 19  1  0  0  0  0
 14 54  1  0  0  0  0
 15 16  1  0  0  0  0
 15 39  1  0  0  0  0
 15 40  1  0  0  0  0
 16 17  1  0  0  0  0
 16 18  1  0  0  0  0
 16 41  1  0  0  0  0
 17 42  1  0  0  0  0
 17 43  1  0  0  0  0
 17 44  1  0  0  0  0
 18 45  1  0  0  0  0
 18 46  1  0  0  0  0
 18 47  1  0  0  0  0
 19 20  1  0  0  0  0
 19 48  1  0  0  0  0
 19 49  1  0  0  0  0
 20 50  1  0  0  0  0
 20 51  1  0  0  0  0
 21 22  2  0  0  0  0
 21 52  1  0  0  0  0
 22 23  1  0  0  0  0
 22 53  1  0  0  0  0
 23 24  2  0  0  0  0
M  CHG  1  14   1
M  END
> <s_m_source_file>
AV-unprocessed.smi

> <i_m_source_file_index>
1465

> <i_lp_mmshare_version>
43012

> <i_f3d_flags>
0

> <s_epik_input>
W0NIM11PW0NIMl1bQ0gyXW4xW2NIXWMoW2NIXVtjSF1jMT1PKUMoPU8pW05IXVtDSF0yW0NIMl1bQ0gyXU4oW0NIMl1bQ0gyXTIpW0NIMl1bQ0hdKFtDSDNdKVtDSDNd

> <s_epik_cmdline>
J2VwaWtfcHl0aG9uJywgJy1waCcsICc3LjAnLCAnLXRuJywgJzgnLCAnLW1hJywgJzIwMCcsICctbWV0YWxfYmluZGluZycsICctaW1hZScsICc8aW5maWxlLm1hZT4nLCAnLW9tYWUnLCAnPG91dGZpbGUubWFlPic=

> <r_lp_tautomer_probability>
1

> <r_epik_Ionization_Penalty>
0.00386091

> <r_epik_Ionization_Penalty_Charging>
0.0038603

> <r_epik_Ionization_Penalty_Neutral>
6.13806e-07

> <r_epik_State_Penalty>
0.00275716

> <r_epik_Charging_Adjusted_Penalty>
0.00661746

> <i_epik_Tot_Q>
1

> <i_epik_Tot_abs_Q>
1

> <r_epik_Metal_State_Penalty>
-0

> <b_epik_Metal_Only>
0

> <s_lp_Force_Field>
OPLS_2005

> <r_lp_Energy>
35.0866

> <b_lp_Chiralities_Consistent>
1

> <s_lp_Variant>
AV-unprocessed.smi:1465-1

> <Gold.Version>
5.8.1

> <Gold.Id.Protein>
6NUR|6NUR_protein|mol2

> <Gold.PLP.Fitness>
47.3574

> <Gold.PLP.PLP>
-45.9709

> <Gold.PLP.part.hbond>
-1.0000

> <Gold.PLP.part.metal>
0.0000

> <Gold.PLP.part.buried>
-5.5327

> <Gold.PLP.part.nonpolar>
-39.9907

> <Gold.PLP.part.repulsive>
0.8417

> <Gold.PLP.ligand.clash>
0.0000

> <Gold.PLP.ligand.torsion>
0.8786

> <Gold.PLP.Chemscore.Hbond>
1.0000

> <Gold.PLP.Chemscore.CHOScore>
0.0000

> <Gold.PLP.Chemscore.Metal>
0.0000

> <Gold.Chemscore.Hbonds>
donor molecule, donor type, donor heavy atom, donor atom, acceptor molecule, acceptor atom, score
      P1  H  7997  8010       L1     9  1.00

> <Gold.PLP.Chemscore.Internal.Correction>
0.1438

> <Gold.Rescore>
     Score         DG    S(hbond)    S(metal)    S(lipo)     H(rot)  DE(clash)    DE(int)     intcor
     16.91     -18.05       0.90        0.00     120.77       1.78       0.07       1.08       ----

> <Gold.Chemscore.Fitness>
16.9091

> <Gold.Chemscore.DG>
-18.0507

> <Gold.Chemscore.ZeroCoef>
-5.4800

> <Gold.Chemscore.Hbond>
0.8951

> <Gold.Chemscore.Metal>
0.0000

> <Gold.Chemscore.Lipo>
120.7703

> <Gold.Chemscore.Internal_Hbond>
0.0000

> <Gold.Chemscore.DEClash>
0.0650

> <Gold.Chemscore.DEInternal>
1.0765

> <Gold.Chemscore.Rot>
1.7769

> <Gold.Chemscore.Internal.Correction>
   9.000000E+99

> <Gold.Chemscore.Hbonds>
donor molecule, donor type, donor heavy atom, donor atom, acceptor molecule, acceptor atom, score
      P1  H  7997  8010       L1     9  0.75

> <Gold.Chemscore.Hbond.Weighted>
-2.9895

> <Gold.Chemscore.Metal.Weighted>
-0.0000

> <Gold.Chemscore.Lipo.Weighted>
-14.1301

> <Gold.Chemscore.Internal_Hbond.Weighted>
0.0000

> <Gold.Chemscore.DEClash.Weighted>
0.0650

> <Gold.Chemscore.DEInternal.Weighted>
1.0765

> <Gold.Chemscore.Rot.Weighted>
4.5490

> <Gold.Chemscore.Internal.Correction.Weighted>
   9.000000E+99

> <Gold.Protein.RotatedTorsions>
[ 6907 6896 6895 6894 ] final   11.24 input  -60.11 | X-H torsion
[ 7974 7965 7964 7962 ] final  175.50 input  175.53 | X-H torsion
[ 8008 7997 7996 7995 ] final    6.92 input   59.86 | X-H torsion
[ 10167 10162 10161 10158 ] final -171.23 input  -65.29 | X-H torsion
[ 10718 10713 10712 10709 ] final -147.34 input   66.30 | X-H torsion
[ 10763 10752 10751 10750 ] final   17.37 input  -60.55 | X-H torsion
[ 11005 11000 10999 10996 ] final -162.81 input  -57.11 | X-H torsion

> <Gold.Protein.ActiveResidues>
 VAL166  LYS551  ARG553  GLY616  TRP617  ASP618  TYR619  PRO620  LYS621  CYS622 
 ASP623  PHE694  ASN695  SER759  ASP760  ASP761  ALA762  ILE779  LEU786  VAL792 
 PHE793  MET794  SER795  GLU796  ALA797  LYS798  CYS799  TRP800  GLU811  SER814 

> <Gold.Protein.RotatedAtoms>
  151.7511  135.0832  160.0330 H   0  0  0  0  0  0  0  0  0  0  0  0  # atno 6907 bound_to 6896
  152.3416  133.6069  159.5889 H   0  0  0  0  0  0  0  0  0  0  0  0  # atno 6908 bound_to 6896
  150.7483  133.9629  159.3563 H   0  0  0  0  0  0  0  0  0  0  0  0  # atno 6909 bound_to 6896
  144.7201  139.9955  143.6440 H   0  0  0  0  0  0  0  0  0  0  0  0  # atno 7974 bound_to 7965
  154.7472  140.2760  155.6323 H   0  0  0  0  0  0  0  0  0  0  0  0  # atno 8008 bound_to 7997
  156.2887  140.2685  156.2142 H   0  0  0  0  0  0  0  0  0  0  0  0  # atno 8009 bound_to 7997
  155.0183  140.0371  157.2417 H   0  0  0  0  0  0  0  0  0  0  0  0  # atno 8010 bound_to 7997
  139.5814  144.1414  152.1520 H   0  0  0  0  0  0  0  0  0  0  0  0  # atno 10167 bound_to 10162
  156.4063  130.7959  151.2173 H   0  0  0  0  0  0  0  0  0  0  0  0  # atno 10718 bound_to 10713
  153.1345  135.6747  153.9125 H   0  0  0  0  0  0  0  0  0  0  0  0  # atno 10763 bound_to 10752
  153.8601  135.3082  155.3438 H   0  0  0  0  0  0  0  0  0  0  0  0  # atno 10764 bound_to 10752
  154.7736  135.4926  153.9780 H   0  0  0  0  0  0  0  0  0  0  0  0  # atno 10765 bound_to 10752
  140.6051  134.4907  157.5209 H   0  0  0  0  0  0  0  0  0  0  0  0  # atno 11005 bound_to 11000
  146.0377  139.3393  143.0716 LP  0  0  0  0  0  0  0  0  0  0  0  0  # atno 17320 bound_to 7965
  145.8374  140.9599  143.0817 LP  0  0  0  0  0  0  0  0  0  0  0  0  # atno 17321 bound_to 7965
  140.0968  144.5573  150.7016 LP  0  0  0  0  0  0  0  0  0  0  0  0  # atno 17342 bound_to 10162
  140.7092  143.2491  151.4634 LP  0  0  0  0  0  0  0  0  0  0  0  0  # atno 17343 bound_to 10162
  157.7505  131.0271  150.3992 LP  0  0  0  0  0  0  0  0  0  0  0  0  # atno 17370 bound_to 10713
  156.4281  130.3966  149.6779 LP  0  0  0  0  0  0  0  0  0  0  0  0  # atno 17371 bound_to 10713
  139.9216  134.8138  156.1195 LP  0  0  0  0  0  0  0  0  0  0  0  0  # atno 17394 bound_to 11000
  141.0846  133.6740  156.2408 LP  0  0  0  0  0  0  0  0  0  0  0  0  # atno 17395 bound_to 11000

$$$$
