AV-unprocessed.smi:2349|AV-procd|sdf|9371|dock10
  -GOLD-   2272012593D 1   1.00000     0.00000
 Structure written by MMmdl.
 52 53  0  0  0  0  0  0  0  0  1 V2000
  153.3467  143.5019  163.4030 C   0  0  0  0  0  0  0  0  0  0  0  0
  153.0328  142.9794  162.0168 C   0  0  0  0  0  0  0  0  0  0  0  0
  153.6012  141.7750  161.5511 C   0  0  0  0  0  0  0  0  0  0  0  0
  153.2742  141.3371  160.2533 C   0  0  0  0  0  0  0  0  0  0  0  0
  152.3969  142.1174  159.4731 C   0  0  0  0  0  0  0  0  0  0  0  0
  152.0024  141.6790  158.0730 C   0  0  0  0  0  0  0  0  0  0  0  0
  151.3780  140.2740  158.0290 C   0  0  0  0  0  0  0  0  0  0  0  0
  150.0426  140.3068  157.4468 N   0  0  0  0  0  0  0  0  0  0  0  0
  149.7664  140.2552  156.1349 C   0  0  0  0  0  0  0  0  0  0  0  0
  150.6539  140.1928  155.2829 O   0  0  0  0  0  0  0  0  0  0  0  0
  148.4424  140.2711  155.8356 N   0  0  0  0  0  0  0  0  0  0  0  0
  147.3692  140.8673  156.6490 C   0  0  0  0  0  0  0  0  0  0  0  0
  146.8877  142.1560  155.9601 C   0  0  0  0  0  0  0  0  0  0  0  0
  146.4037  141.8774  154.5188 C   0  0  0  0  0  0  0  0  0  0  0  0
  146.0099  143.1942  153.8078 C   0  0  0  0  0  0  0  0  0  0  0  0
  144.8317  143.9573  154.4472 C   0  0  0  0  0  0  0  0  0  0  0  0
  144.3852  143.5771  155.5311 O   0  0  0  0  0  0  0  0  0  0  0  0
  144.3228  145.0324  153.8008 N   0  0  0  0  0  0  0  0  0  0  0  0
  144.9091  145.4980  152.5419 C   0  0  0  0  0  0  0  0  0  0  0  0
  143.1549  145.7797  154.2744 C   0  0  0  0  0  0  0  0  0  0  0  0
  147.4682  141.0663  153.7376 C   0  0  0  0  0  0  0  0  0  0  0  0
  147.9319  139.8315  154.5322 C   0  0  0  0  0  0  0  0  0  0  0  0
  151.8871  143.3090  160.0320 C   0  0  0  0  0  0  0  0  0  0  0  0
  152.1918  143.7349  161.2764 N   0  0  0  0  0  0  0  0  0  0  0  0
  153.9053  142.7681  163.9847 H   0  0  0  0  0  0  0  0  0  0  0  0
  152.4274  143.7324  163.9422 H   0  0  0  0  0  0  0  0  0  0  0  0
  153.9443  144.4113  163.3367 H   0  0  0  0  0  0  0  0  0  0  0  0
  154.2708  141.1978  162.1717 H   0  0  0  0  0  0  0  0  0  0  0  0
  153.6870  140.4170  159.8663 H   0  0  0  0  0  0  0  0  0  0  0  0
  151.2993  142.4045  157.6613 H   0  0  0  0  0  0  0  0  0  0  0  0
  152.8824  141.7117  157.4295 H   0  0  0  0  0  0  0  0  0  0  0  0
  152.0214  139.5986  157.4632 H   0  0  0  0  0  0  0  0  0  0  0  0
  151.3023  139.8716  159.0402 H   0  0  0  0  0  0  0  0  0  0  0  0
  149.2666  140.3540  158.0909 H   0  0  0  0  0  0  0  0  0  0  0  0
  146.5440  140.1580  156.7277 H   0  0  0  0  0  0  0  0  0  0  0  0
  147.6571  141.0825  157.6780 H   0  0  0  0  0  0  0  0  0  0  0  0
  146.0827  142.6041  156.5437 H   0  0  0  0  0  0  0  0  0  0  0  0
  147.7009  142.8834  155.9457 H   0  0  0  0  0  0  0  0  0  0  0  0
  145.5127  141.2535  154.6071 H   0  0  0  0  0  0  0  0  0  0  0  0
  146.8655  143.8702  153.8005 H   0  0  0  0  0  0  0  0  0  0  0  0
  145.7848  142.9660  152.7657 H   0  0  0  0  0  0  0  0  0  0  0  0
  145.9992  145.5088  152.5908 H   0  0  0  0  0  0  0  0  0  0  0  0
  144.5966  146.5121  152.2906 H   0  0  0  0  0  0  0  0  0  0  0  0
  144.6117  144.8420  151.7228 H   0  0  0  0  0  0  0  0  0  0  0  0
  142.3499  145.1104  154.5803 H   0  0  0  0  0  0  0  0  0  0  0  0
  142.7415  146.4293  153.5025 H   0  0  0  0  0  0  0  0  0  0  0  0
  143.4252  146.4072  155.1245 H   0  0  0  0  0  0  0  0  0  0  0  0
  147.0767  140.7447  152.7728 H   0  0  0  0  0  0  0  0  0  0  0  0
  148.3298  141.7001  153.5228 H   0  0  0  0  0  0  0  0  0  0  0  0
  148.6715  139.2755  153.9544 H   0  0  0  0  0  0  0  0  0  0  0  0
  147.0973  139.1448  154.6806 H   0  0  0  0  0  0  0  0  0  0  0  0
  151.2068  143.9329  159.4711 H   0  0  0  0  0  0  0  0  0  0  0  0
  1  2  1  0  0  0  0
  1 25  1  0  0  0  0
  1 26  1  0  0  0  0
  1 27  1  0  0  0  0
  2 24  1  0  0  0  0
  2  3  2  0  0  0  0
  3  4  1  0  0  0  0
  3 28  1  0  0  0  0
  4  5  2  0  0  0  0
  4 29  1  0  0  0  0
  5  6  1  0  0  0  0
  5 23  1  0  0  0  0
  6  7  1  0  0  0  0
  6 30  1  0  0  0  0
  6 31  1  0  0  0  0
  7  8  1  0  0  0  0
  7 32  1  0  0  0  0
  7 33  1  0  0  0  0
  8  9  1  0  0  0  0
  8 34  1  0  0  0  0
  9 10  2  0  0  0  0
  9 11  1  0  0  0  0
 11 22  1  0  0  0  0
 11 12  1  0  0  0  0
 12 13  1  0  0  0  0
 12 35  1  0  0  0  0
 12 36  1  0  0  0  0
 13 14  1  0  0  0  0
 13 37  1  0  0  0  0
 13 38  1  0  0  0  0
 14 15  1  0  0  0  0
 14 21  1  0  0  0  0
 14 39  1  0  0  0  0
 15 16  1  0  0  0  0
 15 40  1  0  0  0  0
 15 41  1  0  0  0  0
 16 17  2  0  0  0  0
 16 18  1  0  0  0  0
 18 19  1  0  0  0  0
 18 20  1  0  0  0  0
 19 42  1  0  0  0  0
 19 43  1  0  0  0  0
 19 44  1  0  0  0  0
 20 45  1  0  0  0  0
 20 46  1  0  0  0  0
 20 47  1  0  0  0  0
 21 22  1  0  0  0  0
 21 48  1  0  0  0  0
 21 49  1  0  0  0  0
 22 50  1  0  0  0  0
 22 51  1  0  0  0  0
 23 24  2  0  0  0  0
 23 52  1  0  0  0  0
M  END
> <s_m_source_file>
AV-unprocessed.smi

> <i_m_source_file_index>
2349

> <i_lp_mmshare_version>
43012

> <i_f3d_flags>
0

> <s_epik_input>
W0NIM11jMVtjSF1bY0hdYyhbY0hdbjEpW0NIMl1bQ0gyXVtOSF1DKD1PKU4yW0NIMl1bQ0gyXVtDSF0oW0NIMl1bQ0gyXTIpW0NIMl1DKD1PKU4oW0NIM10pW0NIM10=

> <s_epik_cmdline>
J2VwaWtfcHl0aG9uJywgJy1waCcsICc3LjAnLCAnLXRuJywgJzgnLCAnLW1hJywgJzIwMCcsICctbWV0YWxfYmluZGluZycsICctaW1hZScsICc8aW5maWxlLm1hZT4nLCAnLW9tYWUnLCAnPG91dGZpbGUubWFlPic=

> <r_epik_Ionization_Penalty>
0.0570544

> <r_epik_Ionization_Penalty_Charging>
0

> <r_epik_Ionization_Penalty_Neutral>
0.0570544

> <r_epik_State_Penalty>
0.0491874

> <r_epik_Charging_Adjusted_Penalty>
0.0491874

> <i_epik_Tot_Q>
0

> <i_epik_Tot_abs_Q>
0

> <r_epik_Metal_State_Penalty>
0.0448474

> <b_epik_Metal_Only>
0

> <s_lp_Force_Field>
OPLS_2005

> <r_lp_Energy>
37.0132

> <b_lp_Chiralities_Consistent>
1

> <s_lp_Variant>
AV-unprocessed.smi:2349-1

> <Gold.Version>
5.8.1

> <Gold.Id.Protein>
6NUR|6NUR_protein|mol2

> <Gold.PLP.Fitness>
54.6222

> <Gold.PLP.PLP>
-53.2485

> <Gold.PLP.part.hbond>
-1.0000

> <Gold.PLP.part.metal>
0.0000

> <Gold.PLP.part.buried>
-7.4172

> <Gold.PLP.part.nonpolar>
-43.8867

> <Gold.PLP.part.repulsive>
0.3370

> <Gold.PLP.ligand.clash>
0.0000

> <Gold.PLP.ligand.torsion>
0.8686

> <Gold.PLP.Chemscore.Hbond>
1.0000

> <Gold.PLP.Chemscore.CHOScore>
0.0000

> <Gold.PLP.Chemscore.Metal>
0.0000

> <Gold.Chemscore.Hbonds>
donor molecule, donor type, donor heavy atom, donor atom, acceptor molecule, acceptor atom, score
      P1  H  7989  7998       L1    10  0.71

> <Gold.PLP.Chemscore.Internal.Correction>
0.1109

> <Gold.Rescore>
     Score         DG    S(hbond)    S(metal)    S(lipo)     H(rot)  DE(clash)    DE(int)     intcor
     18.64     -19.69       0.99        0.00     129.53       1.66       0.21       0.84       ----

> <Gold.Chemscore.Fitness>
18.6436

> <Gold.Chemscore.DG>
-19.6934

> <Gold.Chemscore.ZeroCoef>
-5.4800

> <Gold.Chemscore.Hbond>
0.9915

> <Gold.Chemscore.Metal>
0.0000

> <Gold.Chemscore.Lipo>
129.5270

> <Gold.Chemscore.Internal_Hbond>
0.0000

> <Gold.Chemscore.DEClash>
0.2113

> <Gold.Chemscore.DEInternal>
0.8385

> <Gold.Chemscore.Rot>
1.6612

> <Gold.Chemscore.Internal.Correction>
   9.000000E+99

> <Gold.Chemscore.Hbonds>
donor molecule, donor type, donor heavy atom, donor atom, acceptor molecule, acceptor atom, score
      P1  H  7989  7998       L1    10  0.70

> <Gold.Chemscore.Hbond.Weighted>
-3.3115

> <Gold.Chemscore.Metal.Weighted>
-0.0000

> <Gold.Chemscore.Lipo.Weighted>
-15.1547

> <Gold.Chemscore.Internal_Hbond.Weighted>
0.0000

> <Gold.Chemscore.DEClash.Weighted>
0.2113

> <Gold.Chemscore.DEInternal.Weighted>
0.8385

> <Gold.Chemscore.Rot.Weighted>
4.2528

> <Gold.Chemscore.Internal.Correction.Weighted>
   9.000000E+99

> <Gold.Protein.RotatedTorsions>
[ 6907 6896 6895 6894 ] final  -94.94 input  -60.11 | X-H torsion
[ 7974 7965 7964 7962 ] final  -75.61 input  175.53 | X-H torsion
[ 8008 7997 7996 7995 ] final  -32.56 input   59.86 | X-H torsion
[ 10167 10162 10161 10158 ] final -145.94 input  -65.29 | X-H torsion
[ 10718 10713 10712 10709 ] final   41.43 input   66.30 | X-H torsion
[ 10763 10752 10751 10750 ] final -173.10 input  -60.55 | X-H torsion
[ 11005 11000 10999 10996 ] final  -66.05 input  -57.11 | X-H torsion

> <Gold.Protein.ActiveResidues>
 VAL166  LYS551  ARG553  GLY616  TRP617  ASP618  TYR619  PRO620  LYS621  CYS622 
 ASP623  PHE694  ASN695  SER759  ASP760  ASP761  ALA762  ILE779  LEU786  VAL792 
 PHE793  MET794  SER795  GLU796  ALA797  LYS798  CYS799  TRP800  GLU811  SER814 

> <Gold.Protein.RotatedAtoms>
  150.6952  134.1734  159.4220 H   0  0  0  0  0  0  0  0  0  0  0  0  # atno 6907 bound_to 6896
  151.9711  135.0073  160.0562 H   0  0  0  0  0  0  0  0  0  0  0  0  # atno 6908 bound_to 6896
  152.1840  133.4692  159.5010 H   0  0  0  0  0  0  0  0  0  0  0  0  # atno 6909 bound_to 6896
  145.6238  140.9356  143.1124 H   0  0  0  0  0  0  0  0  0  0  0  0  # atno 7974 bound_to 7965
  154.4176  140.1734  156.1746 H   0  0  0  0  0  0  0  0  0  0  0  0  # atno 8008 bound_to 7997
  155.9732  140.3384  155.6570 H   0  0  0  0  0  0  0  0  0  0  0  0  # atno 8009 bound_to 7997
  155.6598  140.0699  157.2549 H   0  0  0  0  0  0  0  0  0  0  0  0  # atno 8010 bound_to 7997
  139.7759  143.8171  152.2632 H   0  0  0  0  0  0  0  0  0  0  0  0  # atno 10167 bound_to 10162
  157.3935  130.7820  149.7289 H   0  0  0  0  0  0  0  0  0  0  0  0  # atno 10718 bound_to 10713
  154.6117  135.2865  155.0424 H   0  0  0  0  0  0  0  0  0  0  0  0  # atno 10763 bound_to 10752
  154.1652  135.6481  153.4999 H   0  0  0  0  0  0  0  0  0  0  0  0  # atno 10764 bound_to 10752
  153.0198  135.5387  154.6874 H   0  0  0  0  0  0  0  0  0  0  0  0  # atno 10765 bound_to 10752
  141.1471  133.6692  156.6081 H   0  0  0  0  0  0  0  0  0  0  0  0  # atno 11005 bound_to 11000
  144.7220  139.7997  143.7378 LP  0  0  0  0  0  0  0  0  0  0  0  0  # atno 17320 bound_to 7965
  146.1410  139.4467  143.0108 LP  0  0  0  0  0  0  0  0  0  0  0  0  # atno 17321 bound_to 7965
  139.8219  144.7292  150.9561 LP  0  0  0  0  0  0  0  0  0  0  0  0  # atno 17342 bound_to 10162
  140.7816  143.4151  151.0930 LP  0  0  0  0  0  0  0  0  0  0  0  0  # atno 17343 bound_to 10162
  155.9804  130.4029  150.3529 LP  0  0  0  0  0  0  0  0  0  0  0  0  # atno 17370 bound_to 10713
  157.1648  131.0354  151.2824 LP  0  0  0  0  0  0  0  0  0  0  0  0  # atno 17371 bound_to 10713
  140.3636  134.7666  157.4551 LP  0  0  0  0  0  0  0  0  0  0  0  0  # atno 17394 bound_to 11000
  140.0765  134.5789  155.8585 LP  0  0  0  0  0  0  0  0  0  0  0  0  # atno 17395 bound_to 11000

$$$$
