AV-unprocessed.smi:918|AV-procd|sdf|4163|dock3
  -GOLD-   22720 2 73D 1   1.00000     0.00000
 Structure written by MMmdl.
 31 32  0  0  0  0  0  0  0  0  2 V2000
  152.9903  138.9378  155.5302 O   0  0  0  0  0  0  0  0  0  0  0  0
  151.9930  138.4763  154.9313 C   0  0  0  0  0  0  0  0  0  0  0  0
  151.9943  137.3952  154.3069 O   0  5  0  0  0  0  0  0  0  0  0  0
  150.6609  139.3771  155.0080 C   0  0  0  0  0  0  0  0  0  0  0  0
  149.7867  139.2742  153.9826 C   0  0  0  0  0  0  0  0  0  0  0  0
  148.5761  140.0405  153.9713 C   0  0  0  0  0  0  0  0  0  0  0  0
  148.3026  140.8690  154.9846 C   0  0  0  0  0  0  0  0  0  0  0  0
  149.2078  141.0239  156.1212 C   0  0  0  0  0  0  0  0  0  0  0  0
  148.8896  141.8045  157.0159 O   0  0  0  0  0  0  0  0  0  0  0  0
  150.3716  140.2736  156.1110 N   0  0  0  0  0  0  0  0  0  0  0  0
  151.3602  140.3630  157.2288 C   0  0  0  0  0  0  0  0  0  0  0  0
  151.7110  141.7051  157.9070 C   0  0  0  0  0  0  0  0  0  0  0  0
  152.7442  141.4673  158.8535 O   0  0  0  0  0  0  0  0  0  0  0  0
  152.7515  142.2071  160.0180 C   0  0  0  0  0  0  0  0  0  0  0  0
  152.1666  143.4939  160.1400 C   0  0  0  0  0  0  0  0  0  0  0  0
  152.2143  144.1886  161.3639 C   0  0  0  0  0  0  0  0  0  0  0  0
  152.8448  143.6104  162.4805 C   0  0  0  0  0  0  0  0  0  0  0  0
  153.4281  142.3350  162.3711 C   0  0  0  0  0  0  0  0  0  0  0  0
  153.3818  141.6378  161.1476 C   0  0  0  0  0  0  0  0  0  0  0  0
  154.1067  140.0734  161.0432 Cl  0  0  0  0  0  0  0  0  0  0  0  0
  149.9711  138.6165  153.1458 H   0  0  0  0  0  0  0  0  0  0  0  0
  147.8864  139.9484  153.1454 H   0  0  0  0  0  0  0  0  0  0  0  0
  147.3861  141.4404  154.9623 H   0  0  0  0  0  0  0  0  0  0  0  0
  151.0057  139.7183  158.0334 H   0  0  0  0  0  0  0  0  0  0  0  0
  152.3084  139.9701  156.8612 H   0  0  0  0  0  0  0  0  0  0  0  0
  152.0662  142.4246  157.1673 H   0  0  0  0  0  0  0  0  0  0  0  0
  150.8403  142.1088  158.4263 H   0  0  0  0  0  0  0  0  0  0  0  0
  151.6737  143.9717  159.3071 H   0  0  0  0  0  0  0  0  0  0  0  0
  151.7656  145.1676  161.4450 H   0  0  0  0  0  0  0  0  0  0  0  0
  152.8810  144.1440  163.4190 H   0  0  0  0  0  0  0  0  0  0  0  0
  153.9124  141.8908  163.2283 H   0  0  0  0  0  0  0  0  0  0  0  0
  1  2  2  0  0  0  0
  2  3  1  0  0  0  0
  2  4  1  0  0  0  0
  4 10  1  0  0  0  0
  4  5  2  0  0  0  0
  5  6  1  0  0  0  0
  5 21  1  0  0  0  0
  6  7  2  0  0  0  0
  6 22  1  0  0  0  0
  7  8  1  0  0  0  0
  7 23  1  0  0  0  0
  8  9  2  0  0  0  0
  8 10  1  0  0  0  0
 10 11  1  0  0  0  0
 11 12  1  0  0  0  0
 11 24  1  0  0  0  0
 11 25  1  0  0  0  0
 12 13  1  0  0  0  0
 12 26  1  0  0  0  0
 12 27  1  0  0  0  0
 13 14  1  0  0  0  0
 14 19  1  0  0  0  0
 14 15  2  0  0  0  0
 15 16  1  0  0  0  0
 15 28  1  0  0  0  0
 16 17  2  0  0  0  0
 16 29  1  0  0  0  0
 17 18  1  0  0  0  0
 17 30  1  0  0  0  0
 18 19  2  0  0  0  0
 18 31  1  0  0  0  0
 19 20  1  0  0  0  0
M  CHG  1   3  -1
M  END
> <s_m_source_file>
AV-unprocessed.smi

> <i_m_source_file_index>
918

> <i_lp_mmshare_version>
43012

> <i_f3d_flags>
0

> <s_epik_input>
Tz1DKFtPSF0pYzFbY0hdW2NIXVtjSF1jKD1PKW4xW0NIMl1bQ0gyXU9jMltjSF1bY0hdW2NIXVtjSF1jMkNs

> <s_epik_cmdline>
J2VwaWtfcHl0aG9uJywgJy1waCcsICc3LjAnLCAnLXRuJywgJzgnLCAnLW1hJywgJzIwMCcsICctbWV0YWxfYmluZGluZycsICctaW1hZScsICc8aW5maWxlLm1hZT4nLCAnLW9tYWUnLCAnPG91dGZpbGUubWFlPic=

> <r_lp_tautomer_probability>
1

> <r_epik_Ionization_Penalty>
4.91901e-05

> <r_epik_Ionization_Penalty_Charging>
4.91901e-05

> <r_epik_Ionization_Penalty_Neutral>
0

> <r_epik_State_Penalty>
-0

> <r_epik_Charging_Adjusted_Penalty>
4.91901e-05

> <i_epik_Tot_Q>
-1

> <i_epik_Tot_abs_Q>
1

> <r_epik_Metal_State_Penalty>
-0

> <b_epik_Metal_Only>
0

> <s_lp_Force_Field>
OPLS_2005

> <r_lp_Energy>
37.328

> <b_lp_Chiralities_Consistent>
1

> <s_lp_Variant>
AV-unprocessed.smi:918-1

> <Gold.Version>
5.8.1

> <Gold.Id.Protein>
6NUR|6NUR_protein|mol2

> <Gold.PLP.Fitness>
54.4225

> <Gold.PLP.PLP>
-45.4092

> <Gold.PLP.part.hbond>
-2.0000

> <Gold.PLP.part.metal>
0.0000

> <Gold.PLP.part.buried>
-2.3857

> <Gold.PLP.part.nonpolar>
-41.6524

> <Gold.PLP.part.repulsive>
0.2917

> <Gold.PLP.ligand.clash>
0.0000

> <Gold.PLP.ligand.torsion>
1.2027

> <Gold.PLP.Chemscore.Hbond>
3.7600

> <Gold.PLP.Chemscore.CHOScore>
0.0000

> <Gold.PLP.Chemscore.Metal>
0.0000

> <Gold.Chemscore.Hbonds>
donor molecule, donor type, donor heavy atom, donor atom, acceptor molecule, acceptor atom, score
      P1  H  7997  8008       L1     1  2.00
      P1  H 10752 10763       L1     3  1.79

> <Gold.PLP.Chemscore.Internal.Correction>
0.1387

> <Gold.Rescore>
     Score         DG    S(hbond)    S(metal)    S(lipo)     H(rot)  DE(clash)    DE(int)     intcor
     16.65     -20.72       1.74        0.00     116.33       1.64       0.24       3.82       ----

> <Gold.Chemscore.Fitness>
16.6509

> <Gold.Chemscore.DG>
-20.7174

> <Gold.Chemscore.ZeroCoef>
-5.4800

> <Gold.Chemscore.Hbond>
1.7443

> <Gold.Chemscore.Metal>
0.0000

> <Gold.Chemscore.Lipo>
116.3339

> <Gold.Chemscore.Internal_Hbond>
0.0000

> <Gold.Chemscore.DEClash>
0.2430

> <Gold.Chemscore.DEInternal>
3.8235

> <Gold.Chemscore.Rot>
1.6405

> <Gold.Chemscore.Internal.Correction>
   9.000000E+99

> <Gold.Chemscore.Hbonds>
donor molecule, donor type, donor heavy atom, donor atom, acceptor molecule, acceptor atom, score
      P1  H  7997  8008       L1     1  0.99
      P1  H 10752 10763       L1     3  0.86

> <Gold.Chemscore.Hbond.Weighted>
-5.8259

> <Gold.Chemscore.Metal.Weighted>
-0.0000

> <Gold.Chemscore.Lipo.Weighted>
-13.6111

> <Gold.Chemscore.Internal_Hbond.Weighted>
0.0000

> <Gold.Chemscore.DEClash.Weighted>
0.2430

> <Gold.Chemscore.DEInternal.Weighted>
3.8235

> <Gold.Chemscore.Rot.Weighted>
4.1996

> <Gold.Chemscore.Internal.Correction.Weighted>
   9.000000E+99

> <Gold.Protein.RotatedTorsions>
[ 6907 6896 6895 6894 ] final  -56.10 input  -60.11 | X-H torsion
[ 7974 7965 7964 7962 ] final   38.22 input  175.53 | X-H torsion
[ 8008 7997 7996 7995 ] final  -35.04 input   59.86 | X-H torsion
[ 10167 10162 10161 10158 ] final  178.38 input  -65.29 | X-H torsion
[ 10718 10713 10712 10709 ] final  160.56 input   66.30 | X-H torsion
[ 10763 10752 10751 10750 ] final   30.43 input  -60.55 | X-H torsion
[ 11005 11000 10999 10996 ] final  140.85 input  -57.11 | X-H torsion

> <Gold.Protein.ActiveResidues>
 VAL166  LYS551  ARG553  GLY616  TRP617  ASP618  TYR619  PRO620  LYS621  CYS622 
 ASP623  PHE694  ASN695  SER759  ASP760  ASP761  ALA762  ILE779  LEU786  VAL792 
 PHE793  MET794  SER795  GLU796  ALA797  LYS798  CYS799  TRP800  GLU811  SER814 

> <Gold.Protein.RotatedAtoms>
  150.8195  134.7396  159.6759 H   0  0  0  0  0  0  0  0  0  0  0  0  # atno 6907 bound_to 6896
  152.4312  134.5771  159.9947 H   0  0  0  0  0  0  0  0  0  0  0  0  # atno 6908 bound_to 6896
  151.5958  133.3324  159.3073 H   0  0  0  0  0  0  0  0  0  0  0  0  # atno 6909 bound_to 6896
  146.1078  139.5798  142.9372 H   0  0  0  0  0  0  0  0  0  0  0  0  # atno 7974 bound_to 7965
  154.4105  140.1668  156.2147 H   0  0  0  0  0  0  0  0  0  0  0  0  # atno 8008 bound_to 7997
  155.9415  140.3407  155.6308 H   0  0  0  0  0  0  0  0  0  0  0  0  # atno 8009 bound_to 7997
  155.6983  140.0742  157.2411 H   0  0  0  0  0  0  0  0  0  0  0  0  # atno 8010 bound_to 7997
  139.5291  144.2687  152.0646 H   0  0  0  0  0  0  0  0  0  0  0  0  # atno 10167 bound_to 10162
  157.1487  131.0558  151.2291 H   0  0  0  0  0  0  0  0  0  0  0  0  # atno 10718 bound_to 10713
  153.0372  135.6464  154.1044 H   0  0  0  0  0  0  0  0  0  0  0  0  # atno 10763 bound_to 10752
  154.0757  135.2877  155.3301 H   0  0  0  0  0  0  0  0  0  0  0  0  # atno 10764 bound_to 10752
  154.6564  135.5407  153.8028 H   0  0  0  0  0  0  0  0  0  0  0  0  # atno 10765 bound_to 10752
  140.0358  134.9329  157.0749 H   0  0  0  0  0  0  0  0  0  0  0  0  # atno 11005 bound_to 11000
  145.5725  141.0392  143.2166 LP  0  0  0  0  0  0  0  0  0  0  0  0  # atno 17320 bound_to 7965
  144.7486  139.7254  143.7282 LP  0  0  0  0  0  0  0  0  0  0  0  0  # atno 17321 bound_to 7965
  140.2148  144.4526  150.6369 LP  0  0  0  0  0  0  0  0  0  0  0  0  # atno 17342 bound_to 10162
  140.6457  143.2213  151.6191 LP  0  0  0  0  0  0  0  0  0  0  0  0  # atno 17343 bound_to 10162
  157.4240  130.7453  149.6936 LP  0  0  0  0  0  0  0  0  0  0  0  0  # atno 17370 bound_to 10713
  155.9774  130.4063  150.3711 LP  0  0  0  0  0  0  0  0  0  0  0  0  # atno 17371 bound_to 10713
  140.4150  134.1941  155.7163 LP  0  0  0  0  0  0  0  0  0  0  0  0  # atno 17394 bound_to 11000
  141.1856  133.8319  157.1098 LP  0  0  0  0  0  0  0  0  0  0  0  0  # atno 17395 bound_to 11000

$$$$
