AV-unprocessed.smi:37|AV-procd|sdf|309|dock10
  -GOLD-   2262016123D 1   1.00000     0.00000
 Structure written by MMmdl.
 44 45  0  0  0  0  0  0  0  0  1 V2000
  151.9760  137.8314  163.4300 C   0  0  0  0  0  0  0  0  0  0  0  0
  152.8313  138.2327  162.2208 C   0  0  0  0  0  0  0  0  0  0  0  0
  152.1711  137.8581  160.8959 C   0  0  0  0  0  0  0  0  0  0  0  0
  151.9705  136.6823  160.5905 O   0  0  0  0  0  0  0  0  0  0  0  0
  151.8687  138.9330  160.1474 O   0  0  0  0  0  0  0  0  0  0  0  0
  151.0131  138.8040  159.0220 C   0  0  0  0  0  0  0  0  0  0  0  0
  150.7432  140.1946  158.4327 C   0  0  2  0  0  0  0  0  0  0  0  0
  149.8111  140.0481  157.3626 O   0  0  0  0  0  0  0  0  0  0  0  0
  150.3411  140.5952  156.1973 C   0  0  2  0  0  0  0  0  0  0  0  0
  149.8203  139.8635  154.9776 N   0  0  0  0  0  0  0  0  0  0  0  0
  148.9741  138.7775  155.1508 C   0  0  0  0  0  0  0  0  0  0  0  0
  148.4757  138.0545  154.1203 C   0  0  0  0  0  0  0  0  0  0  0  0
  147.6537  137.0215  154.3711 F   0  0  0  0  0  0  0  0  0  0  0  0
  148.8226  138.3866  152.7422 C   0  0  0  0  0  0  0  0  0  0  0  0
  148.4208  137.7939  151.7430 O   0  0  0  0  0  0  0  0  0  0  0  0
  149.6880  139.4761  152.6128 N   0  0  0  0  0  0  0  0  0  0  0  0
  150.2105  140.2291  153.6658 C   0  0  0  0  0  0  0  0  0  0  0  0
  150.9767  141.1600  153.4227 O   0  0  0  0  0  0  0  0  0  0  0  0
  151.8691  140.6362  156.3426 C   0  0  2  0  0  0  0  0  0  0  0  0
  152.8233  138.9530  155.8501 Br  0  0  0  0  0  0  0  0  0  0  0  0
  152.0045  140.8523  157.8418 C   0  0  1  0  0  0  0  0  0  0  0  0
  151.9827  142.2406  158.1573 O   0  0  0  0  0  0  0  0  0  0  0  0
  152.3635  142.6674  159.3750 C   0  0  0  0  0  0  0  0  0  0  0  0
  152.9137  141.9799  160.2368 O   0  0  0  0  0  0  0  0  0  0  0  0
  152.0420  144.1480  159.5883 C   0  0  0  0  0  0  0  0  0  0  0  0
  152.6256  145.0659  158.5039 C   0  0  0  0  0  0  0  0  0  0  0  0
  149.9627  139.7384  151.6773 H   0  0  0  0  0  0  0  0  0  0  0  0
  152.4795  138.0964  164.3597 H   0  0  0  0  0  0  0  0  0  0  0  0
  151.7951  136.7561  163.4478 H   0  0  0  0  0  0  0  0  0  0  0  0
  151.0096  138.3370  163.4236 H   0  0  0  0  0  0  0  0  0  0  0  0
  153.0115  139.3077  162.2314 H   0  0  0  0  0  0  0  0  0  0  0  0
  153.8063  137.7481  162.2793 H   0  0  0  0  0  0  0  0  0  0  0  0
  151.4432  138.1563  158.2576 H   0  0  0  0  0  0  0  0  0  0  0  0
  150.0793  138.3431  159.3447 H   0  0  0  0  0  0  0  0  0  0  0  0
  150.2960  140.8260  159.2020 H   0  0  0  0  0  0  0  0  0  0  0  0
  149.9283  141.6035  156.1275 H   0  0  0  0  0  0  0  0  0  0  0  0
  148.6840  138.4935  156.1525 H   0  0  0  0  0  0  0  0  0  0  0  0
  152.2920  141.4406  155.7399 H   0  0  0  0  0  0  0  0  0  0  0  0
  152.9148  140.3992  158.2377 H   0  0  0  0  0  0  0  0  0  0  0  0
  150.9586  144.2653  159.6240 H   0  0  0  0  0  0  0  0  0  0  0  0
  152.4239  144.4464  160.5649 H   0  0  0  0  0  0  0  0  0  0  0  0
  152.3770  146.1074  158.7086 H   0  0  0  0  0  0  0  0  0  0  0  0
  152.2287  144.8202  157.5183 H   0  0  0  0  0  0  0  0  0  0  0  0
  153.7126  144.9898  158.4602 H   0  0  0  0  0  0  0  0  0  0  0  0
  1  2  1  0  0  0  0
  1 28  1  0  0  0  0
  1 29  1  0  0  0  0
  1 30  1  0  0  0  0
  2  3  1  0  0  0  0
  2 31  1  0  0  0  0
  2 32  1  0  0  0  0
  3  4  2  0  0  0  0
  3  5  1  0  0  0  0
  5  6  1  0  0  0  0
  6  7  1  0  0  0  0
  6 33  1  0  0  0  0
  6 34  1  0  0  0  0
  7 21  1  0  0  0  0
  7  8  1  0  0  0  0
  7 35  1  0  0  0  0
  8  9  1  0  0  0  0
  9 10  1  0  0  0  0
  9 19  1  0  0  0  0
  9 36  1  0  0  0  0
 10 17  1  0  0  0  0
 10 11  1  0  0  0  0
 11 12  2  0  0  0  0
 11 37  1  0  0  0  0
 12 13  1  0  0  0  0
 12 14  1  0  0  0  0
 14 15  2  0  0  0  0
 14 16  1  0  0  0  0
 16 27  1  0  0  0  0
 16 17  1  0  0  0  0
 17 18  2  0  0  0  0
 19 20  1  0  0  0  0
 19 21  1  0  0  0  0
 19 38  1  0  0  0  0
 21 22  1  0  0  0  0
 21 39  1  0  0  0  0
 22 23  1  0  0  0  0
 23 24  2  0  0  0  0
 23 25  1  0  0  0  0
 25 26  1  0  0  0  0
 25 40  1  0  0  0  0
 25 41  1  0  0  0  0
 26 42  1  0  0  0  0
 26 43  1  0  0  0  0
 26 44  1  0  0  0  0
M  END
> <s_m_source_file>
AV-unprocessed.smi

> <i_m_source_file_index>
37

> <i_lp_mmshare_version>
43012

> <i_f3d_flags>
0

> <s_epik_input>
W0NIM11bQ0gyXUMoPU8pT1tDSDJdW0NAQEhdMU9bQ0BASF0objJbY0hdYyhGKWMoPU8pW25IXWMyPU8pW0NAQEhdKEJyKVtDQEhdMU9DKD1PKVtDSDJdW0NIM10=

> <s_epik_cmdline>
J2VwaWtfcHl0aG9uJywgJy1waCcsICc3LjAnLCAnLXRuJywgJzgnLCAnLW1hJywgJzIwMCcsICctbWV0YWxfYmluZGluZycsICctaW1hZScsICc8aW5maWxlLm1hZT4nLCAnLW9tYWUnLCAnPG91dGZpbGUubWFlPic=

> <r_lp_tautomer_probability>
0.999537

> <r_epik_Ionization_Penalty>
0.104106

> <r_epik_Ionization_Penalty_Charging>
0.104106

> <r_epik_Ionization_Penalty_Neutral>
3.94675e-16

> <r_epik_State_Penalty>
0.0940182

> <r_epik_Charging_Adjusted_Penalty>
0.198124

> <i_epik_Tot_Q>
0

> <i_epik_Tot_abs_Q>
0

> <r_epik_Metal_State_Penalty>
3.05314

> <b_epik_Metal_Only>
0

> <s_epik_Chemistry_Notes>
This compound has an ester and may undergo hydrolysis at high or low pH. This compound contains an acetal/aminal-like group ( X-CH(R)-Y where X, Y are N, S, or O) that may be acid/base labile, releasing an aldehyde.

> <s_lp_Force_Field>
OPLS_2005

> <r_lp_Energy>
23.3394

> <b_lp_Chiralities_Consistent>
1

> <s_lp_Variant>
AV-unprocessed.smi:37-7

> <Gold.Version>
5.8.1

> <Gold.Id.Protein>
6NUR|6NUR_protein|mol2

> <Gold.PLP.Fitness>
46.0776

> <Gold.PLP.PLP>
-41.0807

> <Gold.PLP.part.hbond>
-4.0000

> <Gold.PLP.part.metal>
0.0000

> <Gold.PLP.part.buried>
-5.9328

> <Gold.PLP.part.nonpolar>
-32.2248

> <Gold.PLP.part.repulsive>
0.9899

> <Gold.PLP.ligand.clash>
0.0000

> <Gold.PLP.ligand.torsion>
0.4569

> <Gold.PLP.Chemscore.Hbond>
1.9250

> <Gold.PLP.Chemscore.CHOScore>
0.0000

> <Gold.PLP.Chemscore.Metal>
0.0000

> <Gold.Chemscore.Hbonds>
donor molecule, donor type, donor heavy atom, donor atom, acceptor molecule, acceptor atom, score
      P1  H  6896  6907       L1     4  0.86
      P1  H  7954  7966       L1    15  0.75
      P1  H  8011  8017       L1    18  0.53

> <Gold.PLP.Chemscore.Internal.Correction>
0.1357

> <Gold.Rescore>
     Score         DG    S(hbond)    S(metal)    S(lipo)     H(rot)  DE(clash)    DE(int)     intcor
      9.80     -10.95       1.72        0.00      70.61       3.33       0.70       0.45       ----

> <Gold.Chemscore.Fitness>
9.8000

> <Gold.Chemscore.DG>
-10.9538

> <Gold.Chemscore.ZeroCoef>
-5.4800

> <Gold.Chemscore.Hbond>
1.7180

> <Gold.Chemscore.Metal>
0.0000

> <Gold.Chemscore.Lipo>
70.6082

> <Gold.Chemscore.Internal_Hbond>
0.0000

> <Gold.Chemscore.DEClash>
0.7014

> <Gold.Chemscore.DEInternal>
0.4523

> <Gold.Chemscore.Rot>
3.3303

> <Gold.Chemscore.Internal.Correction>
   9.000000E+99

> <Gold.Chemscore.Hbonds>
donor molecule, donor type, donor heavy atom, donor atom, acceptor molecule, acceptor atom, score
      P1  H  6896  6907       L1     4  0.85
      P1  H  7954  7966       L1    15  0.74
      P1  H  8011  8017       L1    18  0.23

> <Gold.Chemscore.Hbond.Weighted>
-5.7382

> <Gold.Chemscore.Metal.Weighted>
-0.0000

> <Gold.Chemscore.Lipo.Weighted>
-8.2612

> <Gold.Chemscore.Internal_Hbond.Weighted>
0.0000

> <Gold.Chemscore.DEClash.Weighted>
0.7014

> <Gold.Chemscore.DEInternal.Weighted>
0.4523

> <Gold.Chemscore.Rot.Weighted>
8.5256

> <Gold.Chemscore.Internal.Correction.Weighted>
   9.000000E+99

> <Gold.Protein.RotatedTorsions>
[ 6907 6896 6895 6894 ] final   32.57 input  -60.11 | X-H torsion
[ 7974 7965 7964 7962 ] final   55.95 input  175.53 | X-H torsion
[ 8008 7997 7996 7995 ] final -131.61 input   59.86 | X-H torsion
[ 10167 10162 10161 10158 ] final  159.90 input  -65.29 | X-H torsion
[ 10718 10713 10712 10709 ] final   56.12 input   66.30 | X-H torsion
[ 10763 10752 10751 10750 ] final -135.43 input  -60.55 | X-H torsion
[ 11005 11000 10999 10996 ] final -145.49 input  -57.11 | X-H torsion

> <Gold.Protein.ActiveResidues>
 VAL166  LYS551  ARG553  GLY616  TRP617  ASP618  TYR619  PRO620  LYS621  CYS622 
 ASP623  PHE694  ASN695  SER759  ASP760  ASP761  ALA762  ILE779  LEU786  VAL792 
 PHE793  MET794  SER795  GLU796  ALA797  LYS798  CYS799  TRP800  GLU811  SER814 

> <Gold.Protein.RotatedAtoms>
  152.0764  134.9500  160.0573 H   0  0  0  0  0  0  0  0  0  0  0  0  # atno 6907 bound_to 6896
  152.0806  133.4146  159.4507 H   0  0  0  0  0  0  0  0  0  0  0  0  # atno 6908 bound_to 6896
  150.6836  134.2906  159.4709 H   0  0  0  0  0  0  0  0  0  0  0  0  # atno 6909 bound_to 6896
  145.9450  139.3921  143.0341 H   0  0  0  0  0  0  0  0  0  0  0  0  # atno 7974 bound_to 7965
  155.3152  140.0459  157.3037 H   0  0  0  0  0  0  0  0  0  0  0  0  # atno 8008 bound_to 7997
  154.5411  140.2288  155.8606 H   0  0  0  0  0  0  0  0  0  0  0  0  # atno 8009 bound_to 7997
  156.1881  140.3057  155.9285 H   0  0  0  0  0  0  0  0  0  0  0  0  # atno 8010 bound_to 7997
  139.4836  144.4685  151.8608 H   0  0  0  0  0  0  0  0  0  0  0  0  # atno 10167 bound_to 10162
  157.5403  130.8693  149.8813 H   0  0  0  0  0  0  0  0  0  0  0  0  # atno 10718 bound_to 10713
  154.8703  135.3703  154.4898 H   0  0  0  0  0  0  0  0  0  0  0  0  # atno 10763 bound_to 10752
  153.5545  135.7024  153.5581 H   0  0  0  0  0  0  0  0  0  0  0  0  # atno 10764 bound_to 10752
  153.3684  135.4028  155.1734 H   0  0  0  0  0  0  0  0  0  0  0  0  # atno 10765 bound_to 10752
  140.7917  134.2961  157.5011 H   0  0  0  0  0  0  0  0  0  0  0  0  # atno 11005 bound_to 11000
  145.8249  140.9660  143.0879 LP  0  0  0  0  0  0  0  0  0  0  0  0  # atno 17320 bound_to 7965
  144.6785  140.0088  143.7484 LP  0  0  0  0  0  0  0  0  0  0  0  0  # atno 17321 bound_to 7965
  140.4152  144.2316  150.5888 LP  0  0  0  0  0  0  0  0  0  0  0  0  # atno 17342 bound_to 10162
  140.4927  143.2342  151.8795 LP  0  0  0  0  0  0  0  0  0  0  0  0  # atno 17343 bound_to 10162
  156.0492  130.3721  150.1243 LP  0  0  0  0  0  0  0  0  0  0  0  0  # atno 17370 bound_to 10713
  156.9423  130.9748  151.3514 LP  0  0  0  0  0  0  0  0  0  0  0  0  # atno 17371 bound_to 10713
  139.8730  134.9378  156.3698 LP  0  0  0  0  0  0  0  0  0  0  0  0  # atno 17394 bound_to 11000
  140.9383  133.7532  156.0113 LP  0  0  0  0  0  0  0  0  0  0  0  0  # atno 17395 bound_to 11000

$$$$
