AV-unprocessed.smi:2330|AV-procd|sdf|9310|dock2
  -GOLD-   2272012523D 1   1.00000     0.00000
 Structure written by MMmdl.
 42 43  0  0  0  0  0  0  0  0  1 V2000
  151.6605  145.6751  159.5787 C   0  0  0  0  0  0  0  0  0  0  0  0
  152.5160  144.4921  160.0546 C   0  0  2  0  0  0  0  0  0  0  0  0
  152.7679  143.4844  158.9168 C   0  0  0  0  0  0  0  0  0  0  0  0
  153.6214  142.2965  159.3893 C   0  0  0  0  0  0  0  0  0  0  0  0
  152.9867  141.5921  160.6059 C   0  0  1  0  0  0  0  0  0  0  0  0
  153.8539  140.5200  161.0850 N   0  0  0  0  0  0  0  0  0  0  0  0
  154.4955  139.6400  160.3039 C   0  0  0  0  0  0  0  0  0  0  0  0
  154.4020  139.6073  159.0768 O   0  0  0  0  0  0  0  0  0  0  0  0
  155.2737  138.8163  161.0190 N   0  0  0  0  0  0  0  0  0  0  0  0
  156.1673  137.8080  160.4550 C   0  0  0  0  0  0  0  0  0  0  0  0
  156.6221  136.7582  161.4940 C   0  0  2  0  0  0  0  0  0  0  0  0
  157.0701  135.4367  160.8533 C   0  0  0  0  0  0  0  0  0  0  0  0
  155.6258  136.5463  162.5940 C   0  0  0  0  0  0  0  0  0  0  0  0
  155.1687  137.5251  163.3819 N   0  0  0  0  0  0  0  0  0  0  0  0
  154.2660  137.0620  164.3422 C   0  0  0  0  0  0  0  0  0  0  0  0
  154.0456  135.7097  164.2793 C   0  0  0  0  0  0  0  0  0  0  0  0
  154.9669  134.9644  163.0024 S   0  0  0  0  0  0  0  0  0  0  0  0
  152.7303  142.5980  161.7428 C   0  0  0  0  0  0  0  0  0  0  0  0
  151.8767  143.7838  161.2642 C   0  0  0  0  0  0  0  0  0  0  0  0
  150.6774  145.3442  159.2423 H   0  0  0  0  0  0  0  0  0  0  0  0
  152.1383  146.1963  158.7490 H   0  0  0  0  0  0  0  0  0  0  0  0
  151.5122  146.3995  160.3802 H   0  0  0  0  0  0  0  0  0  0  0  0
  153.4812  144.8917  160.3699 H   0  0  0  0  0  0  0  0  0  0  0  0
  151.8156  143.1156  158.5331 H   0  0  0  0  0  0  0  0  0  0  0  0
  153.2650  143.9800  158.0824 H   0  0  0  0  0  0  0  0  0  0  0  0
  153.7469  141.5903  158.5676 H   0  0  0  0  0  0  0  0  0  0  0  0
  154.6213  142.6497  159.6463 H   0  0  0  0  0  0  0  0  0  0  0  0
  152.0267  141.1663  160.3071 H   0  0  0  0  0  0  0  0  0  0  0  0
  153.9996  140.4654  162.0824 H   0  0  0  0  0  0  0  0  0  0  0  0
  155.2844  138.9217  162.0229 H   0  0  0  0  0  0  0  0  0  0  0  0
  155.6231  137.3112  159.6514 H   0  0  0  0  0  0  0  0  0  0  0  0
  157.0300  138.2890  159.9911 H   0  0  0  0  0  0  0  0  0  0  0  0
  157.5118  137.1660  161.9754 H   0  0  0  0  0  0  0  0  0  0  0  0
  157.4820  134.7582  161.6011 H   0  0  0  0  0  0  0  0  0  0  0  0
  157.8410  135.6069  160.1014 H   0  0  0  0  0  0  0  0  0  0  0  0
  156.2367  134.9301  160.3656 H   0  0  0  0  0  0  0  0  0  0  0  0
  153.8272  137.7659  165.0340 H   0  0  0  0  0  0  0  0  0  0  0  0
  153.4004  135.1097  164.9036 H   0  0  0  0  0  0  0  0  0  0  0  0
  152.2313  142.1011  162.5757 H   0  0  0  0  0  0  0  0  0  0  0  0
  153.6799  142.9711  162.1295 H   0  0  0  0  0  0  0  0  0  0  0  0
  151.7445  144.4913  162.0835 H   0  0  0  0  0  0  0  0  0  0  0  0
  150.8795  143.4294  160.9993 H   0  0  0  0  0  0  0  0  0  0  0  0
  1  2  1  0  0  0  0
  1 20  1  0  0  0  0
  1 21  1  0  0  0  0
  1 22  1  0  0  0  0
  2 19  1  0  0  0  0
  2  3  1  0  0  0  0
  2 23  1  0  0  0  0
  3  4  1  0  0  0  0
  3 24  1  0  0  0  0
  3 25  1  0  0  0  0
  4  5  1  0  0  0  0
  4 26  1  0  0  0  0
  4 27  1  0  0  0  0
  5  6  1  0  0  0  0
  5 18  1  0  0  0  0
  5 28  1  0  0  0  0
  6  7  1  0  0  0  0
  6 29  1  0  0  0  0
  7  8  2  0  0  0  0
  7  9  1  0  0  0  0
  9 10  1  0  0  0  0
  9 30  1  0  0  0  0
 10 11  1  0  0  0  0
 10 31  1  0  0  0  0
 10 32  1  0  0  0  0
 11 12  1  0  0  0  0
 11 13  1  0  0  0  0
 11 33  1  0  0  0  0
 12 34  1  0  0  0  0
 12 35  1  0  0  0  0
 12 36  1  0  0  0  0
 13 17  1  0  0  0  0
 13 14  2  0  0  0  0
 14 15  1  0  0  0  0
 15 16  2  0  0  0  0
 15 37  1  0  0  0  0
 16 17  1  0  0  0  0
 16 38  1  0  0  0  0
 18 19  1  0  0  0  0
 18 39  1  0  0  0  0
 18 40  1  0  0  0  0
 19 41  1  0  0  0  0
 19 42  1  0  0  0  0
M  END
> <s_m_source_file>
AV-unprocessed.smi

> <i_m_source_file_index>
2330

> <i_lp_mmshare_version>
43012

> <i_f3d_flags>
0

> <s_epik_input>
W0NIM11bQ0BASF0xW0NIMl1bQ0gyXVtDQEhdKFtDSDJdW0NIMl0xKVtOSF1DKD1PKVtOSF1bQ0gyXVtDQEhdKFtDSDNdKWMybltjSF1bY0hdczI=

> <s_epik_cmdline>
J2VwaWtfcHl0aG9uJywgJy1waCcsICc3LjAnLCAnLXRuJywgJzgnLCAnLW1hJywgJzIwMCcsICctbWV0YWxfYmluZGluZycsICctaW1hZScsICc8aW5maWxlLm1hZT4nLCAnLW9tYWUnLCAnPG91dGZpbGUubWFlPic=

> <r_lp_tautomer_probability>
1

> <r_epik_Ionization_Penalty>
0.000331107

> <r_epik_Ionization_Penalty_Charging>
0

> <r_epik_Ionization_Penalty_Neutral>
0.000331107

> <r_epik_State_Penalty>
-0

> <r_epik_Charging_Adjusted_Penalty>
0

> <i_epik_Tot_Q>
0

> <i_epik_Tot_abs_Q>
0

> <r_epik_Metal_State_Penalty>
-0

> <b_epik_Metal_Only>
0

> <s_lp_Force_Field>
OPLS_2005

> <r_lp_Energy>
-1.82221

> <b_lp_Chiralities_Consistent>
1

> <s_lp_Variant>
AV-unprocessed.smi:2330-1

> <Gold.Version>
5.8.1

> <Gold.Id.Protein>
6NUR|6NUR_protein|mol2

> <Gold.PLP.Fitness>
40.8228

> <Gold.PLP.PLP>
-39.0557

> <Gold.PLP.part.hbond>
-1.0000

> <Gold.PLP.part.metal>
0.0000

> <Gold.PLP.part.buried>
-3.9624

> <Gold.PLP.part.nonpolar>
-33.6411

> <Gold.PLP.part.repulsive>
0.0492

> <Gold.PLP.ligand.clash>
0.0000

> <Gold.PLP.ligand.torsion>
0.6753

> <Gold.PLP.Chemscore.Hbond>
1.0000

> <Gold.PLP.Chemscore.CHOScore>
0.0000

> <Gold.PLP.Chemscore.Metal>
0.0000

> <Gold.Chemscore.Hbonds>
donor molecule, donor type, donor heavy atom, donor atom, acceptor molecule, acceptor atom, score
      P1  H  7997  8009       L1     8  1.00

> <Gold.PLP.Chemscore.Internal.Correction>
0.1178

> <Gold.Rescore>
     Score         DG    S(hbond)    S(metal)    S(lipo)     H(rot)  DE(clash)    DE(int)     intcor
     15.48     -18.73       1.00        0.00     116.56       1.45       0.04       3.21       ----

> <Gold.Chemscore.Fitness>
15.4822

> <Gold.Chemscore.DG>
-18.7334

> <Gold.Chemscore.ZeroCoef>
-5.4800

> <Gold.Chemscore.Hbond>
0.9990

> <Gold.Chemscore.Metal>
0.0000

> <Gold.Chemscore.Lipo>
116.5643

> <Gold.Chemscore.Internal_Hbond>
0.0000

> <Gold.Chemscore.DEClash>
0.0446

> <Gold.Chemscore.DEInternal>
3.2066

> <Gold.Chemscore.Rot>
1.4536

> <Gold.Chemscore.Internal.Correction>
   9.000000E+99

> <Gold.Chemscore.Hbonds>
donor molecule, donor type, donor heavy atom, donor atom, acceptor molecule, acceptor atom, score
      P1  H  7997  8009       L1     8  0.99

> <Gold.Chemscore.Hbond.Weighted>
-3.3366

> <Gold.Chemscore.Metal.Weighted>
-0.0000

> <Gold.Chemscore.Lipo.Weighted>
-13.6380

> <Gold.Chemscore.Internal_Hbond.Weighted>
0.0000

> <Gold.Chemscore.DEClash.Weighted>
0.0446

> <Gold.Chemscore.DEInternal.Weighted>
3.2066

> <Gold.Chemscore.Rot.Weighted>
3.7212

> <Gold.Chemscore.Internal.Correction.Weighted>
   9.000000E+99

> <Gold.Protein.RotatedTorsions>
[ 6907 6896 6895 6894 ] final -143.39 input  -60.11 | X-H torsion
[ 7974 7965 7964 7962 ] final   46.70 input  175.53 | X-H torsion
[ 8008 7997 7996 7995 ] final  120.82 input   59.86 | X-H torsion
[ 10167 10162 10161 10158 ] final -173.34 input  -65.29 | X-H torsion
[ 10718 10713 10712 10709 ] final   74.96 input   66.30 | X-H torsion
[ 10763 10752 10751 10750 ] final   -7.28 input  -60.55 | X-H torsion
[ 11005 11000 10999 10996 ] final  -37.11 input  -57.11 | X-H torsion

> <Gold.Protein.ActiveResidues>
 VAL166  LYS551  ARG553  GLY616  TRP617  ASP618  TYR619  PRO620  LYS621  CYS622 
 ASP623  PHE694  ASN695  SER759  ASP760  ASP761  ALA762  ILE779  LEU786  VAL792 
 PHE793  MET794  SER795  GLU796  ALA797  LYS798  CYS799  TRP800  GLU811  SER814 

> <Gold.Protein.RotatedAtoms>
  151.0998  133.5252  159.2610 H   0  0  0  0  0  0  0  0  0  0  0  0  # atno 6907 bound_to 6896
  151.2087  135.0472  159.8912 H   0  0  0  0  0  0  0  0  0  0  0  0  # atno 6908 bound_to 6896
  152.5442  134.0817  159.8292 H   0  0  0  0  0  0  0  0  0  0  0  0  # atno 6909 bound_to 6896
  146.0366  139.4828  142.9804 H   0  0  0  0  0  0  0  0  0  0  0  0  # atno 7974 bound_to 7965
  156.2659  140.2822  156.1210 H   0  0  0  0  0  0  0  0  0  0  0  0  # atno 8008 bound_to 7997
  155.1156  140.0391  157.2753 H   0  0  0  0  0  0  0  0  0  0  0  0  # atno 8009 bound_to 7997
  154.6709  140.2587  155.7014 H   0  0  0  0  0  0  0  0  0  0  0  0  # atno 8010 bound_to 7997
  139.5694  144.1678  152.1361 H   0  0  0  0  0  0  0  0  0  0  0  0  # atno 10167 bound_to 10162
  157.6614  130.9703  150.1285 H   0  0  0  0  0  0  0  0  0  0  0  0  # atno 10718 bound_to 10713
  153.4241  135.7010  153.6274 H   0  0  0  0  0  0  0  0  0  0  0  0  # atno 10763 bound_to 10752
  153.4717  135.3713  155.2394 H   0  0  0  0  0  0  0  0  0  0  0  0  # atno 10764 bound_to 10752
  154.8723  135.4044  154.3614 H   0  0  0  0  0  0  0  0  0  0  0  0  # atno 10765 bound_to 10752
  140.9927  133.6996  156.1878 H   0  0  0  0  0  0  0  0  0  0  0  0  # atno 11005 bound_to 11000
  145.6953  141.0152  143.1533 LP  0  0  0  0  0  0  0  0  0  0  0  0  # atno 17320 bound_to 7965
  144.7055  139.8581  143.7431 LP  0  0  0  0  0  0  0  0  0  0  0  0  # atno 17321 bound_to 7965
  140.1207  144.5375  150.6864 LP  0  0  0  0  0  0  0  0  0  0  0  0  # atno 17342 bound_to 10162
  140.6978  143.2415  151.4951 LP  0  0  0  0  0  0  0  0  0  0  0  0  # atno 17343 bound_to 10162
  156.2138  130.3668  149.8638 LP  0  0  0  0  0  0  0  0  0  0  0  0  # atno 17370 bound_to 10713
  156.6509  130.8743  151.3531 LP  0  0  0  0  0  0  0  0  0  0  0  0  # atno 17371 bound_to 10713
  140.7015  134.4559  157.5586 LP  0  0  0  0  0  0  0  0  0  0  0  0  # atno 17394 bound_to 11000
  139.9000  134.8579  156.1938 LP  0  0  0  0  0  0  0  0  0  0  0  0  # atno 17395 bound_to 11000

$$$$
