AV-unprocessed.smi:1766|AV-procd|sdf|7136|dock6
  -GOLD-   22720 8373D 1   1.00000     0.00000
 Structure written by MMmdl.
 39 41  0  0  0  0  0  0  0  0  1 V2000
  154.5140  136.6347  158.3897 N   0  0  0  0  0  0  0  0  0  0  0  0
  154.1552  137.9144  158.5231 C   0  0  0  0  0  0  0  0  0  0  0  0
  154.9429  138.8378  158.3295 O   0  0  0  0  0  0  0  0  0  0  0  0
  152.7034  138.1966  158.9272 C   0  0  0  0  0  0  0  0  0  0  0  0
  152.5076  139.6861  159.0408 C   0  0  0  0  0  0  0  0  0  0  0  0
  153.1838  140.4140  159.9337 N   0  0  0  0  0  0  0  0  0  0  0  0
  152.7231  141.6941  159.7023 C   0  0  0  0  0  0  0  0  0  0  0  0
  153.0699  142.9189  160.3161 C   0  0  0  0  0  0  0  0  0  0  0  0
  152.4593  144.1216  159.9047 C   0  0  0  0  0  0  0  0  0  0  0  0
  151.4942  144.1161  158.8770 C   0  0  0  0  0  0  0  0  0  0  0  0
  151.1323  142.9058  158.2554 C   0  0  0  0  0  0  0  0  0  0  0  0
  151.7467  141.7076  158.6679 C   0  0  0  0  0  0  0  0  0  0  0  0
  151.6277  140.3784  158.2688 N   0  0  0  0  0  0  0  0  0  0  0  0
  150.7332  139.8812  157.2298 C   0  0  0  0  0  0  0  0  0  0  0  0
  150.7837  140.7307  155.9442 C   0  0  1  0  0  0  0  0  0  0  0  0
  151.3950  139.9608  154.9295 O   0  0  0  0  0  0  0  0  0  0  0  0
  149.4080  141.2390  155.5343 C   0  0  0  0  0  0  0  0  0  0  0  0
  148.5032  141.6909  156.5192 C   0  0  0  0  0  0  0  0  0  0  0  0
  147.2168  142.1318  156.1535 C   0  0  0  0  0  0  0  0  0  0  0  0
  146.8276  142.1249  154.8005 C   0  0  0  0  0  0  0  0  0  0  0  0
  145.5901  142.5470  154.4491 F   0  0  0  0  0  0  0  0  0  0  0  0
  147.7256  141.6766  153.8131 C   0  0  0  0  0  0  0  0  0  0  0  0
  149.0117  141.2339  154.1784 C   0  0  0  0  0  0  0  0  0  0  0  0
  155.4631  136.4047  158.1332 H   0  0  0  0  0  0  0  0  0  0  0  0
  153.8396  135.9012  158.5535 H   0  0  0  0  0  0  0  0  0  0  0  0
  152.0354  137.7524  158.1918 H   0  0  0  0  0  0  0  0  0  0  0  0
  152.4736  137.7318  159.8870 H   0  0  0  0  0  0  0  0  0  0  0  0
  153.8092  142.9332  161.1032 H   0  0  0  0  0  0  0  0  0  0  0  0
  152.7330  145.0524  160.3792 H   0  0  0  0  0  0  0  0  0  0  0  0
  151.0327  145.0416  158.5655 H   0  0  0  0  0  0  0  0  0  0  0  0
  150.3957  142.9015  157.4660 H   0  0  0  0  0  0  0  0  0  0  0  0
  150.9837  138.8416  157.0193 H   0  0  0  0  0  0  0  0  0  0  0  0
  149.7170  139.8605  157.6250 H   0  0  0  0  0  0  0  0  0  0  0  0
  151.4363  141.5874  156.1050 H   0  0  0  0  0  0  0  0  0  0  0  0
  150.7931  139.2807  154.6681 H   0  0  0  0  0  0  0  0  0  0  0  0
  148.7884  141.6900  157.5610 H   0  0  0  0  0  0  0  0  0  0  0  0
  146.5277  142.4722  156.9122 H   0  0  0  0  0  0  0  0  0  0  0  0
  147.4265  141.6684  152.7753 H   0  0  0  0  0  0  0  0  0  0  0  0
  149.6895  140.8811  153.4150 H   0  0  0  0  0  0  0  0  0  0  0  0
  1  2  1  0  0  0  0
  1 24  1  0  0  0  0
  1 25  1  0  0  0  0
  2  3  2  0  0  0  0
  2  4  1  0  0  0  0
  4  5  1  0  0  0  0
  4 26  1  0  0  0  0
  4 27  1  0  0  0  0
  5 13  1  0  0  0  0
  5  6  2  0  0  0  0
  6  7  1  0  0  0  0
  7 12  2  0  0  0  0
  7  8  1  0  0  0  0
  8  9  2  0  0  0  0
  8 28  1  0  0  0  0
  9 10  1  0  0  0  0
  9 29  1  0  0  0  0
 10 11  2  0  0  0  0
 10 30  1  0  0  0  0
 11 12  1  0  0  0  0
 11 31  1  0  0  0  0
 12 13  1  0  0  0  0
 13 14  1  0  0  0  0
 14 15  1  0  0  0  0
 14 32  1  0  0  0  0
 14 33  1  0  0  0  0
 15 16  1  0  0  0  0
 15 17  1  0  0  0  0
 15 34  1  0  0  0  0
 16 35  1  0  0  0  0
 17 23  1  0  0  0  0
 17 18  2  0  0  0  0
 18 19  1  0  0  0  0
 18 36  1  0  0  0  0
 19 20  2  0  0  0  0
 19 37  1  0  0  0  0
 20 21  1  0  0  0  0
 20 22  1  0  0  0  0
 22 23  2  0  0  0  0
 22 38  1  0  0  0  0
 23 39  1  0  0  0  0
M  END
> <s_m_source_file>
AV-unprocessed.smi

> <i_m_source_file_index>
1766

> <i_lp_mmshare_version>
43012

> <i_f3d_flags>
0

> <s_epik_input>
W2NIXTFbY0hdW2NIXVtjSF1jKGMxMiluKGMobjIpW0NIMl1DKD1PKVtOSDJdKVtDSDJdW0NASF0oW09IXSljM1tjSF1bY0hdYyhGKVtjSF1bY0hdMw==

> <s_epik_cmdline>
J2VwaWtfcHl0aG9uJywgJy1waCcsICc3LjAnLCAnLXRuJywgJzgnLCAnLW1hJywgJzIwMCcsICctbWV0YWxfYmluZGluZycsICctaW1hZScsICc8aW5maWxlLm1hZT4nLCAnLW9tYWUnLCAnPG91dGZpbGUubWFlPic=

> <r_epik_Ionization_Penalty>
0.0366901

> <r_epik_Ionization_Penalty_Charging>
0

> <r_epik_Ionization_Penalty_Neutral>
0.0366901

> <r_epik_State_Penalty>
0.0306642

> <r_epik_Charging_Adjusted_Penalty>
0.0306642

> <i_epik_Tot_Q>
0

> <i_epik_Tot_abs_Q>
0

> <r_epik_Metal_State_Penalty>
0.028853

> <b_epik_Metal_Only>
0

> <s_lp_Force_Field>
OPLS_2005

> <r_lp_Energy>
12.7053

> <b_lp_Chiralities_Consistent>
1

> <s_lp_Variant>
AV-unprocessed.smi:1766-2

> <Gold.Version>
5.8.1

> <Gold.Id.Protein>
6NUR|6NUR_protein|mol2

> <Gold.PLP.Fitness>
49.3247

> <Gold.PLP.PLP>
-46.0290

> <Gold.PLP.part.hbond>
-1.9458

> <Gold.PLP.part.metal>
0.0000

> <Gold.PLP.part.buried>
-3.7569

> <Gold.PLP.part.nonpolar>
-39.5061

> <Gold.PLP.part.repulsive>
0.1111

> <Gold.PLP.ligand.clash>
0.0000

> <Gold.PLP.ligand.torsion>
1.3757

> <Gold.PLP.Chemscore.Hbond>
2.0000

> <Gold.PLP.Chemscore.CHOScore>
0.0000

> <Gold.PLP.Chemscore.Metal>
0.0000

> <Gold.Chemscore.Hbonds>
donor molecule, donor type, donor heavy atom, donor atom, acceptor molecule, acceptor atom, score
      P1  H  7989  7998       L1    16  1.00
      P1  H  7997  8010       L1     3  1.00

> <Gold.PLP.Chemscore.Internal.Correction>
0.0471

> <Gold.Rescore>
     Score         DG    S(hbond)    S(metal)    S(lipo)     H(rot)  DE(clash)    DE(int)     intcor
     13.95     -16.82       1.84        0.00     109.76       2.99       0.03       2.85       ----

> <Gold.Chemscore.Fitness>
13.9452

> <Gold.Chemscore.DG>
-16.8191

> <Gold.Chemscore.ZeroCoef>
-5.4800

> <Gold.Chemscore.Hbond>
1.8389

> <Gold.Chemscore.Metal>
0.0000

> <Gold.Chemscore.Lipo>
109.7635

> <Gold.Chemscore.Internal_Hbond>
0.0000

> <Gold.Chemscore.DEClash>
0.0270

> <Gold.Chemscore.DEInternal>
2.8469

> <Gold.Chemscore.Rot>
2.9864

> <Gold.Chemscore.Internal.Correction>
   9.000000E+99

> <Gold.Chemscore.Hbonds>
donor molecule, donor type, donor heavy atom, donor atom, acceptor molecule, acceptor atom, score
      P1  H  7989  7998       L1    16  0.37
      P1  H  7997  8010       L1     3  0.93

> <Gold.Chemscore.Hbond.Weighted>
-6.1419

> <Gold.Chemscore.Metal.Weighted>
-0.0000

> <Gold.Chemscore.Lipo.Weighted>
-12.8423

> <Gold.Chemscore.Internal_Hbond.Weighted>
0.0000

> <Gold.Chemscore.DEClash.Weighted>
0.0270

> <Gold.Chemscore.DEInternal.Weighted>
2.8469

> <Gold.Chemscore.Rot.Weighted>
7.6451

> <Gold.Chemscore.Internal.Correction.Weighted>
   9.000000E+99

> <Gold.Protein.RotatedTorsions>
[ 6907 6896 6895 6894 ] final -107.37 input  -60.11 | X-H torsion
[ 7974 7965 7964 7962 ] final   10.23 input  175.53 | X-H torsion
[ 8008 7997 7996 7995 ] final   -2.31 input   59.86 | X-H torsion
[ 10167 10162 10161 10158 ] final    0.97 input  -65.29 | X-H torsion
[ 10718 10713 10712 10709 ] final   21.06 input   66.30 | X-H torsion
[ 10763 10752 10751 10750 ] final -134.76 input  -60.55 | X-H torsion
[ 11005 11000 10999 10996 ] final  -49.90 input  -57.11 | X-H torsion

> <Gold.Protein.ActiveResidues>
 VAL166  LYS551  ARG553  GLY616  TRP617  ASP618  TYR619  PRO620  LYS621  CYS622 
 ASP623  PHE694  ASN695  SER759  ASP760  ASP761  ALA762  ILE779  LEU786  VAL792 
 PHE793  MET794  SER795  GLU796  ALA797  LYS798  CYS799  TRP800  GLU811  SER814 

> <Gold.Protein.RotatedAtoms>
  150.7440  133.9836  159.3584 H   0  0  0  0  0  0  0  0  0  0  0  0  # atno 6907 bound_to 6896
  151.7779  135.0767  160.0379 H   0  0  0  0  0  0  0  0  0  0  0  0  # atno 6908 bound_to 6896
  152.3294  133.5904  159.5835 H   0  0  0  0  0  0  0  0  0  0  0  0  # atno 6909 bound_to 6896
  146.2391  139.9665  142.8452 H   0  0  0  0  0  0  0  0  0  0  0  0  # atno 7974 bound_to 7965
  154.6371  140.2537  155.7365 H   0  0  0  0  0  0  0  0  0  0  0  0  # atno 8008 bound_to 7997
  156.2510  140.2895  156.0669 H   0  0  0  0  0  0  0  0  0  0  0  0  # atno 8009 bound_to 7997
  155.1654  140.0385  157.2842 H   0  0  0  0  0  0  0  0  0  0  0  0  # atno 8010 bound_to 7997
  140.6704  143.7063  150.7912 H   0  0  0  0  0  0  0  0  0  0  0  0  # atno 10167 bound_to 10162
  157.1331  130.6600  149.5958 H   0  0  0  0  0  0  0  0  0  0  0  0  # atno 10718 bound_to 10713
  154.8714  135.3724  154.4788 H   0  0  0  0  0  0  0  0  0  0  0  0  # atno 10763 bound_to 10752
  153.5443  135.7026  153.5626 H   0  0  0  0  0  0  0  0  0  0  0  0  # atno 10764 bound_to 10752
  153.3774  135.4005  155.1797 H   0  0  0  0  0  0  0  0  0  0  0  0  # atno 10765 bound_to 10752
  141.0785  133.6659  156.3652 H   0  0  0  0  0  0  0  0  0  0  0  0  # atno 11005 bound_to 11000
  145.1721  140.9726  143.4315 LP  0  0  0  0  0  0  0  0  0  0  0  0  # atno 17320 bound_to 7965
  145.0019  139.3590  143.6163 LP  0  0  0  0  0  0  0  0  0  0  0  0  # atno 17321 bound_to 7965
  140.0748  143.5026  152.2561 LP  0  0  0  0  0  0  0  0  0  0  0  0  # atno 17342 bound_to 10162
  139.5970  144.7570  151.3262 LP  0  0  0  0  0  0  0  0  0  0  0  0  # atno 17343 bound_to 10162
  155.9804  130.4804  150.6768 LP  0  0  0  0  0  0  0  0  0  0  0  0  # atno 17370 bound_to 10713
  157.4374  131.0857  151.0978 LP  0  0  0  0  0  0  0  0  0  0  0  0  # atno 17371 bound_to 10713
  140.5520  134.6018  157.5410 LP  0  0  0  0  0  0  0  0  0  0  0  0  # atno 17394 bound_to 11000
  139.9598  134.7472  156.0261 LP  0  0  0  0  0  0  0  0  0  0  0  0  # atno 17395 bound_to 11000

$$$$
