AV-unprocessed.smi:652|AV-procd|sdf|3194|dock6
  -GOLD-   22720 0123D 1   1.00000     0.00000
 Structure written by MMmdl.
 48 49  0  0  0  0  0  0  0  0  2 V2000
  149.0516  132.2720  154.0763 C   0  0  0  0  0  0  0  0  0  0  0  0
  147.9233  133.2859  153.8463 C   0  0  0  0  0  0  0  0  0  0  0  0
  147.3864  133.2297  152.4086 C   0  0  0  0  0  0  0  0  0  0  0  0
  148.4100  134.6281  154.1510 N   0  0  0  0  0  0  0  0  0  0  0  0
  148.8711  135.0419  155.3420 C   0  0  0  0  0  0  0  0  0  0  0  0
  148.9179  134.3245  156.3407 O   0  0  0  0  0  0  0  0  0  0  0  0
  149.3618  136.4887  155.4171 C   0  0  0  0  0  0  0  0  0  0  0  0
  148.2530  137.4799  155.0089 C   0  0  0  0  0  0  0  0  0  0  0  0
  148.6698  138.4186  153.9302 N   0  3  1  0  0  0  0  0  0  0  0  0
  147.5433  139.2084  153.3742 C   0  0  0  0  0  0  0  0  0  0  0  0
  147.1454  140.3581  154.3208 C   0  0  0  0  0  0  0  0  0  0  0  0
  148.2803  141.1724  154.5987 O   0  0  0  0  0  0  0  0  0  0  0  0
  149.3261  140.4491  155.2388 C   0  0  2  0  0  0  0  0  0  0  0  0
  150.4509  141.4398  155.5947 C   0  0  0  0  0  0  0  0  0  0  0  0
  150.0511  142.4253  156.5949 N   0  0  0  0  0  0  0  0  0  0  0  0
  150.8705  142.7328  157.6908 C   0  0  0  0  0  0  0  0  0  0  0  0
  151.7312  143.8452  157.6050 C   0  0  0  0  0  0  0  0  0  0  0  0
  152.5517  144.1229  158.7121 C   0  0  0  0  0  0  0  0  0  0  0  0
  152.4464  143.2674  159.8238 C   0  0  0  0  0  0  0  0  0  0  0  0
  151.6016  142.2123  159.8526 N   0  0  0  0  0  0  0  0  0  0  0  0
  150.8200  141.9515  158.7988 N   0  0  0  0  0  0  0  0  0  0  0  0
  149.7913  139.3263  154.2845 C   0  0  0  0  0  0  0  0  0  0  0  0
  148.7119  131.2558  153.8747 H   0  0  0  0  0  0  0  0  0  0  0  0
  149.3989  132.3022  155.1095 H   0  0  0  0  0  0  0  0  0  0  0  0
  149.9071  132.4715  153.4300 H   0  0  0  0  0  0  0  0  0  0  0  0
  147.1097  133.0313  154.5280 H   0  0  0  0  0  0  0  0  0  0  0  0
  147.0112  132.2342  152.1703 H   0  0  0  0  0  0  0  0  0  0  0  0
  148.1633  133.4742  151.6833 H   0  0  0  0  0  0  0  0  0  0  0  0
  146.5642  133.9319  152.2669 H   0  0  0  0  0  0  0  0  0  0  0  0
  148.4041  135.2925  153.3907 H   0  0  0  0  0  0  0  0  0  0  0  0
  149.7150  136.6762  156.4300 H   0  0  0  0  0  0  0  0  0  0  0  0
  150.2268  136.6034  154.7630 H   0  0  0  0  0  0  0  0  0  0  0  0
  147.3992  136.9017  154.6523 H   0  0  0  0  0  0  0  0  0  0  0  0
  147.8956  138.0307  155.8790 H   0  0  0  0  0  0  0  0  0  0  0  0
  147.8567  139.6252  152.4159 H   0  0  0  0  0  0  0  0  0  0  0  0
  146.6880  138.5661  153.1619 H   0  0  0  0  0  0  0  0  0  0  0  0
  146.3776  140.9756  153.8546 H   0  0  0  0  0  0  0  0  0  0  0  0
  146.7191  139.9765  155.2496 H   0  0  0  0  0  0  0  0  0  0  0  0
  148.9342  140.0244  156.1623 H   0  0  0  0  0  0  0  0  0  0  0  0
  151.3110  140.8942  155.9834 H   0  0  0  0  0  0  0  0  0  0  0  0
  150.7963  141.9555  154.6977 H   0  0  0  0  0  0  0  0  0  0  0  0
  149.2844  143.0436  156.3718 H   0  0  0  0  0  0  0  0  0  0  0  0
  151.7665  144.4638  156.7203 H   0  0  0  0  0  0  0  0  0  0  0  0
  153.2361  144.9583  158.7099 H   0  0  0  0  0  0  0  0  0  0  0  0
  153.0520  143.4279  160.7033 H   0  0  0  0  0  0  0  0  0  0  0  0
  150.6259  138.7728  154.7093 H   0  0  0  0  0  0  0  0  0  0  0  0
  150.1731  139.7716  153.3648 H   0  0  0  0  0  0  0  0  0  0  0  0
  148.9973  137.8311  153.1767 H   0  0  0  0  0  0  0  0  0  0  0  0
  1  2  1  0  0  0  0
  1 23  1  0  0  0  0
  1 24  1  0  0  0  0
  1 25  1  0  0  0  0
  2  3  1  0  0  0  0
  2  4  1  0  0  0  0
  2 26  1  0  0  0  0
  3 27  1  0  0  0  0
  3 28  1  0  0  0  0
  3 29  1  0  0  0  0
  4  5  1  0  0  0  0
  4 30  1  0  0  0  0
  5  6  2  0  0  0  0
  5  7  1  0  0  0  0
  7  8  1  0  0  0  0
  7 31  1  0  0  0  0
  7 32  1  0  0  0  0
  8  9  1  0  0  0  0
  8 33  1  0  0  0  0
  8 34  1  0  0  0  0
  9 22  1  0  0  0  0
  9 10  1  0  0  0  0
  9 48  1  0  0  0  0
 10 11  1  0  0  0  0
 10 35  1  0  0  0  0
 10 36  1  0  0  0  0
 11 12  1  0  0  0  0
 11 37  1  0  0  0  0
 11 38  1  0  0  0  0
 12 13  1  0  0  0  0
 13 14  1  0  0  0  0
 13 22  1  0  0  0  0
 13 39  1  0  0  0  0
 14 15  1  0  0  0  0
 14 40  1  0  0  0  0
 14 41  1  0  0  0  0
 15 16  1  0  0  0  0
 15 42  1  0  0  0  0
 16 21  1  0  0  0  0
 16 17  2  0  0  0  0
 17 18  1  0  0  0  0
 17 43  1  0  0  0  0
 18 19  2  0  0  0  0
 18 44  1  0  0  0  0
 19 20  1  0  0  0  0
 19 45  1  0  0  0  0
 20 21  2  0  0  0  0
 22 46  1  0  0  0  0
 22 47  1  0  0  0  0
M  CHG  1   9   1
M  END
> <s_m_source_file>
AV-unprocessed.smi

> <i_m_source_file_index>
652

> <i_lp_mmshare_version>
43012

> <i_f3d_flags>
0

> <s_epik_input>
W0NIM11bQ0hdKFtDSDNdKVtOSF1DKD1PKVtDSDJdW0NIMl1OMVtDSDJdW0NIMl1PW0NASF0oW0NIMl0xKVtDSDJdW05IXWMyW2NIXVtjSF1bY0hdbm4y

> <s_epik_cmdline>
J2VwaWtfcHl0aG9uJywgJy1waCcsICc3LjAnLCAnLXRuJywgJzgnLCAnLW1hJywgJzIwMCcsICctbWV0YWxfYmluZGluZycsICctaW1hZScsICc8aW5maWxlLm1hZT4nLCAnLW9tYWUnLCAnPG91dGZpbGUubWFlPic=

> <r_lp_tautomer_probability>
0.999978

> <r_epik_Ionization_Penalty>
0.433079

> <r_epik_Ionization_Penalty_Charging>
0.413784

> <r_epik_Ionization_Penalty_Neutral>
0.0192945

> <r_epik_State_Penalty>
0.425138

> <r_epik_Charging_Adjusted_Penalty>
0.838922

> <i_epik_Tot_Q>
1

> <i_epik_Tot_abs_Q>
1

> <r_epik_Metal_State_Penalty>
0.422073

> <b_epik_Metal_Only>
0

> <s_lp_Force_Field>
OPLS_2005

> <r_lp_Energy>
22.7305

> <b_lp_Chiralities_Consistent>
1

> <s_lp_Variant>
AV-unprocessed.smi:652-3

> <Gold.Version>
5.8.1

> <Gold.Id.Protein>
6NUR|6NUR_protein|mol2

> <Gold.PLP.Fitness>
49.7181

> <Gold.PLP.PLP>
-40.6895

> <Gold.PLP.part.hbond>
-3.8438

> <Gold.PLP.part.metal>
0.0000

> <Gold.PLP.part.buried>
-3.6815

> <Gold.PLP.part.nonpolar>
-33.0333

> <Gold.PLP.part.repulsive>
0.2289

> <Gold.PLP.ligand.clash>
0.0000

> <Gold.PLP.ligand.torsion>
1.2479

> <Gold.PLP.Chemscore.Hbond>
3.7840

> <Gold.PLP.Chemscore.CHOScore>
0.0000

> <Gold.PLP.Chemscore.Metal>
0.0000

> <Gold.Chemscore.Hbonds>
donor molecule, donor type, donor heavy atom, donor atom, acceptor molecule, acceptor atom, score
      L1  H     4    30       P1  7948  1.00
      L1  H     9    48       P1  7948  1.92
      L1  H    15    42       P1  8028  0.86

> <Gold.PLP.Chemscore.Internal.Correction>
0.1724

> <Gold.Rescore>
     Score         DG    S(hbond)    S(metal)    S(lipo)     H(rot)  DE(clash)    DE(int)     intcor
     18.61     -19.97       2.85        0.00      91.99       2.26       0.09       1.28       ----

> <Gold.Chemscore.Fitness>
18.6087

> <Gold.Chemscore.DG>
-19.9727

> <Gold.Chemscore.ZeroCoef>
-5.4800

> <Gold.Chemscore.Hbond>
2.8485

> <Gold.Chemscore.Metal>
0.0000

> <Gold.Chemscore.Lipo>
91.9904

> <Gold.Chemscore.Internal_Hbond>
0.0000

> <Gold.Chemscore.DEClash>
0.0852

> <Gold.Chemscore.DEInternal>
1.2789

> <Gold.Chemscore.Rot>
2.2594

> <Gold.Chemscore.Internal.Correction>
   9.000000E+99

> <Gold.Chemscore.Hbonds>
donor molecule, donor type, donor heavy atom, donor atom, acceptor molecule, acceptor atom, score
      L1  H     4    30       P1  7948  0.96
      L1  H     9    48       P1  7948  0.90
      L1  H    15    42       P1  8028  0.85

> <Gold.Chemscore.Hbond.Weighted>
-9.5140

> <Gold.Chemscore.Metal.Weighted>
-0.0000

> <Gold.Chemscore.Lipo.Weighted>
-10.7629

> <Gold.Chemscore.Internal_Hbond.Weighted>
0.0000

> <Gold.Chemscore.DEClash.Weighted>
0.0852

> <Gold.Chemscore.DEInternal.Weighted>
1.2789

> <Gold.Chemscore.Rot.Weighted>
5.7841

> <Gold.Chemscore.Internal.Correction.Weighted>
   9.000000E+99

> <Gold.Protein.RotatedTorsions>
[ 6907 6896 6895 6894 ] final  -51.33 input  -60.11 | X-H torsion
[ 7974 7965 7964 7962 ] final   47.64 input  175.53 | X-H torsion
[ 8008 7997 7996 7995 ] final  -98.30 input   59.86 | X-H torsion
[ 10167 10162 10161 10158 ] final  147.73 input  -65.29 | X-H torsion
[ 10718 10713 10712 10709 ] final  123.74 input   66.30 | X-H torsion
[ 10763 10752 10751 10750 ] final   79.79 input  -60.55 | X-H torsion
[ 11005 11000 10999 10996 ] final -161.60 input  -57.11 | X-H torsion

> <Gold.Protein.ActiveResidues>
 VAL166  LYS551  ARG553  GLY616  TRP617  ASP618  TYR619  PRO620  LYS621  CYS622 
 ASP623  PHE694  ASN695  SER759  ASP760  ASP761  ALA762  ILE779  LEU786  VAL792 
 PHE793  MET794  SER795  GLU796  ALA797  LYS798  CYS799  TRP800  GLU811  SER814 

> <Gold.Protein.RotatedAtoms>
  150.8622  134.7976  159.7091 H   0  0  0  0  0  0  0  0  0  0  0  0  # atno 6907 bound_to 6896
  152.4655  134.5082  159.9755 H   0  0  0  0  0  0  0  0  0  0  0  0  # atno 6908 bound_to 6896
  151.5184  133.3433  159.2932 H   0  0  0  0  0  0  0  0  0  0  0  0  # atno 6909 bound_to 6896
  146.0278  139.4728  142.9856 H   0  0  0  0  0  0  0  0  0  0  0  0  # atno 7974 bound_to 7965
  154.7994  140.0456  157.1261 H   0  0  0  0  0  0  0  0  0  0  0  0  # atno 8008 bound_to 7997
  154.9497  140.3063  155.5061 H   0  0  0  0  0  0  0  0  0  0  0  0  # atno 8009 bound_to 7997
  156.2960  140.2290  156.4573 H   0  0  0  0  0  0  0  0  0  0  0  0  # atno 8010 bound_to 7997
  139.4885  144.5733  151.7013 H   0  0  0  0  0  0  0  0  0  0  0  0  # atno 10167 bound_to 10162
  157.5641  131.1088  150.8486 H   0  0  0  0  0  0  0  0  0  0  0  0  # atno 10718 bound_to 10713
  153.0981  135.4826  154.8816 H   0  0  0  0  0  0  0  0  0  0  0  0  # atno 10763 bound_to 10752
  154.7347  135.3068  154.8833 H   0  0  0  0  0  0  0  0  0  0  0  0  # atno 10764 bound_to 10752
  153.9459  135.6829  153.4797 H   0  0  0  0  0  0  0  0  0  0  0  0  # atno 10765 bound_to 10752
  140.6186  134.4774  157.5222 H   0  0  0  0  0  0  0  0  0  0  0  0  # atno 11005 bound_to 11000
  145.7089  141.0112  143.1464 LP  0  0  0  0  0  0  0  0  0  0  0  0  # atno 17320 bound_to 7965
  144.7017  139.8733  143.7442 LP  0  0  0  0  0  0  0  0  0  0  0  0  # atno 17321 bound_to 7965
  140.5324  144.0709  150.6058 LP  0  0  0  0  0  0  0  0  0  0  0  0  # atno 17342 bound_to 10162
  140.3703  143.2858  152.0285 LP  0  0  0  0  0  0  0  0  0  0  0  0  # atno 17343 bound_to 10162
  156.8976  130.5235  149.5284 LP  0  0  0  0  0  0  0  0  0  0  0  0  # atno 17370 bound_to 10713
  156.0690  130.5727  150.9347 LP  0  0  0  0  0  0  0  0  0  0  0  0  # atno 17371 bound_to 10713
  139.9162  134.8241  156.1358 LP  0  0  0  0  0  0  0  0  0  0  0  0  # atno 17394 bound_to 11000
  141.0758  133.6776  156.2233 LP  0  0  0  0  0  0  0  0  0  0  0  0  # atno 17395 bound_to 11000

$$$$
