AV-unprocessed.smi:1941|AV-procd|sdf|7847|dock1
  -GOLD-   22720 9593D 1   1.00000     0.00000
 Structure written by MMmdl.
 40 41  0  0  0  0  0  0  0  0  1 V2000
  153.5213  143.3138  163.3805 C   0  0  0  0  0  0  0  0  0  0  0  0
  153.2343  142.8194  162.0042 C   0  0  0  0  0  0  0  0  0  0  0  0
  152.3782  143.4128  161.1683 N   0  0  0  0  0  0  0  0  0  0  0  0
  152.2839  142.7547  159.9377 C   0  0  0  0  0  0  0  0  0  0  0  0
  151.3718  143.2826  158.8722 C   0  0  0  0  0  0  0  0  0  0  0  0
  151.3329  142.3692  157.6353 C   0  0  0  0  0  0  0  0  0  0  0  0
  150.1505  142.6192  156.8191 N   0  0  0  0  0  0  0  0  0  0  0  0
  149.2271  141.6988  156.5085 C   0  0  0  0  0  0  0  0  0  0  0  0
  149.2794  140.5231  156.8700 O   0  0  0  0  0  0  0  0  0  0  0  0
  148.2372  142.2190  155.7694 N   0  0  0  0  0  0  0  0  0  0  0  0
  147.0577  141.5005  155.2874 C   0  0  2  0  0  0  0  0  0  0  0  0
  147.0064  141.5649  153.7542 C   0  0  0  0  0  0  0  0  0  0  0  0
  145.7744  142.0620  155.9334 C   0  0  1  0  0  0  0  0  0  0  0  0
  145.4096  143.5007  155.5372 C   0  0  0  0  0  0  0  0  0  0  0  0
  143.8882  143.4968  155.4630 C   0  0  0  0  0  0  0  0  0  0  0  0
  143.4956  142.0839  155.8893 C   0  0  0  0  0  0  0  0  0  0  0  0
  144.6324  141.3035  155.5594 O   0  0  0  0  0  0  0  0  0  0  0  0
  153.0907  141.6473  159.8534 C   0  0  0  0  0  0  0  0  0  0  0  0
  153.9964  141.3896  161.3190 S   0  0  0  0  0  0  0  0  0  0  0  0
  152.8953  144.1744  163.6186 H   0  0  0  0  0  0  0  0  0  0  0  0
  154.5675  143.6097  163.4592 H   0  0  0  0  0  0  0  0  0  0  0  0
  153.3235  142.5260  164.1075 H   0  0  0  0  0  0  0  0  0  0  0  0
  150.3653  143.3977  159.2767 H   0  0  0  0  0  0  0  0  0  0  0  0
  151.6887  144.2833  158.5750 H   0  0  0  0  0  0  0  0  0  0  0  0
  152.2140  142.5419  157.0168 H   0  0  0  0  0  0  0  0  0  0  0  0
  151.3642  141.3199  157.9342 H   0  0  0  0  0  0  0  0  0  0  0  0
  150.0226  143.5598  156.4757 H   0  0  0  0  0  0  0  0  0  0  0  0
  148.2890  143.1995  155.5342 H   0  0  0  0  0  0  0  0  0  0  0  0
  147.1236  140.4459  155.5605 H   0  0  0  0  0  0  0  0  0  0  0  0
  146.1504  141.0115  153.3673 H   0  0  0  0  0  0  0  0  0  0  0  0
  147.9041  141.1304  153.3130 H   0  0  0  0  0  0  0  0  0  0  0  0
  146.9249  142.5933  153.4003 H   0  0  0  0  0  0  0  0  0  0  0  0
  145.8650  142.0145  157.0203 H   0  0  0  0  0  0  0  0  0  0  0  0
  145.7843  144.2176  156.2681 H   0  0  0  0  0  0  0  0  0  0  0  0
  145.8226  143.7789  154.5674 H   0  0  0  0  0  0  0  0  0  0  0  0
  143.4327  144.2568  156.0986 H   0  0  0  0  0  0  0  0  0  0  0  0
  143.5688  143.6816  154.4367 H   0  0  0  0  0  0  0  0  0  0  0  0
  143.3232  142.0367  156.9657 H   0  0  0  0  0  0  0  0  0  0  0  0
  142.5997  141.7247  155.3825 H   0  0  0  0  0  0  0  0  0  0  0  0
  153.2073  140.9710  159.0194 H   0  0  0  0  0  0  0  0  0  0  0  0
  1  2  1  0  0  0  0
  1 20  1  0  0  0  0
  1 21  1  0  0  0  0
  1 22  1  0  0  0  0
  2 19  1  0  0  0  0
  2  3  2  0  0  0  0
  3  4  1  0  0  0  0
  4  5  1  0  0  0  0
  4 18  2  0  0  0  0
  5  6  1  0  0  0  0
  5 23  1  0  0  0  0
  5 24  1  0  0  0  0
  6  7  1  0  0  0  0
  6 25  1  0  0  0  0
  6 26  1  0  0  0  0
  7  8  1  0  0  0  0
  7 27  1  0  0  0  0
  8  9  2  0  0  0  0
  8 10  1  0  0  0  0
 10 11  1  0  0  0  0
 10 28  1  0  0  0  0
 11 12  1  0  0  0  0
 11 13  1  0  0  0  0
 11 29  1  0  0  0  0
 12 30  1  0  0  0  0
 12 31  1  0  0  0  0
 12 32  1  0  0  0  0
 13 17  1  0  0  0  0
 13 14  1  0  0  0  0
 13 33  1  0  0  0  0
 14 15  1  0  0  0  0
 14 34  1  0  0  0  0
 14 35  1  0  0  0  0
 15 16  1  0  0  0  0
 15 36  1  0  0  0  0
 15 37  1  0  0  0  0
 16 17  1  0  0  0  0
 16 38  1  0  0  0  0
 16 39  1  0  0  0  0
 18 19  1  0  0  0  0
 18 40  1  0  0  0  0
M  END
> <s_m_source_file>
AV-unprocessed.smi

> <i_m_source_file_index>
1941

> <i_lp_mmshare_version>
43012

> <i_f3d_flags>
0

> <s_epik_input>
W0NIM11jMW5jKFtjSF1zMSlbQ0gyXVtDSDJdW05IXUMoPU8pW05IXVtDQEhdKFtDSDNdKVtDQEBIXTJbQ0gyXVtDSDJdW0NIMl1PMg==

> <s_epik_cmdline>
J2VwaWtfcHl0aG9uJywgJy1waCcsICc3LjAnLCAnLXRuJywgJzgnLCAnLW1hJywgJzIwMCcsICctbWV0YWxfYmluZGluZycsICctaW1hZScsICc8aW5maWxlLm1hZT4nLCAnLW9tYWUnLCAnPG91dGZpbGUubWFlPic=

> <r_epik_Ionization_Penalty>
0.00195486

> <r_epik_Ionization_Penalty_Charging>
0

> <r_epik_Ionization_Penalty_Neutral>
0.00195486

> <r_epik_State_Penalty>
0.00129472

> <r_epik_Charging_Adjusted_Penalty>
0.00129472

> <i_epik_Tot_Q>
0

> <i_epik_Tot_abs_Q>
0

> <r_epik_Metal_State_Penalty>
-0

> <b_epik_Metal_Only>
0

> <s_lp_Force_Field>
OPLS_2005

> <r_lp_Energy>
12.2091

> <b_lp_Chiralities_Consistent>
1

> <s_lp_Variant>
AV-unprocessed.smi:1941-3

> <Gold.Version>
5.8.1

> <Gold.Id.Protein>
6NUR|6NUR_protein|mol2

> <Gold.PLP.Fitness>
43.1478

> <Gold.PLP.PLP>
-37.5368

> <Gold.PLP.part.hbond>
-2.0000

> <Gold.PLP.part.metal>
0.0000

> <Gold.PLP.part.buried>
-6.3756

> <Gold.PLP.part.nonpolar>
-28.7488

> <Gold.PLP.part.repulsive>
0.4709

> <Gold.PLP.ligand.clash>
0.0000

> <Gold.PLP.ligand.torsion>
0.1435

> <Gold.PLP.Chemscore.Hbond>
1.9440

> <Gold.PLP.Chemscore.CHOScore>
0.0000

> <Gold.PLP.Chemscore.Metal>
0.0000

> <Gold.Chemscore.Hbonds>
donor molecule, donor type, donor heavy atom, donor atom, acceptor molecule, acceptor atom, score
      L1  H     7    27       P1  8028  0.93
      L1  H    10    28       P1  8028  1.00

> <Gold.PLP.Chemscore.Internal.Correction>
0.0660

> <Gold.Rescore>
     Score         DG    S(hbond)    S(metal)    S(lipo)     H(rot)  DE(clash)    DE(int)     intcor
     18.61     -18.86       1.93        0.00      96.39       1.69       0.12       0.14       ----

> <Gold.Chemscore.Fitness>
18.6082

> <Gold.Chemscore.DG>
-18.8631

> <Gold.Chemscore.ZeroCoef>
-5.4800

> <Gold.Chemscore.Hbond>
1.9273

> <Gold.Chemscore.Metal>
0.0000

> <Gold.Chemscore.Lipo>
96.3938

> <Gold.Chemscore.Internal_Hbond>
0.0000

> <Gold.Chemscore.DEClash>
0.1190

> <Gold.Chemscore.DEInternal>
0.1359

> <Gold.Chemscore.Rot>
1.6923

> <Gold.Chemscore.Internal.Correction>
   9.000000E+99

> <Gold.Chemscore.Hbonds>
donor molecule, donor type, donor heavy atom, donor atom, acceptor molecule, acceptor atom, score
      L1  H     7    27       P1  8028  0.91
      L1  H    10    28       P1  8028  0.92

> <Gold.Chemscore.Hbond.Weighted>
-6.4373

> <Gold.Chemscore.Metal.Weighted>
-0.0000

> <Gold.Chemscore.Lipo.Weighted>
-11.2781

> <Gold.Chemscore.Internal_Hbond.Weighted>
0.0000

> <Gold.Chemscore.DEClash.Weighted>
0.1190

> <Gold.Chemscore.DEInternal.Weighted>
0.1359

> <Gold.Chemscore.Rot.Weighted>
4.3323

> <Gold.Chemscore.Internal.Correction.Weighted>
   9.000000E+99

> <Gold.Protein.RotatedTorsions>
[ 6907 6896 6895 6894 ] final -121.98 input  -60.11 | X-H torsion
[ 7974 7965 7964 7962 ] final  -73.72 input  175.53 | X-H torsion
[ 8008 7997 7996 7995 ] final   60.13 input   59.86 | X-H torsion
[ 10167 10162 10161 10158 ] final   -6.63 input  -65.29 | X-H torsion
[ 10718 10713 10712 10709 ] final   11.41 input   66.30 | X-H torsion
[ 10763 10752 10751 10750 ] final  103.76 input  -60.55 | X-H torsion
[ 11005 11000 10999 10996 ] final  -32.68 input  -57.11 | X-H torsion

> <Gold.Protein.ActiveResidues>
 VAL166  LYS551  ARG553  GLY616  TRP617  ASP618  TYR619  PRO620  LYS621  CYS622 
 ASP623  PHE694  ASN695  SER759  ASP760  ASP761  ALA762  ILE779  LEU786  VAL792 
 PHE793  MET794  SER795  GLU796  ALA797  LYS798  CYS799  TRP800  GLU811  SER814 

> <Gold.Protein.RotatedAtoms>
  150.8534  133.7753  159.3017 H   0  0  0  0  0  0  0  0  0  0  0  0  # atno 6907 bound_to 6896
  151.5418  135.1067  159.9938 H   0  0  0  0  0  0  0  0  0  0  0  0  # atno 6908 bound_to 6896
  152.4570  133.7700  159.6850 H   0  0  0  0  0  0  0  0  0  0  0  0  # atno 6909 bound_to 6896
  145.6484  140.9290  143.0998 H   0  0  0  0  0  0  0  0  0  0  0  0  # atno 7974 bound_to 7965
  155.5773  140.3491  155.4531 H   0  0  0  0  0  0  0  0  0  0  0  0  # atno 8008 bound_to 7997
  156.0399  140.1293  157.0192 H   0  0  0  0  0  0  0  0  0  0  0  0  # atno 8009 bound_to 7997
  154.4387  140.1026  156.6208 H   0  0  0  0  0  0  0  0  0  0  0  0  # atno 8010 bound_to 7997
  140.7003  143.6172  150.8647 H   0  0  0  0  0  0  0  0  0  0  0  0  # atno 10167 bound_to 10162
  156.9952  130.6058  149.5690 H   0  0  0  0  0  0  0  0  0  0  0  0  # atno 10718 bound_to 10713
  153.3569  135.3966  155.1689 H   0  0  0  0  0  0  0  0  0  0  0  0  # atno 10763 bound_to 10752
  154.8672  135.3670  154.5149 H   0  0  0  0  0  0  0  0  0  0  0  0  # atno 10764 bound_to 10752
  153.5605  135.7081  153.5609 H   0  0  0  0  0  0  0  0  0  0  0  0  # atno 10765 bound_to 10752
  140.9572  133.7185  156.1312 H   0  0  0  0  0  0  0  0  0  0  0  0  # atno 11005 bound_to 11000
  144.7131  139.8295  143.7408 LP  0  0  0  0  0  0  0  0  0  0  0  0  # atno 17320 bound_to 7965
  146.1223  139.4244  143.0220 LP  0  0  0  0  0  0  0  0  0  0  0  0  # atno 17321 bound_to 7965
  139.9894  143.5864  152.2915 LP  0  0  0  0  0  0  0  0  0  0  0  0  # atno 17342 bound_to 10162
  139.6513  144.7661  151.2142 LP  0  0  0  0  0  0  0  0  0  0  0  0  # atno 17343 bound_to 10162
  156.0192  130.5286  150.8225 LP  0  0  0  0  0  0  0  0  0  0  0  0  # atno 17370 bound_to 10713
  157.5430  131.0941  150.9801 LP  0  0  0  0  0  0  0  0  0  0  0  0  # atno 17371 bound_to 10713
  140.7519  134.4036  157.5540 LP  0  0  0  0  0  0  0  0  0  0  0  0  # atno 17394 bound_to 11000
  139.8866  134.8905  156.2575 LP  0  0  0  0  0  0  0  0  0  0  0  0  # atno 17395 bound_to 11000

$$$$
