AV-unprocessed.smi:1683|AV-procd|sdf|6751|dock6
  -GOLD-   22720 7503D 1   1.00000     0.00000
 Structure written by MMmdl.
 37 38  0  0  0  0  0  0  0  0  2 V2000
  150.3960  135.8551  156.2764 O   0  0  0  0  0  0  0  0  0  0  0  0
  150.0777  135.9450  155.0908 C   0  0  0  0  0  0  0  0  0  0  0  0
  149.6172  134.9137  154.3685 N   0  0  0  0  0  0  0  0  0  0  0  0
  149.4495  133.5507  154.8630 C   0  0  0  0  0  0  0  0  0  0  0  0
  148.1523  132.8930  154.3525 C   0  0  2  0  0  0  0  0  0  0  0  0
  148.1818  131.3685  154.3674 C   0  0  0  0  0  0  0  0  0  0  0  0
  147.0492  131.0081  153.4109 C   0  0  0  0  0  0  0  0  0  0  0  0
  147.0845  132.0385  152.3487 N   0  3  1  0  0  0  0  0  0  0  0  0
  145.7746  132.3432  151.7207 C   0  0  0  0  0  0  0  0  0  0  0  0
  145.4137  131.3717  150.5824 C   0  0  0  0  0  0  0  0  0  0  0  0
  145.5010  130.1034  150.9818 F   0  0  0  0  0  0  0  0  0  0  0  0
  144.1604  131.6046  150.1958 F   0  0  0  0  0  0  0  0  0  0  0  0
  146.2242  131.5631  149.5416 F   0  0  0  0  0  0  0  0  0  0  0  0
  147.7871  133.2243  152.8977 C   0  0  0  0  0  0  0  0  0  0  0  0
  150.1402  137.0672  154.3561 N   0  0  0  0  0  0  0  0  0  0  0  0
  150.5679  138.3492  154.7832 C   0  0  0  0  0  0  0  0  0  0  0  0
  150.1488  139.6368  154.3359 C   0  0  0  0  0  0  0  0  0  0  0  0
  150.7872  140.6009  154.9840 N   0  0  0  0  0  0  0  0  0  0  0  0
  151.6064  139.9448  155.8363 N   0  0  0  0  0  0  0  0  0  0  0  0
  151.5061  138.5740  155.7458 C   0  0  0  0  0  0  0  0  0  0  0  0
  152.2201  140.4415  156.4664 H   0  0  0  0  0  0  0  0  0  0  0  0
  149.3864  135.0787  153.3994 H   0  0  0  0  0  0  0  0  0  0  0  0
  150.3146  132.9694  154.5426 H   0  0  0  0  0  0  0  0  0  0  0  0
  149.4677  133.5525  155.9543 H   0  0  0  0  0  0  0  0  0  0  0  0
  147.3206  133.2059  154.9864 H   0  0  0  0  0  0  0  0  0  0  0  0
  149.1320  130.9997  153.9773 H   0  0  0  0  0  0  0  0  0  0  0  0
  148.0399  130.9513  155.3648 H   0  0  0  0  0  0  0  0  0  0  0  0
  147.1573  130.0034  153.0015 H   0  0  0  0  0  0  0  0  0  0  0  0
  146.0987  131.0550  153.9451 H   0  0  0  0  0  0  0  0  0  0  0  0
  144.9889  132.3612  152.4777 H   0  0  0  0  0  0  0  0  0  0  0  0
  145.8258  133.3500  151.3033 H   0  0  0  0  0  0  0  0  0  0  0  0
  147.1867  134.1338  152.8452 H   0  0  0  0  0  0  0  0  0  0  0  0
  148.6832  133.3899  152.2984 H   0  0  0  0  0  0  0  0  0  0  0  0
  149.8590  136.9971  153.3892 H   0  0  0  0  0  0  0  0  0  0  0  0
  149.4233  139.9081  153.5832 H   0  0  0  0  0  0  0  0  0  0  0  0
  152.0916  137.9026  156.3566 H   0  0  0  0  0  0  0  0  0  0  0  0
  147.6833  131.6805  151.6180 H   0  0  0  0  0  0  0  0  0  0  0  0
  1  2  2  0  0  0  0
  2  3  1  0  0  0  0
  2 15  1  0  0  0  0
  3  4  1  0  0  0  0
  3 22  1  0  0  0  0
  4  5  1  0  0  0  0
  4 23  1  0  0  0  0
  4 24  1  0  0  0  0
  5 14  1  0  0  0  0
  5  6  1  0  0  0  0
  5 25  1  0  0  0  0
  6  7  1  0  0  0  0
  6 26  1  0  0  0  0
  6 27  1  0  0  0  0
  7  8  1  0  0  0  0
  7 28  1  0  0  0  0
  7 29  1  0  0  0  0
  8  9  1  0  0  0  0
  8 14  1  0  0  0  0
  8 37  1  0  0  0  0
  9 10  1  0  0  0  0
  9 30  1  0  0  0  0
  9 31  1  0  0  0  0
 10 11  1  0  0  0  0
 10 12  1  0  0  0  0
 10 13  1  0  0  0  0
 14 32  1  0  0  0  0
 14 33  1  0  0  0  0
 15 16  1  0  0  0  0
 15 34  1  0  0  0  0
 16 20  2  0  0  0  0
 16 17  1  0  0  0  0
 17 18  2  0  0  0  0
 17 35  1  0  0  0  0
 18 19  1  0  0  0  0
 19 21  1  0  0  0  0
 19 20  1  0  0  0  0
 20 36  1  0  0  0  0
M  CHG  1   8   1
M  END
> <s_m_source_file>
AV-unprocessed.smi

> <i_m_source_file_index>
1683

> <i_lp_mmshare_version>
43012

> <i_f3d_flags>
0

> <s_epik_input>
W2NIXTFbbkhdbltjSF1jMVtOSF1DKD1PKVtOSF1bQ0gyXVtDQEBIXTJbQ0gyXVtDSDJdTihbQ0gyXTIpW0NIMl1DKEYpKEYpRg==

> <s_epik_cmdline>
J2VwaWtfcHl0aG9uJywgJy1waCcsICc3LjAnLCAnLXRuJywgJzgnLCAnLW1hJywgJzIwMCcsICctbWV0YWxfYmluZGluZycsICctaW1hZScsICc8aW5maWxlLm1hZT4nLCAnLW9tYWUnLCAnPG91dGZpbGUubWFlPic=

> <r_lp_tautomer_probability>
0.5

> <r_epik_Ionization_Penalty>
0.641865

> <r_epik_Ionization_Penalty_Charging>
0.64182

> <r_epik_Ionization_Penalty_Neutral>
4.50685e-05

> <r_epik_State_Penalty>
0.65957

> <r_epik_Charging_Adjusted_Penalty>
1.30139

> <i_epik_Tot_Q>
1

> <i_epik_Tot_abs_Q>
1

> <r_epik_Metal_State_Penalty>
0.659571

> <b_epik_Metal_Only>
0

> <s_lp_Force_Field>
OPLS_2005

> <r_lp_Energy>
31.6125

> <b_lp_Chiralities_Consistent>
1

> <s_lp_Variant>
AV-unprocessed.smi:1683-5

> <Gold.Version>
5.8.1

> <Gold.Id.Protein>
6NUR|6NUR_protein|mol2

> <Gold.PLP.Fitness>
45.6583

> <Gold.PLP.PLP>
-36.4700

> <Gold.PLP.part.hbond>
-4.9163

> <Gold.PLP.part.metal>
0.0000

> <Gold.PLP.part.buried>
-2.1554

> <Gold.PLP.part.nonpolar>
-30.3063

> <Gold.PLP.part.repulsive>
0.3747

> <Gold.PLP.ligand.clash>
0.0000

> <Gold.PLP.ligand.torsion>
0.9304

> <Gold.PLP.Chemscore.Hbond>
2.6513

> <Gold.PLP.Chemscore.CHOScore>
0.8925

> <Gold.PLP.Chemscore.Metal>
0.0000

> <Gold.Chemscore.Hbonds>
donor molecule, donor type, donor heavy atom, donor atom, acceptor molecule, acceptor atom, score
      L1  H     3    22       P1  7948  0.65
      L1  H     8    37       P1 10747  0.98
      L1  H    15    34       P1  7948  1.00
      P1  H  7989  7998       L1    18  0.34
      L1  C    17    35       P1  7957  1.00

> <Gold.PLP.Chemscore.Internal.Correction>
0.4176

> <Gold.Rescore>
     Score         DG    S(hbond)    S(metal)    S(lipo)     H(rot)  DE(clash)    DE(int)     intcor
     12.39     -14.76       2.02        0.00      61.26       1.81       1.29       1.08       ----

> <Gold.Chemscore.Fitness>
12.3943

> <Gold.Chemscore.DG>
-14.7616

> <Gold.Chemscore.ZeroCoef>
-5.4800

> <Gold.Chemscore.Hbond>
2.0216

> <Gold.Chemscore.Metal>
0.0000

> <Gold.Chemscore.Lipo>
61.2571

> <Gold.Chemscore.Internal_Hbond>
0.0000

> <Gold.Chemscore.DEClash>
1.2901

> <Gold.Chemscore.DEInternal>
1.0773

> <Gold.Chemscore.Rot>
1.8116

> <Gold.Chemscore.Internal.Correction>
   9.000000E+99

> <Gold.Chemscore.Hbonds>
donor molecule, donor type, donor heavy atom, donor atom, acceptor molecule, acceptor atom, score
      L1  H     3    22       P1  7948  0.05
      L1  H     8    37       P1 10747  0.92
      L1  H    15    34       P1  7948  0.39

> <Gold.Chemscore.Hbond.Weighted>
-6.7523

> <Gold.Chemscore.Metal.Weighted>
-0.0000

> <Gold.Chemscore.Lipo.Weighted>
-7.1671

> <Gold.Chemscore.Internal_Hbond.Weighted>
0.0000

> <Gold.Chemscore.DEClash.Weighted>
1.2901

> <Gold.Chemscore.DEInternal.Weighted>
1.0773

> <Gold.Chemscore.Rot.Weighted>
4.6378

> <Gold.Chemscore.Internal.Correction.Weighted>
   9.000000E+99

> <Gold.Protein.RotatedTorsions>
[ 6907 6896 6895 6894 ] final   61.09 input  -60.11 | X-H torsion
[ 7974 7965 7964 7962 ] final -111.43 input  175.53 | X-H torsion
[ 8008 7997 7996 7995 ] final  132.42 input   59.86 | X-H torsion
[ 10167 10162 10161 10158 ] final  -46.58 input  -65.29 | X-H torsion
[ 10718 10713 10712 10709 ] final  -13.25 input   66.30 | X-H torsion
[ 10763 10752 10751 10750 ] final -176.77 input  -60.55 | X-H torsion
[ 11005 11000 10999 10996 ] final  -30.54 input  -57.11 | X-H torsion

> <Gold.Protein.ActiveResidues>
 VAL166  LYS551  ARG553  GLY616  TRP617  ASP618  TYR619  PRO620  LYS621  CYS622 
 ASP623  PHE694  ASN695  SER759  ASP760  ASP761  ALA762  ILE779  LEU786  VAL792 
 PHE793  MET794  SER795  GLU796  ALA797  LYS798  CYS799  TRP800  GLU811  SER814 

> <Gold.Protein.RotatedAtoms>
  152.4059  134.6207  160.0049 H   0  0  0  0  0  0  0  0  0  0  0  0  # atno 6907 bound_to 6896
  151.6398  133.3321  159.3135 H   0  0  0  0  0  0  0  0  0  0  0  0  # atno 6908 bound_to 6896
  150.7954  134.7052  159.6617 H   0  0  0  0  0  0  0  0  0  0  0  0  # atno 6909 bound_to 6896
  145.1562  140.8854  143.3618 H   0  0  0  0  0  0  0  0  0  0  0  0  # atno 7974 bound_to 7965
  156.2982  140.2547  156.3086 H   0  0  0  0  0  0  0  0  0  0  0  0  # atno 8008 bound_to 7997
  154.9348  140.0397  157.2085 H   0  0  0  0  0  0  0  0  0  0  0  0  # atno 8009 bound_to 7997
  154.8183  140.2856  155.5809 H   0  0  0  0  0  0  0  0  0  0  0  0  # atno 8010 bound_to 7997
  140.6811  143.2824  151.3803 H   0  0  0  0  0  0  0  0  0  0  0  0  # atno 10167 bound_to 10162
  156.6330  130.4907  149.6122 H   0  0  0  0  0  0  0  0  0  0  0  0  # atno 10718 bound_to 10713
  154.5683  135.2826  155.0852 H   0  0  0  0  0  0  0  0  0  0  0  0  # atno 10763 bound_to 10752
  154.2234  135.6387  153.5156 H   0  0  0  0  0  0  0  0  0  0  0  0  # atno 10764 bound_to 10752
  153.0049  135.5520  154.6298 H   0  0  0  0  0  0  0  0  0  0  0  0  # atno 10765 bound_to 10752
  140.9391  133.7290  156.1050 H   0  0  0  0  0  0  0  0  0  0  0  0  # atno 11005 bound_to 11000
  145.0379  139.3285  143.5991 LP  0  0  0  0  0  0  0  0  0  0  0  0  # atno 17320 bound_to 7965
  146.3488  139.9741  142.8703 LP  0  0  0  0  0  0  0  0  0  0  0  0  # atno 17321 bound_to 7965
  139.6135  144.1050  152.2322 LP  0  0  0  0  0  0  0  0  0  0  0  0  # atno 17342 bound_to 10162
  140.0472  144.5961  150.7364 LP  0  0  0  0  0  0  0  0  0  0  0  0  # atno 17343 bound_to 10162
  156.2220  130.6742  151.1377 LP  0  0  0  0  0  0  0  0  0  0  0  0  # atno 17370 bound_to 10713
  157.7194  131.0690  150.6196 LP  0  0  0  0  0  0  0  0  0  0  0  0  # atno 17371 bound_to 10713
  140.7758  134.3781  157.5498 LP  0  0  0  0  0  0  0  0  0  0  0  0  # atno 17394 bound_to 11000
  139.8815  134.9051  156.2891 LP  0  0  0  0  0  0  0  0  0  0  0  0  # atno 17395 bound_to 11000

$$$$
