AV-unprocessed.smi:3305|AV-procd|sdf|12699|dock7
  -GOLD-   2272019 33D 1   1.00000     0.00000
 Structure written by MMmdl.
 32 33  0  0  0  0  0  0  0  0  1 V2000
  153.9141  140.5860  160.9432 C   0  0  0  0  0  0  0  0  0  0  0  0
  153.0959  141.7559  160.4955 C   0  0  0  0  0  0  0  0  0  0  0  0
  152.6755  142.8161  161.2594 C   0  0  0  0  0  0  0  0  0  0  0  0
  151.7218  143.9452  160.3357 S   0  0  0  0  0  0  0  0  0  0  0  0
  151.9443  142.9263  158.9188 C   0  0  0  0  0  0  0  0  0  0  0  0
  151.3202  143.2162  157.5904 C   0  0  0  0  0  0  0  0  0  0  0  0
  151.0049  141.9552  156.7581 C   0  0  0  0  0  0  0  0  0  0  0  0
  149.9213  142.1608  155.8016 N   0  0  0  0  0  0  0  0  0  0  0  0
  149.5443  141.2822  154.8604 C   0  0  0  0  0  0  0  0  0  0  0  0
  150.1394  140.2252  154.6479 O   0  0  0  0  0  0  0  0  0  0  0  0
  148.2852  141.6472  154.0586 C   0  0  2  0  0  0  0  0  0  0  0  0
  147.1064  141.9872  154.9772 C   0  0  0  0  0  0  0  0  0  0  0  0
  146.0735  140.8900  154.7102 C   0  0  0  0  0  0  0  0  0  0  0  0
  146.8123  139.8434  154.1028 O   0  0  0  0  0  0  0  0  0  0  0  0
  147.7564  140.4595  153.2428 C   0  0  0  0  0  0  0  0  0  0  0  0
  152.6749  141.8352  159.1662 N   0  0  0  0  0  0  0  0  0  0  0  0
  154.1807  140.6644  161.9973 H   0  0  0  0  0  0  0  0  0  0  0  0
  154.8403  140.5122  160.3731 H   0  0  0  0  0  0  0  0  0  0  0  0
  153.3679  139.6519  160.8098 H   0  0  0  0  0  0  0  0  0  0  0  0
  152.8621  142.9973  162.3076 H   0  0  0  0  0  0  0  0  0  0  0  0
  150.4071  143.7894  157.7512 H   0  0  0  0  0  0  0  0  0  0  0  0
  151.9922  143.8685  157.0309 H   0  0  0  0  0  0  0  0  0  0  0  0
  151.8887  141.6738  156.1851 H   0  0  0  0  0  0  0  0  0  0  0  0
  150.7794  141.1114  157.4120 H   0  0  0  0  0  0  0  0  0  0  0  0
  149.3769  143.0047  155.9058 H   0  0  0  0  0  0  0  0  0  0  0  0
  148.5110  142.4814  153.3926 H   0  0  0  0  0  0  0  0  0  0  0  0
  147.3915  141.9873  156.0310 H   0  0  0  0  0  0  0  0  0  0  0  0
  146.6958  142.9734  154.7590 H   0  0  0  0  0  0  0  0  0  0  0  0
  145.5750  140.5519  155.6188 H   0  0  0  0  0  0  0  0  0  0  0  0
  145.3108  141.2415  154.0136 H   0  0  0  0  0  0  0  0  0  0  0  0
  147.2553  140.8070  152.3380 H   0  0  0  0  0  0  0  0  0  0  0  0
  148.5323  139.7540  152.9425 H   0  0  0  0  0  0  0  0  0  0  0  0
  1  2  1  0  0  0  0
  1 17  1  0  0  0  0
  1 18  1  0  0  0  0
  1 19  1  0  0  0  0
  2 16  1  0  0  0  0
  2  3  2  0  0  0  0
  3  4  1  0  0  0  0
  3 20  1  0  0  0  0
  4  5  1  0  0  0  0
  5  6  1  0  0  0  0
  5 16  2  0  0  0  0
  6  7  1  0  0  0  0
  6 21  1  0  0  0  0
  6 22  1  0  0  0  0
  7  8  1  0  0  0  0
  7 23  1  0  0  0  0
  7 24  1  0  0  0  0
  8  9  1  0  0  0  0
  8 25  1  0  0  0  0
  9 10  2  0  0  0  0
  9 11  1  0  0  0  0
 11 15  1  0  0  0  0
 11 12  1  0  0  0  0
 11 26  1  0  0  0  0
 12 13  1  0  0  0  0
 12 27  1  0  0  0  0
 12 28  1  0  0  0  0
 13 14  1  0  0  0  0
 13 29  1  0  0  0  0
 13 30  1  0  0  0  0
 14 15  1  0  0  0  0
 15 31  1  0  0  0  0
 15 32  1  0  0  0  0
M  END
> <s_m_source_file>
AV-unprocessed.smi

> <i_m_source_file_index>
3305

> <i_lp_mmshare_version>
43012

> <i_f3d_flags>
0

> <s_epik_input>
W0NIM11jMVtjSF1zYyhuMSlbQ0gyXVtDSDJdW05IXUMoPU8pW0NAQEhdMltDSDJdW0NIMl1PW0NIMl0y

> <s_epik_cmdline>
J2VwaWtfcHl0aG9uJywgJy1waCcsICc3LjAnLCAnLXRuJywgJzgnLCAnLW1hJywgJzIwMCcsICctbWV0YWxfYmluZGluZycsICctaW1hZScsICc8aW5maWxlLm1hZT4nLCAnLW9tYWUnLCAnPG91dGZpbGUubWFlPic=

> <r_epik_Ionization_Penalty>
0.00102754

> <r_epik_Ionization_Penalty_Charging>
0

> <r_epik_Ionization_Penalty_Neutral>
0.00102754

> <r_epik_State_Penalty>
0.000671034

> <r_epik_Charging_Adjusted_Penalty>
0.000671034

> <i_epik_Tot_Q>
0

> <i_epik_Tot_abs_Q>
0

> <r_epik_Metal_State_Penalty>
-0

> <b_epik_Metal_Only>
0

> <s_lp_Force_Field>
OPLS_2005

> <r_lp_Energy>
8.47785

> <b_lp_Chiralities_Consistent>
1

> <s_lp_Variant>
AV-unprocessed.smi:3305-1

> <Gold.Version>
5.8.1

> <Gold.Id.Protein>
6NUR|6NUR_protein|mol2

> <Gold.PLP.Fitness>
41.7460

> <Gold.PLP.PLP>
-37.1729

> <Gold.PLP.part.hbond>
-2.0000

> <Gold.PLP.part.metal>
0.0000

> <Gold.PLP.part.buried>
-3.9295

> <Gold.PLP.part.nonpolar>
-32.7064

> <Gold.PLP.part.repulsive>
0.3471

> <Gold.PLP.ligand.clash>
0.0000

> <Gold.PLP.ligand.torsion>
0.7241

> <Gold.PLP.Chemscore.Hbond>
1.9920

> <Gold.PLP.Chemscore.CHOScore>
0.0000

> <Gold.PLP.Chemscore.Metal>
0.0000

> <Gold.Chemscore.Hbonds>
donor molecule, donor type, donor heavy atom, donor atom, acceptor molecule, acceptor atom, score
      L1  H     8    25       P1  8028  1.00
      P1  H  7989  7998       L1    10  1.00

> <Gold.PLP.Chemscore.Internal.Correction>
0.0454

> <Gold.Rescore>
     Score         DG    S(hbond)    S(metal)    S(lipo)     H(rot)  DE(clash)    DE(int)     intcor
     17.93     -18.43       1.66        0.00      96.34       1.52       0.19       0.31       ----

> <Gold.Chemscore.Fitness>
17.9305

> <Gold.Chemscore.DG>
-18.4297

> <Gold.Chemscore.ZeroCoef>
-5.4800

> <Gold.Chemscore.Hbond>
1.6644

> <Gold.Chemscore.Metal>
0.0000

> <Gold.Chemscore.Lipo>
96.3366

> <Gold.Chemscore.Internal_Hbond>
0.0000

> <Gold.Chemscore.DEClash>
0.1898

> <Gold.Chemscore.DEInternal>
0.3093

> <Gold.Chemscore.Rot>
1.5159

> <Gold.Chemscore.Internal.Correction>
   9.000000E+99

> <Gold.Chemscore.Hbonds>
donor molecule, donor type, donor heavy atom, donor atom, acceptor molecule, acceptor atom, score
      L1  H     8    25       P1  8028  0.99
      P1  H  7989  7998       L1    10  0.24

> <Gold.Chemscore.Hbond.Weighted>
-5.5589

> <Gold.Chemscore.Metal.Weighted>
-0.0000

> <Gold.Chemscore.Lipo.Weighted>
-11.2714

> <Gold.Chemscore.Internal_Hbond.Weighted>
0.0000

> <Gold.Chemscore.DEClash.Weighted>
0.1898

> <Gold.Chemscore.DEInternal.Weighted>
0.3093

> <Gold.Chemscore.Rot.Weighted>
3.8807

> <Gold.Chemscore.Internal.Correction.Weighted>
   9.000000E+99

> <Gold.Protein.RotatedTorsions>
[ 6907 6896 6895 6894 ] final  142.60 input  -60.11 | X-H torsion
[ 7974 7965 7964 7962 ] final  152.56 input  175.53 | X-H torsion
[ 8008 7997 7996 7995 ] final  107.98 input   59.86 | X-H torsion
[ 10167 10162 10161 10158 ] final   14.12 input  -65.29 | X-H torsion
[ 10718 10713 10712 10709 ] final  107.25 input   66.30 | X-H torsion
[ 10763 10752 10751 10750 ] final -150.72 input  -60.55 | X-H torsion
[ 11005 11000 10999 10996 ] final   -9.78 input  -57.11 | X-H torsion

> <Gold.Protein.ActiveResidues>
 VAL166  LYS551  ARG553  GLY616  TRP617  ASP618  TYR619  PRO620  LYS621  CYS622 
 ASP623  PHE694  ASN695  SER759  ASP760  ASP761  ALA762  ILE779  LEU786  VAL792 
 PHE793  MET794  SER795  GLU796  ALA797  LYS798  CYS799  TRP800  GLU811  SER814 

> <Gold.Protein.RotatedAtoms>
  152.2167  133.4952  159.5139 H   0  0  0  0  0  0  0  0  0  0  0  0  # atno 6907 bound_to 6896
  150.7003  134.1396  159.4109 H   0  0  0  0  0  0  0  0  0  0  0  0  # atno 6908 bound_to 6896
  151.9317  135.0253  160.0580 H   0  0  0  0  0  0  0  0  0  0  0  0  # atno 6909 bound_to 6896
  144.8214  139.6684  143.6099 H   0  0  0  0  0  0  0  0  0  0  0  0  # atno 7974 bound_to 7965
  156.1867  140.3085  155.9252 H   0  0  0  0  0  0  0  0  0  0  0  0  # atno 8008 bound_to 7997
  155.3266  140.0458  157.3058 H   0  0  0  0  0  0  0  0  0  0  0  0  # atno 8009 bound_to 7997
  154.5404  140.2259  155.8661 H   0  0  0  0  0  0  0  0  0  0  0  0  # atno 8010 bound_to 7997
  140.5957  143.8707  150.6915 H   0  0  0  0  0  0  0  0  0  0  0  0  # atno 10167 bound_to 10162
  157.6636  131.0868  150.6128 H   0  0  0  0  0  0  0  0  0  0  0  0  # atno 10718 bound_to 10713
  154.8102  135.3277  154.7325 H   0  0  0  0  0  0  0  0  0  0  0  0  # atno 10763 bound_to 10752
  153.7976  135.6906  153.4865 H   0  0  0  0  0  0  0  0  0  0  0  0  # atno 10764 bound_to 10752
  153.1875  135.4563  155.0053 H   0  0  0  0  0  0  0  0  0  0  0  0  # atno 10765 bound_to 10752
  140.7378  133.8695  155.8943 H   0  0  0  0  0  0  0  0  0  0  0  0  # atno 11005 bound_to 11000
  146.2519  139.6219  142.9421 LP  0  0  0  0  0  0  0  0  0  0  0  0  # atno 17320 bound_to 7965
  145.5096  141.0436  143.2495 LP  0  0  0  0  0  0  0  0  0  0  0  0  # atno 17321 bound_to 7965
  140.2241  143.3786  152.1619 LP  0  0  0  0  0  0  0  0  0  0  0  0  # atno 17342 bound_to 10162
  139.5256  144.7098  151.5241 LP  0  0  0  0  0  0  0  0  0  0  0  0  # atno 17343 bound_to 10162
  156.6430  130.4463  149.5746 LP  0  0  0  0  0  0  0  0  0  0  0  0  # atno 17370 bound_to 10713
  156.2195  130.6728  151.1353 LP  0  0  0  0  0  0  0  0  0  0  0  0  # atno 17371 bound_to 10713
  140.9864  134.1337  157.4448 LP  0  0  0  0  0  0  0  0  0  0  0  0  # atno 17394 bound_to 11000
  139.8812  135.0027  156.6140 LP  0  0  0  0  0  0  0  0  0  0  0  0  # atno 17395 bound_to 11000

$$$$
