AV-unprocessed.smi:83|AV-procd|sdf|803|dock10
  -GOLD-   2262017193D 1   1.00000     0.00000
 Structure written by MMmdl.
 56 59  0  0  0  0  0  0  0  0  1 V2000
  151.6092  145.6183  160.1935 C   0  0  0  0  0  0  0  0  0  0  0  0
  151.3621  144.5582  159.1196 C   0  0  0  0  0  0  0  0  0  0  0  0
  150.7182  144.8639  158.1158 O   0  0  0  0  0  0  0  0  0  0  0  0
  151.8543  143.3184  159.3167 N   0  0  0  0  0  0  0  0  0  0  0  0
  152.6780  142.8915  160.4454 C   0  0  0  0  0  0  0  0  0  0  0  0
  153.2147  141.5125  160.0567 C   0  0  0  0  0  0  0  0  0  0  0  0
  152.1647  140.9555  159.1004 C   0  0  2  0  0  0  0  0  0  0  0  0
  152.6998  139.8418  158.1707 C   0  0  0  0  0  0  0  0  0  0  0  0
  151.9559  138.5845  158.2743 N   0  0  0  0  0  0  0  0  0  0  0  0
  152.5097  137.5324  159.1166 C   0  0  0  0  0  0  0  0  0  0  0  0
  150.6079  138.6650  158.1313 C   0  0  0  0  0  0  0  0  0  0  0  0
  150.1070  139.7662  157.5121 N   0  0  0  0  0  0  0  0  0  0  0  0
  148.7876  139.9532  157.4232 C   0  0  0  0  0  0  0  0  0  0  0  0
  147.8040  139.1850  157.8926 N   0  0  0  0  0  0  0  0  0  0  0  0
  148.2978  138.0718  158.5050 C   0  0  0  0  0  0  0  0  0  0  0  0
  149.6709  137.7213  158.6492 C   0  0  0  0  0  0  0  0  0  0  0  0
  149.7730  136.5148  159.3352 N   0  0  0  0  0  0  0  0  0  0  0  0
  148.5386  136.1815  159.5926 C   0  0  0  0  0  0  0  0  0  0  0  0
  147.5917  137.0790  159.1578 N   0  0  0  0  0  0  0  0  0  0  0  0
  146.1600  137.0110  159.3768 C   0  0  0  0  0  0  0  0  0  0  0  0
  145.8063  136.6973  160.8475 C   0  0  1  0  0  0  0  0  0  0  0  0
  146.7004  137.4300  161.6606 O   0  0  0  0  0  0  0  0  0  0  0  0
  144.3566  137.0577  161.2462 C   0  0  2  0  0  0  0  0  0  0  0  0
  143.9809  136.6931  162.6855 C   0  0  0  0  0  0  0  0  0  0  0  0
  142.4684  136.5230  162.6406 C   0  0  0  0  0  0  0  0  0  0  0  0
  142.1442  136.4917  161.1464 C   0  0  0  0  0  0  0  0  0  0  0  0
  143.4013  136.2989  160.5187 O   0  0  0  0  0  0  0  0  0  0  0  0
  151.6556  142.2151  158.3834 C   0  0  0  0  0  0  0  0  0  0  0  0
  151.2680  145.2691  161.1682 H   0  0  0  0  0  0  0  0  0  0  0  0
  151.0694  146.5362  159.9588 H   0  0  0  0  0  0  0  0  0  0  0  0
  152.6705  145.8587  160.2586 H   0  0  0  0  0  0  0  0  0  0  0  0
  153.4940  143.5854  160.6519 H   0  0  0  0  0  0  0  0  0  0  0  0
  152.0526  142.8217  161.3365 H   0  0  0  0  0  0  0  0  0  0  0  0
  154.1671  141.6269  159.5368 H   0  0  0  0  0  0  0  0  0  0  0  0
  153.3823  140.8688  160.9206 H   0  0  0  0  0  0  0  0  0  0  0  0
  151.3520  140.5575  159.7103 H   0  0  0  0  0  0  0  0  0  0  0  0
  152.7299  140.1892  157.1374 H   0  0  0  0  0  0  0  0  0  0  0  0
  153.7366  139.6312  158.4352 H   0  0  0  0  0  0  0  0  0  0  0  0
  151.9872  136.5881  158.9591 H   0  0  0  0  0  0  0  0  0  0  0  0
  152.4419  137.7996  160.1715 H   0  0  0  0  0  0  0  0  0  0  0  0
  153.5609  137.3720  158.8766 H   0  0  0  0  0  0  0  0  0  0  0  0
  148.4763  140.8563  156.9197 H   0  0  0  0  0  0  0  0  0  0  0  0
  148.2863  135.2881  160.1453 H   0  0  0  0  0  0  0  0  0  0  0  0
  145.7265  137.9657  159.0760 H   0  0  0  0  0  0  0  0  0  0  0  0
  145.7416  136.2527  158.7134 H   0  0  0  0  0  0  0  0  0  0  0  0
  145.9786  135.6382  161.0439 H   0  0  0  0  0  0  0  0  0  0  0  0
  146.2536  137.6655  162.4593 H   0  0  0  0  0  0  0  0  0  0  0  0
  144.1717  138.1198  161.0728 H   0  0  0  0  0  0  0  0  0  0  0  0
  144.4438  135.7460  162.9667 H   0  0  0  0  0  0  0  0  0  0  0  0
  144.2997  137.4485  163.4045 H   0  0  0  0  0  0  0  0  0  0  0  0
  142.1709  135.5971  163.1335 H   0  0  0  0  0  0  0  0  0  0  0  0
  141.9519  137.3476  163.1323 H   0  0  0  0  0  0  0  0  0  0  0  0
  141.4396  135.7039  160.8805 H   0  0  0  0  0  0  0  0  0  0  0  0
  141.7247  137.4453  160.8229 H   0  0  0  0  0  0  0  0  0  0  0  0
  150.6061  142.1177  158.1021 H   0  0  0  0  0  0  0  0  0  0  0  0
  152.2339  142.4157  157.4804 H   0  0  0  0  0  0  0  0  0  0  0  0
  1  2  1  0  0  0  0
  1 29  1  0  0  0  0
  1 30  1  0  0  0  0
  1 31  1  0  0  0  0
  2  3  2  0  0  0  0
  2  4  1  0  0  0  0
  4 28  1  0  0  0  0
  4  5  1  0  0  0  0
  5  6  1  0  0  0  0
  5 32  1  0  0  0  0
  5 33  1  0  0  0  0
  6  7  1  0  0  0  0
  6 34  1  0  0  0  0
  6 35  1  0  0  0  0
  7  8  1  0  0  0  0
  7 28  1  0  0  0  0
  7 36  1  0  0  0  0
  8  9  1  0  0  0  0
  8 37  1  0  0  0  0
  8 38  1  0  0  0  0
  9 10  1  0  0  0  0
  9 11  1  0  0  0  0
 10 39  1  0  0  0  0
 10 40  1  0  0  0  0
 10 41  1  0  0  0  0
 11 16  1  0  0  0  0
 11 12  2  0  0  0  0
 12 13  1  0  0  0  0
 13 14  2  0  0  0  0
 13 42  1  0  0  0  0
 14 15  1  0  0  0  0
 15 19  1  0  0  0  0
 15 16  2  0  0  0  0
 16 17  1  0  0  0  0
 17 18  2  0  0  0  0
 18 19  1  0  0  0  0
 18 43  1  0  0  0  0
 19 20  1  0  0  0  0
 20 21  1  0  0  0  0
 20 44  1  0  0  0  0
 20 45  1  0  0  0  0
 21 22  1  0  0  0  0
 21 23  1  0  0  0  0
 21 46  1  0  0  0  0
 22 47  1  0  0  0  0
 23 27  1  0  0  0  0
 23 24  1  0  0  0  0
 23 48  1  0  0  0  0
 24 25  1  0  0  0  0
 24 49  1  0  0  0  0
 24 50  1  0  0  0  0
 25 26  1  0  0  0  0
 25 51  1  0  0  0  0
 25 52  1  0  0  0  0
 26 27  1  0  0  0  0
 26 53  1  0  0  0  0
 26 54  1  0  0  0  0
 28 55  1  0  0  0  0
 28 56  1  0  0  0  0
M  END
> <s_m_source_file>
AV-unprocessed.smi

> <i_m_source_file_index>
83

> <i_lp_mmshare_version>
43012

> <i_f3d_flags>
0

> <s_epik_input>
W0NIM11DKD1PKU4xW0NIMl1bQ0gyXVtDQEhdKFtDSDJdMSlbQ0gyXU4oW0NIM10pYyhuW2NIXW4yKWMoYzIzKW5bY0hdbjNbQ0gyXVtDQEhdKFtPSF0pW0NAQEhdNFtDSDJdW0NIMl1bQ0gyXU80

> <s_epik_cmdline>
J2VwaWtfcHl0aG9uJywgJy1waCcsICc3LjAnLCAnLXRuJywgJzgnLCAnLW1hJywgJzIwMCcsICctbWV0YWxfYmluZGluZycsICctaW1hZScsICc8aW5maWxlLm1hZT4nLCAnLW9tYWUnLCAnPG91dGZpbGUubWFlPic=

> <r_lp_tautomer_probability>
1

> <r_epik_Ionization_Penalty>
0.00109752

> <r_epik_Ionization_Penalty_Charging>
0

> <r_epik_Ionization_Penalty_Neutral>
0.00109752

> <r_epik_State_Penalty>
0.000634803

> <r_epik_Charging_Adjusted_Penalty>
0.000634803

> <i_epik_Tot_Q>
0

> <i_epik_Tot_abs_Q>
0

> <r_epik_Metal_State_Penalty>
-0

> <b_epik_Metal_Only>
0

> <s_lp_Force_Field>
OPLS_2005

> <r_lp_Energy>
52.1505

> <b_lp_Chiralities_Consistent>
1

> <s_lp_Variant>
AV-unprocessed.smi:83-4

> <Gold.Version>
5.8.1

> <Gold.Id.Protein>
6NUR|6NUR_protein|mol2

> <Gold.PLP.Fitness>
49.8207

> <Gold.PLP.PLP>
-45.3506

> <Gold.PLP.part.hbond>
-3.1275

> <Gold.PLP.part.metal>
0.0000

> <Gold.PLP.part.buried>
-5.4971

> <Gold.PLP.part.nonpolar>
-36.6629

> <Gold.PLP.part.repulsive>
0.1758

> <Gold.PLP.ligand.clash>
0.0000

> <Gold.PLP.ligand.torsion>
1.3694

> <Gold.PLP.Chemscore.Hbond>
2.1824

> <Gold.PLP.Chemscore.CHOScore>
0.0000

> <Gold.PLP.Chemscore.Metal>
0.0000

> <Gold.Chemscore.Hbonds>
donor molecule, donor type, donor heavy atom, donor atom, acceptor molecule, acceptor atom, score
      P1  H  6896  6907       L1    17  1.00
      P1  H  6934  6947       L1    22  0.99

> <Gold.PLP.Chemscore.Internal.Correction>
0.6617

> <Gold.Rescore>
     Score         DG    S(hbond)    S(metal)    S(lipo)     H(rot)  DE(clash)    DE(int)     intcor
     10.65     -14.30       1.70        0.00      84.14       2.62       0.04       3.61       ----

> <Gold.Chemscore.Fitness>
10.6468

> <Gold.Chemscore.DG>
-14.3006

> <Gold.Chemscore.ZeroCoef>
-5.4800

> <Gold.Chemscore.Hbond>
1.6978

> <Gold.Chemscore.Metal>
0.0000

> <Gold.Chemscore.Lipo>
84.1440

> <Gold.Chemscore.Internal_Hbond>
0.0000

> <Gold.Chemscore.DEClash>
0.0417

> <Gold.Chemscore.DEInternal>
3.6121

> <Gold.Chemscore.Rot>
2.6152

> <Gold.Chemscore.Internal.Correction>
   9.000000E+99

> <Gold.Chemscore.Hbonds>
donor molecule, donor type, donor heavy atom, donor atom, acceptor molecule, acceptor atom, score
      P1  H  6896  6907       L1    17  0.48
      P1  H  6931  6943       L1    22  0.01
      P1  H  6934  6947       L1    22  0.32

> <Gold.Chemscore.Hbond.Weighted>
-5.6707

> <Gold.Chemscore.Metal.Weighted>
-0.0000

> <Gold.Chemscore.Lipo.Weighted>
-9.8448

> <Gold.Chemscore.Internal_Hbond.Weighted>
0.0000

> <Gold.Chemscore.DEClash.Weighted>
0.0417

> <Gold.Chemscore.DEInternal.Weighted>
3.6121

> <Gold.Chemscore.Rot.Weighted>
6.6949

> <Gold.Chemscore.Internal.Correction.Weighted>
   9.000000E+99

> <Gold.Protein.RotatedTorsions>
[ 6907 6896 6895 6894 ] final  -49.89 input  -60.11 | X-H torsion
[ 7974 7965 7964 7962 ] final   22.94 input  175.53 | X-H torsion
[ 8008 7997 7996 7995 ] final   12.91 input   59.86 | X-H torsion
[ 10167 10162 10161 10158 ] final -136.70 input  -65.29 | X-H torsion
[ 10718 10713 10712 10709 ] final   92.57 input   66.30 | X-H torsion
[ 10763 10752 10751 10750 ] final  -95.55 input  -60.55 | X-H torsion
[ 11005 11000 10999 10996 ] final   85.89 input  -57.11 | X-H torsion

> <Gold.Protein.ActiveResidues>
 VAL166  LYS551  ARG553  GLY616  TRP617  ASP618  TYR619  PRO620  LYS621  CYS622 
 ASP623  PHE694  ASN695  SER759  ASP760  ASP761  ALA762  ILE779  LEU786  VAL792 
 PHE793  MET794  SER795  GLU796  ALA797  LYS798  CYS799  TRP800  GLU811  SER814 

> <Gold.Protein.RotatedAtoms>
  150.8761  134.8144  159.7190 H   0  0  0  0  0  0  0  0  0  0  0  0  # atno 6907 bound_to 6896
  152.4747  134.4870  159.9693 H   0  0  0  0  0  0  0  0  0  0  0  0  # atno 6908 bound_to 6896
  151.4951  133.3478  159.2895 H   0  0  0  0  0  0  0  0  0  0  0  0  # atno 6909 bound_to 6896
  146.2006  139.7814  142.8764 H   0  0  0  0  0  0  0  0  0  0  0  0  # atno 7974 bound_to 7965
  154.8272  140.2893  155.5747 H   0  0  0  0  0  0  0  0  0  0  0  0  # atno 8008 bound_to 7997
  156.3002  140.2539  156.3121 H   0  0  0  0  0  0  0  0  0  0  0  0  # atno 8009 bound_to 7997
  154.9272  140.0384  157.2018 H   0  0  0  0  0  0  0  0  0  0  0  0  # atno 8010 bound_to 7997
  139.8651  143.7028  152.2646 H   0  0  0  0  0  0  0  0  0  0  0  0  # atno 10167 bound_to 10162
  157.6958  131.0448  150.3901 H   0  0  0  0  0  0  0  0  0  0  0  0  # atno 10718 bound_to 10713
  154.7159  135.5116  153.8737 H   0  0  0  0  0  0  0  0  0  0  0  0  # atno 10763 bound_to 10752
  153.0820  135.6634  154.0035 H   0  0  0  0  0  0  0  0  0  0  0  0  # atno 10764 bound_to 10752
  153.9868  135.3023  155.3395 H   0  0  0  0  0  0  0  0  0  0  0  0  # atno 10765 bound_to 10752
  139.8959  134.8318  156.2645 H   0  0  0  0  0  0  0  0  0  0  0  0  # atno 11005 bound_to 11000
  145.3495  141.0304  143.3346 LP  0  0  0  0  0  0  0  0  0  0  0  0  # atno 17320 bound_to 7965
  144.8676  139.5085  143.6783 LP  0  0  0  0  0  0  0  0  0  0  0  0  # atno 17321 bound_to 7965
  139.7336  144.7576  151.0762 LP  0  0  0  0  0  0  0  0  0  0  0  0  # atno 17342 bound_to 10162
  140.7769  143.5057  150.9715 LP  0  0  0  0  0  0  0  0  0  0  0  0  # atno 17343 bound_to 10162
  156.4306  130.3971  149.6763 LP  0  0  0  0  0  0  0  0  0  0  0  0  # atno 17370 bound_to 10713
  156.3982  130.7661  151.2667 LP  0  0  0  0  0  0  0  0  0  0  0  0  # atno 17371 bound_to 10713
  141.0141  133.7078  156.1160 LP  0  0  0  0  0  0  0  0  0  0  0  0  # atno 17394 bound_to 11000
  140.7326  134.4238  157.5564 LP  0  0  0  0  0  0  0  0  0  0  0  0  # atno 17395 bound_to 11000

$$$$
