AV-unprocessed.smi:1412|AV-procd|sdf|5745|dock9
  -GOLD-   22720 5383D 1   1.00000     0.00000
 Structure written by MMmdl.
 40 41  0  0  0  0  0  0  0  0  2 V2000
  150.9812  141.6307  157.2858 C   0  0  0  0  0  0  0  0  0  0  0  0
  149.8030  140.7249  157.6884 C   0  0  0  0  0  0  0  0  0  0  0  0
  149.2596  139.7838  156.5660 C   0  0  2  0  0  0  0  0  0  0  0  0
  148.8330  140.7064  155.3927 C   0  0  0  0  0  0  0  0  0  0  0  0
  147.9920  139.0483  157.1130 C   0  0  0  0  0  0  0  0  0  0  0  0
  148.0944  138.6503  158.5181 N   0  0  0  0  0  0  0  0  0  0  0  0
  147.8353  137.4377  159.0290 C   0  0  0  0  0  0  0  0  0  0  0  0
  147.4832  136.5164  158.2887 O   0  0  0  0  0  0  0  0  0  0  0  0
  147.9896  137.3711  160.3707 N   0  5  0  0  0  0  0  0  0  0  0  0
  147.5895  136.2763  161.0380 C   0  0  0  0  0  0  0  0  0  0  0  0
  147.2004  135.1547  160.4112 N   0  0  0  0  0  0  0  0  0  0  0  0
  146.8302  134.1413  161.2852 N   0  0  0  0  0  0  0  0  0  0  0  0
  146.9593  134.5238  162.5552 C   0  0  0  0  0  0  0  0  0  0  0  0
  147.5455  136.1555  162.7991 S   0  0  0  0  0  0  0  0  0  0  0  0
  150.3096  138.8262  156.1146 N   0  0  0  0  0  0  0  0  0  0  0  0
  151.3373  139.3948  155.2342 C   0  0  0  0  0  0  0  0  0  0  0  0
  152.4597  138.3869  154.9333 C   0  0  0  0  0  0  0  0  0  0  0  0
  151.9067  137.2078  154.3606 O   0  0  0  0  0  0  0  0  0  0  0  0
  150.9420  136.5936  155.2069 C   0  0  0  0  0  0  0  0  0  0  0  0
  149.8075  137.5879  155.5069 C   0  0  0  0  0  0  0  0  0  0  0  0
  151.3073  142.2302  158.1358 H   0  0  0  0  0  0  0  0  0  0  0  0
  150.7058  142.3221  156.4900 H   0  0  0  0  0  0  0  0  0  0  0  0
  151.8414  141.0534  156.9471 H   0  0  0  0  0  0  0  0  0  0  0  0
  150.0906  140.1426  158.5637 H   0  0  0  0  0  0  0  0  0  0  0  0
  149.0048  141.3753  158.0476 H   0  0  0  0  0  0  0  0  0  0  0  0
  148.2579  141.5668  155.7363 H   0  0  0  0  0  0  0  0  0  0  0  0
  148.2033  140.1851  154.6716 H   0  0  0  0  0  0  0  0  0  0  0  0
  149.6952  141.0944  154.8500 H   0  0  0  0  0  0  0  0  0  0  0  0
  147.0942  139.6491  156.9679 H   0  0  0  0  0  0  0  0  0  0  0  0
  147.8195  138.1275  156.5571 H   0  0  0  0  0  0  0  0  0  0  0  0
  148.3803  139.3672  159.1687 H   0  0  0  0  0  0  0  0  0  0  0  0
  146.7097  133.8407  163.3531 H   0  0  0  0  0  0  0  0  0  0  0  0
  150.8944  139.7142  154.2912 H   0  0  0  0  0  0  0  0  0  0  0  0
  151.7936  140.2747  155.6841 H   0  0  0  0  0  0  0  0  0  0  0  0
  153.1783  138.8174  154.2361 H   0  0  0  0  0  0  0  0  0  0  0  0
  153.0069  138.1361  155.8434 H   0  0  0  0  0  0  0  0  0  0  0  0
  150.5472  135.7070  154.7109 H   0  0  0  0  0  0  0  0  0  0  0  0
  151.4167  136.2598  156.1309 H   0  0  0  0  0  0  0  0  0  0  0  0
  149.0947  137.0909  156.1619 H   0  0  0  0  0  0  0  0  0  0  0  0
  149.2829  137.8079  154.5772 H   0  0  0  0  0  0  0  0  0  0  0  0
  1  2  1  0  0  0  0
  1 21  1  0  0  0  0
  1 22  1  0  0  0  0
  1 23  1  0  0  0  0
  2  3  1  0  0  0  0
  2 24  1  0  0  0  0
  2 25  1  0  0  0  0
  3  4  1  0  0  0  0
  3  5  1  0  0  0  0
  3 15  1  0  0  0  0
  4 26  1  0  0  0  0
  4 27  1  0  0  0  0
  4 28  1  0  0  0  0
  5  6  1  0  0  0  0
  5 29  1  0  0  0  0
  5 30  1  0  0  0  0
  6  7  1  0  0  0  0
  6 31  1  0  0  0  0
  7  8  2  0  0  0  0
  7  9  1  0  0  0  0
  9 10  1  0  0  0  0
 10 14  1  0  0  0  0
 10 11  2  0  0  0  0
 11 12  1  0  0  0  0
 12 13  2  0  0  0  0
 13 14  1  0  0  0  0
 13 32  1  0  0  0  0
 15 20  1  0  0  0  0
 15 16  1  0  0  0  0
 16 17  1  0  0  0  0
 16 33  1  0  0  0  0
 16 34  1  0  0  0  0
 17 18  1  0  0  0  0
 17 35  1  0  0  0  0
 17 36  1  0  0  0  0
 18 19  1  0  0  0  0
 19 20  1  0  0  0  0
 19 37  1  0  0  0  0
 19 38  1  0  0  0  0
 20 39  1  0  0  0  0
 20 40  1  0  0  0  0
M  CHG  1   9  -1
M  END
> <s_m_source_file>
AV-unprocessed.smi

> <i_m_source_file_index>
1412

> <i_lp_mmshare_version>
43012

> <i_f3d_flags>
0

> <s_epik_input>
W0NIMl0xW0NIMl1PW0NIMl1bQ0gyXU4xW0NAQF0oW0NIM10pKFtDSDJdW0NIM10pW0NIMl1bTkhdQyg9TylbTkhdYzJubltjSF1zMg==

> <s_epik_cmdline>
J2VwaWtfcHl0aG9uJywgJy1waCcsICc3LjAnLCAnLXRuJywgJzgnLCAnLW1hJywgJzIwMCcsICctbWV0YWxfYmluZGluZycsICctaW1hZScsICc8aW5maWxlLm1hZT4nLCAnLW9tYWUnLCAnPG91dGZpbGUubWFlPic=

> <r_lp_tautomer_probability>
1

> <r_epik_Ionization_Penalty>
4.84662

> <r_epik_Ionization_Penalty_Charging>
4.3852

> <r_epik_Ionization_Penalty_Neutral>
0.461421

> <r_epik_State_Penalty>
4.67356

> <r_epik_Charging_Adjusted_Penalty>
9.05877

> <i_epik_Tot_Q>
-1

> <i_epik_Tot_abs_Q>
1

> <r_epik_Metal_State_Penalty>
1.08474

> <b_epik_Metal_Only>
1

> <s_lp_Force_Field>
OPLS_2005

> <r_lp_Energy>
39.9544

> <b_lp_Chiralities_Consistent>
1

> <s_lp_Variant>
AV-unprocessed.smi:1412-6

> <Gold.Version>
5.8.1

> <Gold.Id.Protein>
6NUR|6NUR_protein|mol2

> <Gold.PLP.Fitness>
37.0074

> <Gold.PLP.PLP>
-29.0104

> <Gold.PLP.part.hbond>
-3.0000

> <Gold.PLP.part.metal>
0.0000

> <Gold.PLP.part.buried>
-4.7876

> <Gold.PLP.part.nonpolar>
-24.0158

> <Gold.PLP.part.repulsive>
1.5844

> <Gold.PLP.ligand.clash>
0.0000

> <Gold.PLP.ligand.torsion>
1.1263

> <Gold.PLP.Chemscore.Hbond>
3.3562

> <Gold.PLP.Chemscore.CHOScore>
0.0000

> <Gold.PLP.Chemscore.Metal>
0.0000

> <Gold.Chemscore.Hbonds>
donor molecule, donor type, donor heavy atom, donor atom, acceptor molecule, acceptor atom, score
      P1  H  6931  6943       L1     9  1.10
      P1  H  6934  6947       L1     9  1.44
      P1  H 10752 10765       L1    18  0.64

> <Gold.PLP.Chemscore.Internal.Correction>
0.1809

> <Gold.Rescore>
     Score         DG    S(hbond)    S(metal)    S(lipo)     H(rot)  DE(clash)    DE(int)     intcor
      9.10     -12.22       1.31        0.00      60.25       1.82       0.05       3.07       ----

> <Gold.Chemscore.Fitness>
9.0998

> <Gold.Chemscore.DG>
-12.2236

> <Gold.Chemscore.ZeroCoef>
-5.4800

> <Gold.Chemscore.Hbond>
1.3067

> <Gold.Chemscore.Metal>
0.0000

> <Gold.Chemscore.Lipo>
60.2526

> <Gold.Chemscore.Internal_Hbond>
0.0000

> <Gold.Chemscore.DEClash>
0.0515

> <Gold.Chemscore.DEInternal>
3.0723

> <Gold.Chemscore.Rot>
1.8243

> <Gold.Chemscore.Internal.Correction>
   9.000000E+99

> <Gold.Chemscore.Hbonds>
donor molecule, donor type, donor heavy atom, donor atom, acceptor molecule, acceptor atom, score
      P1  H  6931  6943       L1     9  0.10
      P1  H  6934  6947       L1     9  0.20
      P1  H 10752 10765       L1    18  0.29

> <Gold.Chemscore.Hbond.Weighted>
-4.3643

> <Gold.Chemscore.Metal.Weighted>
-0.0000

> <Gold.Chemscore.Lipo.Weighted>
-7.0496

> <Gold.Chemscore.Internal_Hbond.Weighted>
0.0000

> <Gold.Chemscore.DEClash.Weighted>
0.0515

> <Gold.Chemscore.DEInternal.Weighted>
3.0723

> <Gold.Chemscore.Rot.Weighted>
4.6702

> <Gold.Chemscore.Internal.Correction.Weighted>
   9.000000E+99

> <Gold.Protein.RotatedTorsions>
[ 6907 6896 6895 6894 ] final -140.02 input  -60.11 | X-H torsion
[ 7974 7965 7964 7962 ] final  142.04 input  175.53 | X-H torsion
[ 8008 7997 7996 7995 ] final  -18.67 input   59.86 | X-H torsion
[ 10167 10162 10161 10158 ] final  -84.75 input  -65.29 | X-H torsion
[ 10718 10713 10712 10709 ] final  112.73 input   66.30 | X-H torsion
[ 10763 10752 10751 10750 ] final  130.30 input  -60.55 | X-H torsion
[ 11005 11000 10999 10996 ] final -119.72 input  -57.11 | X-H torsion

> <Gold.Protein.ActiveResidues>
 VAL166  LYS551  ARG553  GLY616  TRP617  ASP618  TYR619  PRO620  LYS621  CYS622 
 ASP623  PHE694  ASN695  SER759  ASP760  ASP761  ALA762  ILE779  LEU786  VAL792 
 PHE793  MET794  SER795  GLU796  ALA797  LYS798  CYS799  TRP800  GLU811  SER814 

> <Gold.Protein.RotatedAtoms>
  151.0553  133.5589  159.2638 H   0  0  0  0  0  0  0  0  0  0  0  0  # atno 6907 bound_to 6896
  151.2585  135.0645  159.9099 H   0  0  0  0  0  0  0  0  0  0  0  0  # atno 6908 bound_to 6896
  152.5389  134.0302  159.8075 H   0  0  0  0  0  0  0  0  0  0  0  0  # atno 6909 bound_to 6896
  144.9043  139.5380  143.5739 H   0  0  0  0  0  0  0  0  0  0  0  0  # atno 7974 bound_to 7965
  154.4890  140.2109  155.9591 H   0  0  0  0  0  0  0  0  0  0  0  0  # atno 8008 bound_to 7997
  156.1278  140.3202  155.8272 H   0  0  0  0  0  0  0  0  0  0  0  0  # atno 8009 bound_to 7997
  155.4352  140.0506  157.3006 H   0  0  0  0  0  0  0  0  0  0  0  0  # atno 8010 bound_to 7997
  140.4103  143.2625  151.9027 H   0  0  0  0  0  0  0  0  0  0  0  0  # atno 10167 bound_to 10162
  157.6376  131.0972  150.6938 H   0  0  0  0  0  0  0  0  0  0  0  0  # atno 10718 bound_to 10713
  153.7559  135.3203  155.3329 H   0  0  0  0  0  0  0  0  0  0  0  0  # atno 10763 bound_to 10752
  154.8247  135.4578  154.0886 H   0  0  0  0  0  0  0  0  0  0  0  0  # atno 10764 bound_to 10752
  153.2102  135.6934  153.8206 H   0  0  0  0  0  0  0  0  0  0  0  0  # atno 10765 bound_to 10752
  141.0195  134.0146  157.3303 H   0  0  0  0  0  0  0  0  0  0  0  0  # atno 11005 bound_to 11000
  146.3125  139.7798  142.9009 LP  0  0  0  0  0  0  0  0  0  0  0  0  # atno 17320 bound_to 7965
  145.3563  141.0317  143.3310 LP  0  0  0  0  0  0  0  0  0  0  0  0  # atno 17321 bound_to 7965
  139.4782  144.5544  151.8337 LP  0  0  0  0  0  0  0  0  0  0  0  0  # atno 17342 bound_to 10162
  140.4645  144.1675  150.5910 LP  0  0  0  0  0  0  0  0  0  0  0  0  # atno 17343 bound_to 10162
  156.7267  130.4697  149.5509 LP  0  0  0  0  0  0  0  0  0  0  0  0  # atno 17370 bound_to 10713
  156.1629  130.6386  151.0742 LP  0  0  0  0  0  0  0  0  0  0  0  0  # atno 17371 bound_to 10713
  139.9137  135.0194  156.7796 LP  0  0  0  0  0  0  0  0  0  0  0  0  # atno 17394 bound_to 11000
  140.6598  133.9656  155.7798 LP  0  0  0  0  0  0  0  0  0  0  0  0  # atno 17395 bound_to 11000

$$$$
