AV-unprocessed.smi:2938|AV-procd|sdf|11260|dock6
  -GOLD-   2272016153D 1   1.00000     0.00000
 Structure written by MMmdl.
 26 27  0  0  0  0  0  0  0  0  2 V2000
  151.8383  139.5673  155.0252 N   0  0  0  0  0  0  0  0  0  0  0  0
  152.0960  139.1602  156.0776 C   0  0  0  0  0  0  0  0  0  0  0  0
  152.4229  138.6475  157.4066 C   0  0  0  0  0  0  0  0  0  0  0  0
  152.5290  137.2577  157.6680 C   0  0  0  0  0  0  0  0  0  0  0  0
  152.3361  136.3004  156.7104 O   0  5  0  0  0  0  0  0  0  0  0  0
  152.8310  136.7819  158.8949 N   0  0  0  0  0  0  0  0  0  0  0  0
  153.0268  137.6820  159.8567 C   0  0  0  0  0  0  0  0  0  0  0  0
  153.3328  137.1898  161.1007 N   0  0  0  0  0  0  0  0  0  0  0  0
  152.9564  139.0080  159.7381 N   0  0  0  0  0  0  0  0  0  0  0  0
  152.6541  139.5071  158.5137 C   0  0  0  0  0  0  0  0  0  0  0  0
  152.5758  140.9052  158.3836 N   0  0  0  0  0  0  0  0  0  0  0  0
  151.2684  141.3781  157.9469 C   0  0  0  0  0  0  0  0  0  0  0  0
  151.3165  142.8954  157.6971 C   0  0  0  0  0  0  0  0  0  0  0  0
  151.7711  143.5600  158.8731 O   0  0  0  0  0  0  0  0  0  0  0  0
  153.0811  143.1438  159.2498 C   0  0  0  0  0  0  0  0  0  0  0  0
  153.0786  141.6331  159.5417 C   0  0  0  0  0  0  0  0  0  0  0  0
  153.4005  136.1949  161.2552 H   0  0  0  0  0  0  0  0  0  0  0  0
  153.4933  137.8230  161.8701 H   0  0  0  0  0  0  0  0  0  0  0  0
  150.9724  140.8568  157.0356 H   0  0  0  0  0  0  0  0  0  0  0  0
  150.5204  141.1511  158.7079 H   0  0  0  0  0  0  0  0  0  0  0  0
  151.9728  143.1308  156.8575 H   0  0  0  0  0  0  0  0  0  0  0  0
  150.3243  143.2663  157.4398 H   0  0  0  0  0  0  0  0  0  0  0  0
  153.7922  143.3859  158.4583 H   0  0  0  0  0  0  0  0  0  0  0  0
  153.3896  143.6981  160.1362 H   0  0  0  0  0  0  0  0  0  0  0  0
  152.4525  141.4248  160.4104 H   0  0  0  0  0  0  0  0  0  0  0  0
  154.0879  141.2952  159.7804 H   0  0  0  0  0  0  0  0  0  0  0  0
  1  2  3  0  0  0  0
  2  3  1  0  0  0  0
  3 10  1  0  0  0  0
  3  4  2  0  0  0  0
  4  5  1  0  0  0  0
  4  6  1  0  0  0  0
  6  7  2  0  0  0  0
  7  8  1  0  0  0  0
  7  9  1  0  0  0  0
  8 17  1  0  0  0  0
  8 18  1  0  0  0  0
  9 10  2  0  0  0  0
 10 11  1  0  0  0  0
 11 16  1  0  0  0  0
 11 12  1  0  0  0  0
 12 13  1  0  0  0  0
 12 19  1  0  0  0  0
 12 20  1  0  0  0  0
 13 14  1  0  0  0  0
 13 21  1  0  0  0  0
 13 22  1  0  0  0  0
 14 15  1  0  0  0  0
 15 16  1  0  0  0  0
 15 23  1  0  0  0  0
 15 24  1  0  0  0  0
 16 25  1  0  0  0  0
 16 26  1  0  0  0  0
M  CHG  1   5  -1
M  END
> <s_m_source_file>
AV-unprocessed.smi

> <i_m_source_file_index>
2938

> <i_lp_mmshare_version>
43012

> <i_f3d_flags>
0

> <s_epik_input>
TiNDYzFjKFtPSF0pbmMoW05IMl0pbmMxTjJbQ0gyXVtDSDJdT1tDSDJdW0NIMl0y

> <s_epik_cmdline>
J2VwaWtfcHl0aG9uJywgJy1waCcsICc3LjAnLCAnLXRuJywgJzgnLCAnLW1hJywgJzIwMCcsICctbWV0YWxfYmluZGluZycsICctaW1hZScsICc8aW5maWxlLm1hZT4nLCAnLW9tYWUnLCAnPG91dGZpbGUubWFlPic=

> <r_lp_tautomer_probability>
1

> <r_epik_Ionization_Penalty>
0.00503702

> <r_epik_Ionization_Penalty_Charging>
2.31924e-12

> <r_epik_Ionization_Penalty_Neutral>
0.00503702

> <r_epik_State_Penalty>
-0

> <r_epik_Charging_Adjusted_Penalty>
2.31924e-12

> <i_epik_Tot_Q>
-1

> <i_epik_Tot_abs_Q>
1

> <r_epik_Metal_State_Penalty>
-0

> <b_epik_Metal_Only>
0

> <s_lp_Force_Field>
OPLS_2005

> <r_lp_Energy>
14.7587

> <b_lp_Chiralities_Consistent>
1

> <s_lp_Variant>
AV-unprocessed.smi:2938-1

> <Gold.Version>
5.8.1

> <Gold.Id.Protein>
6NUR|6NUR_protein|mol2

> <Gold.PLP.Fitness>
34.1532

> <Gold.PLP.PLP>
-23.8112

> <Gold.PLP.part.hbond>
-2.7805

> <Gold.PLP.part.metal>
0.0000

> <Gold.PLP.part.buried>
-5.5695

> <Gold.PLP.part.nonpolar>
-16.5840

> <Gold.PLP.part.repulsive>
0.1581

> <Gold.PLP.ligand.clash>
0.0000

> <Gold.PLP.ligand.torsion>
0.1080

> <Gold.PLP.Chemscore.Hbond>
3.4805

> <Gold.PLP.Chemscore.CHOScore>
0.0000

> <Gold.PLP.Chemscore.Metal>
0.0000

> <Gold.Chemscore.Hbonds>
donor molecule, donor type, donor heavy atom, donor atom, acceptor molecule, acceptor atom, score
      P1  H  6896  6909       L1     6  0.46
      P1  H  7989  7998       L1     1  1.00
      P1  H 10752 10764       L1     5  2.00

> <Gold.PLP.Chemscore.Internal.Correction>
0.1165

> <Gold.Rescore>
     Score         DG    S(hbond)    S(metal)    S(lipo)     H(rot)  DE(clash)    DE(int)     intcor
     14.07     -14.93       2.05        0.00      44.26       1.00       0.00       0.86       ----

> <Gold.Chemscore.Fitness>
14.0690

> <Gold.Chemscore.DG>
-14.9295

> <Gold.Chemscore.ZeroCoef>
-5.4800

> <Gold.Chemscore.Hbond>
2.0451

> <Gold.Chemscore.Metal>
0.0000

> <Gold.Chemscore.Lipo>
44.2640

> <Gold.Chemscore.Internal_Hbond>
0.0000

> <Gold.Chemscore.DEClash>
0.0000

> <Gold.Chemscore.DEInternal>
0.8605

> <Gold.Chemscore.Rot>
1.0000

> <Gold.Chemscore.Internal.Correction>
   9.000000E+99

> <Gold.Chemscore.Hbonds>
donor molecule, donor type, donor heavy atom, donor atom, acceptor molecule, acceptor atom, score
      P1  H  6896  6909       L1     6  0.16
      P1  H  7989  7998       L1     1  0.91
      P1  H 10752 10764       L1     5  0.97

> <Gold.Chemscore.Hbond.Weighted>
-6.8306

> <Gold.Chemscore.Metal.Weighted>
-0.0000

> <Gold.Chemscore.Lipo.Weighted>
-5.1789

> <Gold.Chemscore.Internal_Hbond.Weighted>
0.0000

> <Gold.Chemscore.DEClash.Weighted>
0.0000

> <Gold.Chemscore.DEInternal.Weighted>
0.8605

> <Gold.Chemscore.Rot.Weighted>
2.5600

> <Gold.Chemscore.Internal.Correction.Weighted>
   9.000000E+99

> <Gold.Protein.RotatedTorsions>
[ 6907 6896 6895 6894 ] final  144.11 input  -60.11 | X-H torsion
[ 7974 7965 7964 7962 ] final   27.17 input  175.53 | X-H torsion
[ 8008 7997 7996 7995 ] final -169.60 input   59.86 | X-H torsion
[ 10167 10162 10161 10158 ] final  -57.02 input  -65.29 | X-H torsion
[ 10718 10713 10712 10709 ] final   19.96 input   66.30 | X-H torsion
[ 10763 10752 10751 10750 ] final  -20.51 input  -60.55 | X-H torsion
[ 11005 11000 10999 10996 ] final -137.42 input  -57.11 | X-H torsion

> <Gold.Protein.ActiveResidues>
 VAL166  LYS551  ARG553  GLY616  TRP617  ASP618  TYR619  PRO620  LYS621  CYS622 
 ASP623  PHE694  ASN695  SER759  ASP760  ASP761  ALA762  ILE779  LEU786  VAL792 
 PHE793  MET794  SER795  GLU796  ALA797  LYS798  CYS799  TRP800  GLU811  SER814 

> <Gold.Protein.RotatedAtoms>
  152.1978  133.4819  159.5042 H   0  0  0  0  0  0  0  0  0  0  0  0  # atno 6907 bound_to 6896
  150.6963  134.1629  159.4192 H   0  0  0  0  0  0  0  0  0  0  0  0  # atno 6908 bound_to 6896
  151.9546  135.0153  160.0594 H   0  0  0  0  0  0  0  0  0  0  0  0  # atno 6909 bound_to 6896
  146.1798  139.7228  142.8908 H   0  0  0  0  0  0  0  0  0  0  0  0  # atno 7974 bound_to 7965
  155.9072  140.1051  157.1306 H   0  0  0  0  0  0  0  0  0  0  0  0  # atno 8008 bound_to 7997
  154.4034  140.1281  156.4575 H   0  0  0  0  0  0  0  0  0  0  0  0  # atno 8009 bound_to 7997
  155.7353  140.3468  155.5081 H   0  0  0  0  0  0  0  0  0  0  0  0  # atno 8010 bound_to 7997
  140.6283  143.2448  151.5307 H   0  0  0  0  0  0  0  0  0  0  0  0  # atno 10167 bound_to 10162
  157.1178  130.6536  149.5915 H   0  0  0  0  0  0  0  0  0  0  0  0  # atno 10718 bound_to 10713
  153.6215  135.6992  153.5308 H   0  0  0  0  0  0  0  0  0  0  0  0  # atno 10763 bound_to 10752
  153.2933  135.4150  155.1186 H   0  0  0  0  0  0  0  0  0  0  0  0  # atno 10764 bound_to 10752
  154.8542  135.3631  154.5756 H   0  0  0  0  0  0  0  0  0  0  0  0  # atno 10765 bound_to 10752
  140.8712  134.2048  157.4649 H   0  0  0  0  0  0  0  0  0  0  0  0  # atno 11005 bound_to 11000
  145.4107  141.0396  143.3018 LP  0  0  0  0  0  0  0  0  0  0  0  0  # atno 17320 bound_to 7965
  144.8297  139.5650  143.6949 LP  0  0  0  0  0  0  0  0  0  0  0  0  # atno 17321 bound_to 7965
  139.5500  144.2420  152.1513 LP  0  0  0  0  0  0  0  0  0  0  0  0  # atno 17342 bound_to 10162
  140.1657  144.4983  150.6607 LP  0  0  0  0  0  0  0  0  0  0  0  0  # atno 17343 bound_to 10162
  155.9835  130.4855  150.6938 LP  0  0  0  0  0  0  0  0  0  0  0  0  # atno 17370 bound_to 10713
  157.4503  131.0871  151.0853 LP  0  0  0  0  0  0  0  0  0  0  0  0  # atno 17371 bound_to 10713
  139.8712  134.9775  156.4961 LP  0  0  0  0  0  0  0  0  0  0  0  0  # atno 17394 bound_to 11000
  140.8571  133.8088  155.9227 LP  0  0  0  0  0  0  0  0  0  0  0  0  # atno 17395 bound_to 11000

$$$$
