AV-unprocessed.smi:2703|AV-procd|sdf|10439|dock10
  -GOLD-   2272014483D 1   1.00000     0.00000
 Structure written by MMmdl.
 42 44  0  0  0  0  0  0  0  0  3 V2000
  151.5810  144.1984  160.4275 C   0  0  0  0  0  0  0  0  0  0  0  0
  152.4358  142.9661  160.6654 C   0  0  0  0  0  0  0  0  0  0  0  0
  152.7136  142.1031  159.5816 C   0  0  0  0  0  0  0  0  0  0  0  0
  153.5021  140.9455  159.7609 C   0  0  0  0  0  0  0  0  0  0  0  0
  153.8897  139.9745  158.8537 N   0  0  0  0  0  0  0  0  0  0  0  0
  154.6062  139.1608  159.6232 C   0  0  0  0  0  0  0  0  0  0  0  0
  154.7318  139.4910  160.9230 N   0  0  0  0  0  0  0  0  0  0  0  0
  155.4589  138.7537  161.9414 C   0  0  0  0  0  0  0  0  0  0  0  0
  154.5644  138.3460  163.1270 C   0  0  1  0  0  0  0  0  0  0  0  0
  153.7816  137.2239  162.7668 O   0  0  0  0  0  0  0  0  0  0  0  0
  155.3892  138.0077  164.3793 C   0  0  0  0  0  0  0  0  0  0  0  0
  156.6053  139.3013  164.7664 S   0  0  0  0  0  0  0  0  0  0  0  0
  155.8106  140.5172  165.7901 C   0  0  0  0  0  0  0  0  0  0  0  0
  155.5562  141.8303  165.3359 C   0  0  0  0  0  0  0  0  0  0  0  0
  154.9234  142.7507  166.1856 C   0  0  0  0  0  0  0  0  0  0  0  0
  154.5573  142.3403  167.4759 C   0  0  0  0  0  0  0  0  0  0  0  0
  154.8320  141.0221  167.8872 C   0  0  0  0  0  0  0  0  0  0  0  0
  155.4489  140.1250  167.0581 N   0  3  0  0  0  0  0  0  0  0  0  0
  155.6769  138.9304  167.4812 O   0  5  0  0  0  0  0  0  0  0  0  0
  154.0114  140.6727  161.0646 C   0  0  0  0  0  0  0  0  0  0  0  0
  153.7435  141.5256  162.1502 C   0  0  0  0  0  0  0  0  0  0  0  0
  152.9521  142.6770  161.9541 C   0  0  0  0  0  0  0  0  0  0  0  0
  152.6647  143.5888  163.1340 C   0  0  0  0  0  0  0  0  0  0  0  0
  151.2522  144.2613  159.3898 H   0  0  0  0  0  0  0  0  0  0  0  0
  152.1451  145.1032  160.6546 H   0  0  0  0  0  0  0  0  0  0  0  0
  150.6925  144.1751  161.0587 H   0  0  0  0  0  0  0  0  0  0  0  0
  152.3206  142.3226  158.5997 H   0  0  0  0  0  0  0  0  0  0  0  0
  155.0691  138.2721  159.2194 H   0  0  0  0  0  0  0  0  0  0  0  0
  155.9132  137.8734  161.4850 H   0  0  0  0  0  0  0  0  0  0  0  0
  156.2801  139.3816  162.2895 H   0  0  0  0  0  0  0  0  0  0  0  0
  153.8877  139.1693  163.3600 H   0  0  0  0  0  0  0  0  0  0  0  0
  153.0214  137.1976  163.3284 H   0  0  0  0  0  0  0  0  0  0  0  0
  154.7331  137.8587  165.2378 H   0  0  0  0  0  0  0  0  0  0  0  0
  155.9306  137.0747  164.2198 H   0  0  0  0  0  0  0  0  0  0  0  0
  155.8409  142.1450  164.3441 H   0  0  0  0  0  0  0  0  0  0  0  0
  154.7219  143.7582  165.8521 H   0  0  0  0  0  0  0  0  0  0  0  0
  154.0696  143.0298  168.1490 H   0  0  0  0  0  0  0  0  0  0  0  0
  154.5805  140.6354  168.8643 H   0  0  0  0  0  0  0  0  0  0  0  0
  154.1442  141.2957  163.1262 H   0  0  0  0  0  0  0  0  0  0  0  0
  153.1632  143.2390  164.0385 H   0  0  0  0  0  0  0  0  0  0  0  0
  151.5936  143.6252  163.3345 H   0  0  0  0  0  0  0  0  0  0  0  0
  153.0141  144.6012  162.9310 H   0  0  0  0  0  0  0  0  0  0  0  0
  1  2  1  0  0  0  0
  1 24  1  0  0  0  0
  1 25  1  0  0  0  0
  1 26  1  0  0  0  0
  2 22  1  0  0  0  0
  2  3  2  0  0  0  0
  3  4  1  0  0  0  0
  3 27  1  0  0  0  0
  4 20  2  0  0  0  0
  4  5  1  0  0  0  0
  5  6  2  0  0  0  0
  6  7  1  0  0  0  0
  6 28  1  0  0  0  0
  7  8  1  0  0  0  0
  7 20  1  0  0  0  0
  8  9  1  0  0  0  0
  8 29  1  0  0  0  0
  8 30  1  0  0  0  0
  9 10  1  0  0  0  0
  9 11  1  0  0  0  0
  9 31  1  0  0  0  0
 10 32  1  0  0  0  0
 11 12  1  0  0  0  0
 11 33  1  0  0  0  0
 11 34  1  0  0  0  0
 12 13  1  0  0  0  0
 13 18  1  0  0  0  0
 13 14  2  0  0  0  0
 14 15  1  0  0  0  0
 14 35  1  0  0  0  0
 15 16  2  0  0  0  0
 15 36  1  0  0  0  0
 16 17  1  0  0  0  0
 16 37  1  0  0  0  0
 17 18  2  0  0  0  0
 17 38  1  0  0  0  0
 18 19  1  0  0  0  0
 20 21  1  0  0  0  0
 21 22  2  0  0  0  0
 21 39  1  0  0  0  0
 22 23  1  0  0  0  0
 23 40  1  0  0  0  0
 23 41  1  0  0  0  0
 23 42  1  0  0  0  0
M  CHG  1  18   1
M  CHG  1  19  -1
M  END
> <s_m_source_file>
AV-unprocessed.smi

> <i_m_source_file_index>
2703

> <i_lp_mmshare_version>
43012

> <i_f3d_flags>
0

> <s_epik_input>
W0NIM11jKFtjSF0xKWMoW0NIM10pW2NIXWMoYzEyKW4oW2NIXW4yKVtDSDJdW0NASF0oW09IXSlbQ0gyXVNjM1tjSF1bY0hdW2NIXVtjSF1bbitdM1tPLV0=

> <s_epik_cmdline>
J2VwaWtfcHl0aG9uJywgJy1waCcsICc3LjAnLCAnLXRuJywgJzgnLCAnLW1hJywgJzIwMCcsICctbWV0YWxfYmluZGluZycsICctaW1hZScsICc8aW5maWxlLm1hZT4nLCAnLW9tYWUnLCAnPG91dGZpbGUubWFlPic=

> <r_epik_Ionization_Penalty>
0.106001

> <r_epik_Ionization_Penalty_Charging>
1.39204e-07

> <r_epik_Ionization_Penalty_Neutral>
0.106001

> <r_epik_State_Penalty>
0.0958598

> <r_epik_Charging_Adjusted_Penalty>
0.0958599

> <i_epik_Tot_Q>
0

> <i_epik_Tot_abs_Q>
2

> <r_epik_Metal_State_Penalty>
0.000104041

> <b_epik_Metal_Only>
0

> <s_lp_Force_Field>
OPLS_2005

> <r_lp_Energy>
17.7295

> <b_lp_Chiralities_Consistent>
1

> <s_lp_Variant>
AV-unprocessed.smi:2703-2

> <Gold.Version>
5.8.1

> <Gold.Id.Protein>
6NUR|6NUR_protein|mol2

> <Gold.PLP.Fitness>
52.5186

> <Gold.PLP.PLP>
-50.3504

> <Gold.PLP.part.hbond>
-2.0000

> <Gold.PLP.part.metal>
0.0000

> <Gold.PLP.part.buried>
-3.4584

> <Gold.PLP.part.nonpolar>
-43.6088

> <Gold.PLP.part.repulsive>
0.1003

> <Gold.PLP.ligand.clash>
0.0000

> <Gold.PLP.ligand.torsion>
0.4323

> <Gold.PLP.Chemscore.Hbond>
1.0000

> <Gold.PLP.Chemscore.CHOScore>
0.0000

> <Gold.PLP.Chemscore.Metal>
0.0000

> <Gold.Chemscore.Hbonds>
donor molecule, donor type, donor heavy atom, donor atom, acceptor molecule, acceptor atom, score
      P1  H  7997  8009       L1     5  0.98

> <Gold.PLP.Chemscore.Internal.Correction>
0.0328

> <Gold.Rescore>
     Score         DG    S(hbond)    S(metal)    S(lipo)     H(rot)  DE(clash)    DE(int)     intcor
     18.70     -19.54       0.95        0.00     142.33       2.26       0.40       0.44       ----

> <Gold.Chemscore.Fitness>
18.6975

> <Gold.Chemscore.DG>
-19.5421

> <Gold.Chemscore.ZeroCoef>
-5.4800

> <Gold.Chemscore.Hbond>
0.9533

> <Gold.Chemscore.Metal>
0.0000

> <Gold.Chemscore.Lipo>
142.3326

> <Gold.Chemscore.Internal_Hbond>
0.0000

> <Gold.Chemscore.DEClash>
0.4000

> <Gold.Chemscore.DEInternal>
0.4447

> <Gold.Chemscore.Rot>
2.2558

> <Gold.Chemscore.Internal.Correction>
   9.000000E+99

> <Gold.Chemscore.Hbonds>
donor molecule, donor type, donor heavy atom, donor atom, acceptor molecule, acceptor atom, score
      P1  H  7997  8009       L1     5  0.24

> <Gold.Chemscore.Hbond.Weighted>
-3.1840

> <Gold.Chemscore.Metal.Weighted>
-0.0000

> <Gold.Chemscore.Lipo.Weighted>
-16.6529

> <Gold.Chemscore.Internal_Hbond.Weighted>
0.0000

> <Gold.Chemscore.DEClash.Weighted>
0.4000

> <Gold.Chemscore.DEInternal.Weighted>
0.4447

> <Gold.Chemscore.Rot.Weighted>
5.7748

> <Gold.Chemscore.Internal.Correction.Weighted>
   9.000000E+99

> <Gold.Protein.RotatedTorsions>
[ 6907 6896 6895 6894 ] final  163.44 input  -60.11 | X-H torsion
[ 7974 7965 7964 7962 ] final  -65.06 input  175.53 | X-H torsion
[ 8008 7997 7996 7995 ] final  125.24 input   59.86 | X-H torsion
[ 10167 10162 10161 10158 ] final  -71.29 input  -65.29 | X-H torsion
[ 10718 10713 10712 10709 ] final -167.70 input   66.30 | X-H torsion
[ 10763 10752 10751 10750 ] final  -37.42 input  -60.55 | X-H torsion
[ 11005 11000 10999 10996 ] final   37.69 input  -57.11 | X-H torsion

> <Gold.Protein.ActiveResidues>
 VAL166  LYS551  ARG553  GLY616  TRP617  ASP618  TYR619  PRO620  LYS621  CYS622 
 ASP623  PHE694  ASN695  SER759  ASP760  ASP761  ALA762  ILE779  LEU786  VAL792 
 PHE793  MET794  SER795  GLU796  ALA797  LYS798  CYS799  TRP800  GLU811  SER814 

> <Gold.Protein.RotatedAtoms>
  151.9252  133.3596  159.3910 H   0  0  0  0  0  0  0  0  0  0  0  0  # atno 6907 bound_to 6896
  150.7028  134.4594  159.5383 H   0  0  0  0  0  0  0  0  0  0  0  0  # atno 6908 bound_to 6896
  152.2225  134.8399  160.0535 H   0  0  0  0  0  0  0  0  0  0  0  0  # atno 6909 bound_to 6896
  145.7590  140.8871  143.0440 H   0  0  0  0  0  0  0  0  0  0  0  0  # atno 7974 bound_to 7965
  156.2827  140.2721  156.1917 H   0  0  0  0  0  0  0  0  0  0  0  0  # atno 8008 bound_to 7997
  155.0452  140.0386  157.2542 H   0  0  0  0  0  0  0  0  0  0  0  0  # atno 8009 bound_to 7997
  154.7241  140.2693  155.6520 H   0  0  0  0  0  0  0  0  0  0  0  0  # atno 8010 bound_to 7997
  140.5284  143.2324  151.7305 H   0  0  0  0  0  0  0  0  0  0  0  0  # atno 10167 bound_to 10162
  156.6861  130.9141  151.3063 H   0  0  0  0  0  0  0  0  0  0  0  0  # atno 10718 bound_to 10713
  153.8960  135.6807  153.4758 H   0  0  0  0  0  0  0  0  0  0  0  0  # atno 10763 bound_to 10752
  153.1155  135.4763  154.9105 H   0  0  0  0  0  0  0  0  0  0  0  0  # atno 10764 bound_to 10752
  154.7599  135.3207  154.8353 H   0  0  0  0  0  0  0  0  0  0  0  0  # atno 10765 bound_to 10752
  140.2200  134.3652  155.8009 H   0  0  0  0  0  0  0  0  0  0  0  0  # atno 11005 bound_to 11000
  144.6834  139.9697  143.7482 LP  0  0  0  0  0  0  0  0  0  0  0  0  # atno 17320 bound_to 7965
  146.0282  139.3311  143.0771 LP  0  0  0  0  0  0  0  0  0  0  0  0  # atno 17321 bound_to 7965
  139.4946  144.4151  152.0039 LP  0  0  0  0  0  0  0  0  0  0  0  0  # atno 17342 bound_to 10162
  140.3251  144.3382  150.6000 LP  0  0  0  0  0  0  0  0  0  0  0  0  # atno 17343 bound_to 10162
  157.7026  130.9349  150.0831 LP  0  0  0  0  0  0  0  0  0  0  0  0  # atno 17370 bound_to 10713
  156.1831  130.3651  149.9008 LP  0  0  0  0  0  0  0  0  0  0  0  0  # atno 17371 bound_to 10713
  141.2223  133.7188  156.8560 LP  0  0  0  0  0  0  0  0  0  0  0  0  # atno 17394 bound_to 11000
  140.1860  134.9000  157.3004 LP  0  0  0  0  0  0  0  0  0  0  0  0  # atno 17395 bound_to 11000

$$$$
