AV-unprocessed.smi:3274|AV-procd|sdf|12528|dock1
  -GOLD-   2272018443D 1   1.00000     0.00000
 Structure written by MMmdl.
 43 44  0  0  0  0  0  0  0  0  2 V2000
  149.7658  142.2096  157.3773 C   0  0  0  0  0  0  0  0  0  0  0  0
  150.8682  142.8920  158.1689 C   0  0  0  0  0  0  0  0  0  0  0  0
  151.1072  144.2047  157.9868 C   0  0  0  0  0  0  0  0  0  0  0  0
  152.1273  145.0018  158.7664 C   0  0  0  0  0  0  0  0  0  0  0  0
  152.4868  144.3010  160.0787 C   0  0  0  0  0  0  0  0  0  0  0  0
  152.8335  142.8210  159.8485 C   0  0  1  0  0  0  0  0  0  0  0  0
  153.2821  142.1882  161.1806 C   0  0  0  0  0  0  0  0  0  0  0  0
  151.6631  142.0372  159.1776 C   0  0  2  0  0  0  0  0  0  0  0  0
  152.1885  140.7160  158.5563 C   0  0  0  0  0  0  0  0  0  0  0  0
  151.2092  139.6109  158.6512 N   0  3  0  0  0  0  0  0  0  0  0  0
  151.7884  138.2503  158.7458 C   0  0  1  0  0  0  0  0  0  0  0  0
  150.6884  137.1751  158.7570 C   0  0  0  0  0  0  0  0  0  0  0  0
  152.7730  138.0080  157.5854 C   0  0  0  0  0  0  0  0  0  0  0  0
  152.1497  138.1843  156.2861 N   0  0  0  0  0  0  0  0  0  0  0  0
  151.7341  139.2893  155.6648 C   0  0  0  0  0  0  0  0  0  0  0  0
  151.1955  139.0626  154.4751 N   0  0  0  0  0  0  0  0  0  0  0  0
  151.3294  137.7042  154.4174 C   0  0  0  0  0  0  0  0  0  0  0  0
  151.8904  137.1278  155.4808 N   0  0  0  0  0  0  0  0  0  0  0  0
  149.0952  141.6696  158.0457 H   0  0  0  0  0  0  0  0  0  0  0  0
  150.1825  141.5126  156.6505 H   0  0  0  0  0  0  0  0  0  0  0  0
  149.1662  142.9336  156.8244 H   0  0  0  0  0  0  0  0  0  0  0  0
  150.5410  144.7589  157.2518 H   0  0  0  0  0  0  0  0  0  0  0  0
  153.0121  145.1410  158.1445 H   0  0  0  0  0  0  0  0  0  0  0  0
  151.7231  145.9926  158.9763 H   0  0  0  0  0  0  0  0  0  0  0  0
  153.3222  144.8217  160.5485 H   0  0  0  0  0  0  0  0  0  0  0  0
  151.6481  144.3753  160.7726 H   0  0  0  0  0  0  0  0  0  0  0  0
  153.6871  142.7998  159.1684 H   0  0  0  0  0  0  0  0  0  0  0  0
  152.4638  142.1624  161.9011 H   0  0  0  0  0  0  0  0  0  0  0  0
  154.0940  142.7614  161.6295 H   0  0  0  0  0  0  0  0  0  0  0  0
  153.6470  141.1697  161.0584 H   0  0  0  0  0  0  0  0  0  0  0  0
  150.9527  141.7851  159.9667 H   0  0  0  0  0  0  0  0  0  0  0  0
  152.4573  140.8867  157.5127 H   0  0  0  0  0  0  0  0  0  0  0  0
  153.0978  140.3876  159.0548 H   0  0  0  0  0  0  0  0  0  0  0  0
  150.6027  139.7699  159.4430 H   0  0  0  0  0  0  0  0  0  0  0  0
  152.3483  138.1809  159.6801 H   0  0  0  0  0  0  0  0  0  0  0  0
  151.1214  136.1746  158.7807 H   0  0  0  0  0  0  0  0  0  0  0  0
  150.0586  137.2413  157.8690 H   0  0  0  0  0  0  0  0  0  0  0  0
  150.0442  137.2629  159.6317 H   0  0  0  0  0  0  0  0  0  0  0  0
  153.6088  138.7061  157.6494 H   0  0  0  0  0  0  0  0  0  0  0  0
  153.2004  137.0054  157.6444 H   0  0  0  0  0  0  0  0  0  0  0  0
  151.8210  140.2773  156.0929 H   0  0  0  0  0  0  0  0  0  0  0  0
  150.9967  137.1221  153.5703 H   0  0  0  0  0  0  0  0  0  0  0  0
  150.6474  139.6387  157.8117 H   0  0  0  0  0  0  0  0  0  0  0  0
  1  2  1  0  0  0  0
  1 19  1  0  0  0  0
  1 20  1  0  0  0  0
  1 21  1  0  0  0  0
  2  8  1  0  0  0  0
  2  3  2  0  0  0  0
  3  4  1  0  0  0  0
  3 22  1  0  0  0  0
  4  5  1  0  0  0  0
  4 23  1  0  0  0  0
  4 24  1  0  0  0  0
  5  6  1  0  0  0  0
  5 25  1  0  0  0  0
  5 26  1  0  0  0  0
  6  7  1  0  0  0  0
  6  8  1  0  0  0  0
  6 27  1  0  0  0  0
  7 28  1  0  0  0  0
  7 29  1  0  0  0  0
  7 30  1  0  0  0  0
  8  9  1  0  0  0  0
  8 31  1  0  0  0  0
  9 10  1  0  0  0  0
  9 32  1  0  0  0  0
  9 33  1  0  0  0  0
 10 11  1  0  0  0  0
 10 34  1  0  0  0  0
 10 43  1  0  0  0  0
 11 12  1  0  0  0  0
 11 13  1  0  0  0  0
 11 35  1  0  0  0  0
 12 36  1  0  0  0  0
 12 37  1  0  0  0  0
 12 38  1  0  0  0  0
 13 14  1  0  0  0  0
 13 39  1  0  0  0  0
 13 40  1  0  0  0  0
 14 18  1  0  0  0  0
 14 15  1  0  0  0  0
 15 16  2  0  0  0  0
 15 41  1  0  0  0  0
 16 17  1  0  0  0  0
 17 18  2  0  0  0  0
 17 42  1  0  0  0  0
M  CHG  1  10   1
M  END
> <s_m_source_file>
AV-unprocessed.smi

> <i_m_source_file_index>
3274

> <i_lp_mmshare_version>
43012

> <i_f3d_flags>
0

> <s_epik_input>
W0NIM11DMT1bQ0hdW0NIMl1bQ0gyXVtDQEBIXShbQ0gzXSlbQ0BIXTFbQ0gyXVtOSF1bQ0BIXShbQ0gzXSlbQ0gyXW4yW2NIXW5bY0hdbjI=

> <s_epik_cmdline>
J2VwaWtfcHl0aG9uJywgJy1waCcsICc3LjAnLCAnLXRuJywgJzgnLCAnLW1hJywgJzIwMCcsICctbWV0YWxfYmluZGluZycsICctaW1hZScsICc8aW5maWxlLm1hZT4nLCAnLW9tYWUnLCAnPG91dGZpbGUubWFlPic=

> <r_lp_tautomer_probability>
1

> <r_epik_Ionization_Penalty>
0.0017527

> <r_epik_Ionization_Penalty_Charging>
0.00175191

> <r_epik_Ionization_Penalty_Neutral>
7.94565e-07

> <r_epik_State_Penalty>
0.00118605

> <r_epik_Charging_Adjusted_Penalty>
0.00293796

> <i_epik_Tot_Q>
1

> <i_epik_Tot_abs_Q>
1

> <r_epik_Metal_State_Penalty>
-0

> <b_epik_Metal_Only>
0

> <s_lp_Force_Field>
OPLS_2005

> <r_lp_Energy>
17.2451

> <b_lp_Chiralities_Consistent>
1

> <s_lp_Variant>
AV-unprocessed.smi:3274-7

> <Gold.Version>
5.8.1

> <Gold.Id.Protein>
6NUR|6NUR_protein|mol2

> <Gold.PLP.Fitness>
46.9768

> <Gold.PLP.PLP>
-39.4917

> <Gold.PLP.part.hbond>
-2.0000

> <Gold.PLP.part.metal>
0.0000

> <Gold.PLP.part.buried>
-3.6557

> <Gold.PLP.part.nonpolar>
-34.1492

> <Gold.PLP.part.repulsive>
0.3364

> <Gold.PLP.ligand.clash>
0.0000

> <Gold.PLP.ligand.torsion>
0.7244

> <Gold.PLP.Chemscore.Hbond>
1.9440

> <Gold.PLP.Chemscore.CHOScore>
1.0112

> <Gold.PLP.Chemscore.Metal>
0.0000

> <Gold.Chemscore.Hbonds>
donor molecule, donor type, donor heavy atom, donor atom, acceptor molecule, acceptor atom, score
      P1  H  7989  7998       L1    16  0.84
      P1  H 10752 10763       L1    18  0.97
      L1  C    17    42       P1  7948  0.09
      L1  C    17    42       P1  7949  1.00

> <Gold.PLP.Chemscore.Internal.Correction>
0.0684

> <Gold.Rescore>
     Score         DG    S(hbond)    S(metal)    S(lipo)     H(rot)  DE(clash)    DE(int)     intcor
     14.83     -16.55       1.57        0.00     101.47       2.36       0.24       1.48       ----

> <Gold.Chemscore.Fitness>
14.8294

> <Gold.Chemscore.DG>
-16.5487

> <Gold.Chemscore.ZeroCoef>
-5.4800

> <Gold.Chemscore.Hbond>
1.5693

> <Gold.Chemscore.Metal>
0.0000

> <Gold.Chemscore.Lipo>
101.4747

> <Gold.Chemscore.Internal_Hbond>
0.0000

> <Gold.Chemscore.DEClash>
0.2378

> <Gold.Chemscore.DEInternal>
1.4815

> <Gold.Chemscore.Rot>
2.3615

> <Gold.Chemscore.Internal.Correction>
   9.000000E+99

> <Gold.Chemscore.Hbonds>
donor molecule, donor type, donor heavy atom, donor atom, acceptor molecule, acceptor atom, score
      P1  H  7989  7998       L1    16  0.25
      P1  H 10752 10763       L1    18  0.34

> <Gold.Chemscore.Hbond.Weighted>
-5.2416

> <Gold.Chemscore.Metal.Weighted>
-0.0000

> <Gold.Chemscore.Lipo.Weighted>
-11.8725

> <Gold.Chemscore.Internal_Hbond.Weighted>
0.0000

> <Gold.Chemscore.DEClash.Weighted>
0.2378

> <Gold.Chemscore.DEInternal.Weighted>
1.4815

> <Gold.Chemscore.Rot.Weighted>
6.0454

> <Gold.Chemscore.Internal.Correction.Weighted>
   9.000000E+99

> <Gold.Protein.RotatedTorsions>
[ 6907 6896 6895 6894 ] final   63.17 input  -60.11 | X-H torsion
[ 7974 7965 7964 7962 ] final   38.73 input  175.53 | X-H torsion
[ 8008 7997 7996 7995 ] final   80.47 input   59.86 | X-H torsion
[ 10167 10162 10161 10158 ] final  133.95 input  -65.29 | X-H torsion
[ 10718 10713 10712 10709 ] final  -97.44 input   66.30 | X-H torsion
[ 10763 10752 10751 10750 ] final   63.51 input  -60.55 | X-H torsion
[ 11005 11000 10999 10996 ] final   59.18 input  -57.11 | X-H torsion

> <Gold.Protein.ActiveResidues>
 VAL166  LYS551  ARG553  GLY616  TRP617  ASP618  TYR619  PRO620  LYS621  CYS622 
 ASP623  PHE694  ASN695  SER759  ASP760  ASP761  ALA762  ILE779  LEU786  VAL792 
 PHE793  MET794  SER795  GLU796  ALA797  LYS798  CYS799  TRP800  GLU811  SER814 

> <Gold.Protein.RotatedAtoms>
  152.4232  134.5917  159.9975 H   0  0  0  0  0  0  0  0  0  0  0  0  # atno 6907 bound_to 6896
  151.6061  133.3346  159.3065 H   0  0  0  0  0  0  0  0  0  0  0  0  # atno 6908 bound_to 6896
  150.8120  134.7318  159.6762 H   0  0  0  0  0  0  0  0  0  0  0  0  # atno 6909 bound_to 6896
  146.1039  139.5737  142.9396 H   0  0  0  0  0  0  0  0  0  0  0  0  # atno 7974 bound_to 7965
  155.8840  140.3442  155.5908 H   0  0  0  0  0  0  0  0  0  0  0  0  # atno 8008 bound_to 7997
  155.7688  140.0842  157.2138 H   0  0  0  0  0  0  0  0  0  0  0  0  # atno 8009 bound_to 7997
  154.4027  140.1522  156.2905 H   0  0  0  0  0  0  0  0  0  0  0  0  # atno 8010 bound_to 7997
  139.5276  144.6591  151.5069 H   0  0  0  0  0  0  0  0  0  0  0  0  # atno 10167 bound_to 10162
  156.0083  130.5194  150.6374 H   0  0  0  0  0  0  0  0  0  0  0  0  # atno 10718 bound_to 10713
  153.0021  135.5426  154.6364 H   0  0  0  0  0  0  0  0  0  0  0  0  # atno 10763 bound_to 10752
  154.5629  135.2835  155.0903 H   0  0  0  0  0  0  0  0  0  0  0  0  # atno 10764 bound_to 10752
  154.2099  135.6469  153.5164 H   0  0  0  0  0  0  0  0  0  0  0  0  # atno 10765 bound_to 10752
  140.0323  134.5994  155.9490 H   0  0  0  0  0  0  0  0  0  0  0  0  # atno 11005 bound_to 11000
  145.5799  141.0384  143.2128 LP  0  0  0  0  0  0  0  0  0  0  0  0  # atno 17320 bound_to 7965
  144.7455  139.7332  143.7294 LP  0  0  0  0  0  0  0  0  0  0  0  0  # atno 17321 bound_to 7965
  140.6431  143.8849  150.6711 LP  0  0  0  0  0  0  0  0  0  0  0  0  # atno 17342 bound_to 10162
  140.2190  143.3824  152.1658 LP  0  0  0  0  0  0  0  0  0  0  0  0  # atno 17343 bound_to 10162
  157.4161  131.0830  151.1175 LP  0  0  0  0  0  0  0  0  0  0  0  0  # atno 17370 bound_to 10713
  157.1792  130.6302  149.5666 LP  0  0  0  0  0  0  0  0  0  0  0  0  # atno 17371 bound_to 10713
  141.1838  133.6551  156.5130 LP  0  0  0  0  0  0  0  0  0  0  0  0  # atno 17394 bound_to 11000
  140.4205  134.7191  157.4887 LP  0  0  0  0  0  0  0  0  0  0  0  0  # atno 17395 bound_to 11000

$$$$
