AV-unprocessed.smi:888|AV-procd|sdf|4055|dock1
  -GOLD-   22720 1543D 1   1.00000     0.00000
 Structure written by MMmdl.
 45 46  0  0  0  0  0  0  0  0  1 V2000
  150.0164  140.6963  157.3289 C   0  0  0  0  0  0  0  0  0  0  0  0
  151.3378  140.3795  156.6207 C   0  0  0  0  0  0  0  0  0  0  0  0
  151.3327  139.0327  155.9661 C   0  0  0  0  0  0  0  0  0  0  0  0
  152.2150  138.0693  156.2578 N   0  0  0  0  0  0  0  0  0  0  0  0
  151.8681  136.9934  155.4649 N   0  0  0  0  0  0  0  0  0  0  0  0
  150.8051  137.4118  154.7794 C   0  0  0  0  0  0  0  0  0  0  0  0
  150.4154  138.6678  155.0456 N   0  0  0  0  0  0  0  0  0  0  0  0
  149.3020  139.4037  154.4754 C   0  0  0  0  0  0  0  0  0  0  0  0
  147.9560  138.7768  154.8617 C   0  0  0  0  0  0  0  0  0  0  0  0
  147.6996  137.5849  154.0587 N   0  0  0  0  0  0  0  0  0  0  0  0
  146.5769  136.8467  154.0378 C   0  0  0  0  0  0  0  0  0  0  0  0
  145.6065  137.1214  154.7410 O   0  0  0  0  0  0  0  0  0  0  0  0
  146.6176  135.7970  153.1988 N   0  0  0  0  0  0  0  0  0  0  0  0
  145.5400  134.8309  152.9775 C   0  0  1  0  0  0  0  0  0  0  0  0
  144.3498  135.5505  152.3166 C   0  0  0  0  0  0  0  0  0  0  0  0
  144.3809  135.1871  150.8256 C   0  0  0  0  0  0  0  0  0  0  0  0
  145.6255  134.3178  150.6229 C   0  0  0  0  0  0  0  0  0  0  0  0
  145.9364  133.6976  151.9946 C   0  0  0  0  0  0  0  0  0  0  0  0
  147.4104  133.2472  152.0893 C   0  0  0  0  0  0  0  0  0  0  0  0
  145.0379  132.4638  152.2295 C   0  0  0  0  0  0  0  0  0  0  0  0
  150.0542  141.6793  157.7986 H   0  0  0  0  0  0  0  0  0  0  0  0
  149.8016  139.9628  158.1067 H   0  0  0  0  0  0  0  0  0  0  0  0
  149.1825  140.6943  156.6268 H   0  0  0  0  0  0  0  0  0  0  0  0
  151.5606  141.1485  155.8813 H   0  0  0  0  0  0  0  0  0  0  0  0
  152.1544  140.4097  157.3427 H   0  0  0  0  0  0  0  0  0  0  0  0
  150.2949  136.7831  154.0643 H   0  0  0  0  0  0  0  0  0  0  0  0
  149.3545  140.4349  154.8276 H   0  0  0  0  0  0  0  0  0  0  0  0
  149.4179  139.4369  153.3916 H   0  0  0  0  0  0  0  0  0  0  0  0
  147.9573  138.5094  155.9197 H   0  0  0  0  0  0  0  0  0  0  0  0
  147.1520  139.4988  154.7094 H   0  0  0  0  0  0  0  0  0  0  0  0
  148.4527  137.2837  153.4569 H   0  0  0  0  0  0  0  0  0  0  0  0
  147.4644  135.6543  152.6682 H   0  0  0  0  0  0  0  0  0  0  0  0
  145.2264  134.4170  153.9379 H   0  0  0  0  0  0  0  0  0  0  0  0
  143.4143  135.2008  152.7549 H   0  0  0  0  0  0  0  0  0  0  0  0
  144.3806  136.6307  152.4679 H   0  0  0  0  0  0  0  0  0  0  0  0
  143.4835  134.6255  150.5635 H   0  0  0  0  0  0  0  0  0  0  0  0
  144.4067  136.0728  150.1902 H   0  0  0  0  0  0  0  0  0  0  0  0
  145.4871  133.5715  149.8398 H   0  0  0  0  0  0  0  0  0  0  0  0
  146.4524  134.9577  150.3113 H   0  0  0  0  0  0  0  0  0  0  0  0
  147.6169  132.4336  151.3933 H   0  0  0  0  0  0  0  0  0  0  0  0
  147.6492  132.8906  153.0918 H   0  0  0  0  0  0  0  0  0  0  0  0
  148.1050  134.0529  151.8498 H   0  0  0  0  0  0  0  0  0  0  0  0
  145.2339  131.6846  151.4921 H   0  0  0  0  0  0  0  0  0  0  0  0
  143.9773  132.7091  152.1683 H   0  0  0  0  0  0  0  0  0  0  0  0
  145.2143  132.0319  153.2151 H   0  0  0  0  0  0  0  0  0  0  0  0
  1  2  1  0  0  0  0
  1 21  1  0  0  0  0
  1 22  1  0  0  0  0
  1 23  1  0  0  0  0
  2  3  1  0  0  0  0
  2 24  1  0  0  0  0
  2 25  1  0  0  0  0
  3  7  1  0  0  0  0
  3  4  2  0  0  0  0
  4  5  1  0  0  0  0
  5  6  2  0  0  0  0
  6  7  1  0  0  0  0
  6 26  1  0  0  0  0
  7  8  1  0  0  0  0
  8  9  1  0  0  0  0
  8 27  1  0  0  0  0
  8 28  1  0  0  0  0
  9 10  1  0  0  0  0
  9 29  1  0  0  0  0
  9 30  1  0  0  0  0
 10 11  1  0  0  0  0
 10 31  1  0  0  0  0
 11 12  2  0  0  0  0
 11 13  1  0  0  0  0
 13 14  1  0  0  0  0
 13 32  1  0  0  0  0
 14 18  1  0  0  0  0
 14 15  1  0  0  0  0
 14 33  1  0  0  0  0
 15 16  1  0  0  0  0
 15 34  1  0  0  0  0
 15 35  1  0  0  0  0
 16 17  1  0  0  0  0
 16 36  1  0  0  0  0
 16 37  1  0  0  0  0
 17 18  1  0  0  0  0
 17 38  1  0  0  0  0
 17 39  1  0  0  0  0
 18 19  1  0  0  0  0
 18 20  1  0  0  0  0
 19 40  1  0  0  0  0
 19 41  1  0  0  0  0
 19 42  1  0  0  0  0
 20 43  1  0  0  0  0
 20 44  1  0  0  0  0
 20 45  1  0  0  0  0
M  END
> <s_m_source_file>
AV-unprocessed.smi

> <i_m_source_file_index>
888

> <i_lp_mmshare_version>
43012

> <i_f3d_flags>
0

> <s_epik_input>
W0NIM11bQ0gyXWMxbm5bY0hdbjFbQ0gyXVtDSDJdW05IXUMoPU8pW05IXVtDQEBIXShDMihbQ0gzXSlbQ0gzXSlbQ0gyXVtDSDJdW0NIMl0y

> <s_epik_cmdline>
J2VwaWtfcHl0aG9uJywgJy1waCcsICc3LjAnLCAnLXRuJywgJzgnLCAnLW1hJywgJzIwMCcsICctbWV0YWxfYmluZGluZycsICctaW1hZScsICc8aW5maWxlLm1hZT4nLCAnLW9tYWUnLCAnPG91dGZpbGUubWFlPic=

> <r_lp_tautomer_probability>
1

> <r_epik_Ionization_Penalty>
0.000379534

> <r_epik_Ionization_Penalty_Charging>
0

> <r_epik_Ionization_Penalty_Neutral>
0.000379534

> <r_epik_State_Penalty>
-0

> <r_epik_Charging_Adjusted_Penalty>
0

> <i_epik_Tot_Q>
0

> <i_epik_Tot_abs_Q>
0

> <r_epik_Metal_State_Penalty>
-0

> <b_epik_Metal_Only>
0

> <s_lp_Force_Field>
OPLS_2005

> <r_lp_Energy>
32.1677

> <b_lp_Chiralities_Consistent>
1

> <s_lp_Variant>
AV-unprocessed.smi:888-2

> <Gold.Version>
5.8.1

> <Gold.Id.Protein>
6NUR|6NUR_protein|mol2

> <Gold.PLP.Fitness>
42.6375

> <Gold.PLP.PLP>
-31.0856

> <Gold.PLP.part.hbond>
-3.0000

> <Gold.PLP.part.metal>
0.0000

> <Gold.PLP.part.buried>
-0.0451

> <Gold.PLP.part.nonpolar>
-27.7250

> <Gold.PLP.part.repulsive>
0.1751

> <Gold.PLP.ligand.clash>
0.0000

> <Gold.PLP.ligand.torsion>
0.1466

> <Gold.PLP.Chemscore.Hbond>
2.8400

> <Gold.PLP.Chemscore.CHOScore>
1.0715

> <Gold.PLP.Chemscore.Metal>
0.0000

> <Gold.Chemscore.Hbonds>
donor molecule, donor type, donor heavy atom, donor atom, acceptor molecule, acceptor atom, score
      L1  H    10    31       P1  7948  0.94
      L1  H    13    32       P1  7948  1.00
      P1  H 10752 10765       L1     5  1.00
      L1  C     6    26       P1  7948  0.76
      L1  C     6    26       P1  7949  0.09

> <Gold.PLP.Chemscore.Internal.Correction>
0.1105

> <Gold.Rescore>
     Score         DG    S(hbond)    S(metal)    S(lipo)     H(rot)  DE(clash)    DE(int)     intcor
     15.75     -15.95       2.86        0.00      52.34       2.03       0.00       0.20       ----

> <Gold.Chemscore.Fitness>
15.7458

> <Gold.Chemscore.DG>
-15.9460

> <Gold.Chemscore.ZeroCoef>
-5.4800

> <Gold.Chemscore.Hbond>
2.8554

> <Gold.Chemscore.Metal>
0.0000

> <Gold.Chemscore.Lipo>
52.3431

> <Gold.Chemscore.Internal_Hbond>
0.0000

> <Gold.Chemscore.DEClash>
0.0000

> <Gold.Chemscore.DEInternal>
0.2002

> <Gold.Chemscore.Rot>
2.0293

> <Gold.Chemscore.Internal.Correction>
   9.000000E+99

> <Gold.Chemscore.Hbonds>
donor molecule, donor type, donor heavy atom, donor atom, acceptor molecule, acceptor atom, score
      L1  H    10    31       P1  7948  0.89
      L1  H    13    32       P1  7948  0.98
      P1  H 10752 10765       L1     5  0.87

> <Gold.Chemscore.Hbond.Weighted>
-9.5369

> <Gold.Chemscore.Metal.Weighted>
-0.0000

> <Gold.Chemscore.Lipo.Weighted>
-6.1241

> <Gold.Chemscore.Internal_Hbond.Weighted>
0.0000

> <Gold.Chemscore.DEClash.Weighted>
0.0000

> <Gold.Chemscore.DEInternal.Weighted>
0.2002

> <Gold.Chemscore.Rot.Weighted>
5.1950

> <Gold.Chemscore.Internal.Correction.Weighted>
   9.000000E+99

> <Gold.Protein.RotatedTorsions>
[ 6907 6896 6895 6894 ] final  145.69 input  -60.11 | X-H torsion
[ 7974 7965 7964 7962 ] final -175.37 input  175.53 | X-H torsion
[ 8008 7997 7996 7995 ] final  -72.95 input   59.86 | X-H torsion
[ 10167 10162 10161 10158 ] final -158.38 input  -65.29 | X-H torsion
[ 10718 10713 10712 10709 ] final   52.80 input   66.30 | X-H torsion
[ 10763 10752 10751 10750 ] final  179.96 input  -60.55 | X-H torsion
[ 11005 11000 10999 10996 ] final   42.94 input  -57.11 | X-H torsion

> <Gold.Protein.ActiveResidues>
 VAL166  LYS551  ARG553  GLY616  TRP617  ASP618  TYR619  PRO620  LYS621  CYS622 
 ASP623  PHE694  ASN695  SER759  ASP760  ASP761  ALA762  ILE779  LEU786  VAL792 
 PHE793  MET794  SER795  GLU796  ALA797  LYS798  CYS799  TRP800  GLU811  SER814 

> <Gold.Protein.RotatedAtoms>
  152.1776  133.4685  159.4941 H   0  0  0  0  0  0  0  0  0  0  0  0  # atno 6907 bound_to 6896
  150.6929  134.1874  159.4281 H   0  0  0  0  0  0  0  0  0  0  0  0  # atno 6908 bound_to 6896
  151.9783  135.0041  160.0607 H   0  0  0  0  0  0  0  0  0  0  0  0  # atno 6909 bound_to 6896
  144.7128  140.1331  143.6397 H   0  0  0  0  0  0  0  0  0  0  0  0  # atno 7974 bound_to 7965
  154.5208  140.0788  156.8167 H   0  0  0  0  0  0  0  0  0  0  0  0  # atno 8008 bound_to 7997
  155.3581  140.3416  155.4222 H   0  0  0  0  0  0  0  0  0  0  0  0  # atno 8009 bound_to 7997
  156.1678  140.1610  156.8487 H   0  0  0  0  0  0  0  0  0  0  0  0  # atno 8010 bound_to 7997
  139.6697  143.9767  152.2276 H   0  0  0  0  0  0  0  0  0  0  0  0  # atno 10167 bound_to 10162
  157.5108  130.8499  149.8433 H   0  0  0  0  0  0  0  0  0  0  0  0  # atno 10718 bound_to 10713
  154.5273  135.2797  155.1210 H   0  0  0  0  0  0  0  0  0  0  0  0  # atno 10763 bound_to 10752
  154.2744  135.6297  153.5326 H   0  0  0  0  0  0  0  0  0  0  0  0  # atno 10764 bound_to 10752
  152.9949  135.5636  154.5778 H   0  0  0  0  0  0  0  0  0  0  0  0  # atno 10765 bound_to 10752
  140.1692  134.4244  155.8268 H   0  0  0  0  0  0  0  0  0  0  0  0  # atno 11005 bound_to 11000
  145.9269  139.2581  143.1348 LP  0  0  0  0  0  0  0  0  0  0  0  0  # atno 17320 bound_to 7965
  145.9563  140.8870  143.0233 LP  0  0  0  0  0  0  0  0  0  0  0  0  # atno 17321 bound_to 7965
  139.9528  144.6609  150.8155 LP  0  0  0  0  0  0  0  0  0  0  0  0  # atno 17342 bound_to 10162
  140.7613  143.3171  151.2707 LP  0  0  0  0  0  0  0  0  0  0  0  0  # atno 17343 bound_to 10162
  156.0288  130.3771  150.1747 LP  0  0  0  0  0  0  0  0  0  0  0  0  # atno 17370 bound_to 10713
  156.9936  130.9901  151.3408 LP  0  0  0  0  0  0  0  0  0  0  0  0  # atno 17371 bound_to 10713
  141.2216  133.6948  156.7733 LP  0  0  0  0  0  0  0  0  0  0  0  0  # atno 17394 bound_to 11000
  140.2398  134.8622  157.3561 LP  0  0  0  0  0  0  0  0  0  0  0  0  # atno 17395 bound_to 11000

$$$$
