AV-unprocessed.smi:3237|AV-procd|sdf|12373|dock10
  -GOLD-   2272018233D 1   1.00000     0.00000
 Structure written by MMmdl.
 36 38  0  0  0  0  0  0  0  0  3 V2000
  147.3414  135.1880  162.8185 C   0  0  0  0  0  0  0  0  0  0  0  0
  147.6565  135.6741  161.4452 C   0  0  0  0  0  0  0  0  0  0  0  0
  147.7523  135.0441  160.2365 C   0  0  0  0  0  0  0  0  0  0  0  0
  148.0799  136.1026  159.3475 C   0  0  0  0  0  0  0  0  0  0  0  0
  148.2690  135.8519  157.9628 N   0  0  0  0  0  0  0  0  0  0  0  0
  148.8408  134.7884  157.3691 C   0  0  0  0  0  0  0  0  0  0  0  0
  149.2881  133.8575  158.0495 O   0  0  0  0  0  0  0  0  0  0  0  0
  148.8395  134.8935  156.0111 N   0  5  0  0  0  0  0  0  0  0  0  0
  147.8581  134.2611  155.1277 C   0  0  2  0  0  0  0  0  0  0  0  0
  148.5392  133.4117  154.0538 C   0  0  0  0  0  0  0  0  0  0  0  0
  147.5173  133.4055  152.9181 C   0  0  0  0  0  0  0  0  0  0  0  0
  146.9086  134.7518  152.9459 N   0  3  1  0  0  0  0  0  0  0  0  0
  145.5326  134.8048  152.4064 C   0  0  0  0  0  0  0  0  0  0  0  0
  145.4542  135.3563  151.0032 C   0  0  0  0  0  0  0  0  0  0  0  0
  145.0289  136.2097  152.1785 C   0  0  0  0  0  0  0  0  0  0  0  0
  147.0500  135.2923  154.3189 C   0  0  0  0  0  0  0  0  0  0  0  0
  148.1757  137.2734  159.9603 N   0  0  0  0  0  0  0  0  0  0  0  0
  147.9039  137.0049  161.3071 O   0  0  0  0  0  0  0  0  0  0  0  0
  147.6998  134.1684  162.9605 H   0  0  0  0  0  0  0  0  0  0  0  0
  146.2655  135.1962  162.9919 H   0  0  0  0  0  0  0  0  0  0  0  0
  147.8114  135.8185  163.5734 H   0  0  0  0  0  0  0  0  0  0  0  0
  147.6103  133.9948  160.0243 H   0  0  0  0  0  0  0  0  0  0  0  0
  147.9285  136.5692  157.3399 H   0  0  0  0  0  0  0  0  0  0  0  0
  147.1602  133.6198  155.6685 H   0  0  0  0  0  0  0  0  0  0  0  0
  149.4600  133.8866  153.7099 H   0  0  0  0  0  0  0  0  0  0  0  0
  148.7885  132.4090  154.4023 H   0  0  0  0  0  0  0  0  0  0  0  0
  147.9764  133.2020  151.9502 H   0  0  0  0  0  0  0  0  0  0  0  0
  146.7557  132.6391  153.0865 H   0  0  0  0  0  0  0  0  0  0  0  0
  144.8524  134.0203  152.7336 H   0  0  0  0  0  0  0  0  0  0  0  0
  146.3834  135.6191  150.5007 H   0  0  0  0  0  0  0  0  0  0  0  0
  144.6683  134.9720  150.3561 H   0  0  0  0  0  0  0  0  0  0  0  0
  143.9630  136.3877  152.3060 H   0  0  0  0  0  0  0  0  0  0  0  0
  145.6755  137.0397  152.4580 H   0  0  0  0  0  0  0  0  0  0  0  0
  146.0831  135.4776  154.7894 H   0  0  0  0  0  0  0  0  0  0  0  0
  147.5648  136.2516  154.2471 H   0  0  0  0  0  0  0  0  0  0  0  0
  147.4877  135.3370  152.3612 H   0  0  0  0  0  0  0  0  0  0  0  0
  1  2  1  0  0  0  0
  1 19  1  0  0  0  0
  1 20  1  0  0  0  0
  1 21  1  0  0  0  0
  2 18  1  0  0  0  0
  2  3  2  0  0  0  0
  3  4  1  0  0  0  0
  3 22  1  0  0  0  0
  4  5  1  0  0  0  0
  4 17  2  0  0  0  0
  5  6  1  0  0  0  0
  5 23  1  0  0  0  0
  6  7  2  0  0  0  0
  6  8  1  0  0  0  0
  8  9  1  0  0  0  0
  9 16  1  0  0  0  0
  9 10  1  0  0  0  0
  9 24  1  0  0  0  0
 10 11  1  0  0  0  0
 10 25  1  0  0  0  0
 10 26  1  0  0  0  0
 11 12  1  0  0  0  0
 11 27  1  0  0  0  0
 11 28  1  0  0  0  0
 12 13  1  0  0  0  0
 12 16  1  0  0  0  0
 12 36  1  0  0  0  0
 13 15  1  0  0  0  0
 13 14  1  0  0  0  0
 13 29  1  0  0  0  0
 14 15  1  0  0  0  0
 14 30  1  0  0  0  0
 14 31  1  0  0  0  0
 15 32  1  0  0  0  0
 15 33  1  0  0  0  0
 16 34  1  0  0  0  0
 16 35  1  0  0  0  0
 17 18  1  0  0  0  0
M  CHG  1   8  -1
M  CHG  1  12   1
M  END
> <s_m_source_file>
AV-unprocessed.smi

> <i_m_source_file_index>
3237

> <i_lp_mmshare_version>
43012

> <i_f3d_flags>
0

> <s_epik_input>
W0NIM11jMVtjSF1jKG5vMSlbTkhdQyg9TylbTkhdW0NAQEhdMltDSDJdW0NIMl1OKFtDSDJdMilbQ0hdM1tDSDJdW0NIMl0z

> <s_epik_cmdline>
J2VwaWtfcHl0aG9uJywgJy1waCcsICc3LjAnLCAnLXRuJywgJzgnLCAnLW1hJywgJzIwMCcsICctbWV0YWxfYmluZGluZycsICctaW1hZScsICc8aW5maWxlLm1hZT4nLCAnLW9tYWUnLCAnPG91dGZpbGUubWFlPic=

> <r_epik_Ionization_Penalty>
6.76456

> <r_epik_Ionization_Penalty_Charging>
6.76456

> <r_epik_Ionization_Penalty_Neutral>
5.76722e-06

> <r_epik_State_Penalty>
6.78919

> <r_epik_Charging_Adjusted_Penalty>
13.5538

> <i_epik_Tot_Q>
0

> <i_epik_Tot_abs_Q>
2

> <r_epik_Metal_State_Penalty>
2.728

> <b_epik_Metal_Only>
1

> <s_lp_Force_Field>
OPLS_2005

> <r_lp_Energy>
30.8833

> <b_lp_Chiralities_Consistent>
1

> <s_lp_Variant>
AV-unprocessed.smi:3237-11

> <Gold.Version>
5.8.1

> <Gold.Id.Protein>
6NUR|6NUR_protein|mol2

> <Gold.PLP.Fitness>
39.1844

> <Gold.PLP.PLP>
-29.3972

> <Gold.PLP.part.hbond>
-5.8645

> <Gold.PLP.part.metal>
0.0000

> <Gold.PLP.part.buried>
-2.0032

> <Gold.PLP.part.nonpolar>
-21.0036

> <Gold.PLP.part.repulsive>
0.0782

> <Gold.PLP.ligand.clash>
0.0000

> <Gold.PLP.ligand.torsion>
1.7049

> <Gold.PLP.Chemscore.Hbond>
3.9760

> <Gold.PLP.Chemscore.CHOScore>
0.0000

> <Gold.PLP.Chemscore.Metal>
0.0000

> <Gold.Chemscore.Hbonds>
donor molecule, donor type, donor heavy atom, donor atom, acceptor molecule, acceptor atom, score
      L1  H    12    36       P1  7948  2.00
      P1  H  6896  6909       L1     7  1.00
      P1  H  6931  6943       L1    18  0.70

> <Gold.PLP.Chemscore.Internal.Correction>
1.2691

> <Gold.Rescore>
     Score         DG    S(hbond)    S(metal)    S(lipo)     H(rot)  DE(clash)    DE(int)     intcor
     14.31     -17.45       2.72        0.00      51.94       1.25       0.14       3.00       ----

> <Gold.Chemscore.Fitness>
14.3128

> <Gold.Chemscore.DG>
-17.4526

> <Gold.Chemscore.ZeroCoef>
-5.4800

> <Gold.Chemscore.Hbond>
2.7204

> <Gold.Chemscore.Metal>
0.0000

> <Gold.Chemscore.Lipo>
51.9420

> <Gold.Chemscore.Internal_Hbond>
0.0000

> <Gold.Chemscore.DEClash>
0.1372

> <Gold.Chemscore.DEInternal>
3.0027

> <Gold.Chemscore.Rot>
1.2464

> <Gold.Chemscore.Internal.Correction>
   9.000000E+99

> <Gold.Chemscore.Hbonds>
donor molecule, donor type, donor heavy atom, donor atom, acceptor molecule, acceptor atom, score
      L1  H    12    36       P1  7948  0.99
      P1  H  6896  6909       L1     7  0.89
      P1  H  6931  6943       L1    18  0.07

> <Gold.Chemscore.Hbond.Weighted>
-9.0863

> <Gold.Chemscore.Metal.Weighted>
-0.0000

> <Gold.Chemscore.Lipo.Weighted>
-6.0772

> <Gold.Chemscore.Internal_Hbond.Weighted>
0.0000

> <Gold.Chemscore.DEClash.Weighted>
0.1372

> <Gold.Chemscore.DEInternal.Weighted>
3.0027

> <Gold.Chemscore.Rot.Weighted>
3.1909

> <Gold.Chemscore.Internal.Correction.Weighted>
   9.000000E+99

> <Gold.Protein.RotatedTorsions>
[ 6907 6896 6895 6894 ] final   33.43 input  -60.11 | X-H torsion
[ 7974 7965 7964 7962 ] final  105.44 input  175.53 | X-H torsion
[ 8008 7997 7996 7995 ] final  154.59 input   59.86 | X-H torsion
[ 10167 10162 10161 10158 ] final -177.62 input  -65.29 | X-H torsion
[ 10718 10713 10712 10709 ] final   22.13 input   66.30 | X-H torsion
[ 10763 10752 10751 10750 ] final  -78.38 input  -60.55 | X-H torsion
[ 11005 11000 10999 10996 ] final   86.64 input  -57.11 | X-H torsion

> <Gold.Protein.ActiveResidues>
 VAL166  LYS551  ARG553  GLY616  TRP617  ASP618  TYR619  PRO620  LYS621  CYS622 
 ASP623  PHE694  ASN695  SER759  ASP760  ASP761  ALA762  ILE779  LEU786  VAL792 
 PHE793  MET794  SER795  GLU796  ALA797  LYS798  CYS799  TRP800  GLU811  SER814 

> <Gold.Protein.RotatedAtoms>
  152.0883  134.9424  160.0572 H   0  0  0  0  0  0  0  0  0  0  0  0  # atno 6907 bound_to 6896
  152.0686  133.4091  159.4457 H   0  0  0  0  0  0  0  0  0  0  0  0  # atno 6908 bound_to 6896
  150.6836  134.3038  159.4761 H   0  0  0  0  0  0  0  0  0  0  0  0  # atno 6909 bound_to 6896
  145.3196  139.2516  143.3719 H   0  0  0  0  0  0  0  0  0  0  0  0  # atno 7974 bound_to 7965
  156.2523  140.1962  156.6669 H   0  0  0  0  0  0  0  0  0  0  0  0  # atno 8008 bound_to 7997
  154.6422  140.0582  156.9884 H   0  0  0  0  0  0  0  0  0  0  0  0  # atno 8009 bound_to 7997
  155.1545  140.3254  155.4427 H   0  0  0  0  0  0  0  0  0  0  0  0  # atno 8010 bound_to 7997
  139.5471  144.2206  152.1009 H   0  0  0  0  0  0  0  0  0  0  0  0  # atno 10167 bound_to 10162
  157.1480  130.6662  149.6002 H   0  0  0  0  0  0  0  0  0  0  0  0  # atno 10718 bound_to 10713
  154.5251  135.5732  153.6713 H   0  0  0  0  0  0  0  0  0  0  0  0  # atno 10763 bound_to 10752
  152.9926  135.6191  154.2702 H   0  0  0  0  0  0  0  0  0  0  0  0  # atno 10764 bound_to 10752
  154.2625  135.2855  155.2751 H   0  0  0  0  0  0  0  0  0  0  0  0  # atno 10765 bound_to 10752
  139.8939  134.8369  156.2749 H   0  0  0  0  0  0  0  0  0  0  0  0  # atno 11005 bound_to 11000
  146.3087  140.3750  142.8678 LP  0  0  0  0  0  0  0  0  0  0  0  0  # atno 17320 bound_to 7965
  144.8950  140.7571  143.5903 LP  0  0  0  0  0  0  0  0  0  0  0  0  # atno 17321 bound_to 7965
  140.1694  144.4950  150.6588 LP  0  0  0  0  0  0  0  0  0  0  0  0  # atno 17342 bound_to 10162
  140.6723  143.2291  151.5594 LP  0  0  0  0  0  0  0  0  0  0  0  0  # atno 17343 bound_to 10162
  155.9776  130.4754  150.6602 LP  0  0  0  0  0  0  0  0  0  0  0  0  # atno 17370 bound_to 10713
  157.4246  131.0841  151.1098 LP  0  0  0  0  0  0  0  0  0  0  0  0  # atno 17371 bound_to 10713
  141.0076  133.7114  156.1060 LP  0  0  0  0  0  0  0  0  0  0  0  0  # atno 17394 bound_to 11000
  140.7411  134.4149  157.5554 LP  0  0  0  0  0  0  0  0  0  0  0  0  # atno 17395 bound_to 11000

$$$$
