AV-unprocessed.smi:2730|AV-procd|sdf|10528|dock5
  -GOLD-   2272014573D 1   1.00000     0.00000
 Structure written by MMmdl.
 43 44  0  0  0  0  0  0  0  0  1 V2000
  150.5959  134.7799  155.6902 C   0  0  0  0  0  0  0  0  0  0  0  0
  149.2447  134.8789  156.4137 C   0  0  0  0  0  0  0  0  0  0  0  0
  149.3201  135.5965  157.7767 C   0  0  2  0  0  0  0  0  0  0  0  0
  147.9297  135.8146  158.4014 C   0  0  0  0  0  0  0  0  0  0  0  0
  147.9619  136.5517  159.6743 C   0  0  0  0  0  0  0  0  0  0  0  0
  147.9871  137.1318  160.6750 N   0  0  0  0  0  0  0  0  0  0  0  0
  150.0046  136.8791  157.6310 N   0  0  0  0  0  0  0  0  0  0  0  0
  150.6941  137.5025  158.5973 C   0  0  0  0  0  0  0  0  0  0  0  0
  150.8177  137.0563  159.7382 O   0  0  0  0  0  0  0  0  0  0  0  0
  151.2183  138.6574  158.1517 N   0  0  0  0  0  0  0  0  0  0  0  0
  152.0053  139.5971  158.8665 C   0  0  0  0  0  0  0  0  0  0  0  0
  153.0366  139.2637  159.7016 N   0  0  0  0  0  0  0  0  0  0  0  0
  153.4012  140.4807  160.0827 C   0  0  0  0  0  0  0  0  0  0  0  0
  152.6727  141.4616  159.5419 N   0  0  0  0  0  0  0  0  0  0  0  0
  152.7667  142.9033  159.7129 C   0  0  0  0  0  0  0  0  0  0  0  0
  152.1936  143.3515  161.0737 C   0  0  0  0  0  0  0  0  0  0  0  0
  152.3058  144.8744  161.2518 C   0  0  0  0  0  0  0  0  0  0  0  0
  151.6274  145.6228  160.0929 C   0  0  0  0  0  0  0  0  0  0  0  0
  152.1957  145.1799  158.7350 C   0  0  0  0  0  0  0  0  0  0  0  0
  152.0823  143.6572  158.5535 C   0  0  0  0  0  0  0  0  0  0  0  0
  151.7426  140.8953  158.7329 N   0  0  0  0  0  0  0  0  0  0  0  0
  150.4947  134.2232  154.7584 H   0  0  0  0  0  0  0  0  0  0  0  0
  151.3336  134.2646  156.3057 H   0  0  0  0  0  0  0  0  0  0  0  0
  150.9938  135.7641  155.4424 H   0  0  0  0  0  0  0  0  0  0  0  0
  148.5268  135.3881  155.7697 H   0  0  0  0  0  0  0  0  0  0  0  0
  148.8595  133.8690  156.5552 H   0  0  0  0  0  0  0  0  0  0  0  0
  149.9021  134.9661  158.4521 H   0  0  0  0  0  0  0  0  0  0  0  0
  147.2869  136.3744  157.7214 H   0  0  0  0  0  0  0  0  0  0  0  0
  147.4416  134.8573  158.5871 H   0  0  0  0  0  0  0  0  0  0  0  0
  149.9556  137.3183  156.7234 H   0  0  0  0  0  0  0  0  0  0  0  0
  151.0340  138.8932  157.1879 H   0  0  0  0  0  0  0  0  0  0  0  0
  154.2151  140.6602  160.7698 H   0  0  0  0  0  0  0  0  0  0  0  0
  153.8284  143.1558  159.6966 H   0  0  0  0  0  0  0  0  0  0  0  0
  151.1459  143.0584  161.1548 H   0  0  0  0  0  0  0  0  0  0  0  0
  152.7193  142.8470  161.8853 H   0  0  0  0  0  0  0  0  0  0  0  0
  151.8562  145.1715  162.1996 H   0  0  0  0  0  0  0  0  0  0  0  0
  153.3572  145.1598  161.3051 H   0  0  0  0  0  0  0  0  0  0  0  0
  150.5529  145.4363  160.1170 H   0  0  0  0  0  0  0  0  0  0  0  0
  151.7575  146.6981  160.2176 H   0  0  0  0  0  0  0  0  0  0  0  0
  151.6698  145.6906  157.9280 H   0  0  0  0  0  0  0  0  0  0  0  0
  153.2418  145.4799  158.6610 H   0  0  0  0  0  0  0  0  0  0  0  0
  152.5302  143.3664  157.6025 H   0  0  0  0  0  0  0  0  0  0  0  0
  151.0283  143.3810  158.4960 H   0  0  0  0  0  0  0  0  0  0  0  0
  1  2  1  0  0  0  0
  1 22  1  0  0  0  0
  1 23  1  0  0  0  0
  1 24  1  0  0  0  0
  2  3  1  0  0  0  0
  2 25  1  0  0  0  0
  2 26  1  0  0  0  0
  3  4  1  0  0  0  0
  3  7  1  0  0  0  0
  3 27  1  0  0  0  0
  4  5  1  0  0  0  0
  4 28  1  0  0  0  0
  4 29  1  0  0  0  0
  5  6  3  0  0  0  0
  7  8  1  0  0  0  0
  7 30  1  0  0  0  0
  8  9  2  0  0  0  0
  8 10  1  0  0  0  0
 10 11  1  0  0  0  0
 10 31  1  0  0  0  0
 11 21  2  0  0  0  0
 11 12  1  0  0  0  0
 12 13  2  0  0  0  0
 13 14  1  0  0  0  0
 13 32  1  0  0  0  0
 14 15  1  0  0  0  0
 14 21  1  0  0  0  0
 15 20  1  0  0  0  0
 15 16  1  0  0  0  0
 15 33  1  0  0  0  0
 16 17  1  0  0  0  0
 16 34  1  0  0  0  0
 16 35  1  0  0  0  0
 17 18  1  0  0  0  0
 17 36  1  0  0  0  0
 17 37  1  0  0  0  0
 18 19  1  0  0  0  0
 18 38  1  0  0  0  0
 18 39  1  0  0  0  0
 19 20  1  0  0  0  0
 19 40  1  0  0  0  0
 19 41  1  0  0  0  0
 20 42  1  0  0  0  0
 20 43  1  0  0  0  0
M  END
> <s_m_source_file>
AV-unprocessed.smi

> <i_m_source_file_index>
2730

> <i_lp_mmshare_version>
43012

> <i_f3d_flags>
0

> <s_epik_input>
TiNDW0NIMl1bQ0BASF0oW0NIMl1bQ0gzXSlbTkhdQyg9TylbTkhdYzFuW2NIXW4objEpW0NIXTJbQ0gyXVtDSDJdW0NIMl1bQ0gyXVtDSDJdMg==

> <s_epik_cmdline>
J2VwaWtfcHl0aG9uJywgJy1waCcsICc3LjAnLCAnLXRuJywgJzgnLCAnLW1hJywgJzIwMCcsICctbWV0YWxfYmluZGluZycsICctaW1hZScsICc8aW5maWxlLm1hZT4nLCAnLW9tYWUnLCAnPG91dGZpbGUubWFlPic=

> <r_lp_tautomer_probability>
1

> <r_epik_Ionization_Penalty>
7.18854e-05

> <r_epik_Ionization_Penalty_Charging>
0

> <r_epik_Ionization_Penalty_Neutral>
7.18854e-05

> <r_epik_State_Penalty>
-0

> <r_epik_Charging_Adjusted_Penalty>
0

> <i_epik_Tot_Q>
0

> <i_epik_Tot_abs_Q>
0

> <r_epik_Metal_State_Penalty>
-0

> <b_epik_Metal_Only>
0

> <s_lp_Force_Field>
OPLS_2005

> <r_lp_Energy>
15.2848

> <b_lp_Chiralities_Consistent>
1

> <s_lp_Variant>
AV-unprocessed.smi:2730-1

> <Gold.Version>
5.8.1

> <Gold.Id.Protein>
6NUR|6NUR_protein|mol2

> <Gold.PLP.Fitness>
45.0618

> <Gold.PLP.PLP>
-39.5945

> <Gold.PLP.part.hbond>
-3.0000

> <Gold.PLP.part.metal>
0.0000

> <Gold.PLP.part.buried>
-5.4920

> <Gold.PLP.part.nonpolar>
-31.2786

> <Gold.PLP.part.repulsive>
0.1145

> <Gold.PLP.ligand.clash>
0.0000

> <Gold.PLP.ligand.torsion>
1.2334

> <Gold.PLP.Chemscore.Hbond>
2.6250

> <Gold.PLP.Chemscore.CHOScore>
0.0000

> <Gold.PLP.Chemscore.Metal>
0.0000

> <Gold.Chemscore.Hbonds>
donor molecule, donor type, donor heavy atom, donor atom, acceptor molecule, acceptor atom, score
      P1  H  6896  6908       L1     9  1.00
      P1  H  6931  6943       L1     6  0.85
      P1  H  6934  6947       L1     6  0.71

> <Gold.PLP.Chemscore.Internal.Correction>
0.0591

> <Gold.Rescore>
     Score         DG    S(hbond)    S(metal)    S(lipo)     H(rot)  DE(clash)    DE(int)     intcor
     16.69     -18.93       2.47        0.00      84.30       1.82       0.07       2.16       ----

> <Gold.Chemscore.Fitness>
16.6934

> <Gold.Chemscore.DG>
-18.9304

> <Gold.Chemscore.ZeroCoef>
-5.4800

> <Gold.Chemscore.Hbond>
2.4727

> <Gold.Chemscore.Metal>
0.0000

> <Gold.Chemscore.Lipo>
84.3028

> <Gold.Chemscore.Internal_Hbond>
0.0000

> <Gold.Chemscore.DEClash>
0.0727

> <Gold.Chemscore.DEInternal>
2.1643

> <Gold.Chemscore.Rot>
1.8249

> <Gold.Chemscore.Internal.Correction>
   9.000000E+99

> <Gold.Chemscore.Hbonds>
donor molecule, donor type, donor heavy atom, donor atom, acceptor molecule, acceptor atom, score
      P1  H  6896  6908       L1     9  0.85
      P1  H  6931  6943       L1     6  0.82
      P1  H  6934  6947       L1     6  0.68

> <Gold.Chemscore.Hbond.Weighted>
-8.2587

> <Gold.Chemscore.Metal.Weighted>
-0.0000

> <Gold.Chemscore.Lipo.Weighted>
-9.8634

> <Gold.Chemscore.Internal_Hbond.Weighted>
0.0000

> <Gold.Chemscore.DEClash.Weighted>
0.0727

> <Gold.Chemscore.DEInternal.Weighted>
2.1643

> <Gold.Chemscore.Rot.Weighted>
4.6718

> <Gold.Chemscore.Internal.Correction.Weighted>
   9.000000E+99

> <Gold.Protein.RotatedTorsions>
[ 6907 6896 6895 6894 ] final -152.29 input  -60.11 | X-H torsion
[ 7974 7965 7964 7962 ] final  176.26 input  175.53 | X-H torsion
[ 8008 7997 7996 7995 ] final  157.59 input   59.86 | X-H torsion
[ 10167 10162 10161 10158 ] final  -38.79 input  -65.29 | X-H torsion
[ 10718 10713 10712 10709 ] final   -4.47 input   66.30 | X-H torsion
[ 10763 10752 10751 10750 ] final   64.94 input  -60.55 | X-H torsion
[ 11005 11000 10999 10996 ] final  -44.47 input  -57.11 | X-H torsion

> <Gold.Protein.ActiveResidues>
 VAL166  LYS551  ARG553  GLY616  TRP617  ASP618  TYR619  PRO620  LYS621  CYS622 
 ASP623  PHE694  ASN695  SER759  ASP760  ASP761  ALA762  ILE779  LEU786  VAL792 
 PHE793  MET794  SER795  GLU796  ALA797  LYS798  CYS799  TRP800  GLU811  SER814 

> <Gold.Protein.RotatedAtoms>
  151.2256  133.4478  159.2601 H   0  0  0  0  0  0  0  0  0  0  0  0  # atno 6907 bound_to 6896
  151.0843  134.9877  159.8382 H   0  0  0  0  0  0  0  0  0  0  0  0  # atno 6908 bound_to 6896
  152.5428  134.2194  159.8834 H   0  0  0  0  0  0  0  0  0  0  0  0  # atno 6909 bound_to 6896
  144.7187  140.0070  143.6440 H   0  0  0  0  0  0  0  0  0  0  0  0  # atno 7974 bound_to 7965
  156.2355  140.1881  156.7131 H   0  0  0  0  0  0  0  0  0  0  0  0  # atno 8008 bound_to 7997
  154.6098  140.0623  156.9506 H   0  0  0  0  0  0  0  0  0  0  0  0  # atno 8009 bound_to 7997
  155.2035  140.3294  155.4342 H   0  0  0  0  0  0  0  0  0  0  0  0  # atno 8010 bound_to 7997
  140.7082  143.3255  151.2690 H   0  0  0  0  0  0  0  0  0  0  0  0  # atno 10167 bound_to 10162
  156.7608  130.5269  149.5785 H   0  0  0  0  0  0  0  0  0  0  0  0  # atno 10718 bound_to 10713
  153.0076  135.5375  154.6589 H   0  0  0  0  0  0  0  0  0  0  0  0  # atno 10763 bound_to 10752
  154.5803  135.2849  155.0741 H   0  0  0  0  0  0  0  0  0  0  0  0  # atno 10764 bound_to 10752
  154.1873  135.6506  153.5103 H   0  0  0  0  0  0  0  0  0  0  0  0  # atno 10765 bound_to 10752
  141.0453  133.6764  156.2877 H   0  0  0  0  0  0  0  0  0  0  0  0  # atno 11005 bound_to 11000
  146.0289  139.3317  143.0767 LP  0  0  0  0  0  0  0  0  0  0  0  0  # atno 17320 bound_to 7965
  145.8477  140.9546  143.0766 LP  0  0  0  0  0  0  0  0  0  0  0  0  # atno 17321 bound_to 7965
  139.6722  144.0000  152.2760 LP  0  0  0  0  0  0  0  0  0  0  0  0  # atno 17342 bound_to 10162
  139.9603  144.6562  150.8086 LP  0  0  0  0  0  0  0  0  0  0  0  0  # atno 17343 bound_to 10162
  156.1340  130.6198  151.0374 LP  0  0  0  0  0  0  0  0  0  0  0  0  # atno 17370 bound_to 10713
  157.6735  131.0856  150.7552 LP  0  0  0  0  0  0  0  0  0  0  0  0  # atno 17371 bound_to 10713
  140.6159  134.5411  157.5540 LP  0  0  0  0  0  0  0  0  0  0  0  0  # atno 17394 bound_to 11000
  139.9307  134.7970  156.0940 LP  0  0  0  0  0  0  0  0  0  0  0  0  # atno 17395 bound_to 11000

$$$$
