AV-unprocessed.smi:104|AV-procd|sdf|1004|dock9
  -GOLD-   2262017593D 1   1.00000     0.00000
 Structure written by MMmdl.
 47 49  0  0  0  0  0  0  0  0  1 V2000
  151.8551  138.3320  154.6305 C   0  0  0  0  0  0  0  0  0  0  0  0
  151.5429  137.5354  155.8903 C   0  0  0  0  0  0  0  0  0  0  0  0
  151.6572  136.3099  155.9236 O   0  0  0  0  0  0  0  0  0  0  0  0
  151.1443  138.3186  156.9019 O   0  0  0  0  0  0  0  0  0  0  0  0
  150.8143  137.7391  158.1529 C   0  0  0  0  0  0  0  0  0  0  0  0
  149.5550  136.8837  157.9855 C   0  0  1  0  0  0  0  0  0  0  0  0
  149.6843  135.6708  158.7127 O   0  0  0  0  0  0  0  0  0  0  0  0
  148.4240  135.1089  158.8871 C   0  0  2  0  0  0  0  0  0  0  0  0
  148.1206  134.1593  157.7574 N   0  0  0  0  0  0  0  0  0  0  0  0
  146.9360  133.8280  157.1192 C   0  0  0  0  0  0  0  0  0  0  0  0
  145.2289  134.5616  157.5488 Br  0  0  0  0  0  0  0  0  0  0  0  0
  147.0113  132.9662  156.1435 N   0  0  0  0  0  0  0  0  0  0  0  0
  148.3707  132.7080  156.0571 C   0  0  0  0  0  0  0  0  0  0  0  0
  149.1672  131.8884  155.2183 C   0  0  0  0  0  0  0  0  0  0  0  0
  148.6542  131.1146  154.2521 N   0  0  0  0  0  0  0  0  0  0  0  0
  150.5088  131.8899  155.3969 N   0  0  0  0  0  0  0  0  0  0  0  0
  151.0454  132.6595  156.3490 C   0  0  0  0  0  0  0  0  0  0  0  0
  150.4292  133.4737  157.2098 N   0  0  0  0  0  0  0  0  0  0  0  0
  149.0742  133.4637  157.0378 C   0  0  0  0  0  0  0  0  0  0  0  0
  147.4267  136.2835  158.8781 C   0  0  1  0  0  0  0  0  0  0  0  0
  146.7848  136.3817  160.1429 O   0  0  0  0  0  0  0  0  0  0  0  0
  147.5093  136.5204  161.2672 C   0  0  0  0  0  0  0  0  0  0  0  0
  146.8075  135.9424  162.4893 C   0  0  0  0  0  0  0  0  0  0  0  0
  148.6209  137.0420  161.3558 O   0  0  0  0  0  0  0  0  0  0  0  0
  148.3085  137.4996  158.6122 C   0  0  2  0  0  0  0  0  0  0  0  0
  147.6850  138.3842  157.6904 O   0  0  0  0  0  0  0  0  0  0  0  0
  146.6743  139.1766  158.0857 C   0  0  0  0  0  0  0  0  0  0  0  0
  146.0253  139.9146  156.9226 C   0  0  0  0  0  0  0  0  0  0  0  0
  146.2779  139.3255  159.2417 O   0  0  0  0  0  0  0  0  0  0  0  0
  150.9422  138.7679  154.2244 H   0  0  0  0  0  0  0  0  0  0  0  0
  152.2997  137.6889  153.8706 H   0  0  0  0  0  0  0  0  0  0  0  0
  152.5544  139.1379  154.8536 H   0  0  0  0  0  0  0  0  0  0  0  0
  151.6390  137.1345  158.5329 H   0  0  0  0  0  0  0  0  0  0  0  0
  150.6298  138.5375  158.8729 H   0  0  0  0  0  0  0  0  0  0  0  0
  149.3728  136.6618  156.9319 H   0  0  0  0  0  0  0  0  0  0  0  0
  148.3845  134.4834  159.7796 H   0  0  0  0  0  0  0  0  0  0  0  0
  147.6564  131.0993  154.0967 H   0  0  0  0  0  0  0  0  0  0  0  0
  149.2652  130.5470  153.6831 H   0  0  0  0  0  0  0  0  0  0  0  0
  152.1211  132.6154  156.4354 H   0  0  0  0  0  0  0  0  0  0  0  0
  146.7215  136.1429  158.0578 H   0  0  0  0  0  0  0  0  0  0  0  0
  147.3095  135.0314  162.8145 H   0  0  0  0  0  0  0  0  0  0  0  0
  145.7677  135.7030  162.2657 H   0  0  0  0  0  0  0  0  0  0  0  0
  146.8270  136.6602  163.3094 H   0  0  0  0  0  0  0  0  0  0  0  0
  148.5819  137.9900  159.5484 H   0  0  0  0  0  0  0  0  0  0  0  0
  146.6308  140.7748  156.6375 H   0  0  0  0  0  0  0  0  0  0  0  0
  145.0321  140.2673  157.2009 H   0  0  0  0  0  0  0  0  0  0  0  0
  145.9272  139.2565  156.0590 H   0  0  0  0  0  0  0  0  0  0  0  0
  1  2  1  0  0  0  0
  1 30  1  0  0  0  0
  1 31  1  0  0  0  0
  1 32  1  0  0  0  0
  2  3  2  0  0  0  0
  2  4  1  0  0  0  0
  4  5  1  0  0  0  0
  5  6  1  0  0  0  0
  5 33  1  0  0  0  0
  5 34  1  0  0  0  0
  6 25  1  0  0  0  0
  6  7  1  0  0  0  0
  6 35  1  0  0  0  0
  7  8  1  0  0  0  0
  8  9  1  0  0  0  0
  8 20  1  0  0  0  0
  8 36  1  0  0  0  0
  9 19  1  0  0  0  0
  9 10  1  0  0  0  0
 10 11  1  0  0  0  0
 10 12  2  0  0  0  0
 12 13  1  0  0  0  0
 13 19  2  0  0  0  0
 13 14  1  0  0  0  0
 14 15  1  0  0  0  0
 14 16  2  0  0  0  0
 15 37  1  0  0  0  0
 15 38  1  0  0  0  0
 16 17  1  0  0  0  0
 17 18  2  0  0  0  0
 17 39  1  0  0  0  0
 18 19  1  0  0  0  0
 20 21  1  0  0  0  0
 20 25  1  0  0  0  0
 20 40  1  0  0  0  0
 21 22  1  0  0  0  0
 22 23  1  0  0  0  0
 22 24  2  0  0  0  0
 23 41  1  0  0  0  0
 23 42  1  0  0  0  0
 23 43  1  0  0  0  0
 25 26  1  0  0  0  0
 25 44  1  0  0  0  0
 26 27  1  0  0  0  0
 27 28  1  0  0  0  0
 27 29  2  0  0  0  0
 28 45  1  0  0  0  0
 28 46  1  0  0  0  0
 28 47  1  0  0  0  0
M  END
> <s_m_source_file>
AV-unprocessed.smi

> <i_m_source_file_index>
104

> <i_lp_mmshare_version>
43012

> <i_f3d_flags>
0

> <s_epik_input>
W0NIM11DKD1PKU9bQ0gyXVtDQEBIXTFPW0NASF0oW0NAQEhdKE9DKD1PKVtDSDNdKVtDQEhdMU9DKD1PKVtDSDNdKW4oYyhCciluMiljKGMyMyluW2NIXW5jM1tOSDJd

> <s_epik_cmdline>
J2VwaWtfcHl0aG9uJywgJy1waCcsICc3LjAnLCAnLXRuJywgJzgnLCAnLW1hJywgJzIwMCcsICctbWV0YWxfYmluZGluZycsICctaW1hZScsICc8aW5maWxlLm1hZT4nLCAnLW9tYWUnLCAnPG91dGZpbGUubWFlPic=

> <r_lp_tautomer_probability>
1

> <r_epik_Ionization_Penalty>
7.36622e-05

> <r_epik_Ionization_Penalty_Charging>
0

> <r_epik_Ionization_Penalty_Neutral>
7.36622e-05

> <r_epik_State_Penalty>
-0

> <r_epik_Charging_Adjusted_Penalty>
0

> <i_epik_Tot_Q>
0

> <i_epik_Tot_abs_Q>
0

> <r_epik_Metal_State_Penalty>
-0

> <b_epik_Metal_Only>
0

> <s_epik_Chemistry_Notes>
This compound has an ester and may undergo hydrolysis at high or low pH. This compound contains an acetal/aminal-like group ( X-CH(R)-Y where X, Y are N, S, or O) that may be acid/base labile, releasing an aldehyde.

> <s_lp_Force_Field>
OPLS_2005

> <r_lp_Energy>
12.8289

> <b_lp_Chiralities_Consistent>
1

> <s_lp_Variant>
AV-unprocessed.smi:104-12

> <Gold.Version>
5.8.1

> <Gold.Id.Protein>
6NUR|6NUR_protein|mol2

> <Gold.PLP.Fitness>
34.8700

> <Gold.PLP.PLP>
-26.8704

> <Gold.PLP.part.hbond>
-5.1834

> <Gold.PLP.part.metal>
0.0000

> <Gold.PLP.part.buried>
-4.8783

> <Gold.PLP.part.nonpolar>
-17.5849

> <Gold.PLP.part.repulsive>
0.0351

> <Gold.PLP.ligand.clash>
0.0000

> <Gold.PLP.ligand.torsion>
1.8752

> <Gold.PLP.Chemscore.Hbond>
3.8613

> <Gold.PLP.Chemscore.CHOScore>
0.0000

> <Gold.PLP.Chemscore.Metal>
0.0000

> <Gold.Chemscore.Hbonds>
donor molecule, donor type, donor heavy atom, donor atom, acceptor molecule, acceptor atom, score
      P1  H  6896  6907       L1     7  0.99
      P1  H  6896  6909       L1    18  0.34
      P1  H  6931  6943       L1    24  0.63
      P1  H 10752 10763       L1     3  1.00

> <Gold.PLP.Chemscore.Internal.Correction>
0.1661

> <Gold.Rescore>
     Score         DG    S(hbond)    S(metal)    S(lipo)     H(rot)  DE(clash)    DE(int)     intcor
      6.46     -11.79       4.07        0.00      32.06       4.31       0.00       5.33       ----

> <Gold.Chemscore.Fitness>
6.4567

> <Gold.Chemscore.DG>
-11.7873

> <Gold.Chemscore.ZeroCoef>
-5.4800

> <Gold.Chemscore.Hbond>
4.0667

> <Gold.Chemscore.Metal>
0.0000

> <Gold.Chemscore.Lipo>
32.0553

> <Gold.Chemscore.Internal_Hbond>
0.0000

> <Gold.Chemscore.DEClash>
0.0048

> <Gold.Chemscore.DEInternal>
5.3257

> <Gold.Chemscore.Rot>
4.3070

> <Gold.Chemscore.Internal.Correction>
   9.000000E+99

> <Gold.Chemscore.Hbonds>
donor molecule, donor type, donor heavy atom, donor atom, acceptor molecule, acceptor atom, score
      P1  H  6896  6907       L1     7  0.78
      P1  H  6896  6909       L1    18  0.26
      P1  H  6931  6943       L1    24  0.62
      P1  H  6934  6947       L1    29  0.05
      P1  H 10752 10763       L1     3  0.97

> <Gold.Chemscore.Hbond.Weighted>
-13.5827

> <Gold.Chemscore.Metal.Weighted>
-0.0000

> <Gold.Chemscore.Lipo.Weighted>
-3.7505

> <Gold.Chemscore.Internal_Hbond.Weighted>
0.0000

> <Gold.Chemscore.DEClash.Weighted>
0.0048

> <Gold.Chemscore.DEInternal.Weighted>
5.3257

> <Gold.Chemscore.Rot.Weighted>
11.0259

> <Gold.Chemscore.Internal.Correction.Weighted>
   9.000000E+99

> <Gold.Protein.RotatedTorsions>
[ 6907 6896 6895 6894 ] final  -43.27 input  -60.11 | X-H torsion
[ 7974 7965 7964 7962 ] final  114.94 input  175.53 | X-H torsion
[ 8008 7997 7996 7995 ] final  112.96 input   59.86 | X-H torsion
[ 10167 10162 10161 10158 ] final    3.70 input  -65.29 | X-H torsion
[ 10718 10713 10712 10709 ] final -160.75 input   66.30 | X-H torsion
[ 10763 10752 10751 10750 ] final   83.59 input  -60.55 | X-H torsion
[ 11005 11000 10999 10996 ] final   42.90 input  -57.11 | X-H torsion

> <Gold.Protein.ActiveResidues>
 VAL166  LYS551  ARG553  GLY616  TRP617  ASP618  TYR619  PRO620  LYS621  CYS622 
 ASP623  PHE694  ASN695  SER759  ASP760  ASP761  ALA762  ILE779  LEU786  VAL792 
 PHE793  MET794  SER795  GLU796  ALA797  LYS798  CYS799  TRP800  GLU811  SER814 

> <Gold.Protein.RotatedAtoms>
  150.9459  134.8863  159.7641 H   0  0  0  0  0  0  0  0  0  0  0  0  # atno 6907 bound_to 6896
  152.5099  134.3876  159.9383 H   0  0  0  0  0  0  0  0  0  0  0  0  # atno 6908 bound_to 6896
  151.3894  133.3754  159.2754 H   0  0  0  0  0  0  0  0  0  0  0  0  # atno 6909 bound_to 6896
  145.1982  139.2965  143.4332 H   0  0  0  0  0  0  0  0  0  0  0  0  # atno 7974 bound_to 7965
  156.2227  140.2989  155.9991 H   0  0  0  0  0  0  0  0  0  0  0  0  # atno 8008 bound_to 7997
  155.2439  140.0423  157.2995 H   0  0  0  0  0  0  0  0  0  0  0  0  # atno 8009 bound_to 7997
  154.5866  140.2390  155.7987 H   0  0  0  0  0  0  0  0  0  0  0  0  # atno 8010 bound_to 7997
  140.6572  143.7396  150.7675 H   0  0  0  0  0  0  0  0  0  0  0  0  # atno 10167 bound_to 10162
  156.5866  130.8752  151.2879 H   0  0  0  0  0  0  0  0  0  0  0  0  # atno 10718 bound_to 10713
  153.1304  135.4686  154.9340 H   0  0  0  0  0  0  0  0  0  0  0  0  # atno 10763 bound_to 10752
  154.7659  135.3144  154.8289 H   0  0  0  0  0  0  0  0  0  0  0  0  # atno 10764 bound_to 10752
  153.8833  135.6892  153.4819 H   0  0  0  0  0  0  0  0  0  0  0  0  # atno 10765 bound_to 10752
  140.1696  134.4239  155.8266 H   0  0  0  0  0  0  0  0  0  0  0  0  # atno 11005 bound_to 11000
  146.3423  140.2218  142.8591 LP  0  0  0  0  0  0  0  0  0  0  0  0  # atno 17320 bound_to 7965
  144.9974  140.8601  143.5302 LP  0  0  0  0  0  0  0  0  0  0  0  0  # atno 17321 bound_to 7965
  140.1058  143.4745  152.2399 LP  0  0  0  0  0  0  0  0  0  0  0  0  # atno 17342 bound_to 10162
  139.5798  144.7505  151.3670 LP  0  0  0  0  0  0  0  0  0  0  0  0  # atno 17343 bound_to 10162
  157.7314  130.9699  150.1877 LP  0  0  0  0  0  0  0  0  0  0  0  0  # atno 17370 bound_to 10713
  156.2586  130.3708  149.8155 LP  0  0  0  0  0  0  0  0  0  0  0  0  # atno 17371 bound_to 10713
  141.2216  133.6950  156.7739 LP  0  0  0  0  0  0  0  0  0  0  0  0  # atno 17394 bound_to 11000
  140.2393  134.8625  157.3557 LP  0  0  0  0  0  0  0  0  0  0  0  0  # atno 17395 bound_to 11000

$$$$
