AV-unprocessed.smi:1859|AV-procd|sdf|7543|dock10
  -GOLD-   22720 9263D 1   1.00000     0.00000
 Structure written by MMmdl.
 45 47  0  0  0  0  0  0  0  0  1 V2000
  148.6902  139.1868  157.2451 O   0  0  0  0  0  0  0  0  0  0  0  0
  148.4479  138.2816  156.4465 C   0  0  0  0  0  0  0  0  0  0  0  0
  147.7609  137.1774  156.7812 N   0  0  0  0  0  0  0  0  0  0  0  0
  147.2321  136.8755  158.1093 C   0  0  0  0  0  0  0  0  0  0  0  0
  148.3144  136.9305  159.2039 C   0  0  0  0  0  0  0  0  0  0  0  0
  147.8832  136.3298  160.5312 C   0  0  0  0  0  0  0  0  0  0  0  0
  147.7055  134.9364  160.6694 C   0  0  0  0  0  0  0  0  0  0  0  0
  147.3167  134.4316  161.9250 C   0  0  0  0  0  0  0  0  0  0  0  0
  147.1152  135.3345  162.9867 C   0  0  0  0  0  0  0  0  0  0  0  0
  147.3125  136.7082  162.7444 C   0  0  0  0  0  0  0  0  0  0  0  0
  147.6956  137.2021  161.5473 N   0  0  0  0  0  0  0  0  0  0  0  0
  148.9399  138.3642  154.9882 C   0  0  2  0  0  0  0  0  0  0  0  0
  149.7786  137.1228  154.5897 C   0  0  0  0  0  0  0  0  0  0  0  0
  151.2391  137.1821  155.0847 C   0  0  0  0  0  0  0  0  0  0  0  0
  151.8754  138.5345  154.7280 C   0  0  0  0  0  0  0  0  0  0  0  0
  151.0643  139.6140  155.3066 N   0  0  0  0  0  0  0  0  0  0  0  0
  151.4569  140.4711  156.2814 C   0  0  0  0  0  0  0  0  0  0  0  0
  152.4529  140.2531  156.9718 O   0  0  0  0  0  0  0  0  0  0  0  0
  150.6616  141.7327  156.4586 C   0  0  0  0  0  0  0  0  0  0  0  0
  151.2084  142.7935  157.3967 C   0  0  0  0  0  0  0  0  0  0  0  0
  150.0216  141.9620  157.8115 C   0  0  0  0  0  0  0  0  0  0  0  0
  149.7268  139.6689  154.6955 C   0  0  0  0  0  0  0  0  0  0  0  0
  147.6050  136.4848  156.0632 H   0  0  0  0  0  0  0  0  0  0  0  0
  146.4561  137.6075  158.3333 H   0  0  0  0  0  0  0  0  0  0  0  0
  146.7381  135.9026  158.1193 H   0  0  0  0  0  0  0  0  0  0  0  0
  149.2116  136.4177  158.8549 H   0  0  0  0  0  0  0  0  0  0  0  0
  148.6088  137.9671  159.3721 H   0  0  0  0  0  0  0  0  0  0  0  0
  147.8622  134.2687  159.8351 H   0  0  0  0  0  0  0  0  0  0  0  0
  147.1684  133.3718  162.0697 H   0  0  0  0  0  0  0  0  0  0  0  0
  146.8080  134.9834  163.9606 H   0  0  0  0  0  0  0  0  0  0  0  0
  147.1621  137.4289  163.5344 H   0  0  0  0  0  0  0  0  0  0  0  0
  148.0518  138.3715  154.3538 H   0  0  0  0  0  0  0  0  0  0  0  0
  149.3046  136.2069  154.9460 H   0  0  0  0  0  0  0  0  0  0  0  0
  149.7852  137.0473  153.5017 H   0  0  0  0  0  0  0  0  0  0  0  0
  151.2818  137.0280  156.1631 H   0  0  0  0  0  0  0  0  0  0  0  0
  151.8134  136.3701  154.6380 H   0  0  0  0  0  0  0  0  0  0  0  0
  152.9223  138.5629  155.0268 H   0  0  0  0  0  0  0  0  0  0  0  0
  151.8940  138.6532  153.6435 H   0  0  0  0  0  0  0  0  0  0  0  0
  150.1490  142.1290  155.5849 H   0  0  0  0  0  0  0  0  0  0  0  0
  152.1505  142.6127  157.9112 H   0  0  0  0  0  0  0  0  0  0  0  0
  151.0319  143.8312  157.1209 H   0  0  0  0  0  0  0  0  0  0  0  0
  149.0416  142.4344  157.8195 H   0  0  0  0  0  0  0  0  0  0  0  0
  150.1809  141.2180  158.5903 H   0  0  0  0  0  0  0  0  0  0  0  0
  149.8361  139.7997  153.6180 H   0  0  0  0  0  0  0  0  0  0  0  0
  149.1438  140.5282  155.0321 H   0  0  0  0  0  0  0  0  0  0  0  0
  1  2  2  0  0  0  0
  2  3  1  0  0  0  0
  2 12  1  0  0  0  0
  3  4  1  0  0  0  0
  3 23  1  0  0  0  0
  4  5  1  0  0  0  0
  4 24  1  0  0  0  0
  4 25  1  0  0  0  0
  5  6  1  0  0  0  0
  5 26  1  0  0  0  0
  5 27  1  0  0  0  0
  6 11  1  0  0  0  0
  6  7  2  0  0  0  0
  7  8  1  0  0  0  0
  7 28  1  0  0  0  0
  8  9  2  0  0  0  0
  8 29  1  0  0  0  0
  9 10  1  0  0  0  0
  9 30  1  0  0  0  0
 10 11  2  0  0  0  0
 10 31  1  0  0  0  0
 12 22  1  0  0  0  0
 12 13  1  0  0  0  0
 12 32  1  0  0  0  0
 13 14  1  0  0  0  0
 13 33  1  0  0  0  0
 13 34  1  0  0  0  0
 14 15  1  0  0  0  0
 14 35  1  0  0  0  0
 14 36  1  0  0  0  0
 15 16  1  0  0  0  0
 15 37  1  0  0  0  0
 15 38  1  0  0  0  0
 16 17  1  0  0  0  0
 16 22  1  0  0  0  0
 17 18  2  0  0  0  0
 17 19  1  0  0  0  0
 19 21  1  0  0  0  0
 19 20  1  0  0  0  0
 19 39  1  0  0  0  0
 20 21  1  0  0  0  0
 20 40  1  0  0  0  0
 20 41  1  0  0  0  0
 21 42  1  0  0  0  0
 21 43  1  0  0  0  0
 22 44  1  0  0  0  0
 22 45  1  0  0  0  0
M  END
> <s_m_source_file>
AV-unprocessed.smi

> <i_m_source_file_index>
1859

> <i_lp_mmshare_version>
43012

> <i_f3d_flags>
0

> <s_epik_input>
W0NIMl0xW0NIMl1bQ0hdMUMoPU8pTihbQ0gyXTIpW0NIMl1bQ0gyXVtDSDJdW0NASF0yQyg9TylbTkhdW0NIMl1bQ0gyXWMzW2NIXVtjSF1bY0hdW2NIXW4z

> <s_epik_cmdline>
J2VwaWtfcHl0aG9uJywgJy1waCcsICc3LjAnLCAnLXRuJywgJzgnLCAnLW1hJywgJzIwMCcsICctbWV0YWxfYmluZGluZycsICctaW1hZScsICc8aW5maWxlLm1hZT4nLCAnLW9tYWUnLCAnPG91dGZpbGUubWFlPic=

> <r_epik_Ionization_Penalty>
0.0268048

> <r_epik_Ionization_Penalty_Charging>
0

> <r_epik_Ionization_Penalty_Neutral>
0.0268048

> <r_epik_State_Penalty>
0.0219025

> <r_epik_Charging_Adjusted_Penalty>
0.0219025

> <i_epik_Tot_Q>
0

> <i_epik_Tot_abs_Q>
0

> <r_epik_Metal_State_Penalty>
0.020951

> <b_epik_Metal_Only>
0

> <s_lp_Force_Field>
OPLS_2005

> <r_lp_Energy>
24.9831

> <b_lp_Chiralities_Consistent>
1

> <s_lp_Variant>
AV-unprocessed.smi:1859-1

> <Gold.Version>
5.8.1

> <Gold.Id.Protein>
6NUR|6NUR_protein|mol2

> <Gold.PLP.Fitness>
49.6349

> <Gold.PLP.PLP>
-41.7861

> <Gold.PLP.part.hbond>
-3.0000

> <Gold.PLP.part.metal>
0.0000

> <Gold.PLP.part.buried>
-0.4360

> <Gold.PLP.part.nonpolar>
-37.3898

> <Gold.PLP.part.repulsive>
0.0000

> <Gold.PLP.ligand.clash>
0.0000

> <Gold.PLP.ligand.torsion>
0.3628

> <Gold.PLP.Chemscore.Hbond>
2.7360

> <Gold.PLP.Chemscore.CHOScore>
0.0000

> <Gold.PLP.Chemscore.Metal>
0.0000

> <Gold.Chemscore.Hbonds>
donor molecule, donor type, donor heavy atom, donor atom, acceptor molecule, acceptor atom, score
      P1  H  6931  6943       L1    11  1.00
      P1  H  6934  6947       L1    11  0.75
      P1  H  7997  8008       L1    18  1.00

> <Gold.PLP.Chemscore.Internal.Correction>
0.3665

> <Gold.Rescore>
     Score         DG    S(hbond)    S(metal)    S(lipo)     H(rot)  DE(clash)    DE(int)     intcor
     18.44     -19.62       2.17        0.00      93.74       1.59       0.02       1.15       ----

> <Gold.Chemscore.Fitness>
18.4382

> <Gold.Chemscore.DG>
-19.6174

> <Gold.Chemscore.ZeroCoef>
-5.4800

> <Gold.Chemscore.Hbond>
2.1711

> <Gold.Chemscore.Metal>
0.0000

> <Gold.Chemscore.Lipo>
93.7377

> <Gold.Chemscore.Internal_Hbond>
0.0000

> <Gold.Chemscore.DEClash>
0.0244

> <Gold.Chemscore.DEInternal>
1.1548

> <Gold.Chemscore.Rot>
1.5943

> <Gold.Chemscore.Internal.Correction>
   9.000000E+99

> <Gold.Chemscore.Hbonds>
donor molecule, donor type, donor heavy atom, donor atom, acceptor molecule, acceptor atom, score
      P1  H  6931  6943       L1    11  0.44
      P1  H  6934  6947       L1    11  0.64
      P1  H  7997  8008       L1    18  0.94

> <Gold.Chemscore.Hbond.Weighted>
-7.2515

> <Gold.Chemscore.Metal.Weighted>
-0.0000

> <Gold.Chemscore.Lipo.Weighted>
-10.9673

> <Gold.Chemscore.Internal_Hbond.Weighted>
0.0000

> <Gold.Chemscore.DEClash.Weighted>
0.0244

> <Gold.Chemscore.DEInternal.Weighted>
1.1548

> <Gold.Chemscore.Rot.Weighted>
4.0814

> <Gold.Chemscore.Internal.Correction.Weighted>
   9.000000E+99

> <Gold.Protein.RotatedTorsions>
[ 6907 6896 6895 6894 ] final -162.89 input  -60.11 | X-H torsion
[ 7974 7965 7964 7962 ] final  -63.18 input  175.53 | X-H torsion
[ 8008 7997 7996 7995 ] final  -59.07 input   59.86 | X-H torsion
[ 10167 10162 10161 10158 ] final  -36.95 input  -65.29 | X-H torsion
[ 10718 10713 10712 10709 ] final  -40.98 input   66.30 | X-H torsion
[ 10763 10752 10751 10750 ] final  145.01 input  -60.55 | X-H torsion
[ 11005 11000 10999 10996 ] final    2.19 input  -57.11 | X-H torsion

> <Gold.Protein.ActiveResidues>
 VAL166  LYS551  ARG553  GLY616  TRP617  ASP618  TYR619  PRO620  LYS621  CYS622 
 ASP623  PHE694  ASN695  SER759  ASP760  ASP761  ALA762  ILE779  LEU786  VAL792 
 PHE793  MET794  SER795  GLU796  ALA797  LYS798  CYS799  TRP800  GLU811  SER814 

> <Gold.Protein.RotatedAtoms>
  151.3874  133.3800  159.2716 H   0  0  0  0  0  0  0  0  0  0  0  0  # atno 6907 bound_to 6896
  150.9531  134.8930  159.7695 H   0  0  0  0  0  0  0  0  0  0  0  0  # atno 6908 bound_to 6896
  152.5120  134.3830  159.9410 H   0  0  0  0  0  0  0  0  0  0  0  0  # atno 6909 bound_to 6896
  145.7822  140.8756  143.0324 H   0  0  0  0  0  0  0  0  0  0  0  0  # atno 7974 bound_to 7965
  154.4336  140.1070  156.6057 H   0  0  0  0  0  0  0  0  0  0  0  0  # atno 8008 bound_to 7997
  155.5863  140.3491  155.4535 H   0  0  0  0  0  0  0  0  0  0  0  0  # atno 8009 bound_to 7997
  156.0280  140.1254  157.0277 H   0  0  0  0  0  0  0  0  0  0  0  0  # atno 8010 bound_to 7997
  140.7130  143.3374  151.2432 H   0  0  0  0  0  0  0  0  0  0  0  0  # atno 10167 bound_to 10162
  156.2754  130.4211  149.8393 H   0  0  0  0  0  0  0  0  0  0  0  0  # atno 10718 bound_to 10713
  153.9984  135.2925  155.3405 H   0  0  0  0  0  0  0  0  0  0  0  0  # atno 10763 bound_to 10752
  154.7174  135.5124  153.8762 H   0  0  0  0  0  0  0  0  0  0  0  0  # atno 10764 bound_to 10752
  153.0777  135.6669  154.0228 H   0  0  0  0  0  0  0  0  0  0  0  0  # atno 10765 bound_to 10752
  140.6071  133.9783  155.8159 H   0  0  0  0  0  0  0  0  0  0  0  0  # atno 11005 bound_to 11000
  144.6794  140.0004  143.7484 LP  0  0  0  0  0  0  0  0  0  0  0  0  # atno 17320 bound_to 7965
  146.0063  139.3132  143.0897 LP  0  0  0  0  0  0  0  0  0  0  0  0  # atno 17321 bound_to 7965
  139.6873  143.9752  152.2840 LP  0  0  0  0  0  0  0  0  0  0  0  0  # atno 17342 bound_to 10162
  139.9402  144.6686  150.8274 LP  0  0  0  0  0  0  0  0  0  0  0  0  # atno 17343 bound_to 10162
  156.5860  130.8486  151.3395 LP  0  0  0  0  0  0  0  0  0  0  0  0  # atno 17370 bound_to 10713
  157.7297  130.9675  150.1801 LP  0  0  0  0  0  0  0  0  0  0  0  0  # atno 17371 bound_to 10713
  141.0833  134.0028  157.3352 LP  0  0  0  0  0  0  0  0  0  0  0  0  # atno 17394 bound_to 11000
  139.9208  135.0200  156.8056 LP  0  0  0  0  0  0  0  0  0  0  0  0  # atno 17395 bound_to 11000

$$$$
