AV-unprocessed.smi:3178|AV-procd|sdf|12131|dock10
  -GOLD-   2272017573D 1   1.00000     0.00000
 Structure written by MMmdl.
 35 35  0  0  0  0  0  0  0  0  1 V2000
  151.5498  139.9028  155.0570 C   0  0  0  0  0  0  0  0  0  0  0  0
  150.4982  140.4505  154.2702 O   0  0  0  0  0  0  0  0  0  0  0  0
  149.4053  141.0816  154.9469 C   0  0  0  0  0  0  0  0  0  0  0  0
  148.8370  139.9857  155.8694 C   0  0  0  0  0  0  0  0  0  0  0  0
  149.9060  142.2539  155.8150 C   0  0  0  0  0  0  0  0  0  0  0  0
  148.3258  141.5678  153.9488 C   0  0  0  0  0  0  0  0  0  0  0  0
  147.9880  140.5282  152.9832 N   0  0  0  0  0  0  0  0  0  0  0  0
  146.8656  139.7927  152.9848 C   0  0  0  0  0  0  0  0  0  0  0  0
  145.9436  139.9631  153.7818 O   0  0  0  0  0  0  0  0  0  0  0  0
  146.7624  138.6967  151.9209 C   0  0  0  0  0  0  0  0  0  0  0  0
  145.6997  137.6982  152.2604 C   0  0  0  0  0  0  0  0  0  0  0  0
  145.7461  136.3389  152.3999 C   0  0  0  0  0  0  0  0  0  0  0  0
  144.4045  135.9697  152.7099 C   0  0  0  0  0  0  0  0  0  0  0  0
  143.8589  134.5957  152.9659 C   0  0  0  0  0  0  0  0  0  0  0  0
  143.5923  137.0148  152.7654 N   0  0  0  0  0  0  0  0  0  0  0  0
  144.3920  138.0617  152.4912 N   0  0  0  0  0  0  0  0  0  0  0  0
  144.0359  139.0065  152.4636 H   0  0  0  0  0  0  0  0  0  0  0  0
  152.3003  139.4772  154.3912 H   0  0  0  0  0  0  0  0  0  0  0  0
  151.2038  139.0985  155.7052 H   0  0  0  0  0  0  0  0  0  0  0  0
  152.0497  140.6580  155.6627 H   0  0  0  0  0  0  0  0  0  0  0  0
  147.9685  140.3444  156.4228 H   0  0  0  0  0  0  0  0  0  0  0  0
  149.5808  139.6607  156.5976 H   0  0  0  0  0  0  0  0  0  0  0  0
  148.5288  139.1023  155.3088 H   0  0  0  0  0  0  0  0  0  0  0  0
  149.1061  142.6412  156.4468 H   0  0  0  0  0  0  0  0  0  0  0  0
  150.2641  143.0880  155.2120 H   0  0  0  0  0  0  0  0  0  0  0  0
  150.7198  141.9412  156.4698 H   0  0  0  0  0  0  0  0  0  0  0  0
  147.4383  141.8730  154.5060 H   0  0  0  0  0  0  0  0  0  0  0  0
  148.6567  142.4537  153.4071 H   0  0  0  0  0  0  0  0  0  0  0  0
  148.6895  140.3169  152.2883 H   0  0  0  0  0  0  0  0  0  0  0  0
  146.5444  139.1496  150.9531 H   0  0  0  0  0  0  0  0  0  0  0  0
  147.7316  138.2060  151.8249 H   0  0  0  0  0  0  0  0  0  0  0  0
  146.6105  135.7010  152.2895 H   0  0  0  0  0  0  0  0  0  0  0  0
  144.5038  133.8303  152.5337 H   0  0  0  0  0  0  0  0  0  0  0  0
  142.8660  134.4746  152.5315 H   0  0  0  0  0  0  0  0  0  0  0  0
  143.7821  134.4000  154.0354 H   0  0  0  0  0  0  0  0  0  0  0  0
  1  2  1  0  0  0  0
  1 18  1  0  0  0  0
  1 19  1  0  0  0  0
  1 20  1  0  0  0  0
  2  3  1  0  0  0  0
  3  4  1  0  0  0  0
  3  5  1  0  0  0  0
  3  6  1  0  0  0  0
  4 21  1  0  0  0  0
  4 22  1  0  0  0  0
  4 23  1  0  0  0  0
  5 24  1  0  0  0  0
  5 25  1  0  0  0  0
  5 26  1  0  0  0  0
  6  7  1  0  0  0  0
  6 27  1  0  0  0  0
  6 28  1  0  0  0  0
  7  8  1  0  0  0  0
  7 29  1  0  0  0  0
  8  9  2  0  0  0  0
  8 10  1  0  0  0  0
 10 30  1  0  0  0  0
 10 31  1  0  0  0  0
 10 11  1  0  0  0  0
 11 16  1  0  0  0  0
 11 12  2  0  0  0  0
 12 13  1  0  0  0  0
 12 32  1  0  0  0  0
 13 14  1  0  0  0  0
 13 15  2  0  0  0  0
 14 33  1  0  0  0  0
 14 34  1  0  0  0  0
 14 35  1  0  0  0  0
 15 16  1  0  0  0  0
 16 17  1  0  0  0  0
M  END
> <s_m_source_file>
AV-unprocessed.smi

> <i_m_source_file_index>
3178

> <i_lp_mmshare_version>
43012

> <i_f3d_flags>
0

> <s_epik_input>
W0NIM11PQyhbQ0gzXSkoW0NIM10pW0NIMl1bTkhdQyg9TylbQ0gyXWMxW2NIXWMoW0NIM10pW25IXW4x

> <s_epik_cmdline>
J2VwaWtfcHl0aG9uJywgJy1waCcsICc3LjAnLCAnLXRuJywgJzgnLCAnLW1hJywgJzIwMCcsICctbWV0YWxfYmluZGluZycsICctaW1hZScsICc8aW5maWxlLm1hZT4nLCAnLW9tYWUnLCAnPG91dGZpbGUubWFlPic=

> <r_lp_tautomer_probability>
0.5

> <r_epik_Ionization_Penalty>
0.000125824

> <r_epik_Ionization_Penalty_Charging>
0

> <r_epik_Ionization_Penalty_Neutral>
0.000125824

> <r_epik_State_Penalty>
0.41068

> <r_epik_Charging_Adjusted_Penalty>
0.41068

> <i_epik_Tot_Q>
0

> <i_epik_Tot_abs_Q>
0

> <r_epik_Metal_State_Penalty>
0.410657

> <b_epik_Metal_Only>
0

> <s_lp_Force_Field>
OPLS_2005

> <r_lp_Energy>
5.55187

> <b_lp_Chiralities_Consistent>
1

> <s_lp_Variant>
AV-unprocessed.smi:3178-2

> <Gold.Version>
5.8.1

> <Gold.Id.Protein>
6NUR|6NUR_protein|mol2

> <Gold.PLP.Fitness>
37.6716

> <Gold.PLP.PLP>
-29.6478

> <Gold.PLP.part.hbond>
-3.7294

> <Gold.PLP.part.metal>
0.0000

> <Gold.PLP.part.buried>
-2.6068

> <Gold.PLP.part.nonpolar>
-24.3536

> <Gold.PLP.part.repulsive>
0.6205

> <Gold.PLP.ligand.clash>
0.0000

> <Gold.PLP.ligand.torsion>
0.4180

> <Gold.PLP.Chemscore.Hbond>
2.9425

> <Gold.PLP.Chemscore.CHOScore>
0.0000

> <Gold.PLP.Chemscore.Metal>
0.0000

> <Gold.Chemscore.Hbonds>
donor molecule, donor type, donor heavy atom, donor atom, acceptor molecule, acceptor atom, score
      L1  H     7    29       P1  7957  0.86
      L1  H    16    17       P1 10175  0.88
      P1  H  7989  7998       L1     2  0.04

> <Gold.PLP.Chemscore.Internal.Correction>
0.0323

> <Gold.Rescore>
     Score         DG    S(hbond)    S(metal)    S(lipo)     H(rot)  DE(clash)    DE(int)     intcor
     16.31     -16.86       2.86        0.00      56.93       1.89       0.06       0.49       ----

> <Gold.Chemscore.Fitness>
16.3100

> <Gold.Chemscore.DG>
-16.8581

> <Gold.Chemscore.ZeroCoef>
-5.4800

> <Gold.Chemscore.Hbond>
2.8592

> <Gold.Chemscore.Metal>
0.0000

> <Gold.Chemscore.Lipo>
56.9316

> <Gold.Chemscore.Internal_Hbond>
0.0000

> <Gold.Chemscore.DEClash>
0.0564

> <Gold.Chemscore.DEInternal>
0.4917

> <Gold.Chemscore.Rot>
1.8877

> <Gold.Chemscore.Internal.Correction>
   9.000000E+99

> <Gold.Chemscore.Hbonds>
donor molecule, donor type, donor heavy atom, donor atom, acceptor molecule, acceptor atom, score
      L1  H     7    29       P1  7957  0.84
      L1  H    16    17       P1 10175  0.86

> <Gold.Chemscore.Hbond.Weighted>
-9.5496

> <Gold.Chemscore.Metal.Weighted>
-0.0000

> <Gold.Chemscore.Lipo.Weighted>
-6.6610

> <Gold.Chemscore.Internal_Hbond.Weighted>
0.0000

> <Gold.Chemscore.DEClash.Weighted>
0.0564

> <Gold.Chemscore.DEInternal.Weighted>
0.4917

> <Gold.Chemscore.Rot.Weighted>
4.8325

> <Gold.Chemscore.Internal.Correction.Weighted>
   9.000000E+99

> <Gold.Protein.RotatedTorsions>
[ 6907 6896 6895 6894 ] final  125.14 input  -60.11 | X-H torsion
[ 7974 7965 7964 7962 ] final  144.43 input  175.53 | X-H torsion
[ 8008 7997 7996 7995 ] final -164.38 input   59.86 | X-H torsion
[ 10167 10162 10161 10158 ] final  -73.40 input  -65.29 | X-H torsion
[ 10718 10713 10712 10709 ] final  -62.54 input   66.30 | X-H torsion
[ 10763 10752 10751 10750 ] final  113.49 input  -60.55 | X-H torsion
[ 11005 11000 10999 10996 ] final  109.74 input  -57.11 | X-H torsion

> <Gold.Protein.ActiveResidues>
 VAL166  LYS551  ARG553  GLY616  TRP617  ASP618  TYR619  PRO620  LYS621  CYS622 
 ASP623  PHE694  ASN695  SER759  ASP760  ASP761  ALA762  ILE779  LEU786  VAL792 
 PHE793  MET794  SER795  GLU796  ALA797  LYS798  CYS799  TRP800  GLU811  SER814 

> <Gold.Protein.RotatedAtoms>
  152.4018  133.6829  159.6322 H   0  0  0  0  0  0  0  0  0  0  0  0  # atno 6907 bound_to 6896
  150.7908  133.8778  159.3286 H   0  0  0  0  0  0  0  0  0  0  0  0  # atno 6908 bound_to 6896
  151.6542  135.0999  160.0218 H   0  0  0  0  0  0  0  0  0  0  0  0  # atno 6909 bound_to 6896
  144.8837  139.5661  143.5831 H   0  0  0  0  0  0  0  0  0  0  0  0  # atno 7974 bound_to 7965
  155.8347  140.0939  157.1771 H   0  0  0  0  0  0  0  0  0  0  0  0  # atno 8008 bound_to 7997
  154.3980  140.1412  156.3717 H   0  0  0  0  0  0  0  0  0  0  0  0  # atno 8009 bound_to 7997
  155.8128  140.3449  155.5470 H   0  0  0  0  0  0  0  0  0  0  0  0  # atno 8010 bound_to 7997
  140.5113  143.2344  151.7588 H   0  0  0  0  0  0  0  0  0  0  0  0  # atno 10167 bound_to 10162
  156.0849  130.4210  150.1149 H   0  0  0  0  0  0  0  0  0  0  0  0  # atno 10718 bound_to 10713
  153.4932  135.3654  155.2502 H   0  0  0  0  0  0  0  0  0  0  0  0  # atno 10763 bound_to 10752
  154.8751  135.3982  154.3564 H   0  0  0  0  0  0  0  0  0  0  0  0  # atno 10764 bound_to 10752
  153.4187  135.7079  153.6374 H   0  0  0  0  0  0  0  0  0  0  0  0  # atno 10765 bound_to 10752
  139.8868  134.9466  156.6171 H   0  0  0  0  0  0  0  0  0  0  0  0  # atno 11005 bound_to 11000
  146.3011  139.7428  142.9091 LP  0  0  0  0  0  0  0  0  0  0  0  0  # atno 17320 bound_to 7965
  145.3908  141.0372  143.3125 LP  0  0  0  0  0  0  0  0  0  0  0  0  # atno 17321 bound_to 7965
  139.4897  144.4386  151.9790 LP  0  0  0  0  0  0  0  0  0  0  0  0  # atno 17342 bound_to 10162
  140.3479  144.3125  150.5955 LP  0  0  0  0  0  0  0  0  0  0  0  0  # atno 17343 bound_to 10162
  156.9173  130.9671  151.3554 LP  0  0  0  0  0  0  0  0  0  0  0  0  # atno 17370 bound_to 10713
  157.5979  130.8491  149.8757 LP  0  0  0  0  0  0  0  0  0  0  0  0  # atno 17371 bound_to 10713
  140.7767  133.8693  155.8535 LP  0  0  0  0  0  0  0  0  0  0  0  0  # atno 17394 bound_to 11000
  140.9795  134.1424  157.4506 LP  0  0  0  0  0  0  0  0  0  0  0  0  # atno 17395 bound_to 11000

$$$$
