AV-unprocessed.smi:2257|AV-procd|sdf|9128|dock4
  -GOLD-   2272012333D 1   1.00000     0.00000
 Structure written by MMmdl.
 40 42  0  0  0  0  0  0  0  0  1 V2000
  143.1696  137.0918  153.2776 C   0  0  0  0  0  0  0  0  0  0  0  0
  144.1918  136.8985  152.3068 O   0  0  0  0  0  0  0  0  0  0  0  0
  144.7622  135.5910  152.2431 C   0  0  0  0  0  0  0  0  0  0  0  0
  145.5987  135.2735  153.4951 C   0  0  0  0  0  0  0  0  0  0  0  0
  146.8312  136.0544  153.5338 N   0  0  0  0  0  0  0  0  0  0  0  0
  147.0970  137.0556  154.3834 C   0  0  0  0  0  0  0  0  0  0  0  0
  146.3049  137.4578  155.2346 O   0  0  0  0  0  0  0  0  0  0  0  0
  148.3213  137.5626  154.1619 N   0  0  0  0  0  0  0  0  0  0  0  0
  148.9823  138.6076  154.8606 C   0  0  0  0  0  0  0  0  0  0  0  0
  150.0632  139.2674  154.2394 C   0  0  0  0  0  0  0  0  0  0  0  0
  150.7469  140.2568  154.8529 N   0  0  0  0  0  0  0  0  0  0  0  0
  150.3649  140.5739  156.0931 C   0  0  0  0  0  0  0  0  0  0  0  0
  151.0994  141.6968  156.7576 C   0  0  0  0  0  0  0  0  0  0  0  0
  151.9021  141.4622  158.0214 C   0  0  0  0  0  0  0  0  0  0  0  0
  150.6250  142.2524  158.0849 C   0  0  0  0  0  0  0  0  0  0  0  0
  149.3613  140.0238  156.7820 N   0  0  0  0  0  0  0  0  0  0  0  0
  148.6698  139.0348  156.1748 C   0  0  0  0  0  0  0  0  0  0  0  0
  143.6429  134.6032  151.8572 C   0  0  0  0  0  0  0  0  0  0  0  0
  144.6052  133.9659  150.8538 C   0  0  0  0  0  0  0  0  0  0  0  0
  145.3641  135.2936  150.8533 C   0  0  0  0  0  0  0  0  0  0  0  0
  142.8341  138.1279  153.2380 H   0  0  0  0  0  0  0  0  0  0  0  0
  143.5249  136.9029  154.2903 H   0  0  0  0  0  0  0  0  0  0  0  0
  142.2995  136.4634  153.0946 H   0  0  0  0  0  0  0  0  0  0  0  0
  145.0353  135.5310  154.3921 H   0  0  0  0  0  0  0  0  0  0  0  0
  145.8064  134.2075  153.5883 H   0  0  0  0  0  0  0  0  0  0  0  0
  147.5454  135.7994  152.8676 H   0  0  0  0  0  0  0  0  0  0  0  0
  148.8246  137.1818  153.3739 H   0  0  0  0  0  0  0  0  0  0  0  0
  150.3806  139.0049  153.2407 H   0  0  0  0  0  0  0  0  0  0  0  0
  151.4951  142.3980  156.0254 H   0  0  0  0  0  0  0  0  0  0  0  0
  151.8934  140.4628  158.4518 H   0  0  0  0  0  0  0  0  0  0  0  0
  152.8375  142.0072  158.1289 H   0  0  0  0  0  0  0  0  0  0  0  0
  150.7048  143.3268  158.2367 H   0  0  0  0  0  0  0  0  0  0  0  0
  149.7667  141.7777  158.5564 H   0  0  0  0  0  0  0  0  0  0  0  0
  147.8849  138.5867  156.7637 H   0  0  0  0  0  0  0  0  0  0  0  0
  143.3163  133.9346  152.6539 H   0  0  0  0  0  0  0  0  0  0  0  0
  142.7928  135.0848  151.3703 H   0  0  0  0  0  0  0  0  0  0  0  0
  145.1835  133.1448  151.2804 H   0  0  0  0  0  0  0  0  0  0  0  0
  144.1561  133.6940  149.8980 H   0  0  0  0  0  0  0  0  0  0  0  0
  145.0100  135.9653  150.0693 H   0  0  0  0  0  0  0  0  0  0  0  0
  146.4498  135.1944  150.8351 H   0  0  0  0  0  0  0  0  0  0  0  0
  1  2  1  0  0  0  0
  1 21  1  0  0  0  0
  1 22  1  0  0  0  0
  1 23  1  0  0  0  0
  2  3  1  0  0  0  0
  3 20  1  0  0  0  0
  3  4  1  0  0  0  0
  3 18  1  0  0  0  0
  4  5  1  0  0  0  0
  4 24  1  0  0  0  0
  4 25  1  0  0  0  0
  5  6  1  0  0  0  0
  5 26  1  0  0  0  0
  6  7  2  0  0  0  0
  6  8  1  0  0  0  0
  8  9  1  0  0  0  0
  8 27  1  0  0  0  0
  9 17  1  0  0  0  0
  9 10  2  0  0  0  0
 10 11  1  0  0  0  0
 10 28  1  0  0  0  0
 11 12  2  0  0  0  0
 12 13  1  0  0  0  0
 12 16  1  0  0  0  0
 13 15  1  0  0  0  0
 13 14  1  0  0  0  0
 13 29  1  0  0  0  0
 14 15  1  0  0  0  0
 14 30  1  0  0  0  0
 14 31  1  0  0  0  0
 15 32  1  0  0  0  0
 15 33  1  0  0  0  0
 16 17  2  0  0  0  0
 17 34  1  0  0  0  0
 18 19  1  0  0  0  0
 18 35  1  0  0  0  0
 18 36  1  0  0  0  0
 19 20  1  0  0  0  0
 19 37  1  0  0  0  0
 19 38  1  0  0  0  0
 20 39  1  0  0  0  0
 20 40  1  0  0  0  0
M  END
> <s_m_source_file>
AV-unprocessed.smi

> <i_m_source_file_index>
2257

> <i_lp_mmshare_version>
43012

> <i_f3d_flags>
0

> <s_epik_input>
W0NIMl0xW0NIMl1bQ0gyXUMxKE9bQ0gzXSlbQ0gyXVtOSF1DKD1PKVtOSF1jMltjSF1uYyhuW2NIXTIpW0NIXTNbQ0gyXVtDSDJdMw==

> <s_epik_cmdline>
J2VwaWtfcHl0aG9uJywgJy1waCcsICc3LjAnLCAnLXRuJywgJzgnLCAnLW1hJywgJzIwMCcsICctbWV0YWxfYmluZGluZycsICctaW1hZScsICc8aW5maWxlLm1hZT4nLCAnLW9tYWUnLCAnPG91dGZpbGUubWFlPic=

> <r_lp_tautomer_probability>
1

> <r_epik_Ionization_Penalty>
2.49679e-05

> <r_epik_Ionization_Penalty_Charging>
0

> <r_epik_Ionization_Penalty_Neutral>
2.49679e-05

> <r_epik_State_Penalty>
-0

> <r_epik_Charging_Adjusted_Penalty>
0

> <i_epik_Tot_Q>
0

> <i_epik_Tot_abs_Q>
0

> <r_epik_Metal_State_Penalty>
-0

> <b_epik_Metal_Only>
0

> <s_lp_Force_Field>
OPLS_2005

> <r_lp_Energy>
15.4086

> <b_lp_Chiralities_Consistent>
1

> <s_lp_Variant>
AV-unprocessed.smi:2257-1

> <Gold.Version>
5.8.1

> <Gold.Id.Protein>
6NUR|6NUR_protein|mol2

> <Gold.PLP.Fitness>
39.0325

> <Gold.PLP.PLP>
-27.7035

> <Gold.PLP.part.hbond>
-3.0000

> <Gold.PLP.part.metal>
0.0000

> <Gold.PLP.part.buried>
-5.0495

> <Gold.PLP.part.nonpolar>
-20.4137

> <Gold.PLP.part.repulsive>
1.0052

> <Gold.PLP.ligand.clash>
0.0000

> <Gold.PLP.ligand.torsion>
0.4501

> <Gold.PLP.Chemscore.Hbond>
3.0000

> <Gold.PLP.Chemscore.CHOScore>
0.9441

> <Gold.PLP.Chemscore.Metal>
0.0000

> <Gold.Chemscore.Hbonds>
donor molecule, donor type, donor heavy atom, donor atom, acceptor molecule, acceptor atom, score
      L1  H     5    26       P1  7948  1.00
      L1  H     8    27       P1  7948  1.00
      P1  H  7989  7998       L1    11  1.00
      L1  C    10    28       P1  7957  0.94

> <Gold.PLP.Chemscore.Internal.Correction>
0.3968

> <Gold.Rescore>
     Score         DG    S(hbond)    S(metal)    S(lipo)     H(rot)  DE(clash)    DE(int)     intcor
     15.40     -17.00       2.59        0.00      60.17       1.62       0.06       1.54       ----

> <Gold.Chemscore.Fitness>
15.3975

> <Gold.Chemscore.DG>
-17.0001

> <Gold.Chemscore.ZeroCoef>
-5.4800

> <Gold.Chemscore.Hbond>
2.5851

> <Gold.Chemscore.Metal>
0.0000

> <Gold.Chemscore.Lipo>
60.1739

> <Gold.Chemscore.Internal_Hbond>
0.0000

> <Gold.Chemscore.DEClash>
0.0585

> <Gold.Chemscore.DEInternal>
1.5441

> <Gold.Chemscore.Rot>
1.6229

> <Gold.Chemscore.Internal.Correction>
   9.000000E+99

> <Gold.Chemscore.Hbonds>
donor molecule, donor type, donor heavy atom, donor atom, acceptor molecule, acceptor atom, score
      L1  H     5    26       P1  7948  0.95
      L1  H     8    27       P1  7948  0.98
      P1  H  7989  7998       L1    11  0.25

> <Gold.Chemscore.Hbond.Weighted>
-8.6343

> <Gold.Chemscore.Metal.Weighted>
-0.0000

> <Gold.Chemscore.Lipo.Weighted>
-7.0403

> <Gold.Chemscore.Internal_Hbond.Weighted>
0.0000

> <Gold.Chemscore.DEClash.Weighted>
0.0585

> <Gold.Chemscore.DEInternal.Weighted>
1.5441

> <Gold.Chemscore.Rot.Weighted>
4.1545

> <Gold.Chemscore.Internal.Correction.Weighted>
   9.000000E+99

> <Gold.Protein.RotatedTorsions>
[ 6907 6896 6895 6894 ] final  103.36 input  -60.11 | X-H torsion
[ 7974 7965 7964 7962 ] final  172.81 input  175.53 | X-H torsion
[ 8008 7997 7996 7995 ] final -112.13 input   59.86 | X-H torsion
[ 10167 10162 10161 10158 ] final   28.76 input  -65.29 | X-H torsion
[ 10718 10713 10712 10709 ] final  169.95 input   66.30 | X-H torsion
[ 10763 10752 10751 10750 ] final    4.89 input  -60.55 | X-H torsion
[ 11005 11000 10999 10996 ] final -144.98 input  -57.11 | X-H torsion

> <Gold.Protein.ActiveResidues>
 VAL166  LYS551  ARG553  GLY616  TRP617  ASP618  TYR619  PRO620  LYS621  CYS622 
 ASP623  PHE694  ASN695  SER759  ASP760  ASP761  ALA762  ILE779  LEU786  VAL792 
 PHE793  MET794  SER795  GLU796  ALA797  LYS798  CYS799  TRP800  GLU811  SER814 

> <Gold.Protein.RotatedAtoms>
  152.5298  133.9838  159.7818 H   0  0  0  0  0  0  0  0  0  0  0  0  # atno 6907 bound_to 6896
  151.0087  133.5978  159.2692 H   0  0  0  0  0  0  0  0  0  0  0  0  # atno 6908 bound_to 6896
  151.3061  135.0788  159.9309 H   0  0  0  0  0  0  0  0  0  0  0  0  # atno 6909 bound_to 6896
  144.7259  139.9554  143.6433 H   0  0  0  0  0  0  0  0  0  0  0  0  # atno 7974 bound_to 7965
  155.0004  140.0394  157.2357 H   0  0  0  0  0  0  0  0  0  0  0  0  # atno 8008 bound_to 7997
  154.7549  140.2774  155.6239 H   0  0  0  0  0  0  0  0  0  0  0  0  # atno 8009 bound_to 7997
  156.2892  140.2640  156.2312 H   0  0  0  0  0  0  0  0  0  0  0  0  # atno 8010 bound_to 7997
  140.4824  144.0595  150.6269 H   0  0  0  0  0  0  0  0  0  0  0  0  # atno 10167 bound_to 10162
  157.0151  131.0216  151.2791 H   0  0  0  0  0  0  0  0  0  0  0  0  # atno 10718 bound_to 10713
  153.2658  135.6927  153.7531 H   0  0  0  0  0  0  0  0  0  0  0  0  # atno 10763 bound_to 10752
  153.6573  135.3366  155.3118 H   0  0  0  0  0  0  0  0  0  0  0  0  # atno 10764 bound_to 10752
  154.8447  135.4468  154.1664 H   0  0  0  0  0  0  0  0  0  0  0  0  # atno 10765 bound_to 10752
  140.7969  134.2902  157.4993 H   0  0  0  0  0  0  0  0  0  0  0  0  # atno 11005 bound_to 11000
  146.0679  139.3669  143.0541 LP  0  0  0  0  0  0  0  0  0  0  0  0  # atno 17320 bound_to 7965
  145.8007  140.9772  143.1000 LP  0  0  0  0  0  0  0  0  0  0  0  0  # atno 17321 bound_to 7965
  140.3841  143.2787  152.0137 LP  0  0  0  0  0  0  0  0  0  0  0  0  # atno 17342 bound_to 10162
  139.4836  144.6131  151.7396 LP  0  0  0  0  0  0  0  0  0  0  0  0  # atno 17343 bound_to 10162
  157.5291  130.8047  149.7896 LP  0  0  0  0  0  0  0  0  0  0  0  0  # atno 17370 bound_to 10713
  156.0122  130.3828  150.2228 LP  0  0  0  0  0  0  0  0  0  0  0  0  # atno 17371 bound_to 10713
  139.8725  134.9407  156.3777 LP  0  0  0  0  0  0  0  0  0  0  0  0  # atno 17394 bound_to 11000
  140.9333  133.7564  156.0053 LP  0  0  0  0  0  0  0  0  0  0  0  0  # atno 17395 bound_to 11000

$$$$
