AV-unprocessed.smi:2083|AV-procd|sdf|8500|dock4
  -GOLD-   2272011213D 1   1.00000     0.00000
 Structure written by MMmdl.
 44 45  0  0  0  0  0  0  0  0  3 V2000
  146.2351  134.2339  162.3231 C   0  0  0  0  0  0  0  0  0  0  0  0
  146.8929  135.2129  161.4119 C   0  0  0  0  0  0  0  0  0  0  0  0
  147.5280  135.0792  160.2099 C   0  0  0  0  0  0  0  0  0  0  0  0
  147.9084  136.4122  159.8941 C   0  0  0  0  0  0  0  0  0  0  0  0
  148.5757  136.8045  158.7979 N   0  5  0  0  0  0  0  0  0  0  0  0
  149.7543  137.4563  158.9178 C   0  0  0  0  0  0  0  0  0  0  0  0
  150.7116  137.1166  159.6173 O   0  0  0  0  0  0  0  0  0  0  0  0
  149.8283  138.5762  158.1847 N   0  0  0  0  0  0  0  0  0  0  0  0
  150.9703  139.4842  158.1295 C   0  0  0  0  0  0  0  0  0  0  0  0
  150.5530  140.9677  157.9251 C   0  0  2  0  0  0  0  0  0  0  0  0
  150.4315  141.2862  156.4178 C   0  0  0  0  0  0  0  0  0  0  0  0
  151.4648  141.9623  158.5803 N   0  3  2  0  0  0  0  0  0  0  0  0
  152.0361  141.5611  159.8992 C   0  0  0  0  0  0  0  0  0  0  0  0
  153.0651  142.5852  160.4070 C   0  0  0  0  0  0  0  0  0  0  0  0
  152.4700  143.9961  160.4747 C   0  0  0  0  0  0  0  0  0  0  0  0
  151.8434  144.3929  159.1283 C   0  0  1  0  0  0  0  0  0  0  0  0
  152.8911  144.7149  158.0479 C   0  0  0  0  0  0  0  0  0  0  0  0
  150.8419  143.3155  158.6679 C   0  0  0  0  0  0  0  0  0  0  0  0
  147.5521  137.2754  160.8305 N   0  0  0  0  0  0  0  0  0  0  0  0
  146.8953  136.5150  161.8052 O   0  0  0  0  0  0  0  0  0  0  0  0
  146.9737  133.5681  162.7695 H   0  0  0  0  0  0  0  0  0  0  0  0
  145.5145  133.6245  161.7780 H   0  0  0  0  0  0  0  0  0  0  0  0
  145.7057  134.7413  163.1299 H   0  0  0  0  0  0  0  0  0  0  0  0
  147.6911  134.1740  159.6443 H   0  0  0  0  0  0  0  0  0  0  0  0
  149.0245  138.8150  157.6219 H   0  0  0  0  0  0  0  0  0  0  0  0
  151.5368  139.3502  159.0522 H   0  0  0  0  0  0  0  0  0  0  0  0
  151.6143  139.1576  157.3122 H   0  0  0  0  0  0  0  0  0  0  0  0
  149.5679  141.0864  158.3788 H   0  0  0  0  0  0  0  0  0  0  0  0
  149.7192  140.6270  155.9214 H   0  0  0  0  0  0  0  0  0  0  0  0
  151.3921  141.1696  155.9152 H   0  0  0  0  0  0  0  0  0  0  0  0
  150.0845  142.3005  156.2292 H   0  0  0  0  0  0  0  0  0  0  0  0
  151.2313  141.4373  160.6255 H   0  0  0  0  0  0  0  0  0  0  0  0
  152.5581  140.6080  159.8246 H   0  0  0  0  0  0  0  0  0  0  0  0
  153.4244  142.2897  161.3932 H   0  0  0  0  0  0  0  0  0  0  0  0
  153.9382  142.5816  159.7538 H   0  0  0  0  0  0  0  0  0  0  0  0
  151.7034  144.0230  161.2506 H   0  0  0  0  0  0  0  0  0  0  0  0
  153.2319  144.7175  160.7721 H   0  0  0  0  0  0  0  0  0  0  0  0
  151.2806  145.3125  159.2934 H   0  0  0  0  0  0  0  0  0  0  0  0
  153.4909  143.8427  157.7877 H   0  0  0  0  0  0  0  0  0  0  0  0
  153.5718  145.4977  158.3831 H   0  0  0  0  0  0  0  0  0  0  0  0
  152.4124  145.0673  157.1338 H   0  0  0  0  0  0  0  0  0  0  0  0
  150.4173  143.6175  157.7120 H   0  0  0  0  0  0  0  0  0  0  0  0
  150.0060  143.2721  159.3683 H   0  0  0  0  0  0  0  0  0  0  0  0
  152.2584  142.0484  157.9618 H   0  0  0  0  0  0  0  0  0  0  0  0
  1  2  1  0  0  0  0
  1 21  1  0  0  0  0
  1 22  1  0  0  0  0
  1 23  1  0  0  0  0
  2 20  1  0  0  0  0
  2  3  2  0  0  0  0
  3  4  1  0  0  0  0
  3 24  1  0  0  0  0
  4  5  1  0  0  0  0
  4 19  2  0  0  0  0
  5  6  1  0  0  0  0
  6  7  2  0  0  0  0
  6  8  1  0  0  0  0
  8  9  1  0  0  0  0
  8 25  1  0  0  0  0
  9 10  1  0  0  0  0
  9 26  1  0  0  0  0
  9 27  1  0  0  0  0
 10 11  1  0  0  0  0
 10 12  1  0  0  0  0
 10 28  1  0  0  0  0
 11 29  1  0  0  0  0
 11 30  1  0  0  0  0
 11 31  1  0  0  0  0
 12 18  1  0  0  0  0
 12 13  1  0  0  0  0
 12 44  1  0  0  0  0
 13 14  1  0  0  0  0
 13 32  1  0  0  0  0
 13 33  1  0  0  0  0
 14 15  1  0  0  0  0
 14 34  1  0  0  0  0
 14 35  1  0  0  0  0
 15 16  1  0  0  0  0
 15 36  1  0  0  0  0
 15 37  1  0  0  0  0
 16 17  1  0  0  0  0
 16 18  1  0  0  0  0
 16 38  1  0  0  0  0
 17 39  1  0  0  0  0
 17 40  1  0  0  0  0
 17 41  1  0  0  0  0
 18 42  1  0  0  0  0
 18 43  1  0  0  0  0
 19 20  1  0  0  0  0
M  CHG  1   5  -1
M  CHG  1  12   1
M  END
> <s_m_source_file>
AV-unprocessed.smi

> <i_m_source_file_index>
2083

> <i_lp_mmshare_version>
43012

> <i_f3d_flags>
0

> <s_epik_input>
W0NIM11jMVtjSF1jKG5vMSlbTkhdQyg9TylbTkhdW0NIMl1bQ0BIXShbQ0gzXSlOMltDSDJdW0NIMl1bQ0gyXVtDQEBIXShbQ0gzXSlbQ0gyXTI=

> <s_epik_cmdline>
J2VwaWtfcHl0aG9uJywgJy1waCcsICc3LjAnLCAnLXRuJywgJzgnLCAnLW1hJywgJzIwMCcsICctbWV0YWxfYmluZGluZycsICctaW1hZScsICc8aW5maWxlLm1hZT4nLCAnLW9tYWUnLCAnPG91dGZpbGUubWFlPic=

> <r_epik_Ionization_Penalty>
6.22434

> <r_epik_Ionization_Penalty_Charging>
6.22425

> <r_epik_Ionization_Penalty_Neutral>
9.62407e-05

> <r_epik_State_Penalty>
6.22423

> <r_epik_Charging_Adjusted_Penalty>
12.4485

> <i_epik_Tot_Q>
0

> <i_epik_Tot_abs_Q>
2

> <r_epik_Metal_State_Penalty>
2.16764

> <b_epik_Metal_Only>
1

> <s_lp_Force_Field>
OPLS_2005

> <r_lp_Energy>
12.2094

> <b_lp_Chiralities_Consistent>
1

> <s_lp_Variant>
AV-unprocessed.smi:2083-11

> <Gold.Version>
5.8.1

> <Gold.Id.Protein>
6NUR|6NUR_protein|mol2

> <Gold.PLP.Fitness>
47.5771

> <Gold.PLP.PLP>
-42.8395

> <Gold.PLP.part.hbond>
-3.0000

> <Gold.PLP.part.metal>
0.0000

> <Gold.PLP.part.buried>
-6.8544

> <Gold.PLP.part.nonpolar>
-33.4609

> <Gold.PLP.part.repulsive>
0.2088

> <Gold.PLP.ligand.clash>
0.0000

> <Gold.PLP.ligand.torsion>
1.8123

> <Gold.PLP.Chemscore.Hbond>
2.7440

> <Gold.PLP.Chemscore.CHOScore>
0.0000

> <Gold.PLP.Chemscore.Metal>
0.0000

> <Gold.Chemscore.Hbonds>
donor molecule, donor type, donor heavy atom, donor atom, acceptor molecule, acceptor atom, score
      P1  H  6896  6909       L1     7  0.89
      P1  H  6931  6943       L1    19  0.71
      P1  H  6934  6947       L1    19  0.99

> <Gold.PLP.Chemscore.Internal.Correction>
0.1302

> <Gold.Rescore>
     Score         DG    S(hbond)    S(metal)    S(lipo)     H(rot)  DE(clash)    DE(int)     intcor
     19.91     -21.56       2.32        0.00     104.60       1.52       0.01       1.64       ----

> <Gold.Chemscore.Fitness>
19.9141

> <Gold.Chemscore.DG>
-21.5637

> <Gold.Chemscore.ZeroCoef>
-5.4800

> <Gold.Chemscore.Hbond>
2.3158

> <Gold.Chemscore.Metal>
0.0000

> <Gold.Chemscore.Lipo>
104.5955

> <Gold.Chemscore.Internal_Hbond>
0.0000

> <Gold.Chemscore.DEClash>
0.0069

> <Gold.Chemscore.DEInternal>
1.6427

> <Gold.Chemscore.Rot>
1.5190

> <Gold.Chemscore.Internal.Correction>
   9.000000E+99

> <Gold.Chemscore.Hbonds>
donor molecule, donor type, donor heavy atom, donor atom, acceptor molecule, acceptor atom, score
      P1  H  6896  6909       L1     7  0.85
      P1  H  6931  6943       L1    19  0.29
      P1  H  6934  6947       L1    19  0.82

> <Gold.Chemscore.Hbond.Weighted>
-7.7346

> <Gold.Chemscore.Metal.Weighted>
-0.0000

> <Gold.Chemscore.Lipo.Weighted>
-12.2377

> <Gold.Chemscore.Internal_Hbond.Weighted>
0.0000

> <Gold.Chemscore.DEClash.Weighted>
0.0069

> <Gold.Chemscore.DEInternal.Weighted>
1.6427

> <Gold.Chemscore.Rot.Weighted>
3.8886

> <Gold.Chemscore.Internal.Correction.Weighted>
   9.000000E+99

> <Gold.Protein.RotatedTorsions>
[ 6907 6896 6895 6894 ] final   98.97 input  -60.11 | X-H torsion
[ 7974 7965 7964 7962 ] final -154.25 input  175.53 | X-H torsion
[ 8008 7997 7996 7995 ] final  -69.85 input   59.86 | X-H torsion
[ 10167 10162 10161 10158 ] final  -68.48 input  -65.29 | X-H torsion
[ 10718 10713 10712 10709 ] final  -16.08 input   66.30 | X-H torsion
[ 10763 10752 10751 10750 ] final  106.35 input  -60.55 | X-H torsion
[ 11005 11000 10999 10996 ] final   47.98 input  -57.11 | X-H torsion

> <Gold.Protein.ActiveResidues>
 VAL166  LYS551  ARG553  GLY616  TRP617  ASP618  TYR619  PRO620  LYS621  CYS622 
 ASP623  PHE694  ASN695  SER759  ASP760  ASP761  ALA762  ILE779  LEU786  VAL792 
 PHE793  MET794  SER795  GLU796  ALA797  LYS798  CYS799  TRP800  GLU811  SER814 

> <Gold.Protein.RotatedAtoms>
  152.5400  134.0500  159.8105 H   0  0  0  0  0  0  0  0  0  0  0  0  # atno 6907 bound_to 6896
  151.0643  133.5510  159.2639 H   0  0  0  0  0  0  0  0  0  0  0  0  # atno 6908 bound_to 6896
  151.2397  135.0592  159.9074 H   0  0  0  0  0  0  0  0  0  0  0  0  # atno 6909 bound_to 6896
  144.7699  140.4414  143.5915 H   0  0  0  0  0  0  0  0  0  0  0  0  # atno 7974 bound_to 7965
  154.4969  140.0845  156.7715 H   0  0  0  0  0  0  0  0  0  0  0  0  # atno 8008 bound_to 7997
  155.4096  140.3441  155.4244 H   0  0  0  0  0  0  0  0  0  0  0  0  # atno 8009 bound_to 7997
  156.1405  140.1528  156.8916 H   0  0  0  0  0  0  0  0  0  0  0  0  # atno 8010 bound_to 7997
  140.5504  143.2312  151.6922 H   0  0  0  0  0  0  0  0  0  0  0  0  # atno 10167 bound_to 10162
  156.5926  130.4803  149.6273 H   0  0  0  0  0  0  0  0  0  0  0  0  # atno 10718 bound_to 10713
  153.3918  135.3880  155.1928 H   0  0  0  0  0  0  0  0  0  0  0  0  # atno 10763 bound_to 10752
  154.8720  135.3750  154.4728 H   0  0  0  0  0  0  0  0  0  0  0  0  # atno 10764 bound_to 10752
  153.5215  135.7087  153.5790 H   0  0  0  0  0  0  0  0  0  0  0  0  # atno 10765 bound_to 10752
  140.1231  134.4803  155.8581 H   0  0  0  0  0  0  0  0  0  0  0  0  # atno 11005 bound_to 11000
  145.6356  139.1542  143.2944 LP  0  0  0  0  0  0  0  0  0  0  0  0  # atno 17320 bound_to 7965
  146.1837  140.6456  142.9177 LP  0  0  0  0  0  0  0  0  0  0  0  0  # atno 17321 bound_to 7965
  139.5025  144.3827  152.0359 LP  0  0  0  0  0  0  0  0  0  0  0  0  # atno 17342 bound_to 10162
  140.2944  144.3718  150.6079 LP  0  0  0  0  0  0  0  0  0  0  0  0  # atno 17343 bound_to 10162
  156.2536  130.6922  151.1668 LP  0  0  0  0  0  0  0  0  0  0  0  0  # atno 17370 bound_to 10713
  157.7300  131.0620  150.5749 LP  0  0  0  0  0  0  0  0  0  0  0  0  # atno 17371 bound_to 10713
  141.2156  133.6768  156.6927 LP  0  0  0  0  0  0  0  0  0  0  0  0  # atno 17394 bound_to 11000
  140.2939  134.8218  157.4040 LP  0  0  0  0  0  0  0  0  0  0  0  0  # atno 17395 bound_to 11000

$$$$
