AV-unprocessed.smi:1864|AV-procd|sdf|7552|dock7
  -GOLD-   22720 9263D 1   1.00000     0.00000
 Structure written by MMmdl.
 34 35  0  0  0  0  0  0  0  0  1 V2000
  143.8478  132.8229  150.3226 C   0  0  0  0  0  0  0  0  0  0  0  0
  145.0532  133.2694  151.0764 C   0  0  0  0  0  0  0  0  0  0  0  0
  145.2170  134.5424  151.4143 N   0  0  0  0  0  0  0  0  0  0  0  0
  146.4404  134.5398  152.0999 O   0  0  0  0  0  0  0  0  0  0  0  0
  146.8756  133.2571  152.0747 C   0  0  0  0  0  0  0  0  0  0  0  0
  148.1476  132.9129  152.7747 C   0  0  0  0  0  0  0  0  0  0  0  0
  148.1743  133.4248  154.2235 C   0  0  0  0  0  0  0  0  0  0  0  0
  148.7211  134.7741  154.3093 N   0  0  0  0  0  0  0  0  0  0  0  0
  149.3430  135.2912  155.3846 C   0  0  0  0  0  0  0  0  0  0  0  0
  149.5085  134.6601  156.4290 O   0  0  0  0  0  0  0  0  0  0  0  0
  149.8308  136.6898  155.2466 C   0  0  0  0  0  0  0  0  0  0  0  0
  151.0905  136.9563  155.3989 N   0  0  0  0  0  0  0  0  0  0  0  0
  151.5892  138.2367  155.2689 N   0  0  0  0  0  0  0  0  0  0  0  0
  153.0466  138.3235  155.2006 C   0  0  0  0  0  0  0  0  0  0  0  0
  150.8302  139.3606  155.2375 C   0  0  0  0  0  0  0  0  0  0  0  0
  151.2917  140.4947  155.1110 O   0  0  0  0  0  0  0  0  0  0  0  0
  149.3200  139.1687  155.4035 C   0  0  0  0  0  0  0  0  0  0  0  0
  148.8480  137.7903  154.8990 C   0  0  0  0  0  0  0  0  0  0  0  0
  146.0419  132.4178  151.4650 N   0  0  0  0  0  0  0  0  0  0  0  0
  143.7911  133.3361  149.3624 H   0  0  0  0  0  0  0  0  0  0  0  0
  142.9437  133.0451  150.8901 H   0  0  0  0  0  0  0  0  0  0  0  0
  143.8835  131.7488  150.1378 H   0  0  0  0  0  0  0  0  0  0  0  0
  148.2728  131.8295  152.7565 H   0  0  0  0  0  0  0  0  0  0  0  0
  148.9781  133.3332  152.2062 H   0  0  0  0  0  0  0  0  0  0  0  0
  147.1732  133.3984  154.6575 H   0  0  0  0  0  0  0  0  0  0  0  0
  148.7953  132.7704  154.8360 H   0  0  0  0  0  0  0  0  0  0  0  0
  148.6269  135.3593  153.4914 H   0  0  0  0  0  0  0  0  0  0  0  0
  153.3602  138.8033  154.2722 H   0  0  0  0  0  0  0  0  0  0  0  0
  153.5178  137.3396  155.2377 H   0  0  0  0  0  0  0  0  0  0  0  0
  153.4367  138.9065  156.0362 H   0  0  0  0  0  0  0  0  0  0  0  0
  149.0926  139.2687  156.4654 H   0  0  0  0  0  0  0  0  0  0  0  0
  148.7810  139.9658  154.8900 H   0  0  0  0  0  0  0  0  0  0  0  0
  148.7080  137.8179  153.8178 H   0  0  0  0  0  0  0  0  0  0  0  0
  147.8682  137.5823  155.3308 H   0  0  0  0  0  0  0  0  0  0  0  0
  1  2  1  0  0  0  0
  1 20  1  0  0  0  0
  1 21  1  0  0  0  0
  1 22  1  0  0  0  0
  2 19  1  0  0  0  0
  2  3  2  0  0  0  0
  3  4  1  0  0  0  0
  4  5  1  0  0  0  0
  5  6  1  0  0  0  0
  5 19  2  0  0  0  0
  6  7  1  0  0  0  0
  6 23  1  0  0  0  0
  6 24  1  0  0  0  0
  7  8  1  0  0  0  0
  7 25  1  0  0  0  0
  7 26  1  0  0  0  0
  8  9  1  0  0  0  0
  8 27  1  0  0  0  0
  9 10  2  0  0  0  0
  9 11  1  0  0  0  0
 11 18  1  0  0  0  0
 11 12  2  0  0  0  0
 12 13  1  0  0  0  0
 13 14  1  0  0  0  0
 13 15  1  0  0  0  0
 14 28  1  0  0  0  0
 14 29  1  0  0  0  0
 14 30  1  0  0  0  0
 15 16  2  0  0  0  0
 15 17  1  0  0  0  0
 17 18  1  0  0  0  0
 17 31  1  0  0  0  0
 17 32  1  0  0  0  0
 18 33  1  0  0  0  0
 18 34  1  0  0  0  0
M  END
> <s_m_source_file>
AV-unprocessed.smi

> <i_m_source_file_index>
1864

> <i_lp_mmshare_version>
43012

> <i_f3d_flags>
0

> <s_epik_input>
W0NIM11jMW5vYyhuMSlbQ0gyXVtDSDJdW05IXUMoPU8pQzI9Tk4oW0NIM10pQyg9TylbQ0gyXVtDSDJdMg==

> <s_epik_cmdline>
J2VwaWtfcHl0aG9uJywgJy1waCcsICc3LjAnLCAnLXRuJywgJzgnLCAnLW1hJywgJzIwMCcsICctbWV0YWxfYmluZGluZycsICctaW1hZScsICc8aW5maWxlLm1hZT4nLCAnLW9tYWUnLCAnPG91dGZpbGUubWFlPic=

> <r_lp_tautomer_probability>
1

> <r_epik_Ionization_Penalty>
0.00011851

> <r_epik_Ionization_Penalty_Charging>
0

> <r_epik_Ionization_Penalty_Neutral>
0.00011851

> <r_epik_State_Penalty>
-0

> <r_epik_Charging_Adjusted_Penalty>
0

> <i_epik_Tot_Q>
0

> <i_epik_Tot_abs_Q>
0

> <r_epik_Metal_State_Penalty>
0.091363

> <b_epik_Metal_Only>
0

> <s_epik_Chemistry_Notes>
This compound has an imine and may undergo hydrolysis.

> <s_lp_Force_Field>
OPLS_2005

> <r_lp_Energy>
12.468

> <b_lp_Chiralities_Consistent>
1

> <s_lp_Variant>
AV-unprocessed.smi:1864-1

> <Gold.Version>
5.8.1

> <Gold.Id.Protein>
6NUR|6NUR_protein|mol2

> <Gold.PLP.Fitness>
35.6076

> <Gold.PLP.PLP>
-29.5927

> <Gold.PLP.part.hbond>
-3.0000

> <Gold.PLP.part.metal>
0.0000

> <Gold.PLP.part.buried>
-3.4007

> <Gold.PLP.part.nonpolar>
-24.7595

> <Gold.PLP.part.repulsive>
0.7391

> <Gold.PLP.ligand.clash>
0.0000

> <Gold.PLP.ligand.torsion>
1.4992

> <Gold.PLP.Chemscore.Hbond>
3.0000

> <Gold.PLP.Chemscore.CHOScore>
0.0000

> <Gold.PLP.Chemscore.Metal>
0.0000

> <Gold.Chemscore.Hbonds>
donor molecule, donor type, donor heavy atom, donor atom, acceptor molecule, acceptor atom, score
      L1  H     8    27       P1  7948  1.00
      P1  H  7989  7998       L1    16  0.94

> <Gold.PLP.Chemscore.Internal.Correction>
0.0135

> <Gold.Rescore>
     Score         DG    S(hbond)    S(metal)    S(lipo)     H(rot)  DE(clash)    DE(int)     intcor
     11.09     -12.77       2.06        0.00      42.87       1.80       0.43       1.25       ----

> <Gold.Chemscore.Fitness>
11.0904

> <Gold.Chemscore.DG>
-12.7721

> <Gold.Chemscore.ZeroCoef>
-5.4800

> <Gold.Chemscore.Hbond>
2.0638

> <Gold.Chemscore.Metal>
0.0000

> <Gold.Chemscore.Lipo>
42.8697

> <Gold.Chemscore.Internal_Hbond>
0.0000

> <Gold.Chemscore.DEClash>
0.4317

> <Gold.Chemscore.DEInternal>
1.2499

> <Gold.Chemscore.Rot>
1.8034

> <Gold.Chemscore.Internal.Correction>
   9.000000E+99

> <Gold.Chemscore.Hbonds>
donor molecule, donor type, donor heavy atom, donor atom, acceptor molecule, acceptor atom, score
      L1  H     8    27       P1  7948  0.92
      P1  H  7989  7998       L1    16  0.78
      P1  H 10752 10765       L1    12  0.03

> <Gold.Chemscore.Hbond.Weighted>
-6.8931

> <Gold.Chemscore.Metal.Weighted>
-0.0000

> <Gold.Chemscore.Lipo.Weighted>
-5.0157

> <Gold.Chemscore.Internal_Hbond.Weighted>
0.0000

> <Gold.Chemscore.DEClash.Weighted>
0.4317

> <Gold.Chemscore.DEInternal.Weighted>
1.2499

> <Gold.Chemscore.Rot.Weighted>
4.6167

> <Gold.Chemscore.Internal.Correction.Weighted>
   9.000000E+99

> <Gold.Protein.RotatedTorsions>
[ 6907 6896 6895 6894 ] final -177.93 input  -60.11 | X-H torsion
[ 7974 7965 7964 7962 ] final   76.06 input  175.53 | X-H torsion
[ 8008 7997 7996 7995 ] final  -25.99 input   59.86 | X-H torsion
[ 10167 10162 10161 10158 ] final  148.77 input  -65.29 | X-H torsion
[ 10718 10713 10712 10709 ] final -177.76 input   66.30 | X-H torsion
[ 10763 10752 10751 10750 ] final -167.84 input  -60.55 | X-H torsion
[ 11005 11000 10999 10996 ] final  -34.39 input  -57.11 | X-H torsion

> <Gold.Protein.ActiveResidues>
 VAL166  LYS551  ARG553  GLY616  TRP617  ASP618  TYR619  PRO620  LYS621  CYS622 
 ASP623  PHE694  ASN695  SER759  ASP760  ASP761  ALA762  ILE779  LEU786  VAL792 
 PHE793  MET794  SER795  GLU796  ALA797  LYS798  CYS799  TRP800  GLU811  SER814 

> <Gold.Protein.RotatedAtoms>
  151.6290  133.3333  159.3104 H   0  0  0  0  0  0  0  0  0  0  0  0  # atno 6907 bound_to 6896
  150.8066  134.7199  159.6661 H   0  0  0  0  0  0  0  0  0  0  0  0  # atno 6908 bound_to 6896
  152.4162  134.6042  160.0060 H   0  0  0  0  0  0  0  0  0  0  0  0  # atno 6909 bound_to 6896
  145.7076  139.2603  143.1669 H   0  0  0  0  0  0  0  0  0  0  0  0  # atno 7974 bound_to 7965
  154.4447  140.1911  156.0706 H   0  0  0  0  0  0  0  0  0  0  0  0  # atno 8008 bound_to 7997
  156.0514  140.3308  155.7329 H   0  0  0  0  0  0  0  0  0  0  0  0  # atno 8009 bound_to 7997
  155.5551  140.0598  157.2832 H   0  0  0  0  0  0  0  0  0  0  0  0  # atno 8010 bound_to 7997
  139.4870  144.5654  151.7155 H   0  0  0  0  0  0  0  0  0  0  0  0  # atno 10167 bound_to 10162
  156.8342  130.9664  151.3104 H   0  0  0  0  0  0  0  0  0  0  0  0  # atno 10718 bound_to 10713
  154.6690  135.2936  154.9767 H   0  0  0  0  0  0  0  0  0  0  0  0  # atno 10763 bound_to 10752
  154.0800  135.6606  153.4840 H   0  0  0  0  0  0  0  0  0  0  0  0  # atno 10764 bound_to 10752
  153.0475  135.5195  154.7677 H   0  0  0  0  0  0  0  0  0  0  0  0  # atno 10765 bound_to 10752
  140.9712  133.7108  156.1527 H   0  0  0  0  0  0  0  0  0  0  0  0  # atno 11005 bound_to 11000
  146.0741  140.7836  142.9673 LP  0  0  0  0  0  0  0  0  0  0  0  0  # atno 17320 bound_to 7965
  144.6951  140.3388  143.7203 LP  0  0  0  0  0  0  0  0  0  0  0  0  # atno 17321 bound_to 7965
  140.5231  144.0848  150.6029 LP  0  0  0  0  0  0  0  0  0  0  0  0  # atno 17342 bound_to 10162
  140.3813  143.2801  152.0167 LP  0  0  0  0  0  0  0  0  0  0  0  0  # atno 17343 bound_to 10162
  157.6390  130.8790  149.9413 LP  0  0  0  0  0  0  0  0  0  0  0  0  # atno 17370 bound_to 10713
  156.0917  130.3663  150.0383 LP  0  0  0  0  0  0  0  0  0  0  0  0  # atno 17371 bound_to 10713
  140.7326  134.4238  157.5564 LP  0  0  0  0  0  0  0  0  0  0  0  0  # atno 17394 bound_to 11000
  139.8913  134.8783  156.2326 LP  0  0  0  0  0  0  0  0  0  0  0  0  # atno 17395 bound_to 11000

$$$$
