AV-unprocessed.smi:1032|AV-procd|sdf|4485|dock2
  -GOLD-   22720 2463D 1   1.00000     0.00000
 Structure written by MMmdl.
 46 47  0  0  0  0  0  0  0  0  2 V2000
  150.3998  139.8977  157.5922 C   0  0  0  0  0  0  0  0  0  0  0  0
  150.2150  141.3968  157.2989 C   0  0  2  0  0  0  0  0  0  0  0  0
  148.7739  141.8801  157.5445 C   0  0  0  0  0  0  0  0  0  0  0  0
  147.8051  141.4117  156.4437 C   0  0  0  0  0  0  0  0  0  0  0  0
  148.2773  141.8312  155.0977 N   0  3  2  0  0  0  0  0  0  0  0  0
  147.3123  141.5179  154.0123 C   0  0  0  0  0  0  0  0  0  0  0  0
  147.0826  140.0020  153.8441 C   0  0  1  0  0  0  0  0  0  0  0  0
  146.0292  139.6460  154.7180 O   0  0  0  0  0  0  0  0  0  0  0  0
  146.6608  139.6508  152.4025 C   0  0  0  0  0  0  0  0  0  0  0  0
  146.9031  138.2465  152.0882 N   0  0  0  0  0  0  0  0  0  0  0  0
  145.9614  137.2931  152.0462 C   0  0  0  0  0  0  0  0  0  0  0  0
  144.7750  137.5042  152.2965 O   0  0  0  0  0  0  0  0  0  0  0  0
  146.4907  136.0999  151.7248 N   0  0  0  0  0  0  0  0  0  0  0  0
  145.8293  134.8553  151.5390 C   0  0  0  0  0  0  0  0  0  0  0  0
  146.6284  133.7081  151.3538 C   0  0  0  0  0  0  0  0  0  0  0  0
  145.9960  132.4659  151.1463 C   0  0  0  0  0  0  0  0  0  0  0  0
  144.6556  132.3137  151.1056 N   0  0  0  0  0  0  0  0  0  0  0  0
  143.8923  133.4148  151.2695 C   0  0  0  0  0  0  0  0  0  0  0  0
  144.4227  134.7027  151.4841 C   0  0  0  0  0  0  0  0  0  0  0  0
  149.6394  141.3134  154.8098 C   0  0  0  0  0  0  0  0  0  0  0  0
  150.6489  141.7820  155.8731 C   0  0  0  0  0  0  0  0  0  0  0  0
  149.7899  139.2713  156.9417 H   0  0  0  0  0  0  0  0  0  0  0  0
  150.1278  139.6657  158.6222 H   0  0  0  0  0  0  0  0  0  0  0  0
  151.4397  139.5996  157.4556 H   0  0  0  0  0  0  0  0  0  0  0  0
  150.8642  141.9286  157.9960 H   0  0  0  0  0  0  0  0  0  0  0  0
  148.4234  141.5430  158.5208 H   0  0  0  0  0  0  0  0  0  0  0  0
  148.7644  142.9703  157.5806 H   0  0  0  0  0  0  0  0  0  0  0  0
  147.6937  140.3270  156.4717 H   0  0  0  0  0  0  0  0  0  0  0  0
  146.8190  141.8291  156.6445 H   0  0  0  0  0  0  0  0  0  0  0  0
  146.3505  141.9896  154.2220 H   0  0  0  0  0  0  0  0  0  0  0  0
  147.6670  141.9610  153.0806 H   0  0  0  0  0  0  0  0  0  0  0  0
  147.9813  139.4451  154.1101 H   0  0  0  0  0  0  0  0  0  0  0  0
  146.2075  140.0158  155.5704 H   0  0  0  0  0  0  0  0  0  0  0  0
  145.6255  139.9346  152.2030 H   0  0  0  0  0  0  0  0  0  0  0  0
  147.2674  140.2208  151.6982 H   0  0  0  0  0  0  0  0  0  0  0  0
  147.8545  137.9848  151.8742 H   0  0  0  0  0  0  0  0  0  0  0  0
  147.4958  136.0695  151.6372 H   0  0  0  0  0  0  0  0  0  0  0  0
  147.7067  133.7720  151.3735 H   0  0  0  0  0  0  0  0  0  0  0  0
  146.5836  131.5705  151.0071 H   0  0  0  0  0  0  0  0  0  0  0  0
  142.8235  133.2669  151.2214 H   0  0  0  0  0  0  0  0  0  0  0  0
  143.7468  135.5375  151.5866 H   0  0  0  0  0  0  0  0  0  0  0  0
  149.6145  140.2243  154.7544 H   0  0  0  0  0  0  0  0  0  0  0  0
  149.9678  141.6697  153.8327 H   0  0  0  0  0  0  0  0  0  0  0  0
  150.7475  142.8668  155.8111 H   0  0  0  0  0  0  0  0  0  0  0  0
  151.6379  141.3770  155.6561 H   0  0  0  0  0  0  0  0  0  0  0  0
  148.3605  142.8383  155.1131 H   0  0  0  0  0  0  0  0  0  0  0  0
  1  2  1  0  0  0  0
  1 22  1  0  0  0  0
  1 23  1  0  0  0  0
  1 24  1  0  0  0  0
  2 21  1  0  0  0  0
  2  3  1  0  0  0  0
  2 25  1  0  0  0  0
  3  4  1  0  0  0  0
  3 26  1  0  0  0  0
  3 27  1  0  0  0  0
  4  5  1  0  0  0  0
  4 28  1  0  0  0  0
  4 29  1  0  0  0  0
  5  6  1  0  0  0  0
  5 20  1  0  0  0  0
  5 46  1  0  0  0  0
  6  7  1  0  0  0  0
  6 30  1  0  0  0  0
  6 31  1  0  0  0  0
  7  8  1  0  0  0  0
  7  9  1  0  0  0  0
  7 32  1  0  0  0  0
  8 33  1  0  0  0  0
  9 10  1  0  0  0  0
  9 34  1  0  0  0  0
  9 35  1  0  0  0  0
 10 11  1  0  0  0  0
 10 36  1  0  0  0  0
 11 12  2  0  0  0  0
 11 13  1  0  0  0  0
 13 14  1  0  0  0  0
 13 37  1  0  0  0  0
 14 19  1  0  0  0  0
 14 15  2  0  0  0  0
 15 16  1  0  0  0  0
 15 38  1  0  0  0  0
 16 17  2  0  0  0  0
 16 39  1  0  0  0  0
 17 18  1  0  0  0  0
 18 19  2  0  0  0  0
 18 40  1  0  0  0  0
 19 41  1  0  0  0  0
 20 21  1  0  0  0  0
 20 42  1  0  0  0  0
 20 43  1  0  0  0  0
 21 44  1  0  0  0  0
 21 45  1  0  0  0  0
M  CHG  1   5   1
M  END
> <s_m_source_file>
AV-unprocessed.smi

> <i_m_source_file_index>
1032

> <i_lp_mmshare_version>
43012

> <i_f3d_flags>
0

> <s_epik_input>
W0NIM11bQ0hdMVtDSDJdW0NIMl1OKFtDSDJdW0NIMl0xKVtDSDJdW0NASF0oW09IXSlbQ0gyXVtOSF1DKD1PKVtOSF1jMltjSF1bY0hdbltjSF1bY0hdMg==

> <s_epik_cmdline>
J2VwaWtfcHl0aG9uJywgJy1waCcsICc3LjAnLCAnLXRuJywgJzgnLCAnLW1hJywgJzIwMCcsICctbWV0YWxfYmluZGluZycsICctaW1hZScsICc8aW5maWxlLm1hZT4nLCAnLW9tYWUnLCAnPG91dGZpbGUubWFlPic=

> <r_epik_Ionization_Penalty>
0.11743

> <r_epik_Ionization_Penalty_Charging>
0.00147689

> <r_epik_Ionization_Penalty_Neutral>
0.115954

> <r_epik_State_Penalty>
0.105552

> <r_epik_Charging_Adjusted_Penalty>
0.107029

> <i_epik_Tot_Q>
1

> <i_epik_Tot_abs_Q>
1

> <r_epik_Metal_State_Penalty>
0.0881315

> <b_epik_Metal_Only>
0

> <s_lp_Force_Field>
OPLS_2005

> <r_lp_Energy>
26.5428

> <b_lp_Chiralities_Consistent>
1

> <s_lp_Variant>
AV-unprocessed.smi:1032-4

> <Gold.Version>
5.8.1

> <Gold.Id.Protein>
6NUR|6NUR_protein|mol2

> <Gold.PLP.Fitness>
47.6975

> <Gold.PLP.PLP>
-33.1159

> <Gold.PLP.part.hbond>
-2.9743

> <Gold.PLP.part.metal>
0.0000

> <Gold.PLP.part.buried>
-5.0520

> <Gold.PLP.part.nonpolar>
-29.1130

> <Gold.PLP.part.repulsive>
3.2261

> <Gold.PLP.ligand.clash>
0.0000

> <Gold.PLP.ligand.torsion>
0.6866

> <Gold.PLP.Chemscore.Hbond>
3.5480

> <Gold.PLP.Chemscore.CHOScore>
1.7177

> <Gold.PLP.Chemscore.Metal>
0.0000

> <Gold.Chemscore.Hbonds>
donor molecule, donor type, donor heavy atom, donor atom, acceptor molecule, acceptor atom, score
      L1  H     5    46       P1  8028  2.00
      L1  H    10    36       P1  7948  0.75
      L1  H    13    37       P1  7948  0.80
      L1  C    16    39       P1 10747  0.82
      L1  C    18    40       P1 10186  0.53

> <Gold.PLP.Chemscore.Internal.Correction>
0.1576

> <Gold.Rescore>
     Score         DG    S(hbond)    S(metal)    S(lipo)     H(rot)  DE(clash)    DE(int)     intcor
     15.85     -17.85       2.85        0.00      74.46       2.29       0.07       1.94       ----

> <Gold.Chemscore.Fitness>
15.8460

> <Gold.Chemscore.DG>
-17.8500

> <Gold.Chemscore.ZeroCoef>
-5.4800

> <Gold.Chemscore.Hbond>
2.8477

> <Gold.Chemscore.Metal>
0.0000

> <Gold.Chemscore.Lipo>
74.4635

> <Gold.Chemscore.Internal_Hbond>
0.0000

> <Gold.Chemscore.DEClash>
0.0653

> <Gold.Chemscore.DEInternal>
1.9386

> <Gold.Chemscore.Rot>
2.2865

> <Gold.Chemscore.Internal.Correction>
   9.000000E+99

> <Gold.Chemscore.Hbonds>
donor molecule, donor type, donor heavy atom, donor atom, acceptor molecule, acceptor atom, score
      L1  H     5    46       P1  8028  0.95
      L1  H    10    36       P1  7948  0.68
      L1  H    13    37       P1  7948  0.79

> <Gold.Chemscore.Hbond.Weighted>
-9.5113

> <Gold.Chemscore.Metal.Weighted>
-0.0000

> <Gold.Chemscore.Lipo.Weighted>
-8.7122

> <Gold.Chemscore.Internal_Hbond.Weighted>
0.0000

> <Gold.Chemscore.DEClash.Weighted>
0.0653

> <Gold.Chemscore.DEInternal.Weighted>
1.9386

> <Gold.Chemscore.Rot.Weighted>
5.8536

> <Gold.Chemscore.Internal.Correction.Weighted>
   9.000000E+99

> <Gold.Protein.RotatedTorsions>
[ 6907 6896 6895 6894 ] final -171.76 input  -60.11 | X-H torsion
[ 7974 7965 7964 7962 ] final -123.50 input  175.53 | X-H torsion
[ 8008 7997 7996 7995 ] final   56.76 input   59.86 | X-H torsion
[ 10167 10162 10161 10158 ] final -172.69 input  -65.29 | X-H torsion
[ 10718 10713 10712 10709 ] final -145.64 input   66.30 | X-H torsion
[ 10763 10752 10751 10750 ] final  -81.37 input  -60.55 | X-H torsion
[ 11005 11000 10999 10996 ] final   14.19 input  -57.11 | X-H torsion

> <Gold.Protein.ActiveResidues>
 VAL166  LYS551  ARG553  GLY616  TRP617  ASP618  TYR619  PRO620  LYS621  CYS622 
 ASP623  PHE694  ASN695  SER759  ASP760  ASP761  ALA762  ILE779  LEU786  VAL792 
 PHE793  MET794  SER795  GLU796  ALA797  LYS798  CYS799  TRP800  GLU811  SER814 

> <Gold.Protein.RotatedAtoms>
  151.5290  133.3452  159.2914 H   0  0  0  0  0  0  0  0  0  0  0  0  # atno 6907 bound_to 6896
  150.8605  134.7958  159.7090 H   0  0  0  0  0  0  0  0  0  0  0  0  # atno 6908 bound_to 6896
  152.4626  134.5158  159.9819 H   0  0  0  0  0  0  0  0  0  0  0  0  # atno 6909 bound_to 6896
  145.0180  140.7964  143.4398 H   0  0  0  0  0  0  0  0  0  0  0  0  # atno 7974 bound_to 7965
  155.5228  140.3480  155.4410 H   0  0  0  0  0  0  0  0  0  0  0  0  # atno 8008 bound_to 7997
  156.0773  140.1377  156.9783 H   0  0  0  0  0  0  0  0  0  0  0  0  # atno 8009 bound_to 7997
  154.4560  140.0953  156.6734 H   0  0  0  0  0  0  0  0  0  0  0  0  # atno 8010 bound_to 7997
  139.5730  144.1597  152.1411 H   0  0  0  0  0  0  0  0  0  0  0  0  # atno 10167 bound_to 10162
  156.3850  130.7856  151.2053 H   0  0  0  0  0  0  0  0  0  0  0  0  # atno 10718 bound_to 10713
  154.5627  135.5629  153.7022 H   0  0  0  0  0  0  0  0  0  0  0  0  # atno 10763 bound_to 10752
  153.0023  135.6278  154.2223 H   0  0  0  0  0  0  0  0  0  0  0  0  # atno 10764 bound_to 10752
  154.2161  135.2871  155.2921 H   0  0  0  0  0  0  0  0  0  0  0  0  # atno 10765 bound_to 10752
  140.4723  134.1019  155.7735 H   0  0  0  0  0  0  0  0  0  0  0  0  # atno 11005 bound_to 11000
  145.1933  139.2289  143.5231 LP  0  0  0  0  0  0  0  0  0  0  0  0  # atno 17320 bound_to 7965
  146.3481  140.1734  142.8589 LP  0  0  0  0  0  0  0  0  0  0  0  0  # atno 17321 bound_to 7965
  140.1133  144.5437  150.6910 LP  0  0  0  0  0  0  0  0  0  0  0  0  # atno 17342 bound_to 10162
  140.7014  143.2437  151.4853 LP  0  0  0  0  0  0  0  0  0  0  0  0  # atno 17343 bound_to 10162
  157.7495  131.0333  150.4264 LP  0  0  0  0  0  0  0  0  0  0  0  0  # atno 17370 bound_to 10713
  156.4515  130.4012  149.6633 LP  0  0  0  0  0  0  0  0  0  0  0  0  # atno 17371 bound_to 10713
  141.1571  133.8862  157.1948 LP  0  0  0  0  0  0  0  0  0  0  0  0  # atno 17394 bound_to 11000
  139.9878  135.0076  156.9903 LP  0  0  0  0  0  0  0  0  0  0  0  0  # atno 17395 bound_to 11000

$$$$
