AV-unprocessed.smi:609|AV-procd|sdf|3048|dock10
  -GOLD-   2262023573D 1   1.00000     0.00000
 Structure written by MMmdl.
 42 44  0  0  0  0  0  0  0  0  1 V2000
  154.1162  142.5566  163.4172 C   0  0  0  0  0  0  0  0  0  0  0  0
  153.4398  142.6896  162.0640 C   0  0  0  0  0  0  0  0  0  0  0  0
  152.4849  143.7131  161.8703 C   0  0  0  0  0  0  0  0  0  0  0  0
  151.8336  143.8703  160.6273 C   0  0  0  0  0  0  0  0  0  0  0  0
  150.8819  144.7901  160.2211 N   0  0  0  0  0  0  0  0  0  0  0  0
  150.6732  144.4210  158.9608 C   0  0  0  0  0  0  0  0  0  0  0  0
  151.3784  143.3698  158.5015 N   0  0  0  0  0  0  0  0  0  0  0  0
  151.3175  142.7946  157.1696 C   0  0  0  0  0  0  0  0  0  0  0  0
  150.0370  141.9699  156.9443 C   0  0  1  0  0  0  0  0  0  0  0  0
  149.5469  142.2005  155.6372 O   0  0  0  0  0  0  0  0  0  0  0  0
  150.2865  140.4616  157.1337 C   0  0  0  0  0  0  0  0  0  0  0  0
  148.7956  139.4527  156.8576 S   0  0  0  0  0  0  0  0  0  0  0  0
  149.5236  138.0059  156.1501 C   0  0  0  0  0  0  0  0  0  0  0  0
  149.3429  136.7649  156.5956 N   0  0  0  0  0  0  0  0  0  0  0  0
  150.1016  135.9637  155.7497 C   0  0  0  0  0  0  0  0  0  0  0  0
  150.7247  136.7533  154.8147 C   0  0  0  0  0  0  0  0  0  0  0  0
  150.3467  138.0613  155.0865 N   0  0  0  0  0  0  0  0  0  0  0  0
  150.7644  139.2407  154.3542 C   0  0  0  0  0  0  0  0  0  0  0  0
  152.1656  142.9675  159.5751 C   0  0  0  0  0  0  0  0  0  0  0  0
  153.1143  141.9455  159.7553 C   0  0  0  0  0  0  0  0  0  0  0  0
  153.7562  141.8029  161.0033 C   0  0  0  0  0  0  0  0  0  0  0  0
  154.7802  140.6970  161.1875 C   0  0  0  0  0  0  0  0  0  0  0  0
  153.7576  143.3110  164.1180 H   0  0  0  0  0  0  0  0  0  0  0  0
  155.1952  142.6773  163.3193 H   0  0  0  0  0  0  0  0  0  0  0  0
  153.9151  141.5765  163.8500 H   0  0  0  0  0  0  0  0  0  0  0  0
  152.2441  144.3889  162.6777 H   0  0  0  0  0  0  0  0  0  0  0  0
  149.9679  144.9456  158.3327 H   0  0  0  0  0  0  0  0  0  0  0  0
  151.3926  143.5980  156.4355 H   0  0  0  0  0  0  0  0  0  0  0  0
  152.1977  142.1651  157.0321 H   0  0  0  0  0  0  0  0  0  0  0  0
  149.2774  142.3098  157.6484 H   0  0  0  0  0  0  0  0  0  0  0  0
  149.2723  143.1027  155.5751 H   0  0  0  0  0  0  0  0  0  0  0  0
  151.0581  140.1243  156.4410 H   0  0  0  0  0  0  0  0  0  0  0  0
  150.6681  140.2590  158.1347 H   0  0  0  0  0  0  0  0  0  0  0  0
  150.1403  134.8921  155.8784 H   0  0  0  0  0  0  0  0  0  0  0  0
  151.3890  136.4997  154.0016 H   0  0  0  0  0  0  0  0  0  0  0  0
  151.4337  138.9616  153.5400 H   0  0  0  0  0  0  0  0  0  0  0  0
  151.2880  139.9240  155.0231 H   0  0  0  0  0  0  0  0  0  0  0  0
  149.8914  139.7440  153.9374 H   0  0  0  0  0  0  0  0  0  0  0  0
  153.3475  141.2790  158.9381 H   0  0  0  0  0  0  0  0  0  0  0  0
  154.9028  140.1121  160.2754 H   0  0  0  0  0  0  0  0  0  0  0  0
  154.4705  140.0172  161.9816 H   0  0  0  0  0  0  0  0  0  0  0  0
  155.7520  141.1162  161.4488 H   0  0  0  0  0  0  0  0  0  0  0  0
  1  2  1  0  0  0  0
  1 23  1  0  0  0  0
  1 24  1  0  0  0  0
  1 25  1  0  0  0  0
  2 21  1  0  0  0  0
  2  3  2  0  0  0  0
  3  4  1  0  0  0  0
  3 26  1  0  0  0  0
  4 19  2  0  0  0  0
  4  5  1  0  0  0  0
  5  6  2  0  0  0  0
  6  7  1  0  0  0  0
  6 27  1  0  0  0  0
  7  8  1  0  0  0  0
  7 19  1  0  0  0  0
  8  9  1  0  0  0  0
  8 28  1  0  0  0  0
  8 29  1  0  0  0  0
  9 10  1  0  0  0  0
  9 11  1  0  0  0  0
  9 30  1  0  0  0  0
 10 31  1  0  0  0  0
 11 12  1  0  0  0  0
 11 32  1  0  0  0  0
 11 33  1  0  0  0  0
 12 13  1  0  0  0  0
 13 17  1  0  0  0  0
 13 14  2  0  0  0  0
 14 15  1  0  0  0  0
 15 16  2  0  0  0  0
 15 34  1  0  0  0  0
 16 17  1  0  0  0  0
 16 35  1  0  0  0  0
 17 18  1  0  0  0  0
 18 36  1  0  0  0  0
 18 37  1  0  0  0  0
 18 38  1  0  0  0  0
 19 20  1  0  0  0  0
 20 21  2  0  0  0  0
 20 39  1  0  0  0  0
 21 22  1  0  0  0  0
 22 40  1  0  0  0  0
 22 41  1  0  0  0  0
 22 42  1  0  0  0  0
M  END
> <s_m_source_file>
AV-unprocessed.smi

> <i_m_source_file_index>
609

> <i_lp_mmshare_version>
43012

> <i_f3d_flags>
0

> <s_epik_input>
W0NIM11jKFtjSF0xKWMoW0NIM10pW2NIXWMoYzEyKW4oW2NIXW4yKVtDSDJdW0NASF0oW09IXSlbQ0gyXVNjM25bY0hdW2NIXW4zW0NIM10=

> <s_epik_cmdline>
J2VwaWtfcHl0aG9uJywgJy1waCcsICc3LjAnLCAnLXRuJywgJzgnLCAnLW1hJywgJzIwMCcsICctbWV0YWxfYmluZGluZycsICctaW1hZScsICc8aW5maWxlLm1hZT4nLCAnLW9tYWUnLCAnPG91dGZpbGUubWFlPic=

> <r_lp_tautomer_probability>
1

> <r_epik_Ionization_Penalty>
1.15618

> <r_epik_Ionization_Penalty_Charging>
1.04908

> <r_epik_Ionization_Penalty_Neutral>
0.107097

> <r_epik_State_Penalty>
1.19446

> <r_epik_Charging_Adjusted_Penalty>
2.24354

> <i_epik_Tot_Q>
0

> <i_epik_Tot_abs_Q>
0

> <r_epik_Metal_State_Penalty>
0.487262

> <b_epik_Metal_Only>
0

> <s_lp_Force_Field>
OPLS_2005

> <r_lp_Energy>
7.62781

> <b_lp_Chiralities_Consistent>
1

> <s_lp_Variant>
AV-unprocessed.smi:609-4

> <Gold.Version>
5.8.1

> <Gold.Id.Protein>
6NUR|6NUR_protein|mol2

> <Gold.PLP.Fitness>
55.0510

> <Gold.PLP.PLP>
-47.8472

> <Gold.PLP.part.hbond>
-1.0000

> <Gold.PLP.part.metal>
0.0000

> <Gold.PLP.part.buried>
-3.8435

> <Gold.PLP.part.nonpolar>
-41.6796

> <Gold.PLP.part.repulsive>
0.1659

> <Gold.PLP.ligand.clash>
0.0000

> <Gold.PLP.ligand.torsion>
0.9981

> <Gold.PLP.Chemscore.Hbond>
1.0000

> <Gold.PLP.Chemscore.CHOScore>
2.0553

> <Gold.PLP.Chemscore.Metal>
0.0000

> <Gold.Chemscore.Hbonds>
donor molecule, donor type, donor heavy atom, donor atom, acceptor molecule, acceptor atom, score
      L1  H    10    31       P1  8028  1.00
      L1  C     6    27       P1  8028  0.06
      L1  C     6    27       P1  8029  1.00
      L1  C    16    35       P1  7949  0.91

> <Gold.PLP.Chemscore.Internal.Correction>
0.0342

> <Gold.Rescore>
     Score         DG    S(hbond)    S(metal)    S(lipo)     H(rot)  DE(clash)    DE(int)     intcor
     16.10     -16.97       1.00        0.00     122.31       2.41       0.04       0.83       ----

> <Gold.Chemscore.Fitness>
16.0954

> <Gold.Chemscore.DG>
-16.9651

> <Gold.Chemscore.ZeroCoef>
-5.4800

> <Gold.Chemscore.Hbond>
0.9994

> <Gold.Chemscore.Metal>
0.0000

> <Gold.Chemscore.Lipo>
122.3099

> <Gold.Chemscore.Internal_Hbond>
0.0000

> <Gold.Chemscore.DEClash>
0.0370

> <Gold.Chemscore.DEInternal>
0.8327

> <Gold.Chemscore.Rot>
2.4074

> <Gold.Chemscore.Internal.Correction>
   9.000000E+99

> <Gold.Chemscore.Hbonds>
donor molecule, donor type, donor heavy atom, donor atom, acceptor molecule, acceptor atom, score
      L1  H    10    31       P1  8028  1.00

> <Gold.Chemscore.Hbond.Weighted>
-3.3379

> <Gold.Chemscore.Metal.Weighted>
-0.0000

> <Gold.Chemscore.Lipo.Weighted>
-14.3103

> <Gold.Chemscore.Internal_Hbond.Weighted>
0.0000

> <Gold.Chemscore.DEClash.Weighted>
0.0370

> <Gold.Chemscore.DEInternal.Weighted>
0.8327

> <Gold.Chemscore.Rot.Weighted>
6.1630

> <Gold.Chemscore.Internal.Correction.Weighted>
   9.000000E+99

> <Gold.Protein.RotatedTorsions>
[ 6907 6896 6895 6894 ] final -152.67 input  -60.11 | X-H torsion
[ 7974 7965 7964 7962 ] final  -24.77 input  175.53 | X-H torsion
[ 8008 7997 7996 7995 ] final  145.11 input   59.86 | X-H torsion
[ 10167 10162 10161 10158 ] final  -44.00 input  -65.29 | X-H torsion
[ 10718 10713 10712 10709 ] final   26.89 input   66.30 | X-H torsion
[ 10763 10752 10751 10750 ] final  118.80 input  -60.55 | X-H torsion
[ 11005 11000 10999 10996 ] final -179.04 input  -57.11 | X-H torsion

> <Gold.Protein.ActiveResidues>
 VAL166  LYS551  ARG553  GLY616  TRP617  ASP618  TYR619  PRO620  LYS621  CYS622 
 ASP623  PHE694  ASN695  SER759  ASP760  ASP761  ALA762  ILE779  LEU786  VAL792 
 PHE793  MET794  SER795  GLU796  ALA797  LYS798  CYS799  TRP800  GLU811  SER814 

> <Gold.Protein.RotatedAtoms>
  151.2311  133.4449  159.2603 H   0  0  0  0  0  0  0  0  0  0  0  0  # atno 6907 bound_to 6896
  151.0793  134.9848  159.8358 H   0  0  0  0  0  0  0  0  0  0  0  0  # atno 6908 bound_to 6896
  152.5422  134.2252  159.8856 H   0  0  0  0  0  0  0  0  0  0  0  0  # atno 6909 bound_to 6896
  146.1534  140.4796  142.8602 H   0  0  0  0  0  0  0  0  0  0  0  0  # atno 7974 bound_to 7965
  156.2891  140.2218  156.5162 H   0  0  0  0  0  0  0  0  0  0  0  0  # atno 8008 bound_to 7997
  154.7567  140.0476  157.0961 H   0  0  0  0  0  0  0  0  0  0  0  0  # atno 8009 bound_to 7997
  155.0041  140.3105  155.4858 H   0  0  0  0  0  0  0  0  0  0  0  0  # atno 8010 bound_to 7997
  140.6913  143.2953  151.3432 H   0  0  0  0  0  0  0  0  0  0  0  0  # atno 10167 bound_to 10162
  157.2128  130.6942  149.6236 H   0  0  0  0  0  0  0  0  0  0  0  0  # atno 10718 bound_to 10713
  153.5732  135.3498  155.2846 H   0  0  0  0  0  0  0  0  0  0  0  0  # atno 10763 bound_to 10752
  154.8679  135.4164  154.2703 H   0  0  0  0  0  0  0  0  0  0  0  0  # atno 10764 bound_to 10752
  153.3473  135.7053  153.6887 H   0  0  0  0  0  0  0  0  0  0  0  0  # atno 10765 bound_to 10752
  140.4230  134.6588  157.4674 H   0  0  0  0  0  0  0  0  0  0  0  0  # atno 11005 bound_to 11000
  144.7932  140.6072  143.6527 LP  0  0  0  0  0  0  0  0  0  0  0  0  # atno 17320 bound_to 7965
  145.4768  139.1498  143.3784 LP  0  0  0  0  0  0  0  0  0  0  0  0  # atno 17321 bound_to 7965
  139.6319  144.0703  152.2484 LP  0  0  0  0  0  0  0  0  0  0  0  0  # atno 17342 bound_to 10162
  140.0181  144.6173  150.7590 LP  0  0  0  0  0  0  0  0  0  0  0  0  # atno 17343 bound_to 10162
  155.9689  130.4545  150.5853 LP  0  0  0  0  0  0  0  0  0  0  0  0  # atno 17370 bound_to 10713
  157.3654  131.0757  151.1602 LP  0  0  0  0  0  0  0  0  0  0  0  0  # atno 17371 bound_to 10713
  140.0187  134.6580  155.9272 LP  0  0  0  0  0  0  0  0  0  0  0  0  # atno 17394 bound_to 11000
  141.1776  133.6542  156.4891 LP  0  0  0  0  0  0  0  0  0  0  0  0  # atno 17395 bound_to 11000

$$$$
