AV-unprocessed.smi:123|AV-procd|sdf|1143|dock2
  -GOLD-   2262018273D 1   1.00000     0.00000
 Structure written by MMmdl.
 43 45  0  0  0  0  0  0  0  0  1 V2000
  146.7775  141.0080  152.5995 C   0  0  0  0  0  0  0  0  0  0  0  0
  147.1447  139.8258  153.5151 C   0  0  2  0  0  0  0  0  0  0  0  0
  148.5822  139.7962  153.7897 N   0  0  0  0  0  0  0  0  0  0  0  0
  149.2019  139.1077  154.7633 C   0  0  0  0  0  0  0  0  0  0  0  0
  148.6066  138.4043  155.5809 O   0  0  0  0  0  0  0  0  0  0  0  0
  150.7304  139.2530  154.8128 C   0  0  0  0  0  0  0  0  0  0  0  0
  151.2183  139.8959  156.0529 N   0  0  0  0  0  0  0  0  0  0  0  0
  152.0785  139.1559  156.9027 C   0  0  0  0  0  0  0  0  0  0  0  0
  152.4239  138.0080  156.6183 O   0  0  0  0  0  0  0  0  0  0  0  0
  152.5101  139.8421  158.1151 C   0  0  0  0  0  0  0  0  0  0  0  0
  153.3387  139.2223  158.9725 F   0  0  0  0  0  0  0  0  0  0  0  0
  152.0904  141.0939  158.3897 C   0  0  0  0  0  0  0  0  0  0  0  0
  151.2372  141.7968  157.5608 N   0  0  0  0  0  0  0  0  0  0  0  0
  150.7971  143.1942  157.9275 C   0  0  2  0  0  0  0  0  0  0  0  0
  151.9471  144.1902  157.7273 C   0  0  0  0  0  0  0  0  0  0  0  0
  152.4009  144.4538  159.1485 C   0  0  0  0  0  0  0  0  0  0  0  0
  151.1016  144.2884  159.9262 C   0  0  0  0  0  0  0  0  0  0  0  0
  150.4429  143.2065  159.2797 O   0  0  0  0  0  0  0  0  0  0  0  0
  150.7842  141.2082  156.3597 C   0  0  0  0  0  0  0  0  0  0  0  0
  150.0340  141.8210  155.5973 O   0  0  0  0  0  0  0  0  0  0  0  0
  146.6226  138.5029  153.0346 C   0  0  0  0  0  0  0  0  0  0  0  0
  146.1806  138.0381  151.8253 C   0  0  0  0  0  0  0  0  0  0  0  0
  145.8130  136.6790  152.0244 C   0  0  0  0  0  0  0  0  0  0  0  0
  146.0503  136.4147  153.3428 C   0  0  0  0  0  0  0  0  0  0  0  0
  146.5406  137.5161  153.9731 O   0  0  0  0  0  0  0  0  0  0  0  0
  145.6958  141.1119  152.5114 H   0  0  0  0  0  0  0  0  0  0  0  0
  147.1783  140.8817  151.5932 H   0  0  0  0  0  0  0  0  0  0  0  0
  147.1650  141.9469  152.9964 H   0  0  0  0  0  0  0  0  0  0  0  0
  146.6766  140.0217  154.4803 H   0  0  0  0  0  0  0  0  0  0  0  0
  149.1618  140.3487  153.1749 H   0  0  0  0  0  0  0  0  0  0  0  0
  151.1829  138.2675  154.6892 H   0  0  0  0  0  0  0  0  0  0  0  0
  151.0491  139.8017  153.9255 H   0  0  0  0  0  0  0  0  0  0  0  0
  152.4397  141.5590  159.2993 H   0  0  0  0  0  0  0  0  0  0  0  0
  149.9157  143.4285  157.3298 H   0  0  0  0  0  0  0  0  0  0  0  0
  152.7309  143.7952  157.0793 H   0  0  0  0  0  0  0  0  0  0  0  0
  151.5436  145.0989  157.2794 H   0  0  0  0  0  0  0  0  0  0  0  0
  153.1267  143.7018  159.4603 H   0  0  0  0  0  0  0  0  0  0  0  0
  152.8523  145.4376  159.2777 H   0  0  0  0  0  0  0  0  0  0  0  0
  151.2645  144.0843  160.9846 H   0  0  0  0  0  0  0  0  0  0  0  0
  150.4863  145.1852  159.8399 H   0  0  0  0  0  0  0  0  0  0  0  0
  146.1325  138.6051  150.9076 H   0  0  0  0  0  0  0  0  0  0  0  0
  145.4240  135.9829  151.2961 H   0  0  0  0  0  0  0  0  0  0  0  0
  145.9316  135.5407  153.9659 H   0  0  0  0  0  0  0  0  0  0  0  0
  1  2  1  0  0  0  0
  1 26  1  0  0  0  0
  1 27  1  0  0  0  0
  1 28  1  0  0  0  0
  2  3  1  0  0  0  0
  2 21  1  0  0  0  0
  2 29  1  0  0  0  0
  3  4  1  0  0  0  0
  3 30  1  0  0  0  0
  4  5  2  0  0  0  0
  4  6  1  0  0  0  0
  6  7  1  0  0  0  0
  6 31  1  0  0  0  0
  6 32  1  0  0  0  0
  7 19  1  0  0  0  0
  7  8  1  0  0  0  0
  8  9  2  0  0  0  0
  8 10  1  0  0  0  0
 10 11  1  0  0  0  0
 10 12  2  0  0  0  0
 12 13  1  0  0  0  0
 12 33  1  0  0  0  0
 13 14  1  0  0  0  0
 13 19  1  0  0  0  0
 14 18  1  0  0  0  0
 14 15  1  0  0  0  0
 14 34  1  0  0  0  0
 15 16  1  0  0  0  0
 15 35  1  0  0  0  0
 15 36  1  0  0  0  0
 16 17  1  0  0  0  0
 16 37  1  0  0  0  0
 16 38  1  0  0  0  0
 17 18  1  0  0  0  0
 17 39  1  0  0  0  0
 17 40  1  0  0  0  0
 19 20  2  0  0  0  0
 21 25  1  0  0  0  0
 21 22  2  0  0  0  0
 22 23  1  0  0  0  0
 22 41  1  0  0  0  0
 23 24  2  0  0  0  0
 23 42  1  0  0  0  0
 24 25  1  0  0  0  0
 24 43  1  0  0  0  0
M  END
> <s_m_source_file>
AV-unprocessed.smi

> <i_m_source_file_index>
123

> <i_lp_mmshare_version>
43012

> <i_f3d_flags>
0

> <s_epik_input>
bzFbY0hdW2NIXVtjSF1jMVtDQEhdKFtDSDNdKVtOSF1DKD1PKVtDSDJdbjJjKD1PKWMoRilbY0hdbihjMj1PKVtDQEBIXTNbQ0gyXVtDSDJdW0NIMl1PMw==

> <s_epik_cmdline>
J2VwaWtfcHl0aG9uJywgJy1waCcsICc3LjAnLCAnLXRuJywgJzgnLCAnLW1hJywgJzIwMCcsICctbWV0YWxfYmluZGluZycsICctaW1hZScsICc8aW5maWxlLm1hZT4nLCAnLW9tYWUnLCAnPG91dGZpbGUubWFlPic=

> <r_lp_tautomer_probability>
1

> <r_epik_Ionization_Penalty>
2.31906e-08

> <r_epik_Ionization_Penalty_Charging>
3.85846e-09

> <r_epik_Ionization_Penalty_Neutral>
1.93321e-08

> <r_epik_State_Penalty>
-0

> <r_epik_Charging_Adjusted_Penalty>
3.85846e-09

> <i_epik_Tot_Q>
0

> <i_epik_Tot_abs_Q>
0

> <r_epik_Metal_State_Penalty>
-0

> <b_epik_Metal_Only>
0

> <s_epik_Chemistry_Notes>
This compound contains an acetal/aminal-like group ( X-CH(R)-Y where X, Y are N, S, or O) that may be acid/base labile, releasing an aldehyde.

> <s_lp_Force_Field>
OPLS_2005

> <r_lp_Energy>
21.3093

> <b_lp_Chiralities_Consistent>
1

> <s_lp_Variant>
AV-unprocessed.smi:123-1

> <Gold.Version>
5.8.1

> <Gold.Id.Protein>
6NUR|6NUR_protein|mol2

> <Gold.PLP.Fitness>
41.8294

> <Gold.PLP.PLP>
-41.8377

> <Gold.PLP.part.hbond>
-1.1839

> <Gold.PLP.part.metal>
0.0000

> <Gold.PLP.part.buried>
-1.0806

> <Gold.PLP.part.nonpolar>
-40.9020

> <Gold.PLP.part.repulsive>
0.7432

> <Gold.PLP.ligand.clash>
0.0000

> <Gold.PLP.ligand.torsion>
0.8946

> <Gold.PLP.Chemscore.Hbond>
0.5440

> <Gold.PLP.Chemscore.CHOScore>
0.0000

> <Gold.PLP.Chemscore.Metal>
0.0000

> <Gold.Chemscore.Hbonds>
donor molecule, donor type, donor heavy atom, donor atom, acceptor molecule, acceptor atom, score
      L1  H     3    30       P1  7957  0.51

> <Gold.PLP.Chemscore.Internal.Correction>
0.1490

> <Gold.Rescore>
     Score         DG    S(hbond)    S(metal)    S(lipo)     H(rot)  DE(clash)    DE(int)     intcor
      8.96     -13.22       0.78        0.00      92.83       2.23       0.90       3.35       ----

> <Gold.Chemscore.Fitness>
8.9611

> <Gold.Chemscore.DG>
-13.2199

> <Gold.Chemscore.ZeroCoef>
-5.4800

> <Gold.Chemscore.Hbond>
0.7783

> <Gold.Chemscore.Metal>
0.0000

> <Gold.Chemscore.Lipo>
92.8296

> <Gold.Chemscore.Internal_Hbond>
0.0000

> <Gold.Chemscore.DEClash>
0.9042

> <Gold.Chemscore.DEInternal>
3.3546

> <Gold.Chemscore.Rot>
2.2347

> <Gold.Chemscore.Internal.Correction>
   9.000000E+99

> <Gold.Chemscore.Hbonds>
donor molecule, donor type, donor heavy atom, donor atom, acceptor molecule, acceptor atom, score
      L1  H     3    30       P1  7957  0.49

> <Gold.Chemscore.Hbond.Weighted>
-2.5996

> <Gold.Chemscore.Metal.Weighted>
-0.0000

> <Gold.Chemscore.Lipo.Weighted>
-10.8611

> <Gold.Chemscore.Internal_Hbond.Weighted>
0.0000

> <Gold.Chemscore.DEClash.Weighted>
0.9042

> <Gold.Chemscore.DEInternal.Weighted>
3.3546

> <Gold.Chemscore.Rot.Weighted>
5.7208

> <Gold.Chemscore.Internal.Correction.Weighted>
   9.000000E+99

> <Gold.Protein.RotatedTorsions>
[ 6907 6896 6895 6894 ] final  -28.33 input  -60.11 | X-H torsion
[ 7974 7965 7964 7962 ] final  -16.32 input  175.53 | X-H torsion
[ 8008 7997 7996 7995 ] final   23.42 input   59.86 | X-H torsion
[ 10167 10162 10161 10158 ] final  152.15 input  -65.29 | X-H torsion
[ 10718 10713 10712 10709 ] final   32.60 input   66.30 | X-H torsion
[ 10763 10752 10751 10750 ] final  146.31 input  -60.55 | X-H torsion
[ 11005 11000 10999 10996 ] final  -44.42 input  -57.11 | X-H torsion

> <Gold.Protein.ActiveResidues>
 VAL166  LYS551  ARG553  GLY616  TRP617  ASP618  TYR619  PRO620  LYS621  CYS622 
 ASP623  PHE694  ASN695  SER759  ASP760  ASP761  ALA762  ILE779  LEU786  VAL792 
 PHE793  MET794  SER795  GLU796  ALA797  LYS798  CYS799  TRP800  GLU811  SER814 

> <Gold.Protein.RotatedAtoms>
  151.1345  135.0148  159.8597 H   0  0  0  0  0  0  0  0  0  0  0  0  # atno 6907 bound_to 6896
  152.5451  134.1571  159.8552 H   0  0  0  0  0  0  0  0  0  0  0  0  # atno 6908 bound_to 6896
  151.1641  133.4781  159.2627 H   0  0  0  0  0  0  0  0  0  0  0  0  # atno 6909 bound_to 6896
  146.1992  140.3620  142.8429 H   0  0  0  0  0  0  0  0  0  0  0  0  # atno 7974 bound_to 7965
  154.9806  140.3101  155.4948 H   0  0  0  0  0  0  0  0  0  0  0  0  # atno 8008 bound_to 7997
  156.2954  140.2267  156.4845 H   0  0  0  0  0  0  0  0  0  0  0  0  # atno 8009 bound_to 7997
  154.7793  140.0447  157.1102 H   0  0  0  0  0  0  0  0  0  0  0  0  # atno 8010 bound_to 7997
  139.4835  144.5382  151.7609 H   0  0  0  0  0  0  0  0  0  0  0  0  # atno 10167 bound_to 10162
  157.2873  130.7285  149.6590 H   0  0  0  0  0  0  0  0  0  0  0  0  # atno 10718 bound_to 10713
  154.0197  135.2907  155.3382 H   0  0  0  0  0  0  0  0  0  0  0  0  # atno 10763 bound_to 10752
  154.7053  135.5171  153.8590 H   0  0  0  0  0  0  0  0  0  0  0  0  # atno 10764 bound_to 10752
  153.0686  135.6640  154.0420 H   0  0  0  0  0  0  0  0  0  0  0  0  # atno 10765 bound_to 10752
  141.0449  133.6765  156.2871 H   0  0  0  0  0  0  0  0  0  0  0  0  # atno 11005 bound_to 11000
  144.8647  140.7189  143.6085 LP  0  0  0  0  0  0  0  0  0  0  0  0  # atno 17320 bound_to 7965
  145.3540  139.1699  143.4419 LP  0  0  0  0  0  0  0  0  0  0  0  0  # atno 17321 bound_to 7965
  140.4918  144.1299  150.5952 LP  0  0  0  0  0  0  0  0  0  0  0  0  # atno 17342 bound_to 10162
  140.4163  143.2633  151.9771 LP  0  0  0  0  0  0  0  0  0  0  0  0  # atno 17343 bound_to 10162
  155.9666  130.4319  150.4942 LP  0  0  0  0  0  0  0  0  0  0  0  0  # atno 17370 bound_to 10713
  157.2898  131.0624  151.2142 LP  0  0  0  0  0  0  0  0  0  0  0  0  # atno 17371 bound_to 10713
  140.6164  134.5406  157.5541 LP  0  0  0  0  0  0  0  0  0  0  0  0  # atno 17394 bound_to 11000
  139.9304  134.7974  156.0946 LP  0  0  0  0  0  0  0  0  0  0  0  0  # atno 17395 bound_to 11000

$$$$
