AV-unprocessed.smi:332|AV-procd|sdf|2357|dock9
  -GOLD-   2262022273D 1   1.00000     0.00000
 Structure written by MMmdl.
 42 44  0  0  0  0  0  0  0  0  1 V2000
  148.4680  139.7248  157.4737 C   0  0  0  0  0  0  0  0  0  0  0  0
  149.2476  138.4225  157.2294 C   0  0  1  0  0  0  0  0  0  0  0  0
  148.4641  137.2928  157.7256 N   0  0  0  0  0  0  0  0  0  0  0  0
  148.8795  136.3755  158.6126 C   0  0  0  0  0  0  0  0  0  0  0  0
  150.0021  136.3851  159.1199 O   0  0  0  0  0  0  0  0  0  0  0  0
  147.8545  135.2887  158.9698 C   0  0  0  0  0  0  0  0  0  0  0  0
  147.6183  135.1471  160.4166 N   0  0  0  0  0  0  0  0  0  0  0  0
  147.5771  133.8357  160.9311 C   0  0  0  0  0  0  0  0  0  0  0  0
  147.3664  133.5902  162.2338 C   0  0  0  0  0  0  0  0  0  0  0  0
  147.1801  134.7153  163.1189 C   0  0  0  0  0  0  0  0  0  0  0  0
  147.2216  135.9739  162.6382 C   0  0  0  0  0  0  0  0  0  0  0  0
  147.4514  136.2471  161.2146 C   0  0  0  0  0  0  0  0  0  0  0  0
  147.4918  137.3937  160.7675 O   0  0  0  0  0  0  0  0  0  0  0  0
  149.5771  138.1967  155.7349 C   0  0  2  0  0  0  0  0  0  0  0  0
  150.5683  137.0416  155.4608 C   0  0  0  0  0  0  0  0  0  0  0  0
  151.6038  137.6881  154.5221 C   0  0  2  0  0  0  0  0  0  0  0  0
  152.4985  138.6390  155.3381 C   0  0  0  0  0  0  0  0  0  0  0  0
  151.5573  139.8226  155.6260 C   0  0  0  0  0  0  0  0  0  0  0  0
  150.2333  139.3754  154.9725 C   0  0  1  0  0  0  0  0  0  0  0  0
  150.7492  138.6661  153.7241 C   0  0  0  0  0  0  0  0  0  0  0  0
  149.0476  140.5971  157.1720 H   0  0  0  0  0  0  0  0  0  0  0  0
  148.2285  139.8466  158.5306 H   0  0  0  0  0  0  0  0  0  0  0  0
  147.5307  139.7375  156.9165 H   0  0  0  0  0  0  0  0  0  0  0  0
  150.1825  138.4737  157.7881 H   0  0  0  0  0  0  0  0  0  0  0  0
  147.5261  137.2024  157.3631 H   0  0  0  0  0  0  0  0  0  0  0  0
  146.9191  135.5061  158.4512 H   0  0  0  0  0  0  0  0  0  0  0  0
  148.1962  134.3405  158.5517 H   0  0  0  0  0  0  0  0  0  0  0  0
  147.7326  133.0509  160.2050 H   0  0  0  0  0  0  0  0  0  0  0  0
  147.3407  132.5782  162.6106 H   0  0  0  0  0  0  0  0  0  0  0  0
  147.0085  134.5474  164.1719 H   0  0  0  0  0  0  0  0  0  0  0  0
  147.0820  136.8033  163.3159 H   0  0  0  0  0  0  0  0  0  0  0  0
  148.6412  137.9637  155.2231 H   0  0  0  0  0  0  0  0  0  0  0  0
  151.0348  136.6537  156.3675 H   0  0  0  0  0  0  0  0  0  0  0  0
  150.0601  136.2100  154.9711 H   0  0  0  0  0  0  0  0  0  0  0  0
  152.1630  136.9673  153.9248 H   0  0  0  0  0  0  0  0  0  0  0  0
  152.8740  138.1741  156.2505 H   0  0  0  0  0  0  0  0  0  0  0  0
  153.3577  138.9671  154.7516 H   0  0  0  0  0  0  0  0  0  0  0  0
  151.4670  140.0446  156.6883 H   0  0  0  0  0  0  0  0  0  0  0  0
  151.9312  140.7253  155.1409 H   0  0  0  0  0  0  0  0  0  0  0  0
  149.5483  140.1990  154.7693 H   0  0  0  0  0  0  0  0  0  0  0  0
  151.3317  139.3131  153.0658 H   0  0  0  0  0  0  0  0  0  0  0  0
  149.9637  138.1798  153.1428 H   0  0  0  0  0  0  0  0  0  0  0  0
  1  2  1  0  0  0  0
  1 21  1  0  0  0  0
  1 22  1  0  0  0  0
  1 23  1  0  0  0  0
  2  3  1  0  0  0  0
  2 14  1  0  0  0  0
  2 24  1  0  0  0  0
  3  4  1  0  0  0  0
  3 25  1  0  0  0  0
  4  5  2  0  0  0  0
  4  6  1  0  0  0  0
  6  7  1  0  0  0  0
  6 26  1  0  0  0  0
  6 27  1  0  0  0  0
  7 12  1  0  0  0  0
  7  8  1  0  0  0  0
  8  9  2  0  0  0  0
  8 28  1  0  0  0  0
  9 10  1  0  0  0  0
  9 29  1  0  0  0  0
 10 11  2  0  0  0  0
 10 30  1  0  0  0  0
 11 12  1  0  0  0  0
 11 31  1  0  0  0  0
 12 13  2  0  0  0  0
 14 19  1  0  0  0  0
 14 15  1  0  0  0  0
 14 32  1  0  0  0  0
 15 16  1  0  0  0  0
 15 33  1  0  0  0  0
 15 34  1  0  0  0  0
 16 20  1  0  0  0  0
 16 17  1  0  0  0  0
 16 35  1  0  0  0  0
 17 18  1  0  0  0  0
 17 36  1  0  0  0  0
 17 37  1  0  0  0  0
 18 19  1  0  0  0  0
 18 38  1  0  0  0  0
 18 39  1  0  0  0  0
 19 20  1  0  0  0  0
 19 40  1  0  0  0  0
 20 41  1  0  0  0  0
 20 42  1  0  0  0  0
M  END
> <s_m_source_file>
AV-unprocessed.smi

> <i_m_source_file_index>
332

> <i_lp_mmshare_version>
43012

> <i_f3d_flags>
0

> <s_epik_input>
W0NIMl0xW0NIMl1bQ0BIXShbQ0gyXTIpW0NAQEhdKFtDSDJdW0NAQEhdMTIpW0NASF0oW0NIM10pW05IXUMoPU8pW0NIMl1uM1tjSF1bY0hdW2NIXVtjSF1jMz1P

> <s_epik_cmdline>
J2VwaWtfcHl0aG9uJywgJy1waCcsICc3LjAnLCAnLXRuJywgJzgnLCAnLW1hJywgJzIwMCcsICctbWV0YWxfYmluZGluZycsICctaW1hZScsICc8aW5maWxlLm1hZT4nLCAnLW9tYWUnLCAnPG91dGZpbGUubWFlPic=

> <r_lp_tautomer_probability>
1

> <r_epik_Ionization_Penalty>
4.05802e-07

> <r_epik_Ionization_Penalty_Charging>
3.84175e-07

> <r_epik_Ionization_Penalty_Neutral>
2.16269e-08

> <r_epik_State_Penalty>
-0

> <r_epik_Charging_Adjusted_Penalty>
3.84175e-07

> <i_epik_Tot_Q>
0

> <i_epik_Tot_abs_Q>
0

> <r_epik_Metal_State_Penalty>
-0

> <b_epik_Metal_Only>
0

> <s_lp_Force_Field>
OPLS_2005

> <r_lp_Energy>
60.6372

> <b_lp_Chiralities_Consistent>
1

> <s_lp_Variant>
AV-unprocessed.smi:332-6

> <Gold.Version>
5.8.1

> <Gold.Id.Protein>
6NUR|6NUR_protein|mol2

> <Gold.PLP.Fitness>
44.4074

> <Gold.PLP.PLP>
-36.9597

> <Gold.PLP.part.hbond>
-3.0000

> <Gold.PLP.part.metal>
0.0000

> <Gold.PLP.part.buried>
-1.8159

> <Gold.PLP.part.nonpolar>
-32.4649

> <Gold.PLP.part.repulsive>
0.0464

> <Gold.PLP.ligand.clash>
0.0000

> <Gold.PLP.ligand.torsion>
0.3766

> <Gold.PLP.Chemscore.Hbond>
2.7280

> <Gold.PLP.Chemscore.CHOScore>
0.0000

> <Gold.PLP.Chemscore.Metal>
0.0000

> <Gold.Chemscore.Hbonds>
donor molecule, donor type, donor heavy atom, donor atom, acceptor molecule, acceptor atom, score
      P1  H  6896  6909       L1     5  1.00
      P1  H  6931  6943       L1    13  0.59
      P1  H  6934  6947       L1    13  1.00

> <Gold.PLP.Chemscore.Internal.Correction>
0.0169

> <Gold.Rescore>
     Score         DG    S(hbond)    S(metal)    S(lipo)     H(rot)  DE(clash)    DE(int)     intcor
     18.47     -20.54       2.70        0.00      85.32       1.54       0.23       1.84       ----

> <Gold.Chemscore.Fitness>
18.4740

> <Gold.Chemscore.DG>
-20.5440

> <Gold.Chemscore.ZeroCoef>
-5.4800

> <Gold.Chemscore.Hbond>
2.7017

> <Gold.Chemscore.Metal>
0.0000

> <Gold.Chemscore.Lipo>
85.3180

> <Gold.Chemscore.Internal_Hbond>
0.0000

> <Gold.Chemscore.DEClash>
0.2288

> <Gold.Chemscore.DEInternal>
1.8411

> <Gold.Chemscore.Rot>
1.5398

> <Gold.Chemscore.Internal.Correction>
   9.000000E+99

> <Gold.Chemscore.Hbonds>
donor molecule, donor type, donor heavy atom, donor atom, acceptor molecule, acceptor atom, score
      P1  H  6896  6909       L1     5  1.00
      P1  H  6931  6943       L1    13  0.23
      P1  H  6934  6947       L1    13  0.95

> <Gold.Chemscore.Hbond.Weighted>
-9.0236

> <Gold.Chemscore.Metal.Weighted>
-0.0000

> <Gold.Chemscore.Lipo.Weighted>
-9.9822

> <Gold.Chemscore.Internal_Hbond.Weighted>
0.0000

> <Gold.Chemscore.DEClash.Weighted>
0.2288

> <Gold.Chemscore.DEInternal.Weighted>
1.8411

> <Gold.Chemscore.Rot.Weighted>
3.9419

> <Gold.Chemscore.Internal.Correction.Weighted>
   9.000000E+99

> <Gold.Protein.RotatedTorsions>
[ 6907 6896 6895 6894 ] final   72.98 input  -60.11 | X-H torsion
[ 7974 7965 7964 7962 ] final  -32.75 input  175.53 | X-H torsion
[ 8008 7997 7996 7995 ] final  -14.90 input   59.86 | X-H torsion
[ 10167 10162 10161 10158 ] final   -0.51 input  -65.29 | X-H torsion
[ 10718 10713 10712 10709 ] final  -31.31 input   66.30 | X-H torsion
[ 10763 10752 10751 10750 ] final  -65.29 input  -60.55 | X-H torsion
[ 11005 11000 10999 10996 ] final   97.42 input  -57.11 | X-H torsion

> <Gold.Protein.ActiveResidues>
 VAL166  LYS551  ARG553  GLY616  TRP617  ASP618  TYR619  PRO620  LYS621  CYS622 
 ASP623  PHE694  ASN695  SER759  ASP760  ASP761  ALA762  ILE779  LEU786  VAL792 
 PHE793  MET794  SER795  GLU796  ALA797  LYS798  CYS799  TRP800  GLU811  SER814 

> <Gold.Protein.RotatedAtoms>
  152.4898  134.4490  159.9567 H   0  0  0  0  0  0  0  0  0  0  0  0  # atno 6907 bound_to 6896
  151.4479  133.3619  159.2799 H   0  0  0  0  0  0  0  0  0  0  0  0  # atno 6908 bound_to 6896
  150.9042  134.8480  159.7441 H   0  0  0  0  0  0  0  0  0  0  0  0  # atno 6909 bound_to 6896
  146.0965  140.5831  142.8840 H   0  0  0  0  0  0  0  0  0  0  0  0  # atno 7974 bound_to 7965
  154.5173  140.2210  155.9042 H   0  0  0  0  0  0  0  0  0  0  0  0  # atno 8008 bound_to 7997
  156.1622  140.3140  155.8792 H   0  0  0  0  0  0  0  0  0  0  0  0  # atno 8009 bound_to 7997
  155.3729  140.0467  157.3036 H   0  0  0  0  0  0  0  0  0  0  0  0  # atno 8010 bound_to 7997
  140.6770  143.6886  150.8046 H   0  0  0  0  0  0  0  0  0  0  0  0  # atno 10167 bound_to 10162
  156.3889  130.4369  149.7410 H   0  0  0  0  0  0  0  0  0  0  0  0  # atno 10718 bound_to 10713
  154.3427  135.6153  153.5604 H   0  0  0  0  0  0  0  0  0  0  0  0  # atno 10763 bound_to 10752
  152.9803  135.5773  154.4834 H   0  0  0  0  0  0  0  0  0  0  0  0  # atno 10764 bound_to 10752
  154.4541  135.2854  155.1737 H   0  0  0  0  0  0  0  0  0  0  0  0  # atno 10765 bound_to 10752
  139.8776  134.9000  156.4305 H   0  0  0  0  0  0  0  0  0  0  0  0  # atno 11005 bound_to 11000
  144.7399  140.4914  143.6876 LP  0  0  0  0  0  0  0  0  0  0  0  0  # atno 17320 bound_to 7965
  145.5938  139.1498  143.3167 LP  0  0  0  0  0  0  0  0  0  0  0  0  # atno 17321 bound_to 7965
  140.0580  143.5183  152.2641 LP  0  0  0  0  0  0  0  0  0  0  0  0  # atno 17342 bound_to 10162
  139.6069  144.7598  151.3041 LP  0  0  0  0  0  0  0  0  0  0  0  0  # atno 17343 bound_to 10162
  156.4471  130.7889  151.2910 LP  0  0  0  0  0  0  0  0  0  0  0  0  # atno 17370 bound_to 10713
  157.7498  131.0107  150.3316 LP  0  0  0  0  0  0  0  0  0  0  0  0  # atno 17371 bound_to 10713
  140.9070  133.7738  155.9747 LP  0  0  0  0  0  0  0  0  0  0  0  0  # atno 17394 bound_to 11000
  140.8588  134.2866  157.5243 LP  0  0  0  0  0  0  0  0  0  0  0  0  # atno 17395 bound_to 11000

$$$$
