AV-unprocessed.smi:2925|AV-procd|sdf|11224|dock4
  -GOLD-   2272016113D 1   1.00000     0.00000
 Structure written by MMmdl.
 44 45  0  0  0  0  0  0  0  0  1 V2000
  147.2015  142.6026  153.6368 C   0  0  0  0  0  0  0  0  0  0  0  0
  146.5826  141.8213  154.8054 C   0  0  0  0  0  0  0  0  0  0  0  0
  147.6098  141.0430  155.6539 C   0  0  2  0  0  0  0  0  0  0  0  0
  148.6086  141.9630  156.1988 N   0  0  0  0  0  0  0  0  0  0  0  0
  149.5148  141.6710  157.1425 C   0  0  0  0  0  0  0  0  0  0  0  0
  149.6196  140.5673  157.6787 O   0  0  0  0  0  0  0  0  0  0  0  0
  150.2632  142.7458  157.4475 N   0  0  0  0  0  0  0  0  0  0  0  0
  151.2440  142.8104  158.4490 C   0  0  0  0  0  0  0  0  0  0  0  0
  151.3930  143.9653  159.1497 C   0  0  0  0  0  0  0  0  0  0  0  0
  150.5035  145.1734  158.9012 C   0  0  0  0  0  0  0  0  0  0  0  0
  152.4087  144.0375  160.1793 C   0  0  0  0  0  0  0  0  0  0  0  0
  153.1829  142.9703  160.4170 C   0  0  0  0  0  0  0  0  0  0  0  0
  153.0495  141.7843  159.6805 N   0  0  0  0  0  0  0  0  0  0  0  0
  153.9575  140.6805  160.0036 C   0  0  0  0  0  0  0  0  0  0  0  0
  152.1422  141.6513  158.6707 C   0  0  0  0  0  0  0  0  0  0  0  0
  152.1035  140.6260  157.9865 O   0  0  0  0  0  0  0  0  0  0  0  0
  148.3170  139.9438  154.8361 C   0  0  1  0  0  0  0  0  0  0  0  0
  149.6438  140.3712  154.2042 C   0  0  0  0  0  0  0  0  0  0  0  0
  150.3296  139.0390  154.0080 C   0  0  0  0  0  0  0  0  0  0  0  0
  149.9143  138.2846  155.2677 C   0  0  0  0  0  0  0  0  0  0  0  0
  148.6621  138.8374  155.6666 O   0  0  0  0  0  0  0  0  0  0  0  0
  146.4402  143.1800  153.1124 H   0  0  0  0  0  0  0  0  0  0  0  0
  147.6669  141.9377  152.9090 H   0  0  0  0  0  0  0  0  0  0  0  0
  147.9626  143.2994  153.9892 H   0  0  0  0  0  0  0  0  0  0  0  0
  146.0513  142.5281  155.4436 H   0  0  0  0  0  0  0  0  0  0  0  0
  145.8265  141.1361  154.4200 H   0  0  0  0  0  0  0  0  0  0  0  0
  147.0713  140.5511  156.4661 H   0  0  0  0  0  0  0  0  0  0  0  0
  148.6008  142.9022  155.8290 H   0  0  0  0  0  0  0  0  0  0  0  0
  150.0063  143.6254  157.0244 H   0  0  0  0  0  0  0  0  0  0  0  0
  150.7620  145.9981  159.5658 H   0  0  0  0  0  0  0  0  0  0  0  0
  149.4569  144.9195  159.0733 H   0  0  0  0  0  0  0  0  0  0  0  0
  150.6112  145.5241  157.8743 H   0  0  0  0  0  0  0  0  0  0  0  0
  152.5395  144.9389  160.7606 H   0  0  0  0  0  0  0  0  0  0  0  0
  153.9535  142.9632  161.1740 H   0  0  0  0  0  0  0  0  0  0  0  0
  153.4036  139.7529  160.1576 H   0  0  0  0  0  0  0  0  0  0  0  0
  154.5328  140.8628  160.9119 H   0  0  0  0  0  0  0  0  0  0  0  0
  154.6665  140.5226  159.1897 H   0  0  0  0  0  0  0  0  0  0  0  0
  147.6550  139.5747  154.0506 H   0  0  0  0  0  0  0  0  0  0  0  0
  149.5159  140.9263  153.2744 H   0  0  0  0  0  0  0  0  0  0  0  0
  150.2189  140.9890  154.8958 H   0  0  0  0  0  0  0  0  0  0  0  0
  149.9311  138.5414  153.1227 H   0  0  0  0  0  0  0  0  0  0  0  0
  151.4111  139.1227  153.8967 H   0  0  0  0  0  0  0  0  0  0  0  0
  149.8381  137.2103  155.0986 H   0  0  0  0  0  0  0  0  0  0  0  0
  150.6351  138.4510  156.0690 H   0  0  0  0  0  0  0  0  0  0  0  0
  1  2  1  0  0  0  0
  1 22  1  0  0  0  0
  1 23  1  0  0  0  0
  1 24  1  0  0  0  0
  2  3  1  0  0  0  0
  2 25  1  0  0  0  0
  2 26  1  0  0  0  0
  3  4  1  0  0  0  0
  3 17  1  0  0  0  0
  3 27  1  0  0  0  0
  4  5  1  0  0  0  0
  4 28  1  0  0  0  0
  5  6  2  0  0  0  0
  5  7  1  0  0  0  0
  7  8  1  0  0  0  0
  7 29  1  0  0  0  0
  8 15  1  0  0  0  0
  8  9  2  0  0  0  0
  9 10  1  0  0  0  0
  9 11  1  0  0  0  0
 10 30  1  0  0  0  0
 10 31  1  0  0  0  0
 10 32  1  0  0  0  0
 11 12  2  0  0  0  0
 11 33  1  0  0  0  0
 12 13  1  0  0  0  0
 12 34  1  0  0  0  0
 13 14  1  0  0  0  0
 13 15  1  0  0  0  0
 14 35  1  0  0  0  0
 14 36  1  0  0  0  0
 14 37  1  0  0  0  0
 15 16  2  0  0  0  0
 17 21  1  0  0  0  0
 17 18  1  0  0  0  0
 17 38  1  0  0  0  0
 18 19  1  0  0  0  0
 18 39  1  0  0  0  0
 18 40  1  0  0  0  0
 19 20  1  0  0  0  0
 19 41  1  0  0  0  0
 19 42  1  0  0  0  0
 20 21  1  0  0  0  0
 20 43  1  0  0  0  0
 20 44  1  0  0  0  0
M  END
> <s_m_source_file>
AV-unprocessed.smi

> <i_m_source_file_index>
2925

> <i_lp_mmshare_version>
43012

> <i_f3d_flags>
0

> <s_epik_input>
TzFbQ0gyXVtDSDJdW0NIMl1bQ0BIXTFbQ0BIXShbQ0gyXVtDSDNdKVtOSF1DKD1PKVtOSF1jMmMoW0NIM10pW2NIXVtjSF1uKFtDSDNdKWMyPU8=

> <s_epik_cmdline>
J2VwaWtfcHl0aG9uJywgJy1waCcsICc3LjAnLCAnLXRuJywgJzgnLCAnLW1hJywgJzIwMCcsICctbWV0YWxfYmluZGluZycsICctaW1hZScsICc8aW5maWxlLm1hZT4nLCAnLW9tYWUnLCAnPG91dGZpbGUubWFlPic=

> <r_lp_tautomer_probability>
1

> <r_epik_Ionization_Penalty>
2.58789e-05

> <r_epik_Ionization_Penalty_Charging>
6.72534e-06

> <r_epik_Ionization_Penalty_Neutral>
1.91535e-05

> <r_epik_State_Penalty>
-0

> <r_epik_Charging_Adjusted_Penalty>
6.72534e-06

> <i_epik_Tot_Q>
0

> <i_epik_Tot_abs_Q>
0

> <r_epik_Metal_State_Penalty>
-0

> <b_epik_Metal_Only>
0

> <s_lp_Force_Field>
OPLS_2005

> <r_lp_Energy>
34.9681

> <b_lp_Chiralities_Consistent>
1

> <s_lp_Variant>
AV-unprocessed.smi:2925-3

> <Gold.Version>
5.8.1

> <Gold.Id.Protein>
6NUR|6NUR_protein|mol2

> <Gold.PLP.Fitness>
42.2066

> <Gold.PLP.PLP>
-38.1644

> <Gold.PLP.part.hbond>
-2.0000

> <Gold.PLP.part.metal>
0.0000

> <Gold.PLP.part.buried>
-5.3358

> <Gold.PLP.part.nonpolar>
-31.3343

> <Gold.PLP.part.repulsive>
0.0581

> <Gold.PLP.ligand.clash>
0.0000

> <Gold.PLP.ligand.torsion>
1.1768

> <Gold.PLP.Chemscore.Hbond>
1.9100

> <Gold.PLP.Chemscore.CHOScore>
0.0000

> <Gold.PLP.Chemscore.Metal>
0.0000

> <Gold.Chemscore.Hbonds>
donor molecule, donor type, donor heavy atom, donor atom, acceptor molecule, acceptor atom, score
      L1  H     4    28       P1  8028  1.00
      L1  H     7    29       P1  8028  0.91

> <Gold.PLP.Chemscore.Internal.Correction>
0.6659

> <Gold.Rescore>
     Score         DG    S(hbond)    S(metal)    S(lipo)     H(rot)  DE(clash)    DE(int)     intcor
     14.41     -19.88       1.92        0.00      97.89       1.36       0.12       5.35       ----

> <Gold.Chemscore.Fitness>
14.4123

> <Gold.Chemscore.DG>
-19.8817

> <Gold.Chemscore.ZeroCoef>
-5.4800

> <Gold.Chemscore.Hbond>
1.9234

> <Gold.Chemscore.Metal>
0.0000

> <Gold.Chemscore.Lipo>
97.8946

> <Gold.Chemscore.Internal_Hbond>
0.0000

> <Gold.Chemscore.DEClash>
0.1181

> <Gold.Chemscore.DEInternal>
5.3513

> <Gold.Chemscore.Rot>
1.3579

> <Gold.Chemscore.Internal.Correction>
   9.000000E+99

> <Gold.Chemscore.Hbonds>
donor molecule, donor type, donor heavy atom, donor atom, acceptor molecule, acceptor atom, score
      L1  H     4    28       P1  8028  1.00
      L1  H     7    29       P1  8028  0.83

> <Gold.Chemscore.Hbond.Weighted>
-6.4243

> <Gold.Chemscore.Metal.Weighted>
-0.0000

> <Gold.Chemscore.Lipo.Weighted>
-11.4537

> <Gold.Chemscore.Internal_Hbond.Weighted>
0.0000

> <Gold.Chemscore.DEClash.Weighted>
0.1181

> <Gold.Chemscore.DEInternal.Weighted>
5.3513

> <Gold.Chemscore.Rot.Weighted>
3.4763

> <Gold.Chemscore.Internal.Correction.Weighted>
   9.000000E+99

> <Gold.Protein.RotatedTorsions>
[ 6907 6896 6895 6894 ] final -102.09 input  -60.11 | X-H torsion
[ 7974 7965 7964 7962 ] final   67.14 input  175.53 | X-H torsion
[ 8008 7997 7996 7995 ] final   19.25 input   59.86 | X-H torsion
[ 10167 10162 10161 10158 ] final  -41.75 input  -65.29 | X-H torsion
[ 10718 10713 10712 10709 ] final -105.74 input   66.30 | X-H torsion
[ 10763 10752 10751 10750 ] final  -22.88 input  -60.55 | X-H torsion
[ 11005 11000 10999 10996 ] final  -96.58 input  -57.11 | X-H torsion

> <Gold.Protein.ActiveResidues>
 VAL166  LYS551  ARG553  GLY616  TRP617  ASP618  TYR619  PRO620  LYS621  CYS622 
 ASP623  PHE694  ASN695  SER759  ASP760  ASP761  ALA762  ILE779  LEU786  VAL792 
 PHE793  MET794  SER795  GLU796  ALA797  LYS798  CYS799  TRP800  GLU811  SER814 

> <Gold.Protein.RotatedAtoms>
  150.7181  134.0634  159.3838 H   0  0  0  0  0  0  0  0  0  0  0  0  # atno 6907 bound_to 6896
  151.8614  135.0520  160.0479 H   0  0  0  0  0  0  0  0  0  0  0  0  # atno 6908 bound_to 6896
  152.2714  133.5350  159.5478 H   0  0  0  0  0  0  0  0  0  0  0  0  # atno 6909 bound_to 6896
  145.8182  139.3070  143.1059 H   0  0  0  0  0  0  0  0  0  0  0  0  # atno 7974 bound_to 7965
  154.9180  140.3023  155.5231 H   0  0  0  0  0  0  0  0  0  0  0  0  # atno 8008 bound_to 7997
  156.3011  140.2377  156.4163 H   0  0  0  0  0  0  0  0  0  0  0  0  # atno 8009 bound_to 7997
  154.8359  140.0416  157.1497 H   0  0  0  0  0  0  0  0  0  0  0  0  # atno 8010 bound_to 7997
  140.6992  143.3077  151.3111 H   0  0  0  0  0  0  0  0  0  0  0  0  # atno 10167 bound_to 10162
  156.0359  130.5578  150.7582 H   0  0  0  0  0  0  0  0  0  0  0  0  # atno 10718 bound_to 10713
  153.6589  135.6977  153.5184 H   0  0  0  0  0  0  0  0  0  0  0  0  # atno 10763 bound_to 10752
  153.2647  135.4233  155.0928 H   0  0  0  0  0  0  0  0  0  0  0  0  # atno 10764 bound_to 10752
  154.8457  135.3563  154.6134 H   0  0  0  0  0  0  0  0  0  0  0  0  # atno 10765 bound_to 10752
  141.1407  133.8108  157.0590 H   0  0  0  0  0  0  0  0  0  0  0  0  # atno 11005 bound_to 11000
  145.9703  140.8765  143.0166 LP  0  0  0  0  0  0  0  0  0  0  0  0  # atno 17320 bound_to 7965
  144.6750  140.1937  143.7394 LP  0  0  0  0  0  0  0  0  0  0  0  0  # atno 17321 bound_to 7965
  139.6488  144.0401  152.2611 LP  0  0  0  0  0  0  0  0  0  0  0  0  # atno 17342 bound_to 10162
  139.9930  144.6348  150.7797 LP  0  0  0  0  0  0  0  0  0  0  0  0  # atno 17343 bound_to 10162
  157.5108  131.0925  151.0200 LP  0  0  0  0  0  0  0  0  0  0  0  0  # atno 17370 bound_to 10713
  157.0556  130.5805  149.5377 LP  0  0  0  0  0  0  0  0  0  0  0  0  # atno 17371 bound_to 10713
  140.0583  134.9768  157.1260 LP  0  0  0  0  0  0  0  0  0  0  0  0  # atno 17394 bound_to 11000
  140.3886  134.2209  155.7167 LP  0  0  0  0  0  0  0  0  0  0  0  0  # atno 17395 bound_to 11000

$$$$
