AV-unprocessed.smi:2962|AV-procd|sdf|11315|dock7
  -GOLD-   2272016223D 1   1.00000     0.00000
 Structure written by MMmdl.
 36 37  0  0  0  0  0  0  0  0  1 V2000
  157.0088  140.2267  159.5165 C   0  0  0  0  0  0  0  0  0  0  0  0
  155.7392  139.6966  159.1694 O   0  0  0  0  0  0  0  0  0  0  0  0
  154.9065  139.4371  160.2907 C   0  0  0  0  0  0  0  0  0  0  0  0
  153.4727  139.0711  159.8689 C   0  0  0  0  0  0  0  0  0  0  0  0
  152.8388  140.1378  159.1063 N   0  0  0  0  0  0  0  0  0  0  0  0
  152.2790  140.0809  157.8716 C   0  0  0  0  0  0  0  0  0  0  0  0
  152.2164  138.5967  156.9240 S   0  0  0  0  0  0  0  0  0  0  0  0
  151.0733  139.1555  155.6241 C   0  0  2  0  0  0  0  0  0  0  0  0
  149.7457  139.6171  156.2494 C   0  0  0  0  0  0  0  0  0  0  0  0
  150.8686  138.0764  154.5515 C   0  0  0  0  0  0  0  0  0  0  0  0
  150.0763  138.3883  153.5225 N   0  0  0  0  0  0  0  0  0  0  0  0
  151.4082  136.9750  154.6428 O   0  0  0  0  0  0  0  0  0  0  0  0
  151.7719  141.2251  157.4134 N   0  0  0  0  0  0  0  0  0  0  0  0
  152.0231  142.1064  158.4461 C   0  0  0  0  0  0  0  0  0  0  0  0
  151.7247  143.4819  158.5738 C   0  0  0  0  0  0  0  0  0  0  0  0
  152.0851  144.1848  159.7423 C   0  0  0  0  0  0  0  0  0  0  0  0
  152.7469  143.5238  160.7973 C   0  0  0  0  0  0  0  0  0  0  0  0
  153.0527  142.1535  160.6905 C   0  0  0  0  0  0  0  0  0  0  0  0
  152.6903  141.4568  159.5222 C   0  0  0  0  0  0  0  0  0  0  0  0
  157.6056  140.3620  158.6145 H   0  0  0  0  0  0  0  0  0  0  0  0
  157.5591  139.5639  160.1844 H   0  0  0  0  0  0  0  0  0  0  0  0
  156.9073  141.1990  159.9996 H   0  0  0  0  0  0  0  0  0  0  0  0
  155.3360  138.6613  160.9265 H   0  0  0  0  0  0  0  0  0  0  0  0
  154.8783  140.3433  160.8965 H   0  0  0  0  0  0  0  0  0  0  0  0
  153.4560  138.1444  159.2977 H   0  0  0  0  0  0  0  0  0  0  0  0
  152.8679  138.8836  160.7564 H   0  0  0  0  0  0  0  0  0  0  0  0
  151.5125  140.0246  155.1326 H   0  0  0  0  0  0  0  0  0  0  0  0
  149.0421  139.9542  155.4873 H   0  0  0  0  0  0  0  0  0  0  0  0
  149.9082  140.4505  156.9333 H   0  0  0  0  0  0  0  0  0  0  0  0
  149.2692  138.8159  156.8157 H   0  0  0  0  0  0  0  0  0  0  0  0
  149.8919  137.7058  152.8016 H   0  0  0  0  0  0  0  0  0  0  0  0
  149.6462  139.3008  153.4810 H   0  0  0  0  0  0  0  0  0  0  0  0
  151.2185  143.9976  157.7710 H   0  0  0  0  0  0  0  0  0  0  0  0
  151.8531  145.2362  159.8295 H   0  0  0  0  0  0  0  0  0  0  0  0
  153.0202  144.0696  161.6887 H   0  0  0  0  0  0  0  0  0  0  0  0
  153.5605  141.6445  161.4963 H   0  0  0  0  0  0  0  0  0  0  0  0
  1  2  1  0  0  0  0
  1 20  1  0  0  0  0
  1 21  1  0  0  0  0
  1 22  1  0  0  0  0
  2  3  1  0  0  0  0
  3  4  1  0  0  0  0
  3 23  1  0  0  0  0
  3 24  1  0  0  0  0
  4  5  1  0  0  0  0
  4 25  1  0  0  0  0
  4 26  1  0  0  0  0
  5 19  1  0  0  0  0
  5  6  1  0  0  0  0
  6  7  1  0  0  0  0
  6 13  2  0  0  0  0
  7  8  1  0  0  0  0
  8  9  1  0  0  0  0
  8 10  1  0  0  0  0
  8 27  1  0  0  0  0
  9 28  1  0  0  0  0
  9 29  1  0  0  0  0
  9 30  1  0  0  0  0
 10 11  1  0  0  0  0
 10 12  2  0  0  0  0
 11 31  1  0  0  0  0
 11 32  1  0  0  0  0
 13 14  1  0  0  0  0
 14 19  2  0  0  0  0
 14 15  1  0  0  0  0
 15 16  2  0  0  0  0
 15 33  1  0  0  0  0
 16 17  1  0  0  0  0
 16 34  1  0  0  0  0
 17 18  2  0  0  0  0
 17 35  1  0  0  0  0
 18 19  1  0  0  0  0
 18 36  1  0  0  0  0
M  END
> <s_m_source_file>
AV-unprocessed.smi

> <i_m_source_file_index>
2962

> <i_lp_mmshare_version>
43012

> <i_f3d_flags>
0

> <s_epik_input>
W2NIXTFbY0hdW2NIXVtjSF1jKGMxMiluKFtDSDJdW0NIMl1PW0NIM10pYyhuMilTW0NASF0oW0NIM10pQyg9TylbTkgyXQ==

> <s_epik_cmdline>
J2VwaWtfcHl0aG9uJywgJy1waCcsICc3LjAnLCAnLXRuJywgJzgnLCAnLW1hJywgJzIwMCcsICctbWV0YWxfYmluZGluZycsICctaW1hZScsICc8aW5maWxlLm1hZT4nLCAnLW9tYWUnLCAnPG91dGZpbGUubWFlPic=

> <r_epik_Ionization_Penalty>
0.0199986

> <r_epik_Ionization_Penalty_Charging>
0

> <r_epik_Ionization_Penalty_Neutral>
0.0199986

> <r_epik_State_Penalty>
0.0160044

> <r_epik_Charging_Adjusted_Penalty>
0.0160044

> <i_epik_Tot_Q>
0

> <i_epik_Tot_abs_Q>
0

> <r_epik_Metal_State_Penalty>
0.015472

> <b_epik_Metal_Only>
0

> <s_lp_Force_Field>
OPLS_2005

> <r_lp_Energy>
7.16755

> <b_lp_Chiralities_Consistent>
1

> <s_lp_Variant>
AV-unprocessed.smi:2962-1

> <Gold.Version>
5.8.1

> <Gold.Id.Protein>
6NUR|6NUR_protein|mol2

> <Gold.PLP.Fitness>
46.3265

> <Gold.PLP.PLP>
-37.5867

> <Gold.PLP.part.hbond>
-4.0686

> <Gold.PLP.part.metal>
0.0000

> <Gold.PLP.part.buried>
-4.7205

> <Gold.PLP.part.nonpolar>
-29.0247

> <Gold.PLP.part.repulsive>
0.2547

> <Gold.PLP.ligand.clash>
0.0000

> <Gold.PLP.ligand.torsion>
0.1683

> <Gold.PLP.Chemscore.Hbond>
3.0078

> <Gold.PLP.Chemscore.CHOScore>
0.0000

> <Gold.PLP.Chemscore.Metal>
0.0000

> <Gold.Chemscore.Hbonds>
donor molecule, donor type, donor heavy atom, donor atom, acceptor molecule, acceptor atom, score
      L1  H    11    31       P1  7948  1.00
      P1  H  7997  8009       L1     2  1.00
      P1  H 10752 10764       L1    12  0.96

> <Gold.PLP.Chemscore.Internal.Correction>
0.0530

> <Gold.Rescore>
     Score         DG    S(hbond)    S(metal)    S(lipo)     H(rot)  DE(clash)    DE(int)     intcor
     18.02     -19.60       2.83        0.00      94.78       2.50       0.00       1.58       ----

> <Gold.Chemscore.Fitness>
18.0176

> <Gold.Chemscore.DG>
-19.6028

> <Gold.Chemscore.ZeroCoef>
-5.4800

> <Gold.Chemscore.Hbond>
2.8267

> <Gold.Chemscore.Metal>
0.0000

> <Gold.Chemscore.Lipo>
94.7755

> <Gold.Chemscore.Internal_Hbond>
0.0000

> <Gold.Chemscore.DEClash>
0.0033

> <Gold.Chemscore.DEInternal>
1.5819

> <Gold.Chemscore.Rot>
2.5027

> <Gold.Chemscore.Internal.Correction>
   9.000000E+99

> <Gold.Chemscore.Hbonds>
donor molecule, donor type, donor heavy atom, donor atom, acceptor molecule, acceptor atom, score
      L1  H    11    31       P1  7948  0.25
      L1  H    11    32       P1  7957  0.01
      P1  H  7997  8009       L1     2  0.65
      P1  H 10752 10764       L1    12  0.91

> <Gold.Chemscore.Hbond.Weighted>
-9.4411

> <Gold.Chemscore.Metal.Weighted>
-0.0000

> <Gold.Chemscore.Lipo.Weighted>
-11.0887

> <Gold.Chemscore.Internal_Hbond.Weighted>
0.0000

> <Gold.Chemscore.DEClash.Weighted>
0.0033

> <Gold.Chemscore.DEInternal.Weighted>
1.5819

> <Gold.Chemscore.Rot.Weighted>
6.4070

> <Gold.Chemscore.Internal.Correction.Weighted>
   9.000000E+99

> <Gold.Protein.RotatedTorsions>
[ 6907 6896 6895 6894 ] final  -55.25 input  -60.11 | X-H torsion
[ 7974 7965 7964 7962 ] final  111.09 input  175.53 | X-H torsion
[ 8008 7997 7996 7995 ] final  100.62 input   59.86 | X-H torsion
[ 10167 10162 10161 10158 ] final  -49.12 input  -65.29 | X-H torsion
[ 10718 10713 10712 10709 ] final  -15.02 input   66.30 | X-H torsion
[ 10763 10752 10751 10750 ] final  -62.87 input  -60.55 | X-H torsion
[ 11005 11000 10999 10996 ] final  -19.11 input  -57.11 | X-H torsion

> <Gold.Protein.ActiveResidues>
 VAL166  LYS551  ARG553  GLY616  TRP617  ASP618  TYR619  PRO620  LYS621  CYS622 
 ASP623  PHE694  ASN695  SER759  ASP760  ASP761  ALA762  ILE779  LEU786  VAL792 
 PHE793  MET794  SER795  GLU796  ALA797  LYS798  CYS799  TRP800  GLU811  SER814 

> <Gold.Protein.RotatedAtoms>
  150.8268  134.7502  159.6819 H   0  0  0  0  0  0  0  0  0  0  0  0  # atno 6907 bound_to 6896
  152.4378  134.5649  159.9914 H   0  0  0  0  0  0  0  0  0  0  0  0  # atno 6908 bound_to 6896
  151.5820  133.3339  159.3046 H   0  0  0  0  0  0  0  0  0  0  0  0  # atno 6909 bound_to 6896
  145.2466  139.2756  143.4089 H   0  0  0  0  0  0  0  0  0  0  0  0  # atno 7974 bound_to 7965
  156.1220  140.3210  155.8223 H   0  0  0  0  0  0  0  0  0  0  0  0  # atno 8008 bound_to 7997
  155.4487  140.0531  157.3020 H   0  0  0  0  0  0  0  0  0  0  0  0  # atno 8009 bound_to 7997
  154.4835  140.2063  155.9723 H   0  0  0  0  0  0  0  0  0  0  0  0  # atno 8010 bound_to 7997
  140.6700  143.2711  151.4169 H   0  0  0  0  0  0  0  0  0  0  0  0  # atno 10167 bound_to 10162
  156.6077  130.4841  149.6214 H   0  0  0  0  0  0  0  0  0  0  0  0  # atno 10718 bound_to 10713
  154.3064  135.6224  153.5446 H   0  0  0  0  0  0  0  0  0  0  0  0  # atno 10763 bound_to 10752
  152.9834  135.5691  154.5226 H   0  0  0  0  0  0  0  0  0  0  0  0  # atno 10764 bound_to 10752
  154.4867  135.2865  155.1505 H   0  0  0  0  0  0  0  0  0  0  0  0  # atno 10765 bound_to 10752
  140.8335  133.7979  155.9783 H   0  0  0  0  0  0  0  0  0  0  0  0  # atno 11005 bound_to 11000
  146.3314  140.2845  142.8612 LP  0  0  0  0  0  0  0  0  0  0  0  0  # atno 17320 bound_to 7965
  144.9540  140.8208  143.5554 LP  0  0  0  0  0  0  0  0  0  0  0  0  # atno 17321 bound_to 7965
  139.5964  144.1388  152.2149 LP  0  0  0  0  0  0  0  0  0  0  0  0  # atno 17342 bound_to 10162
  140.0759  144.5741  150.7158 LP  0  0  0  0  0  0  0  0  0  0  0  0  # atno 17343 bound_to 10162
  156.2416  130.6854  151.1561 LP  0  0  0  0  0  0  0  0  0  0  0  0  # atno 17370 bound_to 10713
  157.7263  131.0647  150.5917 LP  0  0  0  0  0  0  0  0  0  0  0  0  # atno 17371 bound_to 10713
  140.8973  134.2422  157.5061 LP  0  0  0  0  0  0  0  0  0  0  0  0  # atno 17394 bound_to 11000
  139.8704  134.9690  156.4650 LP  0  0  0  0  0  0  0  0  0  0  0  0  # atno 17395 bound_to 11000

$$$$
