AV-unprocessed.smi:1399|AV-procd|sdf|5683|dock6
  -GOLD-   22720 5303D 1   1.00000     0.00000
 Structure written by MMmdl.
 38 39  0  0  0  0  0  0  0  0  2 V2000
  143.4076  138.3545  153.9300 N   0  0  0  0  0  0  0  0  0  0  0  0
  143.9336  138.4975  155.1484 C   0  0  0  0  0  0  0  0  0  0  0  0
  144.1291  137.5397  155.8944 O   0  0  0  0  0  0  0  0  0  0  0  0
  144.2709  139.9243  155.5931 C   0  0  0  0  0  0  0  0  0  0  0  0
  145.2426  140.5997  154.6946 N   0  3  2  0  0  0  0  0  0  0  0  0
  146.4923  139.8161  154.5215 C   0  0  0  0  0  0  0  0  0  0  0  0
  147.4115  140.4605  153.4681 C   0  0  0  0  0  0  0  0  0  0  0  0
  147.7275  141.9301  153.7963 C   0  0  2  0  0  0  0  0  0  0  0  0
  148.6223  142.0202  154.9510 N   0  0  0  0  0  0  0  0  0  0  0  0
  149.6707  141.2218  155.2005 C   0  0  0  0  0  0  0  0  0  0  0  0
  150.0165  140.2962  154.4672 O   0  0  0  0  0  0  0  0  0  0  0  0
  150.2815  141.5690  156.3446 N   0  0  0  0  0  0  0  0  0  0  0  0
  151.4108  140.9501  156.9366 C   0  0  0  0  0  0  0  0  0  0  0  0
  152.2366  139.9038  156.4297 C   0  0  0  0  0  0  0  0  0  0  0  0
  153.1992  139.5954  157.2871 N   0  0  0  0  0  0  0  0  0  0  0  0
  152.9964  140.4292  158.3319 N   0  0  0  0  0  0  0  0  0  0  0  0
  151.9188  141.2695  158.1605 C   0  0  0  0  0  0  0  0  0  0  0  0
  146.4235  142.7049  154.0551 C   0  0  0  0  0  0  0  0  0  0  0  0
  145.5303  142.0036  155.0941 C   0  0  0  0  0  0  0  0  0  0  0  0
  153.5953  140.4124  159.1452 H   0  0  0  0  0  0  0  0  0  0  0  0
  143.1635  137.4327  153.5962 H   0  0  0  0  0  0  0  0  0  0  0  0
  143.2477  139.1622  153.3451 H   0  0  0  0  0  0  0  0  0  0  0  0
  143.3633  140.5240  155.6816 H   0  0  0  0  0  0  0  0  0  0  0  0
  144.6927  139.8444  156.5959 H   0  0  0  0  0  0  0  0  0  0  0  0
  147.0082  139.7344  155.4796 H   0  0  0  0  0  0  0  0  0  0  0  0
  146.2500  138.8005  154.2068 H   0  0  0  0  0  0  0  0  0  0  0  0
  148.3347  139.8872  153.3731 H   0  0  0  0  0  0  0  0  0  0  0  0
  146.9236  140.4100  152.4936 H   0  0  0  0  0  0  0  0  0  0  0  0
  148.2113  142.3707  152.9232 H   0  0  0  0  0  0  0  0  0  0  0  0
  148.4252  142.7502  155.6193 H   0  0  0  0  0  0  0  0  0  0  0  0
  149.8983  142.3562  156.8470 H   0  0  0  0  0  0  0  0  0  0  0  0
  152.1788  139.3648  155.4958 H   0  0  0  0  0  0  0  0  0  0  0  0
  151.6197  141.9963  158.9014 H   0  0  0  0  0  0  0  0  0  0  0  0
  146.6460  143.7233  154.3767 H   0  0  0  0  0  0  0  0  0  0  0  0
  145.8713  142.7976  153.1189 H   0  0  0  0  0  0  0  0  0  0  0  0
  144.6009  142.5640  155.1968 H   0  0  0  0  0  0  0  0  0  0  0  0
  146.0099  142.0137  156.0741 H   0  0  0  0  0  0  0  0  0  0  0  0
  144.8022  140.6361  153.7858 H   0  0  0  0  0  0  0  0  0  0  0  0
  1  2  1  0  0  0  0
  1 21  1  0  0  0  0
  1 22  1  0  0  0  0
  2  3  2  0  0  0  0
  2  4  1  0  0  0  0
  4  5  1  0  0  0  0
  4 23  1  0  0  0  0
  4 24  1  0  0  0  0
  5 19  1  0  0  0  0
  5  6  1  0  0  0  0
  5 38  1  0  0  0  0
  6  7  1  0  0  0  0
  6 25  1  0  0  0  0
  6 26  1  0  0  0  0
  7  8  1  0  0  0  0
  7 27  1  0  0  0  0
  7 28  1  0  0  0  0
  8  9  1  0  0  0  0
  8 18  1  0  0  0  0
  8 29  1  0  0  0  0
  9 10  1  0  0  0  0
  9 30  1  0  0  0  0
 10 11  2  0  0  0  0
 10 12  1  0  0  0  0
 12 13  1  0  0  0  0
 12 31  1  0  0  0  0
 13 17  2  0  0  0  0
 13 14  1  0  0  0  0
 14 15  2  0  0  0  0
 14 32  1  0  0  0  0
 15 16  1  0  0  0  0
 16 20  1  0  0  0  0
 16 17  1  0  0  0  0
 17 33  1  0  0  0  0
 18 19  1  0  0  0  0
 18 34  1  0  0  0  0
 18 35  1  0  0  0  0
 19 36  1  0  0  0  0
 19 37  1  0  0  0  0
M  CHG  1   5   1
M  END
> <s_m_source_file>
AV-unprocessed.smi

> <i_m_source_file_index>
1399

> <i_lp_mmshare_version>
43012

> <i_f3d_flags>
0

> <s_epik_input>
W05IMl1DKD1PKVtDSDJdTjFbQ0gyXVtDSDJdW0NIXShbQ0gyXVtDSDJdMSlbTkhdQyg9TylbTkhdYzJbY0hdbltuSF1bY0hdMg==

> <s_epik_cmdline>
J2VwaWtfcHl0aG9uJywgJy1waCcsICc3LjAnLCAnLXRuJywgJzgnLCAnLW1hJywgJzIwMCcsICctbWV0YWxfYmluZGluZycsICctaW1hZScsICc8aW5maWxlLm1hZT4nLCAnLW9tYWUnLCAnPG91dGZpbGUubWFlPic=

> <r_lp_tautomer_probability>
0.5

> <r_epik_Ionization_Penalty>
0.838927

> <r_epik_Ionization_Penalty_Charging>
0.838844

> <r_epik_Ionization_Penalty_Neutral>
8.28742e-05

> <r_epik_State_Penalty>
0.8734

> <r_epik_Charging_Adjusted_Penalty>
1.71224

> <i_epik_Tot_Q>
1

> <i_epik_Tot_abs_Q>
1

> <r_epik_Metal_State_Penalty>
0.890702

> <b_epik_Metal_Only>
0

> <s_lp_Force_Field>
OPLS_2005

> <r_lp_Energy>
14.6422

> <b_lp_Chiralities_Consistent>
1

> <s_lp_Variant>
AV-unprocessed.smi:1399-3

> <Gold.Version>
5.8.1

> <Gold.Id.Protein>
6NUR|6NUR_protein|mol2

> <Gold.PLP.Fitness>
43.3031

> <Gold.PLP.PLP>
-26.9679

> <Gold.PLP.part.hbond>
-4.9207

> <Gold.PLP.part.metal>
0.0000

> <Gold.PLP.part.buried>
-2.2579

> <Gold.PLP.part.nonpolar>
-18.7363

> <Gold.PLP.part.repulsive>
1.1855

> <Gold.PLP.ligand.clash>
0.0000

> <Gold.PLP.ligand.torsion>
0.2707

> <Gold.PLP.Chemscore.Hbond>
5.6160

> <Gold.PLP.Chemscore.CHOScore>
0.0000

> <Gold.PLP.Chemscore.Metal>
0.0000

> <Gold.Chemscore.Hbonds>
donor molecule, donor type, donor heavy atom, donor atom, acceptor molecule, acceptor atom, score
      L1  H     1    22       P1 10175  1.00
      L1  H     5    38       P1 10175  2.00
      L1  H     9    30       P1  8028  0.64
      P1  H  7989  7998       L1    11  0.96
      P1  H  7997  8009       L1    15  0.81

> <Gold.PLP.Chemscore.Internal.Correction>
0.0286

> <Gold.Rescore>
     Score         DG    S(hbond)    S(metal)    S(lipo)     H(rot)  DE(clash)    DE(int)     intcor
     15.18     -18.03       3.65        0.00      48.76       2.09       0.19       2.66       ----

> <Gold.Chemscore.Fitness>
15.1785

> <Gold.Chemscore.DG>
-18.0323

> <Gold.Chemscore.ZeroCoef>
-5.4800

> <Gold.Chemscore.Hbond>
3.6492

> <Gold.Chemscore.Metal>
0.0000

> <Gold.Chemscore.Lipo>
48.7649

> <Gold.Chemscore.Internal_Hbond>
0.0000

> <Gold.Chemscore.DEClash>
0.1919

> <Gold.Chemscore.DEInternal>
2.6619

> <Gold.Chemscore.Rot>
2.0865

> <Gold.Chemscore.Internal.Correction>
   9.000000E+99

> <Gold.Chemscore.Hbonds>
donor molecule, donor type, donor heavy atom, donor atom, acceptor molecule, acceptor atom, score
      L1  H     1    22       P1 10175  0.97
      L1  H     5    38       P1 10175  0.99
      L1  H     9    30       P1  8028  0.61
      P1  H  7989  7998       L1    11  0.59
      P1  H  7997  8009       L1    15  0.12

> <Gold.Chemscore.Hbond.Weighted>
-12.1883

> <Gold.Chemscore.Metal.Weighted>
-0.0000

> <Gold.Chemscore.Lipo.Weighted>
-5.7055

> <Gold.Chemscore.Internal_Hbond.Weighted>
0.0000

> <Gold.Chemscore.DEClash.Weighted>
0.1919

> <Gold.Chemscore.DEInternal.Weighted>
2.6619

> <Gold.Chemscore.Rot.Weighted>
5.3415

> <Gold.Chemscore.Internal.Correction.Weighted>
   9.000000E+99

> <Gold.Protein.RotatedTorsions>
[ 6907 6896 6895 6894 ] final  -21.43 input  -60.11 | X-H torsion
[ 7974 7965 7964 7962 ] final   12.61 input  175.53 | X-H torsion
[ 8008 7997 7996 7995 ] final -173.65 input   59.86 | X-H torsion
[ 10167 10162 10161 10158 ] final  -82.62 input  -65.29 | X-H torsion
[ 10718 10713 10712 10709 ] final  -54.46 input   66.30 | X-H torsion
[ 10763 10752 10751 10750 ] final -107.83 input  -60.55 | X-H torsion
[ 11005 11000 10999 10996 ] final  130.02 input  -57.11 | X-H torsion

> <Gold.Protein.ActiveResidues>
 VAL166  LYS551  ARG553  GLY616  TRP617  ASP618  TYR619  PRO620  LYS621  CYS622 
 ASP623  PHE694  ASN695  SER759  ASP760  ASP761  ALA762  ILE779  LEU786  VAL792 
 PHE793  MET794  SER795  GLU796  ALA797  LYS798  CYS799  TRP800  GLU811  SER814 

> <Gold.Protein.RotatedAtoms>
  151.2335  135.0563  159.8996 H   0  0  0  0  0  0  0  0  0  0  0  0  # atno 6907 bound_to 6896
  152.5402  134.0511  159.8121 H   0  0  0  0  0  0  0  0  0  0  0  0  # atno 6908 bound_to 6896
  151.0694  133.5429  159.2659 H   0  0  0  0  0  0  0  0  0  0  0  0  # atno 6909 bound_to 6896
  146.2347  139.9311  142.8496 H   0  0  0  0  0  0  0  0  0  0  0  0  # atno 7974 bound_to 7965
  155.9602  140.1143  157.0902 H   0  0  0  0  0  0  0  0  0  0  0  0  # atno 8008 bound_to 7997
  154.4130  140.1183  156.5235 H   0  0  0  0  0  0  0  0  0  0  0  0  # atno 8009 bound_to 7997
  155.6730  140.3473  155.4828 H   0  0  0  0  0  0  0  0  0  0  0  0  # atno 8010 bound_to 7997
  140.4302  143.2551  151.8769 H   0  0  0  0  0  0  0  0  0  0  0  0  # atno 10167 bound_to 10162
  156.1449  130.4153  150.0041 H   0  0  0  0  0  0  0  0  0  0  0  0  # atno 10718 bound_to 10713
  154.8099  135.4660  154.0488 H   0  0  0  0  0  0  0  0  0  0  0  0  # atno 10763 bound_to 10752
  153.1928  135.6857  153.8338 H   0  0  0  0  0  0  0  0  0  0  0  0  # atno 10764 bound_to 10752
  153.7850  135.3251  155.3348 H   0  0  0  0  0  0  0  0  0  0  0  0  # atno 10765 bound_to 10752
  139.9648  134.9593  156.9234 H   0  0  0  0  0  0  0  0  0  0  0  0  # atno 11005 bound_to 11000
  145.2044  140.9868  143.4137 LP  0  0  0  0  0  0  0  0  0  0  0  0  # atno 17320 bound_to 7965
  144.9746  139.3845  143.6292 LP  0  0  0  0  0  0  0  0  0  0  0  0  # atno 17321 bound_to 7965
  139.4784  144.5342  151.8622 LP  0  0  0  0  0  0  0  0  0  0  0  0  # atno 17342 bound_to 10162
  140.4435  144.1953  150.5892 LP  0  0  0  0  0  0  0  0  0  0  0  0  # atno 17343 bound_to 10162
  156.7916  130.9258  151.3646 LP  0  0  0  0  0  0  0  0  0  0  0  0  # atno 17370 bound_to 10713
  157.6608  130.8964  149.9825 LP  0  0  0  0  0  0  0  0  0  0  0  0  # atno 17371 bound_to 10713
  140.5420  134.0711  155.7344 LP  0  0  0  0  0  0  0  0  0  0  0  0  # atno 17394 bound_to 11000
  141.1328  133.9273  157.2500 LP  0  0  0  0  0  0  0  0  0  0  0  0  # atno 17395 bound_to 11000

$$$$
