AV-unprocessed.smi:2114|AV-procd|sdf|8622|dock5
  -GOLD-   2272011363D 1   1.00000     0.00000
 Structure written by MMmdl.
 47 48  0  0  0  0  0  0  0  0  1 V2000
  146.0859  136.1776  154.6759 C   0  0  0  0  0  0  0  0  0  0  0  0
  147.0315  137.1486  154.2638 O   0  0  0  0  0  0  0  0  0  0  0  0
  146.4213  138.3460  153.8100 C   0  0  0  0  0  0  0  0  0  0  0  0
  147.5115  139.3396  153.3804 C   0  0  1  0  0  0  0  0  0  0  0  0
  146.9112  140.6420  152.8321 C   0  0  0  0  0  0  0  0  0  0  0  0
  148.3724  139.6446  154.5202 N   0  0  0  0  0  0  0  0  0  0  0  0
  149.1992  140.6982  154.6219 C   0  0  0  0  0  0  0  0  0  0  0  0
  149.3472  141.5431  153.7390 O   0  0  0  0  0  0  0  0  0  0  0  0
  150.0090  140.7569  155.8838 C   0  0  0  0  0  0  0  0  0  0  0  0
  150.0762  139.6605  156.7725 C   0  0  0  0  0  0  0  0  0  0  0  0
  150.8381  139.7811  157.9502 C   0  0  0  0  0  0  0  0  0  0  0  0
  151.5079  140.9954  158.2039 C   0  0  0  0  0  0  0  0  0  0  0  0
  152.2741  141.1168  159.3712 N   0  0  0  0  0  0  0  0  0  0  0  0
  153.2755  140.0720  159.5339 C   0  0  0  0  0  0  0  0  0  0  0  0
  153.9301  140.1843  160.9222 C   0  0  1  0  0  0  0  0  0  0  0  0
  155.0644  139.1703  161.1048 C   0  0  0  0  0  0  0  0  0  0  0  0
  154.4749  141.4948  161.0826 O   0  0  0  0  0  0  0  0  0  0  0  0
  153.5348  142.5614  160.9233 C   0  0  2  0  0  0  0  0  0  0  0  0
  152.5591  142.6529  162.1097 C   0  0  0  0  0  0  0  0  0  0  0  0
  152.8302  142.4505  159.5563 C   0  0  0  0  0  0  0  0  0  0  0  0
  151.4369  142.0564  157.3653 N   0  0  0  0  0  0  0  0  0  0  0  0
  150.6999  141.9359  156.2403 C   0  0  0  0  0  0  0  0  0  0  0  0
  146.6054  135.2822  155.0173 H   0  0  0  0  0  0  0  0  0  0  0  0
  145.4285  135.8921  153.8537 H   0  0  0  0  0  0  0  0  0  0  0  0
  145.4753  136.5472  155.5006 H   0  0  0  0  0  0  0  0  0  0  0  0
  145.7702  138.1211  152.9637 H   0  0  0  0  0  0  0  0  0  0  0  0
  145.7987  138.7775  154.5958 H   0  0  0  0  0  0  0  0  0  0  0  0
  148.0900  138.8746  152.5800 H   0  0  0  0  0  0  0  0  0  0  0  0
  146.2791  140.4474  151.9653 H   0  0  0  0  0  0  0  0  0  0  0  0
  147.6939  141.3335  152.5184 H   0  0  0  0  0  0  0  0  0  0  0  0
  146.3013  141.1461  153.5826 H   0  0  0  0  0  0  0  0  0  0  0  0
  148.3473  138.9924  155.2904 H   0  0  0  0  0  0  0  0  0  0  0  0
  149.5537  138.7377  156.5657 H   0  0  0  0  0  0  0  0  0  0  0  0
  150.9079  138.9550  158.6427 H   0  0  0  0  0  0  0  0  0  0  0  0
  152.8083  139.0933  159.4158 H   0  0  0  0  0  0  0  0  0  0  0  0
  154.0341  140.1644  158.7551 H   0  0  0  0  0  0  0  0  0  0  0  0
  153.1844  139.9991  161.6957 H   0  0  0  0  0  0  0  0  0  0  0  0
  154.6979  138.1487  161.0008 H   0  0  0  0  0  0  0  0  0  0  0  0
  155.5131  139.2625  162.0941 H   0  0  0  0  0  0  0  0  0  0  0  0
  155.8522  139.3212  160.3660 H   0  0  0  0  0  0  0  0  0  0  0  0
  154.1176  143.4827  160.9227 H   0  0  0  0  0  0  0  0  0  0  0  0
  151.9453  143.5510  162.0359 H   0  0  0  0  0  0  0  0  0  0  0  0
  153.1007  142.7008  163.0545 H   0  0  0  0  0  0  0  0  0  0  0  0
  151.8810  141.8009  162.1544 H   0  0  0  0  0  0  0  0  0  0  0  0
  153.5482  142.6506  158.7595 H   0  0  0  0  0  0  0  0  0  0  0  0
  152.0439  143.2019  159.4718 H   0  0  0  0  0  0  0  0  0  0  0  0
  150.6724  142.8085  155.6037 H   0  0  0  0  0  0  0  0  0  0  0  0
  1  2  1  0  0  0  0
  1 23  1  0  0  0  0
  1 24  1  0  0  0  0
  1 25  1  0  0  0  0
  2  3  1  0  0  0  0
  3  4  1  0  0  0  0
  3 26  1  0  0  0  0
  3 27  1  0  0  0  0
  4  5  1  0  0  0  0
  4  6  1  0  0  0  0
  4 28  1  0  0  0  0
  5 29  1  0  0  0  0
  5 30  1  0  0  0  0
  5 31  1  0  0  0  0
  6  7  1  0  0  0  0
  6 32  1  0  0  0  0
  7  8  2  0  0  0  0
  7  9  1  0  0  0  0
  9 22  1  0  0  0  0
  9 10  2  0  0  0  0
 10 11  1  0  0  0  0
 10 33  1  0  0  0  0
 11 12  2  0  0  0  0
 11 34  1  0  0  0  0
 12 13  1  0  0  0  0
 12 21  1  0  0  0  0
 13 20  1  0  0  0  0
 13 14  1  0  0  0  0
 14 15  1  0  0  0  0
 14 35  1  0  0  0  0
 14 36  1  0  0  0  0
 15 16  1  0  0  0  0
 15 17  1  0  0  0  0
 15 37  1  0  0  0  0
 16 38  1  0  0  0  0
 16 39  1  0  0  0  0
 16 40  1  0  0  0  0
 17 18  1  0  0  0  0
 18 19  1  0  0  0  0
 18 20  1  0  0  0  0
 18 41  1  0  0  0  0
 19 42  1  0  0  0  0
 19 43  1  0  0  0  0
 19 44  1  0  0  0  0
 20 45  1  0  0  0  0
 20 46  1  0  0  0  0
 21 22  2  0  0  0  0
 22 47  1  0  0  0  0
M  END
> <s_m_source_file>
AV-unprocessed.smi

> <i_m_source_file_index>
2114

> <i_lp_mmshare_version>
43012

> <i_f3d_flags>
0

> <s_epik_input>
W0NIM11PW0NIMl1bQ0BIXShbQ0gzXSlbTkhdQyg9TyljMVtjSF1bY0hdYyhuW2NIXTEpTjJbQ0gyXVtDQEBIXShbQ0gzXSlPW0NAQEhdKFtDSDNdKVtDSDJdMg==

> <s_epik_cmdline>
J2VwaWtfcHl0aG9uJywgJy1waCcsICc3LjAnLCAnLXRuJywgJzgnLCAnLW1hJywgJzIwMCcsICctbWV0YWxfYmluZGluZycsICctaW1hZScsICc8aW5maWxlLm1hZT4nLCAnLW9tYWUnLCAnPG91dGZpbGUubWFlPic=

> <r_lp_tautomer_probability>
1

> <r_epik_Ionization_Penalty>
1.92915e-05

> <r_epik_Ionization_Penalty_Charging>
0

> <r_epik_Ionization_Penalty_Neutral>
1.92915e-05

> <r_epik_State_Penalty>
-0

> <r_epik_Charging_Adjusted_Penalty>
0

> <i_epik_Tot_Q>
0

> <i_epik_Tot_abs_Q>
0

> <r_epik_Metal_State_Penalty>
-0

> <b_epik_Metal_Only>
0

> <s_lp_Force_Field>
OPLS_2005

> <r_lp_Energy>
24.377

> <b_lp_Chiralities_Consistent>
1

> <s_lp_Variant>
AV-unprocessed.smi:2114-6

> <Gold.Version>
5.8.1

> <Gold.Id.Protein>
6NUR|6NUR_protein|mol2

> <Gold.PLP.Fitness>
39.7033

> <Gold.PLP.PLP>
-35.3784

> <Gold.PLP.part.hbond>
-3.0000

> <Gold.PLP.part.metal>
0.0000

> <Gold.PLP.part.buried>
-2.4713

> <Gold.PLP.part.nonpolar>
-30.1149

> <Gold.PLP.part.repulsive>
0.5524

> <Gold.PLP.ligand.clash>
0.0000

> <Gold.PLP.ligand.torsion>
0.4067

> <Gold.PLP.Chemscore.Hbond>
0.6720

> <Gold.PLP.Chemscore.CHOScore>
1.0000

> <Gold.PLP.Chemscore.Metal>
0.0000

> <Gold.Chemscore.Hbonds>
donor molecule, donor type, donor heavy atom, donor atom, acceptor molecule, acceptor atom, score
      P1  H  7989  7998       L1     8  0.02
      P1  H  8011  8017       L1     8  0.74
      L1  C    22    47       P1  8028  0.76

> <Gold.PLP.Chemscore.Internal.Correction>
0.1223

> <Gold.Rescore>
     Score         DG    S(hbond)    S(metal)    S(lipo)     H(rot)  DE(clash)    DE(int)     intcor
     12.96     -16.33       1.03        0.00      96.74       1.52       1.82       1.55       ----

> <Gold.Chemscore.Fitness>
12.9568

> <Gold.Chemscore.DG>
-16.3283

> <Gold.Chemscore.ZeroCoef>
-5.4800

> <Gold.Chemscore.Hbond>
1.0264

> <Gold.Chemscore.Metal>
0.0000

> <Gold.Chemscore.Lipo>
96.7368

> <Gold.Chemscore.Internal_Hbond>
0.0000

> <Gold.Chemscore.DEClash>
1.8210

> <Gold.Chemscore.DEInternal>
1.5506

> <Gold.Chemscore.Rot>
1.5226

> <Gold.Chemscore.Internal.Correction>
   9.000000E+99

> <Gold.Chemscore.Hbonds>
donor molecule, donor type, donor heavy atom, donor atom, acceptor molecule, acceptor atom, score
      P1  H  8011  8017       L1     8  0.74

> <Gold.Chemscore.Hbond.Weighted>
-3.4280

> <Gold.Chemscore.Metal.Weighted>
-0.0000

> <Gold.Chemscore.Lipo.Weighted>
-11.3182

> <Gold.Chemscore.Internal_Hbond.Weighted>
0.0000

> <Gold.Chemscore.DEClash.Weighted>
1.8210

> <Gold.Chemscore.DEInternal.Weighted>
1.5506

> <Gold.Chemscore.Rot.Weighted>
3.8980

> <Gold.Chemscore.Internal.Correction.Weighted>
   9.000000E+99

> <Gold.Protein.RotatedTorsions>
[ 6907 6896 6895 6894 ] final -138.02 input  -60.11 | X-H torsion
[ 7974 7965 7964 7962 ] final  -49.63 input  175.53 | X-H torsion
[ 8008 7997 7996 7995 ] final  -13.30 input   59.86 | X-H torsion
[ 10167 10162 10161 10158 ] final   43.92 input  -65.29 | X-H torsion
[ 10718 10713 10712 10709 ] final   18.22 input   66.30 | X-H torsion
[ 10763 10752 10751 10750 ] final -154.41 input  -60.55 | X-H torsion
[ 11005 11000 10999 10996 ] final   49.37 input  -57.11 | X-H torsion

> <Gold.Protein.ActiveResidues>
 VAL166  LYS551  ARG553  GLY616  TRP617  ASP618  TYR619  PRO620  LYS621  CYS622 
 ASP623  PHE694  ASN695  SER759  ASP760  ASP761  ALA762  ILE779  LEU786  VAL792 
 PHE793  MET794  SER795  GLU796  ALA797  LYS798  CYS799  TRP800  GLU811  SER814 

> <Gold.Protein.RotatedAtoms>
  151.0298  133.5801  159.2661 H   0  0  0  0  0  0  0  0  0  0  0  0  # atno 6907 bound_to 6896
  151.2887  135.0734  159.9206 H   0  0  0  0  0  0  0  0  0  0  0  0  # atno 6908 bound_to 6896
  152.5342  134.0000  159.7944 H   0  0  0  0  0  0  0  0  0  0  0  0  # atno 6909 bound_to 6896
  145.9385  140.7684  142.9564 H   0  0  0  0  0  0  0  0  0  0  0  0  # atno 7974 bound_to 7965
  154.5304  140.2253  155.8814 H   0  0  0  0  0  0  0  0  0  0  0  0  # atno 8008 bound_to 7997
  156.1758  140.3111  155.9020 H   0  0  0  0  0  0  0  0  0  0  0  0  # atno 8009 bound_to 7997
  155.3463  140.0453  157.3036 H   0  0  0  0  0  0  0  0  0  0  0  0  # atno 8010 bound_to 7997
  140.3395  144.2488  150.6157 H   0  0  0  0  0  0  0  0  0  0  0  0  # atno 10167 bound_to 10162
  157.0932  130.6436  149.5854 H   0  0  0  0  0  0  0  0  0  0  0  0  # atno 10718 bound_to 10713
  154.7860  135.3190  154.7884 H   0  0  0  0  0  0  0  0  0  0  0  0  # atno 10763 bound_to 10752
  153.8584  135.6855  153.4789 H   0  0  0  0  0  0  0  0  0  0  0  0  # atno 10764 bound_to 10752
  153.1513  135.4698  154.9579 H   0  0  0  0  0  0  0  0  0  0  0  0  # atno 10765 bound_to 10752
  140.1110  134.4955  155.8678 H   0  0  0  0  0  0  0  0  0  0  0  0  # atno 11005 bound_to 11000
  144.6775  140.2242  143.7363 LP  0  0  0  0  0  0  0  0  0  0  0  0  # atno 17320 bound_to 7965
  145.8331  139.2095  143.1871 LP  0  0  0  0  0  0  0  0  0  0  0  0  # atno 17321 bound_to 7965
  140.5322  143.2241  151.8219 LP  0  0  0  0  0  0  0  0  0  0  0  0  # atno 17342 bound_to 10162
  139.4843  144.4705  151.9430 LP  0  0  0  0  0  0  0  0  0  0  0  0  # atno 17343 bound_to 10162
  155.9892  130.4939  150.7206 LP  0  0  0  0  0  0  0  0  0  0  0  0  # atno 17370 bound_to 10713
  157.4703  131.0892  151.0649 LP  0  0  0  0  0  0  0  0  0  0  0  0  # atno 17371 bound_to 10713
  141.2130  133.6727  156.6704 LP  0  0  0  0  0  0  0  0  0  0  0  0  # atno 17394 bound_to 11000
  140.3092  134.8100  157.4162 LP  0  0  0  0  0  0  0  0  0  0  0  0  # atno 17395 bound_to 11000

$$$$
