AV-unprocessed.smi:2186|AV-procd|sdf|8877|dock8
  -GOLD-   2272012 73D 1   1.00000     0.00000
 Structure written by MMmdl.
 44 45  0  0  0  0  0  0  0  0  2 V2000
  150.3326  141.9853  158.5478 C   0  0  0  0  0  0  0  0  0  0  0  0
  151.3385  142.0035  157.3880 C   0  0  0  0  0  0  0  0  0  0  0  0
  151.6665  143.4215  156.8964 C   0  0  0  0  0  0  0  0  0  0  0  0
  150.9204  141.1085  156.2646 C   0  0  0  0  0  0  0  0  0  0  0  0
  151.5879  140.0071  155.9108 N   0  0  0  0  0  0  0  0  0  0  0  0
  150.9748  139.3106  154.8626 C   0  0  0  0  0  0  0  0  0  0  0  0
  151.5627  138.0183  154.3632 C   0  0  0  0  0  0  0  0  0  0  0  0
  150.7404  136.8213  154.8522 C   0  0  0  0  0  0  0  0  0  0  0  0
  151.2776  135.9336  155.5143 O   0  0  0  0  0  0  0  0  0  0  0  0
  149.4330  136.8214  154.5452 N   0  0  0  0  0  0  0  0  0  0  0  0
  148.4566  135.8704  155.0592 C   0  0  0  0  0  0  0  0  0  0  0  0
  147.0447  136.2106  154.5430 C   0  0  0  0  0  0  0  0  0  0  0  0
  146.7340  135.5601  153.2461 N   0  3  0  0  0  0  0  0  0  0  0  0
  146.7520  134.0807  153.3448 C   0  0  0  0  0  0  0  0  0  0  0  0
  146.4743  133.4440  151.9729 C   0  0  0  0  0  0  0  0  0  0  0  0
  145.2236  133.9069  151.4800 O   0  0  0  0  0  0  0  0  0  0  0  0
  145.2164  135.3163  151.2924 C   0  0  0  0  0  0  0  0  0  0  0  0
  145.4612  136.0219  152.6377 C   0  0  0  0  0  0  0  0  0  0  0  0
  149.8374  139.9270  154.4027 C   0  0  0  0  0  0  0  0  0  0  0  0
  149.4846  141.3872  155.2860 S   0  0  0  0  0  0  0  0  0  0  0  0
  150.1832  140.9715  158.9211 H   0  0  0  0  0  0  0  0  0  0  0  0
  149.3616  142.3723  158.2375 H   0  0  0  0  0  0  0  0  0  0  0  0
  150.6824  142.5957  159.3807 H   0  0  0  0  0  0  0  0  0  0  0  0
  152.2685  141.5904  157.7806 H   0  0  0  0  0  0  0  0  0  0  0  0
  152.4435  143.4015  156.1315 H   0  0  0  0  0  0  0  0  0  0  0  0
  152.0228  144.0482  157.7142 H   0  0  0  0  0  0  0  0  0  0  0  0
  150.7887  143.9052  156.4661 H   0  0  0  0  0  0  0  0  0  0  0  0
  151.5927  138.0000  153.2732 H   0  0  0  0  0  0  0  0  0  0  0  0
  152.5940  137.9152  154.7031 H   0  0  0  0  0  0  0  0  0  0  0  0
  149.0790  137.5849  153.9867 H   0  0  0  0  0  0  0  0  0  0  0  0
  148.7648  134.8795  154.7278 H   0  0  0  0  0  0  0  0  0  0  0  0
  148.4774  135.8570  156.1502 H   0  0  0  0  0  0  0  0  0  0  0  0
  146.3169  135.8742  155.2832 H   0  0  0  0  0  0  0  0  0  0  0  0
  146.9152  137.2908  154.4562 H   0  0  0  0  0  0  0  0  0  0  0  0
  147.7217  133.7445  153.7139 H   0  0  0  0  0  0  0  0  0  0  0  0
  146.0023  133.7527  154.0667 H   0  0  0  0  0  0  0  0  0  0  0  0
  147.2701  133.6796  151.2640 H   0  0  0  0  0  0  0  0  0  0  0  0
  146.4389  132.3582  152.0625 H   0  0  0  0  0  0  0  0  0  0  0  0
  145.9716  135.6019  150.5583 H   0  0  0  0  0  0  0  0  0  0  0  0
  144.2493  135.6117  150.8850 H   0  0  0  0  0  0  0  0  0  0  0  0
  144.6343  135.8171  153.3196 H   0  0  0  0  0  0  0  0  0  0  0  0
  145.4832  137.0987  152.4751 H   0  0  0  0  0  0  0  0  0  0  0  0
  149.1819  139.6074  153.6060 H   0  0  0  0  0  0  0  0  0  0  0  0
  147.4775  135.8111  152.6101 H   0  0  0  0  0  0  0  0  0  0  0  0
  1  2  1  0  0  0  0
  1 21  1  0  0  0  0
  1 22  1  0  0  0  0
  1 23  1  0  0  0  0
  2  3  1  0  0  0  0
  2  4  1  0  0  0  0
  2 24  1  0  0  0  0
  3 25  1  0  0  0  0
  3 26  1  0  0  0  0
  3 27  1  0  0  0  0
  4 20  1  0  0  0  0
  4  5  2  0  0  0  0
  5  6  1  0  0  0  0
  6  7  1  0  0  0  0
  6 19  2  0  0  0  0
  7  8  1  0  0  0  0
  7 28  1  0  0  0  0
  7 29  1  0  0  0  0
  8  9  2  0  0  0  0
  8 10  1  0  0  0  0
 10 11  1  0  0  0  0
 10 30  1  0  0  0  0
 11 12  1  0  0  0  0
 11 31  1  0  0  0  0
 11 32  1  0  0  0  0
 12 13  1  0  0  0  0
 12 33  1  0  0  0  0
 12 34  1  0  0  0  0
 13 18  1  0  0  0  0
 13 14  1  0  0  0  0
 13 44  1  0  0  0  0
 14 15  1  0  0  0  0
 14 35  1  0  0  0  0
 14 36  1  0  0  0  0
 15 16  1  0  0  0  0
 15 37  1  0  0  0  0
 15 38  1  0  0  0  0
 16 17  1  0  0  0  0
 17 18  1  0  0  0  0
 17 39  1  0  0  0  0
 17 40  1  0  0  0  0
 18 41  1  0  0  0  0
 18 42  1  0  0  0  0
 19 20  1  0  0  0  0
 19 43  1  0  0  0  0
M  CHG  1  13   1
M  END
> <s_m_source_file>
AV-unprocessed.smi

> <i_m_source_file_index>
2186

> <i_lp_mmshare_version>
43012

> <i_f3d_flags>
0

> <s_epik_input>
W0NIM11bQ0hdKFtDSDNdKWMxbmMoW2NIXXMxKVtDSDJdQyg9TylbTkhdW0NIMl1bQ0gyXU4yW0NIMl1bQ0gyXU9bQ0gyXVtDSDJdMg==

> <s_epik_cmdline>
J2VwaWtfcHl0aG9uJywgJy1waCcsICc3LjAnLCAnLXRuJywgJzgnLCAnLW1hJywgJzIwMCcsICctbWV0YWxfYmluZGluZycsICctaW1hZScsICc8aW5maWxlLm1hZT4nLCAnLW9tYWUnLCAnPG91dGZpbGUubWFlPic=

> <r_epik_Ionization_Penalty>
0.678862

> <r_epik_Ionization_Penalty_Charging>
0.678842

> <r_epik_Ionization_Penalty_Neutral>
2.00527e-05

> <r_epik_State_Penalty>
0.699693

> <r_epik_Charging_Adjusted_Penalty>
1.37854

> <i_epik_Tot_Q>
1

> <i_epik_Tot_abs_Q>
1

> <r_epik_Metal_State_Penalty>
0.699708

> <b_epik_Metal_Only>
0

> <s_lp_Force_Field>
OPLS_2005

> <r_lp_Energy>
6.68048

> <b_lp_Chiralities_Consistent>
1

> <s_lp_Variant>
AV-unprocessed.smi:2186-2

> <Gold.Version>
5.8.1

> <Gold.Id.Protein>
6NUR|6NUR_protein|mol2

> <Gold.PLP.Fitness>
43.7510

> <Gold.PLP.PLP>
-32.5799

> <Gold.PLP.part.hbond>
-3.0000

> <Gold.PLP.part.metal>
0.0000

> <Gold.PLP.part.buried>
-1.8785

> <Gold.PLP.part.nonpolar>
-27.3328

> <Gold.PLP.part.repulsive>
0.2100

> <Gold.PLP.ligand.clash>
0.0000

> <Gold.PLP.ligand.torsion>
0.4320

> <Gold.PLP.Chemscore.Hbond>
3.0000

> <Gold.PLP.Chemscore.CHOScore>
0.9707

> <Gold.PLP.Chemscore.Metal>
0.0000

> <Gold.Chemscore.Hbonds>
donor molecule, donor type, donor heavy atom, donor atom, acceptor molecule, acceptor atom, score
      L1  H    13    44       P1  7948  2.00
      P1  H 10752 10764       L1     9  1.00
      L1  C    19    43       P1  7957  0.89

> <Gold.PLP.Chemscore.Internal.Correction>
0.1231

> <Gold.Rescore>
     Score         DG    S(hbond)    S(metal)    S(lipo)     H(rot)  DE(clash)    DE(int)     intcor
     16.31     -17.20       1.92        0.00      85.24       1.82       0.46       0.43       ----

> <Gold.Chemscore.Fitness>
16.3100

> <Gold.Chemscore.DG>
-17.1962

> <Gold.Chemscore.ZeroCoef>
-5.4800

> <Gold.Chemscore.Hbond>
1.9181

> <Gold.Chemscore.Metal>
0.0000

> <Gold.Chemscore.Lipo>
85.2406

> <Gold.Chemscore.Internal_Hbond>
0.0000

> <Gold.Chemscore.DEClash>
0.4553

> <Gold.Chemscore.DEInternal>
0.4309

> <Gold.Chemscore.Rot>
1.8217

> <Gold.Chemscore.Internal.Correction>
   9.000000E+99

> <Gold.Chemscore.Hbonds>
donor molecule, donor type, donor heavy atom, donor atom, acceptor molecule, acceptor atom, score
      L1  H    13    44       P1  7948  1.00
      P1  H 10752 10764       L1     9  0.65

> <Gold.Chemscore.Hbond.Weighted>
-6.4066

> <Gold.Chemscore.Metal.Weighted>
-0.0000

> <Gold.Chemscore.Lipo.Weighted>
-9.9732

> <Gold.Chemscore.Internal_Hbond.Weighted>
0.0000

> <Gold.Chemscore.DEClash.Weighted>
0.4553

> <Gold.Chemscore.DEInternal.Weighted>
0.4309

> <Gold.Chemscore.Rot.Weighted>
4.6635

> <Gold.Chemscore.Internal.Correction.Weighted>
   9.000000E+99

> <Gold.Protein.RotatedTorsions>
[ 6907 6896 6895 6894 ] final  -34.06 input  -60.11 | X-H torsion
[ 7974 7965 7964 7962 ] final   70.81 input  175.53 | X-H torsion
[ 8008 7997 7996 7995 ] final  138.21 input   59.86 | X-H torsion
[ 10167 10162 10161 10158 ] final  160.85 input  -65.29 | X-H torsion
[ 10718 10713 10712 10709 ] final  156.17 input   66.30 | X-H torsion
[ 10763 10752 10751 10750 ] final  -51.58 input  -60.55 | X-H torsion
[ 11005 11000 10999 10996 ] final  -70.95 input  -57.11 | X-H torsion

> <Gold.Protein.ActiveResidues>
 VAL166  LYS551  ARG553  GLY616  TRP617  ASP618  TYR619  PRO620  LYS621  CYS622 
 ASP623  PHE694  ASN695  SER759  ASP760  ASP761  ALA762  ILE779  LEU786  VAL792 
 PHE793  MET794  SER795  GLU796  ALA797  LYS798  CYS799  TRP800  GLU811  SER814 

> <Gold.Protein.RotatedAtoms>
  151.0575  134.9714  159.8243 H   0  0  0  0  0  0  0  0  0  0  0  0  # atno 6907 bound_to 6896
  152.5390  134.2459  159.8890 H   0  0  0  0  0  0  0  0  0  0  0  0  # atno 6908 bound_to 6896
  151.2477  133.4323  159.2644 H   0  0  0  0  0  0  0  0  0  0  0  0  # atno 6909 bound_to 6896
  145.7736  139.2854  143.1307 H   0  0  0  0  0  0  0  0  0  0  0  0  # atno 7974 bound_to 7965
  156.2998  140.2399  156.4036 H   0  0  0  0  0  0  0  0  0  0  0  0  # atno 8008 bound_to 7997
  154.8504  140.0424  157.1620 H   0  0  0  0  0  0  0  0  0  0  0  0  # atno 8009 bound_to 7997
  154.9005  140.2976  155.5324 H   0  0  0  0  0  0  0  0  0  0  0  0  # atno 8010 bound_to 7997
  139.4843  144.4594  151.8725 H   0  0  0  0  0  0  0  0  0  0  0  0  # atno 10167 bound_to 10162
  157.2086  131.0692  151.1983 H   0  0  0  0  0  0  0  0  0  0  0  0  # atno 10718 bound_to 10713
  154.1289  135.6523  153.4918 H   0  0  0  0  0  0  0  0  0  0  0  0  # atno 10763 bound_to 10752
  153.0201  135.5288  154.7021 H   0  0  0  0  0  0  0  0  0  0  0  0  # atno 10764 bound_to 10752
  154.6250  135.2969  155.0253 H   0  0  0  0  0  0  0  0  0  0  0  0  # atno 10765 bound_to 10752
  141.1583  133.6804  156.6831 H   0  0  0  0  0  0  0  0  0  0  0  0  # atno 11005 bound_to 11000
  146.0145  140.8405  142.9954 LP  0  0  0  0  0  0  0  0  0  0  0  0  # atno 17320 bound_to 7965
  144.6808  140.2539  143.7328 LP  0  0  0  0  0  0  0  0  0  0  0  0  # atno 17321 bound_to 7965
  140.4055  144.2437  150.5891 LP  0  0  0  0  0  0  0  0  0  0  0  0  # atno 17342 bound_to 10162
  140.5016  143.2316  151.8670 LP  0  0  0  0  0  0  0  0  0  0  0  0  # atno 17343 bound_to 10162
  157.3695  130.7173  149.6555 LP  0  0  0  0  0  0  0  0  0  0  0  0  # atno 17370 bound_to 10713
  155.9693  130.4203  150.4415 LP  0  0  0  0  0  0  0  0  0  0  0  0  # atno 17371 bound_to 10713
  140.3088  134.8103  157.4159 LP  0  0  0  0  0  0  0  0  0  0  0  0  # atno 17394 bound_to 11000
  140.1197  134.5236  155.8194 LP  0  0  0  0  0  0  0  0  0  0  0  0  # atno 17395 bound_to 11000

$$$$
