AV-unprocessed.smi:3350|AV-procd|sdf|12941|dock4
  -GOLD-   2272019373D 1   1.00000     0.00000
 Structure written by MMmdl.
 41 42  0  0  0  0  0  0  0  0  1 V2000
  146.7259  140.3799  153.8757 C   0  0  0  0  0  0  0  0  0  0  0  0
  147.8359  139.3427  154.0935 C   0  0  2  0  0  0  0  0  0  0  0  0
  149.2003  139.8643  153.5940 C   0  0  0  0  0  0  0  0  0  0  0  0
  150.3230  139.2131  154.2476 N   0  0  0  0  0  0  0  0  0  0  0  0
  150.5555  137.8637  154.4105 C   0  0  0  0  0  0  0  0  0  0  0  0
  151.7458  137.7325  155.0665 C   0  0  0  0  0  0  0  0  0  0  0  0
  152.1688  139.0755  155.2701 C   0  0  0  0  0  0  0  0  0  0  0  0
  151.3148  139.9596  154.7810 N   0  0  0  0  0  0  0  0  0  0  0  0
  147.4742  138.1027  153.4076 N   0  0  0  0  0  0  0  0  0  0  0  0
  146.2918  137.4777  153.5058 C   0  0  0  0  0  0  0  0  0  0  0  0
  145.3264  137.9182  154.1303 O   0  0  0  0  0  0  0  0  0  0  0  0
  146.3018  136.2977  152.8705 N   0  0  0  0  0  0  0  0  0  0  0  0
  145.2070  135.3306  152.8662 C   0  0  1  0  0  0  0  0  0  0  0  0
  144.0220  135.9411  152.1022 C   0  0  0  0  0  0  0  0  0  0  0  0
  145.6805  133.9990  152.2428 C   0  0  2  0  0  0  0  0  0  0  0  0
  146.1725  134.1072  150.7967 C   0  0  0  0  0  0  0  0  0  0  0  0
  145.8872  132.7355  150.2006 C   0  0  0  0  0  0  0  0  0  0  0  0
  145.0451  132.0332  151.2657 C   0  0  0  0  0  0  0  0  0  0  0  0
  144.6064  133.0786  152.1179 O   0  0  0  0  0  0  0  0  0  0  0  0
  146.9522  141.3102  154.3975 H   0  0  0  0  0  0  0  0  0  0  0  0
  145.7690  140.0171  154.2524 H   0  0  0  0  0  0  0  0  0  0  0  0
  146.6018  140.6134  152.8175 H   0  0  0  0  0  0  0  0  0  0  0  0
  147.9049  139.1668  155.1684 H   0  0  0  0  0  0  0  0  0  0  0  0
  149.2880  139.7319  152.5140 H   0  0  0  0  0  0  0  0  0  0  0  0
  149.2823  140.9355  153.7825 H   0  0  0  0  0  0  0  0  0  0  0  0
  149.8663  137.1183  154.0419 H   0  0  0  0  0  0  0  0  0  0  0  0
  152.2406  136.8172  155.3544 H   0  0  0  0  0  0  0  0  0  0  0  0
  153.0664  139.4319  155.7535 H   0  0  0  0  0  0  0  0  0  0  0  0
  148.2013  137.6552  152.8694 H   0  0  0  0  0  0  0  0  0  0  0  0
  147.1479  136.0255  152.3921 H   0  0  0  0  0  0  0  0  0  0  0  0
  144.8813  135.1471  153.8919 H   0  0  0  0  0  0  0  0  0  0  0  0
  143.1541  135.2815  152.1204 H   0  0  0  0  0  0  0  0  0  0  0  0
  144.2759  136.1278  151.0582 H   0  0  0  0  0  0  0  0  0  0  0  0
  143.7168  136.8892  152.5455 H   0  0  0  0  0  0  0  0  0  0  0  0
  146.4565  133.5453  152.8630 H   0  0  0  0  0  0  0  0  0  0  0  0
  145.6004  134.8626  150.2562 H   0  0  0  0  0  0  0  0  0  0  0  0
  147.2266  134.3798  150.7369 H   0  0  0  0  0  0  0  0  0  0  0  0
  145.3363  132.8347  149.2647 H   0  0  0  0  0  0  0  0  0  0  0  0
  146.8018  132.1788  149.9948 H   0  0  0  0  0  0  0  0  0  0  0  0
  144.2035  131.4829  150.8449 H   0  0  0  0  0  0  0  0  0  0  0  0
  145.6558  131.3359  151.8409 H   0  0  0  0  0  0  0  0  0  0  0  0
  1  2  1  0  0  0  0
  1 20  1  0  0  0  0
  1 21  1  0  0  0  0
  1 22  1  0  0  0  0
  2  3  1  0  0  0  0
  2  9  1  0  0  0  0
  2 23  1  0  0  0  0
  3  4  1  0  0  0  0
  3 24  1  0  0  0  0
  3 25  1  0  0  0  0
  4  8  1  0  0  0  0
  4  5  1  0  0  0  0
  5  6  2  0  0  0  0
  5 26  1  0  0  0  0
  6  7  1  0  0  0  0
  6 27  1  0  0  0  0
  7  8  2  0  0  0  0
  7 28  1  0  0  0  0
  9 10  1  0  0  0  0
  9 29  1  0  0  0  0
 10 11  2  0  0  0  0
 10 12  1  0  0  0  0
 12 13  1  0  0  0  0
 12 30  1  0  0  0  0
 13 14  1  0  0  0  0
 13 15  1  0  0  0  0
 13 31  1  0  0  0  0
 14 32  1  0  0  0  0
 14 33  1  0  0  0  0
 14 34  1  0  0  0  0
 15 19  1  0  0  0  0
 15 16  1  0  0  0  0
 15 35  1  0  0  0  0
 16 17  1  0  0  0  0
 16 36  1  0  0  0  0
 16 37  1  0  0  0  0
 17 18  1  0  0  0  0
 17 38  1  0  0  0  0
 17 39  1  0  0  0  0
 18 19  1  0  0  0  0
 18 40  1  0  0  0  0
 18 41  1  0  0  0  0
M  END
> <s_m_source_file>
AV-unprocessed.smi

> <i_m_source_file_index>
3350

> <i_lp_mmshare_version>
43012

> <i_f3d_flags>
0

> <s_epik_input>
bjFbY0hdW2NIXVtjSF1uMVtDSDJdW0NAQEhdKFtDSDNdKVtOSF1DKD1PKVtOSF1bQ0BIXShbQ0gzXSlbQ0BASF0yW0NIMl1bQ0gyXVtDSDJdTzI=

> <s_epik_cmdline>
J2VwaWtfcHl0aG9uJywgJy1waCcsICc3LjAnLCAnLXRuJywgJzgnLCAnLW1hJywgJzIwMCcsICctbWV0YWxfYmluZGluZycsICctaW1hZScsICc8aW5maWxlLm1hZT4nLCAnLW9tYWUnLCAnPG91dGZpbGUubWFlPic=

> <r_lp_tautomer_probability>
1

> <r_epik_Ionization_Penalty>
6.42349e-05

> <r_epik_Ionization_Penalty_Charging>
0

> <r_epik_Ionization_Penalty_Neutral>
6.42349e-05

> <r_epik_State_Penalty>
-0

> <r_epik_Charging_Adjusted_Penalty>
0

> <i_epik_Tot_Q>
0

> <i_epik_Tot_abs_Q>
0

> <r_epik_Metal_State_Penalty>
-0

> <b_epik_Metal_Only>
0

> <s_lp_Force_Field>
OPLS_2005

> <r_lp_Energy>
14.9436

> <b_lp_Chiralities_Consistent>
1

> <s_lp_Variant>
AV-unprocessed.smi:3350-3

> <Gold.Version>
5.8.1

> <Gold.Id.Protein>
6NUR|6NUR_protein|mol2

> <Gold.PLP.Fitness>
40.1384

> <Gold.PLP.PLP>
-29.2426

> <Gold.PLP.part.hbond>
-3.0000

> <Gold.PLP.part.metal>
0.0000

> <Gold.PLP.part.buried>
-0.3524

> <Gold.PLP.part.nonpolar>
-26.3190

> <Gold.PLP.part.repulsive>
0.3349

> <Gold.PLP.ligand.clash>
0.0000

> <Gold.PLP.ligand.torsion>
0.5054

> <Gold.PLP.Chemscore.Hbond>
2.9500

> <Gold.PLP.Chemscore.CHOScore>
1.0000

> <Gold.PLP.Chemscore.Metal>
0.0000

> <Gold.Chemscore.Hbonds>
donor molecule, donor type, donor heavy atom, donor atom, acceptor molecule, acceptor atom, score
      L1  H     9    29       P1  7948  1.00
      L1  H    12    30       P1  7948  1.00
      P1  H  7989  7998       L1     8  0.95
      L1  C     5    26       P1  7948  1.00

> <Gold.PLP.Chemscore.Internal.Correction>
0.0566

> <Gold.Rescore>
     Score         DG    S(hbond)    S(metal)    S(lipo)     H(rot)  DE(clash)    DE(int)     intcor
     14.96     -18.60       2.61        0.00      77.47       1.82       1.74       1.90       ----

> <Gold.Chemscore.Fitness>
14.9564

> <Gold.Chemscore.DG>
-18.5958

> <Gold.Chemscore.ZeroCoef>
-5.4800

> <Gold.Chemscore.Hbond>
2.6079

> <Gold.Chemscore.Metal>
0.0000

> <Gold.Chemscore.Lipo>
77.4689

> <Gold.Chemscore.Internal_Hbond>
0.0000

> <Gold.Chemscore.DEClash>
1.7433

> <Gold.Chemscore.DEInternal>
1.8961

> <Gold.Chemscore.Rot>
1.8197

> <Gold.Chemscore.Internal.Correction>
   9.000000E+99

> <Gold.Chemscore.Hbonds>
donor molecule, donor type, donor heavy atom, donor atom, acceptor molecule, acceptor atom, score
      L1  H     9    29       P1  7948  0.98
      L1  H    12    30       P1  7948  0.98
      P1  H  7989  7998       L1     8  0.21

> <Gold.Chemscore.Hbond.Weighted>
-8.7102

> <Gold.Chemscore.Metal.Weighted>
-0.0000

> <Gold.Chemscore.Lipo.Weighted>
-9.0639

> <Gold.Chemscore.Internal_Hbond.Weighted>
0.0000

> <Gold.Chemscore.DEClash.Weighted>
1.7433

> <Gold.Chemscore.DEInternal.Weighted>
1.8961

> <Gold.Chemscore.Rot.Weighted>
4.6583

> <Gold.Chemscore.Internal.Correction.Weighted>
   9.000000E+99

> <Gold.Protein.RotatedTorsions>
[ 6907 6896 6895 6894 ] final  118.67 input  -60.11 | X-H torsion
[ 7974 7965 7964 7962 ] final   68.93 input  175.53 | X-H torsion
[ 8008 7997 7996 7995 ] final  153.82 input   59.86 | X-H torsion
[ 10167 10162 10161 10158 ] final -100.81 input  -65.29 | X-H torsion
[ 10718 10713 10712 10709 ] final -129.86 input   66.30 | X-H torsion
[ 10763 10752 10751 10750 ] final   70.31 input  -60.55 | X-H torsion
[ 11005 11000 10999 10996 ] final  174.77 input  -57.11 | X-H torsion

> <Gold.Protein.ActiveResidues>
 VAL166  LYS551  ARG553  GLY616  TRP617  ASP618  TYR619  PRO620  LYS621  CYS622 
 ASP623  PHE694  ASN695  SER759  ASP760  ASP761  ALA762  ILE779  LEU786  VAL792 
 PHE793  MET794  SER795  GLU796  ALA797  LYS798  CYS799  TRP800  GLU811  SER814 

> <Gold.Protein.RotatedAtoms>
  152.4527  133.7661  159.6772 H   0  0  0  0  0  0  0  0  0  0  0  0  # atno 6907 bound_to 6896
  150.8443  133.7876  159.3055 H   0  0  0  0  0  0  0  0  0  0  0  0  # atno 6908 bound_to 6896
  151.5491  135.1070  159.9997 H   0  0  0  0  0  0  0  0  0  0  0  0  # atno 6909 bound_to 6896
  145.7966  139.2961  143.1179 H   0  0  0  0  0  0  0  0  0  0  0  0  # atno 7974 bound_to 7965
  156.2562  140.1983  156.6550 H   0  0  0  0  0  0  0  0  0  0  0  0  # atno 8008 bound_to 7997
  154.6508  140.0572  156.9978 H   0  0  0  0  0  0  0  0  0  0  0  0  # atno 8009 bound_to 7997
  155.1421  140.3243  155.4452 H   0  0  0  0  0  0  0  0  0  0  0  0  # atno 8010 bound_to 7997
  140.2479  143.3493  152.0742 H   0  0  0  0  0  0  0  0  0  0  0  0  # atno 10167 bound_to 10162
  156.2087  130.6904  151.0625 H   0  0  0  0  0  0  0  0  0  0  0  0  # atno 10718 bound_to 10713
  153.0335  135.5178  154.7422 H   0  0  0  0  0  0  0  0  0  0  0  0  # atno 10763 bound_to 10752
  154.6418  135.2913  155.0096 H   0  0  0  0  0  0  0  0  0  0  0  0  # atno 10764 bound_to 10752
  154.1012  135.6636  153.4921 H   0  0  0  0  0  0  0  0  0  0  0  0  # atno 10765 bound_to 10752
  140.3549  134.7163  157.4293 H   0  0  0  0  0  0  0  0  0  0  0  0  # atno 11005 bound_to 11000
  145.9921  140.8593  143.0061 LP  0  0  0  0  0  0  0  0  0  0  0  0  # atno 17320 bound_to 7965
  144.6774  140.2231  143.7364 LP  0  0  0  0  0  0  0  0  0  0  0  0  # atno 17321 bound_to 7965
  139.5056  144.6797  151.6039 LP  0  0  0  0  0  0  0  0  0  0  0  0  # atno 17342 bound_to 10162
  140.6063  143.9518  150.6421 LP  0  0  0  0  0  0  0  0  0  0  0  0  # atno 17343 bound_to 10162
  157.7027  131.0769  150.6769 LP  0  0  0  0  0  0  0  0  0  0  0  0  # atno 17370 bound_to 10713
  156.6828  130.4572  149.5622 LP  0  0  0  0  0  0  0  0  0  0  0  0  # atno 17371 bound_to 10713
  140.0673  134.5912  155.8681 LP  0  0  0  0  0  0  0  0  0  0  0  0  # atno 17394 bound_to 11000
  141.2001  133.6610  156.5880 LP  0  0  0  0  0  0  0  0  0  0  0  0  # atno 17395 bound_to 11000

$$$$
