AV-unprocessed.smi:738|AV-procd|sdf|3541|dock6
  -GOLD-   22720 0533D 1   1.00000     0.00000
 Structure written by MMmdl.
 35 37  0  0  0  0  0  0  0  0  1 V2000
  155.7467  137.0239  159.5183 N   0  0  0  0  0  0  0  0  0  0  0  0
  154.4645  136.6859  159.6853 C   0  0  0  0  0  0  0  0  0  0  0  0
  154.1127  135.7964  160.4576 O   0  0  0  0  0  0  0  0  0  0  0  0
  153.4698  137.4089  158.8239 C   0  0  0  0  0  0  0  0  0  0  0  0
  153.8843  138.0670  157.6458 C   0  0  0  0  0  0  0  0  0  0  0  0
  153.0392  138.7168  156.8181 N   0  0  0  0  0  0  0  0  0  0  0  0
  151.7191  138.7387  157.1218 C   0  0  0  0  0  0  0  0  0  0  0  0
  150.8505  139.4075  156.2395 N   0  0  0  0  0  0  0  0  0  0  0  0
  150.6984  138.6874  154.9838 C   0  0  0  0  0  0  0  0  0  0  0  0
  149.5150  139.2684  154.1998 C   0  0  0  0  0  0  0  0  0  0  0  0
  149.7291  140.6558  153.9580 O   0  0  0  0  0  0  0  0  0  0  0  0
  149.9781  141.4372  155.1286 C   0  0  1  0  0  0  0  0  0  0  0  0
  148.7543  141.7061  156.0191 C   0  0  0  0  0  0  0  0  0  0  0  0
  149.3091  141.8711  157.4434 C   0  0  0  0  0  0  0  0  0  0  0  0
  150.8258  141.6436  157.3538 C   0  0  0  0  0  0  0  0  0  0  0  0
  151.0525  140.8480  156.0585 C   0  0  1  0  0  0  0  0  0  0  0  0
  151.2009  138.0968  158.2726 C   0  0  0  0  0  0  0  0  0  0  0  0
  149.5144  138.1371  158.6547 Cl  0  0  0  0  0  0  0  0  0  0  0  0
  152.0910  137.4217  159.1304 C   0  0  0  0  0  0  0  0  0  0  0  0
  156.4595  136.5663  160.0684 H   0  0  0  0  0  0  0  0  0  0  0  0
  156.0009  137.7297  158.8427 H   0  0  0  0  0  0  0  0  0  0  0  0
  154.9246  138.0806  157.3543 H   0  0  0  0  0  0  0  0  0  0  0  0
  151.6166  138.7743  154.4010 H   0  0  0  0  0  0  0  0  0  0  0  0
  150.5337  137.6250  155.1678 H   0  0  0  0  0  0  0  0  0  0  0  0
  149.4159  138.7594  153.2411 H   0  0  0  0  0  0  0  0  0  0  0  0
  148.5796  139.1076  154.7358 H   0  0  0  0  0  0  0  0  0  0  0  0
  150.3390  142.4064  154.7812 H   0  0  0  0  0  0  0  0  0  0  0  0
  148.2079  142.5894  155.6867 H   0  0  0  0  0  0  0  0  0  0  0  0
  148.0539  140.8719  156.0030 H   0  0  0  0  0  0  0  0  0  0  0  0
  149.0802  142.8533  157.8579 H   0  0  0  0  0  0  0  0  0  0  0  0
  148.8575  141.1272  158.1011 H   0  0  0  0  0  0  0  0  0  0  0  0
  151.3214  142.6108  157.2600 H   0  0  0  0  0  0  0  0  0  0  0  0
  151.2318  141.1679  158.2470 H   0  0  0  0  0  0  0  0  0  0  0  0
  152.0485  141.0262  155.6506 H   0  0  0  0  0  0  0  0  0  0  0  0
  151.7096  136.9226  160.0095 H   0  0  0  0  0  0  0  0  0  0  0  0
  1  2  1  0  0  0  0
  1 20  1  0  0  0  0
  1 21  1  0  0  0  0
  2  3  2  0  0  0  0
  2  4  1  0  0  0  0
  4 19  1  0  0  0  0
  4  5  2  0  0  0  0
  5  6  1  0  0  0  0
  5 22  1  0  0  0  0
  6  7  2  0  0  0  0
  7  8  1  0  0  0  0
  7 17  1  0  0  0  0
  8 16  1  0  0  0  0
  8  9  1  0  0  0  0
  9 10  1  0  0  0  0
  9 23  1  0  0  0  0
  9 24  1  0  0  0  0
 10 11  1  0  0  0  0
 10 25  1  0  0  0  0
 10 26  1  0  0  0  0
 11 12  1  0  0  0  0
 12 16  1  0  0  0  0
 12 13  1  0  0  0  0
 12 27  1  0  0  0  0
 13 14  1  0  0  0  0
 13 28  1  0  0  0  0
 13 29  1  0  0  0  0
 14 15  1  0  0  0  0
 14 30  1  0  0  0  0
 14 31  1  0  0  0  0
 15 16  1  0  0  0  0
 15 32  1  0  0  0  0
 15 33  1  0  0  0  0
 16 34  1  0  0  0  0
 17 18  1  0  0  0  0
 17 19  2  0  0  0  0
 19 35  1  0  0  0  0
M  END
> <s_m_source_file>
AV-unprocessed.smi

> <i_m_source_file_index>
738

> <i_lp_mmshare_version>
43012

> <i_f3d_flags>
0

> <s_epik_input>
W05IMl1DKD1PKWMxW2NIXW5jKGMoQ2wpW2NIXTEpTihbQ0gyXVtDSDJdTzIpW0NASF0oW0NASF0yMylbQ0gyXVtDSDJdW0NIMl0z

> <s_epik_cmdline>
J2VwaWtfcHl0aG9uJywgJy1waCcsICc3LjAnLCAnLXRuJywgJzgnLCAnLW1hJywgJzIwMCcsICctbWV0YWxfYmluZGluZycsICctaW1hZScsICc8aW5maWxlLm1hZT4nLCAnLW9tYWUnLCAnPG91dGZpbGUubWFlPic=

> <r_lp_tautomer_probability>
1

> <r_epik_Ionization_Penalty>
6.75978e-06

> <r_epik_Ionization_Penalty_Charging>
0

> <r_epik_Ionization_Penalty_Neutral>
6.75978e-06

> <r_epik_State_Penalty>
-0

> <r_epik_Charging_Adjusted_Penalty>
0

> <i_epik_Tot_Q>
0

> <i_epik_Tot_abs_Q>
0

> <r_epik_Metal_State_Penalty>
-0

> <b_epik_Metal_Only>
0

> <s_lp_Force_Field>
OPLS_2005

> <r_lp_Energy>
43.0455

> <b_lp_Chiralities_Consistent>
1

> <s_lp_Variant>
AV-unprocessed.smi:738-4

> <Gold.Version>
5.8.1

> <Gold.Id.Protein>
6NUR|6NUR_protein|mol2

> <Gold.PLP.Fitness>
31.0956

> <Gold.PLP.PLP>
-23.4836

> <Gold.PLP.part.hbond>
-3.0000

> <Gold.PLP.part.metal>
0.0000

> <Gold.PLP.part.buried>
-0.6468

> <Gold.PLP.part.nonpolar>
-19.3100

> <Gold.PLP.part.repulsive>
0.6226

> <Gold.PLP.ligand.clash>
0.0000

> <Gold.PLP.ligand.torsion>
0.2893

> <Gold.PLP.Chemscore.Hbond>
2.6720

> <Gold.PLP.Chemscore.CHOScore>
0.0000

> <Gold.PLP.Chemscore.Metal>
0.0000

> <Gold.Chemscore.Hbonds>
donor molecule, donor type, donor heavy atom, donor atom, acceptor molecule, acceptor atom, score
      P1  H  6896  6909       L1     3  0.96
      P1  H  7989  7998       L1    11  0.24
      P1  H  7997  8009       L1     6  0.50
      P1  H  8011  8017       L1    11  0.09

> <Gold.PLP.Chemscore.Internal.Correction>
0.1746

> <Gold.Rescore>
     Score         DG    S(hbond)    S(metal)    S(lipo)     H(rot)  DE(clash)    DE(int)     intcor
     13.35     -13.90       1.10        0.00      62.57       1.00       0.27       0.28       ----

> <Gold.Chemscore.Fitness>
13.3526

> <Gold.Chemscore.DG>
-13.8979

> <Gold.Chemscore.ZeroCoef>
-5.4800

> <Gold.Chemscore.Hbond>
1.0951

> <Gold.Chemscore.Metal>
0.0000

> <Gold.Chemscore.Lipo>
62.5672

> <Gold.Chemscore.Internal_Hbond>
0.0000

> <Gold.Chemscore.DEClash>
0.2659

> <Gold.Chemscore.DEInternal>
0.2794

> <Gold.Chemscore.Rot>
1.0000

> <Gold.Chemscore.Internal.Correction>
   9.000000E+99

> <Gold.Chemscore.Hbonds>
donor molecule, donor type, donor heavy atom, donor atom, acceptor molecule, acceptor atom, score
      P1  H  6896  6909       L1     3  0.87
      P1  H  7997  8009       L1     6  0.02
      P1  H  8011  8017       L1    11  0.03

> <Gold.Chemscore.Hbond.Weighted>
-3.6575

> <Gold.Chemscore.Metal.Weighted>
-0.0000

> <Gold.Chemscore.Lipo.Weighted>
-7.3204

> <Gold.Chemscore.Internal_Hbond.Weighted>
0.0000

> <Gold.Chemscore.DEClash.Weighted>
0.2659

> <Gold.Chemscore.DEInternal.Weighted>
0.2794

> <Gold.Chemscore.Rot.Weighted>
2.5600

> <Gold.Chemscore.Internal.Correction.Weighted>
   9.000000E+99

> <Gold.Protein.RotatedTorsions>
[ 6907 6896 6895 6894 ] final  174.71 input  -60.11 | X-H torsion
[ 7974 7965 7964 7962 ] final  -79.01 input  175.53 | X-H torsion
[ 8008 7997 7996 7995 ] final -172.42 input   59.86 | X-H torsion
[ 10167 10162 10161 10158 ] final   17.99 input  -65.29 | X-H torsion
[ 10718 10713 10712 10709 ] final  146.35 input   66.30 | X-H torsion
[ 10763 10752 10751 10750 ] final  -50.96 input  -60.55 | X-H torsion
[ 11005 11000 10999 10996 ] final  137.52 input  -57.11 | X-H torsion

> <Gold.Protein.ActiveResidues>
 VAL166  LYS551  ARG553  GLY616  TRP617  ASP618  TYR619  PRO620  LYS621  CYS622 
 ASP623  PHE694  ASN695  SER759  ASP760  ASP761  ALA762  ILE779  LEU786  VAL792 
 PHE793  MET794  SER795  GLU796  ALA797  LYS798  CYS799  TRP800  GLU811  SER814 

> <Gold.Protein.RotatedAtoms>
  151.7479  133.3325  159.3383 H   0  0  0  0  0  0  0  0  0  0  0  0  # atno 6907 bound_to 6896
  150.7547  134.6219  159.6150 H   0  0  0  0  0  0  0  0  0  0  0  0  # atno 6908 bound_to 6896
  152.3488  134.7037  160.0294 H   0  0  0  0  0  0  0  0  0  0  0  0  # atno 6909 bound_to 6896
  145.5789  140.9452  143.1354 H   0  0  0  0  0  0  0  0  0  0  0  0  # atno 7974 bound_to 7965
  155.9443  140.1114  157.1030 H   0  0  0  0  0  0  0  0  0  0  0  0  # atno 8008 bound_to 7997
  154.4096  140.1213  156.5034 H   0  0  0  0  0  0  0  0  0  0  0  0  # atno 8009 bound_to 7997
  155.6923  140.3472  155.4901 H   0  0  0  0  0  0  0  0  0  0  0  0  # atno 8010 bound_to 7997
  140.5686  143.9204  150.6695 H   0  0  0  0  0  0  0  0  0  0  0  0  # atno 10167 bound_to 10162
  157.3342  131.0925  151.1137 H   0  0  0  0  0  0  0  0  0  0  0  0  # atno 10718 bound_to 10713
  154.1189  135.6538  153.4899 H   0  0  0  0  0  0  0  0  0  0  0  0  # atno 10763 bound_to 10752
  153.0232  135.5265  154.7117 H   0  0  0  0  0  0  0  0  0  0  0  0  # atno 10764 bound_to 10752
  154.6319  135.2977  155.0177 H   0  0  0  0  0  0  0  0  0  0  0  0  # atno 10765 bound_to 10752
  140.0120  134.9435  157.0297 H   0  0  0  0  0  0  0  0  0  0  0  0  # atno 11005 bound_to 11000
  144.7403  139.7468  143.7313 LP  0  0  0  0  0  0  0  0  0  0  0  0  # atno 17320 bound_to 7965
  146.1730  139.4889  142.9915 LP  0  0  0  0  0  0  0  0  0  0  0  0  # atno 17321 bound_to 7965
  140.2673  143.3481  152.1269 LP  0  0  0  0  0  0  0  0  0  0  0  0  # atno 17342 bound_to 10162
  139.5106  144.6886  151.5821 LP  0  0  0  0  0  0  0  0  0  0  0  0  # atno 17343 bound_to 10162
  157.2373  130.6553  149.5875 LP  0  0  0  0  0  0  0  0  0  0  0  0  # atno 17370 bound_to 10713
  155.9699  130.4579  150.5981 LP  0  0  0  0  0  0  0  0  0  0  0  0  # atno 17371 bound_to 10713
  140.4538  134.1555  155.7184 LP  0  0  0  0  0  0  0  0  0  0  0  0  # atno 17394 bound_to 11000
  141.1717  133.8595  157.1549 LP  0  0  0  0  0  0  0  0  0  0  0  0  # atno 17395 bound_to 11000

$$$$
