AV-unprocessed.smi:2007|AV-procd|sdf|8134|dock7
  -GOLD-   2272010373D 1   1.00000     0.00000
 Structure written by MMmdl.
 36 37  0  0  0  0  0  0  0  0  1 V2000
  146.6660  137.4686  155.3245 C   0  0  0  0  0  0  0  0  0  0  0  0
  146.3556  137.9248  153.8926 C   0  0  1  0  0  0  0  0  0  0  0  0
  147.2322  139.1316  153.4915 C   0  0  0  0  0  0  0  0  0  0  0  0
  148.3639  139.4159  154.3751 N   0  0  0  0  0  0  0  0  0  0  0  0
  149.5494  138.6268  154.0460 C   0  0  0  0  0  0  0  0  0  0  0  0
  150.7276  138.9496  154.9810 C   0  0  0  0  0  0  0  0  0  0  0  0
  151.0149  140.3432  154.9253 O   0  0  0  0  0  0  0  0  0  0  0  0
  149.8954  141.1489  155.2789 C   0  0  0  0  0  0  0  0  0  0  0  0
  148.7160  140.8308  154.3433 C   0  0  0  0  0  0  0  0  0  0  0  0
  146.5834  136.8062  152.9788 N   0  0  0  0  0  0  0  0  0  0  0  0
  145.6989  135.8423  152.6813 C   0  0  0  0  0  0  0  0  0  0  0  0
  144.5726  135.7726  153.1741 O   0  0  0  0  0  0  0  0  0  0  0  0
  146.2065  134.9810  151.7823 N   0  0  0  0  0  0  0  0  0  0  0  0
  145.5798  133.8471  151.2021 C   0  0  0  0  0  0  0  0  0  0  0  0
  146.1334  133.0796  150.2558 N   0  0  0  0  0  0  0  0  0  0  0  0
  145.2927  132.0317  149.8722 C   0  0  0  0  0  0  0  0  0  0  0  0
  144.0941  132.0164  150.5412 C   0  0  0  0  0  0  0  0  0  0  0  0
  143.9728  133.3255  151.6864 S   0  0  0  0  0  0  0  0  0  0  0  0
  146.4863  138.2724  156.0390 H   0  0  0  0  0  0  0  0  0  0  0  0
  147.7064  137.1586  155.4277 H   0  0  0  0  0  0  0  0  0  0  0  0
  146.0364  136.6263  155.6133 H   0  0  0  0  0  0  0  0  0  0  0  0
  145.3043  138.2134  153.8797 H   0  0  0  0  0  0  0  0  0  0  0  0
  147.5982  138.9892  152.4736 H   0  0  0  0  0  0  0  0  0  0  0  0
  146.5868  140.0103  153.4518 H   0  0  0  0  0  0  0  0  0  0  0  0
  149.3326  137.5623  154.1178 H   0  0  0  0  0  0  0  0  0  0  0  0
  149.8454  138.8159  153.0131 H   0  0  0  0  0  0  0  0  0  0  0  0
  150.4953  138.6589  156.0067 H   0  0  0  0  0  0  0  0  0  0  0  0
  151.6138  138.3899  154.6819 H   0  0  0  0  0  0  0  0  0  0  0  0
  149.6222  140.9681  156.3197 H   0  0  0  0  0  0  0  0  0  0  0  0
  150.1721  142.1999  155.1971 H   0  0  0  0  0  0  0  0  0  0  0  0
  148.9734  141.1255  153.3247 H   0  0  0  0  0  0  0  0  0  0  0  0
  147.8551  141.4336  154.6343 H   0  0  0  0  0  0  0  0  0  0  0  0
  147.4825  136.7770  152.5214 H   0  0  0  0  0  0  0  0  0  0  0  0
  147.1483  135.1632  151.4686 H   0  0  0  0  0  0  0  0  0  0  0  0
  145.6283  131.3405  149.1134 H   0  0  0  0  0  0  0  0  0  0  0  0
  143.2790  131.3169  150.4302 H   0  0  0  0  0  0  0  0  0  0  0  0
  1  2  1  0  0  0  0
  1 19  1  0  0  0  0
  1 20  1  0  0  0  0
  1 21  1  0  0  0  0
  2  3  1  0  0  0  0
  2 10  1  0  0  0  0
  2 22  1  0  0  0  0
  3  4  1  0  0  0  0
  3 23  1  0  0  0  0
  3 24  1  0  0  0  0
  4  9  1  0  0  0  0
  4  5  1  0  0  0  0
  5  6  1  0  0  0  0
  5 25  1  0  0  0  0
  5 26  1  0  0  0  0
  6  7  1  0  0  0  0
  6 27  1  0  0  0  0
  6 28  1  0  0  0  0
  7  8  1  0  0  0  0
  8  9  1  0  0  0  0
  8 29  1  0  0  0  0
  8 30  1  0  0  0  0
  9 31  1  0  0  0  0
  9 32  1  0  0  0  0
 10 11  1  0  0  0  0
 10 33  1  0  0  0  0
 11 12  2  0  0  0  0
 11 13  1  0  0  0  0
 13 14  1  0  0  0  0
 13 34  1  0  0  0  0
 14 18  1  0  0  0  0
 14 15  2  0  0  0  0
 15 16  1  0  0  0  0
 16 17  2  0  0  0  0
 16 35  1  0  0  0  0
 17 18  1  0  0  0  0
 17 36  1  0  0  0  0
M  END
> <s_m_source_file>
AV-unprocessed.smi

> <i_m_source_file_index>
2007

> <i_lp_mmshare_version>
43012

> <i_f3d_flags>
0

> <s_epik_input>
W0NIMl0xW0NIMl1PW0NIMl1bQ0gyXU4xW0NIMl1bQ0BASF0oW0NIM10pW05IXUMoPU8pW05IXWMybltjSF1bY0hdczI=

> <s_epik_cmdline>
J2VwaWtfcHl0aG9uJywgJy1waCcsICc3LjAnLCAnLXRuJywgJzgnLCAnLW1hJywgJzIwMCcsICctbWV0YWxfYmluZGluZycsICctaW1hZScsICc8aW5maWxlLm1hZT4nLCAnLW9tYWUnLCAnPG91dGZpbGUubWFlPic=

> <r_lp_tautomer_probability>
0.999

> <r_epik_Ionization_Penalty>
0.219197

> <r_epik_Ionization_Penalty_Charging>
0

> <r_epik_Ionization_Penalty_Neutral>
0.219197

> <r_epik_State_Penalty>
0.209349

> <r_epik_Charging_Adjusted_Penalty>
0.209349

> <i_epik_Tot_Q>
0

> <i_epik_Tot_abs_Q>
0

> <r_epik_Metal_State_Penalty>
0.254604

> <b_epik_Metal_Only>
0

> <s_lp_Force_Field>
OPLS_2005

> <r_lp_Energy>
23.7512

> <b_lp_Chiralities_Consistent>
1

> <s_lp_Variant>
AV-unprocessed.smi:2007-2

> <Gold.Version>
5.8.1

> <Gold.Id.Protein>
6NUR|6NUR_protein|mol2

> <Gold.PLP.Fitness>
38.6118

> <Gold.PLP.PLP>
-30.9022

> <Gold.PLP.part.hbond>
-3.0000

> <Gold.PLP.part.metal>
0.0000

> <Gold.PLP.part.buried>
-4.2469

> <Gold.PLP.part.nonpolar>
-24.2562

> <Gold.PLP.part.repulsive>
1.1116

> <Gold.PLP.ligand.clash>
0.0000

> <Gold.PLP.ligand.torsion>
1.3367

> <Gold.PLP.Chemscore.Hbond>
2.9833

> <Gold.PLP.Chemscore.CHOScore>
0.4731

> <Gold.PLP.Chemscore.Metal>
0.0000

> <Gold.Chemscore.Hbonds>
donor molecule, donor type, donor heavy atom, donor atom, acceptor molecule, acceptor atom, score
      L1  H    10    33       P1  7948  1.00
      L1  H    13    34       P1  7948  0.81
      P1  H  7989  7998       L1     7  1.00
      L1  C    17    36       P1 10952  0.38

> <Gold.PLP.Chemscore.Internal.Correction>
0.0137

> <Gold.Rescore>
     Score         DG    S(hbond)    S(metal)    S(lipo)     H(rot)  DE(clash)    DE(int)     intcor
     14.91     -17.57       2.50        0.00      66.71       1.58       0.18       2.48       ----

> <Gold.Chemscore.Fitness>
14.9125

> <Gold.Chemscore.DG>
-17.5692

> <Gold.Chemscore.ZeroCoef>
-5.4800

> <Gold.Chemscore.Hbond>
2.4957

> <Gold.Chemscore.Metal>
0.0000

> <Gold.Chemscore.Lipo>
66.7073

> <Gold.Chemscore.Internal_Hbond>
0.0000

> <Gold.Chemscore.DEClash>
0.1799

> <Gold.Chemscore.DEInternal>
2.4769

> <Gold.Chemscore.Rot>
1.5825

> <Gold.Chemscore.Internal.Correction>
   9.000000E+99

> <Gold.Chemscore.Hbonds>
donor molecule, donor type, donor heavy atom, donor atom, acceptor molecule, acceptor atom, score
      L1  H    10    33       P1  7948  1.00
      L1  H    13    34       P1  7948  0.67
      P1  H  7989  7998       L1     7  0.64

> <Gold.Chemscore.Hbond.Weighted>
-8.3357

> <Gold.Chemscore.Metal.Weighted>
-0.0000

> <Gold.Chemscore.Lipo.Weighted>
-7.8048

> <Gold.Chemscore.Internal_Hbond.Weighted>
0.0000

> <Gold.Chemscore.DEClash.Weighted>
0.1799

> <Gold.Chemscore.DEInternal.Weighted>
2.4769

> <Gold.Chemscore.Rot.Weighted>
4.0512

> <Gold.Chemscore.Internal.Correction.Weighted>
   9.000000E+99

> <Gold.Protein.RotatedTorsions>
[ 6907 6896 6895 6894 ] final  -55.59 input  -60.11 | X-H torsion
[ 7974 7965 7964 7962 ] final   78.07 input  175.53 | X-H torsion
[ 8008 7997 7996 7995 ] final   21.43 input   59.86 | X-H torsion
[ 10167 10162 10161 10158 ] final   84.07 input  -65.29 | X-H torsion
[ 10718 10713 10712 10709 ] final  129.48 input   66.30 | X-H torsion
[ 10763 10752 10751 10750 ] final  -77.86 input  -60.55 | X-H torsion
[ 11005 11000 10999 10996 ] final -112.20 input  -57.11 | X-H torsion

> <Gold.Protein.ActiveResidues>
 VAL166  LYS551  ARG553  GLY616  TRP617  ASP618  TYR619  PRO620  LYS621  CYS622 
 ASP623  PHE694  ASN695  SER759  ASP760  ASP761  ALA762  ILE779  LEU786  VAL792 
 PHE793  MET794  SER795  GLU796  ALA797  LYS798  CYS799  TRP800  GLU811  SER814 

> <Gold.Protein.RotatedAtoms>
  150.8239  134.7460  159.6795 H   0  0  0  0  0  0  0  0  0  0  0  0  # atno 6907 bound_to 6896
  152.4352  134.5697  159.9927 H   0  0  0  0  0  0  0  0  0  0  0  0  # atno 6908 bound_to 6896
  151.5875  133.3333  159.3057 H   0  0  0  0  0  0  0  0  0  0  0  0  # atno 6909 bound_to 6896
  145.6819  139.2526  143.1809 H   0  0  0  0  0  0  0  0  0  0  0  0  # atno 7974 bound_to 7965
  154.9505  140.3065  155.5077 H   0  0  0  0  0  0  0  0  0  0  0  0  # atno 8008 bound_to 7997
  156.2987  140.2319  156.4520 H   0  0  0  0  0  0  0  0  0  0  0  0  # atno 8009 bound_to 7997
  154.8059  140.0431  157.1295 H   0  0  0  0  0  0  0  0  0  0  0  0  # atno 8010 bound_to 7997
  139.9118  144.6267  150.8529 H   0  0  0  0  0  0  0  0  0  0  0  0  # atno 10167 bound_to 10162
  157.5150  131.1097  150.9237 H   0  0  0  0  0  0  0  0  0  0  0  0  # atno 10718 bound_to 10713
  154.5184  135.5750  153.6660 H   0  0  0  0  0  0  0  0  0  0  0  0  # atno 10763 bound_to 10752
  152.9912  135.6175  154.2787 H   0  0  0  0  0  0  0  0  0  0  0  0  # atno 10764 bound_to 10752
  154.2706  135.2853  155.2719 H   0  0  0  0  0  0  0  0  0  0  0  0  # atno 10765 bound_to 10752
  141.0689  133.9412  157.2524 H   0  0  0  0  0  0  0  0  0  0  0  0  # atno 11005 bound_to 11000
  146.0957  140.7603  142.9573 LP  0  0  0  0  0  0  0  0  0  0  0  0  # atno 17320 bound_to 7965
  144.7023  140.3707  143.7146 LP  0  0  0  0  0  0  0  0  0  0  0  0  # atno 17321 bound_to 7965
  140.7683  143.3360  151.2309 LP  0  0  0  0  0  0  0  0  0  0  0  0  # atno 17342 bound_to 10162
  139.6936  143.9651  152.2871 LP  0  0  0  0  0  0  0  0  0  0  0  0  # atno 17343 bound_to 10162
  156.9865  130.5547  149.5300 LP  0  0  0  0  0  0  0  0  0  0  0  0  # atno 17370 bound_to 10713
  156.0314  130.5405  150.8544 LP  0  0  0  0  0  0  0  0  0  0  0  0  # atno 17371 bound_to 10713
  139.9504  135.0176  156.8976 LP  0  0  0  0  0  0  0  0  0  0  0  0  # atno 17394 bound_to 11000
  140.5715  134.0439  155.7432 LP  0  0  0  0  0  0  0  0  0  0  0  0  # atno 17395 bound_to 11000

$$$$
