AV-unprocessed.smi:1900|AV-procd|sdf|7715|dock2
  -GOLD-   22720 9453D 1   1.00000     0.00000
 Structure written by MMmdl.
 43 44  0  0  0  0  0  0  0  0  1 V2000
  150.0400  137.9597  155.3936 C   0  0  0  0  0  0  0  0  0  0  0  0
  150.4337  138.9881  154.3194 C   0  0  1  0  0  0  0  0  0  0  0  0
  149.2562  139.4111  153.4184 C   0  0  0  0  0  0  0  0  0  0  0  0
  148.3139  140.2934  154.0977 N   0  0  0  0  0  0  0  0  0  0  0  0
  147.2105  140.6655  153.2113 C   0  0  0  0  0  0  0  0  0  0  0  0
  146.8122  139.6044  152.1691 C   0  0  0  0  0  0  0  0  0  0  0  0
  145.9644  138.4663  152.7648 C   0  0  0  0  0  0  0  0  0  0  0  0
  146.3838  137.1636  152.2610 N   0  0  0  0  0  0  0  0  0  0  0  0
  145.5518  136.1609  151.9451 C   0  0  0  0  0  0  0  0  0  0  0  0
  144.3268  136.2370  152.0419 O   0  0  0  0  0  0  0  0  0  0  0  0
  146.2271  135.0828  151.5150 N   0  0  0  0  0  0  0  0  0  0  0  0
  145.6855  133.8387  151.1048 C   0  0  0  0  0  0  0  0  0  0  0  0
  146.2901  132.5473  151.1044 C   0  0  0  0  0  0  0  0  0  0  0  0
  145.4553  131.6276  150.6411 N   0  0  0  0  0  0  0  0  0  0  0  0
  144.3294  132.3158  150.3468 N   0  0  0  0  0  0  0  0  0  0  0  0
  144.4264  133.6635  150.6133 C   0  0  0  0  0  0  0  0  0  0  0  0
  149.0362  141.4499  154.6195 C   0  0  0  0  0  0  0  0  0  0  0  0
  150.1764  141.0349  155.5668 C   0  0  2  0  0  0  0  0  0  0  0  0
  150.9932  142.2394  156.0465 C   0  0  0  0  0  0  0  0  0  0  0  0
  151.0574  140.1397  154.8901 O   0  0  0  0  0  0  0  0  0  0  0  0
  143.5131  131.8563  149.9689 H   0  0  0  0  0  0  0  0  0  0  0  0
  149.6673  137.0440  154.9342 H   0  0  0  0  0  0  0  0  0  0  0  0
  149.2570  138.3337  156.0529 H   0  0  0  0  0  0  0  0  0  0  0  0
  150.8985  137.6940  156.0106 H   0  0  0  0  0  0  0  0  0  0  0  0
  151.1856  138.5149  153.6876 H   0  0  0  0  0  0  0  0  0  0  0  0
  149.6527  139.9174  152.5368 H   0  0  0  0  0  0  0  0  0  0  0  0
  148.7399  138.5221  153.0540 H   0  0  0  0  0  0  0  0  0  0  0  0
  146.3357  140.9229  153.8102 H   0  0  0  0  0  0  0  0  0  0  0  0
  147.4786  141.5751  152.6722 H   0  0  0  0  0  0  0  0  0  0  0  0
  146.2934  140.0679  151.3304 H   0  0  0  0  0  0  0  0  0  0  0  0
  147.7226  139.1783  151.7461 H   0  0  0  0  0  0  0  0  0  0  0  0
  146.0618  138.4602  153.8506 H   0  0  0  0  0  0  0  0  0  0  0  0
  144.9054  138.6203  152.5509 H   0  0  0  0  0  0  0  0  0  0  0  0
  147.3761  137.0147  152.1504 H   0  0  0  0  0  0  0  0  0  0  0  0
  147.2330  135.1580  151.4816 H   0  0  0  0  0  0  0  0  0  0  0  0
  147.2790  132.2442  151.4142 H   0  0  0  0  0  0  0  0  0  0  0  0
  143.6160  134.3551  150.4354 H   0  0  0  0  0  0  0  0  0  0  0  0
  149.4403  142.0368  153.7931 H   0  0  0  0  0  0  0  0  0  0  0  0
  148.3587  142.1041  155.1670 H   0  0  0  0  0  0  0  0  0  0  0  0
  149.7572  140.5372  156.4419 H   0  0  0  0  0  0  0  0  0  0  0  0
  150.3652  142.9480  156.5871 H   0  0  0  0  0  0  0  0  0  0  0  0
  151.4491  142.7671  155.2085 H   0  0  0  0  0  0  0  0  0  0  0  0
  151.7928  141.9246  156.7178 H   0  0  0  0  0  0  0  0  0  0  0  0
  1  2  1  0  0  0  0
  1 22  1  0  0  0  0
  1 23  1  0  0  0  0
  1 24  1  0  0  0  0
  2 20  1  0  0  0  0
  2  3  1  0  0  0  0
  2 25  1  0  0  0  0
  3  4  1  0  0  0  0
  3 26  1  0  0  0  0
  3 27  1  0  0  0  0
  4  5  1  0  0  0  0
  4 17  1  0  0  0  0
  5  6  1  0  0  0  0
  5 28  1  0  0  0  0
  5 29  1  0  0  0  0
  6  7  1  0  0  0  0
  6 30  1  0  0  0  0
  6 31  1  0  0  0  0
  7  8  1  0  0  0  0
  7 32  1  0  0  0  0
  7 33  1  0  0  0  0
  8  9  1  0  0  0  0
  8 34  1  0  0  0  0
  9 10  2  0  0  0  0
  9 11  1  0  0  0  0
 11 12  1  0  0  0  0
 11 35  1  0  0  0  0
 12 16  2  0  0  0  0
 12 13  1  0  0  0  0
 13 14  2  0  0  0  0
 13 36  1  0  0  0  0
 14 15  1  0  0  0  0
 15 21  1  0  0  0  0
 15 16  1  0  0  0  0
 16 37  1  0  0  0  0
 17 18  1  0  0  0  0
 17 38  1  0  0  0  0
 17 39  1  0  0  0  0
 18 19  1  0  0  0  0
 18 20  1  0  0  0  0
 18 40  1  0  0  0  0
 19 41  1  0  0  0  0
 19 42  1  0  0  0  0
 19 43  1  0  0  0  0
M  END
> <s_m_source_file>
AV-unprocessed.smi

> <i_m_source_file_index>
1900

> <i_lp_mmshare_version>
43012

> <i_f3d_flags>
0

> <s_epik_input>
W0NIM11bQ0BASF0xW0NIMl1OKFtDSDJdW0NASF0oTzEpW0NIM10pW0NIMl1bQ0gyXVtDSDJdW05IXUMoPU8pW05IXWMyW2NIXW5bbkhdW2NIXTI=

> <s_epik_cmdline>
J2VwaWtfcHl0aG9uJywgJy1waCcsICc3LjAnLCAnLXRuJywgJzgnLCAnLW1hJywgJzIwMCcsICctbWV0YWxfYmluZGluZycsICctaW1hZScsICc8aW5maWxlLm1hZT4nLCAnLW9tYWUnLCAnPG91dGZpbGUubWFlPic=

> <r_lp_tautomer_probability>
0.5

> <r_epik_Ionization_Penalty>
0.594715

> <r_epik_Ionization_Penalty_Charging>
0

> <r_epik_Ionization_Penalty_Neutral>
0.594715

> <r_epik_State_Penalty>
0.608529

> <r_epik_Charging_Adjusted_Penalty>
0.608529

> <i_epik_Tot_Q>
0

> <i_epik_Tot_abs_Q>
0

> <r_epik_Metal_State_Penalty>
0.608528

> <b_epik_Metal_Only>
0

> <s_lp_Force_Field>
OPLS_2005

> <r_lp_Energy>
28.5506

> <b_lp_Chiralities_Consistent>
1

> <s_lp_Variant>
AV-unprocessed.smi:1900-7

> <Gold.Version>
5.8.1

> <Gold.Id.Protein>
6NUR|6NUR_protein|mol2

> <Gold.PLP.Fitness>
43.2343

> <Gold.PLP.PLP>
-31.1601

> <Gold.PLP.part.hbond>
-3.0000

> <Gold.PLP.part.metal>
0.0000

> <Gold.PLP.part.buried>
1.3060

> <Gold.PLP.part.nonpolar>
-30.2929

> <Gold.PLP.part.repulsive>
1.2706

> <Gold.PLP.ligand.clash>
0.0000

> <Gold.PLP.ligand.torsion>
0.9821

> <Gold.PLP.Chemscore.Hbond>
2.9588

> <Gold.PLP.Chemscore.CHOScore>
1.7063

> <Gold.PLP.Chemscore.Metal>
0.0000

> <Gold.Chemscore.Hbonds>
donor molecule, donor type, donor heavy atom, donor atom, acceptor molecule, acceptor atom, score
      L1  H     8    34       P1  7948  1.00
      L1  H    11    35       P1  7948  1.00
      P1  H  7989  7998       L1    20  1.00
      L1  C    13    36       P1 10747  1.00
      L1  C    16    37       P1 10186  0.45

> <Gold.PLP.Chemscore.Internal.Correction>
0.0434

> <Gold.Rescore>
     Score         DG    S(hbond)    S(metal)    S(lipo)     H(rot)  DE(clash)    DE(int)     intcor
     13.48     -15.68       1.96        0.00      72.52       1.88       0.16       2.04       ----

> <Gold.Chemscore.Fitness>
13.4824

> <Gold.Chemscore.DG>
-15.6839

> <Gold.Chemscore.ZeroCoef>
-5.4800

> <Gold.Chemscore.Hbond>
1.9557

> <Gold.Chemscore.Metal>
0.0000

> <Gold.Chemscore.Lipo>
72.5164

> <Gold.Chemscore.Internal_Hbond>
0.0000

> <Gold.Chemscore.DEClash>
0.1587

> <Gold.Chemscore.DEInternal>
2.0427

> <Gold.Chemscore.Rot>
1.8799

> <Gold.Chemscore.Internal.Correction>
   9.000000E+99

> <Gold.Chemscore.Hbonds>
donor molecule, donor type, donor heavy atom, donor atom, acceptor molecule, acceptor atom, score
      L1  H     8    34       P1  7948  1.00
      L1  H    11    35       P1  7948  0.78
      P1  H  7989  7998       L1    20  0.18

> <Gold.Chemscore.Hbond.Weighted>
-6.5320

> <Gold.Chemscore.Metal.Weighted>
-0.0000

> <Gold.Chemscore.Lipo.Weighted>
-8.4844

> <Gold.Chemscore.Internal_Hbond.Weighted>
0.0000

> <Gold.Chemscore.DEClash.Weighted>
0.1587

> <Gold.Chemscore.DEInternal.Weighted>
2.0427

> <Gold.Chemscore.Rot.Weighted>
4.8126

> <Gold.Chemscore.Internal.Correction.Weighted>
   9.000000E+99

> <Gold.Protein.RotatedTorsions>
[ 6907 6896 6895 6894 ] final   88.94 input  -60.11 | X-H torsion
[ 7974 7965 7964 7962 ] final   92.25 input  175.53 | X-H torsion
[ 8008 7997 7996 7995 ] final   93.62 input   59.86 | X-H torsion
[ 10167 10162 10161 10158 ] final   86.89 input  -65.29 | X-H torsion
[ 10718 10713 10712 10709 ] final   17.74 input   66.30 | X-H torsion
[ 10763 10752 10751 10750 ] final -110.16 input  -60.55 | X-H torsion
[ 11005 11000 10999 10996 ] final  165.18 input  -57.11 | X-H torsion

> <Gold.Protein.ActiveResidues>
 VAL166  LYS551  ARG553  GLY616  TRP617  ASP618  TYR619  PRO620  LYS621  CYS622 
 ASP623  PHE694  ASN695  SER759  ASP760  ASP761  ALA762  ILE779  LEU786  VAL792 
 PHE793  MET794  SER795  GLU796  ALA797  LYS798  CYS799  TRP800  GLU811  SER814 

> <Gold.Protein.RotatedAtoms>
  152.5431  134.2044  159.8724 H   0  0  0  0  0  0  0  0  0  0  0  0  # atno 6907 bound_to 6896
  151.2031  133.4592  159.2604 H   0  0  0  0  0  0  0  0  0  0  0  0  # atno 6908 bound_to 6896
  151.0970  134.9962  159.8486 H   0  0  0  0  0  0  0  0  0  0  0  0  # atno 6909 bound_to 6896
  145.4948  139.2276  143.2810 H   0  0  0  0  0  0  0  0  0  0  0  0  # atno 7974 bound_to 7965
  156.0488  140.3310  155.7327 H   0  0  0  0  0  0  0  0  0  0  0  0  # atno 8008 bound_to 7997
  155.5632  140.0621  157.2841 H   0  0  0  0  0  0  0  0  0  0  0  0  # atno 8009 bound_to 7997
  154.4426  140.1873  156.0792 H   0  0  0  0  0  0  0  0  0  0  0  0  # atno 8010 bound_to 7997
  139.8830  144.6429  150.8822 H   0  0  0  0  0  0  0  0  0  0  0  0  # atno 10167 bound_to 10162
  157.0864  130.6409  149.5838 H   0  0  0  0  0  0  0  0  0  0  0  0  # atno 10718 bound_to 10713
  154.8233  135.4574  154.0842 H   0  0  0  0  0  0  0  0  0  0  0  0  # atno 10763 bound_to 10752
  153.2178  135.6890  153.8043 H   0  0  0  0  0  0  0  0  0  0  0  0  # atno 10764 bound_to 10752
  153.7471  135.3304  155.3291 H   0  0  0  0  0  0  0  0  0  0  0  0  # atno 10765 bound_to 10752
  140.2535  134.7958  157.3524 H   0  0  0  0  0  0  0  0  0  0  0  0  # atno 11005 bound_to 11000
  146.2262  140.5744  142.8995 LP  0  0  0  0  0  0  0  0  0  0  0  0  # atno 17320 bound_to 7965
  144.7813  140.5846  143.6603 LP  0  0  0  0  0  0  0  0  0  0  0  0  # atno 17321 bound_to 7965
  140.7741  143.3571  151.1900 LP  0  0  0  0  0  0  0  0  0  0  0  0  # atno 17342 bound_to 10162
  139.7179  143.9271  152.2974 LP  0  0  0  0  0  0  0  0  0  0  0  0  # atno 17343 bound_to 10162
  155.9910  130.4963  150.7279 LP  0  0  0  0  0  0  0  0  0  0  0  0  # atno 17370 bound_to 10713
  157.4758  131.0897  151.0592 LP  0  0  0  0  0  0  0  0  0  0  0  0  # atno 17371 bound_to 10713
  140.1534  134.4820  155.7945 LP  0  0  0  0  0  0  0  0  0  0  0  0  # atno 17394 bound_to 11000
  141.2199  133.6872  156.7419 LP  0  0  0  0  0  0  0  0  0  0  0  0  # atno 17395 bound_to 11000

$$$$
