AV-unprocessed.smi:155|AV-procd|sdf|1273|dock9
  -GOLD-   2262018533D 1   1.00000     0.00000
 Structure written by MMmdl.
 63 66  0  0  0  0  0  0  0  0  2 V2000
  150.3017  144.3480  158.9442 C   0  0  0  0  0  0  0  0  0  0  0  0
  151.5307  143.7371  158.4493 N   0  0  0  0  0  0  0  0  0  0  0  0
  152.4980  144.7977  158.2034 C   0  0  0  0  0  0  0  0  0  0  0  0
  151.2959  142.9949  157.2101 C   0  0  0  0  0  0  0  0  0  0  0  0
  150.3673  141.7828  157.4341 C   0  0  0  0  0  0  0  0  0  0  0  0
  150.4951  140.7776  156.3466 N   0  3  2  0  0  0  0  0  0  0  0  0
  151.8929  140.2917  156.1523 C   0  0  0  0  0  0  0  0  0  0  0  0
  152.0893  139.3944  154.9119 C   0  0  0  0  0  0  0  0  0  0  0  0
  151.0933  138.2230  154.8158 C   0  0  0  0  0  0  0  0  0  0  0  0
  149.6941  138.6637  154.8179 N   0  0  0  0  0  0  0  0  0  0  0  0
  148.7810  137.9592  155.5429 C   0  0  0  0  0  0  0  0  0  0  0  0
  147.5696  137.7158  154.9757 N   0  0  0  0  0  0  0  0  0  0  0  0
  146.6354  137.0216  155.6301 C   0  0  0  0  0  0  0  0  0  0  0  0
  146.7005  136.4794  156.8457 N   0  0  0  0  0  0  0  0  0  0  0  0
  147.9107  136.7156  157.4266 C   0  0  0  0  0  0  0  0  0  0  0  0
  148.9968  137.4414  156.8565 C   0  0  0  0  0  0  0  0  0  0  0  0
  150.0608  137.4565  157.7528 N   0  0  0  0  0  0  0  0  0  0  0  0
  149.6245  136.7999  158.7917 C   0  0  0  0  0  0  0  0  0  0  0  0
  148.3411  136.3201  158.6809 N   0  0  0  0  0  0  0  0  0  0  0  0
  147.6033  135.5632  159.6788 C   0  0  0  0  0  0  0  0  0  0  0  0
  147.7636  136.1002  161.1191 C   0  0  1  0  0  0  0  0  0  0  0  0
  147.5692  137.5013  161.1559 O   0  0  0  0  0  0  0  0  0  0  0  0
  146.8835  135.4045  162.1837 C   0  0  1  0  0  0  0  0  0  0  0  0
  145.5585  136.1012  162.5224 C   0  0  0  0  0  0  0  0  0  0  0  0
  144.6057  134.9533  162.8339 C   0  0  0  0  0  0  0  0  0  0  0  0
  145.4699  133.6993  162.7101 C   0  0  0  0  0  0  0  0  0  0  0  0
  146.5003  134.0867  161.8177 O   0  0  0  0  0  0  0  0  0  0  0  0
  149.3512  139.9623  154.2322 C   0  0  0  0  0  0  0  0  0  0  0  0
  149.8042  141.1753  155.0879 C   0  0  0  0  0  0  0  0  0  0  0  0
  149.5544  143.5970  159.1971 H   0  0  0  0  0  0  0  0  0  0  0  0
  149.8683  145.0262  158.2079 H   0  0  0  0  0  0  0  0  0  0  0  0
  150.5019  144.9187  159.8517 H   0  0  0  0  0  0  0  0  0  0  0  0
  153.4458  144.3817  157.8597 H   0  0  0  0  0  0  0  0  0  0  0  0
  152.6980  145.3544  159.1199 H   0  0  0  0  0  0  0  0  0  0  0  0
  152.1379  145.4987  157.4488 H   0  0  0  0  0  0  0  0  0  0  0  0
  150.8702  143.6623  156.4591 H   0  0  0  0  0  0  0  0  0  0  0  0
  152.2448  142.6527  156.7974 H   0  0  0  0  0  0  0  0  0  0  0  0
  150.5841  141.3348  158.4031 H   0  0  0  0  0  0  0  0  0  0  0  0
  149.3302  142.1148  157.4940 H   0  0  0  0  0  0  0  0  0  0  0  0
  152.5672  141.1454  156.0744 H   0  0  0  0  0  0  0  0  0  0  0  0
  152.1983  139.7320  157.0359 H   0  0  0  0  0  0  0  0  0  0  0  0
  152.0484  139.9964  154.0038 H   0  0  0  0  0  0  0  0  0  0  0  0
  153.1016  138.9896  154.9315 H   0  0  0  0  0  0  0  0  0  0  0  0
  151.2779  137.6511  153.9061 H   0  0  0  0  0  0  0  0  0  0  0  0
  151.2862  137.5509  155.6530 H   0  0  0  0  0  0  0  0  0  0  0  0
  145.7033  136.8785  155.1035 H   0  0  0  0  0  0  0  0  0  0  0  0
  150.2303  136.6464  159.6727 H   0  0  0  0  0  0  0  0  0  0  0  0
  146.5482  135.5671  159.4032 H   0  0  0  0  0  0  0  0  0  0  0  0
  147.9259  134.5226  159.6253 H   0  0  0  0  0  0  0  0  0  0  0  0
  148.8035  135.9388  161.4054 H   0  0  0  0  0  0  0  0  0  0  0  0
  146.9758  137.7401  160.4607 H   0  0  0  0  0  0  0  0  0  0  0  0
  147.4663  135.3189  163.1030 H   0  0  0  0  0  0  0  0  0  0  0  0
  145.6742  136.7829  163.3656 H   0  0  0  0  0  0  0  0  0  0  0  0
  145.1724  136.6795  161.6827 H   0  0  0  0  0  0  0  0  0  0  0  0
  144.1503  135.0394  163.8207 H   0  0  0  0  0  0  0  0  0  0  0  0
  143.8034  134.9298  162.0957 H   0  0  0  0  0  0  0  0  0  0  0  0
  145.9079  133.4318  163.6730 H   0  0  0  0  0  0  0  0  0  0  0  0
  144.9154  132.8392  162.3346 H   0  0  0  0  0  0  0  0  0  0  0  0
  149.8252  140.0210  153.2518 H   0  0  0  0  0  0  0  0  0  0  0  0
  148.2828  140.0175  154.0227 H   0  0  0  0  0  0  0  0  0  0  0  0
  148.9105  141.7544  155.3214 H   0  0  0  0  0  0  0  0  0  0  0  0
  150.4435  141.8434  154.5094 H   0  0  0  0  0  0  0  0  0  0  0  0
  149.9663  139.9806  156.6728 H   0  0  0  0  0  0  0  0  0  0  0  0
  1  2  1  0  0  0  0
  1 30  1  0  0  0  0
  1 31  1  0  0  0  0
  1 32  1  0  0  0  0
  2  3  1  0  0  0  0
  2  4  1  0  0  0  0
  3 33  1  0  0  0  0
  3 34  1  0  0  0  0
  3 35  1  0  0  0  0
  4  5  1  0  0  0  0
  4 36  1  0  0  0  0
  4 37  1  0  0  0  0
  5  6  1  0  0  0  0
  5 38  1  0  0  0  0
  5 39  1  0  0  0  0
  6 29  1  0  0  0  0
  6  7  1  0  0  0  0
  6 63  1  0  0  0  0
  7  8  1  0  0  0  0
  7 40  1  0  0  0  0
  7 41  1  0  0  0  0
  8  9  1  0  0  0  0
  8 42  1  0  0  0  0
  8 43  1  0  0  0  0
  9 10  1  0  0  0  0
  9 44  1  0  0  0  0
  9 45  1  0  0  0  0
 10 11  1  0  0  0  0
 10 28  1  0  0  0  0
 11 16  1  0  0  0  0
 11 12  2  0  0  0  0
 12 13  1  0  0  0  0
 13 14  2  0  0  0  0
 13 46  1  0  0  0  0
 14 15  1  0  0  0  0
 15 19  1  0  0  0  0
 15 16  2  0  0  0  0
 16 17  1  0  0  0  0
 17 18  2  0  0  0  0
 18 19  1  0  0  0  0
 18 47  1  0  0  0  0
 19 20  1  0  0  0  0
 20 21  1  0  0  0  0
 20 48  1  0  0  0  0
 20 49  1  0  0  0  0
 21 22  1  0  0  0  0
 21 23  1  0  0  0  0
 21 50  1  0  0  0  0
 22 51  1  0  0  0  0
 23 27  1  0  0  0  0
 23 24  1  0  0  0  0
 23 52  1  0  0  0  0
 24 25  1  0  0  0  0
 24 53  1  0  0  0  0
 24 54  1  0  0  0  0
 25 26  1  0  0  0  0
 25 55  1  0  0  0  0
 25 56  1  0  0  0  0
 26 27  1  0  0  0  0
 26 57  1  0  0  0  0
 26 58  1  0  0  0  0
 28 29  1  0  0  0  0
 28 59  1  0  0  0  0
 28 60  1  0  0  0  0
 29 61  1  0  0  0  0
 29 62  1  0  0  0  0
M  CHG  1   6   1
M  END
> <s_m_source_file>
AV-unprocessed.smi

> <i_m_source_file_index>
155

> <i_lp_mmshare_version>
43012

> <i_f3d_flags>
0

> <s_epik_input>
W0NIM11OKFtDSDNdKVtDSDJdW0NIMl1OMVtDSDJdW0NIMl1bQ0gyXU4oW0NIMl1bQ0gyXTEpYyhuW2NIXW4yKWMoYzIzKW5bY0hdbjNbQ0gyXVtDQEhdKFtPSF0pW0NAQEhdNFtDSDJdW0NIMl1bQ0gyXU80

> <s_epik_cmdline>
J2VwaWtfcHl0aG9uJywgJy1waCcsICc3LjAnLCAnLXRuJywgJzgnLCAnLW1hJywgJzIwMCcsICctbWV0YWxfYmluZGluZycsICctaW1hZScsICc8aW5maWxlLm1hZT4nLCAnLW9tYWUnLCAnPG91dGZpbGUubWFlPic=

> <r_epik_Ionization_Penalty>
0.0619615

> <r_epik_Ionization_Penalty_Charging>
0.0161638

> <r_epik_Ionization_Penalty_Neutral>
0.0457976

> <r_epik_State_Penalty>
0.403408

> <r_epik_Charging_Adjusted_Penalty>
0.419572

> <i_epik_Tot_Q>
1

> <i_epik_Tot_abs_Q>
1

> <r_epik_Metal_State_Penalty>
0.404222

> <b_epik_Metal_Only>
0

> <s_lp_Force_Field>
OPLS_2005

> <r_lp_Energy>
55.0815

> <b_lp_Chiralities_Consistent>
1

> <s_lp_Variant>
AV-unprocessed.smi:155-7

> <Gold.Version>
5.8.1

> <Gold.Id.Protein>
6NUR|6NUR_protein|mol2

> <Gold.PLP.Fitness>
45.4383

> <Gold.PLP.PLP>
-46.7716

> <Gold.PLP.part.hbond>
-2.0000

> <Gold.PLP.part.metal>
0.0000

> <Gold.PLP.part.buried>
-3.6401

> <Gold.PLP.part.nonpolar>
-40.5437

> <Gold.PLP.part.repulsive>
0.2121

> <Gold.PLP.ligand.clash>
0.0000

> <Gold.PLP.ligand.torsion>
2.1212

> <Gold.PLP.Chemscore.Hbond>
0.9120

> <Gold.PLP.Chemscore.CHOScore>
0.0000

> <Gold.PLP.Chemscore.Metal>
0.0000

> <Gold.Chemscore.Hbonds>
donor molecule, donor type, donor heavy atom, donor atom, acceptor molecule, acceptor atom, score
      P1  H  6931  6943       L1    22  0.75

> <Gold.PLP.Chemscore.Internal.Correction>
0.1732

> <Gold.Rescore>
     Score         DG    S(hbond)    S(metal)    S(lipo)     H(rot)  DE(clash)    DE(int)     intcor
     13.49     -15.78       0.93        0.00     119.04       2.63       0.08       2.20       ----

> <Gold.Chemscore.Fitness>
13.4924

> <Gold.Chemscore.DG>
-15.7772

> <Gold.Chemscore.ZeroCoef>
-5.4800

> <Gold.Chemscore.Hbond>
0.9308

> <Gold.Chemscore.Metal>
0.0000

> <Gold.Chemscore.Lipo>
119.0373

> <Gold.Chemscore.Internal_Hbond>
0.0000

> <Gold.Chemscore.DEClash>
0.0841

> <Gold.Chemscore.DEInternal>
2.2006

> <Gold.Chemscore.Rot>
2.6324

> <Gold.Chemscore.Internal.Correction>
   9.000000E+99

> <Gold.Chemscore.Hbonds>
donor molecule, donor type, donor heavy atom, donor atom, acceptor molecule, acceptor atom, score
      P1  H  6931  6943       L1    22  0.52

> <Gold.Chemscore.Hbond.Weighted>
-3.1087

> <Gold.Chemscore.Metal.Weighted>
-0.0000

> <Gold.Chemscore.Lipo.Weighted>
-13.9274

> <Gold.Chemscore.Internal_Hbond.Weighted>
0.0000

> <Gold.Chemscore.DEClash.Weighted>
0.0841

> <Gold.Chemscore.DEInternal.Weighted>
2.2006

> <Gold.Chemscore.Rot.Weighted>
6.7389

> <Gold.Chemscore.Internal.Correction.Weighted>
   9.000000E+99

> <Gold.Protein.RotatedTorsions>
[ 6907 6896 6895 6894 ] final   83.76 input  -60.11 | X-H torsion
[ 7974 7965 7964 7962 ] final  -71.68 input  175.53 | X-H torsion
[ 8008 7997 7996 7995 ] final   73.50 input   59.86 | X-H torsion
[ 10167 10162 10161 10158 ] final   55.09 input  -65.29 | X-H torsion
[ 10718 10713 10712 10709 ] final   78.39 input   66.30 | X-H torsion
[ 10763 10752 10751 10750 ] final -160.32 input  -60.55 | X-H torsion
[ 11005 11000 10999 10996 ] final -175.85 input  -57.11 | X-H torsion

> <Gold.Protein.ActiveResidues>
 VAL166  LYS551  ARG553  GLY616  TRP617  ASP618  TYR619  PRO620  LYS621  CYS622 
 ASP623  PHE694  ASN695  SER759  ASP760  ASP761  ALA762  ILE779  LEU786  VAL792 
 PHE793  MET794  SER795  GLU796  ALA797  LYS798  CYS799  TRP800  GLU811  SER814 

> <Gold.Protein.RotatedAtoms>
  152.5335  134.2846  159.9019 H   0  0  0  0  0  0  0  0  0  0  0  0  # atno 6907 bound_to 6896
  151.2799  133.4208  159.2634 H   0  0  0  0  0  0  0  0  0  0  0  0  # atno 6908 bound_to 6896
  151.0292  134.9542  159.8159 H   0  0  0  0  0  0  0  0  0  0  0  0  # atno 6909 bound_to 6896
  145.6750  140.9208  143.0863 H   0  0  0  0  0  0  0  0  0  0  0  0  # atno 7974 bound_to 7965
  155.7846  140.3481  155.5316 H   0  0  0  0  0  0  0  0  0  0  0  0  # atno 8008 bound_to 7997
  155.8695  140.0984  157.1580 H   0  0  0  0  0  0  0  0  0  0  0  0  # atno 8009 bound_to 7997
  154.4016  140.1343  156.4047 H   0  0  0  0  0  0  0  0  0  0  0  0  # atno 8010 bound_to 7997
  140.2231  144.3767  150.6443 H   0  0  0  0  0  0  0  0  0  0  0  0  # atno 10167 bound_to 10162
  157.6743  130.9866  150.1779 H   0  0  0  0  0  0  0  0  0  0  0  0  # atno 10718 bound_to 10713
  154.7400  135.3066  154.8744 H   0  0  0  0  0  0  0  0  0  0  0  0  # atno 10763 bound_to 10752
  153.9562  135.6758  153.4749 H   0  0  0  0  0  0  0  0  0  0  0  0  # atno 10764 bound_to 10752
  153.1000  135.4917  154.8773 H   0  0  0  0  0  0  0  0  0  0  0  0  # atno 10765 bound_to 10752
  140.4586  134.6276  157.4833 H   0  0  0  0  0  0  0  0  0  0  0  0  # atno 11005 bound_to 11000
  144.7044  139.8621  143.7434 LP  0  0  0  0  0  0  0  0  0  0  0  0  # atno 17320 bound_to 7965
  146.1013  139.4009  143.0345 LP  0  0  0  0  0  0  0  0  0  0  0  0  # atno 17321 bound_to 7965
  140.6240  143.2179  151.6635 LP  0  0  0  0  0  0  0  0  0  0  0  0  # atno 17342 bound_to 10162
  139.5137  144.3435  152.0718 LP  0  0  0  0  0  0  0  0  0  0  0  0  # atno 17343 bound_to 10162
  156.2518  130.3701  149.8224 LP  0  0  0  0  0  0  0  0  0  0  0  0  # atno 17370 bound_to 10713
  156.5994  130.8540  151.3428 LP  0  0  0  0  0  0  0  0  0  0  0  0  # atno 17371 bound_to 10713
  139.9960  134.6911  155.9609 LP  0  0  0  0  0  0  0  0  0  0  0  0  # atno 17394 bound_to 11000
  141.1631  133.6538  156.4387 LP  0  0  0  0  0  0  0  0  0  0  0  0  # atno 17395 bound_to 11000

$$$$
