AV-unprocessed.smi:1626|AV-procd|sdf|6510|dock6
  -GOLD-   22720 7183D 1   1.00000     0.00000
 Structure written by MMmdl.
 49 51  0  0  0  0  0  0  0  0  3 V2000
  151.6453  144.0183  160.5958 C   0  0  0  0  0  0  0  0  0  0  0  0
  151.6621  143.0154  159.4548 C   0  0  0  0  0  0  0  0  0  0  0  0
  150.7859  143.2193  158.3646 C   0  0  0  0  0  0  0  0  0  0  0  0
  150.8273  142.2873  157.3346 C   0  0  0  0  0  0  0  0  0  0  0  0
  150.1082  142.2102  156.1397 N   0  3  0  0  0  0  0  0  0  0  0  0
  150.5033  141.1094  155.4414 C   0  0  0  0  0  0  0  0  0  0  0  0
  151.4555  140.4757  156.1797 N   0  0  0  0  0  0  0  0  0  0  0  0
  152.2174  139.2532  155.8929 C   0  0  0  0  0  0  0  0  0  0  0  0
  151.3420  137.9839  155.8399 C   0  0  2  0  0  0  0  0  0  0  0  0
  152.1377  136.9089  156.2961 O   0  0  0  0  0  0  0  0  0  0  0  0
  150.8169  137.6598  154.4234 C   0  0  0  0  0  0  0  0  0  0  0  0
  149.6804  136.7027  154.4362 N   0  3  2  0  0  0  0  0  0  0  0  0
  148.5534  137.1794  155.2796 C   0  0  0  0  0  0  0  0  0  0  0  0
  147.3371  136.2458  155.1616 C   0  0  0  0  0  0  0  0  0  0  0  0
  147.7162  134.8032  155.5268 C   0  0  1  0  0  0  0  0  0  0  0  0
  146.6098  133.9536  155.3117 O   0  0  0  0  0  0  0  0  0  0  0  0
  148.9013  134.3419  154.6660 C   0  0  0  0  0  0  0  0  0  0  0  0
  150.0842  135.3163  154.7969 C   0  0  0  0  0  0  0  0  0  0  0  0
  151.6977  141.1806  157.3634 C   0  0  0  0  0  0  0  0  0  0  0  0
  152.5689  140.9654  158.4283 C   0  0  0  0  0  0  0  0  0  0  0  0
  152.5411  141.9018  159.4865 C   0  0  0  0  0  0  0  0  0  0  0  0
  153.4783  141.6918  160.6637 C   0  0  0  0  0  0  0  0  0  0  0  0
  150.9509  144.8355  160.3986 H   0  0  0  0  0  0  0  0  0  0  0  0
  152.6351  144.4520  160.7405 H   0  0  0  0  0  0  0  0  0  0  0  0
  151.3388  143.5361  161.5242 H   0  0  0  0  0  0  0  0  0  0  0  0
  150.1158  144.0660  158.3329 H   0  0  0  0  0  0  0  0  0  0  0  0
  150.1278  140.7967  154.4775 H   0  0  0  0  0  0  0  0  0  0  0  0
  152.7229  139.4036  154.9377 H   0  0  0  0  0  0  0  0  0  0  0  0
  153.0011  139.1577  156.6461 H   0  0  0  0  0  0  0  0  0  0  0  0
  150.5141  138.1030  156.5372 H   0  0  0  0  0  0  0  0  0  0  0  0
  152.0792  136.8575  157.2377 H   0  0  0  0  0  0  0  0  0  0  0  0
  150.4999  138.5653  153.9047 H   0  0  0  0  0  0  0  0  0  0  0  0
  151.6418  137.2516  153.8372 H   0  0  0  0  0  0  0  0  0  0  0  0
  148.8775  137.2481  156.3194 H   0  0  0  0  0  0  0  0  0  0  0  0
  148.2610  138.1840  154.9710 H   0  0  0  0  0  0  0  0  0  0  0  0
  146.5343  136.5993  155.8100 H   0  0  0  0  0  0  0  0  0  0  0  0
  146.9508  136.2826  154.1416 H   0  0  0  0  0  0  0  0  0  0  0  0
  147.9866  134.7513  156.5824 H   0  0  0  0  0  0  0  0  0  0  0  0
  146.0515  134.3416  154.6547 H   0  0  0  0  0  0  0  0  0  0  0  0
  149.2124  133.3390  154.9615 H   0  0  0  0  0  0  0  0  0  0  0  0
  148.5994  134.2776  153.6193 H   0  0  0  0  0  0  0  0  0  0  0  0
  150.8945  134.9743  154.1542 H   0  0  0  0  0  0  0  0  0  0  0  0
  150.4676  135.3024  155.8184 H   0  0  0  0  0  0  0  0  0  0  0  0
  153.2428  140.1216  158.4494 H   0  0  0  0  0  0  0  0  0  0  0  0
  154.0559  140.7735  160.5550 H   0  0  0  0  0  0  0  0  0  0  0  0
  152.9160  141.6217  161.5952 H   0  0  0  0  0  0  0  0  0  0  0  0
  154.1820  142.5206  160.7443 H   0  0  0  0  0  0  0  0  0  0  0  0
  149.3243  136.6718  153.4917 H   0  0  0  0  0  0  0  0  0  0  0  0
  149.4064  142.8647  155.8181 H   0  0  0  0  0  0  0  0  0  0  0  0
  1  2  1  0  0  0  0
  1 23  1  0  0  0  0
  1 24  1  0  0  0  0
  1 25  1  0  0  0  0
  2 21  1  0  0  0  0
  2  3  2  0  0  0  0
  3  4  1  0  0  0  0
  3 26  1  0  0  0  0
  4 19  2  0  0  0  0
  4  5  1  0  0  0  0
  5  6  2  0  0  0  0
  5 49  1  0  0  0  0
  6  7  1  0  0  0  0
  6 27  1  0  0  0  0
  7  8  1  0  0  0  0
  7 19  1  0  0  0  0
  8  9  1  0  0  0  0
  8 28  1  0  0  0  0
  8 29  1  0  0  0  0
  9 10  1  0  0  0  0
  9 11  1  0  0  0  0
  9 30  1  0  0  0  0
 10 31  1  0  0  0  0
 11 12  1  0  0  0  0
 11 32  1  0  0  0  0
 11 33  1  0  0  0  0
 12 18  1  0  0  0  0
 12 13  1  0  0  0  0
 12 48  1  0  0  0  0
 13 14  1  0  0  0  0
 13 34  1  0  0  0  0
 13 35  1  0  0  0  0
 14 15  1  0  0  0  0
 14 36  1  0  0  0  0
 14 37  1  0  0  0  0
 15 16  1  0  0  0  0
 15 17  1  0  0  0  0
 15 38  1  0  0  0  0
 16 39  1  0  0  0  0
 17 18  1  0  0  0  0
 17 40  1  0  0  0  0
 17 41  1  0  0  0  0
 18 42  1  0  0  0  0
 18 43  1  0  0  0  0
 19 20  1  0  0  0  0
 20 21  2  0  0  0  0
 20 44  1  0  0  0  0
 21 22  1  0  0  0  0
 22 45  1  0  0  0  0
 22 46  1  0  0  0  0
 22 47  1  0  0  0  0
M  CHG  1   5   1
M  CHG  1  12   1
M  END
> <s_m_source_file>
AV-unprocessed.smi

> <i_m_source_file_index>
1626

> <i_lp_mmshare_version>
43012

> <i_f3d_flags>
0

> <s_epik_input>
W0NIM11jKFtjSF0xKWMoW0NIM10pW2NIXWMoYzEyKW4oW2NIXW4yKVtDSDJdW0NASF0oW09IXSlbQ0gyXU4zW0NIMl1bQ0gyXVtDSF0oW09IXSlbQ0gyXVtDSDJdMw==

> <s_epik_cmdline>
J2VwaWtfcHl0aG9uJywgJy1waCcsICc3LjAnLCAnLXRuJywgJzgnLCAnLW1hJywgJzIwMCcsICctbWV0YWxfYmluZGluZycsICctaW1hZScsICc8aW5maWxlLm1hZT4nLCAnLW9tYWUnLCAnPG91dGZpbGUubWFlPic=

> <r_epik_Ionization_Penalty>
1.19369

> <r_epik_Ionization_Penalty_Charging>
1.19369

> <r_epik_Ionization_Penalty_Neutral>
1.68219e-06

> <r_epik_State_Penalty>
1.27429

> <r_epik_Charging_Adjusted_Penalty>
2.46798

> <i_epik_Tot_Q>
2

> <i_epik_Tot_abs_Q>
2

> <r_epik_Metal_State_Penalty>
5.29157

> <b_epik_Metal_Only>
0

> <s_lp_Force_Field>
OPLS_2005

> <r_lp_Energy>
33.2617

> <b_lp_Chiralities_Consistent>
1

> <s_lp_Variant>
AV-unprocessed.smi:1626-5

> <Gold.Version>
5.8.1

> <Gold.Id.Protein>
6NUR|6NUR_protein|mol2

> <Gold.PLP.Fitness>
53.2529

> <Gold.PLP.PLP>
-39.5175

> <Gold.PLP.part.hbond>
-3.0000

> <Gold.PLP.part.metal>
0.0000

> <Gold.PLP.part.buried>
-2.8951

> <Gold.PLP.part.nonpolar>
-32.3753

> <Gold.PLP.part.repulsive>
0.1103

> <Gold.PLP.ligand.clash>
0.0000

> <Gold.PLP.ligand.torsion>
0.6089

> <Gold.PLP.Chemscore.Hbond>
4.9760

> <Gold.PLP.Chemscore.CHOScore>
0.0000

> <Gold.PLP.Chemscore.Metal>
0.0000

> <Gold.Chemscore.Hbonds>
donor molecule, donor type, donor heavy atom, donor atom, acceptor molecule, acceptor atom, score
      L1  H     5    49       P1  8028  1.86
      L1  H    12    48       P1  7948  2.00
      P1  H 10752 10765       L1    10  0.68

> <Gold.PLP.Chemscore.Internal.Correction>
0.0253

> <Gold.Rescore>
     Score         DG    S(hbond)    S(metal)    S(lipo)     H(rot)  DE(clash)    DE(int)     intcor
     18.29     -20.33       2.80        0.00     107.03       2.74       0.29       1.75       ----

> <Gold.Chemscore.Fitness>
18.2940

> <Gold.Chemscore.DG>
-20.3325

> <Gold.Chemscore.ZeroCoef>
-5.4800

> <Gold.Chemscore.Hbond>
2.7965

> <Gold.Chemscore.Metal>
0.0000

> <Gold.Chemscore.Lipo>
107.0303

> <Gold.Chemscore.Internal_Hbond>
0.0000

> <Gold.Chemscore.DEClash>
0.2927

> <Gold.Chemscore.DEInternal>
1.7459

> <Gold.Chemscore.Rot>
2.7384

> <Gold.Chemscore.Internal.Correction>
   9.000000E+99

> <Gold.Chemscore.Hbonds>
donor molecule, donor type, donor heavy atom, donor atom, acceptor molecule, acceptor atom, score
      L1  H     5    49       P1  8028  0.90
      L1  H    12    48       P1  7948  0.93
      P1  H 10752 10765       L1    10  0.65

> <Gold.Chemscore.Hbond.Weighted>
-9.3403

> <Gold.Chemscore.Metal.Weighted>
-0.0000

> <Gold.Chemscore.Lipo.Weighted>
-12.5225

> <Gold.Chemscore.Internal_Hbond.Weighted>
0.0000

> <Gold.Chemscore.DEClash.Weighted>
0.2927

> <Gold.Chemscore.DEInternal.Weighted>
1.7459

> <Gold.Chemscore.Rot.Weighted>
7.0103

> <Gold.Chemscore.Internal.Correction.Weighted>
   9.000000E+99

> <Gold.Protein.RotatedTorsions>
[ 6907 6896 6895 6894 ] final    6.18 input  -60.11 | X-H torsion
[ 7974 7965 7964 7962 ] final  -73.66 input  175.53 | X-H torsion
[ 8008 7997 7996 7995 ] final  -65.36 input   59.86 | X-H torsion
[ 10167 10162 10161 10158 ] final  -39.13 input  -65.29 | X-H torsion
[ 10718 10713 10712 10709 ] final  103.15 input   66.30 | X-H torsion
[ 10763 10752 10751 10750 ] final -160.89 input  -60.55 | X-H torsion
[ 11005 11000 10999 10996 ] final    4.06 input  -57.11 | X-H torsion

> <Gold.Protein.ActiveResidues>
 VAL166  LYS551  ARG553  GLY616  TRP617  ASP618  TYR619  PRO620  LYS621  CYS622 
 ASP623  PHE694  ASN695  SER759  ASP760  ASP761  ALA762  ILE779  LEU786  VAL792 
 PHE793  MET794  SER795  GLU796  ALA797  LYS798  CYS799  TRP800  GLU811  SER814 

> <Gold.Protein.RotatedAtoms>
  151.6696  135.0978  160.0195 H   0  0  0  0  0  0  0  0  0  0  0  0  # atno 6907 bound_to 6896
  152.3899  133.6660  159.6238 H   0  0  0  0  0  0  0  0  0  0  0  0  # atno 6908 bound_to 6896
  150.7817  133.8888  159.3348 H   0  0  0  0  0  0  0  0  0  0  0  0  # atno 6909 bound_to 6896
  145.6493  140.9287  143.0993 H   0  0  0  0  0  0  0  0  0  0  0  0  # atno 7974 bound_to 7965
  154.4667  140.0934  156.7039 H   0  0  0  0  0  0  0  0  0  0  0  0  # atno 8008 bound_to 7997
  155.4838  140.3468  155.4325 H   0  0  0  0  0  0  0  0  0  0  0  0  # atno 8009 bound_to 7997
  156.0968  140.1412  156.9508 H   0  0  0  0  0  0  0  0  0  0  0  0  # atno 8010 bound_to 7997
  140.7073  143.3233  151.2739 H   0  0  0  0  0  0  0  0  0  0  0  0  # atno 10167 bound_to 10162
  157.6781  131.0771  150.5511 H   0  0  0  0  0  0  0  0  0  0  0  0  # atno 10718 bound_to 10713
  154.7352  135.3055  154.8824 H   0  0  0  0  0  0  0  0  0  0  0  0  # atno 10763 bound_to 10752
  153.9655  135.6748  153.4750 H   0  0  0  0  0  0  0  0  0  0  0  0  # atno 10764 bound_to 10752
  153.0955  135.4938  154.8693 H   0  0  0  0  0  0  0  0  0  0  0  0  # atno 10765 bound_to 10752
  140.5862  133.9967  155.8069 H   0  0  0  0  0  0  0  0  0  0  0  0  # atno 11005 bound_to 11000
  144.7128  139.8306  143.7409 LP  0  0  0  0  0  0  0  0  0  0  0  0  # atno 17320 bound_to 7965
  146.1217  139.4236  143.0224 LP  0  0  0  0  0  0  0  0  0  0  0  0  # atno 17321 bound_to 7965
  139.6694  144.0047  152.2743 LP  0  0  0  0  0  0  0  0  0  0  0  0  # atno 17342 bound_to 10162
  139.9640  144.6538  150.8052 LP  0  0  0  0  0  0  0  0  0  0  0  0  # atno 17343 bound_to 10162
  156.5816  130.4306  149.5975 LP  0  0  0  0  0  0  0  0  0  0  0  0  # atno 17370 bound_to 10713
  156.2657  130.6988  151.1770 LP  0  0  0  0  0  0  0  0  0  0  0  0  # atno 17371 bound_to 10713
  141.0964  133.9836  157.3152 LP  0  0  0  0  0  0  0  0  0  0  0  0  # atno 17394 bound_to 11000
  139.9295  135.0200  156.8350 LP  0  0  0  0  0  0  0  0  0  0  0  0  # atno 17395 bound_to 11000

$$$$
