AV-unprocessed.smi:20|AV-procd|sdf|116|dock4
  -GOLD-   2262015283D 1   1.00000     0.00000
 Structure written by MMmdl.
 57 61  0  0  0  0  0  0  0  0  1 V2000
  153.3064  139.8132  153.6250 O   0  0  0  0  0  0  0  0  0  0  0  0
  152.3631  139.8085  154.4123 C   0  0  0  0  0  0  0  0  0  0  0  0
  150.9278  139.5173  154.0088 C   0  0  0  0  0  0  0  0  0  0  0  0
  150.1066  139.9976  155.2298 C   0  0  1  0  0  0  0  0  0  0  0  0
  149.6066  141.4566  155.0510 C   0  0  0  0  0  0  0  0  0  0  0  0
  148.4617  141.5582  154.0274 C   0  0  0  0  0  0  0  0  0  0  0  0
  147.3285  140.5778  154.3620 C   0  0  0  0  0  0  0  0  0  0  0  0
  147.8507  139.2208  154.5217 N   0  0  0  0  0  0  0  0  0  0  0  0
  146.9710  138.1888  154.4610 C   0  0  0  0  0  0  0  0  0  0  0  0
  146.7198  137.4453  155.5721 N   0  0  0  0  0  0  0  0  0  0  0  0
  145.8637  136.4208  155.5206 C   0  0  0  0  0  0  0  0  0  0  0  0
  145.1588  135.9743  154.4797 N   0  0  0  0  0  0  0  0  0  0  0  0
  145.3982  136.7206  153.3640 C   0  0  0  0  0  0  0  0  0  0  0  0
  146.2803  137.8341  153.2673 C   0  0  0  0  0  0  0  0  0  0  0  0
  146.2535  138.3463  151.9751 N   0  0  0  0  0  0  0  0  0  0  0  0
  145.4127  137.5742  151.3428 C   0  0  0  0  0  0  0  0  0  0  0  0
  144.8402  136.5811  152.1049 N   0  0  0  0  0  0  0  0  0  0  0  0
  143.8839  135.5841  151.6549 C   0  0  0  0  0  0  0  0  0  0  0  0
  143.7171  134.3794  152.6169 C   0  0  1  0  0  0  0  0  0  0  0  0
  142.3670  134.4992  153.3619 C   0  0  0  0  0  0  0  0  0  0  0  0
  142.3806  133.7918  154.5855 O   0  0  0  0  0  0  0  0  0  0  0  0
  143.8947  132.9924  151.9332 C   0  0  2  0  0  0  0  0  0  0  0  0
  145.2186  132.8076  151.2083 C   0  0  0  0  0  0  0  0  0  0  0  0
  144.9229  131.6259  150.2970 C   0  0  0  0  0  0  0  0  0  0  0  0
  143.5891  131.8420  149.8630 O   0  0  0  0  0  0  0  0  0  0  0  0
  142.9056  132.6686  150.8014 C   0  0  0  0  0  0  0  0  0  0  0  0
  148.9001  139.0800  155.5310 C   0  0  0  0  0  0  0  0  0  0  0  0
  151.1451  139.9417  156.3755 C   0  0  0  0  0  0  0  0  0  0  0  0
  152.4334  140.0499  155.7190 N   0  0  0  0  0  0  0  0  0  0  0  0
  150.6675  140.0203  153.0782 H   0  0  0  0  0  0  0  0  0  0  0  0
  150.8253  138.4428  153.8516 H   0  0  0  0  0  0  0  0  0  0  0  0
  149.2423  141.8338  156.0075 H   0  0  0  0  0  0  0  0  0  0  0  0
  150.4256  142.1148  154.7586 H   0  0  0  0  0  0  0  0  0  0  0  0
  148.0735  142.5766  154.0039 H   0  0  0  0  0  0  0  0  0  0  0  0
  148.8341  141.3537  153.0237 H   0  0  0  0  0  0  0  0  0  0  0  0
  146.8324  140.8822  155.2848 H   0  0  0  0  0  0  0  0  0  0  0  0
  146.5811  140.6065  153.5679 H   0  0  0  0  0  0  0  0  0  0  0  0
  145.7232  135.8818  156.4460 H   0  0  0  0  0  0  0  0  0  0  0  0
  145.1796  137.7133  150.2972 H   0  0  0  0  0  0  0  0  0  0  0  0
  142.9288  136.0952  151.5289 H   0  0  0  0  0  0  0  0  0  0  0  0
  144.1741  135.2364  150.6630 H   0  0  0  0  0  0  0  0  0  0  0  0
  144.4861  134.4650  153.3858 H   0  0  0  0  0  0  0  0  0  0  0  0
  142.1185  135.5416  153.5608 H   0  0  0  0  0  0  0  0  0  0  0  0
  141.5568  134.1093  152.7452 H   0  0  0  0  0  0  0  0  0  0  0  0
  142.9418  133.0372  154.4912 H   0  0  0  0  0  0  0  0  0  0  0  0
  143.8162  132.2085  152.6886 H   0  0  0  0  0  0  0  0  0  0  0  0
  145.4557  133.6894  150.6109 H   0  0  0  0  0  0  0  0  0  0  0  0
  146.0545  132.6123  151.8808 H   0  0  0  0  0  0  0  0  0  0  0  0
  145.6137  131.5570  149.4565 H   0  0  0  0  0  0  0  0  0  0  0  0
  144.9679  130.6905  150.8566 H   0  0  0  0  0  0  0  0  0  0  0  0
  142.0176  132.1564  151.1698 H   0  0  0  0  0  0  0  0  0  0  0  0
  142.5852  133.5721  150.2818 H   0  0  0  0  0  0  0  0  0  0  0  0
  149.2366  138.0476  155.6195 H   0  0  0  0  0  0  0  0  0  0  0  0
  148.4733  139.3429  156.4999 H   0  0  0  0  0  0  0  0  0  0  0  0
  151.0112  140.7320  157.1148 H   0  0  0  0  0  0  0  0  0  0  0  0
  151.1107  138.9863  156.9015 H   0  0  0  0  0  0  0  0  0  0  0  0
  153.2861  140.2661  156.2147 H   0  0  0  0  0  0  0  0  0  0  0  0
  1  2  2  0  0  0  0
  2 29  1  0  0  0  0
  2  3  1  0  0  0  0
  3  4  1  0  0  0  0
  3 30  1  0  0  0  0
  3 31  1  0  0  0  0
  4 27  1  0  0  0  0
  4  5  1  0  0  0  0
  4 28  1  0  0  0  0
  5  6  1  0  0  0  0
  5 32  1  0  0  0  0
  5 33  1  0  0  0  0
  6  7  1  0  0  0  0
  6 34  1  0  0  0  0
  6 35  1  0  0  0  0
  7  8  1  0  0  0  0
  7 36  1  0  0  0  0
  7 37  1  0  0  0  0
  8  9  1  0  0  0  0
  8 27  1  0  0  0  0
  9 14  1  0  0  0  0
  9 10  2  0  0  0  0
 10 11  1  0  0  0  0
 11 12  2  0  0  0  0
 11 38  1  0  0  0  0
 12 13  1  0  0  0  0
 13 17  1  0  0  0  0
 13 14  2  0  0  0  0
 14 15  1  0  0  0  0
 15 16  2  0  0  0  0
 16 17  1  0  0  0  0
 16 39  1  0  0  0  0
 17 18  1  0  0  0  0
 18 19  1  0  0  0  0
 18 40  1  0  0  0  0
 18 41  1  0  0  0  0
 19 20  1  0  0  0  0
 19 22  1  0  0  0  0
 19 42  1  0  0  0  0
 20 21  1  0  0  0  0
 20 43  1  0  0  0  0
 20 44  1  0  0  0  0
 21 45  1  0  0  0  0
 22 26  1  0  0  0  0
 22 23  1  0  0  0  0
 22 46  1  0  0  0  0
 23 24  1  0  0  0  0
 23 47  1  0  0  0  0
 23 48  1  0  0  0  0
 24 25  1  0  0  0  0
 24 49  1  0  0  0  0
 24 50  1  0  0  0  0
 25 26  1  0  0  0  0
 26 51  1  0  0  0  0
 26 52  1  0  0  0  0
 27 53  1  0  0  0  0
 27 54  1  0  0  0  0
 28 29  1  0  0  0  0
 28 55  1  0  0  0  0
 28 56  1  0  0  0  0
 29 57  1  0  0  0  0
M  END
> <s_m_source_file>
AV-unprocessed.smi

> <i_m_source_file_index>
20

> <i_lp_mmshare_version>
43012

> <i_f3d_flags>
0

> <s_epik_input>
W0NIMl0xW05IXUMoPU8pW0NIMl1bQ0BAXTEyW0NIMl1bQ0gyXVtDSDJdTihbQ0gyXTIpYyhuW2NIXW4zKWMoYzM0KW5bY0hdbjRbQ0gyXVtDQEhdKFtDSDJdW09IXSlbQ0BASF01W0NIMl1bQ0gyXU9bQ0gyXTU=

> <s_epik_cmdline>
J2VwaWtfcHl0aG9uJywgJy1waCcsICc3LjAnLCAnLXRuJywgJzgnLCAnLW1hJywgJzIwMCcsICctbWV0YWxfYmluZGluZycsICctaW1hZScsICc8aW5maWxlLm1hZT4nLCAnLW9tYWUnLCAnPG91dGZpbGUubWFlPic=

> <r_lp_tautomer_probability>
1

> <r_epik_Ionization_Penalty>
0.0019697

> <r_epik_Ionization_Penalty_Charging>
0

> <r_epik_Ionization_Penalty_Neutral>
0.0019697

> <r_epik_State_Penalty>
0.00113613

> <r_epik_Charging_Adjusted_Penalty>
0.00113613

> <i_epik_Tot_Q>
0

> <i_epik_Tot_abs_Q>
0

> <r_epik_Metal_State_Penalty>
-0

> <b_epik_Metal_Only>
0

> <s_lp_Force_Field>
OPLS_2005

> <r_lp_Energy>
60.744

> <b_lp_Chiralities_Consistent>
1

> <s_lp_Variant>
AV-unprocessed.smi:20-4

> <Gold.Version>
5.8.1

> <Gold.Id.Protein>
6NUR|6NUR_protein|mol2

> <Gold.PLP.Fitness>
50.8121

> <Gold.PLP.PLP>
-40.7433

> <Gold.PLP.part.hbond>
-4.8911

> <Gold.PLP.part.metal>
0.0000

> <Gold.PLP.part.buried>
-0.1397

> <Gold.PLP.part.nonpolar>
-38.3826

> <Gold.PLP.part.repulsive>
0.9044

> <Gold.PLP.ligand.clash>
0.0000

> <Gold.PLP.ligand.torsion>
1.4969

> <Gold.PLP.Chemscore.Hbond>
3.7125

> <Gold.PLP.Chemscore.CHOScore>
0.4678

> <Gold.PLP.Chemscore.Metal>
0.0000

> <Gold.Chemscore.Hbonds>
donor molecule, donor type, donor heavy atom, donor atom, acceptor molecule, acceptor atom, score
      L1  H    21    45       P1 10957  0.27
      P1  H 10785 10796       L1    25  0.87
      P1  H 11000 11005       L1    21  0.80
      L1  C    16    39       P1 10171  0.02

> <Gold.PLP.Chemscore.Internal.Correction>
0.5218

> <Gold.Rescore>
     Score         DG    S(hbond)    S(metal)    S(lipo)     H(rot)  DE(clash)    DE(int)     intcor
     13.61     -18.17       2.73        0.00      90.50       2.74       1.63       2.93       ----

> <Gold.Chemscore.Fitness>
13.6071

> <Gold.Chemscore.DG>
-18.1681

> <Gold.Chemscore.ZeroCoef>
-5.4800

> <Gold.Chemscore.Hbond>
2.7298

> <Gold.Chemscore.Metal>
0.0000

> <Gold.Chemscore.Lipo>
90.5012

> <Gold.Chemscore.Internal_Hbond>
0.0000

> <Gold.Chemscore.DEClash>
1.6328

> <Gold.Chemscore.DEInternal>
2.9281

> <Gold.Chemscore.Rot>
2.7415

> <Gold.Chemscore.Internal.Correction>
   9.000000E+99

> <Gold.Chemscore.Hbonds>
donor molecule, donor type, donor heavy atom, donor atom, acceptor molecule, acceptor atom, score
      L1  H    21    45       P1 10957  0.27
      P1  H 10785 10796       L1    25  0.28
      P1  H 11000 11005       L1    21  0.72

> <Gold.Chemscore.Hbond.Weighted>
-9.1176

> <Gold.Chemscore.Metal.Weighted>
-0.0000

> <Gold.Chemscore.Lipo.Weighted>
-10.5886

> <Gold.Chemscore.Internal_Hbond.Weighted>
0.0000

> <Gold.Chemscore.DEClash.Weighted>
1.6328

> <Gold.Chemscore.DEInternal.Weighted>
2.9281

> <Gold.Chemscore.Rot.Weighted>
7.0182

> <Gold.Chemscore.Internal.Correction.Weighted>
   9.000000E+99

> <Gold.Protein.RotatedTorsions>
[ 6907 6896 6895 6894 ] final  110.89 input  -60.11 | X-H torsion
[ 7974 7965 7964 7962 ] final  -17.23 input  175.53 | X-H torsion
[ 8008 7997 7996 7995 ] final  105.75 input   59.86 | X-H torsion
[ 10167 10162 10161 10158 ] final  100.69 input  -65.29 | X-H torsion
[ 10718 10713 10712 10709 ] final  131.91 input   66.30 | X-H torsion
[ 10763 10752 10751 10750 ] final  -58.45 input  -60.55 | X-H torsion
[ 11005 11000 10999 10996 ] final   -0.46 input  -57.11 | X-H torsion

> <Gold.Protein.ActiveResidues>
 VAL166  LYS551  ARG553  GLY616  TRP617  ASP618  TYR619  PRO620  LYS621  CYS622 
 ASP623  PHE694  ASN695  SER759  ASP760  ASP761  ALA762  ILE779  LEU786  VAL792 
 PHE793  MET794  SER795  GLU796  ALA797  LYS798  CYS799  TRP800  GLU811  SER814 

> <Gold.Protein.RotatedAtoms>
  152.4997  133.8736  159.7310 H   0  0  0  0  0  0  0  0  0  0  0  0  # atno 6907 bound_to 6896
  150.9216  133.6865  159.2837 H   0  0  0  0  0  0  0  0  0  0  0  0  # atno 6908 bound_to 6896
  151.4240  135.1006  159.9675 H   0  0  0  0  0  0  0  0  0  0  0  0  # atno 6909 bound_to 6896
  146.1951  140.3749  142.8444 H   0  0  0  0  0  0  0  0  0  0  0  0  # atno 7974 bound_to 7965
  156.1686  140.3125  155.8932 H   0  0  0  0  0  0  0  0  0  0  0  0  # atno 8008 bound_to 7997
  155.3635  140.0478  157.3063 H   0  0  0  0  0  0  0  0  0  0  0  0  # atno 8009 bound_to 7997
  154.5217  140.2200  155.8974 H   0  0  0  0  0  0  0  0  0  0  0  0  # atno 8010 bound_to 7997
  139.7504  144.6985  151.0440 H   0  0  0  0  0  0  0  0  0  0  0  0  # atno 10167 bound_to 10162
  157.4922  131.1091  150.9540 H   0  0  0  0  0  0  0  0  0  0  0  0  # atno 10718 bound_to 10713
  154.2383  135.6348  153.5198 H   0  0  0  0  0  0  0  0  0  0  0  0  # atno 10763 bound_to 10752
  152.9935  135.5536  154.5938 H   0  0  0  0  0  0  0  0  0  0  0  0  # atno 10764 bound_to 10752
  154.5437  135.2896  155.1046 H   0  0  0  0  0  0  0  0  0  0  0  0  # atno 10765 bound_to 10752
  140.6366  133.9527  155.8303 H   0  0  0  0  0  0  0  0  0  0  0  0  # atno 11005 bound_to 11000
  144.8564  140.7076  143.6135 LP  0  0  0  0  0  0  0  0  0  0  0  0  # atno 17320 bound_to 7965
  145.3670  139.1668  143.4352 LP  0  0  0  0  0  0  0  0  0  0  0  0  # atno 17321 bound_to 7965
  140.7797  143.4816  151.0011 LP  0  0  0  0  0  0  0  0  0  0  0  0  # atno 17342 bound_to 10162
  139.8503  143.7447  152.3178 LP  0  0  0  0  0  0  0  0  0  0  0  0  # atno 17343 bound_to 10162
  157.0238  130.5684  149.5334 LP  0  0  0  0  0  0  0  0  0  0  0  0  # atno 17370 bound_to 10713
  156.0180  130.5275  150.8192 LP  0  0  0  0  0  0  0  0  0  0  0  0  # atno 17371 bound_to 10713
  141.0637  134.0308  157.3623 LP  0  0  0  0  0  0  0  0  0  0  0  0  # atno 17394 bound_to 11000
  139.9096  135.0187  156.7635 LP  0  0  0  0  0  0  0  0  0  0  0  0  # atno 17395 bound_to 11000

$$$$
