AV-unprocessed.smi:1913|AV-procd|sdf|7755|dock4
  -GOLD-   22720 9493D 1   1.00000     0.00000
 Structure written by MMmdl.
 41 43  0  0  0  0  0  0  0  0  2 V2000
  151.3389  144.7434  158.7464 C   0  0  0  0  0  0  0  0  0  0  0  0
  152.5496  144.1976  159.2496 O   0  0  0  0  0  0  0  0  0  0  0  0
  152.6470  142.8272  159.3596 C   0  0  0  0  0  0  0  0  0  0  0  0
  153.4530  142.1600  160.3117 C   0  0  0  0  0  0  0  0  0  0  0  0
  153.5000  140.7544  160.3466 C   0  0  0  0  0  0  0  0  0  0  0  0
  152.7418  139.9791  159.4350 C   0  0  0  0  0  0  0  0  0  0  0  0
  152.7661  138.5991  159.4136 O   0  0  0  0  0  0  0  0  0  0  0  0
  153.5509  137.9191  160.3815 C   0  0  0  0  0  0  0  0  0  0  0  0
  151.9236  140.6443  158.4886 C   0  0  0  0  0  0  0  0  0  0  0  0
  151.1068  139.8464  157.4726 C   0  0  1  0  0  0  0  0  0  0  0  0
  149.7154  140.0443  157.6193 O   0  0  0  0  0  0  0  0  0  0  0  0
  151.4841  140.1946  156.0172 C   0  0  0  0  0  0  0  0  0  0  0  0
  150.6122  139.5435  155.0308 N   0  0  0  0  0  0  0  0  0  0  0  0
  150.7357  138.3323  154.4233 C   0  0  0  0  0  0  0  0  0  0  0  0
  149.6525  138.1657  153.6149 N   0  3  0  0  0  0  0  0  0  0  0  0
  148.8270  139.2887  153.7047 C   0  0  0  0  0  0  0  0  0  0  0  0
  147.6177  139.5831  153.0830 C   0  0  0  0  0  0  0  0  0  0  0  0
  147.0293  140.8251  153.4004 C   0  0  0  0  0  0  0  0  0  0  0  0
  147.6426  141.7205  154.3011 C   0  0  0  0  0  0  0  0  0  0  0  0
  148.8701  141.4126  154.9235 C   0  0  0  0  0  0  0  0  0  0  0  0
  149.4422  140.1814  154.6073 C   0  0  0  0  0  0  0  0  0  0  0  0
  151.8906  142.0560  158.4569 C   0  0  0  0  0  0  0  0  0  0  0  0
  151.4167  145.8302  158.7230 H   0  0  0  0  0  0  0  0  0  0  0  0
  150.4908  144.4877  159.3831 H   0  0  0  0  0  0  0  0  0  0  0  0
  151.1418  144.4051  157.7282 H   0  0  0  0  0  0  0  0  0  0  0  0
  154.0502  142.7047  161.0269 H   0  0  0  0  0  0  0  0  0  0  0  0
  154.1323  140.2926  161.0893 H   0  0  0  0  0  0  0  0  0  0  0  0
  153.5195  136.8488  160.1781 H   0  0  0  0  0  0  0  0  0  0  0  0
  153.1654  138.0759  161.3896 H   0  0  0  0  0  0  0  0  0  0  0  0
  154.5953  138.2307  160.3384 H   0  0  0  0  0  0  0  0  0  0  0  0
  151.2633  138.7814  157.6404 H   0  0  0  0  0  0  0  0  0  0  0  0
  149.5500  140.9724  157.6878 H   0  0  0  0  0  0  0  0  0  0  0  0
  151.4448  141.2715  155.8479 H   0  0  0  0  0  0  0  0  0  0  0  0
  152.5076  139.8818  155.8049 H   0  0  0  0  0  0  0  0  0  0  0  0
  151.5396  137.6250  154.5686 H   0  0  0  0  0  0  0  0  0  0  0  0
  147.1455  138.8994  152.3929 H   0  0  0  0  0  0  0  0  0  0  0  0
  146.0887  141.0965  152.9435 H   0  0  0  0  0  0  0  0  0  0  0  0
  147.1614  142.6628  154.5196 H   0  0  0  0  0  0  0  0  0  0  0  0
  149.3321  142.1027  155.6140 H   0  0  0  0  0  0  0  0  0  0  0  0
  151.2800  142.5627  157.7237 H   0  0  0  0  0  0  0  0  0  0  0  0
  149.4898  137.3435  153.0478 H   0  0  0  0  0  0  0  0  0  0  0  0
  1  2  1  0  0  0  0
  1 23  1  0  0  0  0
  1 24  1  0  0  0  0
  1 25  1  0  0  0  0
  2  3  1  0  0  0  0
  3 22  1  0  0  0  0
  3  4  2  0  0  0  0
  4  5  1  0  0  0  0
  4 26  1  0  0  0  0
  5  6  2  0  0  0  0
  5 27  1  0  0  0  0
  6  7  1  0  0  0  0
  6  9  1  0  0  0  0
  7  8  1  0  0  0  0
  8 28  1  0  0  0  0
  8 29  1  0  0  0  0
  8 30  1  0  0  0  0
  9 10  1  0  0  0  0
  9 22  2  0  0  0  0
 10 11  1  0  0  0  0
 10 12  1  0  0  0  0
 10 31  1  0  0  0  0
 11 32  1  0  0  0  0
 12 13  1  0  0  0  0
 12 33  1  0  0  0  0
 12 34  1  0  0  0  0
 13 21  1  0  0  0  0
 13 14  1  0  0  0  0
 14 15  2  0  0  0  0
 14 35  1  0  0  0  0
 15 16  1  0  0  0  0
 15 41  1  0  0  0  0
 16 21  2  0  0  0  0
 16 17  1  0  0  0  0
 17 18  2  0  0  0  0
 17 36  1  0  0  0  0
 18 19  1  0  0  0  0
 18 37  1  0  0  0  0
 19 20  2  0  0  0  0
 19 38  1  0  0  0  0
 20 21  1  0  0  0  0
 20 39  1  0  0  0  0
 22 40  1  0  0  0  0
M  CHG  1  15   1
M  END
> <s_m_source_file>
AV-unprocessed.smi

> <i_m_source_file_index>
1913

> <i_lp_mmshare_version>
43012

> <i_f3d_flags>
0

> <s_epik_input>
W0NIM11PYzFbY0hdW2NIXWMoT1tDSDNdKWMoW2NIXTEpW0NASF0oW09IXSlbQ0gyXW4oW2NIXW4yKWMoYzIzKVtjSF1bY0hdW2NIXVtjSF0z

> <s_epik_cmdline>
J2VwaWtfcHl0aG9uJywgJy1waCcsICc3LjAnLCAnLXRuJywgJzgnLCAnLW1hJywgJzIwMCcsICctbWV0YWxfYmluZGluZycsICctaW1hZScsICc8aW5maWxlLm1hZT4nLCAnLW9tYWUnLCAnPG91dGZpbGUubWFlPic=

> <r_lp_tautomer_probability>
1

> <r_epik_Ionization_Penalty>
1.3029

> <r_epik_Ionization_Penalty_Charging>
1.3029

> <r_epik_Ionization_Penalty_Neutral>
1.34362e-06

> <r_epik_State_Penalty>
1.377

> <r_epik_Charging_Adjusted_Penalty>
2.6799

> <i_epik_Tot_Q>
1

> <i_epik_Tot_abs_Q>
1

> <r_epik_Metal_State_Penalty>
5.40879

> <b_epik_Metal_Only>
0

> <s_lp_Force_Field>
OPLS_2005

> <r_lp_Energy>
24.0382

> <b_lp_Chiralities_Consistent>
1

> <s_lp_Variant>
AV-unprocessed.smi:1913-4

> <Gold.Version>
5.8.1

> <Gold.Id.Protein>
6NUR|6NUR_protein|mol2

> <Gold.PLP.Fitness>
52.7188

> <Gold.PLP.PLP>
-48.2981

> <Gold.PLP.part.hbond>
-2.0000

> <Gold.PLP.part.metal>
0.0000

> <Gold.PLP.part.buried>
0.6207

> <Gold.PLP.part.nonpolar>
-46.3210

> <Gold.PLP.part.repulsive>
0.0638

> <Gold.PLP.ligand.clash>
0.0000

> <Gold.PLP.ligand.torsion>
0.8028

> <Gold.PLP.Chemscore.Hbond>
2.0000

> <Gold.PLP.Chemscore.CHOScore>
0.0000

> <Gold.PLP.Chemscore.Metal>
0.0000

> <Gold.Chemscore.Hbonds>
donor molecule, donor type, donor heavy atom, donor atom, acceptor molecule, acceptor atom, score
      L1  H    15    41       P1  7948  2.00

> <Gold.PLP.Chemscore.Internal.Correction>
0.0263

> <Gold.Rescore>
     Score         DG    S(hbond)    S(metal)    S(lipo)     H(rot)  DE(clash)    DE(int)     intcor
     15.96     -17.46       0.93        0.00     128.47       2.41       0.12       1.38       ----

> <Gold.Chemscore.Fitness>
15.9557

> <Gold.Chemscore.DG>
-17.4563

> <Gold.Chemscore.ZeroCoef>
-5.4800

> <Gold.Chemscore.Hbond>
0.9333

> <Gold.Chemscore.Metal>
0.0000

> <Gold.Chemscore.Lipo>
128.4699

> <Gold.Chemscore.Internal_Hbond>
0.0000

> <Gold.Chemscore.DEClash>
0.1175

> <Gold.Chemscore.DEInternal>
1.3831

> <Gold.Chemscore.Rot>
2.4109

> <Gold.Chemscore.Internal.Correction>
   9.000000E+99

> <Gold.Chemscore.Hbonds>
donor molecule, donor type, donor heavy atom, donor atom, acceptor molecule, acceptor atom, score
      L1  H    15    41       P1  7948  0.85

> <Gold.Chemscore.Hbond.Weighted>
-3.1174

> <Gold.Chemscore.Metal.Weighted>
-0.0000

> <Gold.Chemscore.Lipo.Weighted>
-15.0310

> <Gold.Chemscore.Internal_Hbond.Weighted>
0.0000

> <Gold.Chemscore.DEClash.Weighted>
0.1175

> <Gold.Chemscore.DEInternal.Weighted>
1.3831

> <Gold.Chemscore.Rot.Weighted>
6.1720

> <Gold.Chemscore.Internal.Correction.Weighted>
   9.000000E+99

> <Gold.Protein.RotatedTorsions>
[ 6907 6896 6895 6894 ] final  -27.34 input  -60.11 | X-H torsion
[ 7974 7965 7964 7962 ] final  -66.38 input  175.53 | X-H torsion
[ 8008 7997 7996 7995 ] final -152.42 input   59.86 | X-H torsion
[ 10167 10162 10161 10158 ] final  133.92 input  -65.29 | X-H torsion
[ 10718 10713 10712 10709 ] final   79.68 input   66.30 | X-H torsion
[ 10763 10752 10751 10750 ] final   66.62 input  -60.55 | X-H torsion
[ 11005 11000 10999 10996 ] final -144.11 input  -57.11 | X-H torsion

> <Gold.Protein.ActiveResidues>
 VAL166  LYS551  ARG553  GLY616  TRP617  ASP618  TYR619  PRO620  LYS621  CYS622 
 ASP623  PHE694  ASN695  SER759  ASP760  ASP761  ALA762  ILE779  LEU786  VAL792 
 PHE793  MET794  SER795  GLU796  ALA797  LYS798  CYS799  TRP800  GLU811  SER814 

> <Gold.Protein.RotatedAtoms>
  151.1483  135.0214  159.8656 H   0  0  0  0  0  0  0  0  0  0  0  0  # atno 6907 bound_to 6896
  152.5453  134.1418  159.8492 H   0  0  0  0  0  0  0  0  0  0  0  0  # atno 6908 bound_to 6896
  151.1501  133.4867  159.2628 H   0  0  0  0  0  0  0  0  0  0  0  0  # atno 6909 bound_to 6896
  145.7425  140.8947  143.0522 H   0  0  0  0  0  0  0  0  0  0  0  0  # atno 7974 bound_to 7965
  155.6549  140.0716  157.2574 H   0  0  0  0  0  0  0  0  0  0  0  0  # atno 8008 bound_to 7997
  154.4154  140.1727  156.1764 H   0  0  0  0  0  0  0  0  0  0  0  0  # atno 8009 bound_to 7997
  155.9746  140.3359  155.6610 H   0  0  0  0  0  0  0  0  0  0  0  0  # atno 8010 bound_to 7997
  139.5277  144.6592  151.5066 H   0  0  0  0  0  0  0  0  0  0  0  0  # atno 10167 bound_to 10162
  157.6784  130.9925  150.1968 H   0  0  0  0  0  0  0  0  0  0  0  0  # atno 10718 bound_to 10713
  153.0148  135.5314  154.6853 H   0  0  0  0  0  0  0  0  0  0  0  0  # atno 10763 bound_to 10752
  154.6002  135.2867  155.0546 H   0  0  0  0  0  0  0  0  0  0  0  0  # atno 10764 bound_to 10752
  154.1606  135.6548  153.5037 H   0  0  0  0  0  0  0  0  0  0  0  0  # atno 10765 bound_to 10752
  140.8057  134.2804  157.4961 H   0  0  0  0  0  0  0  0  0  0  0  0  # atno 11005 bound_to 11000
  144.6867  139.9480  143.7477 LP  0  0  0  0  0  0  0  0  0  0  0  0  # atno 17320 bound_to 7965
  146.0434  139.3443  143.0683 LP  0  0  0  0  0  0  0  0  0  0  0  0  # atno 17321 bound_to 7965
  140.6432  143.8846  150.6712 LP  0  0  0  0  0  0  0  0  0  0  0  0  # atno 17342 bound_to 10162
  140.2187  143.3826  152.1660 LP  0  0  0  0  0  0  0  0  0  0  0  0  # atno 17343 bound_to 10162
  156.2668  130.3717  149.8073 LP  0  0  0  0  0  0  0  0  0  0  0  0  # atno 17370 bound_to 10713
  156.5802  130.8462  151.3381 LP  0  0  0  0  0  0  0  0  0  0  0  0  # atno 17371 bound_to 10713
  139.8718  134.9455  156.3911 LP  0  0  0  0  0  0  0  0  0  0  0  0  # atno 17394 bound_to 11000
  140.9249  133.7619  155.9952 LP  0  0  0  0  0  0  0  0  0  0  0  0  # atno 17395 bound_to 11000

$$$$
