AV-unprocessed.smi:1654|AV-procd|sdf|6642|dock9
  -GOLD-   22720 7343D 1   1.00000     0.00000
 Structure written by MMmdl.
 40 41  0  0  0  0  0  0  0  0  1 V2000
  151.6862  138.9999  159.1790 O   0  0  0  0  0  0  0  0  0  0  0  0
  152.7397  139.9424  158.7722 S   0  0  0  0  0  0  0  0  0  0  0  0
  154.1538  139.5375  158.7544 O   0  0  0  0  0  0  0  0  0  0  0  0
  152.3235  140.5551  157.2164 N   0  0  0  0  0  0  0  0  0  0  0  0
  150.9810  140.2920  156.7065 C   0  0  0  0  0  0  0  0  0  0  0  0
  150.6483  141.2579  155.5626 C   0  0  0  0  0  0  0  0  0  0  0  0
  149.3978  140.8423  154.8132 C   0  0  0  0  0  0  0  0  0  0  0  0
  149.2437  139.5240  154.3371 C   0  0  0  0  0  0  0  0  0  0  0  0
  148.0669  139.1879  153.6405 C   0  0  0  0  0  0  0  0  0  0  0  0
  147.0921  140.1874  153.4490 C   0  0  0  0  0  0  0  0  0  0  0  0
  147.2291  141.4529  153.9004 N   0  0  0  0  0  0  0  0  0  0  0  0
  148.3607  141.7671  154.5671 C   0  0  0  0  0  0  0  0  0  0  0  0
  152.5920  141.4029  159.6963 N   0  0  0  0  0  0  0  0  0  0  0  0
  152.5940  142.6848  158.9652 C   0  0  0  0  0  0  0  0  0  0  0  0
  151.4636  143.6010  159.4575 C   0  0  0  0  0  0  0  0  0  0  0  0
  151.8397  144.5101  160.6404 C   0  0  0  0  0  0  0  0  0  0  0  0
  152.7618  143.8844  161.7011 C   0  0  0  0  0  0  0  0  0  0  0  0
  152.4804  142.4051  162.0048 C   0  0  0  0  0  0  0  0  0  0  0  0
  153.1896  141.4313  161.0437 C   0  0  0  0  0  0  0  0  0  0  0  0
  152.6003  141.5304  157.1080 H   0  0  0  0  0  0  0  0  0  0  0  0
  150.9271  139.2582  156.3631 H   0  0  0  0  0  0  0  0  0  0  0  0
  150.2634  140.4030  157.5203 H   0  0  0  0  0  0  0  0  0  0  0  0
  150.5088  142.2673  155.9522 H   0  0  0  0  0  0  0  0  0  0  0  0
  151.4822  141.3103  154.8611 H   0  0  0  0  0  0  0  0  0  0  0  0
  150.0135  138.7837  154.4997 H   0  0  0  0  0  0  0  0  0  0  0  0
  147.9151  138.1882  153.2608 H   0  0  0  0  0  0  0  0  0  0  0  0
  146.1782  139.9648  152.9182 H   0  0  0  0  0  0  0  0  0  0  0  0
  148.4409  142.7874  154.9124 H   0  0  0  0  0  0  0  0  0  0  0  0
  153.5713  143.1641  159.0359 H   0  0  0  0  0  0  0  0  0  0  0  0
  152.4384  142.4889  157.9042 H   0  0  0  0  0  0  0  0  0  0  0  0
  151.1368  144.2380  158.6349 H   0  0  0  0  0  0  0  0  0  0  0  0
  150.5926  142.9962  159.7148 H   0  0  0  0  0  0  0  0  0  0  0  0
  152.3206  145.4127  160.2615 H   0  0  0  0  0  0  0  0  0  0  0  0
  150.9185  144.8467  161.1169 H   0  0  0  0  0  0  0  0  0  0  0  0
  153.8035  143.9982  161.3989 H   0  0  0  0  0  0  0  0  0  0  0  0
  152.6631  144.4642  162.6196 H   0  0  0  0  0  0  0  0  0  0  0  0
  152.8508  142.1969  163.0091 H   0  0  0  0  0  0  0  0  0  0  0  0
  151.4078  142.2098  162.0411 H   0  0  0  0  0  0  0  0  0  0  0  0
  153.1295  140.4338  161.4782 H   0  0  0  0  0  0  0  0  0  0  0  0
  154.2525  141.6622  160.9640 H   0  0  0  0  0  0  0  0  0  0  0  0
  1  2  2  0  0  0  0
  2  3  2  0  0  0  0
  2  4  1  0  0  0  0
  2 13  1  0  0  0  0
  4  5  1  0  0  0  0
  4 20  1  0  0  0  0
  5  6  1  0  0  0  0
  5 21  1  0  0  0  0
  5 22  1  0  0  0  0
  6  7  1  0  0  0  0
  6 23  1  0  0  0  0
  6 24  1  0  0  0  0
  7 12  1  0  0  0  0
  7  8  2  0  0  0  0
  8  9  1  0  0  0  0
  8 25  1  0  0  0  0
  9 10  2  0  0  0  0
  9 26  1  0  0  0  0
 10 11  1  0  0  0  0
 10 27  1  0  0  0  0
 11 12  2  0  0  0  0
 12 28  1  0  0  0  0
 13 19  1  0  0  0  0
 13 14  1  0  0  0  0
 14 15  1  0  0  0  0
 14 29  1  0  0  0  0
 14 30  1  0  0  0  0
 15 16  1  0  0  0  0
 15 31  1  0  0  0  0
 15 32  1  0  0  0  0
 16 17  1  0  0  0  0
 16 33  1  0  0  0  0
 16 34  1  0  0  0  0
 17 18  1  0  0  0  0
 17 35  1  0  0  0  0
 17 36  1  0  0  0  0
 18 19  1  0  0  0  0
 18 37  1  0  0  0  0
 18 38  1  0  0  0  0
 19 39  1  0  0  0  0
 19 40  1  0  0  0  0
M  END
> <s_m_source_file>
AV-unprocessed.smi

> <i_m_source_file_index>
1654

> <i_lp_mmshare_version>
43012

> <i_f3d_flags>
0

> <s_epik_input>
W0NIMl0xW0NIMl1bQ0gyXVtDSDJdW0NIMl1bQ0gyXU4xUyg9TykoPU8pW05IXVtDSDJdW0NIMl1jMltjSF1bY0hdW2NIXW5bY0hdMg==

> <s_epik_cmdline>
J2VwaWtfcHl0aG9uJywgJy1waCcsICc3LjAnLCAnLXRuJywgJzgnLCAnLW1hJywgJzIwMCcsICctbWV0YWxfYmluZGluZycsICctaW1hZScsICc8aW5maWxlLm1hZT4nLCAnLW9tYWUnLCAnPG91dGZpbGUubWFlPic=

> <r_lp_tautomer_probability>
1

> <r_epik_Ionization_Penalty>
0.00688973

> <r_epik_Ionization_Penalty_Charging>
0

> <r_epik_Ionization_Penalty_Neutral>
0.00688973

> <r_epik_State_Penalty>
-0

> <r_epik_Charging_Adjusted_Penalty>
0

> <i_epik_Tot_Q>
0

> <i_epik_Tot_abs_Q>
0

> <r_epik_Metal_State_Penalty>
0.361675

> <b_epik_Metal_Only>
0

> <s_lp_Force_Field>
OPLS_2005

> <r_lp_Energy>
15.461

> <b_lp_Chiralities_Consistent>
1

> <s_lp_Variant>
AV-unprocessed.smi:1654-1

> <Gold.Version>
5.8.1

> <Gold.Id.Protein>
6NUR|6NUR_protein|mol2

> <Gold.PLP.Fitness>
46.7140

> <Gold.PLP.PLP>
-39.2162

> <Gold.PLP.part.hbond>
-1.8411

> <Gold.PLP.part.metal>
0.0000

> <Gold.PLP.part.buried>
-2.5106

> <Gold.PLP.part.nonpolar>
-34.4810

> <Gold.PLP.part.repulsive>
0.1584

> <Gold.PLP.ligand.clash>
0.0000

> <Gold.PLP.ligand.torsion>
1.8024

> <Gold.PLP.Chemscore.Hbond>
1.0000

> <Gold.PLP.Chemscore.CHOScore>
2.0000

> <Gold.PLP.Chemscore.Metal>
0.0000

> <Gold.Chemscore.Hbonds>
donor molecule, donor type, donor heavy atom, donor atom, acceptor molecule, acceptor atom, score
      P1  H  7997  8009       L1     3  1.00
      L1  C    10    27       P1 10175  0.87
      L1  C    12    28       P1  8028  1.00

> <Gold.PLP.Chemscore.Internal.Correction>
2.1026

> <Gold.Rescore>
     Score         DG    S(hbond)    S(metal)    S(lipo)     H(rot)  DE(clash)    DE(int)     intcor
     15.92     -17.85       0.96        0.00     110.56       1.47       0.18       1.75       ----

> <Gold.Chemscore.Fitness>
15.9175

> <Gold.Chemscore.DG>
-17.8506

> <Gold.Chemscore.ZeroCoef>
-5.4800

> <Gold.Chemscore.Hbond>
0.9596

> <Gold.Chemscore.Metal>
0.0000

> <Gold.Chemscore.Lipo>
110.5581

> <Gold.Chemscore.Internal_Hbond>
0.0000

> <Gold.Chemscore.DEClash>
0.1810

> <Gold.Chemscore.DEInternal>
1.7520

> <Gold.Chemscore.Rot>
1.4725

> <Gold.Chemscore.Internal.Correction>
   9.000000E+99

> <Gold.Chemscore.Hbonds>
donor molecule, donor type, donor heavy atom, donor atom, acceptor molecule, acceptor atom, score
      P1  H  7997  8009       L1     3  0.44

> <Gold.Chemscore.Hbond.Weighted>
-3.2050

> <Gold.Chemscore.Metal.Weighted>
-0.0000

> <Gold.Chemscore.Lipo.Weighted>
-12.9353

> <Gold.Chemscore.Internal_Hbond.Weighted>
0.0000

> <Gold.Chemscore.DEClash.Weighted>
0.1810

> <Gold.Chemscore.DEInternal.Weighted>
1.7520

> <Gold.Chemscore.Rot.Weighted>
3.7697

> <Gold.Chemscore.Internal.Correction.Weighted>
   9.000000E+99

> <Gold.Protein.RotatedTorsions>
[ 6907 6896 6895 6894 ] final -109.56 input  -60.11 | X-H torsion
[ 7974 7965 7964 7962 ] final  -59.67 input  175.53 | X-H torsion
[ 8008 7997 7996 7995 ] final  145.64 input   59.86 | X-H torsion
[ 10167 10162 10161 10158 ] final   16.37 input  -65.29 | X-H torsion
[ 10718 10713 10712 10709 ] final  177.45 input   66.30 | X-H torsion
[ 10763 10752 10751 10750 ] final  105.34 input  -60.55 | X-H torsion
[ 11005 11000 10999 10996 ] final   70.67 input  -57.11 | X-H torsion

> <Gold.Protein.ActiveResidues>
 VAL166  LYS551  ARG553  GLY616  TRP617  ASP618  TYR619  PRO620  LYS621  CYS622 
 ASP623  PHE694  ASN695  SER759  ASP760  ASP761  ALA762  ILE779  LEU786  VAL792 
 PHE793  MET794  SER795  GLU796  ALA797  LYS798  CYS799  TRP800  GLU811  SER814 

> <Gold.Protein.RotatedAtoms>
  150.7569  133.9512  159.3485 H   0  0  0  0  0  0  0  0  0  0  0  0  # atno 6907 bound_to 6896
  151.7429  135.0848  160.0328 H   0  0  0  0  0  0  0  0  0  0  0  0  # atno 6908 bound_to 6896
  152.3517  133.6150  159.5985 H   0  0  0  0  0  0  0  0  0  0  0  0  # atno 6909 bound_to 6896
  145.8247  140.8518  143.0114 H   0  0  0  0  0  0  0  0  0  0  0  0  # atno 7974 bound_to 7965
  156.2878  140.2204  156.5247 H   0  0  0  0  0  0  0  0  0  0  0  0  # atno 8008 bound_to 7997
  154.7499  140.0481  157.0906 H   0  0  0  0  0  0  0  0  0  0  0  0  # atno 8009 bound_to 7997
  155.0124  140.3114  155.4828 H   0  0  0  0  0  0  0  0  0  0  0  0  # atno 8010 bound_to 7997
  140.5802  143.8995  150.6783 H   0  0  0  0  0  0  0  0  0  0  0  0  # atno 10167 bound_to 10162
  156.9051  130.9891  151.3029 H   0  0  0  0  0  0  0  0  0  0  0  0  # atno 10718 bound_to 10713
  153.3781  135.3913  155.1837 H   0  0  0  0  0  0  0  0  0  0  0  0  # atno 10763 bound_to 10752
  154.8704  135.3719  154.4892 H   0  0  0  0  0  0  0  0  0  0  0  0  # atno 10764 bound_to 10752
  153.5366  135.7085  153.5718 H   0  0  0  0  0  0  0  0  0  0  0  0  # atno 10765 bound_to 10752
  139.9585  134.7103  156.0699 H   0  0  0  0  0  0  0  0  0  0  0  0  # atno 11005 bound_to 11000
  144.6744  140.0585  143.7477 LP  0  0  0  0  0  0  0  0  0  0  0  0  # atno 17320 bound_to 7965
  145.9636  139.2818  143.1141 LP  0  0  0  0  0  0  0  0  0  0  0  0  # atno 17321 bound_to 7965
  140.2492  143.3605  152.1420 LP  0  0  0  0  0  0  0  0  0  0  0  0  # atno 17342 bound_to 10162
  139.5165  144.6979  151.5578 LP  0  0  0  0  0  0  0  0  0  0  0  0  # atno 17343 bound_to 10162
  157.6002  130.8507  149.8790 LP  0  0  0  0  0  0  0  0  0  0  0  0  # atno 17370 bound_to 10713
  156.0563  130.3708  150.1084 LP  0  0  0  0  0  0  0  0  0  0  0  0  # atno 17371 bound_to 10713
  141.1259  133.6599  156.3336 LP  0  0  0  0  0  0  0  0  0  0  0  0  # atno 17394 bound_to 11000
  140.5555  134.5986  157.5419 LP  0  0  0  0  0  0  0  0  0  0  0  0  # atno 17395 bound_to 11000

$$$$
