AV-unprocessed.smi:604|AV-procd|sdf|3038|dock5
  -GOLD-   2262023553D 1   1.00000     0.00000
 Structure written by MMmdl.
 49 51  0  0  0  0  0  0  0  0  2 V2000
  149.5975  140.4748  156.5262 O   0  0  0  0  0  0  0  0  0  0  0  0
  149.4381  141.6557  156.2187 C   0  0  0  0  0  0  0  0  0  0  0  0
  150.0632  142.6999  156.7890 N   0  0  0  0  0  0  0  0  0  0  0  0
  151.0271  142.6885  157.8337 C   0  0  0  0  0  0  0  0  0  0  0  0
  151.7883  143.8155  158.2285 C   0  0  0  0  0  0  0  0  0  0  0  0
  152.7017  143.6800  159.2919 C   0  0  0  0  0  0  0  0  0  0  0  0
  152.8161  142.4276  159.9256 C   0  0  0  0  0  0  0  0  0  0  0  0
  152.0870  141.3491  159.5695 N   0  0  0  0  0  0  0  0  0  0  0  0
  151.2122  141.4869  158.5503 C   0  0  0  0  0  0  0  0  0  0  0  0
  148.5812  142.0612  155.2701 N   0  0  0  0  0  0  0  0  0  0  0  0
  147.7290  141.1812  154.4701 C   0  0  2  0  0  0  0  0  0  0  0  0
  147.1595  141.9377  153.2570 C   0  0  0  0  0  0  0  0  0  0  0  0
  146.0835  142.9630  153.6627 C   0  0  0  0  0  0  0  0  0  0  0  0
  144.9964  142.3245  154.4497 N   0  3  2  0  0  0  0  0  0  0  0  0
  143.8707  143.2512  154.7382 C   0  0  0  0  0  0  0  0  0  0  0  0
  144.3523  144.6993  154.9552 C   0  0  0  0  0  0  0  0  0  0  0  0
  143.9485  145.2680  156.3184 C   0  0  0  0  0  0  0  0  0  0  0  0
  144.0754  146.7879  156.1735 C   0  0  0  0  0  0  0  0  0  0  0  0
  143.9536  147.0862  154.6724 C   0  0  0  0  0  0  0  0  0  0  0  0
  143.7803  145.7315  153.9778 C   0  0  0  0  0  0  0  0  0  0  0  0
  145.5276  141.6577  155.6672 C   0  0  0  0  0  0  0  0  0  0  0  0
  146.5724  140.5900  155.3007 C   0  0  0  0  0  0  0  0  0  0  0  0
  149.7696  143.6162  156.4838 H   0  0  0  0  0  0  0  0  0  0  0  0
  151.6818  144.7772  157.7517 H   0  0  0  0  0  0  0  0  0  0  0  0
  153.2983  144.5194  159.6175 H   0  0  0  0  0  0  0  0  0  0  0  0
  153.5070  142.2902  160.7443 H   0  0  0  0  0  0  0  0  0  0  0  0
  150.6444  140.6039  158.2949 H   0  0  0  0  0  0  0  0  0  0  0  0
  148.5189  143.0513  155.0828 H   0  0  0  0  0  0  0  0  0  0  0  0
  148.3496  140.3638  154.0980 H   0  0  0  0  0  0  0  0  0  0  0  0
  147.9621  142.4325  152.7083 H   0  0  0  0  0  0  0  0  0  0  0  0
  146.7197  141.2191  152.5642 H   0  0  0  0  0  0  0  0  0  0  0  0
  146.5280  143.7729  154.2435 H   0  0  0  0  0  0  0  0  0  0  0  0
  145.6664  143.4122  152.7603 H   0  0  0  0  0  0  0  0  0  0  0  0
  143.1137  143.1988  153.9540 H   0  0  0  0  0  0  0  0  0  0  0  0
  143.3660  142.9350  155.6526 H   0  0  0  0  0  0  0  0  0  0  0  0
  145.4416  144.7270  154.8921 H   0  0  0  0  0  0  0  0  0  0  0  0
  142.9101  145.0118  156.5344 H   0  0  0  0  0  0  0  0  0  0  0  0
  144.5593  144.8772  157.1329 H   0  0  0  0  0  0  0  0  0  0  0  0
  143.3159  147.3087  156.7574 H   0  0  0  0  0  0  0  0  0  0  0  0
  145.0489  147.1198  156.5362 H   0  0  0  0  0  0  0  0  0  0  0  0
  143.1177  147.7518  154.4555 H   0  0  0  0  0  0  0  0  0  0  0  0
  144.8608  147.5777  154.3194 H   0  0  0  0  0  0  0  0  0  0  0  0
  144.2726  145.7059  153.0052 H   0  0  0  0  0  0  0  0  0  0  0  0
  142.7174  145.5431  153.8181 H   0  0  0  0  0  0  0  0  0  0  0  0
  145.9679  142.4034  156.3309 H   0  0  0  0  0  0  0  0  0  0  0  0
  144.7193  141.1869  156.2246 H   0  0  0  0  0  0  0  0  0  0  0  0
  146.0864  139.8005  154.7259 H   0  0  0  0  0  0  0  0  0  0  0  0
  146.9507  140.1110  156.2046 H   0  0  0  0  0  0  0  0  0  0  0  0
  144.6167  141.5983  153.8589 H   0  0  0  0  0  0  0  0  0  0  0  0
  1  2  2  0  0  0  0
  2  3  1  0  0  0  0
  2 10  1  0  0  0  0
  3  4  1  0  0  0  0
  3 23  1  0  0  0  0
  4  9  1  0  0  0  0
  4  5  2  0  0  0  0
  5  6  1  0  0  0  0
  5 24  1  0  0  0  0
  6  7  2  0  0  0  0
  6 25  1  0  0  0  0
  7  8  1  0  0  0  0
  7 26  1  0  0  0  0
  8  9  2  0  0  0  0
  9 27  1  0  0  0  0
 10 11  1  0  0  0  0
 10 28  1  0  0  0  0
 11 22  1  0  0  0  0
 11 12  1  0  0  0  0
 11 29  1  0  0  0  0
 12 13  1  0  0  0  0
 12 30  1  0  0  0  0
 12 31  1  0  0  0  0
 13 14  1  0  0  0  0
 13 32  1  0  0  0  0
 13 33  1  0  0  0  0
 14 15  1  0  0  0  0
 14 21  1  0  0  0  0
 14 49  1  0  0  0  0
 15 16  1  0  0  0  0
 15 34  1  0  0  0  0
 15 35  1  0  0  0  0
 16 20  1  0  0  0  0
 16 17  1  0  0  0  0
 16 36  1  0  0  0  0
 17 18  1  0  0  0  0
 17 37  1  0  0  0  0
 17 38  1  0  0  0  0
 18 19  1  0  0  0  0
 18 39  1  0  0  0  0
 18 40  1  0  0  0  0
 19 20  1  0  0  0  0
 19 41  1  0  0  0  0
 19 42  1  0  0  0  0
 20 43  1  0  0  0  0
 20 44  1  0  0  0  0
 21 22  1  0  0  0  0
 21 45  1  0  0  0  0
 21 46  1  0  0  0  0
 22 47  1  0  0  0  0
 22 48  1  0  0  0  0
M  CHG  1  14   1
M  END
> <s_m_source_file>
AV-unprocessed.smi

> <i_m_source_file_index>
604

> <i_lp_mmshare_version>
43012

> <i_f3d_flags>
0

> <s_epik_input>
W2NIXTFuW2NIXVtjSF1bY0hdYzFbTkhdQyg9TylbTkhdW0NIXTJbQ0gyXVtDSDJdTihbQ0gyXVtDSDJdMilbQ0gyXVtDSF0zW0NIMl1bQ0gyXVtDSDJdW0NIMl0z

> <s_epik_cmdline>
J2VwaWtfcHl0aG9uJywgJy1waCcsICc3LjAnLCAnLXRuJywgJzgnLCAnLW1hJywgJzIwMCcsICctbWV0YWxfYmluZGluZycsICctaW1hZScsICc8aW5maWxlLm1hZT4nLCAnLW9tYWUnLCAnPG91dGZpbGUubWFlPic=

> <r_lp_tautomer_probability>
1

> <r_epik_Ionization_Penalty>
0.00608112

> <r_epik_Ionization_Penalty_Charging>
0.00207989

> <r_epik_Ionization_Penalty_Neutral>
0.00400122

> <r_epik_State_Penalty>
-0

> <r_epik_Charging_Adjusted_Penalty>
0.00207989

> <i_epik_Tot_Q>
1

> <i_epik_Tot_abs_Q>
1

> <r_epik_Metal_State_Penalty>
-0

> <b_epik_Metal_Only>
0

> <s_lp_Force_Field>
OPLS_2005

> <r_lp_Energy>
40.9588

> <b_lp_Chiralities_Consistent>
1

> <s_lp_Variant>
AV-unprocessed.smi:604-2

> <Gold.Version>
5.8.1

> <Gold.Id.Protein>
6NUR|6NUR_protein|mol2

> <Gold.PLP.Fitness>
50.0349

> <Gold.PLP.PLP>
-40.6645

> <Gold.PLP.part.hbond>
-3.0000

> <Gold.PLP.part.metal>
0.0000

> <Gold.PLP.part.buried>
-5.7129

> <Gold.PLP.part.nonpolar>
-33.7797

> <Gold.PLP.part.repulsive>
0.2177

> <Gold.PLP.ligand.clash>
0.0000

> <Gold.PLP.ligand.torsion>
1.2951

> <Gold.PLP.Chemscore.Hbond>
3.9745

> <Gold.PLP.Chemscore.CHOScore>
0.0000

> <Gold.PLP.Chemscore.Metal>
0.0000

> <Gold.Chemscore.Hbonds>
donor molecule, donor type, donor heavy atom, donor atom, acceptor molecule, acceptor atom, score
      L1  H     3    23       P1  8028  1.00
      L1  H    10    28       P1  8028  0.96
      L1  H    14    49       P1 10175  1.60

> <Gold.PLP.Chemscore.Internal.Correction>
0.0371

> <Gold.Rescore>
     Score         DG    S(hbond)    S(metal)    S(lipo)     H(rot)  DE(clash)    DE(int)     intcor
     20.33     -23.07       2.65        0.00     104.31       1.35       0.14       2.60       ----

> <Gold.Chemscore.Fitness>
20.3305

> <Gold.Chemscore.DG>
-23.0745

> <Gold.Chemscore.ZeroCoef>
-5.4800

> <Gold.Chemscore.Hbond>
2.6453

> <Gold.Chemscore.Metal>
0.0000

> <Gold.Chemscore.Lipo>
104.3055

> <Gold.Chemscore.Internal_Hbond>
0.0000

> <Gold.Chemscore.DEClash>
0.1417

> <Gold.Chemscore.DEInternal>
2.6024

> <Gold.Chemscore.Rot>
1.3455

> <Gold.Chemscore.Internal.Correction>
   9.000000E+99

> <Gold.Chemscore.Hbonds>
donor molecule, donor type, donor heavy atom, donor atom, acceptor molecule, acceptor atom, score
      L1  H     3    23       P1  8028  0.99
      L1  H    10    28       P1  8028  0.92
      L1  H    14    49       P1 10175  0.12

> <Gold.Chemscore.Hbond.Weighted>
-8.8352

> <Gold.Chemscore.Metal.Weighted>
-0.0000

> <Gold.Chemscore.Lipo.Weighted>
-12.2037

> <Gold.Chemscore.Internal_Hbond.Weighted>
0.0000

> <Gold.Chemscore.DEClash.Weighted>
0.1417

> <Gold.Chemscore.DEInternal.Weighted>
2.6024

> <Gold.Chemscore.Rot.Weighted>
3.4445

> <Gold.Chemscore.Internal.Correction.Weighted>
   9.000000E+99

> <Gold.Protein.RotatedTorsions>
[ 6907 6896 6895 6894 ] final -118.29 input  -60.11 | X-H torsion
[ 7974 7965 7964 7962 ] final  -14.13 input  175.53 | X-H torsion
[ 8008 7997 7996 7995 ] final  145.93 input   59.86 | X-H torsion
[ 10167 10162 10161 10158 ] final   87.00 input  -65.29 | X-H torsion
[ 10718 10713 10712 10709 ] final  127.15 input   66.30 | X-H torsion
[ 10763 10752 10751 10750 ] final  -62.02 input  -60.55 | X-H torsion
[ 11005 11000 10999 10996 ] final  127.83 input  -57.11 | X-H torsion

> <Gold.Protein.ActiveResidues>
 VAL166  LYS551  ARG553  GLY616  TRP617  ASP618  TYR619  PRO620  LYS621  CYS622 
 ASP623  PHE694  ASN695  SER759  ASP760  ASP761  ALA762  ILE779  LEU786  VAL792 
 PHE793  MET794  SER795  GLU796  ALA797  LYS798  CYS799  TRP800  GLU811  SER814 

> <Gold.Protein.RotatedAtoms>
  150.8207  133.8257  159.3139 H   0  0  0  0  0  0  0  0  0  0  0  0  # atno 6907 bound_to 6896
  151.6016  135.1045  160.0071 H   0  0  0  0  0  0  0  0  0  0  0  0  # atno 6908 bound_to 6896
  152.4297  133.7214  159.6592 H   0  0  0  0  0  0  0  0  0  0  0  0  # atno 6909 bound_to 6896
  146.2086  140.3304  142.8398 H   0  0  0  0  0  0  0  0  0  0  0  0  # atno 7974 bound_to 7965
  156.2870  140.2196  156.5294 H   0  0  0  0  0  0  0  0  0  0  0  0  # atno 8008 bound_to 7997
  154.7461  140.0484  157.0876 H   0  0  0  0  0  0  0  0  0  0  0  0  # atno 8009 bound_to 7997
  155.0168  140.3119  155.4811 H   0  0  0  0  0  0  0  0  0  0  0  0  # atno 8010 bound_to 7997
  139.8818  144.6435  150.8834 H   0  0  0  0  0  0  0  0  0  0  0  0  # atno 10167 bound_to 10162
  157.5358  131.1097  150.8938 H   0  0  0  0  0  0  0  0  0  0  0  0  # atno 10718 bound_to 10713
  154.2935  135.6249  153.5395 H   0  0  0  0  0  0  0  0  0  0  0  0  # atno 10763 bound_to 10752
  152.9849  135.5661  154.5364 H   0  0  0  0  0  0  0  0  0  0  0  0  # atno 10764 bound_to 10752
  154.4979  135.2870  155.1420 H   0  0  0  0  0  0  0  0  0  0  0  0  # atno 10765 bound_to 10752
  139.9528  134.9619  156.8912 H   0  0  0  0  0  0  0  0  0  0  0  0  # atno 11005 bound_to 11000
  144.8856  140.7458  143.5959 LP  0  0  0  0  0  0  0  0  0  0  0  0  # atno 17320 bound_to 7965
  145.3225  139.1784  143.4580 LP  0  0  0  0  0  0  0  0  0  0  0  0  # atno 17321 bound_to 7965
  140.7743  143.3579  151.1885 LP  0  0  0  0  0  0  0  0  0  0  0  0  # atno 17342 bound_to 10162
  139.7189  143.9256  152.2977 LP  0  0  0  0  0  0  0  0  0  0  0  0  # atno 17343 bound_to 10162
  156.9506  130.5418  149.5282 LP  0  0  0  0  0  0  0  0  0  0  0  0  # atno 17370 bound_to 10713
  156.0457  130.5534  150.8875 LP  0  0  0  0  0  0  0  0  0  0  0  0  # atno 17371 bound_to 10713
  140.5679  134.0472  155.7420 LP  0  0  0  0  0  0  0  0  0  0  0  0  # atno 17394 bound_to 11000
  141.1194  133.9486  157.2759 LP  0  0  0  0  0  0  0  0  0  0  0  0  # atno 17395 bound_to 11000

$$$$
