AV-unprocessed.smi:3258|AV-procd|sdf|12468|dock10
  -GOLD-   2272018363D 1   1.00000     0.00000
 Structure written by MMmdl.
 38 39  0  0  0  0  0  0  0  0  1 V2000
  144.3733  135.2981  152.6365 C   0  0  0  0  0  0  0  0  0  0  0  0
  145.1751  135.7174  151.3934 C   0  0  2  0  0  0  0  0  0  0  0  0
  145.8139  134.5244  150.6490 C   0  0  0  0  0  0  0  0  0  0  0  0
  144.9704  133.3432  150.6541 N   0  0  0  0  0  0  0  0  0  0  0  0
  145.2871  132.0717  151.0831 C   0  0  0  0  0  0  0  0  0  0  0  0
  144.1805  131.2935  150.8979 C   0  0  0  0  0  0  0  0  0  0  0  0
  143.2245  132.1913  150.3455 C   0  0  0  0  0  0  0  0  0  0  0  0
  143.6995  133.4181  150.2025 N   0  0  0  0  0  0  0  0  0  0  0  0
  146.2064  136.6726  151.7891 N   0  0  0  0  0  0  0  0  0  0  0  0
  145.9778  137.8961  152.2869 C   0  0  0  0  0  0  0  0  0  0  0  0
  144.8556  138.3663  152.4745 O   0  0  0  0  0  0  0  0  0  0  0  0
  147.1201  138.5473  152.5467 N   0  0  0  0  0  0  0  0  0  0  0  0
  147.2189  139.9013  153.0822 C   0  0  0  0  0  0  0  0  0  0  0  0
  148.2503  139.9933  154.2225 C   0  0  2  0  0  0  0  0  0  0  0  0
  148.6977  141.4078  154.5303 C   0  0  0  0  0  0  0  0  0  0  0  0
  149.9921  141.1760  155.3065 C   0  0  0  0  0  0  0  0  0  0  0  0
  150.5187  139.9381  154.8359 O   0  0  0  0  0  0  0  0  0  0  0  0
  149.5970  139.3259  153.9401 C   0  0  0  0  0  0  0  0  0  0  0  0
  143.5346  134.6534  152.3733 H   0  0  0  0  0  0  0  0  0  0  0  0
  143.9624  136.1680  153.1500 H   0  0  0  0  0  0  0  0  0  0  0  0
  144.9992  134.7566  153.3466 H   0  0  0  0  0  0  0  0  0  0  0  0
  144.4825  136.2194  150.7148 H   0  0  0  0  0  0  0  0  0  0  0  0
  146.0113  134.7869  149.6088 H   0  0  0  0  0  0  0  0  0  0  0  0
  146.7789  134.2733  151.0928 H   0  0  0  0  0  0  0  0  0  0  0  0
  146.2629  131.8303  151.4784 H   0  0  0  0  0  0  0  0  0  0  0  0
  144.0707  130.2432  151.1232 H   0  0  0  0  0  0  0  0  0  0  0  0
  142.2063  131.9898  150.0474 H   0  0  0  0  0  0  0  0  0  0  0  0
  147.1652  136.3798  151.6702 H   0  0  0  0  0  0  0  0  0  0  0  0
  147.9901  138.0718  152.3558 H   0  0  0  0  0  0  0  0  0  0  0  0
  147.4516  140.6170  152.2916 H   0  0  0  0  0  0  0  0  0  0  0  0
  146.2342  140.1768  153.4604 H   0  0  0  0  0  0  0  0  0  0  0  0
  147.8277  139.5604  155.1310 H   0  0  0  0  0  0  0  0  0  0  0  0
  148.9094  141.9486  153.6065 H   0  0  0  0  0  0  0  0  0  0  0  0
  147.9608  141.9778  155.0969 H   0  0  0  0  0  0  0  0  0  0  0  0
  150.7062  141.9887  155.1708 H   0  0  0  0  0  0  0  0  0  0  0  0
  149.7867  141.0812  156.3731 H   0  0  0  0  0  0  0  0  0  0  0  0
  149.5689  138.2445  154.0761 H   0  0  0  0  0  0  0  0  0  0  0  0
  149.9222  139.5301  152.9189 H   0  0  0  0  0  0  0  0  0  0  0  0
  1  2  1  0  0  0  0
  1 19  1  0  0  0  0
  1 20  1  0  0  0  0
  1 21  1  0  0  0  0
  2  3  1  0  0  0  0
  2  9  1  0  0  0  0
  2 22  1  0  0  0  0
  3  4  1  0  0  0  0
  3 23  1  0  0  0  0
  3 24  1  0  0  0  0
  4  8  1  0  0  0  0
  4  5  1  0  0  0  0
  5  6  2  0  0  0  0
  5 25  1  0  0  0  0
  6  7  1  0  0  0  0
  6 26  1  0  0  0  0
  7  8  2  0  0  0  0
  7 27  1  0  0  0  0
  9 10  1  0  0  0  0
  9 28  1  0  0  0  0
 10 11  2  0  0  0  0
 10 12  1  0  0  0  0
 12 13  1  0  0  0  0
 12 29  1  0  0  0  0
 13 14  1  0  0  0  0
 13 30  1  0  0  0  0
 13 31  1  0  0  0  0
 14 18  1  0  0  0  0
 14 15  1  0  0  0  0
 14 32  1  0  0  0  0
 15 16  1  0  0  0  0
 15 33  1  0  0  0  0
 15 34  1  0  0  0  0
 16 17  1  0  0  0  0
 16 35  1  0  0  0  0
 16 36  1  0  0  0  0
 17 18  1  0  0  0  0
 18 37  1  0  0  0  0
 18 38  1  0  0  0  0
M  END
> <s_m_source_file>
AV-unprocessed.smi

> <i_m_source_file_index>
3258

> <i_lp_mmshare_version>
43012

> <i_f3d_flags>
0

> <s_epik_input>
bjFbY0hdW2NIXVtjSF1uMVtDSDJdW0NAQEhdKFtDSDNdKVtOSF1DKD1PKVtOSF1bQ0gyXVtDQEBIXTJbQ0gyXVtDSDJdT1tDSDJdMg==

> <s_epik_cmdline>
J2VwaWtfcHl0aG9uJywgJy1waCcsICc3LjAnLCAnLXRuJywgJzgnLCAnLW1hJywgJzIwMCcsICctbWV0YWxfYmluZGluZycsICctaW1hZScsICc8aW5maWxlLm1hZT4nLCAnLW9tYWUnLCAnPG91dGZpbGUubWFlPic=

> <r_lp_tautomer_probability>
1

> <r_epik_Ionization_Penalty>
6.85079e-05

> <r_epik_Ionization_Penalty_Charging>
0

> <r_epik_Ionization_Penalty_Neutral>
6.85079e-05

> <r_epik_State_Penalty>
-0

> <r_epik_Charging_Adjusted_Penalty>
0

> <i_epik_Tot_Q>
0

> <i_epik_Tot_abs_Q>
0

> <r_epik_Metal_State_Penalty>
-0

> <b_epik_Metal_Only>
0

> <s_lp_Force_Field>
OPLS_2005

> <r_lp_Energy>
16.0555

> <b_lp_Chiralities_Consistent>
1

> <s_lp_Variant>
AV-unprocessed.smi:3258-1

> <Gold.Version>
5.8.1

> <Gold.Id.Protein>
6NUR|6NUR_protein|mol2

> <Gold.PLP.Fitness>
43.9075

> <Gold.PLP.PLP>
-30.4568

> <Gold.PLP.part.hbond>
-3.1988

> <Gold.PLP.part.metal>
0.0000

> <Gold.PLP.part.buried>
-2.6524

> <Gold.PLP.part.nonpolar>
-27.0629

> <Gold.PLP.part.repulsive>
2.7776

> <Gold.PLP.ligand.clash>
0.0000

> <Gold.PLP.ligand.torsion>
0.5108

> <Gold.PLP.Chemscore.Hbond>
2.8247

> <Gold.PLP.Chemscore.CHOScore>
1.9849

> <Gold.PLP.Chemscore.Metal>
0.0000

> <Gold.Chemscore.Hbonds>
donor molecule, donor type, donor heavy atom, donor atom, acceptor molecule, acceptor atom, score
      L1  H     9    28       P1  7948  1.00
      L1  H    12    29       P1  7948  0.76
      P1  H  7989  7998       L1    17  0.49
      L1  C     7    27       P1 10186  0.26
      L1  C     7    27       P1 10952  1.00

> <Gold.PLP.Chemscore.Internal.Correction>
0.0434

> <Gold.Rescore>
     Score         DG    S(hbond)    S(metal)    S(lipo)     H(rot)  DE(clash)    DE(int)     intcor
     14.64     -15.26       1.83        0.00      72.21       1.87       0.20       0.42       ----

> <Gold.Chemscore.Fitness>
14.6354

> <Gold.Chemscore.DG>
-15.2586

> <Gold.Chemscore.ZeroCoef>
-5.4800

> <Gold.Chemscore.Hbond>
1.8332

> <Gold.Chemscore.Metal>
0.0000

> <Gold.Chemscore.Lipo>
72.2124

> <Gold.Chemscore.Internal_Hbond>
0.0000

> <Gold.Chemscore.DEClash>
0.2007

> <Gold.Chemscore.DEInternal>
0.4225

> <Gold.Chemscore.Rot>
1.8724

> <Gold.Chemscore.Internal.Correction>
   9.000000E+99

> <Gold.Chemscore.Hbonds>
donor molecule, donor type, donor heavy atom, donor atom, acceptor molecule, acceptor atom, score
      L1  H     9    28       P1  7948  1.00
      L1  H    12    29       P1  7948  0.72
      P1  H  7989  7998       L1    17  0.01

> <Gold.Chemscore.Hbond.Weighted>
-6.1230

> <Gold.Chemscore.Metal.Weighted>
-0.0000

> <Gold.Chemscore.Lipo.Weighted>
-8.4489

> <Gold.Chemscore.Internal_Hbond.Weighted>
0.0000

> <Gold.Chemscore.DEClash.Weighted>
0.2007

> <Gold.Chemscore.DEInternal.Weighted>
0.4225

> <Gold.Chemscore.Rot.Weighted>
4.7933

> <Gold.Chemscore.Internal.Correction.Weighted>
   9.000000E+99

> <Gold.Protein.RotatedTorsions>
[ 6907 6896 6895 6894 ] final  -53.98 input  -60.11 | X-H torsion
[ 7974 7965 7964 7962 ] final  -90.85 input  175.53 | X-H torsion
[ 8008 7997 7996 7995 ] final  -72.07 input   59.86 | X-H torsion
[ 10167 10162 10161 10158 ] final  -48.35 input  -65.29 | X-H torsion
[ 10718 10713 10712 10709 ] final  158.23 input   66.30 | X-H torsion
[ 10763 10752 10751 10750 ] final -118.65 input  -60.55 | X-H torsion
[ 11005 11000 10999 10996 ] final   22.52 input  -57.11 | X-H torsion

> <Gold.Protein.ActiveResidues>
 VAL166  LYS551  ARG553  GLY616  TRP617  ASP618  TYR619  PRO620  LYS621  CYS622 
 ASP623  PHE694  ASN695  SER759  ASP760  ASP761  ALA762  ILE779  LEU786  VAL792 
 PHE793  MET794  SER795  GLU796  ALA797  LYS798  CYS799  TRP800  GLU811  SER814 

> <Gold.Protein.RotatedAtoms>
  150.8379  134.7659  159.6907 H   0  0  0  0  0  0  0  0  0  0  0  0  # atno 6907 bound_to 6896
  152.4472  134.5467  159.9864 H   0  0  0  0  0  0  0  0  0  0  0  0  # atno 6908 bound_to 6896
  151.5613  133.3365  159.3007 H   0  0  0  0  0  0  0  0  0  0  0  0  # atno 6909 bound_to 6896
  145.4210  140.9551  143.2181 H   0  0  0  0  0  0  0  0  0  0  0  0  # atno 7974 bound_to 7965
  154.5137  140.0804  156.8040 H   0  0  0  0  0  0  0  0  0  0  0  0  # atno 8008 bound_to 7997
  155.3727  140.3424  155.4225 H   0  0  0  0  0  0  0  0  0  0  0  0  # atno 8009 bound_to 7997
  156.1603  140.1586  156.8610 H   0  0  0  0  0  0  0  0  0  0  0  0  # atno 8010 bound_to 7997
  140.6735  143.2744  151.4057 H   0  0  0  0  0  0  0  0  0  0  0  0  # atno 10167 bound_to 10162
  157.1808  131.0632  151.2133 H   0  0  0  0  0  0  0  0  0  0  0  0  # atno 10718 bound_to 10713
  154.8594  135.4266  154.2174 H   0  0  0  0  0  0  0  0  0  0  0  0  # atno 10763 bound_to 10752
  153.3186  135.6980  153.7056 H   0  0  0  0  0  0  0  0  0  0  0  0  # atno 10764 bound_to 10752
  153.6120  135.3517  155.2956 H   0  0  0  0  0  0  0  0  0  0  0  0  # atno 10765 bound_to 10752
  140.3797  134.1934  155.7664 H   0  0  0  0  0  0  0  0  0  0  0  0  # atno 11005 bound_to 11000
  144.8245  139.5733  143.6971 LP  0  0  0  0  0  0  0  0  0  0  0  0  # atno 17320 bound_to 7965
  146.2657  139.6513  142.9331 LP  0  0  0  0  0  0  0  0  0  0  0  0  # atno 17321 bound_to 7965
  139.6015  144.1286  152.2203 LP  0  0  0  0  0  0  0  0  0  0  0  0  # atno 17342 bound_to 10162
  140.0671  144.5809  150.7219 LP  0  0  0  0  0  0  0  0  0  0  0  0  # atno 17343 bound_to 10162
  157.3955  130.7305  149.6728 LP  0  0  0  0  0  0  0  0  0  0  0  0  # atno 17370 bound_to 10713
  155.9725  130.4135  150.4085 LP  0  0  0  0  0  0  0  0  0  0  0  0  # atno 17371 bound_to 10713
  141.1927  133.8166  157.0827 LP  0  0  0  0  0  0  0  0  0  0  0  0  # atno 17394 bound_to 11000
  140.0488  134.9816  157.1098 LP  0  0  0  0  0  0  0  0  0  0  0  0  # atno 17395 bound_to 11000

$$$$
