AV-unprocessed.smi:988|AV-procd|sdf|4324|dock8
  -GOLD-   22720 2233D 1   1.00000     0.00000
 Structure written by MMmdl.
 28 28  0  0  0  0  0  0  0  0  1 V2000
  152.6909  143.1434  160.1289 C   0  0  0  0  0  0  0  0  0  0  0  0
  152.7605  143.7707  158.8611 O   0  0  0  0  0  0  0  0  0  0  0  0
  151.7672  144.7689  158.6903 C   0  0  0  0  0  0  0  0  0  0  0  0
  150.3848  144.1089  158.5814 C   0  0  0  0  0  0  0  0  0  0  0  0
  150.2914  143.2901  157.3787 N   0  0  0  0  0  0  0  0  0  0  0  0
  150.7159  142.0216  157.2705 C   0  0  0  0  0  0  0  0  0  0  0  0
  151.1639  141.3692  158.2131 O   0  0  0  0  0  0  0  0  0  0  0  0
  150.6452  141.3992  155.8763 C   0  0  0  0  0  0  0  0  0  0  0  0
  149.2727  141.3533  155.4032 N   0  0  0  0  0  0  0  0  0  0  0  0
  148.8032  140.9221  154.1793 C   0  0  0  0  0  0  0  0  0  0  0  0
  147.4472  141.0809  154.1865 C   0  0  0  0  0  0  0  0  0  0  0  0
  146.5585  140.7718  153.1396 N   0  0  0  0  0  0  0  0  0  0  0  0
  147.1753  141.6202  155.4754 C   0  0  0  0  0  0  0  0  0  0  0  0
  148.2698  141.7823  156.2015 N   0  0  0  0  0  0  0  0  0  0  0  0
  153.4669  142.3816  160.2031 H   0  0  0  0  0  0  0  0  0  0  0  0
  151.7255  142.6578  160.2773 H   0  0  0  0  0  0  0  0  0  0  0  0
  152.8493  143.8634  160.9328 H   0  0  0  0  0  0  0  0  0  0  0  0
  151.7849  145.4478  159.5441 H   0  0  0  0  0  0  0  0  0  0  0  0
  151.9708  145.3632  157.7976 H   0  0  0  0  0  0  0  0  0  0  0  0
  150.1611  143.5293  159.4785 H   0  0  0  0  0  0  0  0  0  0  0  0
  149.6186  144.8816  158.5147 H   0  0  0  0  0  0  0  0  0  0  0  0
  149.9384  143.7413  156.5471 H   0  0  0  0  0  0  0  0  0  0  0  0
  151.2378  141.9861  155.1733 H   0  0  0  0  0  0  0  0  0  0  0  0
  151.0655  140.3922  155.8919 H   0  0  0  0  0  0  0  0  0  0  0  0
  149.4686  140.5481  153.4147 H   0  0  0  0  0  0  0  0  0  0  0  0
  146.8805  140.3899  152.2616 H   0  0  0  0  0  0  0  0  0  0  0  0
  145.5628  140.9198  153.2225 H   0  0  0  0  0  0  0  0  0  0  0  0
  146.2226  141.8974  155.9021 H   0  0  0  0  0  0  0  0  0  0  0  0
  1  2  1  0  0  0  0
  1 15  1  0  0  0  0
  1 16  1  0  0  0  0
  1 17  1  0  0  0  0
  2  3  1  0  0  0  0
  3  4  1  0  0  0  0
  3 18  1  0  0  0  0
  3 19  1  0  0  0  0
  4  5  1  0  0  0  0
  4 20  1  0  0  0  0
  4 21  1  0  0  0  0
  5  6  1  0  0  0  0
  5 22  1  0  0  0  0
  6  7  2  0  0  0  0
  6  8  1  0  0  0  0
  8  9  1  0  0  0  0
  8 23  1  0  0  0  0
  8 24  1  0  0  0  0
  9 14  1  0  0  0  0
  9 10  1  0  0  0  0
 10 11  2  0  0  0  0
 10 25  1  0  0  0  0
 11 12  1  0  0  0  0
 11 13  1  0  0  0  0
 12 26  1  0  0  0  0
 12 27  1  0  0  0  0
 13 14  2  0  0  0  0
 13 28  1  0  0  0  0
M  END
> <s_m_source_file>
AV-unprocessed.smi

> <i_m_source_file_index>
988

> <i_lp_mmshare_version>
43012

> <i_f3d_flags>
0

> <s_epik_input>
W0NIM11PW0NIMl1bQ0gyXVtOSF1DKD1PKVtDSDJdbjFbY0hdYyhbTkgyXSlbY0hdbjE=

> <s_epik_cmdline>
J2VwaWtfcHl0aG9uJywgJy1waCcsICc3LjAnLCAnLXRuJywgJzgnLCAnLW1hJywgJzIwMCcsICctbWV0YWxfYmluZGluZycsICctaW1hZScsICc8aW5maWxlLm1hZT4nLCAnLW9tYWUnLCAnPG91dGZpbGUubWFlPic=

> <r_lp_tautomer_probability>
1

> <r_epik_Ionization_Penalty>
0.00010261

> <r_epik_Ionization_Penalty_Charging>
0

> <r_epik_Ionization_Penalty_Neutral>
0.00010261

> <r_epik_State_Penalty>
-0

> <r_epik_Charging_Adjusted_Penalty>
0

> <i_epik_Tot_Q>
0

> <i_epik_Tot_abs_Q>
0

> <r_epik_Metal_State_Penalty>
-0

> <b_epik_Metal_Only>
0

> <s_lp_Force_Field>
OPLS_2005

> <r_lp_Energy>
5.59493

> <b_lp_Chiralities_Consistent>
1

> <s_lp_Variant>
AV-unprocessed.smi:988-1

> <Gold.Version>
5.8.1

> <Gold.Id.Protein>
6NUR|6NUR_protein|mol2

> <Gold.PLP.Fitness>
37.2047

> <Gold.PLP.PLP>
-28.8996

> <Gold.PLP.part.hbond>
-2.0000

> <Gold.PLP.part.metal>
0.0000

> <Gold.PLP.part.buried>
-5.3026

> <Gold.PLP.part.nonpolar>
-23.2763

> <Gold.PLP.part.repulsive>
0.7261

> <Gold.PLP.ligand.clash>
0.0000

> <Gold.PLP.ligand.torsion>
0.2096

> <Gold.PLP.Chemscore.Hbond>
1.9040

> <Gold.PLP.Chemscore.CHOScore>
1.0000

> <Gold.PLP.Chemscore.Metal>
0.0000

> <Gold.Chemscore.Hbonds>
donor molecule, donor type, donor heavy atom, donor atom, acceptor molecule, acceptor atom, score
      L1  H     5    22       P1  8028  1.00
      L1  H    12    27       P1 10175  0.87
      L1  C    10    25       P1  7957  1.00

> <Gold.PLP.Chemscore.Internal.Correction>
0.0122

> <Gold.Rescore>
     Score         DG    S(hbond)    S(metal)    S(lipo)     H(rot)  DE(clash)    DE(int)     intcor
     10.85     -12.55       1.87        0.00      57.77       2.31       0.00       1.71       ----

> <Gold.Chemscore.Fitness>
10.8465

> <Gold.Chemscore.DG>
-12.5545

> <Gold.Chemscore.ZeroCoef>
-5.4800

> <Gold.Chemscore.Hbond>
1.8671

> <Gold.Chemscore.Metal>
0.0000

> <Gold.Chemscore.Lipo>
57.7724

> <Gold.Chemscore.Internal_Hbond>
0.0000

> <Gold.Chemscore.DEClash>
0.0000

> <Gold.Chemscore.DEInternal>
1.7080

> <Gold.Chemscore.Rot>
2.3129

> <Gold.Chemscore.Internal.Correction>
   9.000000E+99

> <Gold.Chemscore.Hbonds>
donor molecule, donor type, donor heavy atom, donor atom, acceptor molecule, acceptor atom, score
      L1  H     5    22       P1  8028  0.98
      L1  H    12    27       P1 10175  0.44

> <Gold.Chemscore.Hbond.Weighted>
-6.2363

> <Gold.Chemscore.Metal.Weighted>
-0.0000

> <Gold.Chemscore.Lipo.Weighted>
-6.7594

> <Gold.Chemscore.Internal_Hbond.Weighted>
0.0000

> <Gold.Chemscore.DEClash.Weighted>
0.0000

> <Gold.Chemscore.DEInternal.Weighted>
1.7080

> <Gold.Chemscore.Rot.Weighted>
5.9211

> <Gold.Chemscore.Internal.Correction.Weighted>
   9.000000E+99

> <Gold.Protein.RotatedTorsions>
[ 6907 6896 6895 6894 ] final  -38.22 input  -60.11 | X-H torsion
[ 7974 7965 7964 7962 ] final   91.25 input  175.53 | X-H torsion
[ 8008 7997 7996 7995 ] final  152.40 input   59.86 | X-H torsion
[ 10167 10162 10161 10158 ] final   56.97 input  -65.29 | X-H torsion
[ 10718 10713 10712 10709 ] final   48.10 input   66.30 | X-H torsion
[ 10763 10752 10751 10750 ] final  112.04 input  -60.55 | X-H torsion
[ 11005 11000 10999 10996 ] final   -9.33 input  -57.11 | X-H torsion

> <Gold.Protein.ActiveResidues>
 VAL166  LYS551  ARG553  GLY616  TRP617  ASP618  TYR619  PRO620  LYS621  CYS622 
 ASP623  PHE694  ASN695  SER759  ASP760  ASP761  ALA762  ILE779  LEU786  VAL792 
 PHE793  MET794  SER795  GLU796  ALA797  LYS798  CYS799  TRP800  GLU811  SER814 

> <Gold.Protein.RotatedAtoms>
  151.0050  134.9352  159.7975 H   0  0  0  0  0  0  0  0  0  0  0  0  # atno 6907 bound_to 6896
  152.5288  134.3103  159.9121 H   0  0  0  0  0  0  0  0  0  0  0  0  # atno 6908 bound_to 6896
  151.3109  133.4039  159.2681 H   0  0  0  0  0  0  0  0  0  0  0  0  # atno 6909 bound_to 6896
  145.5082  139.2276  143.2739 H   0  0  0  0  0  0  0  0  0  0  0  0  # atno 7974 bound_to 7965
  156.2630  140.2021  156.6328 H   0  0  0  0  0  0  0  0  0  0  0  0  # atno 8008 bound_to 7997
  154.6670  140.0554  157.0148 H   0  0  0  0  0  0  0  0  0  0  0  0  # atno 8009 bound_to 7997
  155.1193  140.3223  155.4504 H   0  0  0  0  0  0  0  0  0  0  0  0  # atno 8010 bound_to 7997
  140.2030  144.3968  150.6521 H   0  0  0  0  0  0  0  0  0  0  0  0  # atno 10167 bound_to 10162
  157.4652  130.8221  149.7928 H   0  0  0  0  0  0  0  0  0  0  0  0  # atno 10718 bound_to 10713
  153.4721  135.3698  155.2396 H   0  0  0  0  0  0  0  0  0  0  0  0  # atno 10763 bound_to 10752
  154.8757  135.3934  154.3800 H   0  0  0  0  0  0  0  0  0  0  0  0  # atno 10764 bound_to 10752
  153.4390  135.7084  153.6246 H   0  0  0  0  0  0  0  0  0  0  0  0  # atno 10765 bound_to 10752
  140.7330  133.8733  155.8908 H   0  0  0  0  0  0  0  0  0  0  0  0  # atno 11005 bound_to 11000
  146.2183  140.5887  142.9028 LP  0  0  0  0  0  0  0  0  0  0  0  0  # atno 17320 bound_to 7965
  144.7742  140.5703  143.6649 LP  0  0  0  0  0  0  0  0  0  0  0  0  # atno 17321 bound_to 7965
  140.6377  143.2198  151.6359 LP  0  0  0  0  0  0  0  0  0  0  0  0  # atno 17342 bound_to 10162
  139.5209  144.3208  152.0912 LP  0  0  0  0  0  0  0  0  0  0  0  0  # atno 17343 bound_to 10162
  156.0047  130.3862  150.2475 LP  0  0  0  0  0  0  0  0  0  0  0  0  # atno 17370 bound_to 10713
  157.0655  131.0102  151.3208 LP  0  0  0  0  0  0  0  0  0  0  0  0  # atno 17371 bound_to 10713
  140.9904  134.1286  157.4413 LP  0  0  0  0  0  0  0  0  0  0  0  0  # atno 17394 bound_to 11000
  139.8822  135.0038  156.6212 LP  0  0  0  0  0  0  0  0  0  0  0  0  # atno 17395 bound_to 11000

$$$$
