AV-unprocessed.smi:2973|AV-procd|sdf|11343|dock5
  -GOLD-   2272016253D 1   1.00000     0.00000
 Structure written by MMmdl.
 50 52  0  0  0  0  0  0  0  0  2 V2000
  152.0512  139.5099  158.8135 C   0  0  0  0  0  0  0  0  0  0  0  0
  152.2647  140.9445  158.2856 C   0  0  2  0  0  0  0  0  0  0  0  0
  152.1112  141.9627  159.4366 C   0  0  0  0  0  0  0  0  0  0  0  0
  152.3784  143.4034  158.9722 C   0  0  0  0  0  0  0  0  0  0  0  0
  151.4684  143.7883  157.7979 C   0  0  0  0  0  0  0  0  0  0  0  0
  151.6246  142.7948  156.6366 C   0  0  0  0  0  0  0  0  0  0  0  0
  151.3558  141.3364  157.0799 C   0  0  2  0  0  0  0  0  0  0  0  0
  149.9440  141.1330  157.3600 N   0  0  0  0  0  0  0  0  0  0  0  0
  149.3582  140.2864  156.5034 C   0  0  0  0  0  0  0  0  0  0  0  0
  148.1683  139.9764  156.5162 O   0  0  0  0  0  0  0  0  0  0  0  0
  150.2906  139.8487  155.6376 N   0  0  0  0  0  0  0  0  0  0  0  0
  150.0238  138.9467  154.5102 C   0  0  0  0  0  0  0  0  0  0  0  0
  150.5180  137.5198  154.7832 C   0  0  0  0  0  0  0  0  0  0  0  0
  151.7024  137.2258  154.6156 O   0  0  0  0  0  0  0  0  0  0  0  0
  149.5973  136.6410  155.2096 N   0  0  0  0  0  0  0  0  0  0  0  0
  149.8602  135.2490  155.5692 C   0  0  0  0  0  0  0  0  0  0  0  0
  150.2854  134.3937  154.3579 C   0  0  0  0  0  0  0  0  0  0  0  0
  149.2015  133.4569  153.8515 C   0  0  0  0  0  0  0  0  0  0  0  0
  149.1201  132.1088  154.2637 C   0  0  0  0  0  0  0  0  0  0  0  0
  148.1058  131.2855  153.7327 C   0  0  0  0  0  0  0  0  0  0  0  0
  147.1946  131.8257  152.8021 C   0  0  0  0  0  0  0  0  0  0  0  0
  147.3183  133.1794  152.4292 C   0  0  0  0  0  0  0  0  0  0  0  0
  148.3019  133.9371  152.9623 N   0  3  0  0  0  0  0  0  0  0  0  0
  151.4887  140.3926  155.8921 C   0  0  0  0  0  0  0  0  0  0  0  0
  152.5389  140.1953  155.2802 O   0  0  0  0  0  0  0  0  0  0  0  0
  151.0353  139.3622  159.1800 H   0  0  0  0  0  0  0  0  0  0  0  0
  152.7297  139.2963  159.6398 H   0  0  0  0  0  0  0  0  0  0  0  0
  152.2416  138.7614  158.0444 H   0  0  0  0  0  0  0  0  0  0  0  0
  153.3003  141.0027  157.9461 H   0  0  0  0  0  0  0  0  0  0  0  0
  151.1076  141.8974  159.8590 H   0  0  0  0  0  0  0  0  0  0  0  0
  152.7988  141.7144  160.2461 H   0  0  0  0  0  0  0  0  0  0  0  0
  152.2264  144.0952  159.8012 H   0  0  0  0  0  0  0  0  0  0  0  0
  153.4225  143.5036  158.6736 H   0  0  0  0  0  0  0  0  0  0  0  0
  150.4296  143.8138  158.1292 H   0  0  0  0  0  0  0  0  0  0  0  0
  151.7082  144.7962  157.4580 H   0  0  0  0  0  0  0  0  0  0  0  0
  150.9556  143.0782  155.8221 H   0  0  0  0  0  0  0  0  0  0  0  0
  152.6374  142.8778  156.2393 H   0  0  0  0  0  0  0  0  0  0  0  0
  149.4632  141.6035  158.1129 H   0  0  0  0  0  0  0  0  0  0  0  0
  148.9535  138.9354  154.2952 H   0  0  0  0  0  0  0  0  0  0  0  0
  150.5065  139.3130  153.6029 H   0  0  0  0  0  0  0  0  0  0  0  0
  148.6457  136.9651  155.3086 H   0  0  0  0  0  0  0  0  0  0  0  0
  150.6538  135.2375  156.3164 H   0  0  0  0  0  0  0  0  0  0  0  0
  148.9866  134.8084  156.0524 H   0  0  0  0  0  0  0  0  0  0  0  0
  150.5938  135.0487  153.5420 H   0  0  0  0  0  0  0  0  0  0  0  0
  151.1648  133.8033  154.6178 H   0  0  0  0  0  0  0  0  0  0  0  0
  149.8338  131.7036  154.9663 H   0  0  0  0  0  0  0  0  0  0  0  0
  148.0345  130.2493  154.0288 H   0  0  0  0  0  0  0  0  0  0  0  0
  146.4155  131.2094  152.3778 H   0  0  0  0  0  0  0  0  0  0  0  0
  146.6675  133.6744  151.7232 H   0  0  0  0  0  0  0  0  0  0  0  0
  148.3771  134.9121  152.6712 H   0  0  0  0  0  0  0  0  0  0  0  0
  1  2  1  0  0  0  0
  1 26  1  0  0  0  0
  1 27  1  0  0  0  0
  1 28  1  0  0  0  0
  2  7  1  0  0  0  0
  2  3  1  0  0  0  0
  2 29  1  0  0  0  0
  3  4  1  0  0  0  0
  3 30  1  0  0  0  0
  3 31  1  0  0  0  0
  4  5  1  0  0  0  0
  4 32  1  0  0  0  0
  4 33  1  0  0  0  0
  5  6  1  0  0  0  0
  5 34  1  0  0  0  0
  5 35  1  0  0  0  0
  6  7  1  0  0  0  0
  6 36  1  0  0  0  0
  6 37  1  0  0  0  0
  7 24  1  0  0  0  0
  7  8  1  0  0  0  0
  8  9  1  0  0  0  0
  8 38  1  0  0  0  0
  9 10  2  0  0  0  0
  9 11  1  0  0  0  0
 11 12  1  0  0  0  0
 11 24  1  0  0  0  0
 12 13  1  0  0  0  0
 12 39  1  0  0  0  0
 12 40  1  0  0  0  0
 13 14  2  0  0  0  0
 13 15  1  0  0  0  0
 15 16  1  0  0  0  0
 15 41  1  0  0  0  0
 16 17  1  0  0  0  0
 16 42  1  0  0  0  0
 16 43  1  0  0  0  0
 17 18  1  0  0  0  0
 17 44  1  0  0  0  0
 17 45  1  0  0  0  0
 18 23  1  0  0  0  0
 18 19  2  0  0  0  0
 19 20  1  0  0  0  0
 19 46  1  0  0  0  0
 20 21  2  0  0  0  0
 20 47  1  0  0  0  0
 21 22  1  0  0  0  0
 21 48  1  0  0  0  0
 22 23  2  0  0  0  0
 22 49  1  0  0  0  0
 23 50  1  0  0  0  0
 24 25  2  0  0  0  0
M  CHG  1  23   1
M  END
> <s_m_source_file>
AV-unprocessed.smi

> <i_m_source_file_index>
2973

> <i_lp_mmshare_version>
43012

> <i_f3d_flags>
0

> <s_epik_input>
W0NIMl0xW0NIMl1bQ0gyXVtDSDJdW0NAQEhdKFtDSDNdKVtDQF0xMltOSF1DKD1PKU4oQzI9TylbQ0gyXUMoPU8pW05IXVtDSDJdW0NIMl1jM1tjSF1bY0hdW2NIXVtjSF1uMw==

> <s_epik_cmdline>
J2VwaWtfcHl0aG9uJywgJy1waCcsICc3LjAnLCAnLXRuJywgJzgnLCAnLW1hJywgJzIwMCcsICctbWV0YWxfYmluZGluZycsICctaW1hZScsICc8aW5maWxlLm1hZT4nLCAnLW9tYWUnLCAnPG91dGZpbGUubWFlPic=

> <r_lp_tautomer_probability>
1

> <r_epik_Ionization_Penalty>
1.90043

> <r_epik_Ionization_Penalty_Charging>
1.90039

> <r_epik_Ionization_Penalty_Neutral>
4.65525e-05

> <r_epik_State_Penalty>
2.02162

> <r_epik_Charging_Adjusted_Penalty>
3.922

> <i_epik_Tot_Q>
1

> <i_epik_Tot_abs_Q>
1

> <r_epik_Metal_State_Penalty>
2.06631

> <b_epik_Metal_Only>
0

> <s_lp_Force_Field>
OPLS_2005

> <r_lp_Energy>
26.4657

> <b_lp_Chiralities_Consistent>
1

> <s_lp_Variant>
AV-unprocessed.smi:2973-7

> <Gold.Version>
5.8.1

> <Gold.Id.Protein>
6NUR|6NUR_protein|mol2

> <Gold.PLP.Fitness>
51.8340

> <Gold.PLP.PLP>
-41.3387

> <Gold.PLP.part.hbond>
-4.0000

> <Gold.PLP.part.metal>
0.0000

> <Gold.PLP.part.buried>
-3.8672

> <Gold.PLP.part.nonpolar>
-33.4108

> <Gold.PLP.part.repulsive>
0.2237

> <Gold.PLP.ligand.clash>
0.0000

> <Gold.PLP.ligand.torsion>
1.2294

> <Gold.PLP.Chemscore.Hbond>
4.3073

> <Gold.PLP.Chemscore.CHOScore>
0.0000

> <Gold.PLP.Chemscore.Metal>
0.0000

> <Gold.Chemscore.Hbonds>
donor molecule, donor type, donor heavy atom, donor atom, acceptor molecule, acceptor atom, score
      L1  H    23    50       P1  7948  2.00
      P1  H  7989  7998       L1    25  0.25
      P1  H  7997  8010       L1    25  1.00
      P1  H 10752 10765       L1    14  1.00

> <Gold.PLP.Chemscore.Internal.Correction>
0.0322

> <Gold.Rescore>
     Score         DG    S(hbond)    S(metal)    S(lipo)     H(rot)  DE(clash)    DE(int)     intcor
     18.77     -21.54       2.67        0.00     103.93       1.96       1.50       1.28       ----

> <Gold.Chemscore.Fitness>
18.7667

> <Gold.Chemscore.DG>
-21.5422

> <Gold.Chemscore.ZeroCoef>
-5.4800

> <Gold.Chemscore.Hbond>
2.6736

> <Gold.Chemscore.Metal>
0.0000

> <Gold.Chemscore.Lipo>
103.9302

> <Gold.Chemscore.Internal_Hbond>
0.0000

> <Gold.Chemscore.DEClash>
1.4951

> <Gold.Chemscore.DEInternal>
1.2804

> <Gold.Chemscore.Rot>
1.9638

> <Gold.Chemscore.Internal.Correction>
   9.000000E+99

> <Gold.Chemscore.Hbonds>
donor molecule, donor type, donor heavy atom, donor atom, acceptor molecule, acceptor atom, score
      L1  H    23    50       P1  7948  0.54
      P1  H  7989  7998       L1    25  0.01
      P1  H  7997  8010       L1    25  0.95
      P1  H 10752 10765       L1    14  0.93

> <Gold.Chemscore.Hbond.Weighted>
-8.9298

> <Gold.Chemscore.Metal.Weighted>
-0.0000

> <Gold.Chemscore.Lipo.Weighted>
-12.1598

> <Gold.Chemscore.Internal_Hbond.Weighted>
0.0000

> <Gold.Chemscore.DEClash.Weighted>
1.4951

> <Gold.Chemscore.DEInternal.Weighted>
1.2804

> <Gold.Chemscore.Rot.Weighted>
5.0274

> <Gold.Chemscore.Internal.Correction.Weighted>
   9.000000E+99

> <Gold.Protein.RotatedTorsions>
[ 6907 6896 6895 6894 ] final  -93.49 input  -60.11 | X-H torsion
[ 7974 7965 7964 7962 ] final  -96.19 input  175.53 | X-H torsion
[ 8008 7997 7996 7995 ] final   90.52 input   59.86 | X-H torsion
[ 10167 10162 10161 10158 ] final  -37.61 input  -65.29 | X-H torsion
[ 10718 10713 10712 10709 ] final  127.87 input   66.30 | X-H torsion
[ 10763 10752 10751 10750 ] final  169.57 input  -60.55 | X-H torsion
[ 11005 11000 10999 10996 ] final  -92.48 input  -57.11 | X-H torsion

> <Gold.Protein.ActiveResidues>
 VAL166  LYS551  ARG553  GLY616  TRP617  ASP618  TYR619  PRO620  LYS621  CYS622 
 ASP623  PHE694  ASN695  SER759  ASP760  ASP761  ALA762  ILE779  LEU786  VAL792 
 PHE793  MET794  SER795  GLU796  ALA797  LYS798  CYS799  TRP800  GLU811  SER814 

> <Gold.Protein.RotatedAtoms>
  150.6923  134.1959  159.4303 H   0  0  0  0  0  0  0  0  0  0  0  0  # atno 6907 bound_to 6896
  151.9928  134.9968  160.0571 H   0  0  0  0  0  0  0  0  0  0  0  0  # atno 6908 bound_to 6896
  152.1651  133.4572  159.4918 H   0  0  0  0  0  0  0  0  0  0  0  0  # atno 6909 bound_to 6896
  145.3501  140.9475  143.2559 H   0  0  0  0  0  0  0  0  0  0  0  0  # atno 7974 bound_to 7965
  156.0129  140.3348  155.6960 H   0  0  0  0  0  0  0  0  0  0  0  0  # atno 8008 bound_to 7997
  155.6131  140.0667  157.2718 H   0  0  0  0  0  0  0  0  0  0  0  0  # atno 8009 bound_to 7997
  154.4288  140.1790  156.1281 H   0  0  0  0  0  0  0  0  0  0  0  0  # atno 8010 bound_to 7997
  140.7114  143.3330  151.2525 H   0  0  0  0  0  0  0  0  0  0  0  0  # atno 10167 bound_to 10162
  157.5295  131.1098  150.9032 H   0  0  0  0  0  0  0  0  0  0  0  0  # atno 10718 bound_to 10713
  154.3850  135.2753  155.2188 H   0  0  0  0  0  0  0  0  0  0  0  0  # atno 10763 bound_to 10752
  154.4279  135.5984  153.6054 H   0  0  0  0  0  0  0  0  0  0  0  0  # atno 10764 bound_to 10752
  152.9833  135.5988  154.4098 H   0  0  0  0  0  0  0  0  0  0  0  0  # atno 10765 bound_to 10752
  141.1521  133.7823  157.0025 H   0  0  0  0  0  0  0  0  0  0  0  0  # atno 11005 bound_to 11000
  144.8724  139.5019  143.6761 LP  0  0  0  0  0  0  0  0  0  0  0  0  # atno 17320 bound_to 7965
  146.2971  139.7312  142.9118 LP  0  0  0  0  0  0  0  0  0  0  0  0  # atno 17321 bound_to 7965
  139.6818  143.9842  152.2812 LP  0  0  0  0  0  0  0  0  0  0  0  0  # atno 17342 bound_to 10162
  139.9474  144.6642  150.8206 LP  0  0  0  0  0  0  0  0  0  0  0  0  # atno 17343 bound_to 10162
  156.9617  130.5458  149.5286 LP  0  0  0  0  0  0  0  0  0  0  0  0  # atno 17370 bound_to 10713
  156.0411  130.5494  150.8773 LP  0  0  0  0  0  0  0  0  0  0  0  0  # atno 17371 bound_to 10713
  140.0930  134.9581  157.1806 LP  0  0  0  0  0  0  0  0  0  0  0  0  # atno 17394 bound_to 11000
  140.3420  134.2694  155.7211 LP  0  0  0  0  0  0  0  0  0  0  0  0  # atno 17395 bound_to 11000

$$$$
