AV-unprocessed.smi:1786|AV-procd|sdf|7203|dock9
  -GOLD-   22720 8443D 1   1.00000     0.00000
 Structure written by MMmdl.
 44 45  0  0  0  0  0  0  0  0  2 V2000
  146.5679  132.0371  152.4133 C   0  0  0  0  0  0  0  0  0  0  0  0
  147.2091  133.3564  151.9312 C   0  0  1  0  0  0  0  0  0  0  0  0
  146.2354  134.2102  151.0918 C   0  0  0  0  0  0  0  0  0  0  0  0
  145.1492  134.8662  151.9568 C   0  0  0  0  0  0  0  0  0  0  0  0
  145.7954  135.6661  153.0945 C   0  0  0  0  0  0  0  0  0  0  0  0
  146.7594  134.7912  153.9125 C   0  0  0  0  0  0  0  0  0  0  0  0
  147.7931  134.1719  153.0384 N   0  3  1  0  0  0  0  0  0  0  0  0
  148.8696  133.4761  153.7892 C   0  0  0  0  0  0  0  0  0  0  0  0
  149.5111  134.3805  154.8583 C   0  0  0  0  0  0  0  0  0  0  0  0
  149.8534  135.6906  154.3176 N   0  0  0  0  0  0  0  0  0  0  0  0
  150.8032  136.5004  154.8098 C   0  0  0  0  0  0  0  0  0  0  0  0
  151.4753  136.2203  155.8033 O   0  0  0  0  0  0  0  0  0  0  0  0
  151.0001  137.8346  154.0760 C   0  0  0  0  0  0  0  0  0  0  0  0
  150.7283  139.0094  154.9210 N   0  0  0  0  0  0  0  0  0  0  0  0
  149.3898  139.2315  155.3018 C   0  0  0  0  0  0  0  0  0  0  0  0
  149.0340  140.2728  156.0705 C   0  0  0  0  0  0  0  0  0  0  0  0
  150.0664  141.1812  156.5098 C   0  0  0  0  0  0  0  0  0  0  0  0
  151.3503  140.9761  156.1548 C   0  0  0  0  0  0  0  0  0  0  0  0
  151.7442  139.8374  155.3170 C   0  0  0  0  0  0  0  0  0  0  0  0
  152.9150  139.6389  154.9913 O   0  0  0  0  0  0  0  0  0  0  0  0
  146.1786  131.4691  151.5681 H   0  0  0  0  0  0  0  0  0  0  0  0
  145.7384  132.2037  153.0993 H   0  0  0  0  0  0  0  0  0  0  0  0
  147.2907  131.3965  152.9181 H   0  0  0  0  0  0  0  0  0  0  0  0
  148.0327  133.0844  151.2692 H   0  0  0  0  0  0  0  0  0  0  0  0
  146.7971  134.9908  150.5768 H   0  0  0  0  0  0  0  0  0  0  0  0
  145.7762  133.6043  150.3098 H   0  0  0  0  0  0  0  0  0  0  0  0
  144.5269  135.5203  151.3454 H   0  0  0  0  0  0  0  0  0  0  0  0
  144.4852  134.1056  152.3680 H   0  0  0  0  0  0  0  0  0  0  0  0
  146.3376  136.5173  152.6803 H   0  0  0  0  0  0  0  0  0  0  0  0
  145.0235  136.0788  153.7447 H   0  0  0  0  0  0  0  0  0  0  0  0
  147.2321  135.4135  154.6717 H   0  0  0  0  0  0  0  0  0  0  0  0
  146.2083  134.0186  154.4494 H   0  0  0  0  0  0  0  0  0  0  0  0
  148.4799  132.5621  154.2398 H   0  0  0  0  0  0  0  0  0  0  0  0
  149.6473  133.1682  153.0889 H   0  0  0  0  0  0  0  0  0  0  0  0
  148.8423  134.4951  155.7134 H   0  0  0  0  0  0  0  0  0  0  0  0
  150.4300  133.9382  155.2411 H   0  0  0  0  0  0  0  0  0  0  0  0
  149.3443  135.9976  153.5010 H   0  0  0  0  0  0  0  0  0  0  0  0
  152.0168  137.8874  153.6816 H   0  0  0  0  0  0  0  0  0  0  0  0
  150.3536  137.8365  153.1975 H   0  0  0  0  0  0  0  0  0  0  0  0
  148.6797  138.5035  154.9373 H   0  0  0  0  0  0  0  0  0  0  0  0
  148.0033  140.4250  156.3557 H   0  0  0  0  0  0  0  0  0  0  0  0
  149.8082  142.0291  157.1270 H   0  0  0  0  0  0  0  0  0  0  0  0
  152.1094  141.6657  156.4938 H   0  0  0  0  0  0  0  0  0  0  0  0
  148.2527  134.9414  152.5724 H   0  0  0  0  0  0  0  0  0  0  0  0
  1  2  1  0  0  0  0
  1 21  1  0  0  0  0
  1 22  1  0  0  0  0
  1 23  1  0  0  0  0
  2  7  1  0  0  0  0
  2  3  1  0  0  0  0
  2 24  1  0  0  0  0
  3  4  1  0  0  0  0
  3 25  1  0  0  0  0
  3 26  1  0  0  0  0
  4  5  1  0  0  0  0
  4 27  1  0  0  0  0
  4 28  1  0  0  0  0
  5  6  1  0  0  0  0
  5 29  1  0  0  0  0
  5 30  1  0  0  0  0
  6  7  1  0  0  0  0
  6 31  1  0  0  0  0
  6 32  1  0  0  0  0
  7  8  1  0  0  0  0
  7 44  1  0  0  0  0
  8  9  1  0  0  0  0
  8 33  1  0  0  0  0
  8 34  1  0  0  0  0
  9 10  1  0  0  0  0
  9 35  1  0  0  0  0
  9 36  1  0  0  0  0
 10 11  1  0  0  0  0
 10 37  1  0  0  0  0
 11 12  2  0  0  0  0
 11 13  1  0  0  0  0
 13 14  1  0  0  0  0
 13 38  1  0  0  0  0
 13 39  1  0  0  0  0
 14 19  1  0  0  0  0
 14 15  1  0  0  0  0
 15 16  2  0  0  0  0
 15 40  1  0  0  0  0
 16 17  1  0  0  0  0
 16 41  1  0  0  0  0
 17 18  2  0  0  0  0
 17 42  1  0  0  0  0
 18 19  1  0  0  0  0
 18 43  1  0  0  0  0
 19 20  2  0  0  0  0
M  CHG  1   7   1
M  END
> <s_m_source_file>
AV-unprocessed.smi

> <i_m_source_file_index>
1786

> <i_lp_mmshare_version>
43012

> <i_f3d_flags>
0

> <s_epik_input>
W0NIM11bQ0BASF0xW0NIMl1bQ0gyXVtDSDJdW0NIMl1OMVtDSDJdW0NIMl1bTkhdQyg9TylbQ0gyXW4yW2NIXVtjSF1bY0hdW2NIXWMyPU8=

> <s_epik_cmdline>
J2VwaWtfcHl0aG9uJywgJy1waCcsICc3LjAnLCAnLXRuJywgJzgnLCAnLW1hJywgJzIwMCcsICctbWV0YWxfYmluZGluZycsICctaW1hZScsICc8aW5maWxlLm1hZT4nLCAnLW9tYWUnLCAnPG91dGZpbGUubWFlPic=

> <r_lp_tautomer_probability>
1

> <r_epik_Ionization_Penalty>
0.00237247

> <r_epik_Ionization_Penalty_Charging>
0.00237238

> <r_epik_Ionization_Penalty_Neutral>
8.2065e-08

> <r_epik_State_Penalty>
0.00163922

> <r_epik_Charging_Adjusted_Penalty>
0.0040116

> <i_epik_Tot_Q>
1

> <i_epik_Tot_abs_Q>
1

> <r_epik_Metal_State_Penalty>
-0

> <b_epik_Metal_Only>
0

> <s_lp_Force_Field>
OPLS_2005

> <r_lp_Energy>
28.482

> <b_lp_Chiralities_Consistent>
1

> <s_lp_Variant>
AV-unprocessed.smi:1786-2

> <Gold.Version>
5.8.1

> <Gold.Id.Protein>
6NUR|6NUR_protein|mol2

> <Gold.PLP.Fitness>
49.1635

> <Gold.PLP.PLP>
-34.7200

> <Gold.PLP.part.hbond>
-5.6490

> <Gold.PLP.part.metal>
0.0000

> <Gold.PLP.part.buried>
-1.7098

> <Gold.PLP.part.nonpolar>
-27.9614

> <Gold.PLP.part.repulsive>
0.1115

> <Gold.PLP.ligand.clash>
0.0000

> <Gold.PLP.ligand.torsion>
0.3073

> <Gold.PLP.Chemscore.Hbond>
5.0000

> <Gold.PLP.Chemscore.CHOScore>
0.0000

> <Gold.PLP.Chemscore.Metal>
0.0000

> <Gold.Chemscore.Hbonds>
donor molecule, donor type, donor heavy atom, donor atom, acceptor molecule, acceptor atom, score
      L1  H     7    44       P1  7948  2.00
      L1  H    10    37       P1  7948  1.00
      P1  H  7997  8009       L1    20  1.00
      P1  H 10752 10764       L1    12  1.00

> <Gold.PLP.Chemscore.Internal.Correction>
0.0580

> <Gold.Rescore>
     Score         DG    S(hbond)    S(metal)    S(lipo)     H(rot)  DE(clash)    DE(int)     intcor
     18.33     -18.67       3.22        0.00      61.53       1.86       0.04       0.29       ----

> <Gold.Chemscore.Fitness>
18.3307

> <Gold.Chemscore.DG>
-18.6670

> <Gold.Chemscore.ZeroCoef>
-5.4800

> <Gold.Chemscore.Hbond>
3.2173

> <Gold.Chemscore.Metal>
0.0000

> <Gold.Chemscore.Lipo>
61.5326

> <Gold.Chemscore.Internal_Hbond>
0.0000

> <Gold.Chemscore.DEClash>
0.0417

> <Gold.Chemscore.DEInternal>
0.2946

> <Gold.Chemscore.Rot>
1.8586

> <Gold.Chemscore.Internal.Correction>
   9.000000E+99

> <Gold.Chemscore.Hbonds>
donor molecule, donor type, donor heavy atom, donor atom, acceptor molecule, acceptor atom, score
      L1  H     7    44       P1  7948  0.64
      L1  H    10    37       P1  7948  0.65
      P1  H  7997  8009       L1    20  1.00
      P1  H 10752 10764       L1    12  0.30

> <Gold.Chemscore.Hbond.Weighted>
-10.7458

> <Gold.Chemscore.Metal.Weighted>
-0.0000

> <Gold.Chemscore.Lipo.Weighted>
-7.1993

> <Gold.Chemscore.Internal_Hbond.Weighted>
0.0000

> <Gold.Chemscore.DEClash.Weighted>
0.0417

> <Gold.Chemscore.DEInternal.Weighted>
0.2946

> <Gold.Chemscore.Rot.Weighted>
4.7581

> <Gold.Chemscore.Internal.Correction.Weighted>
   9.000000E+99

> <Gold.Protein.RotatedTorsions>
[ 6907 6896 6895 6894 ] final  -26.54 input  -60.11 | X-H torsion
[ 7974 7965 7964 7962 ] final  140.67 input  175.53 | X-H torsion
[ 8008 7997 7996 7995 ] final -134.87 input   59.86 | X-H torsion
[ 10167 10162 10161 10158 ] final   -7.81 input  -65.29 | X-H torsion
[ 10718 10713 10712 10709 ] final   77.28 input   66.30 | X-H torsion
[ 10763 10752 10751 10750 ] final  -35.72 input  -60.55 | X-H torsion
[ 11005 11000 10999 10996 ] final  174.13 input  -57.11 | X-H torsion

> <Gold.Protein.ActiveResidues>
 VAL166  LYS551  ARG553  GLY616  TRP617  ASP618  TYR619  PRO620  LYS621  CYS622 
 ASP623  PHE694  ASN695  SER759  ASP760  ASP761  ALA762  ILE779  LEU786  VAL792 
 PHE793  MET794  SER795  GLU796  ALA797  LYS798  CYS799  TRP800  GLU811  SER814 

> <Gold.Protein.RotatedAtoms>
  151.1595  135.0266  159.8703 H   0  0  0  0  0  0  0  0  0  0  0  0  # atno 6907 bound_to 6896
  152.5451  134.1296  159.8443 H   0  0  0  0  0  0  0  0  0  0  0  0  # atno 6908 bound_to 6896
  151.1389  133.4939  159.2630 H   0  0  0  0  0  0  0  0  0  0  0  0  # atno 6909 bound_to 6896
  144.9165  139.5223  143.5683 H   0  0  0  0  0  0  0  0  0  0  0  0  # atno 7974 bound_to 7965
  155.3692  140.0487  157.3045 H   0  0  0  0  0  0  0  0  0  0  0  0  # atno 8008 bound_to 7997
  154.5138  140.2201  155.9067 H   0  0  0  0  0  0  0  0  0  0  0  0  # atno 8009 bound_to 7997
  156.1613  140.3115  155.8818 H   0  0  0  0  0  0  0  0  0  0  0  0  # atno 8010 bound_to 7997
  140.7040  143.6038  150.8771 H   0  0  0  0  0  0  0  0  0  0  0  0  # atno 10167 bound_to 10162
  157.6705  130.9814  150.1619 H   0  0  0  0  0  0  0  0  0  0  0  0  # atno 10718 bound_to 10713
  153.8678  135.6834  153.4777 H   0  0  0  0  0  0  0  0  0  0  0  0  # atno 10763 bound_to 10752
  153.1304  135.4700  154.9338 H   0  0  0  0  0  0  0  0  0  0  0  0  # atno 10764 bound_to 10752
  154.7728  135.3244  154.8104 H   0  0  0  0  0  0  0  0  0  0  0  0  # atno 10765 bound_to 10752
  140.3480  134.7220  157.4248 H   0  0  0  0  0  0  0  0  0  0  0  0  # atno 11005 bound_to 11000
  146.3184  139.8012  142.8965 LP  0  0  0  0  0  0  0  0  0  0  0  0  # atno 17320 bound_to 7965
  145.3366  141.0278  143.3416 LP  0  0  0  0  0  0  0  0  0  0  0  0  # atno 17321 bound_to 7965
  139.9762  143.6001  152.2957 LP  0  0  0  0  0  0  0  0  0  0  0  0  # atno 17342 bound_to 10162
  139.6606  144.7662  151.1970 LP  0  0  0  0  0  0  0  0  0  0  0  0  # atno 17343 bound_to 10162
  156.2393  130.3689  149.8355 LP  0  0  0  0  0  0  0  0  0  0  0  0  # atno 17370 bound_to 10713
  156.6159  130.8606  151.3465 LP  0  0  0  0  0  0  0  0  0  0  0  0  # atno 17371 bound_to 10713
  140.0727  134.5841  155.8625 LP  0  0  0  0  0  0  0  0  0  0  0  0  # atno 17394 bound_to 11000
  141.2020  133.6622  156.5983 LP  0  0  0  0  0  0  0  0  0  0  0  0  # atno 17395 bound_to 11000

$$$$
