AV-unprocessed.smi:1734|AV-procd|sdf|6986|dock5
  -GOLD-   22720 8203D 1   1.00000     0.00000
 Structure written by MMmdl.
 51 53  0  0  0  0  0  0  0  0  2 V2000
  143.6324  135.5115  151.7864 C   0  0  0  0  0  0  0  0  0  0  0  0
  144.2852  134.2885  151.1630 C   0  0  0  0  0  0  0  0  0  0  0  0
  143.5035  133.4161  150.3761 C   0  0  0  0  0  0  0  0  0  0  0  0
  144.1072  132.2863  149.7987 C   0  0  0  0  0  0  0  0  0  0  0  0
  145.4761  132.0745  150.0348 C   0  0  0  0  0  0  0  0  0  0  0  0
  146.2303  132.9020  150.7865 N   0  0  0  0  0  0  0  0  0  0  0  0
  145.6630  133.9974  151.3520 C   0  0  0  0  0  0  0  0  0  0  0  0
  146.3987  134.9152  152.1545 N   0  0  0  0  0  0  0  0  0  0  0  0
  146.1701  135.2806  153.4284 C   0  0  0  0  0  0  0  0  0  0  0  0
  145.2338  134.8893  154.1254 O   0  0  0  0  0  0  0  0  0  0  0  0
  147.1054  136.1392  153.8608 N   0  0  0  0  0  0  0  0  0  0  0  0
  147.1595  136.7268  155.1961 C   0  0  0  0  0  0  0  0  0  0  0  0
  148.4166  137.6114  155.4142 C   0  0  2  0  0  0  0  0  0  0  0  0
  149.0013  137.5380  156.8548 C   0  0  1  0  0  0  0  0  0  0  0  0
  147.9960  137.6122  157.9940 C   0  0  0  0  0  0  0  0  0  0  0  0
  148.7624  137.0098  159.1683 C   0  0  0  0  0  0  0  0  0  0  0  0
  149.7183  136.1209  158.6023 O   0  0  0  0  0  0  0  0  0  0  0  0
  149.6654  136.1962  157.1843 C   0  0  0  0  0  0  0  0  0  0  0  0
  148.1593  139.0380  155.0496 N   0  3  0  0  0  0  0  0  0  0  0  0
  149.3480  139.9182  155.1614 C   0  0  0  0  0  0  0  0  0  0  0  0
  148.9366  141.3873  154.9630 C   0  0  0  0  0  0  0  0  0  0  0  0
  148.2872  141.5386  153.7062 O   0  0  0  0  0  0  0  0  0  0  0  0
  147.1009  140.7579  153.6180 C   0  0  0  0  0  0  0  0  0  0  0  0
  147.4544  139.2686  153.7626 C   0  0  0  0  0  0  0  0  0  0  0  0
  142.5738  135.5698  151.5310 H   0  0  0  0  0  0  0  0  0  0  0  0
  144.1134  136.4236  151.4320 H   0  0  0  0  0  0  0  0  0  0  0  0
  143.7131  135.4748  152.8731 H   0  0  0  0  0  0  0  0  0  0  0  0
  142.4530  133.6082  150.2147 H   0  0  0  0  0  0  0  0  0  0  0  0
  143.5356  131.6006  149.1911 H   0  0  0  0  0  0  0  0  0  0  0  0
  145.9795  131.2190  149.6092 H   0  0  0  0  0  0  0  0  0  0  0  0
  147.1972  135.3361  151.7036 H   0  0  0  0  0  0  0  0  0  0  0  0
  147.8344  136.4080  153.2159 H   0  0  0  0  0  0  0  0  0  0  0  0
  146.2498  137.3140  155.3180 H   0  0  0  0  0  0  0  0  0  0  0  0
  147.1263  135.9446  155.9556 H   0  0  0  0  0  0  0  0  0  0  0  0
  149.1968  137.2532  154.7403 H   0  0  0  0  0  0  0  0  0  0  0  0
  149.7341  138.3330  157.0000 H   0  0  0  0  0  0  0  0  0  0  0  0
  147.6626  138.6255  158.2149 H   0  0  0  0  0  0  0  0  0  0  0  0
  147.1190  137.0032  157.7696 H   0  0  0  0  0  0  0  0  0  0  0  0
  149.2956  137.7870  159.7170 H   0  0  0  0  0  0  0  0  0  0  0  0
  148.1045  136.4935  159.8678 H   0  0  0  0  0  0  0  0  0  0  0  0
  149.0604  135.3655  156.8176 H   0  0  0  0  0  0  0  0  0  0  0  0
  150.6626  136.1025  156.7534 H   0  0  0  0  0  0  0  0  0  0  0  0
  149.8119  139.7997  156.1410 H   0  0  0  0  0  0  0  0  0  0  0  0
  150.0944  139.6416  154.4163 H   0  0  0  0  0  0  0  0  0  0  0  0
  148.2780  141.7192  155.7677 H   0  0  0  0  0  0  0  0  0  0  0  0
  149.8163  142.0308  154.9862 H   0  0  0  0  0  0  0  0  0  0  0  0
  146.3883  141.0661  154.3849 H   0  0  0  0  0  0  0  0  0  0  0  0
  146.6288  140.9403  152.6525 H   0  0  0  0  0  0  0  0  0  0  0  0
  148.0847  138.9680  152.9247 H   0  0  0  0  0  0  0  0  0  0  0  0
  146.5436  138.6730  153.7127 H   0  0  0  0  0  0  0  0  0  0  0  0
  147.5280  139.3711  155.7642 H   0  0  0  0  0  0  0  0  0  0  0  0
  1  2  1  0  0  0  0
  1 25  1  0  0  0  0
  1 26  1  0  0  0  0
  1 27  1  0  0  0  0
  2  7  1  0  0  0  0
  2  3  2  0  0  0  0
  3  4  1  0  0  0  0
  3 28  1  0  0  0  0
  4  5  2  0  0  0  0
  4 29  1  0  0  0  0
  5  6  1  0  0  0  0
  5 30  1  0  0  0  0
  6  7  2  0  0  0  0
  7  8  1  0  0  0  0
  8  9  1  0  0  0  0
  8 31  1  0  0  0  0
  9 10  2  0  0  0  0
  9 11  1  0  0  0  0
 11 12  1  0  0  0  0
 11 32  1  0  0  0  0
 12 13  1  0  0  0  0
 12 33  1  0  0  0  0
 12 34  1  0  0  0  0
 13 14  1  0  0  0  0
 13 19  1  0  0  0  0
 13 35  1  0  0  0  0
 14 18  1  0  0  0  0
 14 15  1  0  0  0  0
 14 36  1  0  0  0  0
 15 16  1  0  0  0  0
 15 37  1  0  0  0  0
 15 38  1  0  0  0  0
 16 17  1  0  0  0  0
 16 39  1  0  0  0  0
 16 40  1  0  0  0  0
 17 18  1  0  0  0  0
 18 41  1  0  0  0  0
 18 42  1  0  0  0  0
 19 24  1  0  0  0  0
 19 20  1  0  0  0  0
 19 51  1  0  0  0  0
 20 21  1  0  0  0  0
 20 43  1  0  0  0  0
 20 44  1  0  0  0  0
 21 22  1  0  0  0  0
 21 45  1  0  0  0  0
 21 46  1  0  0  0  0
 22 23  1  0  0  0  0
 23 24  1  0  0  0  0
 23 47  1  0  0  0  0
 23 48  1  0  0  0  0
 24 49  1  0  0  0  0
 24 50  1  0  0  0  0
M  CHG  1  19   1
M  END
> <s_m_source_file>
AV-unprocessed.smi

> <i_m_source_file_index>
1734

> <i_lp_mmshare_version>
43012

> <i_f3d_flags>
0

> <s_epik_input>
W0NIM11jMVtjSF1bY0hdW2NIXW5jMVtOSF1DKD1PKVtOSF1bQ0gyXVtDQEhdKFtDQEBIXTJbQ0gyXVtDSDJdT1tDSDJdMilOM1tDSDJdW0NIMl1PW0NIMl1bQ0gyXTM=

> <s_epik_cmdline>
J2VwaWtfcHl0aG9uJywgJy1waCcsICc3LjAnLCAnLXRuJywgJzgnLCAnLW1hJywgJzIwMCcsICctbWV0YWxfYmluZGluZycsICctaW1hZScsICc8aW5maWxlLm1hZT4nLCAnLW9tYWUnLCAnPG91dGZpbGUubWFlPic=

> <r_epik_Ionization_Penalty>
0.983302

> <r_epik_Ionization_Penalty_Charging>
0.98326

> <r_epik_Ionization_Penalty_Neutral>
4.21967e-05

> <r_epik_State_Penalty>
1.0303

> <r_epik_Charging_Adjusted_Penalty>
2.01356

> <i_epik_Tot_Q>
1

> <i_epik_Tot_abs_Q>
1

> <r_epik_Metal_State_Penalty>
1.03031

> <b_epik_Metal_Only>
0

> <s_lp_Force_Field>
OPLS_2005

> <r_lp_Energy>
41.1253

> <b_lp_Chiralities_Consistent>
1

> <s_lp_Variant>
AV-unprocessed.smi:1734-7

> <Gold.Version>
5.8.1

> <Gold.Id.Protein>
6NUR|6NUR_protein|mol2

> <Gold.PLP.Fitness>
43.4278

> <Gold.PLP.PLP>
-32.1169

> <Gold.PLP.part.hbond>
-4.0000

> <Gold.PLP.part.metal>
0.0000

> <Gold.PLP.part.buried>
-4.8487

> <Gold.PLP.part.nonpolar>
-25.2453

> <Gold.PLP.part.repulsive>
1.3836

> <Gold.PLP.ligand.clash>
0.0000

> <Gold.PLP.ligand.torsion>
1.3069

> <Gold.PLP.Chemscore.Hbond>
3.7360

> <Gold.PLP.Chemscore.CHOScore>
0.7703

> <Gold.PLP.Chemscore.Metal>
0.0000

> <Gold.Chemscore.Hbonds>
donor molecule, donor type, donor heavy atom, donor atom, acceptor molecule, acceptor atom, score
      L1  H     8    31       P1  7948  1.00
      L1  H    11    32       P1  7948  1.00
      P1  H  6896  6909       L1    17  0.80
      P1  H  8011  8017       L1    22  0.34

> <Gold.PLP.Chemscore.Internal.Correction>
0.4056

> <Gold.Rescore>
     Score         DG    S(hbond)    S(metal)    S(lipo)     H(rot)  DE(clash)    DE(int)     intcor
     20.40     -21.88       3.49        0.00      77.54       1.70       0.21       1.26       ----

> <Gold.Chemscore.Fitness>
20.4047

> <Gold.Chemscore.DG>
-21.8764

> <Gold.Chemscore.ZeroCoef>
-5.4800

> <Gold.Chemscore.Hbond>
3.4948

> <Gold.Chemscore.Metal>
0.0000

> <Gold.Chemscore.Lipo>
77.5405

> <Gold.Chemscore.Internal_Hbond>
0.0000

> <Gold.Chemscore.DEClash>
0.2119

> <Gold.Chemscore.DEInternal>
1.2598

> <Gold.Chemscore.Rot>
1.6986

> <Gold.Chemscore.Internal.Correction>
   9.000000E+99

> <Gold.Chemscore.Hbonds>
donor molecule, donor type, donor heavy atom, donor atom, acceptor molecule, acceptor atom, score
      L1  H     8    31       P1  7948  0.92
      L1  H    11    32       P1  7948  0.99
      P1  H  6896  6909       L1    17  0.74
      P1  H  8011  8017       L1    22  0.21

> <Gold.Chemscore.Hbond.Weighted>
-11.6726

> <Gold.Chemscore.Metal.Weighted>
-0.0000

> <Gold.Chemscore.Lipo.Weighted>
-9.0722

> <Gold.Chemscore.Internal_Hbond.Weighted>
0.0000

> <Gold.Chemscore.DEClash.Weighted>
0.2119

> <Gold.Chemscore.DEInternal.Weighted>
1.2598

> <Gold.Chemscore.Rot.Weighted>
4.3485

> <Gold.Chemscore.Internal.Correction.Weighted>
   9.000000E+99

> <Gold.Protein.RotatedTorsions>
[ 6907 6896 6895 6894 ] final   86.59 input  -60.11 | X-H torsion
[ 7974 7965 7964 7962 ] final   84.18 input  175.53 | X-H torsion
[ 8008 7997 7996 7995 ] final  118.55 input   59.86 | X-H torsion
[ 10167 10162 10161 10158 ] final   30.76 input  -65.29 | X-H torsion
[ 10718 10713 10712 10709 ] final  -40.40 input   66.30 | X-H torsion
[ 10763 10752 10751 10750 ] final -112.48 input  -60.55 | X-H torsion
[ 11005 11000 10999 10996 ] final -127.50 input  -57.11 | X-H torsion

> <Gold.Protein.ActiveResidues>
 VAL166  LYS551  ARG553  GLY616  TRP617  ASP618  TYR619  PRO620  LYS621  CYS622 
 ASP623  PHE694  ASN695  SER759  ASP760  ASP761  ALA762  ILE779  LEU786  VAL792 
 PHE793  MET794  SER795  GLU796  ALA797  LYS798  CYS799  TRP800  GLU811  SER814 

> <Gold.Protein.RotatedAtoms>
  152.5397  134.2407  159.8860 H   0  0  0  0  0  0  0  0  0  0  0  0  # atno 6907 bound_to 6896
  151.2375  133.4411  159.2613 H   0  0  0  0  0  0  0  0  0  0  0  0  # atno 6908 bound_to 6896
  151.0658  134.9780  159.8340 H   0  0  0  0  0  0  0  0  0  0  0  0  # atno 6909 bound_to 6896
  145.6021  139.2354  143.2240 H   0  0  0  0  0  0  0  0  0  0  0  0  # atno 7974 bound_to 7965
  156.2552  140.2872  156.0852 H   0  0  0  0  0  0  0  0  0  0  0  0  # atno 8008 bound_to 7997
  155.1523  140.0397  157.2841 H   0  0  0  0  0  0  0  0  0  0  0  0  # atno 8009 bound_to 7997
  154.6452  140.2531  155.7283 H   0  0  0  0  0  0  0  0  0  0  0  0  # atno 8010 bound_to 7997
  140.4649  144.0850  150.6222 H   0  0  0  0  0  0  0  0  0  0  0  0  # atno 10167 bound_to 10162
  156.2818  130.4218  149.8329 H   0  0  0  0  0  0  0  0  0  0  0  0  # atno 10718 bound_to 10713
  154.8351  135.4489  154.1200 H   0  0  0  0  0  0  0  0  0  0  0  0  # atno 10763 bound_to 10752
  153.2439  135.6919  153.7759 H   0  0  0  0  0  0  0  0  0  0  0  0  # atno 10764 bound_to 10752
  153.7096  135.3359  155.3219 H   0  0  0  0  0  0  0  0  0  0  0  0  # atno 10765 bound_to 10752
  140.9594  134.0957  157.3983 H   0  0  0  0  0  0  0  0  0  0  0  0  # atno 11005 bound_to 11000
  146.1568  140.6846  142.9296 LP  0  0  0  0  0  0  0  0  0  0  0  0  # atno 17320 bound_to 7965
  144.7305  140.4658  143.6941 LP  0  0  0  0  0  0  0  0  0  0  0  0  # atno 17321 bound_to 7965
  140.4048  143.2686  151.9904 LP  0  0  0  0  0  0  0  0  0  0  0  0  # atno 17342 bound_to 10162
  139.4811  144.5966  151.7679 LP  0  0  0  0  0  0  0  0  0  0  0  0  # atno 17343 bound_to 10162
  156.5774  130.8451  151.3373 LP  0  0  0  0  0  0  0  0  0  0  0  0  # atno 17370 bound_to 10713
  157.7316  130.9703  150.1890 LP  0  0  0  0  0  0  0  0  0  0  0  0  # atno 17371 bound_to 10713
  139.8873  135.0088  156.6552 LP  0  0  0  0  0  0  0  0  0  0  0  0  # atno 17394 bound_to 11000
  140.7489  133.8914  155.8332 LP  0  0  0  0  0  0  0  0  0  0  0  0  # atno 17395 bound_to 11000

$$$$
