AV-unprocessed.smi:1433|AV-procd|sdf|5845|dock7
  -GOLD-   22720 5513D 1   1.00000     0.00000
 Structure written by MMmdl.
 45 46  0  0  0  0  0  0  0  0  2 V2000
  146.2868  132.9808  154.2100 C   0  0  0  0  0  0  0  0  0  0  0  0
  146.5022  134.1743  153.2727 C   0  0  2  0  0  0  0  0  0  0  0  0
  146.6176  135.5042  154.0428 C   0  0  0  0  0  0  0  0  0  0  0  0
  146.7464  136.6551  153.1072 N   0  3  2  0  0  0  0  0  0  0  0  0
  146.9205  138.0033  153.7417 C   0  0  2  0  0  0  0  0  0  0  0  0
  146.8638  139.1031  152.6566 C   0  0  0  0  0  0  0  0  0  0  0  0
  148.2134  138.1340  154.5940 C   0  0  0  0  0  0  0  0  0  0  0  0
  148.5251  139.5210  154.9282 N   0  0  0  0  0  0  0  0  0  0  0  0
  149.7093  140.1239  154.7337 C   0  0  0  0  0  0  0  0  0  0  0  0
  150.7005  139.5458  154.2889 O   0  0  0  0  0  0  0  0  0  0  0  0
  149.7839  141.6125  155.0794 C   0  0  0  0  0  0  0  0  0  0  0  0
  150.6676  141.8504  156.2082 N   0  0  0  0  0  0  0  0  0  0  0  0
  150.9972  143.0516  156.8010 C   0  0  0  0  0  0  0  0  0  0  0  0
  151.8673  142.7788  157.8173 C   0  0  0  0  0  0  0  0  0  0  0  0
  152.0101  141.3640  157.7696 C   0  0  0  0  0  0  0  0  0  0  0  0
  151.2917  140.8114  156.8059 N   0  0  0  0  0  0  0  0  0  0  0  0
  145.6231  136.6255  152.1318 C   0  0  0  0  0  0  0  0  0  0  0  0
  145.5504  135.2674  151.4104 C   0  0  2  0  0  0  0  0  0  0  0  0
  144.3633  135.1883  150.4441 C   0  0  0  0  0  0  0  0  0  0  0  0
  145.3977  134.2404  152.3809 O   0  0  0  0  0  0  0  0  0  0  0  0
  147.1160  132.8762  154.9102 H   0  0  0  0  0  0  0  0  0  0  0  0
  146.2099  132.0508  153.6460 H   0  0  0  0  0  0  0  0  0  0  0  0
  145.3708  133.0943  154.7903 H   0  0  0  0  0  0  0  0  0  0  0  0
  147.4154  134.0019  152.7000 H   0  0  0  0  0  0  0  0  0  0  0  0
  145.7455  135.6497  154.6825 H   0  0  0  0  0  0  0  0  0  0  0  0
  147.4919  135.4318  154.6888 H   0  0  0  0  0  0  0  0  0  0  0  0
  146.0815  138.1560  154.4227 H   0  0  0  0  0  0  0  0  0  0  0  0
  146.8807  140.1022  153.0917 H   0  0  0  0  0  0  0  0  0  0  0  0
  145.9577  139.0568  152.0556 H   0  0  0  0  0  0  0  0  0  0  0  0
  147.7129  139.0258  151.9767 H   0  0  0  0  0  0  0  0  0  0  0  0
  148.0954  137.6239  155.5498 H   0  0  0  0  0  0  0  0  0  0  0  0
  149.0533  137.6562  154.0865 H   0  0  0  0  0  0  0  0  0  0  0  0
  147.7713  140.0783  155.3036 H   0  0  0  0  0  0  0  0  0  0  0  0
  150.1471  142.1734  154.2173 H   0  0  0  0  0  0  0  0  0  0  0  0
  148.7906  141.9956  155.3182 H   0  0  0  0  0  0  0  0  0  0  0  0
  150.5906  143.9899  156.4532 H   0  0  0  0  0  0  0  0  0  0  0  0
  152.3302  143.4819  158.4935 H   0  0  0  0  0  0  0  0  0  0  0  0
  152.6104  140.7267  158.4020 H   0  0  0  0  0  0  0  0  0  0  0  0
  144.6849  136.8182  152.6550 H   0  0  0  0  0  0  0  0  0  0  0  0
  145.7326  137.4112  151.3864 H   0  0  0  0  0  0  0  0  0  0  0  0
  146.4689  135.0992  150.8452 H   0  0  0  0  0  0  0  0  0  0  0  0
  144.4360  135.9518  149.6690 H   0  0  0  0  0  0  0  0  0  0  0  0
  143.4171  135.3310  150.9670 H   0  0  0  0  0  0  0  0  0  0  0  0
  144.3269  134.2169  149.9502 H   0  0  0  0  0  0  0  0  0  0  0  0
  147.5934  136.4842  152.5839 H   0  0  0  0  0  0  0  0  0  0  0  0
  1  2  1  0  0  0  0
  1 21  1  0  0  0  0
  1 22  1  0  0  0  0
  1 23  1  0  0  0  0
  2 20  1  0  0  0  0
  2  3  1  0  0  0  0
  2 24  1  0  0  0  0
  3  4  1  0  0  0  0
  3 25  1  0  0  0  0
  3 26  1  0  0  0  0
  4  5  1  0  0  0  0
  4 17  1  0  0  0  0
  4 45  1  0  0  0  0
  5  6  1  0  0  0  0
  5  7  1  0  0  0  0
  5 27  1  0  0  0  0
  6 28  1  0  0  0  0
  6 29  1  0  0  0  0
  6 30  1  0  0  0  0
  7  8  1  0  0  0  0
  7 31  1  0  0  0  0
  7 32  1  0  0  0  0
  8  9  1  0  0  0  0
  8 33  1  0  0  0  0
  9 10  2  0  0  0  0
  9 11  1  0  0  0  0
 11 12  1  0  0  0  0
 11 34  1  0  0  0  0
 11 35  1  0  0  0  0
 12 16  1  0  0  0  0
 12 13  1  0  0  0  0
 13 14  2  0  0  0  0
 13 36  1  0  0  0  0
 14 15  1  0  0  0  0
 14 37  1  0  0  0  0
 15 16  2  0  0  0  0
 15 38  1  0  0  0  0
 17 18  1  0  0  0  0
 17 39  1  0  0  0  0
 17 40  1  0  0  0  0
 18 19  1  0  0  0  0
 18 20  1  0  0  0  0
 18 41  1  0  0  0  0
 19 42  1  0  0  0  0
 19 43  1  0  0  0  0
 19 44  1  0  0  0  0
M  CHG  1   4   1
M  END
> <s_m_source_file>
AV-unprocessed.smi

> <i_m_source_file_index>
1433

> <i_lp_mmshare_version>
43012

> <i_f3d_flags>
0

> <s_epik_input>
W0NIM11bQ0BASF0xW0NIMl1OKFtDSDJdW0NASF0oTzEpW0NIM10pW0NASF0oW0NIM10pW0NIMl1bTkhdQyg9TylbQ0gyXW4yW2NIXVtjSF1bY0hdbjI=

> <s_epik_cmdline>
J2VwaWtfcHl0aG9uJywgJy1waCcsICc3LjAnLCAnLXRuJywgJzgnLCAnLW1hJywgJzIwMCcsICctbWV0YWxfYmluZGluZycsICctaW1hZScsICc8aW5maWxlLm1hZT4nLCAnLW9tYWUnLCAnPG91dGZpbGUubWFlPic=

> <r_lp_tautomer_probability>
1

> <r_epik_Ionization_Penalty>
0.748405

> <r_epik_Ionization_Penalty_Charging>
0.748396

> <r_epik_Ionization_Penalty_Neutral>
8.54426e-06

> <r_epik_State_Penalty>
0.775162

> <r_epik_Charging_Adjusted_Penalty>
1.52356

> <i_epik_Tot_Q>
1

> <i_epik_Tot_abs_Q>
1

> <r_epik_Metal_State_Penalty>
0.775167

> <b_epik_Metal_Only>
0

> <s_lp_Force_Field>
OPLS_2005

> <r_lp_Energy>
19.9081

> <b_lp_Chiralities_Consistent>
1

> <s_lp_Variant>
AV-unprocessed.smi:1433-11

> <Gold.Version>
5.8.1

> <Gold.Id.Protein>
6NUR|6NUR_protein|mol2

> <Gold.PLP.Fitness>
42.0521

> <Gold.PLP.PLP>
-30.5699

> <Gold.PLP.part.hbond>
-2.0000

> <Gold.PLP.part.metal>
0.0000

> <Gold.PLP.part.buried>
-2.4598

> <Gold.PLP.part.nonpolar>
-26.1238

> <Gold.PLP.part.repulsive>
0.2609

> <Gold.PLP.ligand.clash>
0.0000

> <Gold.PLP.ligand.torsion>
0.2904

> <Gold.PLP.Chemscore.Hbond>
3.0000

> <Gold.PLP.Chemscore.CHOScore>
1.0000

> <Gold.PLP.Chemscore.Metal>
0.0000

> <Gold.Chemscore.Hbonds>
donor molecule, donor type, donor heavy atom, donor atom, acceptor molecule, acceptor atom, score
      L1  H     4    45       P1  7948  2.00
      P1  H  7989  7998       L1    10  1.00
      L1  C    13    36       P1  8028  0.92

> <Gold.PLP.Chemscore.Internal.Correction>
0.0630

> <Gold.Rescore>
     Score         DG    S(hbond)    S(metal)    S(lipo)     H(rot)  DE(clash)    DE(int)     intcor
     15.16     -15.90       1.98        0.00      73.43       1.87       0.20       0.54       ----

> <Gold.Chemscore.Fitness>
15.1607

> <Gold.Chemscore.DG>
-15.8991

> <Gold.Chemscore.ZeroCoef>
-5.4800

> <Gold.Chemscore.Hbond>
1.9773

> <Gold.Chemscore.Metal>
0.0000

> <Gold.Chemscore.Lipo>
73.4287

> <Gold.Chemscore.Internal_Hbond>
0.0000

> <Gold.Chemscore.DEClash>
0.2007

> <Gold.Chemscore.DEInternal>
0.5376

> <Gold.Chemscore.Rot>
1.8657

> <Gold.Chemscore.Internal.Correction>
   9.000000E+99

> <Gold.Chemscore.Hbonds>
donor molecule, donor type, donor heavy atom, donor atom, acceptor molecule, acceptor atom, score
      L1  H     4    45       P1  7948  0.95
      P1  H  7989  7998       L1    10  0.45

> <Gold.Chemscore.Hbond.Weighted>
-6.6041

> <Gold.Chemscore.Metal.Weighted>
-0.0000

> <Gold.Chemscore.Lipo.Weighted>
-8.5912

> <Gold.Chemscore.Internal_Hbond.Weighted>
0.0000

> <Gold.Chemscore.DEClash.Weighted>
0.2007

> <Gold.Chemscore.DEInternal.Weighted>
0.5376

> <Gold.Chemscore.Rot.Weighted>
4.7761

> <Gold.Chemscore.Internal.Correction.Weighted>
   9.000000E+99

> <Gold.Protein.RotatedTorsions>
[ 6907 6896 6895 6894 ] final  104.12 input  -60.11 | X-H torsion
[ 7974 7965 7964 7962 ] final   22.91 input  175.53 | X-H torsion
[ 8008 7997 7996 7995 ] final  128.46 input   59.86 | X-H torsion
[ 10167 10162 10161 10158 ] final   39.53 input  -65.29 | X-H torsion
[ 10718 10713 10712 10709 ] final  -37.81 input   66.30 | X-H torsion
[ 10763 10752 10751 10750 ] final  -92.73 input  -60.55 | X-H torsion
[ 11005 11000 10999 10996 ] final  -41.37 input  -57.11 | X-H torsion

> <Gold.Protein.ActiveResidues>
 VAL166  LYS551  ARG553  GLY616  TRP617  ASP618  TYR619  PRO620  LYS621  CYS622 
 ASP623  PHE694  ASN695  SER759  ASP760  ASP761  ALA762  ILE779  LEU786  VAL792 
 PHE793  MET794  SER795  GLU796  ALA797  LYS798  CYS799  TRP800  GLU811  SER814 

> <Gold.Protein.RotatedAtoms>
  152.5274  133.9724  159.7767 H   0  0  0  0  0  0  0  0  0  0  0  0  # atno 6907 bound_to 6896
  150.9993  133.6064  159.2704 H   0  0  0  0  0  0  0  0  0  0  0  0  # atno 6908 bound_to 6896
  151.3178  135.0817  159.9348 H   0  0  0  0  0  0  0  0  0  0  0  0  # atno 6909 bound_to 6896
  146.2008  139.7819  142.8763 H   0  0  0  0  0  0  0  0  0  0  0  0  # atno 7974 bound_to 7965
  156.2915  140.2644  156.2439 H   0  0  0  0  0  0  0  0  0  0  0  0  # atno 8008 bound_to 7997
  154.9949  140.0388  157.2354 H   0  0  0  0  0  0  0  0  0  0  0  0  # atno 8009 bound_to 7997
  154.7653  140.2768  155.6186 H   0  0  0  0  0  0  0  0  0  0  0  0  # atno 8010 bound_to 7997
  140.3831  144.1953  150.6130 H   0  0  0  0  0  0  0  0  0  0  0  0  # atno 10167 bound_to 10162
  156.3109  130.4252  149.8051 H   0  0  0  0  0  0  0  0  0  0  0  0  # atno 10718 bound_to 10713
  154.6890  135.5220  153.8366 H   0  0  0  0  0  0  0  0  0  0  0  0  # atno 10763 bound_to 10752
  153.0618  135.6571  154.0454 H   0  0  0  0  0  0  0  0  0  0  0  0  # atno 10764 bound_to 10752
  154.0331  135.2983  155.3345 H   0  0  0  0  0  0  0  0  0  0  0  0  # atno 10765 bound_to 10752
  141.0241  133.6849  156.2447 H   0  0  0  0  0  0  0  0  0  0  0  0  # atno 11005 bound_to 11000
  145.3490  141.0303  143.3349 LP  0  0  0  0  0  0  0  0  0  0  0  0  # atno 17320 bound_to 7965
  144.8679  139.5080  143.6781 LP  0  0  0  0  0  0  0  0  0  0  0  0  # atno 17321 bound_to 7965
  140.4917  143.2345  151.8808 LP  0  0  0  0  0  0  0  0  0  0  0  0  # atno 17342 bound_to 10162
  139.4794  144.5158  151.8870 LP  0  0  0  0  0  0  0  0  0  0  0  0  # atno 17343 bound_to 10162
  156.5395  130.8293  151.3264 LP  0  0  0  0  0  0  0  0  0  0  0  0  # atno 17370 bound_to 10713
  157.7391  130.9825  150.2290 LP  0  0  0  0  0  0  0  0  0  0  0  0  # atno 17371 bound_to 10713
  140.6522  134.5055  157.5578 LP  0  0  0  0  0  0  0  0  0  0  0  0  # atno 17394 bound_to 11000
  139.9164  134.8237  156.1351 LP  0  0  0  0  0  0  0  0  0  0  0  0  # atno 17395 bound_to 11000

$$$$
