AV-unprocessed.smi:1284|AV-procd|sdf|5364|dock6
  -GOLD-   22720 4503D 1   1.00000     0.00000
 Structure written by MMmdl.
 39 41  0  0  0  0  0  0  0  0  1 V2000
  150.7932  137.2996  157.4155 N   0  0  0  0  0  0  0  0  0  0  0  0
  151.5733  137.0036  156.3724 C   0  0  0  0  0  0  0  0  0  0  0  0
  151.8992  135.8486  156.1072 O   0  0  0  0  0  0  0  0  0  0  0  0
  152.0512  138.1708  155.5010 C   0  0  0  0  0  0  0  0  0  0  0  0
  150.8506  138.9188  154.9824 C   0  0  0  0  0  0  0  0  0  0  0  0
  149.9840  138.3512  154.1390 N   0  0  0  0  0  0  0  0  0  0  0  0
  149.0566  139.3513  153.9283 C   0  0  0  0  0  0  0  0  0  0  0  0
  147.8826  139.3628  153.1416 C   0  0  0  0  0  0  0  0  0  0  0  0
  147.0758  140.5178  153.0805 C   0  0  0  0  0  0  0  0  0  0  0  0
  147.4321  141.6753  153.8017 C   0  0  0  0  0  0  0  0  0  0  0  0
  148.5999  141.6855  154.5881 C   0  0  0  0  0  0  0  0  0  0  0  0
  149.4012  140.5288  154.6482 C   0  0  0  0  0  0  0  0  0  0  0  0
  150.5817  140.2098  155.3148 N   0  0  0  0  0  0  0  0  0  0  0  0
  151.3362  141.1076  156.1817 C   0  0  0  0  0  0  0  0  0  0  0  0
  150.4281  142.0206  157.0294 C   0  0  1  0  0  0  0  0  0  0  0  0
  149.3925  141.2290  157.5741 O   0  0  0  0  0  0  0  0  0  0  0  0
  151.2051  142.7736  158.1009 C   0  0  0  0  0  0  0  0  0  0  0  0
  151.3580  144.1738  158.0047 C   0  0  0  0  0  0  0  0  0  0  0  0
  152.1013  144.8754  158.9730 C   0  0  0  0  0  0  0  0  0  0  0  0
  152.6956  144.1816  160.0443 C   0  0  0  0  0  0  0  0  0  0  0  0
  152.5465  142.7852  160.1464 C   0  0  0  0  0  0  0  0  0  0  0  0
  151.8041  142.0827  159.1775 C   0  0  0  0  0  0  0  0  0  0  0  0
  150.4655  136.5611  158.0212 H   0  0  0  0  0  0  0  0  0  0  0  0
  150.5420  138.2594  157.6024 H   0  0  0  0  0  0  0  0  0  0  0  0
  152.7068  138.8104  156.0888 H   0  0  0  0  0  0  0  0  0  0  0  0
  152.6370  137.8060  154.6561 H   0  0  0  0  0  0  0  0  0  0  0  0
  147.6014  138.4808  152.5859 H   0  0  0  0  0  0  0  0  0  0  0  0
  146.1794  140.5153  152.4779 H   0  0  0  0  0  0  0  0  0  0  0  0
  146.8086  142.5558  153.7511 H   0  0  0  0  0  0  0  0  0  0  0  0
  148.8718  142.5708  155.1432 H   0  0  0  0  0  0  0  0  0  0  0  0
  151.9912  140.5121  156.8176 H   0  0  0  0  0  0  0  0  0  0  0  0
  152.0024  141.7114  155.5643 H   0  0  0  0  0  0  0  0  0  0  0  0
  149.9417  142.7467  156.3798 H   0  0  0  0  0  0  0  0  0  0  0  0
  149.4755  140.3526  157.2302 H   0  0  0  0  0  0  0  0  0  0  0  0
  150.9151  144.7138  157.1809 H   0  0  0  0  0  0  0  0  0  0  0  0
  152.2186  145.9460  158.8914 H   0  0  0  0  0  0  0  0  0  0  0  0
  153.2670  144.7200  160.7859 H   0  0  0  0  0  0  0  0  0  0  0  0
  153.0050  142.2517  160.9659 H   0  0  0  0  0  0  0  0  0  0  0  0
  151.7047  141.0102  159.2583 H   0  0  0  0  0  0  0  0  0  0  0  0
  1  2  1  0  0  0  0
  1 23  1  0  0  0  0
  1 24  1  0  0  0  0
  2  3  2  0  0  0  0
  2  4  1  0  0  0  0
  4  5  1  0  0  0  0
  4 25  1  0  0  0  0
  4 26  1  0  0  0  0
  5 13  1  0  0  0  0
  5  6  2  0  0  0  0
  6  7  1  0  0  0  0
  7 12  2  0  0  0  0
  7  8  1  0  0  0  0
  8  9  2  0  0  0  0
  8 27  1  0  0  0  0
  9 10  1  0  0  0  0
  9 28  1  0  0  0  0
 10 11  2  0  0  0  0
 10 29  1  0  0  0  0
 11 12  1  0  0  0  0
 11 30  1  0  0  0  0
 12 13  1  0  0  0  0
 13 14  1  0  0  0  0
 14 15  1  0  0  0  0
 14 31  1  0  0  0  0
 14 32  1  0  0  0  0
 15 16  1  0  0  0  0
 15 17  1  0  0  0  0
 15 33  1  0  0  0  0
 16 34  1  0  0  0  0
 17 22  1  0  0  0  0
 17 18  2  0  0  0  0
 18 19  1  0  0  0  0
 18 35  1  0  0  0  0
 19 20  2  0  0  0  0
 19 36  1  0  0  0  0
 20 21  1  0  0  0  0
 20 37  1  0  0  0  0
 21 22  2  0  0  0  0
 21 38  1  0  0  0  0
 22 39  1  0  0  0  0
M  END
> <s_m_source_file>
AV-unprocessed.smi

> <i_m_source_file_index>
1284

> <i_lp_mmshare_version>
43012

> <i_f3d_flags>
0

> <s_epik_input>
W2NIXTFbY0hdW2NIXVtjSF1jKGMxMiluKGMobjIpW0NIMl1DKD1PKVtOSDJdKVtDSDJdW0NASF0oW09IXSljM1tjSF1bY0hdW2NIXVtjSF1bY0hdMw==

> <s_epik_cmdline>
J2VwaWtfcHl0aG9uJywgJy1waCcsICc3LjAnLCAnLXRuJywgJzgnLCAnLW1hJywgJzIwMCcsICctbWV0YWxfYmluZGluZycsICctaW1hZScsICc8aW5maWxlLm1hZT4nLCAnLW9tYWUnLCAnPG91dGZpbGUubWFlPic=

> <r_epik_Ionization_Penalty>
0.0366899

> <r_epik_Ionization_Penalty_Charging>
0

> <r_epik_Ionization_Penalty_Neutral>
0.0366899

> <r_epik_State_Penalty>
0.0306642

> <r_epik_Charging_Adjusted_Penalty>
0.0306642

> <i_epik_Tot_Q>
0

> <i_epik_Tot_abs_Q>
0

> <r_epik_Metal_State_Penalty>
0.028853

> <b_epik_Metal_Only>
0

> <s_lp_Force_Field>
OPLS_2005

> <r_lp_Energy>
12.7879

> <b_lp_Chiralities_Consistent>
1

> <s_lp_Variant>
AV-unprocessed.smi:1284-2

> <Gold.Version>
5.8.1

> <Gold.Id.Protein>
6NUR|6NUR_protein|mol2

> <Gold.PLP.Fitness>
48.0784

> <Gold.PLP.PLP>
-46.0874

> <Gold.PLP.part.hbond>
-1.0000

> <Gold.PLP.part.metal>
0.0000

> <Gold.PLP.part.buried>
0.6048

> <Gold.PLP.part.nonpolar>
-44.9515

> <Gold.PLP.part.repulsive>
0.3112

> <Gold.PLP.ligand.clash>
0.0000

> <Gold.PLP.ligand.torsion>
0.5173

> <Gold.PLP.Chemscore.Hbond>
1.0000

> <Gold.PLP.Chemscore.CHOScore>
0.0000

> <Gold.PLP.Chemscore.Metal>
0.0000

> <Gold.Chemscore.Hbonds>
donor molecule, donor type, donor heavy atom, donor atom, acceptor molecule, acceptor atom, score
      P1  H 10752 10765       L1     3  1.00

> <Gold.PLP.Chemscore.Internal.Correction>
0.0256

> <Gold.Rescore>
     Score         DG    S(hbond)    S(metal)    S(lipo)     H(rot)  DE(clash)    DE(int)     intcor
     15.12     -16.69       0.99        0.00     130.07       2.86       1.25       0.31       ----

> <Gold.Chemscore.Fitness>
15.1245

> <Gold.Chemscore.DG>
-16.6894

> <Gold.Chemscore.ZeroCoef>
-5.4800

> <Gold.Chemscore.Hbond>
0.9923

> <Gold.Chemscore.Metal>
0.0000

> <Gold.Chemscore.Lipo>
130.0716

> <Gold.Chemscore.Internal_Hbond>
0.0000

> <Gold.Chemscore.DEClash>
1.2528

> <Gold.Chemscore.DEInternal>
0.3121

> <Gold.Chemscore.Rot>
2.8606

> <Gold.Chemscore.Internal.Correction>
   9.000000E+99

> <Gold.Chemscore.Hbonds>
donor molecule, donor type, donor heavy atom, donor atom, acceptor molecule, acceptor atom, score
      P1  H 10752 10765       L1     3  0.98

> <Gold.Chemscore.Hbond.Weighted>
-3.3141

> <Gold.Chemscore.Metal.Weighted>
-0.0000

> <Gold.Chemscore.Lipo.Weighted>
-15.2184

> <Gold.Chemscore.Internal_Hbond.Weighted>
0.0000

> <Gold.Chemscore.DEClash.Weighted>
1.2528

> <Gold.Chemscore.DEInternal.Weighted>
0.3121

> <Gold.Chemscore.Rot.Weighted>
7.3231

> <Gold.Chemscore.Internal.Correction.Weighted>
   9.000000E+99

> <Gold.Protein.RotatedTorsions>
[ 6907 6896 6895 6894 ] final   66.97 input  -60.11 | X-H torsion
[ 7974 7965 7964 7962 ] final  112.92 input  175.53 | X-H torsion
[ 8008 7997 7996 7995 ] final -140.56 input   59.86 | X-H torsion
[ 10167 10162 10161 10158 ] final  -56.17 input  -65.29 | X-H torsion
[ 10718 10713 10712 10709 ] final  -62.40 input   66.30 | X-H torsion
[ 10763 10752 10751 10750 ] final -162.53 input  -60.55 | X-H torsion
[ 11005 11000 10999 10996 ] final  154.51 input  -57.11 | X-H torsion

> <Gold.Protein.ActiveResidues>
 VAL166  LYS551  ARG553  GLY616  TRP617  ASP618  TYR619  PRO620  LYS621  CYS622 
 ASP623  PHE694  ASN695  SER759  ASP760  ASP761  ALA762  ILE779  LEU786  VAL792 
 PHE793  MET794  SER795  GLU796  ALA797  LYS798  CYS799  TRP800  GLU811  SER814 

> <Gold.Protein.RotatedAtoms>
  152.4519  134.5375  159.9828 H   0  0  0  0  0  0  0  0  0  0  0  0  # atno 6907 bound_to 6896
  151.5445  133.3421  159.2949 H   0  0  0  0  0  0  0  0  0  0  0  0  # atno 6908 bound_to 6896
  150.8451  134.7788  159.7027 H   0  0  0  0  0  0  0  0  0  0  0  0  # atno 6909 bound_to 6896
  145.2234  139.2852  143.4206 H   0  0  0  0  0  0  0  0  0  0  0  0  # atno 7974 bound_to 7965
  155.4633  140.0547  157.2988 H   0  0  0  0  0  0  0  0  0  0  0  0  # atno 8008 bound_to 7997
  154.4728  140.2048  155.9906 H   0  0  0  0  0  0  0  0  0  0  0  0  # atno 8009 bound_to 7997
  156.1084  140.3208  155.8043 H   0  0  0  0  0  0  0  0  0  0  0  0  # atno 8010 bound_to 7997
  140.6332  143.2469  151.5186 H   0  0  0  0  0  0  0  0  0  0  0  0  # atno 10167 bound_to 10162
  156.0858  130.4208  150.1130 H   0  0  0  0  0  0  0  0  0  0  0  0  # atno 10718 bound_to 10713
  154.7205  135.3025  154.9054 H   0  0  0  0  0  0  0  0  0  0  0  0  # atno 10763 bound_to 10752
  153.9927  135.6716  153.4759 H   0  0  0  0  0  0  0  0  0  0  0  0  # atno 10764 bound_to 10752
  153.0830  135.4999  154.8458 H   0  0  0  0  0  0  0  0  0  0  0  0  # atno 10765 bound_to 10752
  140.1495  134.8684  157.2437 H   0  0  0  0  0  0  0  0  0  0  0  0  # atno 11005 bound_to 11000
  146.3370  140.2547  142.8600 LP  0  0  0  0  0  0  0  0  0  0  0  0  # atno 17320 bound_to 7965
  144.9744  140.8399  143.5435 LP  0  0  0  0  0  0  0  0  0  0  0  0  # atno 17321 bound_to 7965
  139.5544  144.2312  152.1587 LP  0  0  0  0  0  0  0  0  0  0  0  0  # atno 17342 bound_to 10162
  140.1561  144.5069  150.6659 LP  0  0  0  0  0  0  0  0  0  0  0  0  # atno 17343 bound_to 10162
  156.9151  130.9664  151.3557 LP  0  0  0  0  0  0  0  0  0  0  0  0  # atno 17370 bound_to 10713
  157.5991  130.8499  149.8775 LP  0  0  0  0  0  0  0  0  0  0  0  0  # atno 17371 bound_to 10713
  140.2622  134.3558  155.7403 LP  0  0  0  0  0  0  0  0  0  0  0  0  # atno 17394 bound_to 11000
  141.2197  133.7375  156.9096 LP  0  0  0  0  0  0  0  0  0  0  0  0  # atno 17395 bound_to 11000

$$$$
