AV-unprocessed.smi:906|AV-procd|sdf|4101|dock1
  -GOLD-   22720 1593D 1   1.00000     0.00000
 Structure written by MMmdl.
 47 48  0  0  0  0  0  0  0  0  1 V2000
  151.2228  145.2672  158.6710 C   0  0  0  0  0  0  0  0  0  0  0  0
  151.9972  144.3015  159.5434 C   0  0  0  0  0  0  0  0  0  0  0  0
  151.9971  144.4387  160.9475 C   0  0  0  0  0  0  0  0  0  0  0  0
  152.7288  143.5096  161.7120 C   0  0  0  0  0  0  0  0  0  0  0  0
  153.4288  142.4826  161.0465 C   0  0  0  0  0  0  0  0  0  0  0  0
  154.2255  141.4530  161.8230 C   0  0  0  0  0  0  0  0  0  0  0  0
  154.7486  140.3255  160.9185 C   0  0  0  0  0  0  0  0  0  0  0  0
  154.3553  139.0136  161.4183 N   0  0  0  0  0  0  0  0  0  0  0  0
  154.6117  138.5436  162.6511 C   0  0  0  0  0  0  0  0  0  0  0  0
  155.2146  139.2106  163.4933 O   0  0  0  0  0  0  0  0  0  0  0  0
  154.1186  137.3047  162.8991 N   0  0  0  0  0  0  0  0  0  0  0  0
  153.9203  136.2231  161.9232 C   0  0  0  0  0  0  0  0  0  0  0  0
  154.9599  135.1177  162.1909 C   0  0  0  0  0  0  0  0  0  0  0  0
  154.8187  134.6079  163.5605 N   0  0  0  0  0  0  0  0  0  0  0  0
  155.6814  133.4379  163.7997 C   0  0  1  0  0  0  0  0  0  0  0  0
  157.1857  133.7780  163.8871 C   0  0  0  0  0  0  0  0  0  0  0  0
  155.1974  132.5994  165.0070 C   0  0  0  0  0  0  0  0  0  0  0  0
  153.8947  132.3374  164.8958 F   0  0  0  0  0  0  0  0  0  0  0  0
  155.8513  131.4378  165.0194 F   0  0  0  0  0  0  0  0  0  0  0  0
  155.4194  133.2126  166.1695 F   0  0  0  0  0  0  0  0  0  0  0  0
  154.9552  135.6938  164.5412 C   0  0  0  0  0  0  0  0  0  0  0  0
  153.9147  136.7943  164.2578 C   0  0  0  0  0  0  0  0  0  0  0  0
  153.3630  142.4334  159.6380 C   0  0  0  0  0  0  0  0  0  0  0  0
  152.6641  143.3199  158.8968 N   0  0  0  0  0  0  0  0  0  0  0  0
  151.0358  146.2045  159.1959 H   0  0  0  0  0  0  0  0  0  0  0  0
  150.2625  144.8332  158.3913 H   0  0  0  0  0  0  0  0  0  0  0  0
  151.7760  145.4957  157.7594 H   0  0  0  0  0  0  0  0  0  0  0  0
  151.4488  145.2350  161.4292 H   0  0  0  0  0  0  0  0  0  0  0  0
  152.7486  143.5838  162.7895 H   0  0  0  0  0  0  0  0  0  0  0  0
  155.0557  141.9546  162.3223 H   0  0  0  0  0  0  0  0  0  0  0  0
  153.5970  141.0391  162.6128 H   0  0  0  0  0  0  0  0  0  0  0  0
  154.3440  140.4380  159.9122 H   0  0  0  0  0  0  0  0  0  0  0  0
  155.8344  140.3813  160.8246 H   0  0  0  0  0  0  0  0  0  0  0  0
  153.8435  138.4183  160.7835 H   0  0  0  0  0  0  0  0  0  0  0  0
  152.9107  135.8231  162.0298 H   0  0  0  0  0  0  0  0  0  0  0  0
  153.9965  136.5453  160.8850 H   0  0  0  0  0  0  0  0  0  0  0  0
  154.8115  134.3058  161.4783 H   0  0  0  0  0  0  0  0  0  0  0  0
  155.9644  135.5095  162.0291 H   0  0  0  0  0  0  0  0  0  0  0  0
  155.5513  132.7908  162.9310 H   0  0  0  0  0  0  0  0  0  0  0  0
  157.7795  132.8664  163.9527 H   0  0  0  0  0  0  0  0  0  0  0  0
  157.4192  134.3744  164.7689 H   0  0  0  0  0  0  0  0  0  0  0  0
  157.5368  134.3216  163.0110 H   0  0  0  0  0  0  0  0  0  0  0  0
  154.7986  135.3196  165.5508 H   0  0  0  0  0  0  0  0  0  0  0  0
  155.9583  136.1201  164.5043 H   0  0  0  0  0  0  0  0  0  0  0  0
  153.9907  137.5756  165.0152 H   0  0  0  0  0  0  0  0  0  0  0  0
  152.9042  136.3925  164.3480 H   0  0  0  0  0  0  0  0  0  0  0  0
  153.8818  141.6602  159.0904 H   0  0  0  0  0  0  0  0  0  0  0  0
  1  2  1  0  0  0  0
  1 25  1  0  0  0  0
  1 26  1  0  0  0  0
  1 27  1  0  0  0  0
  2 24  1  0  0  0  0
  2  3  2  0  0  0  0
  3  4  1  0  0  0  0
  3 28  1  0  0  0  0
  4  5  2  0  0  0  0
  4 29  1  0  0  0  0
  5  6  1  0  0  0  0
  5 23  1  0  0  0  0
  6  7  1  0  0  0  0
  6 30  1  0  0  0  0
  6 31  1  0  0  0  0
  7  8  1  0  0  0  0
  7 32  1  0  0  0  0
  7 33  1  0  0  0  0
  8  9  1  0  0  0  0
  8 34  1  0  0  0  0
  9 10  2  0  0  0  0
  9 11  1  0  0  0  0
 11 22  1  0  0  0  0
 11 12  1  0  0  0  0
 12 13  1  0  0  0  0
 12 35  1  0  0  0  0
 12 36  1  0  0  0  0
 13 14  1  0  0  0  0
 13 37  1  0  0  0  0
 13 38  1  0  0  0  0
 14 15  1  0  0  0  0
 14 21  1  0  0  0  0
 15 16  1  0  0  0  0
 15 17  1  0  0  0  0
 15 39  1  0  0  0  0
 16 40  1  0  0  0  0
 16 41  1  0  0  0  0
 16 42  1  0  0  0  0
 17 18  1  0  0  0  0
 17 19  1  0  0  0  0
 17 20  1  0  0  0  0
 21 22  1  0  0  0  0
 21 43  1  0  0  0  0
 21 44  1  0  0  0  0
 22 45  1  0  0  0  0
 22 46  1  0  0  0  0
 23 24  2  0  0  0  0
 23 47  1  0  0  0  0
M  END
> <s_m_source_file>
AV-unprocessed.smi

> <i_m_source_file_index>
906

> <i_lp_mmshare_version>
43012

> <i_f3d_flags>
0

> <s_epik_input>
W0NIM11jMVtjSF1bY0hdYyhbY0hdbjEpW0NIMl1bQ0gyXVtOSF1DKD1PKU4yW0NIMl1bQ0gyXU4oW0NASF0oW0NIM10pQyhGKShGKUYpW0NIMl1bQ0gyXTI=

> <s_epik_cmdline>
J2VwaWtfcHl0aG9uJywgJy1waCcsICc3LjAnLCAnLXRuJywgJzgnLCAnLW1hJywgJzIwMCcsICctbWV0YWxfYmluZGluZycsICctaW1hZScsICc8aW5maWxlLm1hZT4nLCAnLW9tYWUnLCAnPG91dGZpbGUubWFlPic=

> <r_epik_Ionization_Penalty>
0.0782886

> <r_epik_Ionization_Penalty_Charging>
0

> <r_epik_Ionization_Penalty_Neutral>
0.0782886

> <r_epik_State_Penalty>
0.0661423

> <r_epik_Charging_Adjusted_Penalty>
0.0661423

> <i_epik_Tot_Q>
0

> <i_epik_Tot_abs_Q>
0

> <r_epik_Metal_State_Penalty>
0.060629

> <b_epik_Metal_Only>
0

> <s_lp_Force_Field>
OPLS_2005

> <r_lp_Energy>
47.1211

> <b_lp_Chiralities_Consistent>
1

> <s_lp_Variant>
AV-unprocessed.smi:906-2

> <Gold.Version>
5.8.1

> <Gold.Id.Protein>
6NUR|6NUR_protein|mol2

> <Gold.PLP.Fitness>
47.9868

> <Gold.PLP.PLP>
-49.1543

> <Gold.PLP.part.hbond>
0.0000

> <Gold.PLP.part.metal>
0.0000

> <Gold.PLP.part.buried>
-3.7014

> <Gold.PLP.part.nonpolar>
-43.9387

> <Gold.PLP.part.repulsive>
0.0174

> <Gold.PLP.ligand.clash>
0.0000

> <Gold.PLP.ligand.torsion>
0.9553

> <Gold.PLP.Chemscore.Hbond>
0.0000

> <Gold.PLP.Chemscore.CHOScore>
0.0000

> <Gold.PLP.Chemscore.Metal>
0.0000

> <Gold.PLP.Chemscore.Internal.Correction>
0.7431

> <Gold.Rescore>
     Score         DG    S(hbond)    S(metal)    S(lipo)     H(rot)  DE(clash)    DE(int)     intcor
     15.24     -16.45       0.00        0.00     128.46       1.58       0.10       1.11       ----

> <Gold.Chemscore.Fitness>
15.2401

> <Gold.Chemscore.DG>
-16.4549

> <Gold.Chemscore.ZeroCoef>
-5.4800

> <Gold.Chemscore.Hbond>
0.0000

> <Gold.Chemscore.Metal>
0.0000

> <Gold.Chemscore.Lipo>
128.4638

> <Gold.Chemscore.Internal_Hbond>
0.0000

> <Gold.Chemscore.DEClash>
0.1019

> <Gold.Chemscore.DEInternal>
1.1128

> <Gold.Chemscore.Rot>
1.5841

> <Gold.Chemscore.Internal.Correction>
   9.000000E+99

> <Gold.Chemscore.Hbond.Weighted>
-0.0000

> <Gold.Chemscore.Metal.Weighted>
-0.0000

> <Gold.Chemscore.Lipo.Weighted>
-15.0303

> <Gold.Chemscore.Internal_Hbond.Weighted>
0.0000

> <Gold.Chemscore.DEClash.Weighted>
0.1019

> <Gold.Chemscore.DEInternal.Weighted>
1.1128

> <Gold.Chemscore.Rot.Weighted>
4.0554

> <Gold.Chemscore.Internal.Correction.Weighted>
   9.000000E+99

> <Gold.Protein.RotatedTorsions>
[ 6907 6896 6895 6894 ] final -178.55 input  -60.11 | X-H torsion
[ 7974 7965 7964 7962 ] final  -51.81 input  175.53 | X-H torsion
[ 8008 7997 7996 7995 ] final    6.42 input   59.86 | X-H torsion
[ 10167 10162 10161 10158 ] final  162.01 input  -65.29 | X-H torsion
[ 10718 10713 10712 10709 ] final  151.54 input   66.30 | X-H torsion
[ 10763 10752 10751 10750 ] final  132.02 input  -60.55 | X-H torsion
[ 11005 11000 10999 10996 ] final   65.26 input  -57.11 | X-H torsion

> <Gold.Protein.ActiveResidues>
 VAL166  LYS551  ARG553  GLY616  TRP617  ASP618  TYR619  PRO620  LYS621  CYS622 
 ASP623  PHE694  ASN695  SER759  ASP760  ASP761  ALA762  ILE779  LEU786  VAL792 
 PHE793  MET794  SER795  GLU796  ALA797  LYS798  CYS799  TRP800  GLU811  SER814 

> <Gold.Protein.RotatedAtoms>
  151.6390  133.3327  159.3125 H   0  0  0  0  0  0  0  0  0  0  0  0  # atno 6907 bound_to 6896
  150.8017  134.7119  159.6618 H   0  0  0  0  0  0  0  0  0  0  0  0  # atno 6908 bound_to 6896
  152.4110  134.6128  160.0082 H   0  0  0  0  0  0  0  0  0  0  0  0  # atno 6909 bound_to 6896
  145.9148  140.7884  142.9677 H   0  0  0  0  0  0  0  0  0  0  0  0  # atno 7974 bound_to 7965
  154.7408  140.2748  155.6375 H   0  0  0  0  0  0  0  0  0  0  0  0  # atno 8008 bound_to 7997
  156.2873  140.2697  156.2061 H   0  0  0  0  0  0  0  0  0  0  0  0  # atno 8009 bound_to 7997
  155.0261  140.0371  157.2446 H   0  0  0  0  0  0  0  0  0  0  0  0  # atno 8010 bound_to 7997
  139.4855  144.4479  151.8867 H   0  0  0  0  0  0  0  0  0  0  0  0  # atno 10167 bound_to 10162
  157.2693  131.0814  151.1611 H   0  0  0  0  0  0  0  0  0  0  0  0  # atno 10718 bound_to 10713
  153.7839  135.3164  155.3369 H   0  0  0  0  0  0  0  0  0  0  0  0  # atno 10763 bound_to 10752
  154.8151  135.4641  154.0624 H   0  0  0  0  0  0  0  0  0  0  0  0  # atno 10764 bound_to 10752
  153.1922  135.6910  153.8424 H   0  0  0  0  0  0  0  0  0  0  0  0  # atno 10765 bound_to 10752
  139.9906  134.6598  156.0098 H   0  0  0  0  0  0  0  0  0  0  0  0  # atno 11005 bound_to 11000
  144.6747  140.1883  143.7399 LP  0  0  0  0  0  0  0  0  0  0  0  0  # atno 17320 bound_to 7965
  145.8625  139.2230  143.1708 LP  0  0  0  0  0  0  0  0  0  0  0  0  # atno 17321 bound_to 7965
  140.3935  144.2585  150.5898 LP  0  0  0  0  0  0  0  0  0  0  0  0  # atno 17342 bound_to 10162
  140.5124  143.2287  151.8515 LP  0  0  0  0  0  0  0  0  0  0  0  0  # atno 17343 bound_to 10162
  157.3089  130.6880  149.6204 LP  0  0  0  0  0  0  0  0  0  0  0  0  # atno 17370 bound_to 10713
  155.9663  130.4369  150.5155 LP  0  0  0  0  0  0  0  0  0  0  0  0  # atno 17371 bound_to 10713
  141.1562  133.6542  156.4169 LP  0  0  0  0  0  0  0  0  0  0  0  0  # atno 17394 bound_to 11000
  140.4917  134.6569  157.5213 LP  0  0  0  0  0  0  0  0  0  0  0  0  # atno 17395 bound_to 11000

$$$$
