AV-unprocessed.smi:1824|AV-procd|sdf|7412|dock8
  -GOLD-   22720 9 93D 1   1.00000     0.00000
 Structure written by MMmdl.
 45 47  0  0  0  0  0  0  0  0  2 V2000
  146.5852  142.9179  154.0808 C   0  0  0  0  0  0  0  0  0  0  0  0
  147.2652  141.5789  153.7772 C   0  0  1  0  0  0  0  0  0  0  0  0
  148.5822  141.4077  154.5554 C   0  0  0  0  0  0  0  0  0  0  0  0
  149.1850  140.1004  154.3266 N   0  0  0  0  0  0  0  0  0  0  0  0
  150.4603  139.9802  155.0351 C   0  0  0  0  0  0  0  0  0  0  0  0
  150.4163  140.3272  156.5367 C   0  0  1  0  0  0  0  0  0  0  0  0
  150.1513  139.1418  157.2605 O   0  0  0  0  0  0  0  0  0  0  0  0
  151.7482  140.9348  157.0165 C   0  0  0  0  0  0  0  0  0  0  0  0
  151.5589  142.0885  157.9078 N   0  0  0  0  0  0  0  0  0  0  0  0
  150.8423  143.2280  157.7091 C   0  0  0  0  0  0  0  0  0  0  0  0
  150.9751  143.9977  158.8246 N   0  3  0  0  0  0  0  0  0  0  0  0
  151.7877  143.3402  159.7508 C   0  0  0  0  0  0  0  0  0  0  0  0
  152.2105  143.7180  161.0211 C   0  0  0  0  0  0  0  0  0  0  0  0
  153.0382  142.8086  161.7117 C   0  0  0  0  0  0  0  0  0  0  0  0
  153.4793  143.1273  162.9516 F   0  0  0  0  0  0  0  0  0  0  0  0
  153.4133  141.5757  161.1373 C   0  0  0  0  0  0  0  0  0  0  0  0
  154.2073  140.7304  161.8362 F   0  0  0  0  0  0  0  0  0  0  0  0
  152.9784  141.2040  159.8480 C   0  0  0  0  0  0  0  0  0  0  0  0
  152.1641  142.1106  159.1703 C   0  0  0  0  0  0  0  0  0  0  0  0
  148.2249  139.0664  154.7105 C   0  0  0  0  0  0  0  0  0  0  0  0
  146.8743  139.2088  153.9804 C   0  0  2  0  0  0  0  0  0  0  0  0
  146.9378  138.7909  152.5015 C   0  0  0  0  0  0  0  0  0  0  0  0
  146.3637  140.5336  154.1363 O   0  0  0  0  0  0  0  0  0  0  0  0
  147.2289  143.7554  153.8105 H   0  0  0  0  0  0  0  0  0  0  0  0
  146.3455  143.0078  155.1406 H   0  0  0  0  0  0  0  0  0  0  0  0
  145.6560  143.0184  153.5195 H   0  0  0  0  0  0  0  0  0  0  0  0
  147.4659  141.5319  152.7065 H   0  0  0  0  0  0  0  0  0  0  0  0
  149.2780  142.1919  154.2548 H   0  0  0  0  0  0  0  0  0  0  0  0
  148.3980  141.5476  155.6220 H   0  0  0  0  0  0  0  0  0  0  0  0
  150.8335  138.9594  154.9379 H   0  0  0  0  0  0  0  0  0  0  0  0
  151.2007  140.6111  154.5408 H   0  0  0  0  0  0  0  0  0  0  0  0
  149.6218  141.0416  156.7476 H   0  0  0  0  0  0  0  0  0  0  0  0
  150.3347  138.4048  156.6972 H   0  0  0  0  0  0  0  0  0  0  0  0
  152.3699  140.1898  157.5134 H   0  0  0  0  0  0  0  0  0  0  0  0
  152.3229  141.2869  156.1590 H   0  0  0  0  0  0  0  0  0  0  0  0
  150.2713  143.4766  156.8261 H   0  0  0  0  0  0  0  0  0  0  0  0
  151.9240  144.6596  161.4657 H   0  0  0  0  0  0  0  0  0  0  0  0
  153.2672  140.2547  159.4223 H   0  0  0  0  0  0  0  0  0  0  0  0
  148.6244  138.0730  154.5128 H   0  0  0  0  0  0  0  0  0  0  0  0
  148.0497  139.1180  155.7862 H   0  0  0  0  0  0  0  0  0  0  0  0
  146.1584  138.5462  154.4672 H   0  0  0  0  0  0  0  0  0  0  0  0
  147.2121  137.7400  152.4076 H   0  0  0  0  0  0  0  0  0  0  0  0
  147.6732  139.3697  151.9431 H   0  0  0  0  0  0  0  0  0  0  0  0
  145.9700  138.9240  152.0178 H   0  0  0  0  0  0  0  0  0  0  0  0
  150.5409  144.9043  158.9421 H   0  0  0  0  0  0  0  0  0  0  0  0
  1  2  1  0  0  0  0
  1 24  1  0  0  0  0
  1 25  1  0  0  0  0
  1 26  1  0  0  0  0
  2 23  1  0  0  0  0
  2  3  1  0  0  0  0
  2 27  1  0  0  0  0
  3  4  1  0  0  0  0
  3 28  1  0  0  0  0
  3 29  1  0  0  0  0
  4  5  1  0  0  0  0
  4 20  1  0  0  0  0
  5  6  1  0  0  0  0
  5 30  1  0  0  0  0
  5 31  1  0  0  0  0
  6  7  1  0  0  0  0
  6  8  1  0  0  0  0
  6 32  1  0  0  0  0
  7 33  1  0  0  0  0
  8  9  1  0  0  0  0
  8 34  1  0  0  0  0
  8 35  1  0  0  0  0
  9 19  1  0  0  0  0
  9 10  1  0  0  0  0
 10 11  2  0  0  0  0
 10 36  1  0  0  0  0
 11 12  1  0  0  0  0
 11 45  1  0  0  0  0
 12 19  2  0  0  0  0
 12 13  1  0  0  0  0
 13 14  2  0  0  0  0
 13 37  1  0  0  0  0
 14 15  1  0  0  0  0
 14 16  1  0  0  0  0
 16 17  1  0  0  0  0
 16 18  2  0  0  0  0
 18 19  1  0  0  0  0
 18 38  1  0  0  0  0
 20 21  1  0  0  0  0
 20 39  1  0  0  0  0
 20 40  1  0  0  0  0
 21 22  1  0  0  0  0
 21 23  1  0  0  0  0
 21 41  1  0  0  0  0
 22 42  1  0  0  0  0
 22 43  1  0  0  0  0
 22 44  1  0  0  0  0
M  CHG  1  11   1
M  END
> <s_m_source_file>
AV-unprocessed.smi

> <i_m_source_file_index>
1824

> <i_lp_mmshare_version>
43012

> <i_f3d_flags>
0

> <s_epik_input>
W0NIM11bQ0BASF0xW0NIMl1OKFtDSDJdW0NASF0oTzEpW0NIM10pW0NIMl1bQ0BIXShbT0hdKVtDSDJdbihbY0hdbjIpYyhjMjMpW2NIXWMoRiljKEYpW2NIXTM=

> <s_epik_cmdline>
J2VwaWtfcHl0aG9uJywgJy1waCcsICc3LjAnLCAnLXRuJywgJzgnLCAnLW1hJywgJzIwMCcsICctbWV0YWxfYmluZGluZycsICctaW1hZScsICc8aW5maWxlLm1hZT4nLCAnLW9tYWUnLCAnPG91dGZpbGUubWFlPic=

> <r_epik_Ionization_Penalty>
2.58709

> <r_epik_Ionization_Penalty_Charging>
2.37273

> <r_epik_Ionization_Penalty_Neutral>
0.214359

> <r_epik_State_Penalty>
2.71799

> <r_epik_Charging_Adjusted_Penalty>
5.09071

> <i_epik_Tot_Q>
1

> <i_epik_Tot_abs_Q>
1

> <r_epik_Metal_State_Penalty>
6.80217

> <b_epik_Metal_Only>
0

> <s_lp_Force_Field>
OPLS_2005

> <r_lp_Energy>
35.189

> <b_lp_Chiralities_Consistent>
1

> <s_lp_Variant>
AV-unprocessed.smi:1824-20

> <Gold.Version>
5.8.1

> <Gold.Id.Protein>
6NUR|6NUR_protein|mol2

> <Gold.PLP.Fitness>
50.5670

> <Gold.PLP.PLP>
-49.7376

> <Gold.PLP.part.hbond>
0.0000

> <Gold.PLP.part.metal>
0.0000

> <Gold.PLP.part.buried>
-4.8035

> <Gold.PLP.part.nonpolar>
-45.0364

> <Gold.PLP.part.repulsive>
0.3336

> <Gold.PLP.ligand.clash>
0.0000

> <Gold.PLP.ligand.torsion>
1.0902

> <Gold.PLP.Chemscore.Hbond>
0.0000

> <Gold.PLP.Chemscore.CHOScore>
1.0000

> <Gold.PLP.Chemscore.Metal>
0.0000

> <Gold.Chemscore.Hbonds>
donor molecule, donor type, donor heavy atom, donor atom, acceptor molecule, acceptor atom, score
      L1  C    10    36       P1  8028  1.00

> <Gold.PLP.Chemscore.Internal.Correction>
0.0098

> <Gold.Rescore>
     Score         DG    S(hbond)    S(metal)    S(lipo)     H(rot)  DE(clash)    DE(int)     intcor
     11.99     -13.21       0.00        0.00     116.83       2.32       0.12       1.10       ----

> <Gold.Chemscore.Fitness>
11.9884

> <Gold.Chemscore.DG>
-13.2070

> <Gold.Chemscore.ZeroCoef>
-5.4800

> <Gold.Chemscore.Hbond>
0.0000

> <Gold.Chemscore.Metal>
0.0000

> <Gold.Chemscore.Lipo>
116.8262

> <Gold.Chemscore.Internal_Hbond>
0.0000

> <Gold.Chemscore.DEClash>
0.1226

> <Gold.Chemscore.DEInternal>
1.0960

> <Gold.Chemscore.Rot>
2.3210

> <Gold.Chemscore.Internal.Correction>
   9.000000E+99

> <Gold.Chemscore.Hbond.Weighted>
-0.0000

> <Gold.Chemscore.Metal.Weighted>
-0.0000

> <Gold.Chemscore.Lipo.Weighted>
-13.6687

> <Gold.Chemscore.Internal_Hbond.Weighted>
0.0000

> <Gold.Chemscore.DEClash.Weighted>
0.1226

> <Gold.Chemscore.DEInternal.Weighted>
1.0960

> <Gold.Chemscore.Rot.Weighted>
5.9416

> <Gold.Chemscore.Internal.Correction.Weighted>
   9.000000E+99

> <Gold.Protein.RotatedTorsions>
[ 6907 6896 6895 6894 ] final  148.89 input  -60.11 | X-H torsion
[ 7974 7965 7964 7962 ] final   96.43 input  175.53 | X-H torsion
[ 8008 7997 7996 7995 ] final    6.49 input   59.86 | X-H torsion
[ 10167 10162 10161 10158 ] final  -90.91 input  -65.29 | X-H torsion
[ 10718 10713 10712 10709 ] final  140.61 input   66.30 | X-H torsion
[ 10763 10752 10751 10750 ] final  -78.34 input  -60.55 | X-H torsion
[ 11005 11000 10999 10996 ] final   94.38 input  -57.11 | X-H torsion

> <Gold.Protein.ActiveResidues>
 VAL166  LYS551  ARG553  GLY616  TRP617  ASP618  TYR619  PRO620  LYS621  CYS622 
 ASP623  PHE694  ASN695  SER759  ASP760  ASP761  ALA762  ILE779  LEU786  VAL792 
 PHE793  MET794  SER795  GLU796  ALA797  LYS798  CYS799  TRP800  GLU811  SER814 

> <Gold.Protein.RotatedAtoms>
  152.1355  133.4432  159.4740 H   0  0  0  0  0  0  0  0  0  0  0  0  # atno 6907 bound_to 6896
  150.6881  134.2369  159.4466 H   0  0  0  0  0  0  0  0  0  0  0  0  # atno 6908 bound_to 6896
  152.0256  134.9797  160.0622 H   0  0  0  0  0  0  0  0  0  0  0  0  # atno 6909 bound_to 6896
  145.4389  139.2303  143.3103 H   0  0  0  0  0  0  0  0  0  0  0  0  # atno 7974 bound_to 7965
  154.7417  140.2750  155.6367 H   0  0  0  0  0  0  0  0  0  0  0  0  # atno 8008 bound_to 7997
  156.2875  140.2696  156.2072 H   0  0  0  0  0  0  0  0  0  0  0  0  # atno 8009 bound_to 7997
  155.0250  140.0371  157.2442 H   0  0  0  0  0  0  0  0  0  0  0  0  # atno 8010 bound_to 7997
  140.3501  143.2895  151.9735 H   0  0  0  0  0  0  0  0  0  0  0  0  # atno 10167 bound_to 10162
  157.4014  131.1017  151.0548 H   0  0  0  0  0  0  0  0  0  0  0  0  # atno 10718 bound_to 10713
  154.5246  135.5733  153.6708 H   0  0  0  0  0  0  0  0  0  0  0  0  # atno 10763 bound_to 10752
  152.9925  135.6190  154.2710 H   0  0  0  0  0  0  0  0  0  0  0  0  # atno 10764 bound_to 10752
  154.2633  135.2855  155.2749 H   0  0  0  0  0  0  0  0  0  0  0  0  # atno 10765 bound_to 10752
  139.8799  134.8842  156.3855 H   0  0  0  0  0  0  0  0  0  0  0  0  # atno 11005 bound_to 11000
  146.2567  140.5135  142.8870 LP  0  0  0  0  0  0  0  0  0  0  0  0  # atno 17320 bound_to 7965
  144.8134  140.6426  143.6400 LP  0  0  0  0  0  0  0  0  0  0  0  0  # atno 17321 bound_to 7965
  139.4827  144.6083  151.7481 LP  0  0  0  0  0  0  0  0  0  0  0  0  # atno 17342 bound_to 10162
  140.5227  144.0854  150.6027 LP  0  0  0  0  0  0  0  0  0  0  0  0  # atno 17343 bound_to 10162
  157.1546  130.6199  149.5592 LP  0  0  0  0  0  0  0  0  0  0  0  0  # atno 17370 bound_to 10713
  155.9824  130.4838  150.6880 LP  0  0  0  0  0  0  0  0  0  0  0  0  # atno 17371 bound_to 10713
  140.9369  133.7541  156.0096 LP  0  0  0  0  0  0  0  0  0  0  0  0  # atno 17394 bound_to 11000
  140.8265  134.3228  157.5364 LP  0  0  0  0  0  0  0  0  0  0  0  0  # atno 17395 bound_to 11000

$$$$
