AV-unprocessed.smi:1417|AV-procd|sdf|5768|dock5
  -GOLD-   22720 5413D 1   1.00000     0.00000
 Structure written by MMmdl.
 38 39  0  0  0  0  0  0  0  0  2 V2000
  152.6488  143.3413  161.6928 C   0  0  0  0  0  0  0  0  0  0  0  0
  153.1330  142.2848  160.7594 C   0  0  0  0  0  0  0  0  0  0  0  0
  152.5363  141.6119  159.7313 C   0  0  0  0  0  0  0  0  0  0  0  0
  153.5619  140.7397  159.2745 C   0  0  0  0  0  0  0  0  0  0  0  0
  153.4626  139.8710  158.2564 N   0  5  0  0  0  0  0  0  0  0  0  0
  152.3130  139.7807  157.5482 C   0  0  0  0  0  0  0  0  0  0  0  0
  151.4095  138.9596  157.7236 O   0  0  0  0  0  0  0  0  0  0  0  0
  152.2029  140.6998  156.5776 N   0  0  0  0  0  0  0  0  0  0  0  0
  151.0759  140.8492  155.6605 C   0  0  0  0  0  0  0  0  0  0  0  0
  149.8450  141.4134  156.3876 C   0  0  0  0  0  0  0  0  0  0  0  0
  148.6179  141.4521  155.4589 C   0  0  0  0  0  0  0  0  0  0  0  0
  148.3194  140.1114  154.9319 N   0  0  0  0  0  0  0  0  0  0  0  0
  147.1122  140.0982  154.0739 C   0  0  0  0  0  0  0  0  0  0  0  0
  146.5346  138.7045  153.8032 C   0  0  0  0  0  0  0  0  0  0  0  0
  145.3328  138.6475  153.2236 N   0  0  0  0  0  0  0  0  0  0  0  0
  147.1620  137.6960  154.1192 O   0  0  0  0  0  0  0  0  0  0  0  0
  149.4602  139.6034  154.1623 C   0  0  0  0  0  0  0  0  0  0  0  0
  150.7103  139.4893  155.0516 C   0  0  0  0  0  0  0  0  0  0  0  0
  154.6877  140.8846  159.9535 N   0  0  0  0  0  0  0  0  0  0  0  0
  154.4189  141.8688  160.9123 O   0  0  0  0  0  0  0  0  0  0  0  0
  152.3580  144.2367  161.1436 H   0  0  0  0  0  0  0  0  0  0  0  0
  153.4232  143.6202  162.4079 H   0  0  0  0  0  0  0  0  0  0  0  0
  151.7821  142.9914  162.2536 H   0  0  0  0  0  0  0  0  0  0  0  0
  151.5261  141.7209  159.3665 H   0  0  0  0  0  0  0  0  0  0  0  0
  152.9681  141.3493  156.4688 H   0  0  0  0  0  0  0  0  0  0  0  0
  151.3542  141.5238  154.8484 H   0  0  0  0  0  0  0  0  0  0  0  0
  149.6181  140.8035  157.2635 H   0  0  0  0  0  0  0  0  0  0  0  0
  150.0555  142.4174  156.7578 H   0  0  0  0  0  0  0  0  0  0  0  0
  147.7760  141.8426  156.0303 H   0  0  0  0  0  0  0  0  0  0  0  0
  148.7902  142.1489  154.6367 H   0  0  0  0  0  0  0  0  0  0  0  0
  146.3364  140.7234  154.5202 H   0  0  0  0  0  0  0  0  0  0  0  0
  147.3482  140.5437  153.1063 H   0  0  0  0  0  0  0  0  0  0  0  0
  144.9097  137.7505  153.0343 H   0  0  0  0  0  0  0  0  0  0  0  0
  144.8490  139.5010  152.9853 H   0  0  0  0  0  0  0  0  0  0  0  0
  149.2252  138.6170  153.7601 H   0  0  0  0  0  0  0  0  0  0  0  0
  149.6632  140.2532  153.3092 H   0  0  0  0  0  0  0  0  0  0  0  0
  151.5460  139.1068  154.4645 H   0  0  0  0  0  0  0  0  0  0  0  0
  150.5286  138.7605  155.8433 H   0  0  0  0  0  0  0  0  0  0  0  0
  1  2  1  0  0  0  0
  1 21  1  0  0  0  0
  1 22  1  0  0  0  0
  1 23  1  0  0  0  0
  2 20  1  0  0  0  0
  2  3  2  0  0  0  0
  3  4  1  0  0  0  0
  3 24  1  0  0  0  0
  4  5  1  0  0  0  0
  4 19  2  0  0  0  0
  5  6  1  0  0  0  0
  6  7  2  0  0  0  0
  6  8  1  0  0  0  0
  8  9  1  0  0  0  0
  8 25  1  0  0  0  0
  9 18  1  0  0  0  0
  9 10  1  0  0  0  0
  9 26  1  0  0  0  0
 10 11  1  0  0  0  0
 10 27  1  0  0  0  0
 10 28  1  0  0  0  0
 11 12  1  0  0  0  0
 11 29  1  0  0  0  0
 11 30  1  0  0  0  0
 12 13  1  0  0  0  0
 12 17  1  0  0  0  0
 13 14  1  0  0  0  0
 13 31  1  0  0  0  0
 13 32  1  0  0  0  0
 14 15  1  0  0  0  0
 14 16  2  0  0  0  0
 15 33  1  0  0  0  0
 15 34  1  0  0  0  0
 17 18  1  0  0  0  0
 17 35  1  0  0  0  0
 17 36  1  0  0  0  0
 18 37  1  0  0  0  0
 18 38  1  0  0  0  0
 19 20  1  0  0  0  0
M  CHG  1   5  -1
M  END
> <s_m_source_file>
AV-unprocessed.smi

> <i_m_source_file_index>
1417

> <i_lp_mmshare_version>
43012

> <i_f3d_flags>
0

> <s_epik_input>
W0NIM11jMVtjSF1jKG5vMSlbTkhdQyg9TylbTkhdW0NIXTJbQ0gyXVtDSDJdTihbQ0gyXVtDSDJdMilbQ0gyXUMoPU8pW05IMl0=

> <s_epik_cmdline>
J2VwaWtfcHl0aG9uJywgJy1waCcsICc3LjAnLCAnLXRuJywgJzgnLCAnLW1hJywgJzIwMCcsICctbWV0YWxfYmluZGluZycsICctaW1hZScsICc8aW5maWxlLm1hZT4nLCAnLW9tYWUnLCAnPG91dGZpbGUubWFlPic=

> <r_epik_Ionization_Penalty>
6.76533

> <r_epik_Ionization_Penalty_Charging>
6.59228

> <r_epik_Ionization_Penalty_Neutral>
0.17305

> <r_epik_State_Penalty>
6.73737

> <r_epik_Charging_Adjusted_Penalty>
13.3296

> <i_epik_Tot_Q>
-1

> <i_epik_Tot_abs_Q>
1

> <r_epik_Metal_State_Penalty>
2.67929

> <b_epik_Metal_Only>
1

> <s_lp_Force_Field>
OPLS_2005

> <r_lp_Energy>
4.40981

> <b_lp_Chiralities_Consistent>
1

> <s_lp_Variant>
AV-unprocessed.smi:1417-4

> <Gold.Version>
5.8.1

> <Gold.Id.Protein>
6NUR|6NUR_protein|mol2

> <Gold.PLP.Fitness>
37.9387

> <Gold.PLP.PLP>
-31.0603

> <Gold.PLP.part.hbond>
-2.8346

> <Gold.PLP.part.metal>
0.0000

> <Gold.PLP.part.buried>
-2.0219

> <Gold.PLP.part.nonpolar>
-26.4699

> <Gold.PLP.part.repulsive>
0.6208

> <Gold.PLP.ligand.clash>
0.0000

> <Gold.PLP.ligand.torsion>
1.0661

> <Gold.PLP.Chemscore.Hbond>
2.9920

> <Gold.PLP.Chemscore.CHOScore>
0.0000

> <Gold.PLP.Chemscore.Metal>
0.0000

> <Gold.Chemscore.Hbonds>
donor molecule, donor type, donor heavy atom, donor atom, acceptor molecule, acceptor atom, score
      L1  H    15    34       P1 10175  1.00
      P1  H  7997  8009       L1     5  2.00

> <Gold.PLP.Chemscore.Internal.Correction>
0.0345

> <Gold.Rescore>
     Score         DG    S(hbond)    S(metal)    S(lipo)     H(rot)  DE(clash)    DE(int)     intcor
      9.75     -13.32       1.41        0.00      70.44       2.00       0.80       2.77       ----

> <Gold.Chemscore.Fitness>
9.7482

> <Gold.Chemscore.DG>
-13.3187

> <Gold.Chemscore.ZeroCoef>
-5.4800

> <Gold.Chemscore.Hbond>
1.4102

> <Gold.Chemscore.Metal>
0.0000

> <Gold.Chemscore.Lipo>
70.4429

> <Gold.Chemscore.Internal_Hbond>
0.0000

> <Gold.Chemscore.DEClash>
0.8003

> <Gold.Chemscore.DEInternal>
2.7701

> <Gold.Chemscore.Rot>
1.9973

> <Gold.Chemscore.Internal.Correction>
   9.000000E+99

> <Gold.Chemscore.Hbonds>
donor molecule, donor type, donor heavy atom, donor atom, acceptor molecule, acceptor atom, score
      L1  H    15    34       P1 10175  0.98
      P1  H  7997  8009       L1     5  0.44

> <Gold.Chemscore.Hbond.Weighted>
-4.7099

> <Gold.Chemscore.Metal.Weighted>
-0.0000

> <Gold.Chemscore.Lipo.Weighted>
-8.2418

> <Gold.Chemscore.Internal_Hbond.Weighted>
0.0000

> <Gold.Chemscore.DEClash.Weighted>
0.8003

> <Gold.Chemscore.DEInternal.Weighted>
2.7701

> <Gold.Chemscore.Rot.Weighted>
5.1131

> <Gold.Chemscore.Internal.Correction.Weighted>
   9.000000E+99

> <Gold.Protein.RotatedTorsions>
[ 6907 6896 6895 6894 ] final  114.33 input  -60.11 | X-H torsion
[ 7974 7965 7964 7962 ] final  -33.95 input  175.53 | X-H torsion
[ 8008 7997 7996 7995 ] final  149.02 input   59.86 | X-H torsion
[ 10167 10162 10161 10158 ] final  128.28 input  -65.29 | X-H torsion
[ 10718 10713 10712 10709 ] final  -93.60 input   66.30 | X-H torsion
[ 10763 10752 10751 10750 ] final   97.16 input  -60.55 | X-H torsion
[ 11005 11000 10999 10996 ] final  109.95 input  -57.11 | X-H torsion

> <Gold.Protein.ActiveResidues>
 VAL166  LYS551  ARG553  GLY616  TRP617  ASP618  TYR619  PRO620  LYS621  CYS622 
 ASP623  PHE694  ASN695  SER759  ASP760  ASP761  ALA762  ILE779  LEU786  VAL792 
 PHE793  MET794  SER795  GLU796  ALA797  LYS798  CYS799  TRP800  GLU811  SER814 

> <Gold.Protein.RotatedAtoms>
  152.4808  133.8251  159.7073 H   0  0  0  0  0  0  0  0  0  0  0  0  # atno 6907 bound_to 6896
  150.8857  133.7301  159.2925 H   0  0  0  0  0  0  0  0  0  0  0  0  # atno 6908 bound_to 6896
  151.4790  135.1054  159.9825 H   0  0  0  0  0  0  0  0  0  0  0  0  # atno 6909 bound_to 6896
  146.0869  140.5978  142.8882 H   0  0  0  0  0  0  0  0  0  0  0  0  # atno 7974 bound_to 7965
  156.2770  140.2113  156.5791 H   0  0  0  0  0  0  0  0  0  0  0  0  # atno 8008 bound_to 7997
  154.7073  140.0515  157.0539 H   0  0  0  0  0  0  0  0  0  0  0  0  # atno 8009 bound_to 7997
  155.0653  140.3171  155.4650 H   0  0  0  0  0  0  0  0  0  0  0  0  # atno 8010 bound_to 7997
  139.5535  144.6831  151.4252 H   0  0  0  0  0  0  0  0  0  0  0  0  # atno 10167 bound_to 10162
  156.0015  130.5033  150.5801 H   0  0  0  0  0  0  0  0  0  0  0  0  # atno 10718 bound_to 10713
  153.2736  135.4193  155.1011 H   0  0  0  0  0  0  0  0  0  0  0  0  # atno 10763 bound_to 10752
  154.8464  135.3478  154.6210 H   0  0  0  0  0  0  0  0  0  0  0  0  # atno 10764 bound_to 10752
  153.6630  135.7047  153.5229 H   0  0  0  0  0  0  0  0  0  0  0  0  # atno 10765 bound_to 10752
  139.8872  134.9471  156.6204 H   0  0  0  0  0  0  0  0  0  0  0  0  # atno 11005 bound_to 11000
  144.7332  140.4733  143.6922 LP  0  0  0  0  0  0  0  0  0  0  0  0  # atno 17320 bound_to 7965
  145.6112  139.1513  143.3075 LP  0  0  0  0  0  0  0  0  0  0  0  0  # atno 17321 bound_to 7965
  140.6803  143.8097  150.7113 LP  0  0  0  0  0  0  0  0  0  0  0  0  # atno 17342 bound_to 10162
  140.1548  143.4326  152.2107 LP  0  0  0  0  0  0  0  0  0  0  0  0  # atno 17343 bound_to 10162
  157.3682  131.0761  151.1580 LP  0  0  0  0  0  0  0  0  0  0  0  0  # atno 17370 bound_to 10713
  157.2342  130.6539  149.5862 LP  0  0  0  0  0  0  0  0  0  0  0  0  # atno 17371 bound_to 10713
  140.7743  133.8712  155.8517 LP  0  0  0  0  0  0  0  0  0  0  0  0  # atno 17394 bound_to 11000
  140.9815  134.1399  157.4490 LP  0  0  0  0  0  0  0  0  0  0  0  0  # atno 17395 bound_to 11000

$$$$
