AV-unprocessed.smi:3164|AV-procd|sdf|12080|dock2
  -GOLD-   2272017503D 1   1.00000     0.00000
 Structure written by MMmdl.
 40 41  0  0  0  0  0  0  0  0  3 V2000
  145.7570  132.2778  152.6923 C   0  0  0  0  0  0  0  0  0  0  0  0
  144.4835  133.0346  152.6905 N   0  3  2  0  0  0  0  0  0  0  0  0
  143.7157  132.9082  151.4291 C   0  0  0  0  0  0  0  0  0  0  0  0
  144.2885  133.8219  150.3301 C   0  0  0  0  0  0  0  0  0  0  0  0
  144.3322  135.1643  150.8004 O   0  0  0  0  0  0  0  0  0  0  0  0
  145.1835  135.3193  151.9317 C   0  0  1  0  0  0  0  0  0  0  0  0
  145.2180  136.8097  152.3039 C   0  0  0  0  0  0  0  0  0  0  0  0
  146.0901  137.5766  151.3910 N   0  3  0  0  0  0  0  0  0  0  0  0
  146.6224  138.8214  151.9787 C   0  0  0  0  0  0  0  0  0  0  0  0
  147.0212  138.6154  153.4465 C   0  0  0  0  0  0  0  0  0  0  0  0
  147.9999  139.6709  153.9248 C   0  0  0  0  0  0  0  0  0  0  0  0
  149.3237  139.3241  154.2690 C   0  0  0  0  0  0  0  0  0  0  0  0
  150.1875  140.3414  154.7192 C   0  0  0  0  0  0  0  0  0  0  0  0
  149.6961  141.6578  154.8085 C   0  0  0  0  0  0  0  0  0  0  0  0
  148.3577  141.9007  154.4407 C   0  0  0  0  0  0  0  0  0  0  0  0
  147.5208  140.9323  154.0086 N   0  0  0  0  0  0  0  0  0  0  0  0
  144.6305  134.4559  153.0878 C   0  0  0  0  0  0  0  0  0  0  0  0
  146.4593  132.6584  151.9507 H   0  0  0  0  0  0  0  0  0  0  0  0
  145.5752  131.2244  152.4768 H   0  0  0  0  0  0  0  0  0  0  0  0
  146.2338  132.3344  153.6713 H   0  0  0  0  0  0  0  0  0  0  0  0
  143.6933  131.8689  151.0983 H   0  0  0  0  0  0  0  0  0  0  0  0
  142.6814  133.1914  151.6290 H   0  0  0  0  0  0  0  0  0  0  0  0
  145.2834  133.4974  150.0211 H   0  0  0  0  0  0  0  0  0  0  0  0
  143.6554  133.7802  149.4436 H   0  0  0  0  0  0  0  0  0  0  0  0
  146.1944  134.9963  151.6775 H   0  0  0  0  0  0  0  0  0  0  0  0
  144.2104  137.2279  152.2875 H   0  0  0  0  0  0  0  0  0  0  0  0
  145.5963  136.9242  153.3206 H   0  0  0  0  0  0  0  0  0  0  0  0
  146.8693  136.9943  151.1188 H   0  0  0  0  0  0  0  0  0  0  0  0
  147.4855  139.1507  151.3985 H   0  0  0  0  0  0  0  0  0  0  0  0
  145.8668  139.6052  151.9063 H   0  0  0  0  0  0  0  0  0  0  0  0
  146.1344  138.6345  154.0818 H   0  0  0  0  0  0  0  0  0  0  0  0
  147.4721  137.6307  153.5789 H   0  0  0  0  0  0  0  0  0  0  0  0
  149.6724  138.3045  154.1931 H   0  0  0  0  0  0  0  0  0  0  0  0
  151.2079  140.1157  154.9920 H   0  0  0  0  0  0  0  0  0  0  0  0
  150.3297  142.4629  155.1504 H   0  0  0  0  0  0  0  0  0  0  0  0
  147.9484  142.8986  154.4965 H   0  0  0  0  0  0  0  0  0  0  0  0
  143.6476  134.8277  153.3813 H   0  0  0  0  0  0  0  0  0  0  0  0
  145.2658  134.5342  153.9710 H   0  0  0  0  0  0  0  0  0  0  0  0
  145.5597  137.8151  150.5647 H   0  0  0  0  0  0  0  0  0  0  0  0
  143.9205  132.5975  153.4070 H   0  0  0  0  0  0  0  0  0  0  0  0
  1  2  1  0  0  0  0
  1 18  1  0  0  0  0
  1 19  1  0  0  0  0
  1 20  1  0  0  0  0
  2 17  1  0  0  0  0
  2  3  1  0  0  0  0
  2 40  1  0  0  0  0
  3  4  1  0  0  0  0
  3 21  1  0  0  0  0
  3 22  1  0  0  0  0
  4  5  1  0  0  0  0
  4 23  1  0  0  0  0
  4 24  1  0  0  0  0
  5  6  1  0  0  0  0
  6  7  1  0  0  0  0
  6 17  1  0  0  0  0
  6 25  1  0  0  0  0
  7  8  1  0  0  0  0
  7 26  1  0  0  0  0
  7 27  1  0  0  0  0
  8  9  1  0  0  0  0
  8 28  1  0  0  0  0
  8 39  1  0  0  0  0
  9 10  1  0  0  0  0
  9 29  1  0  0  0  0
  9 30  1  0  0  0  0
 10 11  1  0  0  0  0
 10 31  1  0  0  0  0
 10 32  1  0  0  0  0
 11 16  1  0  0  0  0
 11 12  2  0  0  0  0
 12 13  1  0  0  0  0
 12 33  1  0  0  0  0
 13 14  2  0  0  0  0
 13 34  1  0  0  0  0
 14 15  1  0  0  0  0
 14 35  1  0  0  0  0
 15 16  2  0  0  0  0
 15 36  1  0  0  0  0
 17 37  1  0  0  0  0
 17 38  1  0  0  0  0
M  CHG  1   2   1
M  CHG  1   8   1
M  END
> <s_m_source_file>
AV-unprocessed.smi

> <i_m_source_file_index>
3164

> <i_lp_mmshare_version>
43012

> <i_f3d_flags>
0

> <s_epik_input>
W0NIM11OMVtDSDJdW0NIMl1PW0NASF0oW0NIMl0xKVtDSDJdW05IXVtDSDJdW0NIMl1jMltjSF1bY0hdW2NIXVtjSF1uMg==

> <s_epik_cmdline>
J2VwaWtfcHl0aG9uJywgJy1waCcsICc3LjAnLCAnLXRuJywgJzgnLCAnLW1hJywgJzIwMCcsICctbWV0YWxfYmluZGluZycsICctaW1hZScsICc8aW5maWxlLm1hZT4nLCAnLW9tYWUnLCAnPG91dGZpbGUubWFlPic=

> <r_epik_Ionization_Penalty>
0.294944

> <r_epik_Ionization_Penalty_Charging>
0.29381

> <r_epik_Ionization_Penalty_Neutral>
0.00113372

> <r_epik_State_Penalty>
0.271365

> <r_epik_Charging_Adjusted_Penalty>
0.565175

> <i_epik_Tot_Q>
2

> <i_epik_Tot_abs_Q>
2

> <r_epik_Metal_State_Penalty>
0.271365

> <b_epik_Metal_Only>
0

> <s_lp_Force_Field>
OPLS_2005

> <r_lp_Energy>
22.4199

> <b_lp_Chiralities_Consistent>
1

> <s_lp_Variant>
AV-unprocessed.smi:3164-2

> <Gold.Version>
5.8.1

> <Gold.Id.Protein>
6NUR|6NUR_protein|mol2

> <Gold.PLP.Fitness>
45.3009

> <Gold.PLP.PLP>
-31.4480

> <Gold.PLP.part.hbond>
-2.8803

> <Gold.PLP.part.metal>
0.0000

> <Gold.PLP.part.buried>
-1.9809

> <Gold.PLP.part.nonpolar>
-26.3589

> <Gold.PLP.part.repulsive>
0.4628

> <Gold.PLP.ligand.clash>
0.0000

> <Gold.PLP.ligand.torsion>
0.5090

> <Gold.PLP.Chemscore.Hbond>
3.9528

> <Gold.PLP.Chemscore.CHOScore>
1.0000

> <Gold.PLP.Chemscore.Metal>
0.0000

> <Gold.Chemscore.Hbonds>
donor molecule, donor type, donor heavy atom, donor atom, acceptor molecule, acceptor atom, score
      L1  H     2    40       P1 10957  2.00
      L1  H     8    28       P1  7948  0.56
      L1  H     8    39       P1 10171  0.96
      L1  C    15    36       P1  8028  0.95

> <Gold.PLP.Chemscore.Internal.Correction>
0.0126

> <Gold.Rescore>
     Score         DG    S(hbond)    S(metal)    S(lipo)     H(rot)  DE(clash)    DE(int)     intcor
     16.41     -17.09       1.91        0.00      80.77       1.65       0.10       0.59       ----

> <Gold.Chemscore.Fitness>
16.4082

> <Gold.Chemscore.DG>
-17.0919

> <Gold.Chemscore.ZeroCoef>
-5.4800

> <Gold.Chemscore.Hbond>
1.9084

> <Gold.Chemscore.Metal>
0.0000

> <Gold.Chemscore.Lipo>
80.7712

> <Gold.Chemscore.Internal_Hbond>
0.0000

> <Gold.Chemscore.DEClash>
0.0981

> <Gold.Chemscore.DEInternal>
0.5856

> <Gold.Chemscore.Rot>
1.6454

> <Gold.Chemscore.Internal.Correction>
   9.000000E+99

> <Gold.Chemscore.Hbonds>
donor molecule, donor type, donor heavy atom, donor atom, acceptor molecule, acceptor atom, score
      L1  H     2    40       P1 10957  0.32
      L1  H     8    28       P1  7948  0.28
      L1  H     8    39       P1 10171  0.89

> <Gold.Chemscore.Hbond.Weighted>
-6.3739

> <Gold.Chemscore.Metal.Weighted>
-0.0000

> <Gold.Chemscore.Lipo.Weighted>
-9.4502

> <Gold.Chemscore.Internal_Hbond.Weighted>
0.0000

> <Gold.Chemscore.DEClash.Weighted>
0.0981

> <Gold.Chemscore.DEInternal.Weighted>
0.5856

> <Gold.Chemscore.Rot.Weighted>
4.2122

> <Gold.Chemscore.Internal.Correction.Weighted>
   9.000000E+99

> <Gold.Protein.RotatedTorsions>
[ 6907 6896 6895 6894 ] final  113.27 input  -60.11 | X-H torsion
[ 7974 7965 7964 7962 ] final  -67.90 input  175.53 | X-H torsion
[ 8008 7997 7996 7995 ] final  143.63 input   59.86 | X-H torsion
[ 10167 10162 10161 10158 ] final -178.99 input  -65.29 | X-H torsion
[ 10718 10713 10712 10709 ] final  135.42 input   66.30 | X-H torsion
[ 10763 10752 10751 10750 ] final -148.45 input  -60.55 | X-H torsion
[ 11005 11000 10999 10996 ] final -132.78 input  -57.11 | X-H torsion

> <Gold.Protein.ActiveResidues>
 VAL166  LYS551  ARG553  GLY616  TRP617  ASP618  TYR619  PRO620  LYS621  CYS622 
 ASP623  PHE694  ASN695  SER759  ASP760  ASP761  ALA762  ILE779  LEU786  VAL792 
 PHE793  MET794  SER795  GLU796  ALA797  LYS798  CYS799  TRP800  GLU811  SER814 

> <Gold.Protein.RotatedAtoms>
  152.4870  133.8399  159.7146 H   0  0  0  0  0  0  0  0  0  0  0  0  # atno 6907 bound_to 6896
  150.8965  133.7164  159.2897 H   0  0  0  0  0  0  0  0  0  0  0  0  # atno 6908 bound_to 6896
  151.4620  135.1043  159.9779 H   0  0  0  0  0  0  0  0  0  0  0  0  # atno 6909 bound_to 6896
  145.7233  140.9029  143.0619 H   0  0  0  0  0  0  0  0  0  0  0  0  # atno 7974 bound_to 7965
  156.2926  140.2257  156.4922 H   0  0  0  0  0  0  0  0  0  0  0  0  # atno 8008 bound_to 7997
  154.7762  140.0463  157.1112 H   0  0  0  0  0  0  0  0  0  0  0  0  # atno 8009 bound_to 7997
  154.9814  140.3079  155.4948 H   0  0  0  0  0  0  0  0  0  0  0  0  # atno 8010 bound_to 7997
  139.5407  144.2372  152.0889 H   0  0  0  0  0  0  0  0  0  0  0  0  # atno 10167 bound_to 10162
  157.4572  131.1070  150.9963 H   0  0  0  0  0  0  0  0  0  0  0  0  # atno 10718 bound_to 10713
  154.8232  135.3334  154.6975 H   0  0  0  0  0  0  0  0  0  0  0  0  # atno 10763 bound_to 10752
  153.7605  135.6933  153.4931 H   0  0  0  0  0  0  0  0  0  0  0  0  # atno 10764 bound_to 10752
  153.2114  135.4481  155.0333 H   0  0  0  0  0  0  0  0  0  0  0  0  # atno 10765 bound_to 10752
  140.9139  134.1532  157.4368 H   0  0  0  0  0  0  0  0  0  0  0  0  # atno 11005 bound_to 11000
  144.6911  139.9231  143.7468 LP  0  0  0  0  0  0  0  0  0  0  0  0  # atno 17320 bound_to 7965
  146.0606  139.3599  143.0584 LP  0  0  0  0  0  0  0  0  0  0  0  0  # atno 17321 bound_to 7965
  140.1849  144.4808  150.6508 LP  0  0  0  0  0  0  0  0  0  0  0  0  # atno 17342 bound_to 10162
  140.6635  143.2260  151.5799 LP  0  0  0  0  0  0  0  0  0  0  0  0  # atno 17343 bound_to 10162
  157.0773  130.5888  149.5413 LP  0  0  0  0  0  0  0  0  0  0  0  0  # atno 17370 bound_to 10713
  156.0012  130.5092  150.7671 LP  0  0  0  0  0  0  0  0  0  0  0  0  # atno 17371 bound_to 10713
  139.8762  134.9946  156.5702 LP  0  0  0  0  0  0  0  0  0  0  0  0  # atno 17394 bound_to 11000
  140.8075  133.8456  155.8780 LP  0  0  0  0  0  0  0  0  0  0  0  0  # atno 17395 bound_to 11000

$$$$
