AV-unprocessed.smi:2906|AV-procd|sdf|11163|dock10
  -GOLD-   2272016 53D 1   1.00000     0.00000
 Structure written by MMmdl.
 40 41  0  0  0  0  0  0  0  0  1 V2000
  151.2851  142.6180  156.7351 C   0  0  0  0  0  0  0  0  0  0  0  0
  150.0514  141.7015  156.7043 C   0  0  0  0  0  0  0  0  0  0  0  0
  149.9216  140.8806  155.4101 C   0  0  0  0  0  0  0  0  0  0  0  0
  150.8801  140.2225  155.0023 O   0  0  0  0  0  0  0  0  0  0  0  0
  148.7436  140.9097  154.7527 N   0  0  0  0  0  0  0  0  0  0  0  0
  147.5824  141.6669  155.2122 C   0  0  0  0  0  0  0  0  0  0  0  0
  146.4173  141.2311  154.3236 C   0  0  0  0  0  0  0  0  0  0  0  0
  147.0770  140.7262  153.0433 C   0  0  2  0  0  0  0  0  0  0  0  0
  146.2802  139.6869  152.3992 N   0  0  0  0  0  0  0  0  0  0  0  0
  146.0964  138.4524  152.8884 C   0  0  0  0  0  0  0  0  0  0  0  0
  146.5857  138.0650  153.9500 O   0  0  0  0  0  0  0  0  0  0  0  0
  145.3192  137.7162  152.0750 N   0  0  0  0  0  0  0  0  0  0  0  0
  144.8938  136.3731  152.2480 C   0  0  0  0  0  0  0  0  0  0  0  0
  145.2646  135.3577  151.4600 N   0  0  0  0  0  0  0  0  0  0  0  0
  144.6998  134.1430  151.8608 C   0  0  0  0  0  0  0  0  0  0  0  0
  145.0064  132.8900  151.0983 C   0  0  0  0  0  0  0  0  0  0  0  0
  143.7536  132.2695  150.4699 C   0  0  0  0  0  0  0  0  0  0  0  0
  143.8933  134.2586  152.9669 C   0  0  0  0  0  0  0  0  0  0  0  0
  143.8131  135.8997  153.5497 S   0  0  0  0  0  0  0  0  0  0  0  0
  148.4464  140.2085  153.5054 C   0  0  0  0  0  0  0  0  0  0  0  0
  151.3198  143.1844  157.6658 H   0  0  0  0  0  0  0  0  0  0  0  0
  151.2689  143.3356  155.9140 H   0  0  0  0  0  0  0  0  0  0  0  0
  152.2103  142.0445  156.6659 H   0  0  0  0  0  0  0  0  0  0  0  0
  150.0930  141.0167  157.5520 H   0  0  0  0  0  0  0  0  0  0  0  0
  149.1561  142.3112  156.8305 H   0  0  0  0  0  0  0  0  0  0  0  0
  147.3660  141.4873  156.2666 H   0  0  0  0  0  0  0  0  0  0  0  0
  147.7822  142.7318  155.0843 H   0  0  0  0  0  0  0  0  0  0  0  0
  145.8808  140.4189  154.8165 H   0  0  0  0  0  0  0  0  0  0  0  0
  145.7039  142.0353  154.1412 H   0  0  0  0  0  0  0  0  0  0  0  0
  147.2186  141.5709  152.3662 H   0  0  0  0  0  0  0  0  0  0  0  0
  145.8422  139.9249  151.5214 H   0  0  0  0  0  0  0  0  0  0  0  0
  144.9926  138.1690  151.2342 H   0  0  0  0  0  0  0  0  0  0  0  0
  145.7344  133.0985  150.3136 H   0  0  0  0  0  0  0  0  0  0  0  0
  145.4777  132.1592  151.7563 H   0  0  0  0  0  0  0  0  0  0  0  0
  144.0037  131.3627  149.9188 H   0  0  0  0  0  0  0  0  0  0  0  0
  143.2784  132.9620  149.7747 H   0  0  0  0  0  0  0  0  0  0  0  0
  143.0204  132.0037  151.2320 H   0  0  0  0  0  0  0  0  0  0  0  0
  143.3446  133.4789  153.4743 H   0  0  0  0  0  0  0  0  0  0  0  0
  149.2051  140.3859  152.7419 H   0  0  0  0  0  0  0  0  0  0  0  0
  148.4140  139.1364  153.7080 H   0  0  0  0  0  0  0  0  0  0  0  0
  1  2  1  0  0  0  0
  1 21  1  0  0  0  0
  1 22  1  0  0  0  0
  1 23  1  0  0  0  0
  2  3  1  0  0  0  0
  2 24  1  0  0  0  0
  2 25  1  0  0  0  0
  3  4  2  0  0  0  0
  3  5  1  0  0  0  0
  5 20  1  0  0  0  0
  5  6  1  0  0  0  0
  6  7  1  0  0  0  0
  6 26  1  0  0  0  0
  6 27  1  0  0  0  0
  7  8  1  0  0  0  0
  7 28  1  0  0  0  0
  7 29  1  0  0  0  0
  8  9  1  0  0  0  0
  8 20  1  0  0  0  0
  8 30  1  0  0  0  0
  9 10  1  0  0  0  0
  9 31  1  0  0  0  0
 10 11  2  0  0  0  0
 10 12  1  0  0  0  0
 12 13  1  0  0  0  0
 12 32  1  0  0  0  0
 13 19  1  0  0  0  0
 13 14  2  0  0  0  0
 14 15  1  0  0  0  0
 15 16  1  0  0  0  0
 15 18  2  0  0  0  0
 16 17  1  0  0  0  0
 16 33  1  0  0  0  0
 16 34  1  0  0  0  0
 17 35  1  0  0  0  0
 17 36  1  0  0  0  0
 17 37  1  0  0  0  0
 18 19  1  0  0  0  0
 18 38  1  0  0  0  0
 20 39  1  0  0  0  0
 20 40  1  0  0  0  0
M  END
> <s_m_source_file>
AV-unprocessed.smi

> <i_m_source_file_index>
2906

> <i_lp_mmshare_version>
43012

> <i_f3d_flags>
0

> <s_epik_input>
W0NIM11bQ0gyXUMoPU8pTjFbQ0gyXVtDSDJdW0NASF0oW0NIMl0xKVtOSF1DKD1PKVtOSF1jMm5jKFtjSF1zMilbQ0gyXVtDSDNd

> <s_epik_cmdline>
J2VwaWtfcHl0aG9uJywgJy1waCcsICc3LjAnLCAnLXRuJywgJzgnLCAnLW1hJywgJzIwMCcsICctbWV0YWxfYmluZGluZycsICctaW1hZScsICc8aW5maWxlLm1hZT4nLCAnLW9tYWUnLCAnPG91dGZpbGUubWFlPic=

> <r_lp_tautomer_probability>
1

> <r_epik_Ionization_Penalty>
0.000174744

> <r_epik_Ionization_Penalty_Charging>
0

> <r_epik_Ionization_Penalty_Neutral>
0.000174744

> <r_epik_State_Penalty>
-0

> <r_epik_Charging_Adjusted_Penalty>
0

> <i_epik_Tot_Q>
0

> <i_epik_Tot_abs_Q>
0

> <r_epik_Metal_State_Penalty>
0.0273865

> <b_epik_Metal_Only>
0

> <s_lp_Force_Field>
OPLS_2005

> <r_lp_Energy>
21.1229

> <b_lp_Chiralities_Consistent>
1

> <s_lp_Variant>
AV-unprocessed.smi:2906-2

> <Gold.Version>
5.8.1

> <Gold.Id.Protein>
6NUR|6NUR_protein|mol2

> <Gold.PLP.Fitness>
41.0289

> <Gold.PLP.PLP>
-33.6497

> <Gold.PLP.part.hbond>
-3.0000

> <Gold.PLP.part.metal>
0.0000

> <Gold.PLP.part.buried>
-2.8339

> <Gold.PLP.part.nonpolar>
-29.4895

> <Gold.PLP.part.repulsive>
0.5036

> <Gold.PLP.ligand.clash>
0.0000

> <Gold.PLP.ligand.torsion>
0.8162

> <Gold.PLP.Chemscore.Hbond>
2.0000

> <Gold.PLP.Chemscore.CHOScore>
1.0000

> <Gold.PLP.Chemscore.Metal>
0.0000

> <Gold.Chemscore.Hbonds>
donor molecule, donor type, donor heavy atom, donor atom, acceptor molecule, acceptor atom, score
      L1  H    12    32       P1 10171  1.00
      P1  H  7989  7998       L1     4  1.00
      L1  C    18    38       P1 10957  1.00

> <Gold.PLP.Chemscore.Internal.Correction>
0.0115

> <Gold.Rescore>
     Score         DG    S(hbond)    S(metal)    S(lipo)     H(rot)  DE(clash)    DE(int)     intcor
     13.39     -17.02       1.96        0.00      73.50       1.41       1.39       2.24       ----

> <Gold.Chemscore.Fitness>
13.3924

> <Gold.Chemscore.DG>
-17.0217

> <Gold.Chemscore.ZeroCoef>
-5.4800

> <Gold.Chemscore.Hbond>
1.9616

> <Gold.Chemscore.Metal>
0.0000

> <Gold.Chemscore.Lipo>
73.5048

> <Gold.Chemscore.Internal_Hbond>
0.0000

> <Gold.Chemscore.DEClash>
1.3886

> <Gold.Chemscore.DEInternal>
2.2407

> <Gold.Chemscore.Rot>
1.4102

> <Gold.Chemscore.Internal.Correction>
   9.000000E+99

> <Gold.Chemscore.Hbonds>
donor molecule, donor type, donor heavy atom, donor atom, acceptor molecule, acceptor atom, score
      L1  H    12    32       P1 10171  1.00
      P1  H  7989  7998       L1     4  0.88

> <Gold.Chemscore.Hbond.Weighted>
-6.5517

> <Gold.Chemscore.Metal.Weighted>
-0.0000

> <Gold.Chemscore.Lipo.Weighted>
-8.6001

> <Gold.Chemscore.Internal_Hbond.Weighted>
0.0000

> <Gold.Chemscore.DEClash.Weighted>
1.3886

> <Gold.Chemscore.DEInternal.Weighted>
2.2407

> <Gold.Chemscore.Rot.Weighted>
3.6101

> <Gold.Chemscore.Internal.Correction.Weighted>
   9.000000E+99

> <Gold.Protein.RotatedTorsions>
[ 6907 6896 6895 6894 ] final -110.83 input  -60.11 | X-H torsion
[ 7974 7965 7964 7962 ] final  163.44 input  175.53 | X-H torsion
[ 8008 7997 7996 7995 ] final   95.67 input   59.86 | X-H torsion
[ 10167 10162 10161 10158 ] final  -28.98 input  -65.29 | X-H torsion
[ 10718 10713 10712 10709 ] final   -7.86 input   66.30 | X-H torsion
[ 10763 10752 10751 10750 ] final  -91.81 input  -60.55 | X-H torsion
[ 11005 11000 10999 10996 ] final -138.56 input  -57.11 | X-H torsion

> <Gold.Protein.ActiveResidues>
 VAL166  LYS551  ARG553  GLY616  TRP617  ASP618  TYR619  PRO620  LYS621  CYS622 
 ASP623  PHE694  ASN695  SER759  ASP760  ASP761  ALA762  ILE779  LEU786  VAL792 
 PHE793  MET794  SER795  GLU796  ALA797  LYS798  CYS799  TRP800  GLU811  SER814 

> <Gold.Protein.RotatedAtoms>
  150.7650  133.9325  159.3430 H   0  0  0  0  0  0  0  0  0  0  0  0  # atno 6907 bound_to 6896
  151.7225  135.0889  160.0296 H   0  0  0  0  0  0  0  0  0  0  0  0  # atno 6908 bound_to 6896
  152.3641  133.6296  159.6073 H   0  0  0  0  0  0  0  0  0  0  0  0  # atno 6909 bound_to 6896
  144.7589  139.8183  143.6339 H   0  0  0  0  0  0  0  0  0  0  0  0  # atno 7974 bound_to 7965
  156.0714  140.3283  155.7580 H   0  0  0  0  0  0  0  0  0  0  0  0  # atno 8008 bound_to 7997
  155.5299  140.0592  157.2908 H   0  0  0  0  0  0  0  0  0  0  0  0  # atno 8009 bound_to 7997
  154.4532  140.1929  156.0474 H   0  0  0  0  0  0  0  0  0  0  0  0  # atno 8010 bound_to 7997
  140.7265  143.3965  151.1338 H   0  0  0  0  0  0  0  0  0  0  0  0  # atno 10167 bound_to 10162
  156.7110  130.5122  149.5892 H   0  0  0  0  0  0  0  0  0  0  0  0  # atno 10718 bound_to 10713
  154.6798  135.5254  153.8248 H   0  0  0  0  0  0  0  0  0  0  0  0  # atno 10763 bound_to 10752
  153.0557  135.6549  154.0593 H   0  0  0  0  0  0  0  0  0  0  0  0  # atno 10764 bound_to 10752
  154.0482  135.2971  155.3324 H   0  0  0  0  0  0  0  0  0  0  0  0  # atno 10765 bound_to 10752
  140.8604  134.2176  157.4710 H   0  0  0  0  0  0  0  0  0  0  0  0  # atno 11005 bound_to 11000
  146.1631  139.4753  142.9975 LP  0  0  0  0  0  0  0  0  0  0  0  0  # atno 17320 bound_to 7965
  145.6684  141.0223  143.1671 LP  0  0  0  0  0  0  0  0  0  0  0  0  # atno 17321 bound_to 7965
  139.7579  143.8680  152.3093 LP  0  0  0  0  0  0  0  0  0  0  0  0  # atno 17342 bound_to 10162
  139.8556  144.7143  150.9161 LP  0  0  0  0  0  0  0  0  0  0  0  0  # atno 17343 bound_to 10162
  156.1661  130.6406  151.0779 LP  0  0  0  0  0  0  0  0  0  0  0  0  # atno 17370 bound_to 10713
  157.6936  131.0802  150.7036 LP  0  0  0  0  0  0  0  0  0  0  0  0  # atno 17371 bound_to 10713
  139.8707  134.9727  156.4781 LP  0  0  0  0  0  0  0  0  0  0  0  0  # atno 17394 bound_to 11000
  140.8689  133.8003  155.9343 LP  0  0  0  0  0  0  0  0  0  0  0  0  # atno 17395 bound_to 11000

$$$$
