AV-unprocessed.smi:3240|AV-procd|sdf|12381|dock5
  -GOLD-   2272018243D 1   1.00000     0.00000
 Structure written by MMmdl.
 44 45  0  0  0  0  0  0  0  0  2 V2000
  150.7422  136.1171  155.0260 C   0  0  0  0  0  0  0  0  0  0  0  0
  150.6613  137.5947  154.7718 C   0  0  0  0  0  0  0  0  0  0  0  0
  151.7320  138.5304  154.6946 C   0  0  0  0  0  0  0  0  0  0  0  0
  151.3187  139.7647  154.4582 N   0  0  0  0  0  0  0  0  0  0  0  0
  149.9757  139.6612  154.3697 N   0  0  0  0  0  0  0  0  0  0  0  0
  149.1713  140.8461  154.1253 C   0  0  0  0  0  0  0  0  0  0  0  0
  148.5857  141.4524  155.4171 C   0  0  2  0  0  0  0  0  0  0  0  0
  147.2174  142.0977  155.1406 C   0  0  0  0  0  0  0  0  0  0  0  0
  149.5339  142.4334  155.9928 N   0  3  0  0  0  0  0  0  0  0  0  0
  150.1867  142.0236  157.2560 C   0  0  0  0  0  0  0  0  0  0  0  0
  150.9278  143.1952  157.9376 C   0  0  0  0  0  0  0  0  0  0  0  0
  151.3126  144.0978  156.9154 O   0  0  0  0  0  0  0  0  0  0  0  0
  150.0312  143.9312  158.9646 C   0  0  0  0  0  0  0  0  0  0  0  0
  150.7892  145.0095  159.7600 C   0  0  0  0  0  0  0  0  0  0  0  0
  152.0342  144.4291  160.4448 C   0  0  0  0  0  0  0  0  0  0  0  0
  152.9582  143.7570  159.4203 C   0  0  0  0  0  0  0  0  0  0  0  0
  152.2126  142.6717  158.6234 C   0  0  0  0  0  0  0  0  0  0  0  0
  149.5516  138.3638  154.5646 C   0  0  0  0  0  0  0  0  0  0  0  0
  151.7714  135.7844  155.1632 H   0  0  0  0  0  0  0  0  0  0  0  0
  150.3272  135.5436  154.1970 H   0  0  0  0  0  0  0  0  0  0  0  0
  150.1906  135.8323  155.9221 H   0  0  0  0  0  0  0  0  0  0  0  0
  152.7912  138.3498  154.8047 H   0  0  0  0  0  0  0  0  0  0  0  0
  149.7858  141.5821  153.6046 H   0  0  0  0  0  0  0  0  0  0  0  0
  148.3691  140.5699  153.4397 H   0  0  0  0  0  0  0  0  0  0  0  0
  148.4439  140.6469  156.1393 H   0  0  0  0  0  0  0  0  0  0  0  0
  146.5325  141.3784  154.6905 H   0  0  0  0  0  0  0  0  0  0  0  0
  147.3069  142.9418  154.4559 H   0  0  0  0  0  0  0  0  0  0  0  0
  146.7451  142.4572  156.0546 H   0  0  0  0  0  0  0  0  0  0  0  0
  150.2727  142.5732  155.3176 H   0  0  0  0  0  0  0  0  0  0  0  0
  149.4357  141.6221  157.9364 H   0  0  0  0  0  0  0  0  0  0  0  0
  150.8876  141.2138  157.0462 H   0  0  0  0  0  0  0  0  0  0  0  0
  150.5613  144.2684  156.3670 H   0  0  0  0  0  0  0  0  0  0  0  0
  149.1751  144.3901  158.4687 H   0  0  0  0  0  0  0  0  0  0  0  0
  149.6199  143.2048  159.6670 H   0  0  0  0  0  0  0  0  0  0  0  0
  151.0835  145.8225  159.0953 H   0  0  0  0  0  0  0  0  0  0  0  0
  150.1285  145.4498  160.5074 H   0  0  0  0  0  0  0  0  0  0  0  0
  152.5727  145.2183  160.9705 H   0  0  0  0  0  0  0  0  0  0  0  0
  151.7332  143.7029  161.2009 H   0  0  0  0  0  0  0  0  0  0  0  0
  153.3596  144.5084  158.7394 H   0  0  0  0  0  0  0  0  0  0  0  0
  153.8160  143.3168  159.9296 H   0  0  0  0  0  0  0  0  0  0  0  0
  151.9497  141.8626  159.3066 H   0  0  0  0  0  0  0  0  0  0  0  0
  152.8849  142.2333  157.8845 H   0  0  0  0  0  0  0  0  0  0  0  0
  148.5054  138.0957  154.5387 H   0  0  0  0  0  0  0  0  0  0  0  0
  149.0584  143.3130  156.1326 H   0  0  0  0  0  0  0  0  0  0  0  0
  1  2  1  0  0  0  0
  1 19  1  0  0  0  0
  1 20  1  0  0  0  0
  1 21  1  0  0  0  0
  2 18  2  0  0  0  0
  2  3  1  0  0  0  0
  3  4  2  0  0  0  0
  3 22  1  0  0  0  0
  4  5  1  0  0  0  0
  5  6  1  0  0  0  0
  5 18  1  0  0  0  0
  6  7  1  0  0  0  0
  6 23  1  0  0  0  0
  6 24  1  0  0  0  0
  7  8  1  0  0  0  0
  7  9  1  0  0  0  0
  7 25  1  0  0  0  0
  8 26  1  0  0  0  0
  8 27  1  0  0  0  0
  8 28  1  0  0  0  0
  9 10  1  0  0  0  0
  9 29  1  0  0  0  0
  9 44  1  0  0  0  0
 10 11  1  0  0  0  0
 10 30  1  0  0  0  0
 10 31  1  0  0  0  0
 11 17  1  0  0  0  0
 11 12  1  0  0  0  0
 11 13  1  0  0  0  0
 12 32  1  0  0  0  0
 13 14  1  0  0  0  0
 13 33  1  0  0  0  0
 13 34  1  0  0  0  0
 14 15  1  0  0  0  0
 14 35  1  0  0  0  0
 14 36  1  0  0  0  0
 15 16  1  0  0  0  0
 15 37  1  0  0  0  0
 15 38  1  0  0  0  0
 16 17  1  0  0  0  0
 16 39  1  0  0  0  0
 16 40  1  0  0  0  0
 17 41  1  0  0  0  0
 17 42  1  0  0  0  0
 18 43  1  0  0  0  0
M  CHG  1   9   1
M  END
> <s_m_source_file>
AV-unprocessed.smi

> <i_m_source_file_index>
3240

> <i_lp_mmshare_version>
43012

> <i_f3d_flags>
0

> <s_epik_input>
W0NIM11jMVtjSF1ubihbY0hdMSlbQ0gyXVtDQEhdKFtDSDNdKVtOSF1bQ0gyXUMyKFtPSF0pW0NIMl1bQ0gyXVtDSDJdW0NIMl1bQ0gyXTI=

> <s_epik_cmdline>
J2VwaWtfcHl0aG9uJywgJy1waCcsICc3LjAnLCAnLXRuJywgJzgnLCAnLW1hJywgJzIwMCcsICctbWV0YWxfYmluZGluZycsICctaW1hZScsICc8aW5maWxlLm1hZT4nLCAnLW9tYWUnLCAnPG91dGZpbGUubWFlPic=

> <r_lp_tautomer_probability>
1

> <r_epik_Ionization_Penalty>
0.0111573

> <r_epik_Ionization_Penalty_Charging>
0.0111472

> <r_epik_Ionization_Penalty_Neutral>
1.01652e-05

> <r_epik_State_Penalty>
0.00856328

> <r_epik_Charging_Adjusted_Penalty>
0.0197104

> <i_epik_Tot_Q>
1

> <i_epik_Tot_abs_Q>
1

> <r_epik_Metal_State_Penalty>
0.00856448

> <b_epik_Metal_Only>
0

> <s_lp_Force_Field>
OPLS_2005

> <r_lp_Energy>
16.744

> <b_lp_Chiralities_Consistent>
1

> <s_lp_Variant>
AV-unprocessed.smi:3240-1

> <Gold.Version>
5.8.1

> <Gold.Id.Protein>
6NUR|6NUR_protein|mol2

> <Gold.PLP.Fitness>
48.9314

> <Gold.PLP.PLP>
-41.0955

> <Gold.PLP.part.hbond>
-2.7863

> <Gold.PLP.part.metal>
0.0000

> <Gold.PLP.part.buried>
-3.4272

> <Gold.PLP.part.nonpolar>
-34.7847

> <Gold.PLP.part.repulsive>
0.2252

> <Gold.PLP.ligand.clash>
0.0000

> <Gold.PLP.ligand.torsion>
2.1147

> <Gold.PLP.Chemscore.Hbond>
4.0000

> <Gold.PLP.Chemscore.CHOScore>
0.0000

> <Gold.PLP.Chemscore.Metal>
0.0000

> <Gold.Chemscore.Hbonds>
donor molecule, donor type, donor heavy atom, donor atom, acceptor molecule, acceptor atom, score
      L1  H     9    44       P1  8028  1.69
      L1  H    12    32       P1  8028  1.00
      P1  H  7989  7998       L1     4  0.91

> <Gold.PLP.Chemscore.Internal.Correction>
0.0653

> <Gold.Rescore>
     Score         DG    S(hbond)    S(metal)    S(lipo)     H(rot)  DE(clash)    DE(int)     intcor
     20.48     -22.23       2.80        0.00     109.76       2.12       0.08       1.67       ----

> <Gold.Chemscore.Fitness>
20.4777

> <Gold.Chemscore.DG>
-22.2327

> <Gold.Chemscore.ZeroCoef>
-5.4800

> <Gold.Chemscore.Hbond>
2.7952

> <Gold.Chemscore.Metal>
0.0000

> <Gold.Chemscore.Lipo>
109.7622

> <Gold.Chemscore.Internal_Hbond>
0.0000

> <Gold.Chemscore.DEClash>
0.0806

> <Gold.Chemscore.DEInternal>
1.6744

> <Gold.Chemscore.Rot>
2.1193

> <Gold.Chemscore.Internal.Correction>
   9.000000E+99

> <Gold.Chemscore.Hbonds>
donor molecule, donor type, donor heavy atom, donor atom, acceptor molecule, acceptor atom, score
      L1  H     9    44       P1  8028  0.79
      L1  H    12    32       P1  8028  1.00
      P1  H  7989  7998       L1     4  0.35

> <Gold.Chemscore.Hbond.Weighted>
-9.3359

> <Gold.Chemscore.Metal.Weighted>
-0.0000

> <Gold.Chemscore.Lipo.Weighted>
-12.8422

> <Gold.Chemscore.Internal_Hbond.Weighted>
0.0000

> <Gold.Chemscore.DEClash.Weighted>
0.0806

> <Gold.Chemscore.DEInternal.Weighted>
1.6744

> <Gold.Chemscore.Rot.Weighted>
5.4254

> <Gold.Chemscore.Internal.Correction.Weighted>
   9.000000E+99

> <Gold.Protein.RotatedTorsions>
[ 6907 6896 6895 6894 ] final  135.70 input  -60.11 | X-H torsion
[ 7974 7965 7964 7962 ] final  120.95 input  175.53 | X-H torsion
[ 8008 7997 7996 7995 ] final   26.27 input   59.86 | X-H torsion
[ 10167 10162 10161 10158 ] final  -16.60 input  -65.29 | X-H torsion
[ 10718 10713 10712 10709 ] final  -47.32 input   66.30 | X-H torsion
[ 10763 10752 10751 10750 ] final  -65.74 input  -60.55 | X-H torsion
[ 11005 11000 10999 10996 ] final   30.43 input  -57.11 | X-H torsion

> <Gold.Protein.ActiveResidues>
 VAL166  LYS551  ARG553  GLY616  TRP617  ASP618  TYR619  PRO620  LYS621  CYS622 
 ASP623  PHE694  ASN695  SER759  ASP760  ASP761  ALA762  ILE779  LEU786  VAL792 
 PHE793  MET794  SER795  GLU796  ALA797  LYS798  CYS799  TRP800  GLU811  SER814 

> <Gold.Protein.RotatedAtoms>
  152.2976  133.5623  159.5597 H   0  0  0  0  0  0  0  0  0  0  0  0  # atno 6907 bound_to 6896
  150.7263  134.0339  159.3751 H   0  0  0  0  0  0  0  0  0  0  0  0  # atno 6908 bound_to 6896
  151.8240  135.0643  160.0479 H   0  0  0  0  0  0  0  0  0  0  0  0  # atno 6909 bound_to 6896
  145.1251  139.3364  143.4694 H   0  0  0  0  0  0  0  0  0  0  0  0  # atno 7974 bound_to 7965
  155.0247  140.3151  155.4780 H   0  0  0  0  0  0  0  0  0  0  0  0  # atno 8008 bound_to 7997
  156.2885  140.2191  156.5308 H   0  0  0  0  0  0  0  0  0  0  0  0  # atno 8009 bound_to 7997
  154.7422  140.0473  157.0808 H   0  0  0  0  0  0  0  0  0  0  0  0  # atno 8010 bound_to 7997
  140.7236  143.5100  150.9762 H   0  0  0  0  0  0  0  0  0  0  0  0  # atno 10167 bound_to 10162
  156.2096  130.4160  149.9133 H   0  0  0  0  0  0  0  0  0  0  0  0  # atno 10718 bound_to 10713
  154.3496  135.6139  153.5636 H   0  0  0  0  0  0  0  0  0  0  0  0  # atno 10763 bound_to 10752
  152.9799  135.5789  154.4759 H   0  0  0  0  0  0  0  0  0  0  0  0  # atno 10764 bound_to 10752
  154.4478  135.2852  155.1780 H   0  0  0  0  0  0  0  0  0  0  0  0  # atno 10765 bound_to 10752
  140.2945  134.2827  155.7768 H   0  0  0  0  0  0  0  0  0  0  0  0  # atno 11005 bound_to 11000
  146.3518  140.1226  142.8600 LP  0  0  0  0  0  0  0  0  0  0  0  0  # atno 17320 bound_to 7965
  145.0698  140.9147  143.4889 LP  0  0  0  0  0  0  0  0  0  0  0  0  # atno 17321 bound_to 7965
  139.8813  143.7069  152.3156 LP  0  0  0  0  0  0  0  0  0  0  0  0  # atno 17342 bound_to 10162
  139.7352  144.7573  151.0739 LP  0  0  0  0  0  0  0  0  0  0  0  0  # atno 17343 bound_to 10162
  156.6815  130.8860  151.3576 LP  0  0  0  0  0  0  0  0  0  0  0  0  # atno 17370 bound_to 10713
  157.7031  130.9355  150.0846 LP  0  0  0  0  0  0  0  0  0  0  0  0  # atno 17371 bound_to 10713
  141.2140  133.7606  156.9674 LP  0  0  0  0  0  0  0  0  0  0  0  0  # atno 17394 bound_to 11000
  140.1165  134.9444  157.2142 LP  0  0  0  0  0  0  0  0  0  0  0  0  # atno 17395 bound_to 11000

$$$$
