AV-unprocessed.smi:2107|AV-procd|sdf|8603|dock1
  -GOLD-   2272011343D 1   1.00000     0.00000
 Structure written by MMmdl.
 46 47  0  0  0  0  0  0  0  0  3 V2000
  157.3258  140.6446  159.4674 C   0  0  0  0  0  0  0  0  0  0  0  0
  156.7058  139.3565  160.0250 C   0  0  0  0  0  0  0  0  0  0  0  0
  155.2603  139.5213  160.2486 N   0  0  0  0  0  0  0  0  0  0  0  0
  154.8509  140.0693  161.5532 C   0  0  0  0  0  0  0  0  0  0  0  0
  153.9576  141.3053  161.3833 C   0  0  0  0  0  0  0  0  0  0  0  0
  154.1096  138.6633  159.2606 S   0  0  0  0  0  0  0  0  0  0  0  0
  154.8771  137.7509  158.3950 O   0  0  0  0  0  0  0  0  0  0  0  0
  153.1604  138.0581  160.2071 O   0  0  0  0  0  0  0  0  0  0  0  0
  153.4670  139.9423  158.4814 N   0  5  0  0  0  0  0  0  0  0  0  0
  152.0933  140.3690  158.7158 C   0  0  0  0  0  0  0  0  0  0  0  0
  151.9003  141.8573  158.3990 C   0  0  0  0  0  0  0  0  0  0  0  0
  152.7356  142.7975  159.0540 C   0  0  0  0  0  0  0  0  0  0  0  0
  152.6039  144.1732  158.7812 C   0  0  0  0  0  0  0  0  0  0  0  0
  151.6359  144.5958  157.8544 C   0  0  0  0  0  0  0  0  0  0  0  0
  150.8502  143.6843  157.2459 N   0  3  0  0  0  0  0  0  0  0  0  0
  150.9284  142.3475  157.4680 C   0  0  0  0  0  0  0  0  0  0  0  0
  150.0145  141.5338  156.7662 N   0  0  0  0  0  0  0  0  0  0  0  0
  148.6421  141.6668  157.2391 C   0  0  0  0  0  0  0  0  0  0  0  0
  147.7385  140.6353  156.5417 C   0  0  0  0  0  0  0  0  0  0  0  0
  147.8607  140.7673  155.1278 O   0  0  0  0  0  0  0  0  0  0  0  0
  149.1956  140.5423  154.6831 C   0  0  0  0  0  0  0  0  0  0  0  0
  150.1265  141.5903  155.3149 C   0  0  0  0  0  0  0  0  0  0  0  0
  158.3996  140.5253  159.3241 H   0  0  0  0  0  0  0  0  0  0  0  0
  157.1726  141.4823  160.1481 H   0  0  0  0  0  0  0  0  0  0  0  0
  156.8937  140.9157  158.5044 H   0  0  0  0  0  0  0  0  0  0  0  0
  156.8705  138.5262  159.3376 H   0  0  0  0  0  0  0  0  0  0  0  0
  157.2025  139.0856  160.9573 H   0  0  0  0  0  0  0  0  0  0  0  0
  154.3061  139.3084  162.1133 H   0  0  0  0  0  0  0  0  0  0  0  0
  155.7364  140.3089  162.1426 H   0  0  0  0  0  0  0  0  0  0  0  0
  153.6274  141.6780  162.3528 H   0  0  0  0  0  0  0  0  0  0  0  0
  153.0679  141.0688  160.7989 H   0  0  0  0  0  0  0  0  0  0  0  0
  154.4840  142.1164  160.8805 H   0  0  0  0  0  0  0  0  0  0  0  0
  151.3928  139.7806  158.1223 H   0  0  0  0  0  0  0  0  0  0  0  0
  151.7804  140.2212  159.7493 H   0  0  0  0  0  0  0  0  0  0  0  0
  153.4851  142.4861  159.7695 H   0  0  0  0  0  0  0  0  0  0  0  0
  153.2379  144.8925  159.2784 H   0  0  0  0  0  0  0  0  0  0  0  0
  151.4636  145.6275  157.5852 H   0  0  0  0  0  0  0  0  0  0  0  0
  148.6069  141.5221  158.3196 H   0  0  0  0  0  0  0  0  0  0  0  0
  148.2805  142.6757  157.0359 H   0  0  0  0  0  0  0  0  0  0  0  0
  147.9965  139.6201  156.8453 H   0  0  0  0  0  0  0  0  0  0  0  0
  146.6985  140.7952  156.8260 H   0  0  0  0  0  0  0  0  0  0  0  0
  149.5128  139.5310  154.9441 H   0  0  0  0  0  0  0  0  0  0  0  0
  149.2266  140.6170  153.5961 H   0  0  0  0  0  0  0  0  0  0  0  0
  149.8578  142.5854  154.9586 H   0  0  0  0  0  0  0  0  0  0  0  0
  151.1592  141.4052  155.0174 H   0  0  0  0  0  0  0  0  0  0  0  0
  150.1506  144.0197  156.5838 H   0  0  0  0  0  0  0  0  0  0  0  0
  1  2  1  0  0  0  0
  1 23  1  0  0  0  0
  1 24  1  0  0  0  0
  1 25  1  0  0  0  0
  2  3  1  0  0  0  0
  2 26  1  0  0  0  0
  2 27  1  0  0  0  0
  3  4  1  0  0  0  0
  3  6  1  0  0  0  0
  4  5  1  0  0  0  0
  4 28  1  0  0  0  0
  4 29  1  0  0  0  0
  5 30  1  0  0  0  0
  5 31  1  0  0  0  0
  5 32  1  0  0  0  0
  6  7  2  0  0  0  0
  6  8  2  0  0  0  0
  6  9  1  0  0  0  0
  9 10  1  0  0  0  0
 10 11  1  0  0  0  0
 10 33  1  0  0  0  0
 10 34  1  0  0  0  0
 11 16  1  0  0  0  0
 11 12  2  0  0  0  0
 12 13  1  0  0  0  0
 12 35  1  0  0  0  0
 13 14  2  0  0  0  0
 13 36  1  0  0  0  0
 14 15  1  0  0  0  0
 14 37  1  0  0  0  0
 15 16  2  0  0  0  0
 15 46  1  0  0  0  0
 16 17  1  0  0  0  0
 17 22  1  0  0  0  0
 17 18  1  0  0  0  0
 18 19  1  0  0  0  0
 18 38  1  0  0  0  0
 18 39  1  0  0  0  0
 19 20  1  0  0  0  0
 19 40  1  0  0  0  0
 19 41  1  0  0  0  0
 20 21  1  0  0  0  0
 21 22  1  0  0  0  0
 21 42  1  0  0  0  0
 21 43  1  0  0  0  0
 22 44  1  0  0  0  0
 22 45  1  0  0  0  0
M  CHG  1   9  -1
M  CHG  1  15   1
M  END
> <s_m_source_file>
AV-unprocessed.smi

> <i_m_source_file_index>
2107

> <i_lp_mmshare_version>
43012

> <i_f3d_flags>
0

> <s_epik_input>
W0NIM11bQ0gyXU4oW0NIMl1bQ0gzXSlTKD1PKSg9TylbTkhdW0NIMl1jMVtjSF1bY0hdW2NIXW5jMU4yW0NIMl1bQ0gyXU9bQ0gyXVtDSDJdMg==

> <s_epik_cmdline>
J2VwaWtfcHl0aG9uJywgJy1waCcsICc3LjAnLCAnLXRuJywgJzgnLCAnLW1hJywgJzIwMCcsICctbWV0YWxfYmluZGluZycsICctaW1hZScsICc8aW5maWxlLm1hZT4nLCAnLW9tYWUnLCAnPG91dGZpbGUubWFlPic=

> <r_lp_tautomer_probability>
0.999994

> <r_epik_Ionization_Penalty>
2.67026

> <r_epik_Ionization_Penalty_Charging>
2.67026

> <r_epik_Ionization_Penalty_Neutral>
4.07977e-08

> <r_epik_State_Penalty>
4.05768

> <r_epik_Charging_Adjusted_Penalty>
6.72795

> <i_epik_Tot_Q>
0

> <i_epik_Tot_abs_Q>
2

> <r_epik_Metal_State_Penalty>
2.91237

> <b_epik_Metal_Only>
1

> <s_lp_Force_Field>
OPLS_2005

> <r_lp_Energy>
19.7011

> <b_lp_Chiralities_Consistent>
1

> <s_lp_Variant>
AV-unprocessed.smi:2107-4

> <Gold.Version>
5.8.1

> <Gold.Id.Protein>
6NUR|6NUR_protein|mol2

> <Gold.PLP.Fitness>
50.5547

> <Gold.PLP.PLP>
-39.2545

> <Gold.PLP.part.hbond>
-2.0000

> <Gold.PLP.part.metal>
0.0000

> <Gold.PLP.part.buried>
-4.9274

> <Gold.PLP.part.nonpolar>
-32.3524

> <Gold.PLP.part.repulsive>
0.1522

> <Gold.PLP.ligand.clash>
0.0000

> <Gold.PLP.ligand.torsion>
2.1962

> <Gold.PLP.Chemscore.Hbond>
4.0000

> <Gold.PLP.Chemscore.CHOScore>
0.0000

> <Gold.PLP.Chemscore.Metal>
0.0000

> <Gold.Chemscore.Hbonds>
donor molecule, donor type, donor heavy atom, donor atom, acceptor molecule, acceptor atom, score
      L1  H    15    46       P1  8028  2.00
      P1  H  7997  8009       L1     9  2.00

> <Gold.PLP.Chemscore.Internal.Correction>
3.6926

> <Gold.Rescore>
     Score         DG    S(hbond)    S(metal)    S(lipo)     H(rot)  DE(clash)    DE(int)     intcor
     15.58     -17.89       1.66        0.00      96.31       1.72       0.04       2.27       ----

> <Gold.Chemscore.Fitness>
15.5808

> <Gold.Chemscore.DG>
-17.8948

> <Gold.Chemscore.ZeroCoef>
-5.4800

> <Gold.Chemscore.Hbond>
1.6583

> <Gold.Chemscore.Metal>
0.0000

> <Gold.Chemscore.Lipo>
96.3134

> <Gold.Chemscore.Internal_Hbond>
0.0000

> <Gold.Chemscore.DEClash>
0.0402

> <Gold.Chemscore.DEInternal>
2.2737

> <Gold.Chemscore.Rot>
1.7159

> <Gold.Chemscore.Internal.Correction>
   9.000000E+99

> <Gold.Chemscore.Hbonds>
donor molecule, donor type, donor heavy atom, donor atom, acceptor molecule, acceptor atom, score
      L1  H    15    46       P1  8028  1.00
      P1  H  7997  8009       L1     9  0.29

> <Gold.Chemscore.Hbond.Weighted>
-5.5387

> <Gold.Chemscore.Metal.Weighted>
-0.0000

> <Gold.Chemscore.Lipo.Weighted>
-11.2687

> <Gold.Chemscore.Internal_Hbond.Weighted>
0.0000

> <Gold.Chemscore.DEClash.Weighted>
0.0402

> <Gold.Chemscore.DEInternal.Weighted>
2.2737

> <Gold.Chemscore.Rot.Weighted>
4.3926

> <Gold.Chemscore.Internal.Correction.Weighted>
   9.000000E+99

> <Gold.Protein.RotatedTorsions>
[ 6907 6896 6895 6894 ] final -163.68 input  -60.11 | X-H torsion
[ 7974 7965 7964 7962 ] final   60.21 input  175.53 | X-H torsion
[ 8008 7997 7996 7995 ] final  157.08 input   59.86 | X-H torsion
[ 10167 10162 10161 10158 ] final  -91.85 input  -65.29 | X-H torsion
[ 10718 10713 10712 10709 ] final -154.82 input   66.30 | X-H torsion
[ 10763 10752 10751 10750 ] final  151.67 input  -60.55 | X-H torsion
[ 11005 11000 10999 10996 ] final -122.52 input  -57.11 | X-H torsion

> <Gold.Protein.ActiveResidues>
 VAL166  LYS551  ARG553  GLY616  TRP617  ASP618  TYR619  PRO620  LYS621  CYS622 
 ASP623  PHE694  ASN695  SER759  ASP760  ASP761  ALA762  ILE779  LEU786  VAL792 
 PHE793  MET794  SER795  GLU796  ALA797  LYS798  CYS799  TRP800  GLU811  SER814 

> <Gold.Protein.RotatedAtoms>
  151.3999  133.3761  159.2730 H   0  0  0  0  0  0  0  0  0  0  0  0  # atno 6907 bound_to 6896
  150.9441  134.8849  159.7642 H   0  0  0  0  0  0  0  0  0  0  0  0  # atno 6908 bound_to 6896
  152.5084  134.3951  159.9449 H   0  0  0  0  0  0  0  0  0  0  0  0  # atno 6909 bound_to 6896
  145.8986  139.3564  143.0606 H   0  0  0  0  0  0  0  0  0  0  0  0  # atno 7974 bound_to 7965
  156.2385  140.1895  156.7054 H   0  0  0  0  0  0  0  0  0  0  0  0  # atno 8008 bound_to 7997
  154.6151  140.0616  156.9571 H   0  0  0  0  0  0  0  0  0  0  0  0  # atno 8009 bound_to 7997
  155.1952  140.3288  155.4354 H   0  0  0  0  0  0  0  0  0  0  0  0  # atno 8010 bound_to 7997
  140.3407  143.2943  151.9838 H   0  0  0  0  0  0  0  0  0  0  0  0  # atno 10167 bound_to 10162
  156.5045  130.8406  151.2622 H   0  0  0  0  0  0  0  0  0  0  0  0  # atno 10718 bound_to 10713
  154.1076  135.2841  155.3238 H   0  0  0  0  0  0  0  0  0  0  0  0  # atno 10763 bound_to 10752
  154.6512  135.5368  153.7907 H   0  0  0  0  0  0  0  0  0  0  0  0  # atno 10764 bound_to 10752
  153.0357  135.6510  154.1236 H   0  0  0  0  0  0  0  0  0  0  0  0  # atno 10765 bound_to 10752
  140.9989  134.0432  157.3563 H   0  0  0  0  0  0  0  0  0  0  0  0  # atno 11005 bound_to 11000
  145.8820  140.9357  143.0596 LP  0  0  0  0  0  0  0  0  0  0  0  0  # atno 17320 bound_to 7965
  144.6734  140.0792  143.7470 LP  0  0  0  0  0  0  0  0  0  0  0  0  # atno 17321 bound_to 7965
  139.4841  144.6159  151.7348 LP  0  0  0  0  0  0  0  0  0  0  0  0  # atno 17342 bound_to 10162
  140.5311  144.0729  150.6054 LP  0  0  0  0  0  0  0  0  0  0  0  0  # atno 17343 bound_to 10162
  157.7458  130.9970  150.2802 LP  0  0  0  0  0  0  0  0  0  0  0  0  # atno 17370 bound_to 10713
  156.3300  130.3799  149.7499 LP  0  0  0  0  0  0  0  0  0  0  0  0  # atno 17371 bound_to 10713
  139.9028  135.0170  156.7350 LP  0  0  0  0  0  0  0  0  0  0  0  0  # atno 17394 bound_to 11000
  140.6922  133.9380  155.7973 LP  0  0  0  0  0  0  0  0  0  0  0  0  # atno 17395 bound_to 11000

$$$$
