AV-unprocessed.smi:870|AV-procd|sdf|4008|dock4
  -GOLD-   22720 1493D 1   1.00000     0.00000
 Structure written by MMmdl.
 46 48  0  0  0  0  0  0  0  0  1 V2000
  154.2096  137.1899  157.7353 C   0  0  0  0  0  0  0  0  0  0  0  0
  153.7764  138.5357  157.8084 O   0  0  0  0  0  0  0  0  0  0  0  0
  153.4003  138.9110  159.1228 C   0  0  0  0  0  0  0  0  0  0  0  0
  152.9232  140.3309  159.0673 C   0  0  0  0  0  0  0  0  0  0  0  0
  153.5032  141.2953  159.7826 N   0  0  0  0  0  0  0  0  0  0  0  0
  152.7531  142.4083  159.4572 C   0  0  0  0  0  0  0  0  0  0  0  0
  152.8635  143.7486  159.8920 C   0  0  0  0  0  0  0  0  0  0  0  0
  151.9653  144.7284  159.4205 C   0  0  0  0  0  0  0  0  0  0  0  0
  150.9455  144.3826  158.5104 C   0  0  0  0  0  0  0  0  0  0  0  0
  150.8180  143.0531  158.0644 C   0  0  0  0  0  0  0  0  0  0  0  0
  151.7187  142.0792  158.5360 C   0  0  0  0  0  0  0  0  0  0  0  0
  151.8707  140.7164  158.3004 N   0  0  0  0  0  0  0  0  0  0  0  0
  151.0462  139.9011  157.4167 C   0  0  0  0  0  0  0  0  0  0  0  0
  150.8460  140.5408  156.0250 C   0  0  1  0  0  0  0  0  0  0  0  0
  151.8886  140.2097  155.1297 O   0  0  0  0  0  0  0  0  0  0  0  0
  149.4982  140.1893  155.3754 C   0  0  0  0  0  0  0  0  0  0  0  0
  148.4389  140.6838  156.1850 O   0  0  0  0  0  0  0  0  0  0  0  0
  147.4813  141.4891  155.6056 C   0  0  0  0  0  0  0  0  0  0  0  0
  147.4397  141.7928  154.2211 C   0  0  0  0  0  0  0  0  0  0  0  0
  146.4295  142.6246  153.7018 C   0  0  0  0  0  0  0  0  0  0  0  0
  145.4499  143.1624  154.5555 C   0  0  0  0  0  0  0  0  0  0  0  0
  145.4812  142.8673  155.9304 C   0  0  0  0  0  0  0  0  0  0  0  0
  146.4914  142.0347  156.4559 C   0  0  0  0  0  0  0  0  0  0  0  0
  146.5084  141.7209  157.9402 C   0  0  0  0  0  0  0  0  0  0  0  0
  154.4719  136.9447  156.7064 H   0  0  0  0  0  0  0  0  0  0  0  0
  153.4228  136.5052  158.0542 H   0  0  0  0  0  0  0  0  0  0  0  0
  155.0901  137.0252  158.3575 H   0  0  0  0  0  0  0  0  0  0  0  0
  152.6053  138.2718  159.5095 H   0  0  0  0  0  0  0  0  0  0  0  0
  154.2527  138.8324  159.8000 H   0  0  0  0  0  0  0  0  0  0  0  0
  153.6406  144.0228  160.5899 H   0  0  0  0  0  0  0  0  0  0  0  0
  152.0588  145.7499  159.7592 H   0  0  0  0  0  0  0  0  0  0  0  0
  150.2612  145.1391  158.1548 H   0  0  0  0  0  0  0  0  0  0  0  0
  150.0377  142.7856  157.3680 H   0  0  0  0  0  0  0  0  0  0  0  0
  151.4889  138.9108  157.3236 H   0  0  0  0  0  0  0  0  0  0  0  0
  150.0789  139.7513  157.8971 H   0  0  0  0  0  0  0  0  0  0  0  0
  150.8865  141.6248  156.1335 H   0  0  0  0  0  0  0  0  0  0  0  0
  151.8888  139.2728  155.0044 H   0  0  0  0  0  0  0  0  0  0  0  0
  149.4494  140.6593  154.3919 H   0  0  0  0  0  0  0  0  0  0  0  0
  149.4137  139.1102  155.2346 H   0  0  0  0  0  0  0  0  0  0  0  0
  148.1728  141.3999  153.5335 H   0  0  0  0  0  0  0  0  0  0  0  0
  146.4066  142.8498  152.6458 H   0  0  0  0  0  0  0  0  0  0  0  0
  144.6754  143.8005  154.1561 H   0  0  0  0  0  0  0  0  0  0  0  0
  144.7249  143.2827  156.5802 H   0  0  0  0  0  0  0  0  0  0  0  0
  145.7556  142.2962  158.4793 H   0  0  0  0  0  0  0  0  0  0  0  0
  147.4831  141.9543  158.3696 H   0  0  0  0  0  0  0  0  0  0  0  0
  146.3068  140.6618  158.1009 H   0  0  0  0  0  0  0  0  0  0  0  0
  1  2  1  0  0  0  0
  1 25  1  0  0  0  0
  1 26  1  0  0  0  0
  1 27  1  0  0  0  0
  2  3  1  0  0  0  0
  3  4  1  0  0  0  0
  3 28  1  0  0  0  0
  3 29  1  0  0  0  0
  4 12  1  0  0  0  0
  4  5  2  0  0  0  0
  5  6  1  0  0  0  0
  6 11  2  0  0  0  0
  6  7  1  0  0  0  0
  7  8  2  0  0  0  0
  7 30  1  0  0  0  0
  8  9  1  0  0  0  0
  8 31  1  0  0  0  0
  9 10  2  0  0  0  0
  9 32  1  0  0  0  0
 10 11  1  0  0  0  0
 10 33  1  0  0  0  0
 11 12  1  0  0  0  0
 12 13  1  0  0  0  0
 13 14  1  0  0  0  0
 13 34  1  0  0  0  0
 13 35  1  0  0  0  0
 14 15  1  0  0  0  0
 14 16  1  0  0  0  0
 14 36  1  0  0  0  0
 15 37  1  0  0  0  0
 16 17  1  0  0  0  0
 16 38  1  0  0  0  0
 16 39  1  0  0  0  0
 17 18  1  0  0  0  0
 18 23  1  0  0  0  0
 18 19  2  0  0  0  0
 19 20  1  0  0  0  0
 19 40  1  0  0  0  0
 20 21  2  0  0  0  0
 20 41  1  0  0  0  0
 21 22  1  0  0  0  0
 21 42  1  0  0  0  0
 22 23  2  0  0  0  0
 22 43  1  0  0  0  0
 23 24  1  0  0  0  0
 24 44  1  0  0  0  0
 24 45  1  0  0  0  0
 24 46  1  0  0  0  0
M  END
> <s_m_source_file>
AV-unprocessed.smi

> <i_m_source_file_index>
870

> <i_lp_mmshare_version>
43012

> <i_f3d_flags>
0

> <s_epik_input>
W2NIXTFbY0hdW2NIXVtjSF1jKGMxMiluKGMobjIpW0NIMl1PW0NIM10pW0NIMl1bQ0BIXShbT0hdKVtDSDJdT2MzW2NIXVtjSF1bY0hdW2NIXWMzW0NIM10=

> <s_epik_cmdline>
J2VwaWtfcHl0aG9uJywgJy1waCcsICc3LjAnLCAnLXRuJywgJzgnLCAnLW1hJywgJzIwMCcsICctbWV0YWxfYmluZGluZycsICctaW1hZScsICc8aW5maWxlLm1hZT4nLCAnLW9tYWUnLCAnPG91dGZpbGUubWFlPic=

> <r_lp_tautomer_probability>
1

> <r_epik_Ionization_Penalty>
0.0447032

> <r_epik_Ionization_Penalty_Charging>
0

> <r_epik_Ionization_Penalty_Neutral>
0.0447032

> <r_epik_State_Penalty>
0.0379025

> <r_epik_Charging_Adjusted_Penalty>
0.0379025

> <i_epik_Tot_Q>
0

> <i_epik_Tot_abs_Q>
0

> <r_epik_Metal_State_Penalty>
3.91398e-05

> <b_epik_Metal_Only>
0

> <s_lp_Force_Field>
OPLS_2005

> <r_lp_Energy>
16.5078

> <b_lp_Chiralities_Consistent>
1

> <s_lp_Variant>
AV-unprocessed.smi:870-2

> <Gold.Version>
5.8.1

> <Gold.Id.Protein>
6NUR|6NUR_protein|mol2

> <Gold.PLP.Fitness>
52.3400

> <Gold.PLP.PLP>
-48.1488

> <Gold.PLP.part.hbond>
-1.9218

> <Gold.PLP.part.metal>
0.0000

> <Gold.PLP.part.buried>
-7.8798

> <Gold.PLP.part.nonpolar>
-38.6606

> <Gold.PLP.part.repulsive>
0.0565

> <Gold.PLP.ligand.clash>
0.0000

> <Gold.PLP.ligand.torsion>
0.8749

> <Gold.PLP.Chemscore.Hbond>
1.9280

> <Gold.PLP.Chemscore.CHOScore>
0.0000

> <Gold.PLP.Chemscore.Metal>
0.0000

> <Gold.Chemscore.Hbonds>
donor molecule, donor type, donor heavy atom, donor atom, acceptor molecule, acceptor atom, score
      P1  H  7989  7998       L1    15  0.83
      P1  H  7997  8009       L1     2  1.00

> <Gold.PLP.Chemscore.Internal.Correction>
0.1570

> <Gold.Rescore>
     Score         DG    S(hbond)    S(metal)    S(lipo)     H(rot)  DE(clash)    DE(int)     intcor
     17.41     -18.41       1.50        0.00     119.26       2.36       0.08       0.92       ----

> <Gold.Chemscore.Fitness>
17.4090

> <Gold.Chemscore.DG>
-18.4119

> <Gold.Chemscore.ZeroCoef>
-5.4800

> <Gold.Chemscore.Hbond>
1.5019

> <Gold.Chemscore.Metal>
0.0000

> <Gold.Chemscore.Lipo>
119.2604

> <Gold.Chemscore.Internal_Hbond>
0.0000

> <Gold.Chemscore.DEClash>
0.0788

> <Gold.Chemscore.DEInternal>
0.9241

> <Gold.Chemscore.Rot>
2.3585

> <Gold.Chemscore.Internal.Correction>
   9.000000E+99

> <Gold.Chemscore.Hbonds>
donor molecule, donor type, donor heavy atom, donor atom, acceptor molecule, acceptor atom, score
      P1  H  7989  7998       L1    15  0.36
      P1  H  7997  8009       L1     2  0.70

> <Gold.Chemscore.Hbond.Weighted>
-5.0162

> <Gold.Chemscore.Metal.Weighted>
-0.0000

> <Gold.Chemscore.Lipo.Weighted>
-13.9535

> <Gold.Chemscore.Internal_Hbond.Weighted>
0.0000

> <Gold.Chemscore.DEClash.Weighted>
0.0788

> <Gold.Chemscore.DEInternal.Weighted>
0.9241

> <Gold.Chemscore.Rot.Weighted>
6.0378

> <Gold.Chemscore.Internal.Correction.Weighted>
   9.000000E+99

> <Gold.Protein.RotatedTorsions>
[ 6907 6896 6895 6894 ] final   72.53 input  -60.11 | X-H torsion
[ 7974 7965 7964 7962 ] final  114.72 input  175.53 | X-H torsion
[ 8008 7997 7996 7995 ] final  164.05 input   59.86 | X-H torsion
[ 10167 10162 10161 10158 ] final -158.03 input  -65.29 | X-H torsion
[ 10718 10713 10712 10709 ] final  -11.65 input   66.30 | X-H torsion
[ 10763 10752 10751 10750 ] final  156.50 input  -60.55 | X-H torsion
[ 11005 11000 10999 10996 ] final  -84.49 input  -57.11 | X-H torsion

> <Gold.Protein.ActiveResidues>
 VAL166  LYS551  ARG553  GLY616  TRP617  ASP618  TYR619  PRO620  LYS621  CYS622 
 ASP623  PHE694  ASN695  SER759  ASP760  ASP761  ALA762  ILE779  LEU786  VAL792 
 PHE793  MET794  SER795  GLU796  ALA797  LYS798  CYS799  TRP800  GLU811  SER814 

> <Gold.Protein.RotatedAtoms>
  152.4873  134.4557  159.9588 H   0  0  0  0  0  0  0  0  0  0  0  0  # atno 6907 bound_to 6896
  151.4550  133.3601  159.2808 H   0  0  0  0  0  0  0  0  0  0  0  0  # atno 6908 bound_to 6896
  150.8995  134.8431  159.7410 H   0  0  0  0  0  0  0  0  0  0  0  0  # atno 6909 bound_to 6896
  145.2009  139.2953  143.4319 H   0  0  0  0  0  0  0  0  0  0  0  0  # atno 7974 bound_to 7965
  156.1910  140.1707  156.8092 H   0  0  0  0  0  0  0  0  0  0  0  0  # atno 8008 bound_to 7997
  154.5471  140.0725  156.8639 H   0  0  0  0  0  0  0  0  0  0  0  0  # atno 8009 bound_to 7997
  155.3101  140.3367  155.4246 H   0  0  0  0  0  0  0  0  0  0  0  0  # atno 8010 bound_to 7997
  139.6724  143.9722  152.2291 H   0  0  0  0  0  0  0  0  0  0  0  0  # atno 10167 bound_to 10162
  156.6559  130.4968  149.6046 H   0  0  0  0  0  0  0  0  0  0  0  0  # atno 10718 bound_to 10713
  154.1853  135.2797  155.3039 H   0  0  0  0  0  0  0  0  0  0  0  0  # atno 10763 bound_to 10752
  154.5971  135.5541  153.7340 H   0  0  0  0  0  0  0  0  0  0  0  0  # atno 10764 bound_to 10752
  153.0127  135.6382  154.1991 H   0  0  0  0  0  0  0  0  0  0  0  0  # atno 10765 bound_to 10752
  141.1650  133.7349  156.8875 H   0  0  0  0  0  0  0  0  0  0  0  0  # atno 11005 bound_to 11000
  146.3418  140.2253  142.8592 LP  0  0  0  0  0  0  0  0  0  0  0  0  # atno 17320 bound_to 7965
  144.9949  140.8580  143.5317 LP  0  0  0  0  0  0  0  0  0  0  0  0  # atno 17321 bound_to 7965
  139.9490  144.6633  150.8191 LP  0  0  0  0  0  0  0  0  0  0  0  0  # atno 17342 bound_to 10162
  140.7623  143.3195  151.2656 LP  0  0  0  0  0  0  0  0  0  0  0  0  # atno 17343 bound_to 10162
  156.2048  130.6642  151.1206 LP  0  0  0  0  0  0  0  0  0  0  0  0  # atno 17370 bound_to 10713
  157.7125  131.0726  150.6447 LP  0  0  0  0  0  0  0  0  0  0  0  0  # atno 17371 bound_to 10713
  140.1672  134.9125  157.2788 LP  0  0  0  0  0  0  0  0  0  0  0  0  # atno 17394 bound_to 11000
  140.2544  134.3645  155.7430 LP  0  0  0  0  0  0  0  0  0  0  0  0  # atno 17395 bound_to 11000

$$$$
