AV-unprocessed.smi:603|AV-procd|sdf|3036|dock6
  -GOLD-   2262023553D 1   1.00000     0.00000
 Structure written by MMmdl.
 35 36  0  0  0  0  0  0  0  0  1 V2000
  151.7500  139.8836  154.7376 O   0  0  0  0  0  0  0  0  0  0  0  0
  150.5429  139.7628  154.9565 C   0  0  0  0  0  0  0  0  0  0  0  0
  150.0550  139.7361  156.4092 C   0  0  0  0  0  0  0  0  0  0  0  0
  150.6842  140.7940  157.2114 N   0  0  0  0  0  0  0  0  0  0  0  0
  150.4000  142.0760  156.7732 N   0  0  0  0  0  0  0  0  0  0  0  0
  150.8908  143.0863  157.4042 C   0  0  0  0  0  0  0  0  0  0  0  0
  151.7397  142.9312  158.5645 C   0  0  0  0  0  0  0  0  0  0  0  0
  152.3688  144.3242  159.3713 Cl  0  0  0  0  0  0  0  0  0  0  0  0
  152.0163  141.6707  158.9833 C   0  0  0  0  0  0  0  0  0  0  0  0
  153.0246  141.4047  160.3641 Cl  0  0  0  0  0  0  0  0  0  0  0  0
  151.4746  140.4947  158.2879 C   0  0  0  0  0  0  0  0  0  0  0  0
  151.7031  139.3359  158.6370 O   0  0  0  0  0  0  0  0  0  0  0  0
  149.5740  139.6544  154.0179 N   0  0  0  0  0  0  0  0  0  0  0  0
  148.2327  139.5134  154.1353 C   0  0  0  0  0  0  0  0  0  0  0  0
  147.6610  139.8169  155.1812 O   0  0  0  0  0  0  0  0  0  0  0  0
  147.5701  139.0306  153.0672 N   0  0  0  0  0  0  0  0  0  0  0  0
  146.1615  138.6463  153.0452 C   0  0  0  0  0  0  0  0  0  0  0  0
  145.8609  137.5444  154.0809 C   0  0  0  0  0  0  0  0  0  0  0  0
  145.6378  136.2631  153.2776 C   0  0  0  0  0  0  0  0  0  0  0  0
  145.0422  136.7499  151.9605 C   0  0  0  0  0  0  0  0  0  0  0  0
  145.7783  138.0597  151.6727 C   0  0  0  0  0  0  0  0  0  0  0  0
  148.9666  139.8147  156.4416 H   0  0  0  0  0  0  0  0  0  0  0  0
  150.2832  138.7566  156.8339 H   0  0  0  0  0  0  0  0  0  0  0  0
  150.6922  144.1132  157.0966 H   0  0  0  0  0  0  0  0  0  0  0  0
  149.9078  139.6750  153.0650 H   0  0  0  0  0  0  0  0  0  0  0  0
  148.0844  138.9234  152.2043 H   0  0  0  0  0  0  0  0  0  0  0  0
  145.5412  139.5203  153.2524 H   0  0  0  0  0  0  0  0  0  0  0  0
  146.6438  137.4247  154.8311 H   0  0  0  0  0  0  0  0  0  0  0  0
  144.9440  137.7970  154.6150 H   0  0  0  0  0  0  0  0  0  0  0  0
  146.5951  135.7750  153.0896 H   0  0  0  0  0  0  0  0  0  0  0  0
  144.9939  135.5504  153.7936 H   0  0  0  0  0  0  0  0  0  0  0  0
  145.1495  136.0222  151.1557 H   0  0  0  0  0  0  0  0  0  0  0  0
  143.9774  136.9474  152.0915 H   0  0  0  0  0  0  0  0  0  0  0  0
  145.1675  138.7479  151.0876 H   0  0  0  0  0  0  0  0  0  0  0  0
  146.6707  137.8425  151.0831 H   0  0  0  0  0  0  0  0  0  0  0  0
  1  2  2  0  0  0  0
  2  3  1  0  0  0  0
  2 13  1  0  0  0  0
  3  4  1  0  0  0  0
  3 22  1  0  0  0  0
  3 23  1  0  0  0  0
  4 11  1  0  0  0  0
  4  5  1  0  0  0  0
  5  6  2  0  0  0  0
  6  7  1  0  0  0  0
  6 24  1  0  0  0  0
  7  8  1  0  0  0  0
  7  9  2  0  0  0  0
  9 10  1  0  0  0  0
  9 11  1  0  0  0  0
 11 12  2  0  0  0  0
 13 14  1  0  0  0  0
 13 25  1  0  0  0  0
 14 15  2  0  0  0  0
 14 16  1  0  0  0  0
 16 17  1  0  0  0  0
 16 26  1  0  0  0  0
 17 21  1  0  0  0  0
 17 18  1  0  0  0  0
 17 27  1  0  0  0  0
 18 19  1  0  0  0  0
 18 28  1  0  0  0  0
 18 29  1  0  0  0  0
 19 20  1  0  0  0  0
 19 30  1  0  0  0  0
 19 31  1  0  0  0  0
 20 21  1  0  0  0  0
 20 32  1  0  0  0  0
 20 33  1  0  0  0  0
 21 34  1  0  0  0  0
 21 35  1  0  0  0  0
M  END
> <s_m_source_file>
AV-unprocessed.smi

> <i_m_source_file_index>
603

> <i_lp_mmshare_version>
43012

> <i_f3d_flags>
0

> <s_epik_input>
W0NIMl0xW0NIMl1bQ0gyXVtDSDJdW0NIXTFbTkhdQyg9TylbTkhdQyg9TylbQ0gyXW4ybltjSF1jKENsKWMoQ2wpYzI9Tw==

> <s_epik_cmdline>
J2VwaWtfcHl0aG9uJywgJy1waCcsICc3LjAnLCAnLXRuJywgJzgnLCAnLW1hJywgJzIwMCcsICctbWV0YWxfYmluZGluZycsICctaW1hZScsICc8aW5maWxlLm1hZT4nLCAnLW9tYWUnLCAnPG91dGZpbGUubWFlPic=

> <r_lp_tautomer_probability>
1

> <r_epik_Ionization_Penalty>
3.28905e-05

> <r_epik_Ionization_Penalty_Charging>
2.24292e-11

> <r_epik_Ionization_Penalty_Neutral>
3.28905e-05

> <r_epik_State_Penalty>
-0

> <r_epik_Charging_Adjusted_Penalty>
2.24292e-11

> <i_epik_Tot_Q>
0

> <i_epik_Tot_abs_Q>
0

> <r_epik_Metal_State_Penalty>
-0

> <b_epik_Metal_Only>
0

> <s_lp_Force_Field>
OPLS_2005

> <r_lp_Energy>
36.9935

> <b_lp_Chiralities_Consistent>
1

> <s_lp_Variant>
AV-unprocessed.smi:603-1

> <Gold.Version>
5.8.1

> <Gold.Id.Protein>
6NUR|6NUR_protein|mol2

> <Gold.PLP.Fitness>
41.8848

> <Gold.PLP.PLP>
-35.3454

> <Gold.PLP.part.hbond>
-3.9315

> <Gold.PLP.part.metal>
0.0000

> <Gold.PLP.part.buried>
-1.0571

> <Gold.PLP.part.nonpolar>
-31.3353

> <Gold.PLP.part.repulsive>
0.3705

> <Gold.PLP.ligand.clash>
2.0960

> <Gold.PLP.ligand.torsion>
0.2837

> <Gold.PLP.Chemscore.Hbond>
2.0960

> <Gold.PLP.Chemscore.CHOScore>
0.9663

> <Gold.PLP.Chemscore.Metal>
0.0000

> <Gold.Chemscore.Hbonds>
donor molecule, donor type, donor heavy atom, donor atom, acceptor molecule, acceptor atom, score
      L1  H    13    25       P1  7957  1.00
      L1  H    16    26       P1  7957  0.55
      P1  H  7989  7998       L1     1  0.95
      L1  C     6    24       P1  8028  0.89

> <Gold.PLP.Chemscore.Internal.Correction>
0.0159

> <Gold.Rescore>
     Score         DG    S(hbond)    S(metal)    S(lipo)     H(rot)  DE(clash)    DE(int)     intcor
     13.91     -16.46       1.74        0.00      80.39       1.65       0.69       1.86       ----

> <Gold.Chemscore.Fitness>
13.9115

> <Gold.Chemscore.DG>
-16.4584

> <Gold.Chemscore.ZeroCoef>
-5.4800

> <Gold.Chemscore.Hbond>
1.7389

> <Gold.Chemscore.Metal>
0.0000

> <Gold.Chemscore.Lipo>
80.3873

> <Gold.Chemscore.Internal_Hbond>
0.0000

> <Gold.Chemscore.DEClash>
0.6852

> <Gold.Chemscore.DEInternal>
1.8617

> <Gold.Chemscore.Rot>
1.6543

> <Gold.Chemscore.Internal.Correction>
   9.000000E+99

> <Gold.Chemscore.Hbonds>
donor molecule, donor type, donor heavy atom, donor atom, acceptor molecule, acceptor atom, score
      L1  H    13    25       P1  7957  0.94
      L1  H    16    26       P1  7957  0.53
      P1  H  7989  7998       L1     1  0.20

> <Gold.Chemscore.Hbond.Weighted>
-5.8080

> <Gold.Chemscore.Metal.Weighted>
-0.0000

> <Gold.Chemscore.Lipo.Weighted>
-9.4053

> <Gold.Chemscore.Internal_Hbond.Weighted>
0.0000

> <Gold.Chemscore.DEClash.Weighted>
0.6852

> <Gold.Chemscore.DEInternal.Weighted>
1.8617

> <Gold.Chemscore.Rot.Weighted>
4.2349

> <Gold.Chemscore.Internal.Correction.Weighted>
   9.000000E+99

> <Gold.Protein.RotatedTorsions>
[ 6907 6896 6895 6894 ] final  146.39 input  -60.11 | X-H torsion
[ 7974 7965 7964 7962 ] final  107.00 input  175.53 | X-H torsion
[ 8008 7997 7996 7995 ] final -108.06 input   59.86 | X-H torsion
[ 10167 10162 10161 10158 ] final -143.49 input  -65.29 | X-H torsion
[ 10718 10713 10712 10709 ] final  -16.22 input   66.30 | X-H torsion
[ 10763 10752 10751 10750 ] final  159.00 input  -60.55 | X-H torsion
[ 11005 11000 10999 10996 ] final  -10.72 input  -57.11 | X-H torsion

> <Gold.Protein.ActiveResidues>
 VAL166  LYS551  ARG553  GLY616  TRP617  ASP618  TYR619  PRO620  LYS621  CYS622 
 ASP623  PHE694  ASN695  SER759  ASP760  ASP761  ALA762  ILE779  LEU786  VAL792 
 PHE793  MET794  SER795  GLU796  ALA797  LYS798  CYS799  TRP800  GLU811  SER814 

> <Gold.Protein.RotatedAtoms>
  152.1685  133.4628  159.4896 H   0  0  0  0  0  0  0  0  0  0  0  0  # atno 6907 bound_to 6896
  150.6916  134.1983  159.4321 H   0  0  0  0  0  0  0  0  0  0  0  0  # atno 6908 bound_to 6896
  151.9889  134.9989  160.0611 H   0  0  0  0  0  0  0  0  0  0  0  0  # atno 6909 bound_to 6896
  145.2993  139.2574  143.3822 H   0  0  0  0  0  0  0  0  0  0  0  0  # atno 7974 bound_to 7965
  154.9386  140.0403  157.2085 H   0  0  0  0  0  0  0  0  0  0  0  0  # atno 8008 bound_to 7997
  154.8091  140.2865  155.5844 H   0  0  0  0  0  0  0  0  0  0  0  0  # atno 8009 bound_to 7997
  156.2969  140.2540  156.2975 H   0  0  0  0  0  0  0  0  0  0  0  0  # atno 8010 bound_to 7997
  139.7988  143.7862  152.2656 H   0  0  0  0  0  0  0  0  0  0  0  0  # atno 10167 bound_to 10162
  156.5906  130.4798  149.6281 H   0  0  0  0  0  0  0  0  0  0  0  0  # atno 10718 bound_to 10713
  154.2249  135.2780  155.2911 H   0  0  0  0  0  0  0  0  0  0  0  0  # atno 10763 bound_to 10752
  154.5671  135.5629  153.7064 H   0  0  0  0  0  0  0  0  0  0  0  0  # atno 10764 bound_to 10752
  153.0033  135.6312  154.2390 H   0  0  0  0  0  0  0  0  0  0  0  0  # atno 10765 bound_to 10752
  140.7477  133.8618  155.9019 H   0  0  0  0  0  0  0  0  0  0  0  0  # atno 11005 bound_to 11000
  146.3157  140.3503  142.8655 LP  0  0  0  0  0  0  0  0  0  0  0  0  # atno 17320 bound_to 7965
  144.9107  140.7753  143.5809 LP  0  0  0  0  0  0  0  0  0  0  0  0  # atno 17321 bound_to 7965
  139.7976  144.7386  150.9869 LP  0  0  0  0  0  0  0  0  0  0  0  0  # atno 17342 bound_to 10162
  140.7820  143.4378  151.0597 LP  0  0  0  0  0  0  0  0  0  0  0  0  # atno 17343 bound_to 10162
  156.2553  130.6931  151.1682 LP  0  0  0  0  0  0  0  0  0  0  0  0  # atno 17370 bound_to 10713
  157.7304  131.0616  150.5726 LP  0  0  0  0  0  0  0  0  0  0  0  0  # atno 17371 bound_to 10713
  140.9779  134.1444  157.4520 LP  0  0  0  0  0  0  0  0  0  0  0  0  # atno 17394 bound_to 11000
  139.8793  135.0001  156.5989 LP  0  0  0  0  0  0  0  0  0  0  0  0  # atno 17395 bound_to 11000

$$$$
