AV-unprocessed.smi:126|AV-procd|sdf|1152|dock6
  -GOLD-   2262018293D 1   1.00000     0.00000
 Structure written by MMmdl.
 40 42  0  0  0  0  0  0  0  0  1 V2000
  148.9549  141.0531  157.2774 O   0  0  0  0  0  0  0  0  0  0  0  0
  149.8574  140.2836  157.6101 C   0  0  0  0  0  0  0  0  0  0  0  0
  149.6737  138.7641  157.4712 C   0  0  0  0  0  0  0  0  0  0  0  0
  148.6646  138.2072  158.3988 N   0  0  0  0  0  0  0  0  0  0  0  0
  147.3277  138.6654  158.2961 C   0  0  0  0  0  0  0  0  0  0  0  0
  147.0028  139.5007  157.4507 O   0  0  0  0  0  0  0  0  0  0  0  0
  146.3883  138.0883  159.2511 C   0  0  0  0  0  0  0  0  0  0  0  0
  145.0969  138.4589  159.2209 F   0  0  0  0  0  0  0  0  0  0  0  0
  146.7946  137.1843  160.1661 C   0  0  0  0  0  0  0  0  0  0  0  0
  148.1059  136.7538  160.2619 N   0  0  0  0  0  0  0  0  0  0  0  0
  148.5460  135.7404  161.2969 C   0  0  1  0  0  0  0  0  0  0  0  0
  148.1640  136.2108  162.7124 C   0  0  0  0  0  0  0  0  0  0  0  0
  147.4619  134.9972  163.2877 C   0  0  0  0  0  0  0  0  0  0  0  0
  146.8597  134.3644  162.0422 C   0  0  0  0  0  0  0  0  0  0  0  0
  147.8926  134.5222  161.0781 O   0  0  0  0  0  0  0  0  0  0  0  0
  149.0747  137.2640  159.3707 C   0  0  0  0  0  0  0  0  0  0  0  0
  150.2499  136.8983  159.4463 O   0  0  0  0  0  0  0  0  0  0  0  0
  151.0293  140.6713  158.1451 N   0  0  0  0  0  0  0  0  0  0  0  0
  151.5072  141.9906  158.3698 C   0  0  0  0  0  0  0  0  0  0  0  0
  152.5147  142.1576  159.3432 C   0  0  0  0  0  0  0  0  0  0  0  0
  153.0519  143.4330  159.6040 C   0  0  0  0  0  0  0  0  0  0  0  0
  152.5935  144.5513  158.8827 C   0  0  0  0  0  0  0  0  0  0  0  0
  151.6014  144.3919  157.8972 C   0  0  0  0  0  0  0  0  0  0  0  0
  151.0616  143.1173  157.6361 C   0  0  0  0  0  0  0  0  0  0  0  0
  149.4082  138.5305  156.4385 H   0  0  0  0  0  0  0  0  0  0  0  0
  150.6471  138.2903  157.6065 H   0  0  0  0  0  0  0  0  0  0  0  0
  146.0492  136.7941  160.8418 H   0  0  0  0  0  0  0  0  0  0  0  0
  149.6180  135.6056  161.1441 H   0  0  0  0  0  0  0  0  0  0  0  0
  149.0471  136.5086  163.2784 H   0  0  0  0  0  0  0  0  0  0  0  0
  147.4764  137.0565  162.6562 H   0  0  0  0  0  0  0  0  0  0  0  0
  148.1892  134.3198  163.7372 H   0  0  0  0  0  0  0  0  0  0  0  0
  146.7164  135.2512  164.0414 H   0  0  0  0  0  0  0  0  0  0  0  0
  146.5999  133.3152  162.1837 H   0  0  0  0  0  0  0  0  0  0  0  0
  145.9644  134.9026  161.7279 H   0  0  0  0  0  0  0  0  0  0  0  0
  151.6307  139.9306  158.4753 H   0  0  0  0  0  0  0  0  0  0  0  0
  152.8771  141.3058  159.9002 H   0  0  0  0  0  0  0  0  0  0  0  0
  153.8175  143.5527  160.3562 H   0  0  0  0  0  0  0  0  0  0  0  0
  153.0070  145.5293  159.0810 H   0  0  0  0  0  0  0  0  0  0  0  0
  151.2570  145.2478  157.3354 H   0  0  0  0  0  0  0  0  0  0  0  0
  150.3191  143.0251  156.8586 H   0  0  0  0  0  0  0  0  0  0  0  0
  1  2  2  0  0  0  0
  2  3  1  0  0  0  0
  2 18  1  0  0  0  0
  3  4  1  0  0  0  0
  3 25  1  0  0  0  0
  3 26  1  0  0  0  0
  4 16  1  0  0  0  0
  4  5  1  0  0  0  0
  5  6  2  0  0  0  0
  5  7  1  0  0  0  0
  7  8  1  0  0  0  0
  7  9  2  0  0  0  0
  9 10  1  0  0  0  0
  9 27  1  0  0  0  0
 10 11  1  0  0  0  0
 10 16  1  0  0  0  0
 11 15  1  0  0  0  0
 11 12  1  0  0  0  0
 11 28  1  0  0  0  0
 12 13  1  0  0  0  0
 12 29  1  0  0  0  0
 12 30  1  0  0  0  0
 13 14  1  0  0  0  0
 13 31  1  0  0  0  0
 13 32  1  0  0  0  0
 14 15  1  0  0  0  0
 14 33  1  0  0  0  0
 14 34  1  0  0  0  0
 16 17  2  0  0  0  0
 18 19  1  0  0  0  0
 18 35  1  0  0  0  0
 19 24  1  0  0  0  0
 19 20  2  0  0  0  0
 20 21  1  0  0  0  0
 20 36  1  0  0  0  0
 21 22  2  0  0  0  0
 21 37  1  0  0  0  0
 22 23  1  0  0  0  0
 22 38  1  0  0  0  0
 23 24  2  0  0  0  0
 23 39  1  0  0  0  0
 24 40  1  0  0  0  0
M  END
> <s_m_source_file>
AV-unprocessed.smi

> <i_m_source_file_index>
126

> <i_lp_mmshare_version>
43012

> <i_f3d_flags>
0

> <s_epik_input>
W2NIXTFbY0hdW2NIXVtjSF1bY0hdYzFbTkhdQyg9TylbQ0gyXW4yYyg9TyljKEYpW2NIXW4oYzI9TylbQ0BASF0zW0NIMl1bQ0gyXVtDSDJdTzM=

> <s_epik_cmdline>
J2VwaWtfcHl0aG9uJywgJy1waCcsICc3LjAnLCAnLXRuJywgJzgnLCAnLW1hJywgJzIwMCcsICctbWV0YWxfYmluZGluZycsICctaW1hZScsICc8aW5maWxlLm1hZT4nLCAnLW9tYWUnLCAnPG91dGZpbGUubWFlPic=

> <r_lp_tautomer_probability>
1

> <r_epik_Ionization_Penalty>
1.86934e-06

> <r_epik_Ionization_Penalty_Charging>
3.88729e-08

> <r_epik_Ionization_Penalty_Neutral>
1.83046e-06

> <r_epik_State_Penalty>
-0

> <r_epik_Charging_Adjusted_Penalty>
3.88729e-08

> <i_epik_Tot_Q>
0

> <i_epik_Tot_abs_Q>
0

> <r_epik_Metal_State_Penalty>
-0

> <b_epik_Metal_Only>
0

> <s_epik_Chemistry_Notes>
This compound contains an acetal/aminal-like group ( X-CH(R)-Y where X, Y are N, S, or O) that may be acid/base labile, releasing an aldehyde.

> <s_lp_Force_Field>
OPLS_2005

> <r_lp_Energy>
33.9476

> <b_lp_Chiralities_Consistent>
1

> <s_lp_Variant>
AV-unprocessed.smi:126-2

> <Gold.Version>
5.8.1

> <Gold.Id.Protein>
6NUR|6NUR_protein|mol2

> <Gold.PLP.Fitness>
45.3683

> <Gold.PLP.PLP>
-42.8077

> <Gold.PLP.part.hbond>
-1.0000

> <Gold.PLP.part.metal>
0.0000

> <Gold.PLP.part.buried>
-6.4778

> <Gold.PLP.part.nonpolar>
-36.0616

> <Gold.PLP.part.repulsive>
0.1570

> <Gold.PLP.ligand.clash>
0.0000

> <Gold.PLP.ligand.torsion>
0.2315

> <Gold.PLP.Chemscore.Hbond>
1.0000

> <Gold.PLP.Chemscore.CHOScore>
0.0000

> <Gold.PLP.Chemscore.Metal>
0.0000

> <Gold.Chemscore.Hbonds>
donor molecule, donor type, donor heavy atom, donor atom, acceptor molecule, acceptor atom, score
      P1  H  6896  6909       L1    17  0.94

> <Gold.PLP.Chemscore.Internal.Correction>
0.0236

> <Gold.Rescore>
     Score         DG    S(hbond)    S(metal)    S(lipo)     H(rot)  DE(clash)    DE(int)     intcor
     13.21     -16.21       1.00        0.00      99.65       1.66       0.02       2.98       ----

> <Gold.Chemscore.Fitness>
13.2150

> <Gold.Chemscore.DG>
-16.2086

> <Gold.Chemscore.ZeroCoef>
-5.4800

> <Gold.Chemscore.Hbond>
0.9953

> <Gold.Chemscore.Metal>
0.0000

> <Gold.Chemscore.Lipo>
99.6513

> <Gold.Chemscore.Internal_Hbond>
0.0000

> <Gold.Chemscore.DEClash>
0.0174

> <Gold.Chemscore.DEInternal>
2.9763

> <Gold.Chemscore.Rot>
1.6621

> <Gold.Chemscore.Internal.Correction>
   9.000000E+99

> <Gold.Chemscore.Hbonds>
donor molecule, donor type, donor heavy atom, donor atom, acceptor molecule, acceptor atom, score
      P1  H  6896  6909       L1    17  0.90

> <Gold.Chemscore.Hbond.Weighted>
-3.3244

> <Gold.Chemscore.Metal.Weighted>
-0.0000

> <Gold.Chemscore.Lipo.Weighted>
-11.6592

> <Gold.Chemscore.Internal_Hbond.Weighted>
0.0000

> <Gold.Chemscore.DEClash.Weighted>
0.0174

> <Gold.Chemscore.DEInternal.Weighted>
2.9763

> <Gold.Chemscore.Rot.Weighted>
4.2550

> <Gold.Chemscore.Internal.Correction.Weighted>
   9.000000E+99

> <Gold.Protein.RotatedTorsions>
[ 6907 6896 6895 6894 ] final   87.37 input  -60.11 | X-H torsion
[ 7974 7965 7964 7962 ] final  -50.79 input  175.53 | X-H torsion
[ 8008 7997 7996 7995 ] final -165.41 input   59.86 | X-H torsion
[ 10167 10162 10161 10158 ] final  -60.45 input  -65.29 | X-H torsion
[ 10718 10713 10712 10709 ] final -173.35 input   66.30 | X-H torsion
[ 10763 10752 10751 10750 ] final   94.72 input  -60.55 | X-H torsion
[ 11005 11000 10999 10996 ] final  -66.61 input  -57.11 | X-H torsion

> <Gold.Protein.ActiveResidues>
 VAL166  LYS551  ARG553  GLY616  TRP617  ASP618  TYR619  PRO620  LYS621  CYS622 
 ASP623  PHE694  ASN695  SER759  ASP760  ASP761  ALA762  ILE779  LEU786  VAL792 
 PHE793  MET794  SER795  GLU796  ALA797  LYS798  CYS799  TRP800  GLU811  SER814 

> <Gold.Protein.RotatedAtoms>
  152.5410  134.2287  159.8816 H   0  0  0  0  0  0  0  0  0  0  0  0  # atno 6907 bound_to 6896
  151.2260  133.4469  159.2610 H   0  0  0  0  0  0  0  0  0  0  0  0  # atno 6908 bound_to 6896
  151.0760  134.9842  159.8388 H   0  0  0  0  0  0  0  0  0  0  0  0  # atno 6909 bound_to 6896
  145.9260  140.7791  142.9623 H   0  0  0  0  0  0  0  0  0  0  0  0  # atno 7974 bound_to 7965
  155.8494  140.0960  157.1684 H   0  0  0  0  0  0  0  0  0  0  0  0  # atno 8008 bound_to 7997
  154.3985  140.1386  156.3887 H   0  0  0  0  0  0  0  0  0  0  0  0  # atno 8009 bound_to 7997
  155.7978  140.3454  155.5388 H   0  0  0  0  0  0  0  0  0  0  0  0  # atno 8010 bound_to 7997
  140.6070  143.2376  151.5797 H   0  0  0  0  0  0  0  0  0  0  0  0  # atno 10167 bound_to 10162
  156.7690  130.9441  151.3119 H   0  0  0  0  0  0  0  0  0  0  0  0  # atno 10718 bound_to 10713
  153.2448  135.4280  155.0736 H   0  0  0  0  0  0  0  0  0  0  0  0  # atno 10763 bound_to 10752
  154.8356  135.3411  154.6597 H   0  0  0  0  0  0  0  0  0  0  0  0  # atno 10764 bound_to 10752
  153.7019  135.7028  153.5117 H   0  0  0  0  0  0  0  0  0  0  0  0  # atno 10765 bound_to 10752
  141.1487  133.6703  156.6166 H   0  0  0  0  0  0  0  0  0  0  0  0  # atno 11005 bound_to 11000
  144.6758  140.2051  143.7383 LP  0  0  0  0  0  0  0  0  0  0  0  0  # atno 17320 bound_to 7965
  145.8488  139.2165  143.1784 LP  0  0  0  0  0  0  0  0  0  0  0  0  # atno 17321 bound_to 7965
  139.5332  144.2855  152.1195 LP  0  0  0  0  0  0  0  0  0  0  0  0  # atno 17342 bound_to 10162
  140.2046  144.4623  150.6415 LP  0  0  0  0  0  0  0  0  0  0  0  0  # atno 17343 bound_to 10162
  157.6700  130.9042  150.0018 LP  0  0  0  0  0  0  0  0  0  0  0  0  # atno 17370 bound_to 10713
  156.1290  130.3644  149.9762 LP  0  0  0  0  0  0  0  0  0  0  0  0  # atno 17371 bound_to 10713
  140.3573  134.7717  157.4509 LP  0  0  0  0  0  0  0  0  0  0  0  0  # atno 17394 bound_to 11000
  140.0813  134.5727  155.8538 LP  0  0  0  0  0  0  0  0  0  0  0  0  # atno 17395 bound_to 11000

$$$$
