AV-unprocessed.smi:3301|AV-procd|sdf|12652|dock6
  -GOLD-   2272018583D 1   1.00000     0.00000
 Structure written by MMmdl.
 37 38  0  0  0  0  0  0  0  0  2 V2000
  150.2428  139.9623  156.5281 C   0  0  0  0  0  0  0  0  0  0  0  0
  149.6965  141.3831  156.3353 C   0  0  2  0  0  0  0  0  0  0  0  0
  149.5770  141.7377  154.8365 C   0  0  0  0  0  0  0  0  0  0  0  0
  148.5004  141.0112  154.1541 N   0  0  0  0  0  0  0  0  0  0  0  0
  148.4727  139.6794  153.8287 C   0  0  0  0  0  0  0  0  0  0  0  0
  147.2804  139.4576  153.1896 C   0  0  0  0  0  0  0  0  0  0  0  0
  146.6272  140.6605  153.1601 N   0  3  0  0  0  0  0  0  0  0  0  0
  147.3676  141.6026  153.7531 C   0  0  0  0  0  0  0  0  0  0  0  0
  150.5720  142.3269  157.0300 N   0  0  0  0  0  0  0  0  0  0  0  0
  150.3467  142.8553  158.2435 C   0  0  0  0  0  0  0  0  0  0  0  0
  149.3633  142.5757  158.9308 O   0  0  0  0  0  0  0  0  0  0  0  0
  151.3978  143.8467  158.7565 C   0  0  0  0  0  0  0  0  0  0  0  0
  152.1739  143.3155  159.8780 N   0  0  0  0  0  0  0  0  0  0  0  0
  152.1853  143.9989  161.1610 C   0  0  0  0  0  0  0  0  0  0  0  0
  152.9924  143.0883  162.0985 C   0  0  0  0  0  0  0  0  0  0  0  0
  153.6159  142.0069  161.2091 C   0  0  0  0  0  0  0  0  0  0  0  0
  152.9485  142.2234  159.8622 C   0  0  0  0  0  0  0  0  0  0  0  0
  153.1263  141.4748  158.9020 O   0  0  0  0  0  0  0  0  0  0  0  0
  149.5965  139.2258  156.0498 H   0  0  0  0  0  0  0  0  0  0  0  0
  150.3056  139.7051  157.5860 H   0  0  0  0  0  0  0  0  0  0  0  0
  151.2403  139.8568  156.0998 H   0  0  0  0  0  0  0  0  0  0  0  0
  148.7017  141.4062  156.7839 H   0  0  0  0  0  0  0  0  0  0  0  0
  149.4003  142.8064  154.7055 H   0  0  0  0  0  0  0  0  0  0  0  0
  150.5065  141.5053  154.3150 H   0  0  0  0  0  0  0  0  0  0  0  0
  149.2867  139.0070  154.0585 H   0  0  0  0  0  0  0  0  0  0  0  0
  146.8607  138.5580  152.7638 H   0  0  0  0  0  0  0  0  0  0  0  0
  147.1082  142.6397  153.8712 H   0  0  0  0  0  0  0  0  0  0  0  0
  151.4113  142.6081  156.5437 H   0  0  0  0  0  0  0  0  0  0  0  0
  152.0668  144.0975  157.9324 H   0  0  0  0  0  0  0  0  0  0  0  0
  150.9174  144.7783  159.0610 H   0  0  0  0  0  0  0  0  0  0  0  0
  152.6638  144.9729  161.0497 H   0  0  0  0  0  0  0  0  0  0  0  0
  151.1714  144.1568  161.5309 H   0  0  0  0  0  0  0  0  0  0  0  0
  153.7528  143.6509  162.6416 H   0  0  0  0  0  0  0  0  0  0  0  0
  152.3345  142.6306  162.8385 H   0  0  0  0  0  0  0  0  0  0  0  0
  154.6932  142.1427  161.1100 H   0  0  0  0  0  0  0  0  0  0  0  0
  153.4222  141.0027  161.5876 H   0  0  0  0  0  0  0  0  0  0  0  0
  145.7162  140.8178  152.7476 H   0  0  0  0  0  0  0  0  0  0  0  0
  1  2  1  0  0  0  0
  1 19  1  0  0  0  0
  1 20  1  0  0  0  0
  1 21  1  0  0  0  0
  2  3  1  0  0  0  0
  2  9  1  0  0  0  0
  2 22  1  0  0  0  0
  3  4  1  0  0  0  0
  3 23  1  0  0  0  0
  3 24  1  0  0  0  0
  4  8  1  0  0  0  0
  4  5  1  0  0  0  0
  5  6  2  0  0  0  0
  5 25  1  0  0  0  0
  6  7  1  0  0  0  0
  6 26  1  0  0  0  0
  7  8  2  0  0  0  0
  7 37  1  0  0  0  0
  8 27  1  0  0  0  0
  9 10  1  0  0  0  0
  9 28  1  0  0  0  0
 10 11  2  0  0  0  0
 10 12  1  0  0  0  0
 12 13  1  0  0  0  0
 12 29  1  0  0  0  0
 12 30  1  0  0  0  0
 13 17  1  0  0  0  0
 13 14  1  0  0  0  0
 14 15  1  0  0  0  0
 14 31  1  0  0  0  0
 14 32  1  0  0  0  0
 15 16  1  0  0  0  0
 15 33  1  0  0  0  0
 15 34  1  0  0  0  0
 16 17  1  0  0  0  0
 16 35  1  0  0  0  0
 16 36  1  0  0  0  0
 17 18  2  0  0  0  0
M  CHG  1   7   1
M  END
> <s_m_source_file>
AV-unprocessed.smi

> <i_m_source_file_index>
3301

> <i_lp_mmshare_version>
43012

> <i_f3d_flags>
0

> <s_epik_input>
W2NIXTFuW2NIXVtjSF1uMVtDSDJdW0NAQEhdKFtDSDNdKVtOSF1DKD1PKVtDSDJdTjJbQ0gyXVtDSDJdW0NIMl1DMj1P

> <s_epik_cmdline>
J2VwaWtfcHl0aG9uJywgJy1waCcsICc3LjAnLCAnLXRuJywgJzgnLCAnLW1hJywgJzIwMCcsICctbWV0YWxfYmluZGluZycsICctaW1hZScsICc8aW5maWxlLm1hZT4nLCAnLW9tYWUnLCAnPG91dGZpbGUubWFlPic=

> <r_lp_tautomer_probability>
1

> <r_epik_Ionization_Penalty>
0.254232

> <r_epik_Ionization_Penalty_Charging>
0

> <r_epik_Ionization_Penalty_Neutral>
0.254232

> <r_epik_State_Penalty>
0.245698

> <r_epik_Charging_Adjusted_Penalty>
0.245698

> <i_epik_Tot_Q>
1

> <i_epik_Tot_abs_Q>
1

> <r_epik_Metal_State_Penalty>
0.5358

> <b_epik_Metal_Only>
0

> <s_lp_Force_Field>
OPLS_2005

> <r_lp_Energy>
13.6599

> <b_lp_Chiralities_Consistent>
1

> <s_lp_Variant>
AV-unprocessed.smi:3301-1

> <Gold.Version>
5.8.1

> <Gold.Id.Protein>
6NUR|6NUR_protein|mol2

> <Gold.PLP.Fitness>
47.3979

> <Gold.PLP.PLP>
-42.4513

> <Gold.PLP.part.hbond>
-2.4948

> <Gold.PLP.part.metal>
0.0000

> <Gold.PLP.part.buried>
-4.0055

> <Gold.PLP.part.nonpolar>
-36.2402

> <Gold.PLP.part.repulsive>
0.1635

> <Gold.PLP.ligand.clash>
0.0000

> <Gold.PLP.ligand.torsion>
0.5452

> <Gold.PLP.Chemscore.Hbond>
2.0000

> <Gold.PLP.Chemscore.CHOScore>
0.0000

> <Gold.PLP.Chemscore.Metal>
0.0000

> <Gold.Chemscore.Hbonds>
donor molecule, donor type, donor heavy atom, donor atom, acceptor molecule, acceptor atom, score
      L1  H     7    37       P1 10175  1.82

> <Gold.PLP.Chemscore.Internal.Correction>
0.0370

> <Gold.Rescore>
     Score         DG    S(hbond)    S(metal)    S(lipo)     H(rot)  DE(clash)    DE(int)     intcor
     10.58     -11.57       0.98        0.00      75.32       2.35       0.19       0.80       ----

> <Gold.Chemscore.Fitness>
10.5825

> <Gold.Chemscore.DG>
-11.5695

> <Gold.Chemscore.ZeroCoef>
-5.4800

> <Gold.Chemscore.Hbond>
0.9835

> <Gold.Chemscore.Metal>
0.0000

> <Gold.Chemscore.Lipo>
75.3245

> <Gold.Chemscore.Internal_Hbond>
0.0000

> <Gold.Chemscore.DEClash>
0.1912

> <Gold.Chemscore.DEInternal>
0.7957

> <Gold.Chemscore.Rot>
2.3470

> <Gold.Chemscore.Internal.Correction>
   9.000000E+99

> <Gold.Chemscore.Hbonds>
donor molecule, donor type, donor heavy atom, donor atom, acceptor molecule, acceptor atom, score
      L1  H     7    37       P1 10175  0.30

> <Gold.Chemscore.Hbond.Weighted>
-3.2848

> <Gold.Chemscore.Metal.Weighted>
-0.0000

> <Gold.Chemscore.Lipo.Weighted>
-8.8130

> <Gold.Chemscore.Internal_Hbond.Weighted>
0.0000

> <Gold.Chemscore.DEClash.Weighted>
0.1912

> <Gold.Chemscore.DEInternal.Weighted>
0.7957

> <Gold.Chemscore.Rot.Weighted>
6.0083

> <Gold.Chemscore.Internal.Correction.Weighted>
   9.000000E+99

> <Gold.Protein.RotatedTorsions>
[ 6907 6896 6895 6894 ] final  170.32 input  -60.11 | X-H torsion
[ 7974 7965 7964 7962 ] final   23.56 input  175.53 | X-H torsion
[ 8008 7997 7996 7995 ] final    9.58 input   59.86 | X-H torsion
[ 10167 10162 10161 10158 ] final  -59.52 input  -65.29 | X-H torsion
[ 10718 10713 10712 10709 ] final  -71.08 input   66.30 | X-H torsion
[ 10763 10752 10751 10750 ] final  -87.27 input  -60.55 | X-H torsion
[ 11005 11000 10999 10996 ] final   12.47 input  -57.11 | X-H torsion

> <Gold.Protein.ActiveResidues>
 VAL166  LYS551  ARG553  GLY616  TRP617  ASP618  TYR619  PRO620  LYS621  CYS622 
 ASP623  PHE694  ASN695  SER759  ASP760  ASP761  ALA762  ILE779  LEU786  VAL792 
 PHE793  MET794  SER795  GLU796  ALA797  LYS798  CYS799  TRP800  GLU811  SER814 

> <Gold.Protein.RotatedAtoms>
  151.8180  133.3390  159.3575 H   0  0  0  0  0  0  0  0  0  0  0  0  # atno 6907 bound_to 6896
  150.7304  134.5601  159.5847 H   0  0  0  0  0  0  0  0  0  0  0  0  # atno 6908 bound_to 6896
  152.3027  134.7593  160.0405 H   0  0  0  0  0  0  0  0  0  0  0  0  # atno 6909 bound_to 6896
  146.1978  139.7727  142.8784 H   0  0  0  0  0  0  0  0  0  0  0  0  # atno 7974 bound_to 7965
  154.7820  140.2820  155.6057 H   0  0  0  0  0  0  0  0  0  0  0  0  # atno 8008 bound_to 7997
  156.2951  140.2621  156.2575 H   0  0  0  0  0  0  0  0  0  0  0  0  # atno 8009 bound_to 7997
  154.9773  140.0375  157.2251 H   0  0  0  0  0  0  0  0  0  0  0  0  # atno 8010 bound_to 7997
  140.6130  143.2393  151.5664 H   0  0  0  0  0  0  0  0  0  0  0  0  # atno 10167 bound_to 10162
  156.0378  130.4344  150.2391 H   0  0  0  0  0  0  0  0  0  0  0  0  # atno 10718 bound_to 10713
  154.6317  135.5419  153.7688 H   0  0  0  0  0  0  0  0  0  0  0  0  # atno 10763 bound_to 10752
  153.0288  135.6437  154.1291 H   0  0  0  0  0  0  0  0  0  0  0  0  # atno 10764 bound_to 10752
  154.1220  135.2919  155.3186 H   0  0  0  0  0  0  0  0  0  0  0  0  # atno 10765 bound_to 10752
  140.4916  134.0834  155.7772 H   0  0  0  0  0  0  0  0  0  0  0  0  # atno 11005 bound_to 11000
  145.3584  141.0321  143.3298 LP  0  0  0  0  0  0  0  0  0  0  0  0  # atno 17320 bound_to 7965
  144.8618  139.5166  143.6808 LP  0  0  0  0  0  0  0  0  0  0  0  0  # atno 17321 bound_to 7965
  139.5376  144.2737  152.1284 LP  0  0  0  0  0  0  0  0  0  0  0  0  # atno 17342 bound_to 10162
  140.1941  144.4723  150.6464 LP  0  0  0  0  0  0  0  0  0  0  0  0  # atno 17343 bound_to 10162
  157.0489  131.0057  151.3260 LP  0  0  0  0  0  0  0  0  0  0  0  0  # atno 17370 bound_to 10713
  157.5155  130.7965  149.7751 LP  0  0  0  0  0  0  0  0  0  0  0  0  # atno 17371 bound_to 10713
  141.1481  133.9018  157.2166 LP  0  0  0  0  0  0  0  0  0  0  0  0  # atno 17394 bound_to 11000
  139.9766  135.0112  156.9645 LP  0  0  0  0  0  0  0  0  0  0  0  0  # atno 17395 bound_to 11000

$$$$
