AV-unprocessed.smi:1692|AV-procd|sdf|6782|dock1
  -GOLD-   22720 7543D 1   1.00000     0.00000
 Structure written by MMmdl.
 45 46  0  0  0  0  0  0  0  0  1 V2000
  152.3372  138.3439  154.5894 C   0  0  0  0  0  0  0  0  0  0  0  0
  151.1808  139.1770  155.1525 C   0  0  2  0  0  0  0  0  0  0  0  0
  150.0048  139.2781  154.1648 C   0  0  0  0  0  0  0  0  0  0  0  0
  148.9390  140.1350  154.6687 N   0  0  0  0  0  0  0  0  0  0  0  0
  147.8196  140.1797  153.7290 C   0  0  0  0  0  0  0  0  0  0  0  0
  146.7712  139.0680  153.9056 C   0  0  0  0  0  0  0  0  0  0  0  0
  146.0523  138.7411  152.5870 C   0  0  0  0  0  0  0  0  0  0  0  0
  146.4489  137.4380  152.0655 N   0  0  0  0  0  0  0  0  0  0  0  0
  145.6179  136.4063  151.8572 C   0  0  0  0  0  0  0  0  0  0  0  0
  144.4081  136.4538  152.0816 O   0  0  0  0  0  0  0  0  0  0  0  0
  146.2800  135.3379  151.3792 N   0  0  0  0  0  0  0  0  0  0  0  0
  145.7610  134.0568  151.0513 C   0  0  0  0  0  0  0  0  0  0  0  0
  144.3705  134.0213  150.8004 C   0  0  0  0  0  0  0  0  0  0  0  0
  143.7579  132.7983  150.4646 C   0  0  0  0  0  0  0  0  0  0  0  0
  144.5526  131.6408  150.3880 C   0  0  0  0  0  0  0  0  0  0  0  0
  145.9291  131.7627  150.6528 C   0  0  0  0  0  0  0  0  0  0  0  0
  146.5183  132.9337  150.9750 N   0  0  0  0  0  0  0  0  0  0  0  0
  149.4884  141.4595  154.9508 C   0  0  0  0  0  0  0  0  0  0  0  0
  150.6970  141.4143  155.9080 C   0  0  1  0  0  0  0  0  0  0  0  0
  150.3069  141.1345  157.3692 C   0  0  0  0  0  0  0  0  0  0  0  0
  151.6736  140.4856  155.4342 O   0  0  0  0  0  0  0  0  0  0  0  0
  152.0145  137.3276  154.3625 H   0  0  0  0  0  0  0  0  0  0  0  0
  153.1562  138.2798  155.3061 H   0  0  0  0  0  0  0  0  0  0  0  0
  152.7307  138.7833  153.6724 H   0  0  0  0  0  0  0  0  0  0  0  0
  150.8411  138.7099  156.0773 H   0  0  0  0  0  0  0  0  0  0  0  0
  150.3639  139.6607  153.2079 H   0  0  0  0  0  0  0  0  0  0  0  0
  149.6131  138.2787  153.9724 H   0  0  0  0  0  0  0  0  0  0  0  0
  147.3312  141.1539  153.7826 H   0  0  0  0  0  0  0  0  0  0  0  0
  148.2142  140.0990  152.7151 H   0  0  0  0  0  0  0  0  0  0  0  0
  147.2587  138.1710  154.2899 H   0  0  0  0  0  0  0  0  0  0  0  0
  146.0290  139.3620  154.6476 H   0  0  0  0  0  0  0  0  0  0  0  0
  144.9741  138.7252  152.7476 H   0  0  0  0  0  0  0  0  0  0  0  0
  146.2428  139.5172  151.8438 H   0  0  0  0  0  0  0  0  0  0  0  0
  147.4277  137.3123  151.8538 H   0  0  0  0  0  0  0  0  0  0  0  0
  147.2732  135.4515  151.2406 H   0  0  0  0  0  0  0  0  0  0  0  0
  143.7745  134.9203  150.8631 H   0  0  0  0  0  0  0  0  0  0  0  0
  142.6968  132.7505  150.2691 H   0  0  0  0  0  0  0  0  0  0  0  0
  144.1195  130.6848  150.1334 H   0  0  0  0  0  0  0  0  0  0  0  0
  146.5746  130.8982  150.6052 H   0  0  0  0  0  0  0  0  0  0  0  0
  149.7988  141.9277  154.0155 H   0  0  0  0  0  0  0  0  0  0  0  0
  148.7249  142.1071  155.3803 H   0  0  0  0  0  0  0  0  0  0  0  0
  151.1739  142.3945  155.8897 H   0  0  0  0  0  0  0  0  0  0  0  0
  149.6514  141.9170  157.7516 H   0  0  0  0  0  0  0  0  0  0  0  0
  151.1900  141.1021  158.0076 H   0  0  0  0  0  0  0  0  0  0  0  0
  149.7799  140.1871  157.4788 H   0  0  0  0  0  0  0  0  0  0  0  0
  1  2  1  0  0  0  0
  1 22  1  0  0  0  0
  1 23  1  0  0  0  0
  1 24  1  0  0  0  0
  2 21  1  0  0  0  0
  2  3  1  0  0  0  0
  2 25  1  0  0  0  0
  3  4  1  0  0  0  0
  3 26  1  0  0  0  0
  3 27  1  0  0  0  0
  4  5  1  0  0  0  0
  4 18  1  0  0  0  0
  5  6  1  0  0  0  0
  5 28  1  0  0  0  0
  5 29  1  0  0  0  0
  6  7  1  0  0  0  0
  6 30  1  0  0  0  0
  6 31  1  0  0  0  0
  7  8  1  0  0  0  0
  7 32  1  0  0  0  0
  7 33  1  0  0  0  0
  8  9  1  0  0  0  0
  8 34  1  0  0  0  0
  9 10  2  0  0  0  0
  9 11  1  0  0  0  0
 11 12  1  0  0  0  0
 11 35  1  0  0  0  0
 12 17  1  0  0  0  0
 12 13  2  0  0  0  0
 13 14  1  0  0  0  0
 13 36  1  0  0  0  0
 14 15  2  0  0  0  0
 14 37  1  0  0  0  0
 15 16  1  0  0  0  0
 15 38  1  0  0  0  0
 16 17  2  0  0  0  0
 16 39  1  0  0  0  0
 18 19  1  0  0  0  0
 18 40  1  0  0  0  0
 18 41  1  0  0  0  0
 19 20  1  0  0  0  0
 19 21  1  0  0  0  0
 19 42  1  0  0  0  0
 20 43  1  0  0  0  0
 20 44  1  0  0  0  0
 20 45  1  0  0  0  0
M  END
> <s_m_source_file>
AV-unprocessed.smi

> <i_m_source_file_index>
1692

> <i_lp_mmshare_version>
43012

> <i_f3d_flags>
0

> <s_epik_input>
W0NIM11bQ0BASF0xW0NIMl1OKFtDSDJdW0NASF0oTzEpW0NIM10pW0NIMl1bQ0gyXVtDSDJdW05IXUMoPU8pW05IXWMyW2NIXVtjSF1bY0hdW2NIXW4y

> <s_epik_cmdline>
J2VwaWtfcHl0aG9uJywgJy1waCcsICc3LjAnLCAnLXRuJywgJzgnLCAnLW1hJywgJzIwMCcsICctbWV0YWxfYmluZGluZycsICctaW1hZScsICc8aW5maWxlLm1hZT4nLCAnLW9tYWUnLCAnPG91dGZpbGUubWFlPic=

> <r_epik_Ionization_Penalty>
0.594711

> <r_epik_Ionization_Penalty_Charging>
0

> <r_epik_Ionization_Penalty_Neutral>
0.594711

> <r_epik_State_Penalty>
0.608529

> <r_epik_Charging_Adjusted_Penalty>
0.608529

> <i_epik_Tot_Q>
0

> <i_epik_Tot_abs_Q>
0

> <r_epik_Metal_State_Penalty>
0.608528

> <b_epik_Metal_Only>
0

> <s_lp_Force_Field>
OPLS_2005

> <r_lp_Energy>
25.8915

> <b_lp_Chiralities_Consistent>
1

> <s_lp_Variant>
AV-unprocessed.smi:1692-5

> <Gold.Version>
5.8.1

> <Gold.Id.Protein>
6NUR|6NUR_protein|mol2

> <Gold.PLP.Fitness>
47.4269

> <Gold.PLP.PLP>
-39.1402

> <Gold.PLP.part.hbond>
-3.0000

> <Gold.PLP.part.metal>
0.0000

> <Gold.PLP.part.buried>
-3.0079

> <Gold.PLP.part.nonpolar>
-34.5938

> <Gold.PLP.part.repulsive>
0.6182

> <Gold.PLP.ligand.clash>
0.0156

> <Gold.PLP.ligand.torsion>
0.9551

> <Gold.PLP.Chemscore.Hbond>
2.4312

> <Gold.PLP.Chemscore.CHOScore>
0.9316

> <Gold.PLP.Chemscore.Metal>
0.0000

> <Gold.Chemscore.Hbonds>
donor molecule, donor type, donor heavy atom, donor atom, acceptor molecule, acceptor atom, score
      L1  H     8    34       P1  7948  1.00
      L1  H    11    35       P1  7948  0.99
      P1  H  7989  7998       L1    21  0.39
      L1  C    16    39       P1 10747  0.97

> <Gold.PLP.Chemscore.Internal.Correction>
0.1239

> <Gold.Rescore>
     Score         DG    S(hbond)    S(metal)    S(lipo)     H(rot)  DE(clash)    DE(int)     intcor
     16.04     -18.55       1.84        0.00      96.96       1.73       0.11       2.40       ----

> <Gold.Chemscore.Fitness>
16.0384

> <Gold.Chemscore.DG>
-18.5472

> <Gold.Chemscore.ZeroCoef>
-5.4800

> <Gold.Chemscore.Hbond>
1.8392

> <Gold.Chemscore.Metal>
0.0000

> <Gold.Chemscore.Lipo>
96.9591

> <Gold.Chemscore.Internal_Hbond>
0.0000

> <Gold.Chemscore.DEClash>
0.1129

> <Gold.Chemscore.DEInternal>
2.3959

> <Gold.Chemscore.Rot>
1.7266

> <Gold.Chemscore.Internal.Correction>
   9.000000E+99

> <Gold.Chemscore.Hbonds>
donor molecule, donor type, donor heavy atom, donor atom, acceptor molecule, acceptor atom, score
      L1  H     8    34       P1  7948  0.95
      L1  H    11    35       P1  7948  0.80
      P1  H  7989  7998       L1    21  0.01

> <Gold.Chemscore.Hbond.Weighted>
-6.1430

> <Gold.Chemscore.Metal.Weighted>
-0.0000

> <Gold.Chemscore.Lipo.Weighted>
-11.3442

> <Gold.Chemscore.Internal_Hbond.Weighted>
0.0000

> <Gold.Chemscore.DEClash.Weighted>
0.1129

> <Gold.Chemscore.DEInternal.Weighted>
2.3959

> <Gold.Chemscore.Rot.Weighted>
4.4200

> <Gold.Chemscore.Internal.Correction.Weighted>
   9.000000E+99

> <Gold.Protein.RotatedTorsions>
[ 6907 6896 6895 6894 ] final   81.19 input  -60.11 | X-H torsion
[ 7974 7965 7964 7962 ] final   13.87 input  175.53 | X-H torsion
[ 8008 7997 7996 7995 ] final  -86.55 input   59.86 | X-H torsion
[ 10167 10162 10161 10158 ] final  -40.49 input  -65.29 | X-H torsion
[ 10718 10713 10712 10709 ] final    9.56 input   66.30 | X-H torsion
[ 10763 10752 10751 10750 ] final   51.48 input  -60.55 | X-H torsion
[ 11005 11000 10999 10996 ] final  152.77 input  -57.11 | X-H torsion

> <Gold.Protein.ActiveResidues>
 VAL166  LYS551  ARG553  GLY616  TRP617  ASP618  TYR619  PRO620  LYS621  CYS622 
 ASP623  PHE694  ASN695  SER759  ASP760  ASP761  ALA762  ILE779  LEU786  VAL792 
 PHE793  MET794  SER795  GLU796  ALA797  LYS798  CYS799  TRP800  GLU811  SER814 

> <Gold.Protein.RotatedAtoms>
  152.5260  134.3242  159.9159 H   0  0  0  0  0  0  0  0  0  0  0  0  # atno 6907 bound_to 6896
  151.3191  133.4041  159.2660 H   0  0  0  0  0  0  0  0  0  0  0  0  # atno 6908 bound_to 6896
  150.9974  134.9311  159.7992 H   0  0  0  0  0  0  0  0  0  0  0  0  # atno 6909 bound_to 6896
  146.2319  139.9125  142.8522 H   0  0  0  0  0  0  0  0  0  0  0  0  # atno 7974 bound_to 7965
  154.6532  140.0577  156.9979 H   0  0  0  0  0  0  0  0  0  0  0  0  # atno 8008 bound_to 7997
  155.1340  140.3259  155.4449 H   0  0  0  0  0  0  0  0  0  0  0  0  # atno 8009 bound_to 7997
  156.2585  140.1976  156.6458 H   0  0  0  0  0  0  0  0  0  0  0  0  # atno 8010 bound_to 7997
  140.7032  143.3150  151.2932 H   0  0  0  0  0  0  0  0  0  0  0  0  # atno 10167 bound_to 10162
  156.9682  130.5959  149.5667 H   0  0  0  0  0  0  0  0  0  0  0  0  # atno 10718 bound_to 10713
  152.9785  135.5844  154.4423 H   0  0  0  0  0  0  0  0  0  0  0  0  # atno 10763 bound_to 10752
  154.4023  135.2769  155.2091 H   0  0  0  0  0  0  0  0  0  0  0  0  # atno 10764 bound_to 10752
  154.3917  135.6124  153.5901 H   0  0  0  0  0  0  0  0  0  0  0  0  # atno 10765 bound_to 10752
  140.1338  134.8784  157.2239 H   0  0  0  0  0  0  0  0  0  0  0  0  # atno 11005 bound_to 11000
  145.2215  140.9937  143.4043 LP  0  0  0  0  0  0  0  0  0  0  0  0  # atno 17320 bound_to 7965
  144.9606  139.3984  143.6358 LP  0  0  0  0  0  0  0  0  0  0  0  0  # atno 17321 bound_to 7965
  139.6586  144.0231  152.2677 LP  0  0  0  0  0  0  0  0  0  0  0  0  # atno 17342 bound_to 10162
  139.9791  144.6441  150.7918 LP  0  0  0  0  0  0  0  0  0  0  0  0  # atno 17343 bound_to 10162
  156.0294  130.5386  150.8493 LP  0  0  0  0  0  0  0  0  0  0  0  0  # atno 17370 bound_to 10713
  157.5611  131.0946  150.9557 LP  0  0  0  0  0  0  0  0  0  0  0  0  # atno 17371 bound_to 10713
  140.2809  134.3351  155.7343 LP  0  0  0  0  0  0  0  0  0  0  0  0  # atno 17394 bound_to 11000
  141.2175  133.7477  156.9362 LP  0  0  0  0  0  0  0  0  0  0  0  0  # atno 17395 bound_to 11000

$$$$
