AV-unprocessed.smi:3331|AV-procd|sdf|12820|dock5
  -GOLD-   2272019193D 1   1.00000     0.00000
 Structure written by MMmdl.
 47 48  0  0  0  0  0  0  0  0  2 V2000
  149.6668  138.0008  157.4680 C   0  0  0  0  0  0  0  0  0  0  0  0
  150.7485  138.4244  156.4583 C   0  0  2  0  0  0  0  0  0  0  0  0
  151.2904  139.8433  156.7429 C   0  0  0  0  0  0  0  0  0  0  0  0
  150.3258  140.9599  156.2839 C   0  0  1  0  0  0  0  0  0  0  0  0
  150.9538  142.3500  156.4571 C   0  0  0  0  0  0  0  0  0  0  0  0
  149.8803  140.7162  154.8272 C   0  0  0  0  0  0  0  0  0  0  0  0
  149.2770  139.3800  154.7236 N   0  0  0  0  0  0  0  0  0  0  0  0
  147.9533  139.1948  154.4834 C   0  0  0  0  0  0  0  0  0  0  0  0
  147.1921  140.1409  154.2756 O   0  0  0  0  0  0  0  0  0  0  0  0
  147.3737  137.7663  154.4437 C   0  0  1  0  0  0  0  0  0  0  0  0
  146.2943  137.5496  155.5251 C   0  0  0  0  0  0  0  0  0  0  0  0
  146.8302  137.4905  153.0949 N   0  3  0  0  0  0  0  0  0  0  0  0
  145.9675  136.2961  152.9956 C   0  0  0  0  0  0  0  0  0  0  0  0
  145.5652  136.0314  151.5380 C   0  0  0  0  0  0  0  0  0  0  0  0
  144.8015  134.8061  151.4060 N   0  0  0  0  0  0  0  0  0  0  0  0
  144.8761  133.8499  150.4149 C   0  0  0  0  0  0  0  0  0  0  0  0
  143.9656  132.8790  150.7193 C   0  0  0  0  0  0  0  0  0  0  0  0
  143.3775  133.3343  151.9326 C   0  0  0  0  0  0  0  0  0  0  0  0
  143.8816  134.4875  152.3419 N   0  0  0  0  0  0  0  0  0  0  0  0
  150.2687  138.3276  154.9937 C   0  0  0  0  0  0  0  0  0  0  0  0
  148.7892  138.6454  157.4229 H   0  0  0  0  0  0  0  0  0  0  0  0
  150.0496  138.0378  158.4882 H   0  0  0  0  0  0  0  0  0  0  0  0
  149.3371  136.9787  157.2809 H   0  0  0  0  0  0  0  0  0  0  0  0
  151.5779  137.7269  156.5815 H   0  0  0  0  0  0  0  0  0  0  0  0
  151.5232  139.9549  157.8026 H   0  0  0  0  0  0  0  0  0  0  0  0
  152.2374  139.9615  156.2145 H   0  0  0  0  0  0  0  0  0  0  0  0
  149.4378  140.9253  156.9168 H   0  0  0  0  0  0  0  0  0  0  0  0
  151.8537  142.4574  155.8506 H   0  0  0  0  0  0  0  0  0  0  0  0
  151.2292  142.5289  157.4968 H   0  0  0  0  0  0  0  0  0  0  0  0
  150.2577  143.1354  156.1616 H   0  0  0  0  0  0  0  0  0  0  0  0
  149.2033  141.5108  154.5111 H   0  0  0  0  0  0  0  0  0  0  0  0
  150.7370  140.7783  154.1541 H   0  0  0  0  0  0  0  0  0  0  0  0
  148.1806  137.0673  154.6621 H   0  0  0  0  0  0  0  0  0  0  0  0
  146.6687  137.8148  156.5149 H   0  0  0  0  0  0  0  0  0  0  0  0
  145.9829  136.5066  155.5763 H   0  0  0  0  0  0  0  0  0  0  0  0
  145.4040  138.1502  155.3338 H   0  0  0  0  0  0  0  0  0  0  0  0
  146.3214  138.3029  152.7763 H   0  0  0  0  0  0  0  0  0  0  0  0
  146.5034  135.4348  153.3971 H   0  0  0  0  0  0  0  0  0  0  0  0
  145.0732  136.4333  153.6039 H   0  0  0  0  0  0  0  0  0  0  0  0
  144.9648  136.8572  151.1538 H   0  0  0  0  0  0  0  0  0  0  0  0
  146.4489  135.9586  150.9021 H   0  0  0  0  0  0  0  0  0  0  0  0
  145.5615  133.9384  149.5846 H   0  0  0  0  0  0  0  0  0  0  0  0
  143.7530  131.9790  150.1614 H   0  0  0  0  0  0  0  0  0  0  0  0
  142.6052  132.8645  152.5237 H   0  0  0  0  0  0  0  0  0  0  0  0
  151.1180  138.4737  154.3244 H   0  0  0  0  0  0  0  0  0  0  0  0
  149.9205  137.3195  154.7785 H   0  0  0  0  0  0  0  0  0  0  0  0
  147.6157  137.3444  152.4768 H   0  0  0  0  0  0  0  0  0  0  0  0
  1  2  1  0  0  0  0
  1 21  1  0  0  0  0
  1 22  1  0  0  0  0
  1 23  1  0  0  0  0
  2 20  1  0  0  0  0
  2  3  1  0  0  0  0
  2 24  1  0  0  0  0
  3  4  1  0  0  0  0
  3 25  1  0  0  0  0
  3 26  1  0  0  0  0
  4  5  1  0  0  0  0
  4  6  1  0  0  0  0
  4 27  1  0  0  0  0
  5 28  1  0  0  0  0
  5 29  1  0  0  0  0
  5 30  1  0  0  0  0
  6  7  1  0  0  0  0
  6 31  1  0  0  0  0
  6 32  1  0  0  0  0
  7  8  1  0  0  0  0
  7 20  1  0  0  0  0
  8  9  2  0  0  0  0
  8 10  1  0  0  0  0
 10 11  1  0  0  0  0
 10 12  1  0  0  0  0
 10 33  1  0  0  0  0
 11 34  1  0  0  0  0
 11 35  1  0  0  0  0
 11 36  1  0  0  0  0
 12 13  1  0  0  0  0
 12 37  1  0  0  0  0
 12 47  1  0  0  0  0
 13 14  1  0  0  0  0
 13 38  1  0  0  0  0
 13 39  1  0  0  0  0
 14 15  1  0  0  0  0
 14 40  1  0  0  0  0
 14 41  1  0  0  0  0
 15 19  1  0  0  0  0
 15 16  1  0  0  0  0
 16 17  2  0  0  0  0
 16 42  1  0  0  0  0
 17 18  1  0  0  0  0
 17 43  1  0  0  0  0
 18 19  2  0  0  0  0
 18 44  1  0  0  0  0
 20 45  1  0  0  0  0
 20 46  1  0  0  0  0
M  CHG  1  12   1
M  END
> <s_m_source_file>
AV-unprocessed.smi

> <i_m_source_file_index>
3331

> <i_lp_mmshare_version>
43012

> <i_f3d_flags>
0

> <s_epik_input>
W0NIM11bQ0BASF0xW0NIMl1bQ0BASF0oW0NIM10pW0NIMl1OKFtDSDJdMSlDKD1PKVtDQEhdKFtDSDNdKVtOSF1bQ0gyXVtDSDJdbjJbY0hdW2NIXVtjSF1uMg==

> <s_epik_cmdline>
J2VwaWtfcHl0aG9uJywgJy1waCcsICc3LjAnLCAnLXRuJywgJzgnLCAnLW1hJywgJzIwMCcsICctbWV0YWxfYmluZGluZycsICctaW1hZScsICc8aW5maWxlLm1hZT4nLCAnLW9tYWUnLCAnPG91dGZpbGUubWFlPic=

> <r_lp_tautomer_probability>
1

> <r_epik_Ionization_Penalty>
0.189706

> <r_epik_Ionization_Penalty_Charging>
0.189703

> <r_epik_Ionization_Penalty_Neutral>
2.45875e-06

> <r_epik_State_Penalty>
0.179341

> <r_epik_Charging_Adjusted_Penalty>
0.369044

> <i_epik_Tot_Q>
1

> <i_epik_Tot_abs_Q>
1

> <r_epik_Metal_State_Penalty>
0.179578

> <b_epik_Metal_Only>
0

> <s_lp_Force_Field>
OPLS_2005

> <r_lp_Energy>
29.8241

> <b_lp_Chiralities_Consistent>
1

> <s_lp_Variant>
AV-unprocessed.smi:3331-4

> <Gold.Version>
5.8.1

> <Gold.Id.Protein>
6NUR|6NUR_protein|mol2

> <Gold.PLP.Fitness>
38.5596

> <Gold.PLP.PLP>
-27.5051

> <Gold.PLP.part.hbond>
-1.0000

> <Gold.PLP.part.metal>
0.0000

> <Gold.PLP.part.buried>
-3.5353

> <Gold.PLP.part.nonpolar>
-24.2812

> <Gold.PLP.part.repulsive>
0.2646

> <Gold.PLP.ligand.clash>
0.0000

> <Gold.PLP.ligand.torsion>
0.4285

> <Gold.PLP.Chemscore.Hbond>
2.0000

> <Gold.PLP.Chemscore.CHOScore>
1.9455

> <Gold.PLP.Chemscore.Metal>
0.0000

> <Gold.Chemscore.Hbonds>
donor molecule, donor type, donor heavy atom, donor atom, acceptor molecule, acceptor atom, score
      L1  H    12    47       P1  7948  1.98
      L1  C    16    42       P1  7921  1.00
      L1  C    18    44       P1 10957  0.82

> <Gold.PLP.Chemscore.Internal.Correction>
0.0752

> <Gold.Rescore>
     Score         DG    S(hbond)    S(metal)    S(lipo)     H(rot)  DE(clash)    DE(int)     intcor
     12.52     -12.73       0.97        0.00      72.01       1.73       0.02       0.19       ----

> <Gold.Chemscore.Fitness>
12.5210

> <Gold.Chemscore.DG>
-12.7251

> <Gold.Chemscore.ZeroCoef>
-5.4800

> <Gold.Chemscore.Hbond>
0.9693

> <Gold.Chemscore.Metal>
0.0000

> <Gold.Chemscore.Lipo>
72.0069

> <Gold.Chemscore.Internal_Hbond>
0.0000

> <Gold.Chemscore.DEClash>
0.0174

> <Gold.Chemscore.DEInternal>
0.1867

> <Gold.Chemscore.Rot>
1.7254

> <Gold.Chemscore.Internal.Correction>
   9.000000E+99

> <Gold.Chemscore.Hbonds>
donor molecule, donor type, donor heavy atom, donor atom, acceptor molecule, acceptor atom, score
      L1  H    12    47       P1  7948  0.94

> <Gold.Chemscore.Hbond.Weighted>
-3.2373

> <Gold.Chemscore.Metal.Weighted>
-0.0000

> <Gold.Chemscore.Lipo.Weighted>
-8.4248

> <Gold.Chemscore.Internal_Hbond.Weighted>
0.0000

> <Gold.Chemscore.DEClash.Weighted>
0.0174

> <Gold.Chemscore.DEInternal.Weighted>
0.1867

> <Gold.Chemscore.Rot.Weighted>
4.4170

> <Gold.Chemscore.Internal.Correction.Weighted>
   9.000000E+99

> <Gold.Protein.RotatedTorsions>
[ 6907 6896 6895 6894 ] final  141.41 input  -60.11 | X-H torsion
[ 7974 7965 7964 7962 ] final  -55.03 input  175.53 | X-H torsion
[ 8008 7997 7996 7995 ] final -126.61 input   59.86 | X-H torsion
[ 10167 10162 10161 10158 ] final  110.74 input  -65.29 | X-H torsion
[ 10718 10713 10712 10709 ] final  -74.16 input   66.30 | X-H torsion
[ 10763 10752 10751 10750 ] final  143.21 input  -60.55 | X-H torsion
[ 11005 11000 10999 10996 ] final  -20.21 input  -57.11 | X-H torsion

> <Gold.Protein.ActiveResidues>
 VAL166  LYS551  ARG553  GLY616  TRP617  ASP618  TYR619  PRO620  LYS621  CYS622 
 ASP623  PHE694  ASN695  SER759  ASP760  ASP761  ALA762  ILE779  LEU786  VAL792 
 PHE793  MET794  SER795  GLU796  ALA797  LYS798  CYS799  TRP800  GLU811  SER814 

> <Gold.Protein.RotatedAtoms>
  152.2313  133.5060  159.5217 H   0  0  0  0  0  0  0  0  0  0  0  0  # atno 6907 bound_to 6896
  150.7038  134.1212  159.4044 H   0  0  0  0  0  0  0  0  0  0  0  0  # atno 6908 bound_to 6896
  151.9134  135.0329  160.0567 H   0  0  0  0  0  0  0  0  0  0  0  0  # atno 6909 bound_to 6896
  145.8788  140.8160  142.9850 H   0  0  0  0  0  0  0  0  0  0  0  0  # atno 7974 bound_to 7965
  155.2326  140.0426  157.2964 H   0  0  0  0  0  0  0  0  0  0  0  0  # atno 8008 bound_to 7997
  154.5879  140.2418  155.7932 H   0  0  0  0  0  0  0  0  0  0  0  0  # atno 8009 bound_to 7997
  156.2239  140.2961  156.0027 H   0  0  0  0  0  0  0  0  0  0  0  0  # atno 8010 bound_to 7997
  139.6665  144.7127  151.1768 H   0  0  0  0  0  0  0  0  0  0  0  0  # atno 10167 bound_to 10162
  156.0253  130.4410  150.2850 H   0  0  0  0  0  0  0  0  0  0  0  0  # atno 10718 bound_to 10713
  153.9686  135.2953  155.3429 H   0  0  0  0  0  0  0  0  0  0  0  0  # atno 10763 bound_to 10752
  154.7335  135.5057  153.9005 H   0  0  0  0  0  0  0  0  0  0  0  0  # atno 10764 bound_to 10752
  153.0911  135.6708  153.9964 H   0  0  0  0  0  0  0  0  0  0  0  0  # atno 10765 bound_to 10752
  140.8442  133.7904  155.9894 H   0  0  0  0  0  0  0  0  0  0  0  0  # atno 11005 bound_to 11000
  144.6727  140.1352  143.7441 LP  0  0  0  0  0  0  0  0  0  0  0  0  # atno 17320 bound_to 7965
  145.9048  139.2452  143.1472 LP  0  0  0  0  0  0  0  0  0  0  0  0  # atno 17321 bound_to 7965
  140.7601  143.5912  150.8795 LP  0  0  0  0  0  0  0  0  0  0  0  0  # atno 17342 bound_to 10162
  139.9574  143.6203  152.3012 LP  0  0  0  0  0  0  0  0  0  0  0  0  # atno 17343 bound_to 10162
  157.0954  131.0181  151.3106 LP  0  0  0  0  0  0  0  0  0  0  0  0  # atno 17370 bound_to 10713
  157.4822  130.7771  149.7425 LP  0  0  0  0  0  0  0  0  0  0  0  0  # atno 17371 bound_to 10713
  140.8862  134.2551  157.5119 LP  0  0  0  0  0  0  0  0  0  0  0  0  # atno 17394 bound_to 11000
  139.8703  134.9639  156.4477 LP  0  0  0  0  0  0  0  0  0  0  0  0  # atno 17395 bound_to 11000

$$$$
