AV-unprocessed.smi:910|AV-procd|sdf|4121|dock1
  -GOLD-   22720 2 23D 1   1.00000     0.00000
 Structure written by MMmdl.
 46 47  0  0  0  0  0  0  0  0  1 V2000
  145.4212  131.9174  150.3286 C   0  0  0  0  0  0  0  0  0  0  0  0
  146.1605  132.4874  151.5188 C   0  0  0  0  0  0  0  0  0  0  0  0
  147.3947  132.0307  151.8940 N   0  0  0  0  0  0  0  0  0  0  0  0
  147.7974  132.7430  153.0128 C   0  0  0  0  0  0  0  0  0  0  0  0
  148.9036  132.6213  153.6786 N   0  0  0  0  0  0  0  0  0  0  0  0
  149.0919  133.4434  154.7767 C   0  0  0  0  0  0  0  0  0  0  0  0
  149.1822  133.1045  155.9612 O   0  0  0  0  0  0  0  0  0  0  0  0
  149.0926  134.7332  154.4052 N   0  0  0  0  0  0  0  0  0  0  0  0
  149.1063  135.8732  155.3173 C   0  0  0  0  0  0  0  0  0  0  0  0
  150.2047  136.8706  154.9234 C   0  0  0  0  0  0  0  0  0  0  0  0
  149.8203  138.1639  155.3652 O   0  0  0  0  0  0  0  0  0  0  0  0
  150.2344  139.2479  154.5431 C   0  0  1  0  0  0  0  0  0  0  0  0
  149.2293  140.4196  154.6193 C   0  0  0  0  0  0  0  0  0  0  0  0
  149.1442  141.0024  156.0394 C   0  0  0  0  0  0  0  0  0  0  0  0
  150.5276  141.4440  156.5372 C   0  0  0  0  0  0  0  0  0  0  0  0
  151.5435  140.2929  156.4598 C   0  0  0  0  0  0  0  0  0  0  0  0
  151.6264  139.7042  155.0358 C   0  0  1  0  0  0  0  0  0  0  0  0
  152.6694  138.5795  154.9438 C   0  0  0  0  0  0  0  0  0  0  0  0
  146.7867  133.6355  153.2903 O   0  0  0  0  0  0  0  0  0  0  0  0
  145.8046  133.4495  152.3662 C   0  0  0  0  0  0  0  0  0  0  0  0
  144.5573  134.3002  152.4469 C   0  0  0  0  0  0  0  0  0  0  0  0
  144.4689  131.4911  150.6452 H   0  0  0  0  0  0  0  0  0  0  0  0
  146.0049  131.1346  149.8432 H   0  0  0  0  0  0  0  0  0  0  0  0
  145.2220  132.7016  149.5978 H   0  0  0  0  0  0  0  0  0  0  0  0
  147.8887  131.2951  151.4099 H   0  0  0  0  0  0  0  0  0  0  0  0
  149.0086  134.9393  153.4204 H   0  0  0  0  0  0  0  0  0  0  0  0
  148.1337  136.3668  155.3500 H   0  0  0  0  0  0  0  0  0  0  0  0
  149.2956  135.4989  156.3235 H   0  0  0  0  0  0  0  0  0  0  0  0
  151.1514  136.5910  155.3871 H   0  0  0  0  0  0  0  0  0  0  0  0
  150.3487  136.8412  153.8439 H   0  0  0  0  0  0  0  0  0  0  0  0
  150.3209  138.9055  153.5106 H   0  0  0  0  0  0  0  0  0  0  0  0
  149.5458  141.2045  153.9311 H   0  0  0  0  0  0  0  0  0  0  0  0
  148.2392  140.1173  154.2814 H   0  0  0  0  0  0  0  0  0  0  0  0
  148.4573  141.8488  156.0542 H   0  0  0  0  0  0  0  0  0  0  0  0
  148.7295  140.2571  156.7191 H   0  0  0  0  0  0  0  0  0  0  0  0
  150.8805  142.2823  155.9356 H   0  0  0  0  0  0  0  0  0  0  0  0
  150.4531  141.8099  157.5608 H   0  0  0  0  0  0  0  0  0  0  0  0
  152.5241  140.6526  156.7731 H   0  0  0  0  0  0  0  0  0  0  0  0
  151.2640  139.5122  157.1686 H   0  0  0  0  0  0  0  0  0  0  0  0
  151.9626  140.5015  154.3714 H   0  0  0  0  0  0  0  0  0  0  0  0
  152.4207  137.7487  155.6051 H   0  0  0  0  0  0  0  0  0  0  0  0
  153.6591  138.9403  155.2249 H   0  0  0  0  0  0  0  0  0  0  0  0
  152.7374  138.1887  153.9283 H   0  0  0  0  0  0  0  0  0  0  0  0
  144.3632  134.7795  151.4873 H   0  0  0  0  0  0  0  0  0  0  0  0
  144.6709  135.0762  153.2044 H   0  0  0  0  0  0  0  0  0  0  0  0
  143.6968  133.6846  152.7089 H   0  0  0  0  0  0  0  0  0  0  0  0
  1 22  1  0  0  0  0
  1 23  1  0  0  0  0
  1 24  1  0  0  0  0
  1  2  1  0  0  0  0
  2  3  1  0  0  0  0
  2 20  2  0  0  0  0
  3 25  1  0  0  0  0
  3  4  1  0  0  0  0
  4 19  1  0  0  0  0
  4  5  2  0  0  0  0
  5  6  1  0  0  0  0
  6  8  1  0  0  0  0
  6  7  2  0  0  0  0
  8  9  1  0  0  0  0
  8 26  1  0  0  0  0
  9 10  1  0  0  0  0
  9 27  1  0  0  0  0
  9 28  1  0  0  0  0
 10 11  1  0  0  0  0
 10 29  1  0  0  0  0
 10 30  1  0  0  0  0
 11 12  1  0  0  0  0
 12 17  1  0  0  0  0
 12 13  1  0  0  0  0
 12 31  1  0  0  0  0
 13 14  1  0  0  0  0
 13 32  1  0  0  0  0
 13 33  1  0  0  0  0
 14 15  1  0  0  0  0
 14 34  1  0  0  0  0
 14 35  1  0  0  0  0
 15 16  1  0  0  0  0
 15 36  1  0  0  0  0
 15 37  1  0  0  0  0
 16 17  1  0  0  0  0
 16 38  1  0  0  0  0
 16 39  1  0  0  0  0
 17 18  1  0  0  0  0
 17 40  1  0  0  0  0
 18 41  1  0  0  0  0
 18 42  1  0  0  0  0
 18 43  1  0  0  0  0
 19 20  1  0  0  0  0
 20 21  1  0  0  0  0
 21 44  1  0  0  0  0
 21 45  1  0  0  0  0
 21 46  1  0  0  0  0
M  END
> <s_m_source_file>
AV-unprocessed.smi

> <i_m_source_file_index>
910

> <i_lp_mmshare_version>
43012

> <i_f3d_flags>
0

> <s_epik_input>
W0NIM11jMW5jKG9jMVtDSDNdKVtOSF1DKD1PKVtOSF1bQ0gyXVtDSDJdT1tDQEBIXTJbQ0gyXVtDSDJdW0NIMl1bQ0gyXVtDQEhdMltDSDNd

> <s_epik_cmdline>
J2VwaWtfcHl0aG9uJywgJy1waCcsICc3LjAnLCAnLXRuJywgJzgnLCAnLW1hJywgJzIwMCcsICctbWV0YWxfYmluZGluZycsICctaW1hZScsICc8aW5maWxlLm1hZT4nLCAnLW9tYWUnLCAnPG91dGZpbGUubWFlPic=

> <r_lp_tautomer_probability>
0.107061

> <r_epik_Ionization_Penalty>
0.727192

> <r_epik_Ionization_Penalty_Charging>
0.726719

> <r_epik_Ionization_Penalty_Neutral>
0.000473387

> <r_epik_State_Penalty>
2.53712

> <r_epik_Charging_Adjusted_Penalty>
3.26383

> <i_epik_Tot_Q>
0

> <i_epik_Tot_abs_Q>
0

> <r_epik_Metal_State_Penalty>
3.71015

> <b_epik_Metal_Only>
0

> <s_lp_Force_Field>
OPLS_2005

> <r_lp_Energy>
28.3743

> <b_lp_Chiralities_Consistent>
1

> <s_lp_Variant>
AV-unprocessed.smi:910-6

> <Gold.Version>
5.8.1

> <Gold.Id.Protein>
6NUR|6NUR_protein|mol2

> <Gold.PLP.Fitness>
40.4329

> <Gold.PLP.PLP>
-37.1838

> <Gold.PLP.part.hbond>
-1.9320

> <Gold.PLP.part.metal>
0.0000

> <Gold.PLP.part.buried>
-2.4933

> <Gold.PLP.part.nonpolar>
-33.4509

> <Gold.PLP.part.repulsive>
0.3842

> <Gold.PLP.ligand.clash>
0.0230

> <Gold.PLP.ligand.torsion>
1.3959

> <Gold.PLP.Chemscore.Hbond>
2.0000

> <Gold.PLP.Chemscore.CHOScore>
0.0000

> <Gold.PLP.Chemscore.Metal>
0.0000

> <Gold.Chemscore.Hbonds>
donor molecule, donor type, donor heavy atom, donor atom, acceptor molecule, acceptor atom, score
      L1  H     3    25       P1 10747  0.98
      L1  H     8    26       P1  7948  1.00

> <Gold.PLP.Chemscore.Internal.Correction>
0.0640

> <Gold.Rescore>
     Score         DG    S(hbond)    S(metal)    S(lipo)     H(rot)  DE(clash)    DE(int)     intcor
     13.48     -16.41       1.77        0.00      79.14       1.66       0.18       2.75       ----

> <Gold.Chemscore.Fitness>
13.4768

> <Gold.Chemscore.DG>
-16.4070

> <Gold.Chemscore.ZeroCoef>
-5.4800

> <Gold.Chemscore.Hbond>
1.7699

> <Gold.Chemscore.Metal>
0.0000

> <Gold.Chemscore.Lipo>
79.1385

> <Gold.Chemscore.Internal_Hbond>
0.0000

> <Gold.Chemscore.DEClash>
0.1763

> <Gold.Chemscore.DEInternal>
2.7539

> <Gold.Chemscore.Rot>
1.6576

> <Gold.Chemscore.Internal.Correction>
   9.000000E+99

> <Gold.Chemscore.Hbonds>
donor molecule, donor type, donor heavy atom, donor atom, acceptor molecule, acceptor atom, score
      L1  H     3    25       P1 10747  0.93
      L1  H     8    26       P1  7948  0.24

> <Gold.Chemscore.Hbond.Weighted>
-5.9114

> <Gold.Chemscore.Metal.Weighted>
-0.0000

> <Gold.Chemscore.Lipo.Weighted>
-9.2592

> <Gold.Chemscore.Internal_Hbond.Weighted>
0.0000

> <Gold.Chemscore.DEClash.Weighted>
0.1763

> <Gold.Chemscore.DEInternal.Weighted>
2.7539

> <Gold.Chemscore.Rot.Weighted>
4.2436

> <Gold.Chemscore.Internal.Correction.Weighted>
   9.000000E+99

> <Gold.Protein.RotatedTorsions>
[ 6907 6896 6895 6894 ] final  105.90 input  -60.11 | X-H torsion
[ 7974 7965 7964 7962 ] final -146.53 input  175.53 | X-H torsion
[ 8008 7997 7996 7995 ] final   62.23 input   59.86 | X-H torsion
[ 10167 10162 10161 10158 ] final -101.35 input  -65.29 | X-H torsion
[ 10718 10713 10712 10709 ] final  -57.71 input   66.30 | X-H torsion
[ 10763 10752 10751 10750 ] final   -6.90 input  -60.55 | X-H torsion
[ 11005 11000 10999 10996 ] final   83.34 input  -57.11 | X-H torsion

> <Gold.Protein.ActiveResidues>
 VAL166  LYS551  ARG553  GLY616  TRP617  ASP618  TYR619  PRO620  LYS621  CYS622 
 ASP623  PHE694  ASN695  SER759  ASP760  ASP761  ALA762  ILE779  LEU786  VAL792 
 PHE793  MET794  SER795  GLU796  ALA797  LYS798  CYS799  TRP800  GLU811  SER814 

> <Gold.Protein.RotatedAtoms>
  152.5214  133.9460  159.7649 H   0  0  0  0  0  0  0  0  0  0  0  0  # atno 6907 bound_to 6896
  150.9780  133.6266  159.2734 H   0  0  0  0  0  0  0  0  0  0  0  0  # atno 6908 bound_to 6896
  151.3454  135.0878  159.9438 H   0  0  0  0  0  0  0  0  0  0  0  0  # atno 6909 bound_to 6896
  144.8153  140.5444  143.5615 H   0  0  0  0  0  0  0  0  0  0  0  0  # atno 7974 bound_to 7965
  155.6109  140.3495  155.4622 H   0  0  0  0  0  0  0  0  0  0  0  0  # atno 8008 bound_to 7997
  156.0155  140.1242  157.0435 H   0  0  0  0  0  0  0  0  0  0  0  0  # atno 8009 bound_to 7997
  154.4296  140.1073  156.5875 H   0  0  0  0  0  0  0  0  0  0  0  0  # atno 8010 bound_to 7997
  140.2422  143.3530  152.0791 H   0  0  0  0  0  0  0  0  0  0  0  0  # atno 10167 bound_to 10162
  156.1190  130.4168  150.0477 H   0  0  0  0  0  0  0  0  0  0  0  0  # atno 10718 bound_to 10713
  153.4189  135.7009  153.6308 H   0  0  0  0  0  0  0  0  0  0  0  0  # atno 10763 bound_to 10752
  153.4771  135.3702  155.2422 H   0  0  0  0  0  0  0  0  0  0  0  0  # atno 10764 bound_to 10752
  154.8721  135.4057  154.3554 H   0  0  0  0  0  0  0  0  0  0  0  0  # atno 10765 bound_to 10752
  139.9034  134.8138  156.2297 H   0  0  0  0  0  0  0  0  0  0  0  0  # atno 11005 bound_to 11000
  145.5228  139.1476  143.3542 LP  0  0  0  0  0  0  0  0  0  0  0  0  # atno 17320 bound_to 7965
  146.2456  140.5369  142.8915 LP  0  0  0  0  0  0  0  0  0  0  0  0  # atno 17321 bound_to 7965
  139.5073  144.6830  151.5960 LP  0  0  0  0  0  0  0  0  0  0  0  0  # atno 17342 bound_to 10162
  140.6105  143.9446  150.6449 LP  0  0  0  0  0  0  0  0  0  0  0  0  # atno 17343 bound_to 10162
  156.8421  130.9429  151.3631 LP  0  0  0  0  0  0  0  0  0  0  0  0  # atno 17370 bound_to 10713
  157.6374  130.8777  149.9384 LP  0  0  0  0  0  0  0  0  0  0  0  0  # atno 17371 bound_to 10713
  141.0353  133.6966  156.1502 LP  0  0  0  0  0  0  0  0  0  0  0  0  # atno 17394 bound_to 11000
  140.7036  134.4538  157.5585 LP  0  0  0  0  0  0  0  0  0  0  0  0  # atno 17395 bound_to 11000

$$$$
