AV-unprocessed.smi:169|AV-procd|sdf|1403|dock8
  -GOLD-   2262019153D 1   1.00000     0.00000
 Structure written by MMmdl.
 56 60  0  0  0  0  0  0  0  0  2 V2000
  141.8802  135.0605  163.4725 C   0  0  0  0  0  0  0  0  0  0  0  0
  143.3139  134.6330  163.1239 C   0  0  0  0  0  0  0  0  0  0  0  0
  143.6985  134.9481  161.7193 N   0  3  1  0  0  0  0  0  0  0  0  0
  144.0999  136.3864  161.4933 C   0  0  0  0  0  0  0  0  0  0  0  0
  145.4361  136.8784  162.1744 C   0  0  0  0  0  0  0  0  0  0  0  0
  146.7833  136.3910  161.5257 C   0  0  1  0  0  0  0  0  0  0  0  0
  147.6916  135.5051  162.4495 C   0  0  0  0  0  0  0  0  0  0  0  0
  147.2888  134.0232  162.1354 C   0  0  0  0  0  0  0  0  0  0  0  0
  146.1111  134.2796  161.1921 C   0  0  3  0  0  0  0  0  0  0  0  0
  144.6140  133.9001  161.1215 C   0  0  0  0  0  0  0  0  0  0  0  0
  146.4555  135.4763  160.4460 N   0  0  0  0  0  0  0  0  0  0  0  0
  147.2852  135.3246  159.3758 C   0  0  0  0  0  0  0  0  0  0  0  0
  147.1288  134.2506  158.5572 N   0  0  0  0  0  0  0  0  0  0  0  0
  147.9234  134.0794  157.4974 C   0  0  0  0  0  0  0  0  0  0  0  0
  148.9292  134.8474  157.0778 N   0  0  0  0  0  0  0  0  0  0  0  0
  149.1048  135.9219  157.8982 C   0  0  0  0  0  0  0  0  0  0  0  0
  148.3402  136.2317  159.0596 C   0  0  0  0  0  0  0  0  0  0  0  0
  148.8299  137.3955  159.6420 N   0  0  0  0  0  0  0  0  0  0  0  0
  149.8174  137.7544  158.8688 C   0  0  0  0  0  0  0  0  0  0  0  0
  150.0425  136.9346  157.7867 N   0  0  0  0  0  0  0  0  0  0  0  0
  151.0687  137.0916  156.7653 C   0  0  0  0  0  0  0  0  0  0  0  0
  150.5459  137.5550  155.3839 C   0  0  0  0  0  0  0  0  0  0  0  0
  149.6566  136.4420  154.8138 C   0  0  0  0  0  0  0  0  0  0  0  0
  150.3447  135.2084  154.7710 O   0  0  0  0  0  0  0  0  0  0  0  0
  149.9592  138.9758  155.2980 C   0  0  0  0  0  0  0  0  0  0  0  0
  151.1745  139.4983  154.7208 O   0  0  0  0  0  0  0  0  0  0  0  0
  151.5841  138.1480  154.4174 C   0  0  0  0  0  0  0  0  0  0  0  0
  141.5946  134.6719  164.4502 H   0  0  0  0  0  0  0  0  0  0  0  0
  141.1636  134.6778  162.7449 H   0  0  0  0  0  0  0  0  0  0  0  0
  141.7745  136.1441  163.5190 H   0  0  0  0  0  0  0  0  0  0  0  0
  144.0222  135.0701  163.8277 H   0  0  0  0  0  0  0  0  0  0  0  0
  143.3705  133.5534  163.2686 H   0  0  0  0  0  0  0  0  0  0  0  0
  144.1341  136.5724  160.4191 H   0  0  0  0  0  0  0  0  0  0  0  0
  143.2888  137.0266  161.8363 H   0  0  0  0  0  0  0  0  0  0  0  0
  145.4393  137.9679  162.1282 H   0  0  0  0  0  0  0  0  0  0  0  0
  145.4190  136.6542  163.2407 H   0  0  0  0  0  0  0  0  0  0  0  0
  147.3344  137.2684  161.1870 H   0  0  0  0  0  0  0  0  0  0  0  0
  148.7437  135.6565  162.2051 H   0  0  0  0  0  0  0  0  0  0  0  0
  147.5662  135.7538  163.5038 H   0  0  0  0  0  0  0  0  0  0  0  0
  148.0941  133.5168  161.6015 H   0  0  0  0  0  0  0  0  0  0  0  0
  147.0600  133.4301  163.0261 H   0  0  0  0  0  0  0  0  0  0  0  0
  145.7474  134.5490  162.1755 H   0  0  0  0  0  0  0  0  0  0  0  0
  144.4423  132.9160  161.5601 H   0  0  0  0  0  0  0  0  0  0  0  0
  144.3340  133.8028  160.0726 H   0  0  0  0  0  0  0  0  0  0  0  0
  147.7233  133.2026  156.8994 H   0  0  0  0  0  0  0  0  0  0  0  0
  150.4111  138.6338  159.0701 H   0  0  0  0  0  0  0  0  0  0  0  0
  151.8051  137.7984  157.1499 H   0  0  0  0  0  0  0  0  0  0  0  0
  151.5933  136.1397  156.6752 H   0  0  0  0  0  0  0  0  0  0  0  0
  148.7487  136.3213  155.4056 H   0  0  0  0  0  0  0  0  0  0  0  0
  149.3347  136.6811  153.7997 H   0  0  0  0  0  0  0  0  0  0  0  0
  149.7508  134.5436  154.4568 H   0  0  0  0  0  0  0  0  0  0  0  0
  149.1191  139.0657  154.6072 H   0  0  0  0  0  0  0  0  0  0  0  0
  149.7106  139.4342  156.2538 H   0  0  0  0  0  0  0  0  0  0  0  0
  152.6202  137.9447  154.6853 H   0  0  0  0  0  0  0  0  0  0  0  0
  151.4038  137.8989  153.3701 H   0  0  0  0  0  0  0  0  0  0  0  0
  142.8361  134.8362  161.2056 H   0  0  0  0  0  0  0  0  0  0  0  0
  1  2  1  0  0  0  0
  1 28  1  0  0  0  0
  1 29  1  0  0  0  0
  1 30  1  0  0  0  0
  2  3  1  0  0  0  0
  2 31  1  0  0  0  0
  2 32  1  0  0  0  0
  3 10  1  0  0  0  0
  3  4  1  0  0  0  0
  3 56  1  0  0  0  0
  4  5  1  0  0  0  0
  4 33  1  0  0  0  0
  4 34  1  0  0  0  0
  5  6  1  0  0  0  0
  5 35  1  0  0  0  0
  5 36  1  0  0  0  0
  6 11  1  0  0  0  0
  6  7  1  0  0  0  0
  6 37  1  0  0  0  0
  7  8  1  0  0  0  0
  7 38  1  0  0  0  0
  7 39  1  0  0  0  0
  8  9  1  0  0  0  0
  8 40  1  0  0  0  0
  8 41  1  0  0  0  0
  9 10  1  0  0  0  0
  9 11  1  0  0  0  0
  9 42  1  0  0  0  0
 10 43  1  0  0  0  0
 10 44  1  0  0  0  0
 11 12  1  0  0  0  0
 12 17  1  0  0  0  0
 12 13  2  0  0  0  0
 13 14  1  0  0  0  0
 14 15  2  0  0  0  0
 14 45  1  0  0  0  0
 15 16  1  0  0  0  0
 16 20  1  0  0  0  0
 16 17  2  0  0  0  0
 17 18  1  0  0  0  0
 18 19  2  0  0  0  0
 19 20  1  0  0  0  0
 19 46  1  0  0  0  0
 20 21  1  0  0  0  0
 21 22  1  0  0  0  0
 21 47  1  0  0  0  0
 21 48  1  0  0  0  0
 22 27  1  0  0  0  0
 22 23  1  0  0  0  0
 22 25  1  0  0  0  0
 23 24  1  0  0  0  0
 23 49  1  0  0  0  0
 23 50  1  0  0  0  0
 24 51  1  0  0  0  0
 25 26  1  0  0  0  0
 25 52  1  0  0  0  0
 25 53  1  0  0  0  0
 26 27  1  0  0  0  0
 27 54  1  0  0  0  0
 27 55  1  0  0  0  0
M  CHG  1   3   1
M  END
> <s_m_source_file>
AV-unprocessed.smi

> <i_m_source_file_index>
169

> <i_lp_mmshare_version>
43012

> <i_f3d_flags>
0

> <s_epik_input>
W0NASF0xMltDSDJdW0NIMl1OKFtDSDJdW0NIM10pW0NIMl1bQ0BIXShbQ0gyXVtDSDJdMSlOMmMobltjSF1uMyljKGMzNCluW2NIXW40W0NIMl1DNShbQ0gyXVtPSF0pW0NIMl1PW0NIMl01

> <s_epik_cmdline>
J2VwaWtfcHl0aG9uJywgJy1waCcsICc3LjAnLCAnLXRuJywgJzgnLCAnLW1hJywgJzIwMCcsICctbWV0YWxfYmluZGluZycsICctaW1hZScsICc8aW5maWxlLm1hZT4nLCAnLW9tYWUnLCAnPG91dGZpbGUubWFlPic=

> <r_lp_tautomer_probability>
1

> <r_epik_Ionization_Penalty>
0.00274162

> <r_epik_Ionization_Penalty_Charging>
0.00243722

> <r_epik_Ionization_Penalty_Neutral>
0.000304399

> <r_epik_State_Penalty>
-0

> <r_epik_Charging_Adjusted_Penalty>
0.00243722

> <i_epik_Tot_Q>
1

> <i_epik_Tot_abs_Q>
1

> <r_epik_Metal_State_Penalty>
-0

> <b_epik_Metal_Only>
0

> <s_lp_Force_Field>
OPLS_2005

> <r_lp_Energy>
131.702

> <b_lp_Chiralities_Consistent>
1

> <s_lp_Variant>
AV-unprocessed.smi:169-6

> <Gold.Version>
5.8.1

> <Gold.Id.Protein>
6NUR|6NUR_protein|mol2

> <Gold.PLP.Fitness>
44.6404

> <Gold.PLP.PLP>
-40.1448

> <Gold.PLP.part.hbond>
-4.4204

> <Gold.PLP.part.metal>
0.0000

> <Gold.PLP.part.buried>
-5.8675

> <Gold.PLP.part.nonpolar>
-30.7487

> <Gold.PLP.part.repulsive>
0.0824

> <Gold.PLP.ligand.clash>
0.0000

> <Gold.PLP.ligand.torsion>
1.1585

> <Gold.PLP.Chemscore.Hbond>
2.1237

> <Gold.PLP.Chemscore.CHOScore>
0.0000

> <Gold.PLP.Chemscore.Metal>
0.0000

> <Gold.Chemscore.Hbonds>
donor molecule, donor type, donor heavy atom, donor atom, acceptor molecule, acceptor atom, score
      P1  H  6931  6943       L1    18  0.03
      P1  H  7989  7998       L1    26  1.00

> <Gold.PLP.Chemscore.Internal.Correction>
0.4415

> <Gold.Rescore>
     Score         DG    S(hbond)    S(metal)    S(lipo)     H(rot)  DE(clash)    DE(int)     intcor
     13.82     -16.63       2.06        0.00      93.91       2.62       0.28       2.52       ----

> <Gold.Chemscore.Fitness>
13.8219

> <Gold.Chemscore.DG>
-16.6252

> <Gold.Chemscore.ZeroCoef>
-5.4800

> <Gold.Chemscore.Hbond>
2.0562

> <Gold.Chemscore.Metal>
0.0000

> <Gold.Chemscore.Lipo>
93.9131

> <Gold.Chemscore.Internal_Hbond>
0.0000

> <Gold.Chemscore.DEClash>
0.2830

> <Gold.Chemscore.DEInternal>
2.5203

> <Gold.Chemscore.Rot>
2.6212

> <Gold.Chemscore.Internal.Correction>
   9.000000E+99

> <Gold.Chemscore.Hbonds>
donor molecule, donor type, donor heavy atom, donor atom, acceptor molecule, acceptor atom, score
      P1  H  6931  6943       L1    18  0.03
      P1  H  7989  7998       L1    26  0.96

> <Gold.Chemscore.Hbond.Weighted>
-6.8676

> <Gold.Chemscore.Metal.Weighted>
-0.0000

> <Gold.Chemscore.Lipo.Weighted>
-10.9878

> <Gold.Chemscore.Internal_Hbond.Weighted>
0.0000

> <Gold.Chemscore.DEClash.Weighted>
0.2830

> <Gold.Chemscore.DEInternal.Weighted>
2.5203

> <Gold.Chemscore.Rot.Weighted>
6.7102

> <Gold.Chemscore.Internal.Correction.Weighted>
   9.000000E+99

> <Gold.Protein.RotatedTorsions>
[ 6907 6896 6895 6894 ] final  -59.91 input  -60.11 | X-H torsion
[ 7974 7965 7964 7962 ] final -137.57 input  175.53 | X-H torsion
[ 8008 7997 7996 7995 ] final   73.99 input   59.86 | X-H torsion
[ 10167 10162 10161 10158 ] final   13.13 input  -65.29 | X-H torsion
[ 10718 10713 10712 10709 ] final -153.00 input   66.30 | X-H torsion
[ 10763 10752 10751 10750 ] final   70.94 input  -60.55 | X-H torsion
[ 11005 11000 10999 10996 ] final  153.13 input  -57.11 | X-H torsion

> <Gold.Protein.ActiveResidues>
 VAL166  LYS551  ARG553  GLY616  TRP617  ASP618  TYR619  PRO620  LYS621  CYS622 
 ASP623  PHE694  ASN695  SER759  ASP760  ASP761  ALA762  ILE779  LEU786  VAL792 
 PHE793  MET794  SER795  GLU796  ALA797  LYS798  CYS799  TRP800  GLU811  SER814 

> <Gold.Protein.RotatedAtoms>
  150.7895  134.6906  159.6494 H   0  0  0  0  0  0  0  0  0  0  0  0  # atno 6907 bound_to 6896
  152.3997  134.6303  160.0083 H   0  0  0  0  0  0  0  0  0  0  0  0  # atno 6908 bound_to 6896
  151.6578  133.3281  159.3203 H   0  0  0  0  0  0  0  0  0  0  0  0  # atno 6909 bound_to 6896
  144.8830  140.6535  143.5193 H   0  0  0  0  0  0  0  0  0  0  0  0  # atno 7974 bound_to 7965
  155.7918  140.3479  155.5354 H   0  0  0  0  0  0  0  0  0  0  0  0  # atno 8008 bound_to 7997
  155.8626  140.0973  157.1624 H   0  0  0  0  0  0  0  0  0  0  0  0  # atno 8009 bound_to 7997
  154.4013  140.1355  156.3966 H   0  0  0  0  0  0  0  0  0  0  0  0  # atno 8010 bound_to 7997
  140.6023  143.8580  150.6977 H   0  0  0  0  0  0  0  0  0  0  0  0  # atno 10167 bound_to 10162
  156.4799  130.8298  151.2525 H   0  0  0  0  0  0  0  0  0  0  0  0  # atno 10718 bound_to 10713
  153.0370  135.5155  154.7517 H   0  0  0  0  0  0  0  0  0  0  0  0  # atno 10763 bound_to 10752
  154.6486  135.2922  155.0018 H   0  0  0  0  0  0  0  0  0  0  0  0  # atno 10764 bound_to 10752
  154.0910  135.6650  153.4905 H   0  0  0  0  0  0  0  0  0  0  0  0  # atno 10765 bound_to 10752
  140.1370  134.8764  157.2281 H   0  0  0  0  0  0  0  0  0  0  0  0  # atno 11005 bound_to 11000
  145.3919  139.1615  143.4224 LP  0  0  0  0  0  0  0  0  0  0  0  0  # atno 17320 bound_to 7965
  146.3007  140.4009  142.8705 LP  0  0  0  0  0  0  0  0  0  0  0  0  # atno 17321 bound_to 7965
  140.2128  143.3870  152.1704 LP  0  0  0  0  0  0  0  0  0  0  0  0  # atno 17342 bound_to 10162
  139.5300  144.7147  151.5091 LP  0  0  0  0  0  0  0  0  0  0  0  0  # atno 17343 bound_to 10162
  157.7484  131.0048  150.3090 LP  0  0  0  0  0  0  0  0  0  0  0  0  # atno 17370 bound_to 10713
  156.3532  130.3834  149.7312 LP  0  0  0  0  0  0  0  0  0  0  0  0  # atno 17371 bound_to 10713
  140.2769  134.3394  155.7355 LP  0  0  0  0  0  0  0  0  0  0  0  0  # atno 17394 bound_to 11000
  141.2180  133.7456  156.9307 LP  0  0  0  0  0  0  0  0  0  0  0  0  # atno 17395 bound_to 11000

$$$$
