AV-unprocessed.smi:1535|AV-procd|sdf|6183|dock9
  -GOLD-   22720 6343D 1   1.00000     0.00000
 Structure written by MMmdl.
 47 48  0  0  0  0  0  0  0  0  2 V2000
  153.1021  142.8707  161.2070 C   0  0  0  0  0  0  0  0  0  0  0  0
  152.4452  142.4544  159.9027 C   0  0  0  0  0  0  0  0  0  0  0  0
  152.9081  141.2960  159.2388 C   0  0  0  0  0  0  0  0  0  0  0  0
  152.3235  140.8751  158.0245 C   0  0  0  0  0  0  0  0  0  0  0  0
  152.6130  139.7894  157.2161 N   0  0  0  0  0  0  0  0  0  0  0  0
  151.7273  139.9400  156.2361 C   0  0  0  0  0  0  0  0  0  0  0  0
  150.8853  140.9882  156.3222 N   0  0  0  0  0  0  0  0  0  0  0  0
  149.8317  141.3457  155.3895 C   0  0  0  0  0  0  0  0  0  0  0  0
  148.9116  140.1551  155.0541 C   0  0  1  0  0  0  0  0  0  0  0  0
  147.7412  140.6648  154.4477 O   0  0  0  0  0  0  0  0  0  0  0  0
  149.5527  139.1184  154.1068 C   0  0  0  0  0  0  0  0  0  0  0  0
  149.0968  137.7392  154.4179 N   0  3  2  0  0  0  0  0  0  0  0  0
  147.6370  137.6684  154.6634 C   0  0  0  0  0  0  0  0  0  0  0  0
  149.8749  137.0924  155.5047 C   0  0  0  0  0  0  0  0  0  0  0  0
  149.5203  135.6022  155.6766 C   0  0  1  0  0  0  0  0  0  0  0  0
  150.2194  134.7340  154.6229 C   0  0  0  0  0  0  0  0  0  0  0  0
  149.8345  135.1304  157.0350 C   0  0  0  0  0  0  0  0  0  0  0  0
  150.0794  134.7558  158.1012 N   0  0  0  0  0  0  0  0  0  0  0  0
  151.2526  141.6491  157.4897 C   0  0  0  0  0  0  0  0  0  0  0  0
  150.7861  142.8058  158.1387 C   0  0  0  0  0  0  0  0  0  0  0  0
  151.3825  143.2134  159.3500 C   0  0  0  0  0  0  0  0  0  0  0  0
  150.8723  144.4648  160.0422 C   0  0  0  0  0  0  0  0  0  0  0  0
  153.8821  142.1679  161.5022 H   0  0  0  0  0  0  0  0  0  0  0  0
  152.3665  142.9099  162.0106 H   0  0  0  0  0  0  0  0  0  0  0  0
  153.5592  143.8553  161.1063 H   0  0  0  0  0  0  0  0  0  0  0  0
  153.7197  140.7194  159.6583 H   0  0  0  0  0  0  0  0  0  0  0  0
  151.6807  139.2411  155.4138 H   0  0  0  0  0  0  0  0  0  0  0  0
  149.2536  142.1611  155.8271 H   0  0  0  0  0  0  0  0  0  0  0  0
  150.2910  141.7388  154.4812 H   0  0  0  0  0  0  0  0  0  0  0  0
  148.6147  139.6730  155.9850 H   0  0  0  0  0  0  0  0  0  0  0  0
  147.3797  141.3410  155.0008 H   0  0  0  0  0  0  0  0  0  0  0  0
  149.3151  139.3909  153.0786 H   0  0  0  0  0  0  0  0  0  0  0  0
  150.6414  139.1432  154.1690 H   0  0  0  0  0  0  0  0  0  0  0  0
  147.3693  138.1965  155.5795 H   0  0  0  0  0  0  0  0  0  0  0  0
  147.3129  136.6318  154.7610 H   0  0  0  0  0  0  0  0  0  0  0  0
  147.0728  138.1091  153.8416 H   0  0  0  0  0  0  0  0  0  0  0  0
  150.9421  137.2205  155.3167 H   0  0  0  0  0  0  0  0  0  0  0  0
  149.6651  137.6003  156.4475 H   0  0  0  0  0  0  0  0  0  0  0  0
  148.4467  135.4635  155.5556 H   0  0  0  0  0  0  0  0  0  0  0  0
  149.9404  133.6859  154.7333 H   0  0  0  0  0  0  0  0  0  0  0  0
  151.3041  134.7999  154.7127 H   0  0  0  0  0  0  0  0  0  0  0  0
  149.9474  135.0437  153.6135 H   0  0  0  0  0  0  0  0  0  0  0  0
  149.9772  143.3770  157.7079 H   0  0  0  0  0  0  0  0  0  0  0  0
  150.0797  144.9430  159.4660 H   0  0  0  0  0  0  0  0  0  0  0  0
  151.6775  145.1894  160.1658 H   0  0  0  0  0  0  0  0  0  0  0  0
  150.4714  144.2207  161.0260 H   0  0  0  0  0  0  0  0  0  0  0  0
  149.2715  137.1891  153.5883 H   0  0  0  0  0  0  0  0  0  0  0  0
  1  2  1  0  0  0  0
  1 23  1  0  0  0  0
  1 24  1  0  0  0  0
  1 25  1  0  0  0  0
  2 21  1  0  0  0  0
  2  3  2  0  0  0  0
  3  4  1  0  0  0  0
  3 26  1  0  0  0  0
  4 19  2  0  0  0  0
  4  5  1  0  0  0  0
  5  6  2  0  0  0  0
  6  7  1  0  0  0  0
  6 27  1  0  0  0  0
  7  8  1  0  0  0  0
  7 19  1  0  0  0  0
  8  9  1  0  0  0  0
  8 28  1  0  0  0  0
  8 29  1  0  0  0  0
  9 10  1  0  0  0  0
  9 11  1  0  0  0  0
  9 30  1  0  0  0  0
 10 31  1  0  0  0  0
 11 12  1  0  0  0  0
 11 32  1  0  0  0  0
 11 33  1  0  0  0  0
 12 13  1  0  0  0  0
 12 14  1  0  0  0  0
 12 47  1  0  0  0  0
 13 34  1  0  0  0  0
 13 35  1  0  0  0  0
 13 36  1  0  0  0  0
 14 15  1  0  0  0  0
 14 37  1  0  0  0  0
 14 38  1  0  0  0  0
 15 16  1  0  0  0  0
 15 17  1  0  0  0  0
 15 39  1  0  0  0  0
 16 40  1  0  0  0  0
 16 41  1  0  0  0  0
 16 42  1  0  0  0  0
 17 18  3  0  0  0  0
 19 20  1  0  0  0  0
 20 21  2  0  0  0  0
 20 43  1  0  0  0  0
 21 22  1  0  0  0  0
 22 44  1  0  0  0  0
 22 45  1  0  0  0  0
 22 46  1  0  0  0  0
M  CHG  1  12   1
M  END
> <s_m_source_file>
AV-unprocessed.smi

> <i_m_source_file_index>
1535

> <i_lp_mmshare_version>
43012

> <i_f3d_flags>
0

> <s_epik_input>
W0NIM11jKFtjSF0xKWMoW0NIM10pW2NIXWMoYzEyKW4oW2NIXW4yKVtDSDJdW0NASF0oW09IXSlbQ0gyXU4oW0NIM10pW0NIMl1bQ0BIXShbQ0gzXSlDI04=

> <s_epik_cmdline>
J2VwaWtfcHl0aG9uJywgJy1waCcsICc3LjAnLCAnLXRuJywgJzgnLCAnLW1hJywgJzIwMCcsICctbWV0YWxfYmluZGluZycsICctaW1hZScsICc8aW5maWxlLm1hZT4nLCAnLW9tYWUnLCAnPG91dGZpbGUubWFlPic=

> <r_epik_Ionization_Penalty>
2.21058

> <r_epik_Ionization_Penalty_Charging>
2.12381

> <r_epik_Ionization_Penalty_Neutral>
0.0867699

> <r_epik_State_Penalty>
2.36208

> <r_epik_Charging_Adjusted_Penalty>
4.48589

> <i_epik_Tot_Q>
1

> <i_epik_Tot_abs_Q>
1

> <r_epik_Metal_State_Penalty>
2.2818

> <b_epik_Metal_Only>
0

> <s_lp_Force_Field>
OPLS_2005

> <r_lp_Energy>
13.4259

> <b_lp_Chiralities_Consistent>
1

> <s_lp_Variant>
AV-unprocessed.smi:1535-14

> <Gold.Version>
5.8.1

> <Gold.Id.Protein>
6NUR|6NUR_protein|mol2

> <Gold.PLP.Fitness>
50.8468

> <Gold.PLP.PLP>
-40.8686

> <Gold.PLP.part.hbond>
-3.0000

> <Gold.PLP.part.metal>
0.0000

> <Gold.PLP.part.buried>
-4.0860

> <Gold.PLP.part.nonpolar>
-33.1858

> <Gold.PLP.part.repulsive>
0.0006

> <Gold.PLP.ligand.clash>
0.0000

> <Gold.PLP.ligand.torsion>
1.0797

> <Gold.PLP.Chemscore.Hbond>
4.0000

> <Gold.PLP.Chemscore.CHOScore>
0.0000

> <Gold.PLP.Chemscore.Metal>
0.0000

> <Gold.Chemscore.Hbonds>
donor molecule, donor type, donor heavy atom, donor atom, acceptor molecule, acceptor atom, score
      L1  H    12    47       P1  7948  2.00
      P1  H  6896  6907       L1    18  0.81
      P1  H  7997  8009       L1     5  1.00

> <Gold.PLP.Chemscore.Internal.Correction>
0.1376

> <Gold.Rescore>
     Score         DG    S(hbond)    S(metal)    S(lipo)     H(rot)  DE(clash)    DE(int)     intcor
     17.58     -20.33       2.74        0.00     105.67       2.60       0.61       2.15       ----

> <Gold.Chemscore.Fitness>
17.5775

> <Gold.Chemscore.DG>
-20.3307

> <Gold.Chemscore.ZeroCoef>
-5.4800

> <Gold.Chemscore.Hbond>
2.7400

> <Gold.Chemscore.Metal>
0.0000

> <Gold.Chemscore.Lipo>
105.6677

> <Gold.Chemscore.Internal_Hbond>
0.0000

> <Gold.Chemscore.DEClash>
0.6056

> <Gold.Chemscore.DEInternal>
2.1476

> <Gold.Chemscore.Rot>
2.6031

> <Gold.Chemscore.Internal.Correction>
   9.000000E+99

> <Gold.Chemscore.Hbonds>
donor molecule, donor type, donor heavy atom, donor atom, acceptor molecule, acceptor atom, score
      L1  H    12    47       P1  7948  0.96
      P1  H  6896  6907       L1    18  0.76
      P1  H  7997  8009       L1     5  0.35

> <Gold.Chemscore.Hbond.Weighted>
-9.1515

> <Gold.Chemscore.Metal.Weighted>
-0.0000

> <Gold.Chemscore.Lipo.Weighted>
-12.3631

> <Gold.Chemscore.Internal_Hbond.Weighted>
0.0000

> <Gold.Chemscore.DEClash.Weighted>
0.6056

> <Gold.Chemscore.DEInternal.Weighted>
2.1476

> <Gold.Chemscore.Rot.Weighted>
6.6640

> <Gold.Chemscore.Internal.Correction.Weighted>
   9.000000E+99

> <Gold.Protein.RotatedTorsions>
[ 6907 6896 6895 6894 ] final  -80.27 input  -60.11 | X-H torsion
[ 7974 7965 7964 7962 ] final -141.71 input  175.53 | X-H torsion
[ 8008 7997 7996 7995 ] final -167.40 input   59.86 | X-H torsion
[ 10167 10162 10161 10158 ] final  -97.37 input  -65.29 | X-H torsion
[ 10718 10713 10712 10709 ] final  111.81 input   66.30 | X-H torsion
[ 10763 10752 10751 10750 ] final -138.84 input  -60.55 | X-H torsion
[ 11005 11000 10999 10996 ] final  -13.57 input  -57.11 | X-H torsion

> <Gold.Protein.ActiveResidues>
 VAL166  LYS551  ARG553  GLY616  TRP617  ASP618  TYR619  PRO620  LYS621  CYS622 
 ASP623  PHE694  ASN695  SER759  ASP760  ASP761  ALA762  ILE779  LEU786  VAL792 
 PHE793  MET794  SER795  GLU796  ALA797  LYS798  CYS799  TRP800  GLU811  SER814 

> <Gold.Protein.RotatedAtoms>
  150.6933  134.3995  159.5112 H   0  0  0  0  0  0  0  0  0  0  0  0  # atno 6907 bound_to 6896
  152.1771  134.8783  160.0539 H   0  0  0  0  0  0  0  0  0  0  0  0  # atno 6908 bound_to 6896
  151.9787  133.3715  159.4136 H   0  0  0  0  0  0  0  0  0  0  0  0  # atno 6909 bound_to 6896
  144.8498  140.6046  143.5397 H   0  0  0  0  0  0  0  0  0  0  0  0  # atno 7974 bound_to 7965
  155.8772  140.1003  157.1510 H   0  0  0  0  0  0  0  0  0  0  0  0  # atno 8008 bound_to 7997
  154.4002  140.1336  156.4215 H   0  0  0  0  0  0  0  0  0  0  0  0  # atno 8009 bound_to 7997
  155.7684  140.3461  155.5236 H   0  0  0  0  0  0  0  0  0  0  0  0  # atno 8010 bound_to 7997
  140.2841  143.3263  152.0411 H   0  0  0  0  0  0  0  0  0  0  0  0  # atno 10167 bound_to 10162
  157.6425  131.0957  150.6804 H   0  0  0  0  0  0  0  0  0  0  0  0  # atno 10718 bound_to 10713
  154.8626  135.3600  154.5449 H   0  0  0  0  0  0  0  0  0  0  0  0  # atno 10763 bound_to 10752
  153.6070  135.7011  153.5367 H   0  0  0  0  0  0  0  0  0  0  0  0  # atno 10764 bound_to 10752
  153.3242  135.4142  155.1403 H   0  0  0  0  0  0  0  0  0  0  0  0  # atno 10765 bound_to 10752
  140.7774  133.8390  155.9261 H   0  0  0  0  0  0  0  0  0  0  0  0  # atno 11005 bound_to 11000
  145.4522  139.1522  143.3912 LP  0  0  0  0  0  0  0  0  0  0  0  0  # atno 17320 bound_to 7965
  146.2775  140.4649  142.8789 LP  0  0  0  0  0  0  0  0  0  0  0  0  # atno 17321 bound_to 7965
  139.4955  144.6571  151.6548 LP  0  0  0  0  0  0  0  0  0  0  0  0  # atno 17342 bound_to 10162
  140.5787  143.9984  150.6256 LP  0  0  0  0  0  0  0  0  0  0  0  0  # atno 17343 bound_to 10162
  156.7126  130.4656  149.5543 LP  0  0  0  0  0  0  0  0  0  0  0  0  # atno 17370 bound_to 10713
  156.1720  130.6443  151.0848 LP  0  0  0  0  0  0  0  0  0  0  0  0  # atno 17371 bound_to 10713
  140.9515  134.1772  157.4724 LP  0  0  0  0  0  0  0  0  0  0  0  0  # atno 17394 bound_to 11000
  139.8747  134.9911  156.5533 LP  0  0  0  0  0  0  0  0  0  0  0  0  # atno 17395 bound_to 11000

$$$$
