AV-unprocessed.smi:3261|AV-procd|sdf|12483|dock7
  -GOLD-   2272018383D 1   1.00000     0.00000
 Structure written by MMmdl.
 30 31  0  0  0  0  0  0  0  0  3 V2000
  151.9082  140.9816  157.7327 O   0  0  0  0  0  0  0  0  0  0  0  0
  151.0577  141.6262  157.1211 C   0  0  0  0  0  0  0  0  0  0  0  0
  150.7225  142.8608  157.5708 N   0  0  0  0  0  0  0  0  0  0  0  0
  151.1802  143.5448  158.7291 C   0  0  0  0  0  0  0  0  0  0  0  0
  150.7991  144.8951  158.8898 C   0  0  0  0  0  0  0  0  0  0  0  0
  151.2165  145.6024  160.0355 C   0  0  0  0  0  0  0  0  0  0  0  0
  151.9630  144.9818  160.9744 N   0  3  0  0  0  0  0  0  0  0  0  0
  152.3341  143.6871  160.8739 C   0  0  0  0  0  0  0  0  0  0  0  0
  151.9466  142.9293  159.7504 C   0  0  0  0  0  0  0  0  0  0  0  0
  150.4676  141.1297  155.9914 N   0  5  0  0  0  0  0  0  0  0  0  0
  150.0923  139.7417  155.6672 C   0  0  1  0  0  0  0  0  0  0  0  0
  150.8239  139.3067  154.3781 C   0  0  0  0  0  0  0  0  0  0  0  0
  152.2668  138.9079  154.7162 C   0  0  0  0  0  0  0  0  0  0  0  0
  152.1764  138.1273  156.3688 S   0  0  0  0  0  0  0  0  0  0  0  0
  152.0693  136.6686  156.2086 O   0  0  0  0  0  0  0  0  0  0  0  0
  153.2049  138.7139  157.2421 O   0  0  0  0  0  0  0  0  0  0  0  0
  150.5216  138.7966  156.8084 C   0  0  0  0  0  0  0  0  0  0  0  0
  150.1125  143.3893  156.9647 H   0  0  0  0  0  0  0  0  0  0  0  0
  150.1995  145.3887  158.1384 H   0  0  0  0  0  0  0  0  0  0  0  0
  150.9752  146.6374  160.2285 H   0  0  0  0  0  0  0  0  0  0  0  0
  152.9202  143.2959  161.6925 H   0  0  0  0  0  0  0  0  0  0  0  0
  152.2319  141.8894  159.6941 H   0  0  0  0  0  0  0  0  0  0  0  0
  149.0161  139.6525  155.5103 H   0  0  0  0  0  0  0  0  0  0  0  0
  150.3135  138.4317  153.9737 H   0  0  0  0  0  0  0  0  0  0  0  0
  150.7880  140.0713  153.6008 H   0  0  0  0  0  0  0  0  0  0  0  0
  152.7008  138.2166  153.9944 H   0  0  0  0  0  0  0  0  0  0  0  0
  152.9112  139.7859  154.7880 H   0  0  0  0  0  0  0  0  0  0  0  0
  150.5625  139.2782  157.7859 H   0  0  0  0  0  0  0  0  0  0  0  0
  149.8359  137.9525  156.8789 H   0  0  0  0  0  0  0  0  0  0  0  0
  152.2536  145.5110  161.7967 H   0  0  0  0  0  0  0  0  0  0  0  0
  1  2  2  0  0  0  0
  2  3  1  0  0  0  0
  2 10  1  0  0  0  0
  3  4  1  0  0  0  0
  3 18  1  0  0  0  0
  4  9  1  0  0  0  0
  4  5  2  0  0  0  0
  5  6  1  0  0  0  0
  5 19  1  0  0  0  0
  6  7  2  0  0  0  0
  6 20  1  0  0  0  0
  7  8  1  0  0  0  0
  7 30  1  0  0  0  0
  8  9  2  0  0  0  0
  8 21  1  0  0  0  0
  9 22  1  0  0  0  0
 10 11  1  0  0  0  0
 11 17  1  0  0  0  0
 11 12  1  0  0  0  0
 11 23  1  0  0  0  0
 12 13  1  0  0  0  0
 12 24  1  0  0  0  0
 12 25  1  0  0  0  0
 13 14  1  0  0  0  0
 13 26  1  0  0  0  0
 13 27  1  0  0  0  0
 14 15  2  0  0  0  0
 14 16  2  0  0  0  0
 14 17  1  0  0  0  0
 17 28  1  0  0  0  0
 17 29  1  0  0  0  0
M  CHG  1   7   1
M  CHG  1  10  -1
M  END
> <s_m_source_file>
AV-unprocessed.smi

> <i_m_source_file_index>
3261

> <i_lp_mmshare_version>
43012

> <i_f3d_flags>
0

> <s_epik_input>
Tz1TMSg9TylbQ0gyXVtDSDJdW0NASF0oW0NIMl0xKVtOSF1DKD1PKVtOSF1jMltjSF1bY0hdbltjSF1bY0hdMg==

> <s_epik_cmdline>
J2VwaWtfcHl0aG9uJywgJy1waCcsICc3LjAnLCAnLXRuJywgJzgnLCAnLW1hJywgJzIwMCcsICctbWV0YWxfYmluZGluZycsICctaW1hZScsICc8aW5maWxlLm1hZT4nLCAnLW9tYWUnLCAnPG91dGZpbGUubWFlPic=

> <r_epik_Ionization_Penalty>
8.1176

> <r_epik_Ionization_Penalty_Charging>
8.1176

> <r_epik_Ionization_Penalty_Neutral>
3.03687e-06

> <r_epik_State_Penalty>
7.79629

> <r_epik_Charging_Adjusted_Penalty>
15.9139

> <i_epik_Tot_Q>
0

> <i_epik_Tot_abs_Q>
2

> <r_epik_Metal_State_Penalty>
3.7997

> <b_epik_Metal_Only>
1

> <s_lp_Force_Field>
OPLS_2005

> <r_lp_Energy>
21.8236

> <b_lp_Chiralities_Consistent>
1

> <s_lp_Variant>
AV-unprocessed.smi:3261-6

> <Gold.Version>
5.8.1

> <Gold.Id.Protein>
6NUR|6NUR_protein|mol2

> <Gold.PLP.Fitness>
38.1934

> <Gold.PLP.PLP>
-31.2517

> <Gold.PLP.part.hbond>
-3.1240

> <Gold.PLP.part.metal>
0.0000

> <Gold.PLP.part.buried>
-3.0491

> <Gold.PLP.part.nonpolar>
-24.8780

> <Gold.PLP.part.repulsive>
0.1652

> <Gold.PLP.ligand.clash>
0.0769

> <Gold.PLP.ligand.torsion>
0.2725

> <Gold.PLP.Chemscore.Hbond>
2.5200

> <Gold.PLP.Chemscore.CHOScore>
0.0000

> <Gold.PLP.Chemscore.Metal>
0.0000

> <Gold.Chemscore.Hbonds>
donor molecule, donor type, donor heavy atom, donor atom, acceptor molecule, acceptor atom, score
      L1  H     3    18       P1  8028  0.52
      P1  H  7997  8009       L1    16  1.00
      P1  H 10752 10763       L1    15  1.00

> <Gold.PLP.Chemscore.Internal.Correction>
0.0036

> <Gold.Rescore>
     Score         DG    S(hbond)    S(metal)    S(lipo)     H(rot)  DE(clash)    DE(int)     intcor
     16.79     -21.50       2.70        0.00      81.59       1.00       0.09       4.62       ----

> <Gold.Chemscore.Fitness>
16.7903

> <Gold.Chemscore.DG>
-21.4964

> <Gold.Chemscore.ZeroCoef>
-5.4800

> <Gold.Chemscore.Hbond>
2.7036

> <Gold.Chemscore.Metal>
0.0000

> <Gold.Chemscore.Lipo>
81.5925

> <Gold.Chemscore.Internal_Hbond>
0.0000

> <Gold.Chemscore.DEClash>
0.0855

> <Gold.Chemscore.DEInternal>
4.6206

> <Gold.Chemscore.Rot>
1.0000

> <Gold.Chemscore.Internal.Correction>
   9.000000E+99

> <Gold.Chemscore.Hbonds>
donor molecule, donor type, donor heavy atom, donor atom, acceptor molecule, acceptor atom, score
      L1  H     3    18       P1  8028  0.52
      P1  H  7997  8009       L1    16  0.99
      P1  H 10752 10763       L1    15  0.97

> <Gold.Chemscore.Hbond.Weighted>
-9.0301

> <Gold.Chemscore.Metal.Weighted>
-0.0000

> <Gold.Chemscore.Lipo.Weighted>
-9.5463

> <Gold.Chemscore.Internal_Hbond.Weighted>
0.0000

> <Gold.Chemscore.DEClash.Weighted>
0.0855

> <Gold.Chemscore.DEInternal.Weighted>
4.6206

> <Gold.Chemscore.Rot.Weighted>
2.5600

> <Gold.Chemscore.Internal.Correction.Weighted>
   9.000000E+99

> <Gold.Protein.RotatedTorsions>
[ 6907 6896 6895 6894 ] final   88.17 input  -60.11 | X-H torsion
[ 7974 7965 7964 7962 ] final  -20.10 input  175.53 | X-H torsion
[ 8008 7997 7996 7995 ] final  166.50 input   59.86 | X-H torsion
[ 10167 10162 10161 10158 ] final  173.31 input  -65.29 | X-H torsion
[ 10718 10713 10712 10709 ] final   11.11 input   66.30 | X-H torsion
[ 10763 10752 10751 10750 ] final   83.32 input  -60.55 | X-H torsion
[ 11005 11000 10999 10996 ] final  -76.44 input  -57.11 | X-H torsion

> <Gold.Protein.ActiveResidues>
 VAL166  LYS551  ARG553  GLY616  TRP617  ASP618  TYR619  PRO620  LYS621  CYS622 
 ASP623  PHE694  ASN695  SER759  ASP760  ASP761  ALA762  ILE779  LEU786  VAL792 
 PHE793  MET794  SER795  GLU796  ALA797  LYS798  CYS799  TRP800  GLU811  SER814 

> <Gold.Protein.RotatedAtoms>
  152.5421  134.2163  159.8769 H   0  0  0  0  0  0  0  0  0  0  0  0  # atno 6907 bound_to 6896
  151.2143  133.4531  159.2606 H   0  0  0  0  0  0  0  0  0  0  0  0  # atno 6908 bound_to 6896
  151.0867  134.9904  159.8438 H   0  0  0  0  0  0  0  0  0  0  0  0  # atno 6909 bound_to 6896
  146.1806  140.4154  142.8496 H   0  0  0  0  0  0  0  0  0  0  0  0  # atno 7974 bound_to 7965
  156.1713  140.1642  156.8441 H   0  0  0  0  0  0  0  0  0  0  0  0  # atno 8008 bound_to 7997
  154.5260  140.0767  156.8294 H   0  0  0  0  0  0  0  0  0  0  0  0  # atno 8009 bound_to 7997
  155.3506  140.3390  155.4241 H   0  0  0  0  0  0  0  0  0  0  0  0  # atno 8010 bound_to 7997
  139.5104  144.3275  152.0143 H   0  0  0  0  0  0  0  0  0  0  0  0  # atno 10167 bound_to 10162
  156.9908  130.6041  149.5686 H   0  0  0  0  0  0  0  0  0  0  0  0  # atno 10718 bound_to 10713
  153.1280  135.4695  154.9304 H   0  0  0  0  0  0  0  0  0  0  0  0  # atno 10763 bound_to 10752
  154.7638  135.3139  154.8328 H   0  0  0  0  0  0  0  0  0  0  0  0  # atno 10764 bound_to 10752
  153.8877  135.6888  153.4816 H   0  0  0  0  0  0  0  0  0  0  0  0  # atno 10765 bound_to 10752
  141.1654  133.6984  156.7669 H   0  0  0  0  0  0  0  0  0  0  0  0  # atno 11005 bound_to 11000
  144.8309  140.6705  143.6291 LP  0  0  0  0  0  0  0  0  0  0  0  0  # atno 17320 bound_to 7965
  145.4086  139.1584  143.4138 LP  0  0  0  0  0  0  0  0  0  0  0  0  # atno 17321 bound_to 7965
  140.2716  144.3958  150.6149 LP  0  0  0  0  0  0  0  0  0  0  0  0  # atno 17342 bound_to 10162
  140.6084  143.2168  151.6934 LP  0  0  0  0  0  0  0  0  0  0  0  0  # atno 17343 bound_to 10162
  156.0208  130.5303  150.8269 LP  0  0  0  0  0  0  0  0  0  0  0  0  # atno 17370 bound_to 10713
  157.5460  131.0942  150.9762 LP  0  0  0  0  0  0  0  0  0  0  0  0  # atno 17371 bound_to 10713
  140.2492  134.8553  157.3651 LP  0  0  0  0  0  0  0  0  0  0  0  0  # atno 17394 bound_to 11000
  140.1719  134.4598  155.7826 LP  0  0  0  0  0  0  0  0  0  0  0  0  # atno 17395 bound_to 11000

$$$$
