AV-unprocessed.smi:2675|AV-procd|sdf|10362|dock1
  -GOLD-   2272014383D 1   1.00000     0.00000
 Structure written by MMmdl.
 36 37  0  0  0  0  0  0  0  0  1 V2000
  151.5907  145.3188  160.4407 C   0  0  0  0  0  0  0  0  0  0  0  0
  152.0786  143.9761  159.9928 C   0  0  0  0  0  0  0  0  0  0  0  0
  152.0890  143.6224  158.6456 N   0  0  0  0  0  0  0  0  0  0  0  0
  152.5725  142.3883  158.6465 C   0  0  0  0  0  0  0  0  0  0  0  0
  152.8698  141.9069  159.8618 N   0  0  0  0  0  0  0  0  0  0  0  0
  153.3887  140.5820  160.1649 C   0  0  0  0  0  0  0  0  0  0  0  0
  153.3627  139.6857  158.9260 C   0  0  0  0  0  0  0  0  0  0  0  0
  154.4179  139.2623  158.4571 O   0  0  0  0  0  0  0  0  0  0  0  0
  152.1464  139.3908  158.4337 N   0  0  0  0  0  0  0  0  0  0  0  0
  151.7948  138.4738  157.3431 C   0  0  1  0  0  0  0  0  0  0  0  0
  151.7136  139.3366  156.0729 C   0  0  0  0  0  0  0  0  0  0  0  0
  152.8351  137.4492  157.1252 C   0  0  0  0  0  0  0  0  0  0  0  0
  153.6486  136.6440  156.9522 N   0  0  0  0  0  0  0  0  0  0  0  0
  150.4587  137.7487  157.5234 C   0  0  0  0  0  0  0  0  0  0  0  0
  149.2407  138.4322  158.1068 C   0  0  0  0  0  0  0  0  0  0  0  0
  149.9093  137.3050  158.8618 C   0  0  0  0  0  0  0  0  0  0  0  0
  152.5581  142.9314  160.7543 C   0  0  0  0  0  0  0  0  0  0  0  0
  152.7378  142.8196  162.2343 C   0  0  0  0  0  0  0  0  0  0  0  0
  152.3161  145.8029  161.0946 H   0  0  0  0  0  0  0  0  0  0  0  0
  150.6545  145.2305  160.9921 H   0  0  0  0  0  0  0  0  0  0  0  0
  151.4150  145.9852  159.5957 H   0  0  0  0  0  0  0  0  0  0  0  0
  152.7038  141.8156  157.7401 H   0  0  0  0  0  0  0  0  0  0  0  0
  154.4113  140.6706  160.5337 H   0  0  0  0  0  0  0  0  0  0  0  0
  152.7950  140.1410  160.9666 H   0  0  0  0  0  0  0  0  0  0  0  0
  151.3607  139.8111  158.9084 H   0  0  0  0  0  0  0  0  0  0  0  0
  151.4836  138.7305  155.1959 H   0  0  0  0  0  0  0  0  0  0  0  0
  152.6585  139.8454  155.8774 H   0  0  0  0  0  0  0  0  0  0  0  0
  150.9380  140.0990  156.1581 H   0  0  0  0  0  0  0  0  0  0  0  0
  150.2534  137.0557  156.7091 H   0  0  0  0  0  0  0  0  0  0  0  0
  149.3511  139.4363  158.5115 H   0  0  0  0  0  0  0  0  0  0  0  0
  148.2794  138.2244  157.6415 H   0  0  0  0  0  0  0  0  0  0  0  0
  149.3899  136.3496  158.8957 H   0  0  0  0  0  0  0  0  0  0  0  0
  150.4467  137.5658  159.7689 H   0  0  0  0  0  0  0  0  0  0  0  0
  152.4621  143.7474  162.7357 H   0  0  0  0  0  0  0  0  0  0  0  0
  153.7761  142.6013  162.4844 H   0  0  0  0  0  0  0  0  0  0  0  0
  152.1159  142.0233  162.6432 H   0  0  0  0  0  0  0  0  0  0  0  0
  1  2  1  0  0  0  0
  1 19  1  0  0  0  0
  1 20  1  0  0  0  0
  1 21  1  0  0  0  0
  2 17  2  0  0  0  0
  2  3  1  0  0  0  0
  3  4  2  0  0  0  0
  4  5  1  0  0  0  0
  4 22  1  0  0  0  0
  5  6  1  0  0  0  0
  5 17  1  0  0  0  0
  6  7  1  0  0  0  0
  6 23  1  0  0  0  0
  6 24  1  0  0  0  0
  7  8  2  0  0  0  0
  7  9  1  0  0  0  0
  9 10  1  0  0  0  0
  9 25  1  0  0  0  0
 10 11  1  0  0  0  0
 10 12  1  0  0  0  0
 10 14  1  0  0  0  0
 11 26  1  0  0  0  0
 11 27  1  0  0  0  0
 11 28  1  0  0  0  0
 12 13  3  0  0  0  0
 14 16  1  0  0  0  0
 14 15  1  0  0  0  0
 14 29  1  0  0  0  0
 15 16  1  0  0  0  0
 15 30  1  0  0  0  0
 15 31  1  0  0  0  0
 16 32  1  0  0  0  0
 16 33  1  0  0  0  0
 17 18  1  0  0  0  0
 18 34  1  0  0  0  0
 18 35  1  0  0  0  0
 18 36  1  0  0  0  0
M  END
> <s_m_source_file>
AV-unprocessed.smi

> <i_m_source_file_index>
2675

> <i_lp_mmshare_version>
43012

> <i_f3d_flags>
0

> <s_epik_input>
W0NIM11jMW5bY0hdbihjMVtDSDNdKVtDSDJdQyg9TylbTkhdW0NAQF0oW0NIM10pKEMjTilbQ0hdMltDSDJdW0NIMl0y

> <s_epik_cmdline>
J2VwaWtfcHl0aG9uJywgJy1waCcsICc3LjAnLCAnLXRuJywgJzgnLCAnLW1hJywgJzIwMCcsICctbWV0YWxfYmluZGluZycsICctaW1hZScsICc8aW5maWxlLm1hZT4nLCAnLW9tYWUnLCAnPG91dGZpbGUubWFlPic=

> <r_lp_tautomer_probability>
1

> <r_epik_Ionization_Penalty>
0.876174

> <r_epik_Ionization_Penalty_Charging>
0.876172

> <r_epik_Ionization_Penalty_Neutral>
2.64295e-06

> <r_epik_State_Penalty>
0.913958

> <r_epik_Charging_Adjusted_Penalty>
1.79013

> <i_epik_Tot_Q>
0

> <i_epik_Tot_abs_Q>
0

> <r_epik_Metal_State_Penalty>
0.359336

> <b_epik_Metal_Only>
0

> <s_lp_Force_Field>
OPLS_2005

> <r_lp_Energy>
14.5701

> <b_lp_Chiralities_Consistent>
1

> <s_lp_Variant>
AV-unprocessed.smi:2675-3

> <Gold.Version>
5.8.1

> <Gold.Id.Protein>
6NUR|6NUR_protein|mol2

> <Gold.PLP.Fitness>
41.1852

> <Gold.PLP.PLP>
-36.4182

> <Gold.PLP.part.hbond>
-2.0000

> <Gold.PLP.part.metal>
0.0000

> <Gold.PLP.part.buried>
-5.5249

> <Gold.PLP.part.nonpolar>
-28.9531

> <Gold.PLP.part.repulsive>
0.1103

> <Gold.PLP.ligand.clash>
0.0000

> <Gold.PLP.ligand.torsion>
1.3772

> <Gold.PLP.Chemscore.Hbond>
2.0000

> <Gold.PLP.Chemscore.CHOScore>
0.0000

> <Gold.PLP.Chemscore.Metal>
0.0000

> <Gold.Chemscore.Hbonds>
donor molecule, donor type, donor heavy atom, donor atom, acceptor molecule, acceptor atom, score
      P1  H  7997  8009       L1     8  0.91
      P1  H 10752 10764       L1    13  0.99

> <Gold.PLP.Chemscore.Internal.Correction>
1.5215

> <Gold.Rescore>
     Score         DG    S(hbond)    S(metal)    S(lipo)     H(rot)  DE(clash)    DE(int)     intcor
     13.27     -16.22       1.93        0.00      74.95       1.74       0.00       2.95       ----

> <Gold.Chemscore.Fitness>
13.2724

> <Gold.Chemscore.DG>
-16.2192

> <Gold.Chemscore.ZeroCoef>
-5.4800

> <Gold.Chemscore.Hbond>
1.9258

> <Gold.Chemscore.Metal>
0.0000

> <Gold.Chemscore.Lipo>
74.9468

> <Gold.Chemscore.Internal_Hbond>
0.0000

> <Gold.Chemscore.DEClash>
0.0004

> <Gold.Chemscore.DEInternal>
2.9464

> <Gold.Chemscore.Rot>
1.7429

> <Gold.Chemscore.Internal.Correction>
   9.000000E+99

> <Gold.Chemscore.Hbonds>
donor molecule, donor type, donor heavy atom, donor atom, acceptor molecule, acceptor atom, score
      P1  H  7997  8009       L1     8  0.83
      P1  H 10752 10764       L1    13  0.87

> <Gold.Chemscore.Hbond.Weighted>
-6.4321

> <Gold.Chemscore.Metal.Weighted>
-0.0000

> <Gold.Chemscore.Lipo.Weighted>
-8.7688

> <Gold.Chemscore.Internal_Hbond.Weighted>
0.0000

> <Gold.Chemscore.DEClash.Weighted>
0.0004

> <Gold.Chemscore.DEInternal.Weighted>
2.9464

> <Gold.Chemscore.Rot.Weighted>
4.4617

> <Gold.Chemscore.Internal.Correction.Weighted>
   9.000000E+99

> <Gold.Protein.RotatedTorsions>
[ 6907 6896 6895 6894 ] final   57.90 input  -60.11 | X-H torsion
[ 7974 7965 7964 7962 ] final -101.43 input  175.53 | X-H torsion
[ 8008 7997 7996 7995 ] final  125.13 input   59.86 | X-H torsion
[ 10167 10162 10161 10158 ] final   68.81 input  -65.29 | X-H torsion
[ 10718 10713 10712 10709 ] final  -43.85 input   66.30 | X-H torsion
[ 10763 10752 10751 10750 ] final    8.20 input  -60.55 | X-H torsion
[ 11005 11000 10999 10996 ] final   45.62 input  -57.11 | X-H torsion

> <Gold.Protein.ActiveResidues>
 VAL166  LYS551  ARG553  GLY616  TRP617  ASP618  TYR619  PRO620  LYS621  CYS622 
 ASP623  PHE694  ASN695  SER759  ASP760  ASP761  ALA762  ILE779  LEU786  VAL792 
 PHE793  MET794  SER795  GLU796  ALA797  LYS798  CYS799  TRP800  GLU811  SER814 

> <Gold.Protein.RotatedAtoms>
  152.3775  134.6641  160.0154 H   0  0  0  0  0  0  0  0  0  0  0  0  # atno 6907 bound_to 6896
  151.6915  133.3305  159.3252 H   0  0  0  0  0  0  0  0  0  0  0  0  # atno 6908 bound_to 6896
  150.7721  134.6630  159.6394 H   0  0  0  0  0  0  0  0  0  0  0  0  # atno 6909 bound_to 6896
  145.2818  140.9328  143.2928 H   0  0  0  0  0  0  0  0  0  0  0  0  # atno 7974 bound_to 7965
  156.2824  140.2723  156.1900 H   0  0  0  0  0  0  0  0  0  0  0  0  # atno 8008 bound_to 7997
  155.0468  140.0386  157.2547 H   0  0  0  0  0  0  0  0  0  0  0  0  # atno 8009 bound_to 7997
  154.7228  140.2691  155.6531 H   0  0  0  0  0  0  0  0  0  0  0  0  # atno 8010 bound_to 7997
  140.0746  144.5123  150.7203 H   0  0  0  0  0  0  0  0  0  0  0  0  # atno 10167 bound_to 10162
  156.2446  130.4183  149.8720 H   0  0  0  0  0  0  0  0  0  0  0  0  # atno 10718 bound_to 10713
  153.2277  135.6889  153.7925 H   0  0  0  0  0  0  0  0  0  0  0  0  # atno 10763 bound_to 10752
  153.7101  135.3283  155.3245 H   0  0  0  0  0  0  0  0  0  0  0  0  # atno 10764 bound_to 10752
  154.8300  135.4588  154.1150 H   0  0  0  0  0  0  0  0  0  0  0  0  # atno 10765 bound_to 10752
  140.1443  134.4543  155.8427 H   0  0  0  0  0  0  0  0  0  0  0  0  # atno 11005 bound_to 11000
  144.9247  139.4369  143.6524 LP  0  0  0  0  0  0  0  0  0  0  0  0  # atno 17320 bound_to 7965
  146.3214  139.8126  142.8943 LP  0  0  0  0  0  0  0  0  0  0  0  0  # atno 17321 bound_to 7965
  140.7108  143.2504  151.4586 LP  0  0  0  0  0  0  0  0  0  0  0  0  # atno 17342 bound_to 10162
  139.5815  144.1698  152.1975 LP  0  0  0  0  0  0  0  0  0  0  0  0  # atno 17343 bound_to 10162
  156.6289  130.8657  151.3491 LP  0  0  0  0  0  0  0  0  0  0  0  0  # atno 17370 bound_to 10713
  157.7190  130.9533  150.1364 LP  0  0  0  0  0  0  0  0  0  0  0  0  # atno 17371 bound_to 10713
  141.2190  133.6846  156.7304 LP  0  0  0  0  0  0  0  0  0  0  0  0  # atno 17394 bound_to 11000
  140.2683  134.8412  157.3824 LP  0  0  0  0  0  0  0  0  0  0  0  0  # atno 17395 bound_to 11000

$$$$
