AV-unprocessed.smi:1005|AV-procd|sdf|4375|dock6
  -GOLD-   22720 2293D 1   1.00000     0.00000
 Structure written by MMmdl.
 57 59  0  0  0  0  0  0  0  0  3 V2000
  151.9233  144.6576  161.0244 C   0  0  0  0  0  0  0  0  0  0  0  0
  151.7627  143.5610  159.9851 C   0  0  0  0  0  0  0  0  0  0  0  0
  150.9504  143.8145  158.8566 C   0  0  0  0  0  0  0  0  0  0  0  0
  150.8229  142.7923  157.9237 C   0  0  0  0  0  0  0  0  0  0  0  0
  150.1058  142.7273  156.7269 N   0  3  0  0  0  0  0  0  0  0  0  0
  150.2878  141.5053  156.1535 C   0  0  0  0  0  0  0  0  0  0  0  0
  151.1103  140.7896  156.9675 N   0  0  0  0  0  0  0  0  0  0  0  0
  151.6251  139.4211  156.8260 C   0  0  0  0  0  0  0  0  0  0  0  0
  151.0038  138.6672  155.6341 C   0  0  1  0  0  0  0  0  0  0  0  0
  151.4724  139.2407  154.4300 O   0  0  0  0  0  0  0  0  0  0  0  0
  151.3811  137.1717  155.6440 C   0  0  0  0  0  0  0  0  0  0  0  0
  150.4938  136.3099  156.4272 N   0  0  0  0  0  0  0  0  0  0  0  0
  150.8641  134.9071  156.2762 C   0  0  0  0  0  0  0  0  0  0  0  0
  149.9538  133.9808  157.0990 C   0  0  0  0  0  0  0  0  0  0  0  0
  149.9827  134.3799  158.4658 O   0  0  0  0  0  0  0  0  0  0  0  0
  149.5618  135.7273  158.6670 C   0  0  1  0  0  0  0  0  0  0  0  0
  149.6030  136.0142  160.1836 C   0  0  0  0  0  0  0  0  0  0  0  0
  148.6065  135.2386  160.9679 N   0  3  0  0  0  0  0  0  0  0  0  0
  148.4438  135.7059  162.3635 C   0  0  0  0  0  0  0  0  0  0  0  0
  148.8754  133.7844  160.9118 C   0  0  0  0  0  0  0  0  0  0  0  0
  150.5032  136.6419  157.8515 C   0  0  0  0  0  0  0  0  0  0  0  0
  151.4719  141.5529  158.0822 C   0  0  0  0  0  0  0  0  0  0  0  0
  152.2787  141.2870  159.1858 C   0  0  0  0  0  0  0  0  0  0  0  0
  152.4163  142.3119  160.1488 C   0  0  0  0  0  0  0  0  0  0  0  0
  153.2819  142.0470  161.3690 C   0  0  0  0  0  0  0  0  0  0  0  0
  151.3778  145.5584  160.7419 H   0  0  0  0  0  0  0  0  0  0  0  0
  152.9737  144.9276  161.1375 H   0  0  0  0  0  0  0  0  0  0  0  0
  151.5435  144.3273  161.9916 H   0  0  0  0  0  0  0  0  0  0  0  0
  150.4493  144.7626  158.7258 H   0  0  0  0  0  0  0  0  0  0  0  0
  149.8555  141.1649  155.2233 H   0  0  0  0  0  0  0  0  0  0  0  0
  152.7083  139.4860  156.7131 H   0  0  0  0  0  0  0  0  0  0  0  0
  151.4410  138.8911  157.7615 H   0  0  0  0  0  0  0  0  0  0  0  0
  149.9241  138.7971  155.6666 H   0  0  0  0  0  0  0  0  0  0  0  0
  152.3283  138.8858  154.2428 H   0  0  0  0  0  0  0  0  0  0  0  0
  151.4172  136.8228  154.6104 H   0  0  0  0  0  0  0  0  0  0  0  0
  152.3985  137.0594  156.0221 H   0  0  0  0  0  0  0  0  0  0  0  0
  150.8111  134.6206  155.2250 H   0  0  0  0  0  0  0  0  0  0  0  0
  151.9001  134.7621  156.5868 H   0  0  0  0  0  0  0  0  0  0  0  0
  148.9297  134.0102  156.7238 H   0  0  0  0  0  0  0  0  0  0  0  0
  150.2940  132.9481  157.0217 H   0  0  0  0  0  0  0  0  0  0  0  0
  148.5361  135.8163  158.3041 H   0  0  0  0  0  0  0  0  0  0  0  0
  150.5891  135.7264  160.5518 H   0  0  0  0  0  0  0  0  0  0  0  0
  149.5089  137.0820  160.3878 H   0  0  0  0  0  0  0  0  0  0  0  0
  149.3976  135.7052  162.8928 H   0  0  0  0  0  0  0  0  0  0  0  0
  147.7529  135.0615  162.9087 H   0  0  0  0  0  0  0  0  0  0  0  0
  148.0266  136.7117  162.3938 H   0  0  0  0  0  0  0  0  0  0  0  0
  149.8297  133.5455  161.3833 H   0  0  0  0  0  0  0  0  0  0  0  0
  148.9057  133.4328  159.8800 H   0  0  0  0  0  0  0  0  0  0  0  0
  148.0913  133.2260  161.4242 H   0  0  0  0  0  0  0  0  0  0  0  0
  151.5186  136.5516  158.2410 H   0  0  0  0  0  0  0  0  0  0  0  0
  150.2146  137.6789  158.0004 H   0  0  0  0  0  0  0  0  0  0  0  0
  152.7786  140.3375  159.3063 H   0  0  0  0  0  0  0  0  0  0  0  0
  153.6963  141.0386  161.3543 H   0  0  0  0  0  0  0  0  0  0  0  0
  152.6974  142.1530  162.2832 H   0  0  0  0  0  0  0  0  0  0  0  0
  154.1152  142.7490  161.4062 H   0  0  0  0  0  0  0  0  0  0  0  0
  147.7141  135.3730  160.5133 H   0  0  0  0  0  0  0  0  0  0  0  0
  149.5336  143.4606  156.3281 H   0  0  0  0  0  0  0  0  0  0  0  0
  1  2  1  0  0  0  0
  1 26  1  0  0  0  0
  1 27  1  0  0  0  0
  1 28  1  0  0  0  0
  2 24  1  0  0  0  0
  2  3  2  0  0  0  0
  3  4  1  0  0  0  0
  3 29  1  0  0  0  0
  4 22  2  0  0  0  0
  4  5  1  0  0  0  0
  5  6  2  0  0  0  0
  5 57  1  0  0  0  0
  6  7  1  0  0  0  0
  6 30  1  0  0  0  0
  7  8  1  0  0  0  0
  7 22  1  0  0  0  0
  8  9  1  0  0  0  0
  8 31  1  0  0  0  0
  8 32  1  0  0  0  0
  9 10  1  0  0  0  0
  9 11  1  0  0  0  0
  9 33  1  0  0  0  0
 10 34  1  0  0  0  0
 11 12  1  0  0  0  0
 11 35  1  0  0  0  0
 11 36  1  0  0  0  0
 12 21  1  0  0  0  0
 12 13  1  0  0  0  0
 13 14  1  0  0  0  0
 13 37  1  0  0  0  0
 13 38  1  0  0  0  0
 14 15  1  0  0  0  0
 14 39  1  0  0  0  0
 14 40  1  0  0  0  0
 15 16  1  0  0  0  0
 16 17  1  0  0  0  0
 16 21  1  0  0  0  0
 16 41  1  0  0  0  0
 17 18  1  0  0  0  0
 17 42  1  0  0  0  0
 17 43  1  0  0  0  0
 18 19  1  0  0  0  0
 18 20  1  0  0  0  0
 18 56  1  0  0  0  0
 19 44  1  0  0  0  0
 19 45  1  0  0  0  0
 19 46  1  0  0  0  0
 20 47  1  0  0  0  0
 20 48  1  0  0  0  0
 20 49  1  0  0  0  0
 21 50  1  0  0  0  0
 21 51  1  0  0  0  0
 22 23  1  0  0  0  0
 23 24  2  0  0  0  0
 23 52  1  0  0  0  0
 24 25  1  0  0  0  0
 25 53  1  0  0  0  0
 25 54  1  0  0  0  0
 25 55  1  0  0  0  0
M  CHG  1   5   1
M  CHG  1  18   1
M  END
> <s_m_source_file>
AV-unprocessed.smi

> <i_m_source_file_index>
1005

> <i_lp_mmshare_version>
43012

> <i_f3d_flags>
0

> <s_epik_input>
W0NIM11jKFtjSF0xKWMoW0NIM10pW2NIXWMoYzEyKW4oW2NIXW4yKVtDSDJdW0NASF0oW09IXSlbQ0gyXU4zW0NIMl1bQ0gyXU9bQ0BIXShbQ0gyXTMpW0NIMl1OKFtDSDNdKVtDSDNd

> <s_epik_cmdline>
J2VwaWtfcHl0aG9uJywgJy1waCcsICc3LjAnLCAnLXRuJywgJzgnLCAnLW1hJywgJzIwMCcsICctbWV0YWxfYmluZGluZycsICctaW1hZScsICc8aW5maWxlLm1hZT4nLCAnLW9tYWUnLCAnPG91dGZpbGUubWFlPic=

> <r_epik_Ionization_Penalty>
1.3281

> <r_epik_Ionization_Penalty_Charging>
1.21988

> <r_epik_Ionization_Penalty_Neutral>
0.10822

> <r_epik_State_Penalty>
1.32886

> <r_epik_Charging_Adjusted_Penalty>
2.54875

> <i_epik_Tot_Q>
2

> <i_epik_Tot_abs_Q>
2

> <r_epik_Metal_State_Penalty>
5.33912

> <b_epik_Metal_Only>
0

> <s_lp_Force_Field>
OPLS_2005

> <r_lp_Energy>
45.907

> <b_lp_Chiralities_Consistent>
1

> <s_lp_Variant>
AV-unprocessed.smi:1005-14

> <Gold.Version>
5.8.1

> <Gold.Id.Protein>
6NUR|6NUR_protein|mol2

> <Gold.PLP.Fitness>
59.2030

> <Gold.PLP.PLP>
-47.9892

> <Gold.PLP.part.hbond>
-3.0000

> <Gold.PLP.part.metal>
0.0000

> <Gold.PLP.part.buried>
-6.2716

> <Gold.PLP.part.nonpolar>
-38.8435

> <Gold.PLP.part.repulsive>
0.2495

> <Gold.PLP.ligand.clash>
0.0000

> <Gold.PLP.ligand.torsion>
0.4862

> <Gold.PLP.Chemscore.Hbond>
4.0000

> <Gold.PLP.Chemscore.CHOScore>
0.0000

> <Gold.PLP.Chemscore.Metal>
0.0000

> <Gold.Chemscore.Hbonds>
donor molecule, donor type, donor heavy atom, donor atom, acceptor molecule, acceptor atom, score
      L1  H     5    57       P1  8028  2.00
      P1  H  6896  6907       L1    15  0.05
      P1  H  7989  7998       L1    10  0.90

> <Gold.PLP.Chemscore.Internal.Correction>
0.1862

> <Gold.Rescore>
     Score         DG    S(hbond)    S(metal)    S(lipo)     H(rot)  DE(clash)    DE(int)     intcor
     20.53     -22.55       2.49        0.00     129.30       2.49       0.01       2.02       ----

> <Gold.Chemscore.Fitness>
20.5272

> <Gold.Chemscore.DG>
-22.5499

> <Gold.Chemscore.ZeroCoef>
-5.4800

> <Gold.Chemscore.Hbond>
2.4896

> <Gold.Chemscore.Metal>
0.0000

> <Gold.Chemscore.Lipo>
129.3015

> <Gold.Chemscore.Internal_Hbond>
0.0000

> <Gold.Chemscore.DEClash>
0.0064

> <Gold.Chemscore.DEInternal>
2.0163

> <Gold.Chemscore.Rot>
2.4897

> <Gold.Chemscore.Internal.Correction>
   9.000000E+99

> <Gold.Chemscore.Hbonds>
donor molecule, donor type, donor heavy atom, donor atom, acceptor molecule, acceptor atom, score
      L1  H     5    57       P1  8028  0.97
      P1  H  6896  6907       L1    15  0.07
      P1  H  7989  7998       L1    10  0.18

> <Gold.Chemscore.Hbond.Weighted>
-8.3153

> <Gold.Chemscore.Metal.Weighted>
-0.0000

> <Gold.Chemscore.Lipo.Weighted>
-15.1283

> <Gold.Chemscore.Internal_Hbond.Weighted>
0.0000

> <Gold.Chemscore.DEClash.Weighted>
0.0064

> <Gold.Chemscore.DEInternal.Weighted>
2.0163

> <Gold.Chemscore.Rot.Weighted>
6.3737

> <Gold.Chemscore.Internal.Correction.Weighted>
   9.000000E+99

> <Gold.Protein.RotatedTorsions>
[ 6907 6896 6895 6894 ] final -102.28 input  -60.11 | X-H torsion
[ 7974 7965 7964 7962 ] final -103.47 input  175.53 | X-H torsion
[ 8008 7997 7996 7995 ] final   86.99 input   59.86 | X-H torsion
[ 10167 10162 10161 10158 ] final  -56.49 input  -65.29 | X-H torsion
[ 10718 10713 10712 10709 ] final -143.43 input   66.30 | X-H torsion
[ 10763 10752 10751 10750 ] final  -88.96 input  -60.55 | X-H torsion
[ 11005 11000 10999 10996 ] final  -79.23 input  -57.11 | X-H torsion

> <Gold.Protein.ActiveResidues>
 VAL166  LYS551  ARG553  GLY616  TRP617  ASP618  TYR619  PRO620  LYS621  CYS622 
 ASP623  PHE694  ASN695  SER759  ASP760  ASP761  ALA762  ILE779  LEU786  VAL792 
 PHE793  MET794  SER795  GLU796  ALA797  LYS798  CYS799  TRP800  GLU811  SER814 

> <Gold.Protein.RotatedAtoms>
  150.7189  134.0605  159.3829 H   0  0  0  0  0  0  0  0  0  0  0  0  # atno 6907 bound_to 6896
  151.8585  135.0530  160.0476 H   0  0  0  0  0  0  0  0  0  0  0  0  # atno 6908 bound_to 6896
  152.2736  133.5369  159.5490 H   0  0  0  0  0  0  0  0  0  0  0  0  # atno 6909 bound_to 6896
  145.2555  140.9252  143.3071 H   0  0  0  0  0  0  0  0  0  0  0  0  # atno 7974 bound_to 7965
  155.9697  140.3386  155.6564 H   0  0  0  0  0  0  0  0  0  0  0  0  # atno 8008 bound_to 7997
  155.6690  140.0725  157.2545 H   0  0  0  0  0  0  0  0  0  0  0  0  # atno 8009 bound_to 7997
  154.4163  140.1695  156.1846 H   0  0  0  0  0  0  0  0  0  0  0  0  # atno 8010 bound_to 7997
  140.6314  143.2461  151.5231 H   0  0  0  0  0  0  0  0  0  0  0  0  # atno 10167 bound_to 10162
  156.3579  130.7722  151.1885 H   0  0  0  0  0  0  0  0  0  0  0  0  # atno 10718 bound_to 10713
  154.6502  135.5358  153.7892 H   0  0  0  0  0  0  0  0  0  0  0  0  # atno 10763 bound_to 10752
  153.0382  135.6480  154.1029 H   0  0  0  0  0  0  0  0  0  0  0  0  # atno 10764 bound_to 10752
  154.0947  135.2937  155.3244 H   0  0  0  0  0  0  0  0  0  0  0  0  # atno 10765 bound_to 10752
  141.1667  133.7097  156.8090 H   0  0  0  0  0  0  0  0  0  0  0  0  # atno 11005 bound_to 11000
  144.9465  139.4130  143.6423 LP  0  0  0  0  0  0  0  0  0  0  0  0  # atno 17320 bound_to 7965
  146.3290  139.8451  142.8883 LP  0  0  0  0  0  0  0  0  0  0  0  0  # atno 17321 bound_to 7965
  139.5528  144.2352  152.1560 LP  0  0  0  0  0  0  0  0  0  0  0  0  # atno 17342 bound_to 10162
  140.1597  144.5037  150.6640 LP  0  0  0  0  0  0  0  0  0  0  0  0  # atno 17343 bound_to 10162
  157.7470  131.0408  150.4618 LP  0  0  0  0  0  0  0  0  0  0  0  0  # atno 17370 bound_to 10713
  156.4824  130.4077  149.6454 LP  0  0  0  0  0  0  0  0  0  0  0  0  # atno 17371 bound_to 10713
  140.2201  134.8763  157.3368 LP  0  0  0  0  0  0  0  0  0  0  0  0  # atno 17394 bound_to 11000
  140.1997  134.4270  155.7669 LP  0  0  0  0  0  0  0  0  0  0  0  0  # atno 17395 bound_to 11000

$$$$
