AV-unprocessed.smi:40|AV-procd|sdf|375|dock10
  -GOLD-   2262016223D 1   1.00000     0.00000
 Structure written by MMmdl.
 47 48  0  0  0  0  0  0  0  0  1 V2000
  152.0017  144.7449  160.4791 C   0  0  0  0  0  0  0  0  0  0  0  0
  152.3185  145.1775  159.0433 C   0  0  0  0  0  0  0  0  0  0  0  0
  152.3372  143.9969  158.0621 C   0  0  0  0  0  0  0  0  0  0  0  0
  150.9838  143.2737  157.9828 C   0  0  0  0  0  0  0  0  0  0  0  0
  150.9953  142.0898  157.0016 C   0  0  0  0  0  0  0  0  0  0  0  0
  149.8110  141.3125  157.1207 O   0  0  0  0  0  0  0  0  0  0  0  0
  149.4512  140.4404  156.1530 C   0  0  0  0  0  0  0  0  0  0  0  0
  150.0850  140.2534  155.1148 O   0  0  0  0  0  0  0  0  0  0  0  0
  148.1981  139.7923  156.4822 N   0  0  0  0  0  0  0  0  0  0  0  0
  147.5528  138.8685  155.7380 C   0  0  0  0  0  0  0  0  0  0  0  0
  146.2519  139.0209  155.5709 N   0  0  0  0  0  0  0  0  0  0  0  0
  145.4719  138.1575  154.8481 C   0  0  0  0  0  0  0  0  0  0  0  0
  144.2644  138.3564  154.7244 O   0  0  0  0  0  0  0  0  0  0  0  0
  146.1145  137.0476  154.2504 N   0  0  0  0  0  0  0  0  0  0  0  0
  145.3043  136.0448  153.4590 C   0  0  2  0  0  0  0  0  0  0  0  0
  146.0917  134.9082  153.2814 O   0  0  0  0  0  0  0  0  0  0  0  0
  145.8636  134.3859  151.9828 C   0  0  2  0  0  0  0  0  0  0  0  0
  147.0550  133.5268  151.5449 C   0  0  0  0  0  0  0  0  0  0  0  0
  145.6379  135.6311  151.1225 C   0  0  1  0  0  0  0  0  0  0  0  0
  144.8574  135.3088  149.9888 O   0  0  0  0  0  0  0  0  0  0  0  0
  144.8797  136.5614  152.0633 C   0  0  2  0  0  0  0  0  0  0  0  0
  145.2076  137.9160  151.8099 O   0  0  0  0  0  0  0  0  0  0  0  0
  147.4832  136.8822  154.3977 C   0  0  0  0  0  0  0  0  0  0  0  0
  148.2318  137.7456  155.1162 C   0  0  0  0  0  0  0  0  0  0  0  0
  149.5596  137.5667  155.2261 F   0  0  0  0  0  0  0  0  0  0  0  0
  144.4482  135.7623  154.0724 H   0  0  0  0  0  0  0  0  0  0  0  0
  144.9552  133.7815  152.0219 H   0  0  0  0  0  0  0  0  0  0  0  0
  146.5936  136.0670  150.8258 H   0  0  0  0  0  0  0  0  0  0  0  0
  143.8012  136.4218  151.9731 H   0  0  0  0  0  0  0  0  0  0  0  0
  151.9997  145.6030  161.1517 H   0  0  0  0  0  0  0  0  0  0  0  0
  152.7414  144.0344  160.8487 H   0  0  0  0  0  0  0  0  0  0  0  0
  151.0212  144.2717  160.5408 H   0  0  0  0  0  0  0  0  0  0  0  0
  151.5800  145.9115  158.7189 H   0  0  0  0  0  0  0  0  0  0  0  0
  153.2848  145.6829  159.0262 H   0  0  0  0  0  0  0  0  0  0  0  0
  152.6157  144.3538  157.0698 H   0  0  0  0  0  0  0  0  0  0  0  0
  153.1117  143.2908  158.3641 H   0  0  0  0  0  0  0  0  0  0  0  0
  150.6864  142.9316  158.9748 H   0  0  0  0  0  0  0  0  0  0  0  0
  150.2188  143.9824  157.6646 H   0  0  0  0  0  0  0  0  0  0  0  0
  151.1219  142.4430  155.9771 H   0  0  0  0  0  0  0  0  0  0  0  0
  151.8499  141.4465  157.2123 H   0  0  0  0  0  0  0  0  0  0  0  0
  147.8300  140.0151  157.3953 H   0  0  0  0  0  0  0  0  0  0  0  0
  146.9021  133.1295  150.5411 H   0  0  0  0  0  0  0  0  0  0  0  0
  147.1948  132.6824  152.2202 H   0  0  0  0  0  0  0  0  0  0  0  0
  147.9792  134.1052  151.5395 H   0  0  0  0  0  0  0  0  0  0  0  0
  145.4377  135.0891  149.2761 H   0  0  0  0  0  0  0  0  0  0  0  0
  144.5613  138.2750  151.2217 H   0  0  0  0  0  0  0  0  0  0  0  0
  147.9750  136.0463  153.9208 H   0  0  0  0  0  0  0  0  0  0  0  0
  1  2  1  0  0  0  0
  1 30  1  0  0  0  0
  1 31  1  0  0  0  0
  1 32  1  0  0  0  0
  2  3  1  0  0  0  0
  2 33  1  0  0  0  0
  2 34  1  0  0  0  0
  3  4  1  0  0  0  0
  3 35  1  0  0  0  0
  3 36  1  0  0  0  0
  4  5  1  0  0  0  0
  4 37  1  0  0  0  0
  4 38  1  0  0  0  0
  5  6  1  0  0  0  0
  5 39  1  0  0  0  0
  5 40  1  0  0  0  0
  6  7  1  0  0  0  0
  7  8  2  0  0  0  0
  7  9  1  0  0  0  0
  9 10  1  0  0  0  0
  9 41  1  0  0  0  0
 10 24  1  0  0  0  0
 10 11  2  0  0  0  0
 11 12  1  0  0  0  0
 12 13  2  0  0  0  0
 12 14  1  0  0  0  0
 14 15  1  0  0  0  0
 14 23  1  0  0  0  0
 15 26  1  0  0  0  0
 15 21  1  0  0  0  0
 15 16  1  0  0  0  0
 16 17  1  0  0  0  0
 17 27  1  0  0  0  0
 17 18  1  0  0  0  0
 17 19  1  0  0  0  0
 18 42  1  0  0  0  0
 18 43  1  0  0  0  0
 18 44  1  0  0  0  0
 19 28  1  0  0  0  0
 19 20  1  0  0  0  0
 19 21  1  0  0  0  0
 20 45  1  0  0  0  0
 21 29  1  0  0  0  0
 21 22  1  0  0  0  0
 22 46  1  0  0  0  0
 23 24  2  0  0  0  0
 23 47  1  0  0  0  0
 24 25  1  0  0  0  0
M  END
> <s_m_source_file>
AV-unprocessed.smi

> <i_m_source_file_index>
40

> <i_lp_mmshare_version>
43012

> <i_f3d_flags>
0

> <s_epik_input>
W0NIM11bQ0gyXVtDSDJdW0NIMl1bQ0gyXU9DKD1PKVtOSF1jMW5jKD1PKW4oW2NIXWMxRilbQ0BASF0yT1tDQEhdKFtDSDNdKVtDQEBIXShbT0hdKVtDQEhdMltPSF0=

> <s_epik_cmdline>
J2VwaWtfcHl0aG9uJywgJy1waCcsICc3LjAnLCAnLXRuJywgJzgnLCAnLW1hJywgJzIwMCcsICctbWV0YWxfYmluZGluZycsICctaW1hZScsICc8aW5maWxlLm1hZT4nLCAnLW9tYWUnLCAnPG91dGZpbGUubWFlPic=

> <r_lp_tautomer_probability>
1

> <r_epik_Ionization_Penalty>
2.29506e-06

> <r_epik_Ionization_Penalty_Charging>
8.26867e-09

> <r_epik_Ionization_Penalty_Neutral>
2.2868e-06

> <r_epik_State_Penalty>
-0

> <r_epik_Charging_Adjusted_Penalty>
8.26867e-09

> <i_epik_Tot_Q>
0

> <i_epik_Tot_abs_Q>
0

> <r_epik_Metal_State_Penalty>
-0

> <b_epik_Metal_Only>
0

> <s_epik_Chemistry_Notes>
This compound has an ester and may undergo hydrolysis at high or low pH. This compound contains an acetal/aminal-like group ( X-CH(R)-Y where X, Y are N, S, or O) that may be acid/base labile, releasing an aldehyde.

> <s_lp_Force_Field>
OPLS_2005

> <r_lp_Energy>
38.1616

> <b_lp_Chiralities_Consistent>
1

> <s_lp_Variant>
AV-unprocessed.smi:40-9

> <Gold.Version>
5.8.1

> <Gold.Id.Protein>
6NUR|6NUR_protein|mol2

> <Gold.PLP.Fitness>
42.4389

> <Gold.PLP.PLP>
-34.2445

> <Gold.PLP.part.hbond>
-3.0603

> <Gold.PLP.part.metal>
0.0000

> <Gold.PLP.part.buried>
-4.3609

> <Gold.PLP.part.nonpolar>
-26.2793

> <Gold.PLP.part.repulsive>
0.4417

> <Gold.PLP.ligand.clash>
0.0000

> <Gold.PLP.ligand.torsion>
0.8436

> <Gold.PLP.Chemscore.Hbond>
2.3063

> <Gold.PLP.Chemscore.CHOScore>
0.9061

> <Gold.PLP.Chemscore.Metal>
0.0000

> <Gold.Chemscore.Hbonds>
donor molecule, donor type, donor heavy atom, donor atom, acceptor molecule, acceptor atom, score
      L1  H    20    45       P1  7921  1.00
      L1  H    22    46       P1 10171  1.00
      P1  H  7989  7998       L1     8  0.28
      L1  C    23    47       P1  7948  0.85

> <Gold.PLP.Chemscore.Internal.Correction>
0.2445

> <Gold.Rescore>
     Score         DG    S(hbond)    S(metal)    S(lipo)     H(rot)  DE(clash)    DE(int)     intcor
     11.44     -13.71       2.32        0.00      84.86       3.70       0.46       1.81       ----

> <Gold.Chemscore.Fitness>
11.4405

> <Gold.Chemscore.DG>
-13.7066

> <Gold.Chemscore.ZeroCoef>
-5.4800

> <Gold.Chemscore.Hbond>
2.3230

> <Gold.Chemscore.Metal>
0.0000

> <Gold.Chemscore.Lipo>
84.8597

> <Gold.Chemscore.Internal_Hbond>
0.0000

> <Gold.Chemscore.DEClash>
0.4566

> <Gold.Chemscore.DEInternal>
1.8095

> <Gold.Chemscore.Rot>
3.6957

> <Gold.Chemscore.Internal.Correction>
   9.000000E+99

> <Gold.Chemscore.Hbonds>
donor molecule, donor type, donor heavy atom, donor atom, acceptor molecule, acceptor atom, score
      L1  H    20    45       P1  7921  1.00
      L1  H    22    46       P1 10171  0.97
      P1  H  7989  7998       L1     8  0.28

> <Gold.Chemscore.Hbond.Weighted>
-7.7590

> <Gold.Chemscore.Metal.Weighted>
-0.0000

> <Gold.Chemscore.Lipo.Weighted>
-9.9286

> <Gold.Chemscore.Internal_Hbond.Weighted>
0.0000

> <Gold.Chemscore.DEClash.Weighted>
0.4566

> <Gold.Chemscore.DEInternal.Weighted>
1.8095

> <Gold.Chemscore.Rot.Weighted>
9.4610

> <Gold.Chemscore.Internal.Correction.Weighted>
   9.000000E+99

> <Gold.Protein.RotatedTorsions>
[ 6907 6896 6895 6894 ] final  100.76 input  -60.11 | X-H torsion
[ 7974 7965 7964 7962 ] final -104.63 input  175.53 | X-H torsion
[ 8008 7997 7996 7995 ] final  127.49 input   59.86 | X-H torsion
[ 10167 10162 10161 10158 ] final    9.93 input  -65.29 | X-H torsion
[ 10718 10713 10712 10709 ] final  -92.86 input   66.30 | X-H torsion
[ 10763 10752 10751 10750 ] final  -54.09 input  -60.55 | X-H torsion
[ 11005 11000 10999 10996 ] final  -57.38 input  -57.11 | X-H torsion

> <Gold.Protein.ActiveResidues>
 VAL166  LYS551  ARG553  GLY616  TRP617  ASP618  TYR619  PRO620  LYS621  CYS622 
 ASP623  PHE694  ASN695  SER759  ASP760  ASP761  ALA762  ILE779  LEU786  VAL792 
 PHE793  MET794  SER795  GLU796  ALA797  LYS798  CYS799  TRP800  GLU811  SER814 

> <Gold.Protein.RotatedAtoms>
  152.5365  134.0228  159.7989 H   0  0  0  0  0  0  0  0  0  0  0  0  # atno 6907 bound_to 6896
  151.0412  133.5697  159.2658 H   0  0  0  0  0  0  0  0  0  0  0  0  # atno 6908 bound_to 6896
  151.2666  135.0678  159.9172 H   0  0  0  0  0  0  0  0  0  0  0  0  # atno 6909 bound_to 6896
  145.2408  140.9204  143.3151 H   0  0  0  0  0  0  0  0  0  0  0  0  # atno 7974 bound_to 7965
  156.2892  140.2667  156.2282 H   0  0  0  0  0  0  0  0  0  0  0  0  # atno 8008 bound_to 7997
  155.0099  140.0387  157.2413 H   0  0  0  0  0  0  0  0  0  0  0  0  # atno 8009 bound_to 7997
  154.7527  140.2746  155.6284 H   0  0  0  0  0  0  0  0  0  0  0  0  # atno 8010 bound_to 7997
  140.6225  143.8174  150.7192 H   0  0  0  0  0  0  0  0  0  0  0  0  # atno 10167 bound_to 10162
  156.0007  130.5004  150.5689 H   0  0  0  0  0  0  0  0  0  0  0  0  # atno 10718 bound_to 10713
  154.1693  135.6462  153.5005 H   0  0  0  0  0  0  0  0  0  0  0  0  # atno 10763 bound_to 10752
  153.0089  135.5379  154.6629 H   0  0  0  0  0  0  0  0  0  0  0  0  # atno 10764 bound_to 10752
  154.5964  135.2939  155.0554 H   0  0  0  0  0  0  0  0  0  0  0  0  # atno 10765 bound_to 10752
  141.1162  133.6610  156.4761 H   0  0  0  0  0  0  0  0  0  0  0  0  # atno 11005 bound_to 11000
  144.9591  139.3999  143.6364 LP  0  0  0  0  0  0  0  0  0  0  0  0  # atno 17320 bound_to 7965
  146.3329  139.8636  142.8852 LP  0  0  0  0  0  0  0  0  0  0  0  0  # atno 17321 bound_to 7965
  140.1767  143.4149  152.1962 LP  0  0  0  0  0  0  0  0  0  0  0  0  # atno 17342 bound_to 10162
  139.5451  144.7291  151.4610 LP  0  0  0  0  0  0  0  0  0  0  0  0  # atno 17343 bound_to 10162
  157.3587  131.0746  151.1654 LP  0  0  0  0  0  0  0  0  0  0  0  0  # atno 17370 bound_to 10713
  157.2446  130.6585  149.5904 LP  0  0  0  0  0  0  0  0  0  0  0  0  # atno 17371 bound_to 10713
  140.4639  134.6816  157.5098 LP  0  0  0  0  0  0  0  0  0  0  0  0  # atno 17394 bound_to 11000
  140.0086  134.6725  155.9416 LP  0  0  0  0  0  0  0  0  0  0  0  0  # atno 17395 bound_to 11000

$$$$
