AV-unprocessed.smi:565|AV-procd|sdf|2954|dock2
  -GOLD-   2262023453D 1   1.00000     0.00000
 Structure written by MMmdl.
 50 51  0  0  0  0  0  0  0  0  2 V2000
  153.3048  137.7924  156.4637 C   0  0  0  0  0  0  0  0  0  0  0  0
  152.3035  138.8643  156.1399 C   0  0  0  0  0  0  0  0  0  0  0  0
  152.3569  140.0172  156.7856 N   0  0  0  0  0  0  0  0  0  0  0  0
  151.3439  140.7455  156.2758 N   0  0  0  0  0  0  0  0  0  0  0  0
  151.1126  142.0873  156.7742 C   0  0  0  0  0  0  0  0  0  0  0  0
  150.6510  140.0528  155.3020 C   0  0  0  0  0  0  0  0  0  0  0  0
  149.4794  140.6442  154.5861 C   0  0  0  0  0  0  0  0  0  0  0  0
  151.2425  138.8223  155.1882 C   0  0  0  0  0  0  0  0  0  0  0  0
  150.8711  137.6736  154.2841 C   0  0  0  0  0  0  0  0  0  0  0  0
  150.1973  136.5774  155.1086 C   0  0  0  0  0  0  0  0  0  0  0  0
  150.3167  136.5634  156.3336 O   0  0  0  0  0  0  0  0  0  0  0  0
  149.4743  135.6746  154.4275 N   0  0  0  0  0  0  0  0  0  0  0  0
  148.6956  134.6021  155.0326 C   0  0  0  0  0  0  0  0  0  0  0  0
  148.4024  133.4850  154.0125 C   0  0  0  0  0  0  0  0  0  0  0  0
  147.5098  133.9372  152.9163 N   0  3  2  0  0  0  0  0  0  0  0  0
  146.3824  134.7647  153.4175 C   0  0  0  0  0  0  0  0  0  0  0  0
  145.5547  135.3351  152.2551 C   0  0  0  0  0  0  0  0  0  0  0  0
  145.0415  134.2125  151.3449 C   0  0  0  0  0  0  0  0  0  0  0  0
  146.2134  133.3442  150.8567 C   0  0  2  0  0  0  0  0  0  0  0  0
  145.7246  132.1938  149.9654 C   0  0  0  0  0  0  0  0  0  0  0  0
  147.0274  132.8215  152.0579 C   0  0  0  0  0  0  0  0  0  0  0  0
  152.8330  136.8102  156.4906 H   0  0  0  0  0  0  0  0  0  0  0  0
  153.7733  137.9578  157.4346 H   0  0  0  0  0  0  0  0  0  0  0  0
  154.0953  137.7605  155.7140 H   0  0  0  0  0  0  0  0  0  0  0  0
  150.0595  142.2098  157.0283 H   0  0  0  0  0  0  0  0  0  0  0  0
  151.3813  142.8133  156.0064 H   0  0  0  0  0  0  0  0  0  0  0  0
  151.7125  142.2757  157.6658 H   0  0  0  0  0  0  0  0  0  0  0  0
  149.2024  140.0469  153.7178 H   0  0  0  0  0  0  0  0  0  0  0  0
  149.7029  141.6525  154.2367 H   0  0  0  0  0  0  0  0  0  0  0  0
  148.6133  140.6985  155.2457 H   0  0  0  0  0  0  0  0  0  0  0  0
  150.2003  137.9882  153.4845 H   0  0  0  0  0  0  0  0  0  0  0  0
  151.7505  137.2580  153.7908 H   0  0  0  0  0  0  0  0  0  0  0  0
  149.4366  135.7595  153.4218 H   0  0  0  0  0  0  0  0  0  0  0  0
  149.2666  134.2002  155.8698 H   0  0  0  0  0  0  0  0  0  0  0  0
  147.7788  135.0169  155.4520 H   0  0  0  0  0  0  0  0  0  0  0  0
  149.3245  133.0841  153.5889 H   0  0  0  0  0  0  0  0  0  0  0  0
  147.9291  132.6601  154.5474 H   0  0  0  0  0  0  0  0  0  0  0  0
  145.7501  134.1627  154.0723 H   0  0  0  0  0  0  0  0  0  0  0  0
  146.7670  135.5900  154.0182 H   0  0  0  0  0  0  0  0  0  0  0  0
  144.7154  135.9129  152.6435 H   0  0  0  0  0  0  0  0  0  0  0  0
  146.1654  136.0282  151.6748 H   0  0  0  0  0  0  0  0  0  0  0  0
  144.3233  133.5982  151.8899 H   0  0  0  0  0  0  0  0  0  0  0  0
  144.5059  134.6390  150.4959 H   0  0  0  0  0  0  0  0  0  0  0  0
  146.8704  133.9713  150.2516 H   0  0  0  0  0  0  0  0  0  0  0  0
  145.0599  131.5235  150.5114 H   0  0  0  0  0  0  0  0  0  0  0  0
  146.5610  131.6022  149.5922 H   0  0  0  0  0  0  0  0  0  0  0  0
  145.1784  132.5719  149.1006 H   0  0  0  0  0  0  0  0  0  0  0  0
  147.8726  132.2430  151.6866 H   0  0  0  0  0  0  0  0  0  0  0  0
  146.4205  132.1397  152.6564 H   0  0  0  0  0  0  0  0  0  0  0  0
  148.0631  134.5445  152.3289 H   0  0  0  0  0  0  0  0  0  0  0  0
  1  2  1  0  0  0  0
  1 22  1  0  0  0  0
  1 23  1  0  0  0  0
  1 24  1  0  0  0  0
  2  8  1  0  0  0  0
  2  3  2  0  0  0  0
  3  4  1  0  0  0  0
  4  5  1  0  0  0  0
  4  6  1  0  0  0  0
  5 25  1  0  0  0  0
  5 26  1  0  0  0  0
  5 27  1  0  0  0  0
  6  7  1  0  0  0  0
  6  8  2  0  0  0  0
  7 28  1  0  0  0  0
  7 29  1  0  0  0  0
  7 30  1  0  0  0  0
  8  9  1  0  0  0  0
  9 10  1  0  0  0  0
  9 31  1  0  0  0  0
  9 32  1  0  0  0  0
 10 11  2  0  0  0  0
 10 12  1  0  0  0  0
 12 13  1  0  0  0  0
 12 33  1  0  0  0  0
 13 14  1  0  0  0  0
 13 34  1  0  0  0  0
 13 35  1  0  0  0  0
 14 15  1  0  0  0  0
 14 36  1  0  0  0  0
 14 37  1  0  0  0  0
 15 21  1  0  0  0  0
 15 16  1  0  0  0  0
 15 50  1  0  0  0  0
 16 17  1  0  0  0  0
 16 38  1  0  0  0  0
 16 39  1  0  0  0  0
 17 18  1  0  0  0  0
 17 40  1  0  0  0  0
 17 41  1  0  0  0  0
 18 19  1  0  0  0  0
 18 42  1  0  0  0  0
 18 43  1  0  0  0  0
 19 20  1  0  0  0  0
 19 21  1  0  0  0  0
 19 44  1  0  0  0  0
 20 45  1  0  0  0  0
 20 46  1  0  0  0  0
 20 47  1  0  0  0  0
 21 48  1  0  0  0  0
 21 49  1  0  0  0  0
M  CHG  1  15   1
M  END
> <s_m_source_file>
AV-unprocessed.smi

> <i_m_source_file_index>
565

> <i_lp_mmshare_version>
43012

> <i_f3d_flags>
0

> <s_epik_input>
W0NIM11jMW5uKFtDSDNdKWMoW0NIM10pYzFbQ0gyXUMoPU8pW05IXVtDSDJdW0NIMl1OMltDSDJdW0NIMl1bQ0gyXVtDQEBIXShbQ0gzXSlbQ0gyXTI=

> <s_epik_cmdline>
J2VwaWtfcHl0aG9uJywgJy1waCcsICc3LjAnLCAnLXRuJywgJzgnLCAnLW1hJywgJzIwMCcsICctbWV0YWxfYmluZGluZycsICctaW1hZScsICc8aW5maWxlLm1hZT4nLCAnLW9tYWUnLCAnPG91dGZpbGUubWFlPic=

> <r_lp_tautomer_probability>
1

> <r_epik_Ionization_Penalty>
0.00411138

> <r_epik_Ionization_Penalty_Charging>
0.0019503

> <r_epik_Ionization_Penalty_Neutral>
0.00216107

> <r_epik_State_Penalty>
-0

> <r_epik_Charging_Adjusted_Penalty>
0.0019503

> <i_epik_Tot_Q>
1

> <i_epik_Tot_abs_Q>
1

> <r_epik_Metal_State_Penalty>
-0

> <b_epik_Metal_Only>
0

> <s_lp_Force_Field>
OPLS_2005

> <r_lp_Energy>
10.1844

> <b_lp_Chiralities_Consistent>
1

> <s_lp_Variant>
AV-unprocessed.smi:565-4

> <Gold.Version>
5.8.1

> <Gold.Id.Protein>
6NUR|6NUR_protein|mol2

> <Gold.PLP.Fitness>
48.1317

> <Gold.PLP.PLP>
-39.0330

> <Gold.PLP.part.hbond>
-3.0000

> <Gold.PLP.part.metal>
0.0000

> <Gold.PLP.part.buried>
-2.0803

> <Gold.PLP.part.nonpolar>
-34.8217

> <Gold.PLP.part.repulsive>
0.0480

> <Gold.PLP.ligand.clash>
0.0000

> <Gold.PLP.ligand.torsion>
0.6529

> <Gold.PLP.Chemscore.Hbond>
3.4461

> <Gold.PLP.Chemscore.CHOScore>
0.0000

> <Gold.PLP.Chemscore.Metal>
0.0000

> <Gold.Chemscore.Hbonds>
donor molecule, donor type, donor heavy atom, donor atom, acceptor molecule, acceptor atom, score
      L1  H    12    33       P1  7948  1.00
      L1  H    15    50       P1  7948  2.00
      P1  H  7997  8008       L1     3  0.50

> <Gold.PLP.Chemscore.Internal.Correction>
0.0664

> <Gold.Rescore>
     Score         DG    S(hbond)    S(metal)    S(lipo)     H(rot)  DE(clash)    DE(int)     intcor
     17.23     -18.45       2.15        0.00      84.70       1.61       0.50       0.72       ----

> <Gold.Chemscore.Fitness>
17.2296

> <Gold.Chemscore.DG>
-18.4517

> <Gold.Chemscore.ZeroCoef>
-5.4800

> <Gold.Chemscore.Hbond>
2.1538

> <Gold.Chemscore.Metal>
0.0000

> <Gold.Chemscore.Lipo>
84.7041

> <Gold.Chemscore.Internal_Hbond>
0.0000

> <Gold.Chemscore.DEClash>
0.4997

> <Gold.Chemscore.DEInternal>
0.7224

> <Gold.Chemscore.Rot>
1.6142

> <Gold.Chemscore.Internal.Correction>
   9.000000E+99

> <Gold.Chemscore.Hbonds>
donor molecule, donor type, donor heavy atom, donor atom, acceptor molecule, acceptor atom, score
      L1  H    12    33       P1  7948  0.30
      L1  H    15    50       P1  7948  0.29
      P1  H  7997  8008       L1     3  0.02

> <Gold.Chemscore.Hbond.Weighted>
-7.1937

> <Gold.Chemscore.Metal.Weighted>
-0.0000

> <Gold.Chemscore.Lipo.Weighted>
-9.9104

> <Gold.Chemscore.Internal_Hbond.Weighted>
0.0000

> <Gold.Chemscore.DEClash.Weighted>
0.4997

> <Gold.Chemscore.DEInternal.Weighted>
0.7224

> <Gold.Chemscore.Rot.Weighted>
4.1324

> <Gold.Chemscore.Internal.Correction.Weighted>
   9.000000E+99

> <Gold.Protein.RotatedTorsions>
[ 6907 6896 6895 6894 ] final  -27.53 input  -60.11 | X-H torsion
[ 7974 7965 7964 7962 ] final   61.72 input  175.53 | X-H torsion
[ 8008 7997 7996 7995 ] final  -48.93 input   59.86 | X-H torsion
[ 10167 10162 10161 10158 ] final  -77.02 input  -65.29 | X-H torsion
[ 10718 10713 10712 10709 ] final  171.03 input   66.30 | X-H torsion
[ 10763 10752 10751 10750 ] final -126.22 input  -60.55 | X-H torsion
[ 11005 11000 10999 10996 ] final  -12.26 input  -57.11 | X-H torsion

> <Gold.Protein.ActiveResidues>
 VAL166  LYS551  ARG553  GLY616  TRP617  ASP618  TYR619  PRO620  LYS621  CYS622 
 ASP623  PHE694  ASN695  SER759  ASP760  ASP761  ALA762  ILE779  LEU786  VAL792 
 PHE793  MET794  SER795  GLU796  ALA797  LYS798  CYS799  TRP800  GLU811  SER814 

> <Gold.Protein.RotatedAtoms>
  151.1456  135.0202  159.8645 H   0  0  0  0  0  0  0  0  0  0  0  0  # atno 6907 bound_to 6896
  152.5453  134.1448  159.8504 H   0  0  0  0  0  0  0  0  0  0  0  0  # atno 6908 bound_to 6896
  151.1528  133.4851  159.2628 H   0  0  0  0  0  0  0  0  0  0  0  0  # atno 6909 bound_to 6896
  145.8815  139.3446  143.0703 H   0  0  0  0  0  0  0  0  0  0  0  0  # atno 7974 bound_to 7965
  154.4036  140.1309  156.4420 H   0  0  0  0  0  0  0  0  0  0  0  0  # atno 8008 bound_to 7997
  155.7450  140.3489  155.5102 H   0  0  0  0  0  0  0  0  0  0  0  0  # atno 8009 bound_to 7997
  155.9004  140.1018  157.1344 H   0  0  0  0  0  0  0  0  0  0  0  0  # atno 8010 bound_to 7997
  140.4807  143.2403  151.8062 H   0  0  0  0  0  0  0  0  0  0  0  0  # atno 10167 bound_to 10162
  156.9995  131.0171  151.2834 H   0  0  0  0  0  0  0  0  0  0  0  0  # atno 10718 bound_to 10713
  154.8743  135.4003  154.3395 H   0  0  0  0  0  0  0  0  0  0  0  0  # atno 10763 bound_to 10752
  153.4196  135.7023  153.6308 H   0  0  0  0  0  0  0  0  0  0  0  0  # atno 10764 bound_to 10752
  153.4976  135.3734  155.2494 H   0  0  0  0  0  0  0  0  0  0  0  0  # atno 10765 bound_to 10752
  140.7639  133.8493  155.9148 H   0  0  0  0  0  0  0  0  0  0  0  0  # atno 11005 bound_to 11000
  145.9018  140.9238  143.0499 LP  0  0  0  0  0  0  0  0  0  0  0  0  # atno 17320 bound_to 7965
  144.6727  140.1042  143.7459 LP  0  0  0  0  0  0  0  0  0  0  0  0  # atno 17321 bound_to 7965
  139.4833  144.4776  151.9347 LP  0  0  0  0  0  0  0  0  0  0  0  0  # atno 17342 bound_to 10162
  140.3862  144.2674  150.5904 LP  0  0  0  0  0  0  0  0  0  0  0  0  # atno 17343 bound_to 10162
  157.5401  130.8114  149.8018 LP  0  0  0  0  0  0  0  0  0  0  0  0  # atno 17370 bound_to 10713
  156.0176  130.3807  150.2060 LP  0  0  0  0  0  0  0  0  0  0  0  0  # atno 17371 bound_to 10713
  140.9637  134.1622  157.4633 LP  0  0  0  0  0  0  0  0  0  0  0  0  # atno 17394 bound_to 11000
  139.8766  134.9954  156.5742 LP  0  0  0  0  0  0  0  0  0  0  0  0  # atno 17395 bound_to 11000

$$$$
