AV-unprocessed.smi:1248|AV-procd|sdf|5251|dock10
  -GOLD-   22720 4363D 1   1.00000     0.00000
 Structure written by MMmdl.
 44 46  0  0  0  0  0  0  0  0  2 V2000
  150.4036  141.9566  157.6240 C   0  0  0  0  0  0  0  0  0  0  0  0
  151.0908  141.9600  156.2535 C   0  0  0  0  0  0  0  0  0  0  0  0
  151.1238  140.6345  155.6666 N   0  0  0  0  0  0  0  0  0  0  0  0
  150.0592  139.8178  155.3407 C   0  0  0  0  0  0  0  0  0  0  0  0
  150.6065  138.6834  154.8209 C   0  0  0  0  0  0  0  0  0  0  0  0
  149.8666  137.5672  154.3567 N   0  0  0  0  0  0  0  0  0  0  0  0
  148.8196  136.9804  154.9584 C   0  0  0  0  0  0  0  0  0  0  0  0
  148.3443  137.3179  156.0425 O   0  0  0  0  0  0  0  0  0  0  0  0
  148.3406  135.9654  154.2244 N   0  0  0  0  0  0  0  0  0  0  0  0
  147.2047  135.1251  154.5933 C   0  0  2  0  0  0  0  0  0  0  0  0
  147.0616  133.9704  153.5870 C   0  0  0  0  0  0  0  0  0  0  0  0
  145.8145  133.1164  153.8875 C   0  0  0  0  0  0  0  0  0  0  0  0
  144.5753  133.9340  153.9384 N   0  3  2  0  0  0  0  0  0  0  0  0
  144.1015  134.3656  152.6022 C   0  0  0  0  0  0  0  0  0  0  0  0
  142.6001  134.3093  152.4429 C   0  0  0  0  0  0  0  0  0  0  0  0
  143.4701  133.2545  151.7962 C   0  0  0  0  0  0  0  0  0  0  0  0
  144.6829  135.0493  154.9134 C   0  0  0  0  0  0  0  0  0  0  0  0
  145.9022  135.9474  154.6339 C   0  0  0  0  0  0  0  0  0  0  0  0
  152.0160  138.8801  154.8577 C   0  0  0  0  0  0  0  0  0  0  0  0
  152.3173  140.0639  155.3701 N   0  0  0  0  0  0  0  0  0  0  0  0
  150.3859  142.9592  158.0512 H   0  0  0  0  0  0  0  0  0  0  0  0
  150.9274  141.3056  158.3243 H   0  0  0  0  0  0  0  0  0  0  0  0
  149.3728  141.6089  157.5482 H   0  0  0  0  0  0  0  0  0  0  0  0
  150.5729  142.6351  155.5708 H   0  0  0  0  0  0  0  0  0  0  0  0
  152.1141  142.3262  156.3455 H   0  0  0  0  0  0  0  0  0  0  0  0
  149.0322  140.1092  155.5042 H   0  0  0  0  0  0  0  0  0  0  0  0
  150.1578  137.1846  153.4692 H   0  0  0  0  0  0  0  0  0  0  0  0
  148.7962  135.7586  153.3475 H   0  0  0  0  0  0  0  0  0  0  0  0
  147.3861  134.6967  155.5811 H   0  0  0  0  0  0  0  0  0  0  0  0
  147.0026  134.3646  152.5716 H   0  0  0  0  0  0  0  0  0  0  0  0
  147.9508  133.3396  153.6161 H   0  0  0  0  0  0  0  0  0  0  0  0
  145.7072  132.3246  153.1454 H   0  0  0  0  0  0  0  0  0  0  0  0
  145.9380  132.6194  154.8506 H   0  0  0  0  0  0  0  0  0  0  0  0
  144.6739  135.1469  152.1057 H   0  0  0  0  0  0  0  0  0  0  0  0
  142.0005  134.0089  153.3002 H   0  0  0  0  0  0  0  0  0  0  0  0
  142.1380  135.0446  151.7872 H   0  0  0  0  0  0  0  0  0  0  0  0
  143.5793  133.2941  150.7143 H   0  0  0  0  0  0  0  0  0  0  0  0
  143.4465  132.2541  152.2247 H   0  0  0  0  0  0  0  0  0  0  0  0
  143.7662  135.6399  154.9076 H   0  0  0  0  0  0  0  0  0  0  0  0
  144.7667  134.6240  155.9142 H   0  0  0  0  0  0  0  0  0  0  0  0
  145.9669  136.7167  155.4044 H   0  0  0  0  0  0  0  0  0  0  0  0
  145.7644  136.4753  153.6896 H   0  0  0  0  0  0  0  0  0  0  0  0
  152.8170  138.2287  154.5422 H   0  0  0  0  0  0  0  0  0  0  0  0
  143.8522  133.3235  154.2913 H   0  0  0  0  0  0  0  0  0  0  0  0
  1  2  1  0  0  0  0
  1 21  1  0  0  0  0
  1 22  1  0  0  0  0
  1 23  1  0  0  0  0
  2  3  1  0  0  0  0
  2 24  1  0  0  0  0
  2 25  1  0  0  0  0
  3 20  1  0  0  0  0
  3  4  1  0  0  0  0
  4  5  2  0  0  0  0
  4 26  1  0  0  0  0
  5  6  1  0  0  0  0
  5 19  1  0  0  0  0
  6  7  1  0  0  0  0
  6 27  1  0  0  0  0
  7  8  2  0  0  0  0
  7  9  1  0  0  0  0
  9 10  1  0  0  0  0
  9 28  1  0  0  0  0
 10 18  1  0  0  0  0
 10 11  1  0  0  0  0
 10 29  1  0  0  0  0
 11 12  1  0  0  0  0
 11 30  1  0  0  0  0
 11 31  1  0  0  0  0
 12 13  1  0  0  0  0
 12 32  1  0  0  0  0
 12 33  1  0  0  0  0
 13 14  1  0  0  0  0
 13 17  1  0  0  0  0
 13 44  1  0  0  0  0
 14 16  1  0  0  0  0
 14 15  1  0  0  0  0
 14 34  1  0  0  0  0
 15 16  1  0  0  0  0
 15 35  1  0  0  0  0
 15 36  1  0  0  0  0
 16 37  1  0  0  0  0
 16 38  1  0  0  0  0
 17 18  1  0  0  0  0
 17 39  1  0  0  0  0
 17 40  1  0  0  0  0
 18 41  1  0  0  0  0
 18 42  1  0  0  0  0
 19 20  2  0  0  0  0
 19 43  1  0  0  0  0
M  CHG  1  13   1
M  END
> <s_m_source_file>
AV-unprocessed.smi

> <i_m_source_file_index>
1248

> <i_lp_mmshare_version>
43012

> <i_f3d_flags>
0

> <s_epik_input>
W0NIM11bQ0gyXW4xW2NIXWMoW2NIXW4xKVtOSF1DKD1PKVtOSF1bQ0hdMltDSDJdW0NIMl1OKFtDSDJdW0NIMl0yKVtDSF0zW0NIMl1bQ0gyXTM=

> <s_epik_cmdline>
J2VwaWtfcHl0aG9uJywgJy1waCcsICc3LjAnLCAnLXRuJywgJzgnLCAnLW1hJywgJzIwMCcsICctbWV0YWxfYmluZGluZycsICctaW1hZScsICc8aW5maWxlLm1hZT4nLCAnLW9tYWUnLCAnPG91dGZpbGUubWFlPic=

> <r_lp_tautomer_probability>
1

> <r_epik_Ionization_Penalty>
0.115699

> <r_epik_Ionization_Penalty_Charging>
0.115549

> <r_epik_Ionization_Penalty_Neutral>
0.00014958

> <r_epik_State_Penalty>
0.105184

> <r_epik_Charging_Adjusted_Penalty>
0.220733

> <i_epik_Tot_Q>
1

> <i_epik_Tot_abs_Q>
1

> <r_epik_Metal_State_Penalty>
0.105189

> <b_epik_Metal_Only>
0

> <s_lp_Force_Field>
OPLS_2005

> <r_lp_Energy>
31.7182

> <b_lp_Chiralities_Consistent>
1

> <s_lp_Variant>
AV-unprocessed.smi:1248-2

> <Gold.Version>
5.8.1

> <Gold.Id.Protein>
6NUR|6NUR_protein|mol2

> <Gold.PLP.Fitness>
40.1677

> <Gold.PLP.PLP>
-27.9644

> <Gold.PLP.part.hbond>
-4.4969

> <Gold.PLP.part.metal>
0.0000

> <Gold.PLP.part.buried>
-3.9687

> <Gold.PLP.part.nonpolar>
-20.1487

> <Gold.PLP.part.repulsive>
0.0599

> <Gold.PLP.ligand.clash>
0.0000

> <Gold.PLP.ligand.torsion>
1.0482

> <Gold.PLP.Chemscore.Hbond>
4.3420

> <Gold.PLP.Chemscore.CHOScore>
0.0000

> <Gold.PLP.Chemscore.Metal>
0.0000

> <Gold.Chemscore.Hbonds>
donor molecule, donor type, donor heavy atom, donor atom, acceptor molecule, acceptor atom, score
      L1  H     6    27       P1  7948  0.37
      L1  H     9    28       P1  7948  0.91
      L1  H    13    44       P1 10957  2.00
      P1  H  7997  8009       L1    20  0.63

> <Gold.PLP.Chemscore.Internal.Correction>
1.2738

> <Gold.Rescore>
     Score         DG    S(hbond)    S(metal)    S(lipo)     H(rot)  DE(clash)    DE(int)     intcor
     17.36     -18.75       2.88        0.00      60.67       1.34       0.15       1.24       ----

> <Gold.Chemscore.Fitness>
17.3598

> <Gold.Chemscore.DG>
-18.7535

> <Gold.Chemscore.ZeroCoef>
-5.4800

> <Gold.Chemscore.Hbond>
2.8787

> <Gold.Chemscore.Metal>
0.0000

> <Gold.Chemscore.Lipo>
60.6741

> <Gold.Chemscore.Internal_Hbond>
0.0000

> <Gold.Chemscore.DEClash>
0.1508

> <Gold.Chemscore.DEInternal>
1.2429

> <Gold.Chemscore.Rot>
1.3438

> <Gold.Chemscore.Internal.Correction>
   9.000000E+99

> <Gold.Chemscore.Hbonds>
donor molecule, donor type, donor heavy atom, donor atom, acceptor molecule, acceptor atom, score
      L1  H     6    27       P1  7948  0.07
      L1  H     9    28       P1  7948  0.81
      L1  H    13    44       P1 10957  0.94
      P1  H  7997  8009       L1    20  0.55

> <Gold.Chemscore.Hbond.Weighted>
-9.6147

> <Gold.Chemscore.Metal.Weighted>
-0.0000

> <Gold.Chemscore.Lipo.Weighted>
-7.0989

> <Gold.Chemscore.Internal_Hbond.Weighted>
0.0000

> <Gold.Chemscore.DEClash.Weighted>
0.1508

> <Gold.Chemscore.DEInternal.Weighted>
1.2429

> <Gold.Chemscore.Rot.Weighted>
3.4401

> <Gold.Chemscore.Internal.Correction.Weighted>
   9.000000E+99

> <Gold.Protein.RotatedTorsions>
[ 6907 6896 6895 6894 ] final -131.34 input  -60.11 | X-H torsion
[ 7974 7965 7964 7962 ] final  177.82 input  175.53 | X-H torsion
[ 8008 7997 7996 7995 ] final -150.09 input   59.86 | X-H torsion
[ 10167 10162 10161 10158 ] final   30.29 input  -65.29 | X-H torsion
[ 10718 10713 10712 10709 ] final  105.36 input   66.30 | X-H torsion
[ 10763 10752 10751 10750 ] final  114.22 input  -60.55 | X-H torsion
[ 11005 11000 10999 10996 ] final   37.49 input  -57.11 | X-H torsion

> <Gold.Protein.ActiveResidues>
 VAL166  LYS551  ARG553  GLY616  TRP617  ASP618  TYR619  PRO620  LYS621  CYS622 
 ASP623  PHE694  ASN695  SER759  ASP760  ASP761  ALA762  ILE779  LEU786  VAL792 
 PHE793  MET794  SER795  GLU796  ALA797  LYS798  CYS799  TRP800  GLU811  SER814 

> <Gold.Protein.RotatedAtoms>
  150.9498  133.6562  159.2773 H   0  0  0  0  0  0  0  0  0  0  0  0  # atno 6907 bound_to 6896
  151.3921  135.0956  159.9539 H   0  0  0  0  0  0  0  0  0  0  0  0  # atno 6908 bound_to 6896
  152.5105  133.9010  159.7496 H   0  0  0  0  0  0  0  0  0  0  0  0  # atno 6909 bound_to 6896
  144.7164  140.0304  143.6439 H   0  0  0  0  0  0  0  0  0  0  0  0  # atno 7974 bound_to 7965
  155.6180  140.0678  157.2686 H   0  0  0  0  0  0  0  0  0  0  0  0  # atno 8008 bound_to 7997
  154.4236  140.1789  156.1391 H   0  0  0  0  0  0  0  0  0  0  0  0  # atno 8009 bound_to 7997
  156.0032  140.3334  155.6869 H   0  0  0  0  0  0  0  0  0  0  0  0  # atno 8010 bound_to 7997
  140.4690  144.0791  150.6232 H   0  0  0  0  0  0  0  0  0  0  0  0  # atno 10167 bound_to 10162
  157.6708  131.0826  150.5844 H   0  0  0  0  0  0  0  0  0  0  0  0  # atno 10718 bound_to 10713
  153.5040  135.3632  155.2554 H   0  0  0  0  0  0  0  0  0  0  0  0  # atno 10763 bound_to 10752
  154.8746  135.4007  154.3445 H   0  0  0  0  0  0  0  0  0  0  0  0  # atno 10764 bound_to 10752
  153.4086  135.7077  153.6441 H   0  0  0  0  0  0  0  0  0  0  0  0  # atno 10765 bound_to 10752
  140.2220  134.3629  155.8000 H   0  0  0  0  0  0  0  0  0  0  0  0  # atno 11005 bound_to 11000
  146.0107  139.3167  143.0872 LP  0  0  0  0  0  0  0  0  0  0  0  0  # atno 17320 bound_to 7965
  145.8685  140.9434  143.0663 LP  0  0  0  0  0  0  0  0  0  0  0  0  # atno 17321 bound_to 7965
  140.4000  143.2708  151.9959 LP  0  0  0  0  0  0  0  0  0  0  0  0  # atno 17342 bound_to 10162
  139.4816  144.6005  151.7613 LP  0  0  0  0  0  0  0  0  0  0  0  0  # atno 17343 bound_to 10162
  156.6145  130.4389  149.5846 LP  0  0  0  0  0  0  0  0  0  0  0  0  # atno 17370 bound_to 10713
  156.2404  130.6848  151.1550 LP  0  0  0  0  0  0  0  0  0  0  0  0  # atno 17371 bound_to 10713
  141.2222  133.7199  156.8592 LP  0  0  0  0  0  0  0  0  0  0  0  0  # atno 17394 bound_to 11000
  140.1839  134.9013  157.2981 LP  0  0  0  0  0  0  0  0  0  0  0  0  # atno 17395 bound_to 11000

$$$$
