AV-unprocessed.smi:793|AV-procd|sdf|3755|dock9
  -GOLD-   22720 1183D 1   1.00000     0.00000
 Structure written by MMmdl.
 38 39  0  0  0  0  0  0  0  0  2 V2000
  143.6736  139.4125  157.6042 C   0  0  0  0  0  0  0  0  0  0  0  0
  143.4012  140.4482  158.7024 C   0  0  0  0  0  0  0  0  0  0  0  0
  144.3223  140.2748  159.9249 C   0  0  1  0  0  0  0  0  0  0  0  0
  144.0545  141.3489  160.8252 O   0  0  0  0  0  0  0  0  0  0  0  0
  144.0937  142.6628  160.2722 C   0  0  0  0  0  0  0  0  0  0  0  0
  145.5119  142.9832  159.7881 C   0  0  0  0  0  0  0  0  0  0  0  0
  146.2913  143.4117  161.0384 C   0  0  0  0  0  0  0  0  0  0  0  0
  145.2434  143.7633  162.1051 C   0  0  0  0  0  0  0  0  0  0  0  0
  143.8813  143.6575  161.4130 C   0  0  0  0  0  0  0  0  0  0  0  0
  144.0910  138.9227  160.6211 C   0  0  0  0  0  0  0  0  0  0  0  0
  142.9567  138.6104  160.9840 O   0  0  0  0  0  0  0  0  0  0  0  0
  145.1860  138.1577  160.7826 N   0  0  0  0  0  0  0  0  0  0  0  0
  145.3040  136.8709  161.3783 C   0  0  0  0  0  0  0  0  0  0  0  0
  144.1975  136.1054  161.8251 C   0  0  0  0  0  0  0  0  0  0  0  0
  144.3140  134.8906  162.4035 N   0  0  0  0  0  0  0  0  0  0  0  0
  145.5545  134.3857  162.5687 C   0  0  0  0  0  0  0  0  0  0  0  0
  146.7242  135.0658  162.1798 C   0  0  0  0  0  0  0  0  0  0  0  0
  146.5976  136.3329  161.5785 C   0  0  0  0  0  0  0  0  0  0  0  0
  147.7215  137.0138  161.1993 O   0  5  0  0  0  0  0  0  0  0  0  0
  143.0035  139.5595  156.7570 H   0  0  0  0  0  0  0  0  0  0  0  0
  143.5241  138.3982  157.9747 H   0  0  0  0  0  0  0  0  0  0  0  0
  144.6969  139.4873  157.2353 H   0  0  0  0  0  0  0  0  0  0  0  0
  143.5164  141.4505  158.2872 H   0  0  0  0  0  0  0  0  0  0  0  0
  142.3583  140.3619  159.0111 H   0  0  0  0  0  0  0  0  0  0  0  0
  145.3585  140.3362  159.5852 H   0  0  0  0  0  0  0  0  0  0  0  0
  143.3462  142.8035  159.4894 H   0  0  0  0  0  0  0  0  0  0  0  0
  145.9857  142.1513  159.2669 H   0  0  0  0  0  0  0  0  0  0  0  0
  145.4693  143.8192  159.0889 H   0  0  0  0  0  0  0  0  0  0  0  0
  146.9223  142.5954  161.3923 H   0  0  0  0  0  0  0  0  0  0  0  0
  146.9445  144.2571  160.8200 H   0  0  0  0  0  0  0  0  0  0  0  0
  145.2981  143.0415  162.9210 H   0  0  0  0  0  0  0  0  0  0  0  0
  145.4045  144.7531  162.5334 H   0  0  0  0  0  0  0  0  0  0  0  0
  143.6091  144.6291  160.9987 H   0  0  0  0  0  0  0  0  0  0  0  0
  143.0842  143.3555  162.0933 H   0  0  0  0  0  0  0  0  0  0  0  0
  146.0363  138.5072  160.3644 H   0  0  0  0  0  0  0  0  0  0  0  0
  143.1840  136.4659  161.7463 H   0  0  0  0  0  0  0  0  0  0  0  0
  145.6174  133.4121  163.0316 H   0  0  0  0  0  0  0  0  0  0  0  0
  147.6961  134.6227  162.3410 H   0  0  0  0  0  0  0  0  0  0  0  0
  1  2  1  0  0  0  0
  1 20  1  0  0  0  0
  1 21  1  0  0  0  0
  1 22  1  0  0  0  0
  2  3  1  0  0  0  0
  2 23  1  0  0  0  0
  2 24  1  0  0  0  0
  3  4  1  0  0  0  0
  3 10  1  0  0  0  0
  3 25  1  0  0  0  0
  4  5  1  0  0  0  0
  5  9  1  0  0  0  0
  5  6  1  0  0  0  0
  5 26  1  0  0  0  0
  6  7  1  0  0  0  0
  6 27  1  0  0  0  0
  6 28  1  0  0  0  0
  7  8  1  0  0  0  0
  7 29  1  0  0  0  0
  7 30  1  0  0  0  0
  8  9  1  0  0  0  0
  8 31  1  0  0  0  0
  8 32  1  0  0  0  0
  9 33  1  0  0  0  0
  9 34  1  0  0  0  0
 10 11  2  0  0  0  0
 10 12  1  0  0  0  0
 12 35  1  0  0  0  0
 12 13  1  0  0  0  0
 13 18  1  0  0  0  0
 13 14  2  0  0  0  0
 14 36  1  0  0  0  0
 14 15  1  0  0  0  0
 15 16  2  0  0  0  0
 16 37  1  0  0  0  0
 16 17  1  0  0  0  0
 17 18  2  0  0  0  0
 17 38  1  0  0  0  0
 18 19  1  0  0  0  0
M  CHG  1  19  -1
M  END
> <s_m_source_file>
AV-unprocessed.smi

> <i_m_source_file_index>
793

> <i_lp_mmshare_version>
43012

> <i_f3d_flags>
0

> <s_epik_input>
W0NIMl0xW0NIMl1bQ0gyXVtDSDJdW0NIXTFPW0NAQEhdKFtDSDJdW0NIM10pQyg9TylbTkhdYzJbY0hdbltjSF1bY0hdYzJbT0hd

> <s_epik_cmdline>
J2VwaWtfcHl0aG9uJywgJy1waCcsICc3LjAnLCAnLXRuJywgJzgnLCAnLW1hJywgJzIwMCcsICctbWV0YWxfYmluZGluZycsICctaW1hZScsICc8aW5maWxlLm1hZT4nLCAnLW9tYWUnLCAnPG91dGZpbGUubWFlPic=

> <r_lp_tautomer_probability>
1

> <r_epik_Ionization_Penalty>
5.91611

> <r_epik_Ionization_Penalty_Charging>
1.01889

> <r_epik_Ionization_Penalty_Neutral>
4.89722

> <r_epik_State_Penalty>
4.89706

> <r_epik_Charging_Adjusted_Penalty>
5.91595

> <i_epik_Tot_Q>
-1

> <i_epik_Tot_abs_Q>
1

> <r_epik_Metal_State_Penalty>
1.05012

> <b_epik_Metal_Only>
1

> <s_lp_Force_Field>
OPLS_2005

> <r_lp_Energy>
29.623

> <b_lp_Chiralities_Consistent>
1

> <s_lp_Variant>
AV-unprocessed.smi:793-4

> <Gold.Version>
5.8.1

> <Gold.Id.Protein>
6NUR|6NUR_protein|mol2

> <Gold.PLP.Fitness>
38.2245

> <Gold.PLP.PLP>
-27.3022

> <Gold.PLP.part.hbond>
-3.6520

> <Gold.PLP.part.metal>
0.0000

> <Gold.PLP.part.buried>
-5.5423

> <Gold.PLP.part.nonpolar>
-19.1200

> <Gold.PLP.part.repulsive>
1.5324

> <Gold.PLP.ligand.clash>
0.0000

> <Gold.PLP.ligand.torsion>
0.1117

> <Gold.PLP.Chemscore.Hbond>
3.6960

> <Gold.PLP.Chemscore.CHOScore>
0.0000

> <Gold.PLP.Chemscore.Metal>
0.0000

> <Gold.Chemscore.Hbonds>
donor molecule, donor type, donor heavy atom, donor atom, acceptor molecule, acceptor atom, score
      P1  H  6931  6943       L1    19  2.00
      P1  H  6934  6947       L1    19  1.46

> <Gold.PLP.Chemscore.Internal.Correction>
0.0577

> <Gold.Rescore>
     Score         DG    S(hbond)    S(metal)    S(lipo)     H(rot)  DE(clash)    DE(int)     intcor
     11.83     -13.40       1.64        0.00      53.51       1.49       0.28       1.30       ----

> <Gold.Chemscore.Fitness>
11.8259

> <Gold.Chemscore.DG>
-13.4033

> <Gold.Chemscore.ZeroCoef>
-5.4800

> <Gold.Chemscore.Hbond>
1.6422

> <Gold.Chemscore.Metal>
0.0000

> <Gold.Chemscore.Lipo>
53.5113

> <Gold.Chemscore.Internal_Hbond>
0.0000

> <Gold.Chemscore.DEClash>
0.2817

> <Gold.Chemscore.DEInternal>
1.2957

> <Gold.Chemscore.Rot>
1.4932

> <Gold.Chemscore.Internal.Correction>
   9.000000E+99

> <Gold.Chemscore.Hbonds>
donor molecule, donor type, donor heavy atom, donor atom, acceptor molecule, acceptor atom, score
      P1  H  6931  6943       L1    19  0.96
      P1  H  6934  6947       L1    19  0.46

> <Gold.Chemscore.Hbond.Weighted>
-5.4851

> <Gold.Chemscore.Metal.Weighted>
-0.0000

> <Gold.Chemscore.Lipo.Weighted>
-6.2608

> <Gold.Chemscore.Internal_Hbond.Weighted>
0.0000

> <Gold.Chemscore.DEClash.Weighted>
0.2817

> <Gold.Chemscore.DEInternal.Weighted>
1.2957

> <Gold.Chemscore.Rot.Weighted>
3.8226

> <Gold.Chemscore.Internal.Correction.Weighted>
   9.000000E+99

> <Gold.Protein.RotatedTorsions>
[ 6907 6896 6895 6894 ] final   -4.52 input  -60.11 | X-H torsion
[ 7974 7965 7964 7962 ] final  -74.21 input  175.53 | X-H torsion
[ 8008 7997 7996 7995 ] final   97.46 input   59.86 | X-H torsion
[ 10167 10162 10161 10158 ] final  120.79 input  -65.29 | X-H torsion
[ 10718 10713 10712 10709 ] final  -85.35 input   66.30 | X-H torsion
[ 10763 10752 10751 10750 ] final  -36.55 input  -60.55 | X-H torsion
[ 11005 11000 10999 10996 ] final -109.57 input  -57.11 | X-H torsion

> <Gold.Protein.ActiveResidues>
 VAL166  LYS551  ARG553  GLY616  TRP617  ASP618  TYR619  PRO620  LYS621  CYS622 
 ASP623  PHE694  ASN695  SER759  ASP760  ASP761  ALA762  ILE779  LEU786  VAL792 
 PHE793  MET794  SER795  GLU796  ALA797  LYS798  CYS799  TRP800  GLU811  SER814 

> <Gold.Protein.RotatedAtoms>
  151.4963  135.1060  159.9816 H   0  0  0  0  0  0  0  0  0  0  0  0  # atno 6907 bound_to 6896
  152.4720  133.8047  159.6982 H   0  0  0  0  0  0  0  0  0  0  0  0  # atno 6908 bound_to 6896
  150.8735  133.7409  159.2980 H   0  0  0  0  0  0  0  0  0  0  0  0  # atno 6909 bound_to 6896
  145.6421  140.9308  143.1030 H   0  0  0  0  0  0  0  0  0  0  0  0  # atno 7974 bound_to 7965
  156.0903  140.3258  155.7807 H   0  0  0  0  0  0  0  0  0  0  0  0  # atno 8008 bound_to 7997
  155.5007  140.0569  157.2957 H   0  0  0  0  0  0  0  0  0  0  0  0  # atno 8009 bound_to 7997
  154.4634  140.1977  156.0200 H   0  0  0  0  0  0  0  0  0  0  0  0  # atno 8010 bound_to 7997
  139.5960  144.7041  151.3175 H   0  0  0  0  0  0  0  0  0  0  0  0  # atno 10167 bound_to 10162
  155.9997  130.4728  150.4549 H   0  0  0  0  0  0  0  0  0  0  0  0  # atno 10718 bound_to 10713
  153.8816  135.6821  153.4766 H   0  0  0  0  0  0  0  0  0  0  0  0  # atno 10763 bound_to 10752
  153.1230  135.4731  154.9225 H   0  0  0  0  0  0  0  0  0  0  0  0  # atno 10764 bound_to 10752
  154.7666  135.3226  154.8226 H   0  0  0  0  0  0  0  0  0  0  0  0  # atno 10765 bound_to 10752
  141.0840  133.9171  157.2226 H   0  0  0  0  0  0  0  0  0  0  0  0  # atno 11005 bound_to 11000
  144.7153  139.8218  143.7400 LP  0  0  0  0  0  0  0  0  0  0  0  0  # atno 17320 bound_to 7965
  146.1272  139.4300  143.0191 LP  0  0  0  0  0  0  0  0  0  0  0  0  # atno 17321 bound_to 7965
  140.7212  143.7130  150.7754 LP  0  0  0  0  0  0  0  0  0  0  0  0  # atno 17342 bound_to 10162
  140.0697  143.5074  152.2586 LP  0  0  0  0  0  0  0  0  0  0  0  0  # atno 17343 bound_to 10162
  157.2578  131.0560  151.2339 LP  0  0  0  0  0  0  0  0  0  0  0  0  # atno 17370 bound_to 10713
  157.3465  130.7060  149.6413 LP  0  0  0  0  0  0  0  0  0  0  0  0  # atno 17371 bound_to 10713
  139.9656  135.0142  156.9378 LP  0  0  0  0  0  0  0  0  0  0  0  0  # atno 17394 bound_to 11000
  140.5405  134.0725  155.7340 LP  0  0  0  0  0  0  0  0  0  0  0  0  # atno 17395 bound_to 11000

$$$$
