AV-unprocessed.smi:3019|AV-procd|sdf|11487|dock2
  -GOLD-   2272016423D 1   1.00000     0.00000
 Structure written by MMmdl.
 31 32  0  0  0  0  0  0  0  0  2 V2000
  150.0954  134.3741  154.5216 C   0  0  0  0  0  0  0  0  0  0  0  0
  149.0263  133.2832  154.6816 C   0  0  0  0  0  0  0  0  0  0  0  0
  149.5807  131.8660  154.4732 C   0  0  0  0  0  0  0  0  0  0  0  0
  147.8338  133.5446  153.8134 C   0  0  0  0  0  0  0  0  0  0  0  0
  146.7030  134.0333  154.3214 N   0  0  0  0  0  0  0  0  0  0  0  0
  145.9137  134.1133  153.2299 N   0  0  0  0  0  0  0  0  0  0  0  0
  146.5908  133.6861  152.1618 C   0  0  0  0  0  0  0  0  0  0  0  0
  145.9834  133.6413  150.7953 C   0  0  2  0  0  0  0  0  0  0  0  0
  144.5739  134.2627  150.7569 C   0  0  0  0  0  0  0  0  0  0  0  0
  143.9856  134.0970  149.4134 N   0  3  0  0  0  0  0  0  0  0  0  0
  143.9871  132.6814  148.9934 C   0  0  0  0  0  0  0  0  0  0  0  0
  145.4090  132.1009  149.0913 C   0  0  0  0  0  0  0  0  0  0  0  0
  145.9074  132.2697  150.4143 O   0  0  0  0  0  0  0  0  0  0  0  0
  147.8269  133.3037  152.4665 N   0  0  0  0  0  0  0  0  0  0  0  0
  144.9630  134.4528  153.2625 H   0  0  0  0  0  0  0  0  0  0  0  0
  149.6865  135.3602  154.7447 H   0  0  0  0  0  0  0  0  0  0  0  0
  150.4890  134.3984  153.5049 H   0  0  0  0  0  0  0  0  0  0  0  0
  150.9333  134.2037  155.1979 H   0  0  0  0  0  0  0  0  0  0  0  0
  148.6899  133.3322  155.7186 H   0  0  0  0  0  0  0  0  0  0  0  0
  148.8163  131.1127  154.6660 H   0  0  0  0  0  0  0  0  0  0  0  0
  150.4152  131.6688  155.1463 H   0  0  0  0  0  0  0  0  0  0  0  0
  149.9377  131.7253  153.4526 H   0  0  0  0  0  0  0  0  0  0  0  0
  146.6443  134.1696  150.1051 H   0  0  0  0  0  0  0  0  0  0  0  0
  143.9237  133.7822  151.4896 H   0  0  0  0  0  0  0  0  0  0  0  0
  144.6123  135.3233  151.0069 H   0  0  0  0  0  0  0  0  0  0  0  0
  143.0372  134.4456  149.4158 H   0  0  0  0  0  0  0  0  0  0  0  0
  143.3053  132.1175  149.6315 H   0  0  0  0  0  0  0  0  0  0  0  0
  143.6101  132.6051  147.9734 H   0  0  0  0  0  0  0  0  0  0  0  0
  145.3991  131.0378  148.8501 H   0  0  0  0  0  0  0  0  0  0  0  0
  146.0771  132.5835  148.3760 H   0  0  0  0  0  0  0  0  0  0  0  0
  144.5310  134.6313  148.7523 H   0  0  0  0  0  0  0  0  0  0  0  0
  1  2  1  0  0  0  0
  1 16  1  0  0  0  0
  1 17  1  0  0  0  0
  1 18  1  0  0  0  0
  2  3  1  0  0  0  0
  2  4  1  0  0  0  0
  2 19  1  0  0  0  0
  3 20  1  0  0  0  0
  3 21  1  0  0  0  0
  3 22  1  0  0  0  0
  4 14  1  0  0  0  0
  4  5  2  0  0  0  0
  5  6  1  0  0  0  0
  6 15  1  0  0  0  0
  6  7  1  0  0  0  0
  7  8  1  0  0  0  0
  7 14  2  0  0  0  0
  8 13  1  0  0  0  0
  8  9  1  0  0  0  0
  8 23  1  0  0  0  0
  9 10  1  0  0  0  0
  9 24  1  0  0  0  0
  9 25  1  0  0  0  0
 10 11  1  0  0  0  0
 10 26  1  0  0  0  0
 10 31  1  0  0  0  0
 11 12  1  0  0  0  0
 11 27  1  0  0  0  0
 11 28  1  0  0  0  0
 12 13  1  0  0  0  0
 12 29  1  0  0  0  0
 12 30  1  0  0  0  0
M  CHG  1  10   1
M  END
> <s_m_source_file>
AV-unprocessed.smi

> <i_m_source_file_index>
3019

> <i_lp_mmshare_version>
43012

> <i_f3d_flags>
0

> <s_epik_input>
W0NIM11bQ0hdKFtDSDNdKWMxbltuSF1jKG4xKVtDQEBIXTJbQ0gyXVtOSF1bQ0gyXVtDSDJdTzI=

> <s_epik_cmdline>
J2VwaWtfcHl0aG9uJywgJy1waCcsICc3LjAnLCAnLXRuJywgJzgnLCAnLW1hJywgJzIwMCcsICctbWV0YWxfYmluZGluZycsICctaW1hZScsICc8aW5maWxlLm1hZT4nLCAnLW9tYWUnLCAnPG91dGZpbGUubWFlPic=

> <r_epik_Ionization_Penalty>
0.162344

> <r_epik_Ionization_Penalty_Charging>
0.125708

> <r_epik_Ionization_Penalty_Neutral>
0.0366363

> <r_epik_State_Penalty>
1.18286

> <r_epik_Charging_Adjusted_Penalty>
1.30856

> <i_epik_Tot_Q>
1

> <i_epik_Tot_abs_Q>
1

> <r_epik_Metal_State_Penalty>
1.49333

> <b_epik_Metal_Only>
0

> <s_lp_Force_Field>
OPLS_2005

> <r_lp_Energy>
8.53585

> <b_lp_Chiralities_Consistent>
1

> <s_lp_Variant>
AV-unprocessed.smi:3019-3

> <Gold.Version>
5.8.1

> <Gold.Id.Protein>
6NUR|6NUR_protein|mol2

> <Gold.PLP.Fitness>
33.7157

> <Gold.PLP.PLP>
-25.3785

> <Gold.PLP.part.hbond>
-2.0000

> <Gold.PLP.part.metal>
0.0000

> <Gold.PLP.part.buried>
-4.2130

> <Gold.PLP.part.nonpolar>
-19.5877

> <Gold.PLP.part.repulsive>
0.5304

> <Gold.PLP.ligand.clash>
0.0000

> <Gold.PLP.ligand.torsion>
0.3615

> <Gold.PLP.Chemscore.Hbond>
3.0000

> <Gold.PLP.Chemscore.CHOScore>
0.0000

> <Gold.PLP.Chemscore.Metal>
0.0000

> <Gold.Chemscore.Hbonds>
donor molecule, donor type, donor heavy atom, donor atom, acceptor molecule, acceptor atom, score
      L1  H    10    26       P1 10186  2.00
      L1  H    10    31       P1  7921  1.00

> <Gold.PLP.Chemscore.Internal.Correction>
0.0602

> <Gold.Rescore>
     Score         DG    S(hbond)    S(metal)    S(lipo)     H(rot)  DE(clash)    DE(int)     intcor
     15.22     -15.46       1.95        0.00      57.78       1.28       0.06       0.18       ----

> <Gold.Chemscore.Fitness>
15.2233

> <Gold.Chemscore.DG>
-15.4611

> <Gold.Chemscore.ZeroCoef>
-5.4800

> <Gold.Chemscore.Hbond>
1.9451

> <Gold.Chemscore.Metal>
0.0000

> <Gold.Chemscore.Lipo>
57.7782

> <Gold.Chemscore.Internal_Hbond>
0.0000

> <Gold.Chemscore.DEClash>
0.0576

> <Gold.Chemscore.DEInternal>
0.1802

> <Gold.Chemscore.Rot>
1.2795

> <Gold.Chemscore.Internal.Correction>
   9.000000E+99

> <Gold.Chemscore.Hbonds>
donor molecule, donor type, donor heavy atom, donor atom, acceptor molecule, acceptor atom, score
      L1  H    10    26       P1 10186  0.93
      L1  H    10    31       P1  7921  0.93

> <Gold.Chemscore.Hbond.Weighted>
-6.4965

> <Gold.Chemscore.Metal.Weighted>
-0.0000

> <Gold.Chemscore.Lipo.Weighted>
-6.7600

> <Gold.Chemscore.Internal_Hbond.Weighted>
0.0000

> <Gold.Chemscore.DEClash.Weighted>
0.0576

> <Gold.Chemscore.DEInternal.Weighted>
0.1802

> <Gold.Chemscore.Rot.Weighted>
3.2754

> <Gold.Chemscore.Internal.Correction.Weighted>
   9.000000E+99

> <Gold.Protein.RotatedTorsions>
[ 6907 6896 6895 6894 ] final  -78.19 input  -60.11 | X-H torsion
[ 7974 7965 7964 7962 ] final -130.19 input  175.53 | X-H torsion
[ 8008 7997 7996 7995 ] final  -86.44 input   59.86 | X-H torsion
[ 10167 10162 10161 10158 ] final -141.84 input  -65.29 | X-H torsion
[ 10718 10713 10712 10709 ] final   83.70 input   66.30 | X-H torsion
[ 10763 10752 10751 10750 ] final   27.98 input  -60.55 | X-H torsion
[ 11005 11000 10999 10996 ] final  166.61 input  -57.11 | X-H torsion

> <Gold.Protein.ActiveResidues>
 VAL166  LYS551  ARG553  GLY616  TRP617  ASP618  TYR619  PRO620  LYS621  CYS622 
 ASP623  PHE694  ASN695  SER759  ASP760  ASP761  ALA762  ILE779  LEU786  VAL792 
 PHE793  MET794  SER795  GLU796  ALA797  LYS798  CYS799  TRP800  GLU811  SER814 

> <Gold.Protein.RotatedAtoms>
  150.6979  134.4309  159.5247 H   0  0  0  0  0  0  0  0  0  0  0  0  # atno 6907 bound_to 6896
  152.2035  134.8563  160.0514 H   0  0  0  0  0  0  0  0  0  0  0  0  # atno 6908 bound_to 6896
  151.9474  133.3621  159.4024 H   0  0  0  0  0  0  0  0  0  0  0  0  # atno 6909 bound_to 6896
  144.9498  140.7332  143.4794 H   0  0  0  0  0  0  0  0  0  0  0  0  # atno 7974 bound_to 7965
  154.6519  140.0578  156.9965 H   0  0  0  0  0  0  0  0  0  0  0  0  # atno 8008 bound_to 7997
  155.1358  140.3261  155.4445 H   0  0  0  0  0  0  0  0  0  0  0  0  # atno 8009 bound_to 7997
  156.2580  140.1972  156.6476 H   0  0  0  0  0  0  0  0  0  0  0  0  # atno 8010 bound_to 7997
  139.8146  143.7656  152.2664 H   0  0  0  0  0  0  0  0  0  0  0  0  # atno 10167 bound_to 10162
  157.6884  131.0102  150.2562 H   0  0  0  0  0  0  0  0  0  0  0  0  # atno 10718 bound_to 10713
  153.0521  135.6524  154.0668 H   0  0  0  0  0  0  0  0  0  0  0  0  # atno 10763 bound_to 10752
  154.0354  135.2908  155.3364 H   0  0  0  0  0  0  0  0  0  0  0  0  # atno 10764 bound_to 10752
  154.6815  135.5318  153.8336 H   0  0  0  0  0  0  0  0  0  0  0  0  # atno 10765 bound_to 10752
  140.2682  134.7848  157.3652 H   0  0  0  0  0  0  0  0  0  0  0  0  # atno 11005 bound_to 11000
  145.2861  139.1900  143.4765 LP  0  0  0  0  0  0  0  0  0  0  0  0  # atno 17320 bound_to 7965
  146.3317  140.2830  142.8611 LP  0  0  0  0  0  0  0  0  0  0  0  0  # atno 17321 bound_to 7965
  139.7815  144.7442  151.0081 LP  0  0  0  0  0  0  0  0  0  0  0  0  # atno 17342 bound_to 10162
  140.7816  143.4537  151.0377 LP  0  0  0  0  0  0  0  0  0  0  0  0  # atno 17343 bound_to 10162
  156.3150  130.3777  149.7627 LP  0  0  0  0  0  0  0  0  0  0  0  0  # atno 17370 bound_to 10713
  156.5215  130.8217  151.3205 LP  0  0  0  0  0  0  0  0  0  0  0  0  # atno 17371 bound_to 10713
  140.1398  134.4986  155.8040 LP  0  0  0  0  0  0  0  0  0  0  0  0  # atno 17394 bound_to 11000
  141.2181  133.6821  156.7190 LP  0  0  0  0  0  0  0  0  0  0  0  0  # atno 17395 bound_to 11000

$$$$
