AV-unprocessed.smi:655|AV-procd|sdf|3215|dock7
  -GOLD-   22720 0153D 1   1.00000     0.00000
 Structure written by MMmdl.
 35 36  0  0  0  0  0  0  0  0  1 V2000
  151.8342  144.6905  158.9842 C   0  0  0  0  0  0  0  0  0  0  0  0
  151.4492  143.2050  158.9421 C   0  0  2  0  0  0  0  0  0  0  0  0
  152.6423  142.3248  158.5298 C   0  0  0  0  0  0  0  0  0  0  0  0
  152.2643  140.8323  158.4842 C   0  0  0  0  0  0  0  0  0  0  0  0
  151.0514  140.5489  157.5646 C   0  0  2  0  0  0  0  0  0  0  0  0
  150.6057  139.2338  157.8399 O   0  0  0  0  0  0  0  0  0  0  0  0
  151.3441  140.6325  156.0360 C   0  0  0  0  0  0  0  0  0  0  0  0
  150.2200  140.3507  155.1628 N   0  0  0  0  0  0  0  0  0  0  0  0
  149.1435  141.2206  155.0623 C   0  0  0  0  0  0  0  0  0  0  0  0
  148.0795  141.0048  154.2522 C   0  0  0  0  0  0  0  0  0  0  0  0
  146.7778  142.1387  154.1916 Cl  0  0  0  0  0  0  0  0  0  0  0  0
  148.0269  139.8048  153.4196 C   0  0  0  0  0  0  0  0  0  0  0  0
  147.1128  139.5085  152.6527 O   0  0  0  0  0  0  0  0  0  0  0  0
  149.1340  138.9609  153.5419 N   0  0  0  0  0  0  0  0  0  0  0  0
  150.2353  139.1770  154.3706 C   0  0  0  0  0  0  0  0  0  0  0  0
  151.1534  138.3588  154.3781 O   0  0  0  0  0  0  0  0  0  0  0  0
  149.8725  141.4691  157.9626 C   0  0  0  0  0  0  0  0  0  0  0  0
  150.2575  142.9579  158.0004 C   0  0  0  0  0  0  0  0  0  0  0  0
  149.1388  138.1230  152.9785 H   0  0  0  0  0  0  0  0  0  0  0  0
  152.1410  145.0488  158.0011 H   0  0  0  0  0  0  0  0  0  0  0  0
  152.6608  144.8619  159.6743 H   0  0  0  0  0  0  0  0  0  0  0  0
  150.9964  145.3048  159.3152 H   0  0  0  0  0  0  0  0  0  0  0  0
  151.1487  142.9149  159.9500 H   0  0  0  0  0  0  0  0  0  0  0  0
  153.0085  142.6516  157.5585 H   0  0  0  0  0  0  0  0  0  0  0  0
  153.4673  142.4668  159.2286 H   0  0  0  0  0  0  0  0  0  0  0  0
  153.1265  140.2337  158.1915 H   0  0  0  0  0  0  0  0  0  0  0  0
  152.0235  140.5176  159.5010 H   0  0  0  0  0  0  0  0  0  0  0  0
  149.8535  139.0532  157.2976 H   0  0  0  0  0  0  0  0  0  0  0  0
  151.6623  141.6409  155.7641 H   0  0  0  0  0  0  0  0  0  0  0  0
  152.1750  139.9913  155.7394 H   0  0  0  0  0  0  0  0  0  0  0  0
  149.1501  142.1196  155.6623 H   0  0  0  0  0  0  0  0  0  0  0  0
  149.0304  141.3224  157.2851 H   0  0  0  0  0  0  0  0  0  0  0  0
  149.5098  141.1901  158.9534 H   0  0  0  0  0  0  0  0  0  0  0  0
  149.3990  143.5439  158.3304 H   0  0  0  0  0  0  0  0  0  0  0  0
  150.4951  143.3090  156.9958 H   0  0  0  0  0  0  0  0  0  0  0  0
  1  2  1  0  0  0  0
  1 20  1  0  0  0  0
  1 21  1  0  0  0  0
  1 22  1  0  0  0  0
  2 18  1  0  0  0  0
  2  3  1  0  0  0  0
  2 23  1  0  0  0  0
  3  4  1  0  0  0  0
  3 24  1  0  0  0  0
  3 25  1  0  0  0  0
  4  5  1  0  0  0  0
  4 26  1  0  0  0  0
  4 27  1  0  0  0  0
  5  6  1  0  0  0  0
  5  7  1  0  0  0  0
  5 17  1  0  0  0  0
  6 28  1  0  0  0  0
  7  8  1  0  0  0  0
  7 29  1  0  0  0  0
  7 30  1  0  0  0  0
  8 15  1  0  0  0  0
  8  9  1  0  0  0  0
  9 10  2  0  0  0  0
  9 31  1  0  0  0  0
 10 11  1  0  0  0  0
 10 12  1  0  0  0  0
 12 13  2  0  0  0  0
 12 14  1  0  0  0  0
 14 19  1  0  0  0  0
 14 15  1  0  0  0  0
 15 16  2  0  0  0  0
 17 18  1  0  0  0  0
 17 32  1  0  0  0  0
 17 33  1  0  0  0  0
 18 34  1  0  0  0  0
 18 35  1  0  0  0  0
M  END
> <s_m_source_file>
AV-unprocessed.smi

> <i_m_source_file_index>
655

> <i_lp_mmshare_version>
43012

> <i_f3d_flags>
0

> <s_epik_input>
W0NIMl0xW0NIMl1bQ0BIXShbQ0gzXSlbQ0gyXVtDSDJdW0NAQF0xKFtPSF0pW0NIMl1uMltjSF1jKENsKWMoPU8pW25IXWMyPU8=

> <s_epik_cmdline>
J2VwaWtfcHl0aG9uJywgJy1waCcsICc3LjAnLCAnLXRuJywgJzgnLCAnLW1hJywgJzIwMCcsICctbWV0YWxfYmluZGluZycsICctaW1hZScsICc8aW5maWxlLm1hZT4nLCAnLW9tYWUnLCAnPG91dGZpbGUubWFlPic=

> <r_lp_tautomer_probability>
0.999537

> <r_epik_Ionization_Penalty>
0.0114762

> <r_epik_Ionization_Penalty_Charging>
0.0114753

> <r_epik_Ionization_Penalty_Neutral>
8.25878e-07

> <r_epik_State_Penalty>
0.00883314

> <r_epik_Charging_Adjusted_Penalty>
0.0203085

> <i_epik_Tot_Q>
0

> <i_epik_Tot_abs_Q>
0

> <r_epik_Metal_State_Penalty>
1.64347

> <b_epik_Metal_Only>
0

> <s_lp_Force_Field>
OPLS_2005

> <r_lp_Energy>
18.8489

> <b_lp_Chiralities_Consistent>
1

> <s_lp_Variant>
AV-unprocessed.smi:655-2

> <Gold.Version>
5.8.1

> <Gold.Id.Protein>
6NUR|6NUR_protein|mol2

> <Gold.PLP.Fitness>
39.5288

> <Gold.PLP.PLP>
-35.0825

> <Gold.PLP.part.hbond>
-1.3392

> <Gold.PLP.part.metal>
0.0000

> <Gold.PLP.part.buried>
-2.7738

> <Gold.PLP.part.nonpolar>
-31.9666

> <Gold.PLP.part.repulsive>
2.0223

> <Gold.PLP.ligand.clash>
0.0000

> <Gold.PLP.ligand.torsion>
0.0801

> <Gold.PLP.Chemscore.Hbond>
0.5363

> <Gold.PLP.Chemscore.CHOScore>
0.9952

> <Gold.PLP.Chemscore.Metal>
0.0000

> <Gold.Chemscore.Hbonds>
donor molecule, donor type, donor heavy atom, donor atom, acceptor molecule, acceptor atom, score
      L1  H    14    19       P1  7948  0.65
      L1  C     9    31       P1  8028  0.80

> <Gold.PLP.Chemscore.Internal.Correction>
0.0122

> <Gold.Rescore>
     Score         DG    S(hbond)    S(metal)    S(lipo)     H(rot)  DE(clash)    DE(int)     intcor
     12.81     -13.00       0.87        0.00      79.74       1.84       0.01       0.19       ----

> <Gold.Chemscore.Fitness>
12.8065

> <Gold.Chemscore.DG>
-13.0040

> <Gold.Chemscore.ZeroCoef>
-5.4800

> <Gold.Chemscore.Hbond>
0.8714

> <Gold.Chemscore.Metal>
0.0000

> <Gold.Chemscore.Lipo>
79.7439

> <Gold.Chemscore.Internal_Hbond>
0.0000

> <Gold.Chemscore.DEClash>
0.0064

> <Gold.Chemscore.DEInternal>
0.1911

> <Gold.Chemscore.Rot>
1.8424

> <Gold.Chemscore.Internal.Correction>
   9.000000E+99

> <Gold.Chemscore.Hbonds>
donor molecule, donor type, donor heavy atom, donor atom, acceptor molecule, acceptor atom, score
      L1  H    14    19       P1  7948  0.64

> <Gold.Chemscore.Hbond.Weighted>
-2.9104

> <Gold.Chemscore.Metal.Weighted>
-0.0000

> <Gold.Chemscore.Lipo.Weighted>
-9.3300

> <Gold.Chemscore.Internal_Hbond.Weighted>
0.0000

> <Gold.Chemscore.DEClash.Weighted>
0.0064

> <Gold.Chemscore.DEInternal.Weighted>
0.1911

> <Gold.Chemscore.Rot.Weighted>
4.7164

> <Gold.Chemscore.Internal.Correction.Weighted>
   9.000000E+99

> <Gold.Protein.RotatedTorsions>
[ 6907 6896 6895 6894 ] final  145.80 input  -60.11 | X-H torsion
[ 7974 7965 7964 7962 ] final   22.29 input  175.53 | X-H torsion
[ 8008 7997 7996 7995 ] final  -61.29 input   59.86 | X-H torsion
[ 10167 10162 10161 10158 ] final  153.93 input  -65.29 | X-H torsion
[ 10718 10713 10712 10709 ] final -130.14 input   66.30 | X-H torsion
[ 10763 10752 10751 10750 ] final  -11.28 input  -60.55 | X-H torsion
[ 11005 11000 10999 10996 ] final  127.14 input  -57.11 | X-H torsion

> <Gold.Protein.ActiveResidues>
 VAL166  LYS551  ARG553  GLY616  TRP617  ASP618  TYR619  PRO620  LYS621  CYS622 
 ASP623  PHE694  ASN695  SER759  ASP760  ASP761  ALA762  ILE779  LEU786  VAL792 
 PHE793  MET794  SER795  GLU796  ALA797  LYS798  CYS799  TRP800  GLU811  SER814 

> <Gold.Protein.RotatedAtoms>
  152.1762  133.4676  159.4934 H   0  0  0  0  0  0  0  0  0  0  0  0  # atno 6907 bound_to 6896
  150.6927  134.1891  159.4287 H   0  0  0  0  0  0  0  0  0  0  0  0  # atno 6908 bound_to 6896
  151.9800  135.0033  160.0607 H   0  0  0  0  0  0  0  0  0  0  0  0  # atno 6909 bound_to 6896
  146.2035  139.7907  142.8743 H   0  0  0  0  0  0  0  0  0  0  0  0  # atno 7974 bound_to 7965
  154.4440  140.1021  156.6408 H   0  0  0  0  0  0  0  0  0  0  0  0  # atno 8008 bound_to 7997
  155.5504  140.3485  155.4448 H   0  0  0  0  0  0  0  0  0  0  0  0  # atno 8009 bound_to 7997
  156.0533  140.1309  157.0014 H   0  0  0  0  0  0  0  0  0  0  0  0  # atno 8010 bound_to 7997
  139.4825  144.5230  151.7845 H   0  0  0  0  0  0  0  0  0  0  0  0  # atno 10167 bound_to 10162
  156.2115  130.6921  151.0655 H   0  0  0  0  0  0  0  0  0  0  0  0  # atno 10718 bound_to 10713
  153.4815  135.7017  153.5935 H   0  0  0  0  0  0  0  0  0  0  0  0  # atno 10763 bound_to 10752
  153.4146  135.3840  155.2073 H   0  0  0  0  0  0  0  0  0  0  0  0  # atno 10764 bound_to 10752
  154.8721  135.3913  154.4265 H   0  0  0  0  0  0  0  0  0  0  0  0  # atno 10765 bound_to 10752
  139.9492  134.9625  156.8811 H   0  0  0  0  0  0  0  0  0  0  0  0  # atno 11005 bound_to 11000
  145.3401  141.0286  143.3397 LP  0  0  0  0  0  0  0  0  0  0  0  0  # atno 17320 bound_to 7965
  144.8738  139.5000  143.6755 LP  0  0  0  0  0  0  0  0  0  0  0  0  # atno 17321 bound_to 7965
  140.4747  144.1537  150.5923 LP  0  0  0  0  0  0  0  0  0  0  0  0  # atno 17342 bound_to 10162
  140.4344  143.2554  151.9554 LP  0  0  0  0  0  0  0  0  0  0  0  0  # atno 17343 bound_to 10162
  157.7041  131.0764  150.6726 LP  0  0  0  0  0  0  0  0  0  0  0  0  # atno 17370 bound_to 10713
  156.6785  130.4560  149.5635 LP  0  0  0  0  0  0  0  0  0  0  0  0  # atno 17371 bound_to 10713
  140.5760  134.0398  155.7447 LP  0  0  0  0  0  0  0  0  0  0  0  0  # atno 17394 bound_to 11000
  141.1151  133.9554  157.2838 LP  0  0  0  0  0  0  0  0  0  0  0  0  # atno 17395 bound_to 11000

$$$$
