AV-unprocessed.smi:1662|AV-procd|sdf|6663|dock3
  -GOLD-   22720 7373D 1   1.00000     0.00000
 Structure written by MMmdl.
 47 48  0  0  0  0  0  0  0  0  1 V2000
  150.0077  134.0328  155.5601 C   0  0  0  0  0  0  0  0  0  0  0  0
  149.8109  135.2727  156.3902 C   0  0  0  0  0  0  0  0  0  0  0  0
  150.1513  136.3951  155.8472 N   0  0  0  0  0  0  0  0  0  0  0  0
  150.0158  137.5921  156.5234 N   0  0  0  0  0  0  0  0  0  0  0  0
  150.4792  138.7634  155.7649 C   0  0  0  0  0  0  0  0  0  0  0  0
  151.5980  139.5486  156.4658 C   0  0  0  0  0  0  0  0  0  0  0  0
  152.7827  139.2536  156.2996 O   0  0  0  0  0  0  0  0  0  0  0  0
  151.1970  140.5675  157.2413 N   0  0  0  0  0  0  0  0  0  0  0  0
  152.0786  141.4551  157.9971 C   0  0  2  0  0  0  0  0  0  0  0  0
  152.4241  140.8137  159.3551 C   0  0  0  0  0  0  0  0  0  0  0  0
  153.3812  141.7017  160.1646 C   0  0  0  0  0  0  0  0  0  0  0  0
  152.8241  143.1235  160.3370 C   0  0  0  0  0  0  0  0  0  0  0  0
  152.4729  143.7609  158.9774 C   0  0  2  0  0  0  0  0  0  0  0  0
  152.0132  145.2200  159.1331 C   0  0  0  0  0  0  0  0  0  0  0  0
  151.4812  142.8794  158.1717 C   0  0  2  0  0  0  0  0  0  0  0  0
  150.0477  142.8721  158.7523 C   0  0  0  0  0  0  0  0  0  0  0  0
  149.5122  137.7184  157.7853 C   0  0  0  0  0  0  0  0  0  0  0  0
  149.3991  138.8090  158.3472 O   0  0  0  0  0  0  0  0  0  0  0  0
  149.1295  136.4427  158.3947 C   0  0  0  0  0  0  0  0  0  0  0  0
  148.6035  136.5287  159.7188 C   0  0  0  0  0  0  0  0  0  0  0  0
  148.1952  136.6067  160.7993 N   0  0  0  0  0  0  0  0  0  0  0  0
  149.2677  135.2599  157.7445 C   0  0  0  0  0  0  0  0  0  0  0  0
  148.8882  133.9080  158.3328 C   0  0  0  0  0  0  0  0  0  0  0  0
  149.0712  133.4857  155.4508 H   0  0  0  0  0  0  0  0  0  0  0  0
  150.7370  133.3689  156.0245 H   0  0  0  0  0  0  0  0  0  0  0  0
  150.3681  134.2676  154.5574 H   0  0  0  0  0  0  0  0  0  0  0  0
  150.8478  138.4525  154.7854 H   0  0  0  0  0  0  0  0  0  0  0  0
  149.6423  139.4343  155.5613 H   0  0  0  0  0  0  0  0  0  0  0  0
  150.2055  140.7426  157.3164 H   0  0  0  0  0  0  0  0  0  0  0  0
  153.0126  141.5452  157.4384 H   0  0  0  0  0  0  0  0  0  0  0  0
  151.5157  140.6338  159.9308 H   0  0  0  0  0  0  0  0  0  0  0  0
  152.8839  139.8370  159.1991 H   0  0  0  0  0  0  0  0  0  0  0  0
  153.5674  141.2541  161.1413 H   0  0  0  0  0  0  0  0  0  0  0  0
  154.3464  141.7493  159.6591 H   0  0  0  0  0  0  0  0  0  0  0  0
  151.9440  143.0994  160.9802 H   0  0  0  0  0  0  0  0  0  0  0  0
  153.5614  143.7379  160.8554 H   0  0  0  0  0  0  0  0  0  0  0  0
  153.3975  143.7989  158.3988 H   0  0  0  0  0  0  0  0  0  0  0  0
  151.1460  145.3046  159.7880 H   0  0  0  0  0  0  0  0  0  0  0  0
  151.7515  145.6557  158.1686 H   0  0  0  0  0  0  0  0  0  0  0  0
  152.8058  145.8318  159.5648 H   0  0  0  0  0  0  0  0  0  0  0  0
  151.4033  143.3211  157.1772 H   0  0  0  0  0  0  0  0  0  0  0  0
  150.0167  142.4751  159.7663 H   0  0  0  0  0  0  0  0  0  0  0  0
  149.3719  142.2708  158.1444 H   0  0  0  0  0  0  0  0  0  0  0  0
  149.6229  143.8749  158.7776 H   0  0  0  0  0  0  0  0  0  0  0  0
  148.5325  133.9893  159.3595 H   0  0  0  0  0  0  0  0  0  0  0  0
  149.7483  133.2376  158.3383 H   0  0  0  0  0  0  0  0  0  0  0  0
  148.0943  133.4454  157.7457 H   0  0  0  0  0  0  0  0  0  0  0  0
  1  2  1  0  0  0  0
  1 24  1  0  0  0  0
  1 25  1  0  0  0  0
  1 26  1  0  0  0  0
  2 22  1  0  0  0  0
  2  3  2  0  0  0  0
  3  4  1  0  0  0  0
  4  5  1  0  0  0  0
  4 17  1  0  0  0  0
  5  6  1  0  0  0  0
  5 27  1  0  0  0  0
  5 28  1  0  0  0  0
  6  7  2  0  0  0  0
  6  8  1  0  0  0  0
  8  9  1  0  0  0  0
  8 29  1  0  0  0  0
  9 15  1  0  0  0  0
  9 10  1  0  0  0  0
  9 30  1  0  0  0  0
 10 11  1  0  0  0  0
 10 31  1  0  0  0  0
 10 32  1  0  0  0  0
 11 12  1  0  0  0  0
 11 33  1  0  0  0  0
 11 34  1  0  0  0  0
 12 13  1  0  0  0  0
 12 35  1  0  0  0  0
 12 36  1  0  0  0  0
 13 14  1  0  0  0  0
 13 15  1  0  0  0  0
 13 37  1  0  0  0  0
 14 38  1  0  0  0  0
 14 39  1  0  0  0  0
 14 40  1  0  0  0  0
 15 16  1  0  0  0  0
 15 41  1  0  0  0  0
 16 42  1  0  0  0  0
 16 43  1  0  0  0  0
 16 44  1  0  0  0  0
 17 18  2  0  0  0  0
 17 19  1  0  0  0  0
 19 20  1  0  0  0  0
 19 22  2  0  0  0  0
 20 21  3  0  0  0  0
 22 23  1  0  0  0  0
 23 45  1  0  0  0  0
 23 46  1  0  0  0  0
 23 47  1  0  0  0  0
M  END
> <s_m_source_file>
AV-unprocessed.smi

> <i_m_source_file_index>
1662

> <i_lp_mmshare_version>
43012

> <i_f3d_flags>
0

> <s_epik_input>
TiNDYyhjMVtDSDNdKWMoPU8pbihuYzFbQ0gzXSlbQ0gyXUMoPU8pW05IXVtDQEBIXTJbQ0gyXVtDSDJdW0NIMl1bQ0BASF0oW0NIM10pW0NASF0yW0NIM10=

> <s_epik_cmdline>
J2VwaWtfcHl0aG9uJywgJy1waCcsICc3LjAnLCAnLXRuJywgJzgnLCAnLW1hJywgJzIwMCcsICctbWV0YWxfYmluZGluZycsICctaW1hZScsICc8aW5maWxlLm1hZT4nLCAnLW9tYWUnLCAnPG91dGZpbGUubWFlPic=

> <r_lp_tautomer_probability>
1

> <r_epik_Ionization_Penalty>
1.90709e-08

> <r_epik_Ionization_Penalty_Charging>
2.37982e-11

> <r_epik_Ionization_Penalty_Neutral>
1.90471e-08

> <r_epik_State_Penalty>
-0

> <r_epik_Charging_Adjusted_Penalty>
2.37982e-11

> <i_epik_Tot_Q>
0

> <i_epik_Tot_abs_Q>
0

> <r_epik_Metal_State_Penalty>
-0

> <b_epik_Metal_Only>
0

> <s_lp_Force_Field>
OPLS_2005

> <r_lp_Energy>
29.1366

> <b_lp_Chiralities_Consistent>
1

> <s_lp_Variant>
AV-unprocessed.smi:1662-7

> <Gold.Version>
5.8.1

> <Gold.Id.Protein>
6NUR|6NUR_protein|mol2

> <Gold.PLP.Fitness>
44.7255

> <Gold.PLP.PLP>
-37.6564

> <Gold.PLP.part.hbond>
-3.1921

> <Gold.PLP.part.metal>
0.0000

> <Gold.PLP.part.buried>
-6.0792

> <Gold.PLP.part.nonpolar>
-29.0154

> <Gold.PLP.part.repulsive>
0.1020

> <Gold.PLP.ligand.clash>
0.0000

> <Gold.PLP.ligand.torsion>
0.7333

> <Gold.PLP.Chemscore.Hbond>
2.8400

> <Gold.PLP.Chemscore.CHOScore>
0.0000

> <Gold.PLP.Chemscore.Metal>
0.0000

> <Gold.Chemscore.Hbonds>
donor molecule, donor type, donor heavy atom, donor atom, acceptor molecule, acceptor atom, score
      P1  H  6931  6943       L1    21  0.71
      P1  H  7997  8009       L1     7  1.00

> <Gold.PLP.Chemscore.Internal.Correction>
0.0156

> <Gold.Rescore>
     Score         DG    S(hbond)    S(metal)    S(lipo)     H(rot)  DE(clash)    DE(int)     intcor
     17.52     -20.76       1.98        0.00     105.71       1.45       0.08       3.16       ----

> <Gold.Chemscore.Fitness>
17.5155

> <Gold.Chemscore.DG>
-20.7594

> <Gold.Chemscore.ZeroCoef>
-5.4800

> <Gold.Chemscore.Hbond>
1.9834

> <Gold.Chemscore.Metal>
0.0000

> <Gold.Chemscore.Lipo>
105.7072

> <Gold.Chemscore.Internal_Hbond>
0.0000

> <Gold.Chemscore.DEClash>
0.0815

> <Gold.Chemscore.DEInternal>
3.1624

> <Gold.Chemscore.Rot>
1.4504

> <Gold.Chemscore.Internal.Correction>
   9.000000E+99

> <Gold.Chemscore.Hbonds>
donor molecule, donor type, donor heavy atom, donor atom, acceptor molecule, acceptor atom, score
      P1  H  6931  6943       L1    21  0.59
      P1  H  7997  8009       L1     7  1.00

> <Gold.Chemscore.Hbond.Weighted>
-6.6246

> <Gold.Chemscore.Metal.Weighted>
-0.0000

> <Gold.Chemscore.Lipo.Weighted>
-12.3677

> <Gold.Chemscore.Internal_Hbond.Weighted>
0.0000

> <Gold.Chemscore.DEClash.Weighted>
0.0815

> <Gold.Chemscore.DEInternal.Weighted>
3.1624

> <Gold.Chemscore.Rot.Weighted>
3.7129

> <Gold.Chemscore.Internal.Correction.Weighted>
   9.000000E+99

> <Gold.Protein.RotatedTorsions>
[ 6907 6896 6895 6894 ] final   -0.87 input  -60.11 | X-H torsion
[ 7974 7965 7964 7962 ] final  -79.50 input  175.53 | X-H torsion
[ 8008 7997 7996 7995 ] final -154.28 input   59.86 | X-H torsion
[ 10167 10162 10161 10158 ] final   32.52 input  -65.29 | X-H torsion
[ 10718 10713 10712 10709 ] final -158.04 input   66.30 | X-H torsion
[ 10763 10752 10751 10750 ] final   -4.23 input  -60.55 | X-H torsion
[ 11005 11000 10999 10996 ] final  -92.05 input  -57.11 | X-H torsion

> <Gold.Protein.ActiveResidues>
 VAL166  LYS551  ARG553  GLY616  TRP617  ASP618  TYR619  PRO620  LYS621  CYS622 
 ASP623  PHE694  ASN695  SER759  ASP760  ASP761  ALA762  ILE779  LEU786  VAL792 
 PHE793  MET794  SER795  GLU796  ALA797  LYS798  CYS799  TRP800  GLU811  SER814 

> <Gold.Protein.RotatedAtoms>
  151.5553  135.1066  159.9959 H   0  0  0  0  0  0  0  0  0  0  0  0  # atno 6907 bound_to 6896
  152.4472  133.7555  159.6728 H   0  0  0  0  0  0  0  0  0  0  0  0  # atno 6908 bound_to 6896
  150.8391  133.7898  159.3092 H   0  0  0  0  0  0  0  0  0  0  0  0  # atno 6909 bound_to 6896
  145.5724  140.9463  143.1388 H   0  0  0  0  0  0  0  0  0  0  0  0  # atno 7974 bound_to 7965
  155.6839  140.0747  157.2474 H   0  0  0  0  0  0  0  0  0  0  0  0  # atno 8008 bound_to 7997
  154.4100  140.1677  156.2064 H   0  0  0  0  0  0  0  0  0  0  0  0  # atno 8009 bound_to 7997
  155.9511  140.3377  155.6411 H   0  0  0  0  0  0  0  0  0  0  0  0  # atno 8010 bound_to 7997
  140.4491  144.1075  150.6188 H   0  0  0  0  0  0  0  0  0  0  0  0  # atno 10167 bound_to 10162
  156.5486  130.8595  151.2772 H   0  0  0  0  0  0  0  0  0  0  0  0  # atno 10718 bound_to 10713
  153.3820  135.6999  153.6558 H   0  0  0  0  0  0  0  0  0  0  0  0  # atno 10763 bound_to 10752
  153.5165  135.3621  155.2612 H   0  0  0  0  0  0  0  0  0  0  0  0  # atno 10764 bound_to 10752
  154.8693  135.4147  154.3120 H   0  0  0  0  0  0  0  0  0  0  0  0  # atno 10765 bound_to 10752
  141.1531  133.7796  156.9966 H   0  0  0  0  0  0  0  0  0  0  0  0  # atno 11005 bound_to 11000
  144.7432  139.7392  143.7303 LP  0  0  0  0  0  0  0  0  0  0  0  0  # atno 17320 bound_to 7965
  146.1775  139.4952  142.9888 LP  0  0  0  0  0  0  0  0  0  0  0  0  # atno 17321 bound_to 7965
  140.4229  143.2603  151.9693 LP  0  0  0  0  0  0  0  0  0  0  0  0  # atno 17342 bound_to 10162
  139.4795  144.5815  151.7925 LP  0  0  0  0  0  0  0  0  0  0  0  0  # atno 17343 bound_to 10162
  157.7392  130.9827  150.2298 LP  0  0  0  0  0  0  0  0  0  0  0  0  # atno 17370 bound_to 10713
  156.2905  130.3745  149.7846 LP  0  0  0  0  0  0  0  0  0  0  0  0  # atno 17371 bound_to 10713
  140.0968  134.9560  157.1861 LP  0  0  0  0  0  0  0  0  0  0  0  0  # atno 17394 bound_to 11000
  140.3372  134.2744  155.7218 LP  0  0  0  0  0  0  0  0  0  0  0  0  # atno 17395 bound_to 11000

$$$$
