AV-unprocessed.smi:589|AV-procd|sdf|3007|dock4
  -GOLD-   2262023513D 1   1.00000     0.00000
 Structure written by MMmdl.
 40 41  0  0  0  0  0  0  0  0  1 V2000
  154.7115  140.8861  161.4233 C   0  0  0  0  0  0  0  0  0  0  0  0
  153.6618  141.3724  160.4465 C   0  0  0  0  0  0  0  0  0  0  0  0
  153.3906  142.7443  160.2960 C   0  0  0  0  0  0  0  0  0  0  0  0
  152.4041  143.1464  159.3727 C   0  0  0  0  0  0  0  0  0  0  0  0
  152.1529  144.6363  159.1894 C   0  0  0  0  0  0  0  0  0  0  0  0
  151.7045  142.1473  158.6375 C   0  0  0  0  0  0  0  0  0  0  0  0
  150.6385  142.5087  157.6326 C   0  0  0  0  0  0  0  0  0  0  0  0
  150.9868  143.4076  156.7074 N   0  0  0  0  0  0  0  0  0  0  0  0
  149.5096  142.0251  157.6921 O   0  0  0  0  0  0  0  0  0  0  0  0
  152.0703  140.7870  158.8553 C   0  0  0  0  0  0  0  0  0  0  0  0
  151.4260  139.7443  158.1678 N   0  0  0  0  0  0  0  0  0  0  0  0
  151.5676  139.7851  156.7198 C   0  0  0  0  0  0  0  0  0  0  0  0
  150.6242  138.7521  156.0788 C   0  0  1  0  0  0  0  0  0  0  0  0
  150.8048  138.6758  154.5594 C   0  0  0  0  0  0  0  0  0  0  0  0
  150.8936  137.4600  156.6257 O   0  0  0  0  0  0  0  0  0  0  0  0
  150.7778  137.3718  158.0495 C   0  0  2  0  0  0  0  0  0  0  0  0
  149.3126  137.4390  158.5162 C   0  0  0  0  0  0  0  0  0  0  0  0
  151.6827  138.4230  158.7225 C   0  0  0  0  0  0  0  0  0  0  0  0
  153.0227  140.4175  159.7443 N   0  0  0  0  0  0  0  0  0  0  0  0
  155.2193  141.7205  161.9077 H   0  0  0  0  0  0  0  0  0  0  0  0
  155.4611  140.2858  160.9070 H   0  0  0  0  0  0  0  0  0  0  0  0
  154.2516  140.2715  162.1976 H   0  0  0  0  0  0  0  0  0  0  0  0
  153.9373  143.4758  160.8731 H   0  0  0  0  0  0  0  0  0  0  0  0
  152.1156  144.9001  158.1321 H   0  0  0  0  0  0  0  0  0  0  0  0
  152.9479  145.2283  159.6442 H   0  0  0  0  0  0  0  0  0  0  0  0
  151.2120  144.9267  159.6571 H   0  0  0  0  0  0  0  0  0  0  0  0
  150.3208  143.6907  156.0035 H   0  0  0  0  0  0  0  0  0  0  0  0
  151.9180  143.7979  156.7150 H   0  0  0  0  0  0  0  0  0  0  0  0
  151.3347  140.7864  156.3556 H   0  0  0  0  0  0  0  0  0  0  0  0
  152.6015  139.5709  156.4448 H   0  0  0  0  0  0  0  0  0  0  0  0
  149.5890  139.0279  156.2819 H   0  0  0  0  0  0  0  0  0  0  0  0
  150.5966  139.6383  154.0915 H   0  0  0  0  0  0  0  0  0  0  0  0
  150.1275  137.9411  154.1233 H   0  0  0  0  0  0  0  0  0  0  0  0
  151.8231  138.3882  154.2965 H   0  0  0  0  0  0  0  0  0  0  0  0
  151.1520  136.3856  158.3253 H   0  0  0  0  0  0  0  0  0  0  0  0
  149.2402  137.2460  159.5866 H   0  0  0  0  0  0  0  0  0  0  0  0
  148.7066  136.6916  158.0040 H   0  0  0  0  0  0  0  0  0  0  0  0
  148.8646  138.4157  158.3348 H   0  0  0  0  0  0  0  0  0  0  0  0
  152.7296  138.1653  158.5560 H   0  0  0  0  0  0  0  0  0  0  0  0
  151.5230  138.4295  159.8014 H   0  0  0  0  0  0  0  0  0  0  0  0
  1  2  1  0  0  0  0
  1 20  1  0  0  0  0
  1 21  1  0  0  0  0
  1 22  1  0  0  0  0
  2 19  1  0  0  0  0
  2  3  2  0  0  0  0
  3  4  1  0  0  0  0
  3 23  1  0  0  0  0
  4  5  1  0  0  0  0
  4  6  2  0  0  0  0
  5 24  1  0  0  0  0
  5 25  1  0  0  0  0
  5 26  1  0  0  0  0
  6  7  1  0  0  0  0
  6 10  1  0  0  0  0
  7  8  1  0  0  0  0
  7  9  2  0  0  0  0
  8 27  1  0  0  0  0
  8 28  1  0  0  0  0
 10 11  1  0  0  0  0
 10 19  2  0  0  0  0
 11 18  1  0  0  0  0
 11 12  1  0  0  0  0
 12 13  1  0  0  0  0
 12 29  1  0  0  0  0
 12 30  1  0  0  0  0
 13 14  1  0  0  0  0
 13 15  1  0  0  0  0
 13 31  1  0  0  0  0
 14 32  1  0  0  0  0
 14 33  1  0  0  0  0
 14 34  1  0  0  0  0
 15 16  1  0  0  0  0
 16 17  1  0  0  0  0
 16 18  1  0  0  0  0
 16 35  1  0  0  0  0
 17 36  1  0  0  0  0
 17 37  1  0  0  0  0
 17 38  1  0  0  0  0
 18 39  1  0  0  0  0
 18 40  1  0  0  0  0
M  END
> <s_m_source_file>
AV-unprocessed.smi

> <i_m_source_file_index>
589

> <i_lp_mmshare_version>
43012

> <i_f3d_flags>
0

> <s_epik_input>
W0NIM11jMVtjSF1jKFtDSDNdKWMoQyg9TylbTkgyXSljKG4xKU4yW0NIMl1bQ0BASF0oW0NIM10pT1tDQEBIXShbQ0gzXSlbQ0gyXTI=

> <s_epik_cmdline>
J2VwaWtfcHl0aG9uJywgJy1waCcsICc3LjAnLCAnLXRuJywgJzgnLCAnLW1hJywgJzIwMCcsICctbWV0YWxfYmluZGluZycsICctaW1hZScsICc8aW5maWxlLm1hZT4nLCAnLW9tYWUnLCAnPG91dGZpbGUubWFlPic=

> <r_lp_tautomer_probability>
1

> <r_epik_Ionization_Penalty>
0.000626871

> <r_epik_Ionization_Penalty_Charging>
0

> <r_epik_Ionization_Penalty_Neutral>
0.000626871

> <r_epik_State_Penalty>
0.000395665

> <r_epik_Charging_Adjusted_Penalty>
0.000395665

> <i_epik_Tot_Q>
0

> <i_epik_Tot_abs_Q>
0

> <r_epik_Metal_State_Penalty>
-0

> <b_epik_Metal_Only>
0

> <s_lp_Force_Field>
OPLS_2005

> <r_lp_Energy>
27.549

> <b_lp_Chiralities_Consistent>
1

> <s_lp_Variant>
AV-unprocessed.smi:589-3

> <Gold.Version>
5.8.1

> <Gold.Id.Protein>
6NUR|6NUR_protein|mol2

> <Gold.PLP.Fitness>
36.9226

> <Gold.PLP.PLP>
-36.1861

> <Gold.PLP.part.hbond>
-1.0000

> <Gold.PLP.part.metal>
0.0000

> <Gold.PLP.part.buried>
-5.3915

> <Gold.PLP.part.nonpolar>
-30.1686

> <Gold.PLP.part.repulsive>
0.1842

> <Gold.PLP.ligand.clash>
0.0000

> <Gold.PLP.ligand.torsion>
1.1246

> <Gold.PLP.Chemscore.Hbond>
0.8800

> <Gold.PLP.Chemscore.CHOScore>
0.0000

> <Gold.PLP.Chemscore.Metal>
0.0000

> <Gold.Chemscore.Hbonds>
donor molecule, donor type, donor heavy atom, donor atom, acceptor molecule, acceptor atom, score
      L1  H     8    27       P1  8028  0.90

> <Gold.PLP.Chemscore.Internal.Correction>
0.3458

> <Gold.Rescore>
     Score         DG    S(hbond)    S(metal)    S(lipo)     H(rot)  DE(clash)    DE(int)     intcor
     14.96     -16.81       1.01        0.00      89.82       1.00       0.36       1.50       ----

> <Gold.Chemscore.Fitness>
14.9603

> <Gold.Chemscore.DG>
-16.8142

> <Gold.Chemscore.ZeroCoef>
-5.4800

> <Gold.Chemscore.Hbond>
1.0137

> <Gold.Chemscore.Metal>
0.0000

> <Gold.Chemscore.Lipo>
89.8159

> <Gold.Chemscore.Internal_Hbond>
0.0000

> <Gold.Chemscore.DEClash>
0.3559

> <Gold.Chemscore.DEInternal>
1.4980

> <Gold.Chemscore.Rot>
1.0000

> <Gold.Chemscore.Internal.Correction>
   9.000000E+99

> <Gold.Chemscore.Hbonds>
donor molecule, donor type, donor heavy atom, donor atom, acceptor molecule, acceptor atom, score
      L1  H     8    27       P1  8028  0.88

> <Gold.Chemscore.Hbond.Weighted>
-3.3857

> <Gold.Chemscore.Metal.Weighted>
-0.0000

> <Gold.Chemscore.Lipo.Weighted>
-10.5085

> <Gold.Chemscore.Internal_Hbond.Weighted>
0.0000

> <Gold.Chemscore.DEClash.Weighted>
0.3559

> <Gold.Chemscore.DEInternal.Weighted>
1.4980

> <Gold.Chemscore.Rot.Weighted>
2.5600

> <Gold.Chemscore.Internal.Correction.Weighted>
   9.000000E+99

> <Gold.Protein.RotatedTorsions>
[ 6907 6896 6895 6894 ] final   71.42 input  -60.11 | X-H torsion
[ 7974 7965 7964 7962 ] final  -97.77 input  175.53 | X-H torsion
[ 8008 7997 7996 7995 ] final   33.99 input   59.86 | X-H torsion
[ 10167 10162 10161 10158 ] final  131.50 input  -65.29 | X-H torsion
[ 10718 10713 10712 10709 ] final -149.36 input   66.30 | X-H torsion
[ 10763 10752 10751 10750 ] final  -48.98 input  -60.55 | X-H torsion
[ 11005 11000 10999 10996 ] final  153.04 input  -57.11 | X-H torsion

> <Gold.Protein.ActiveResidues>
 VAL166  LYS551  ARG553  GLY616  TRP617  ASP618  TYR619  PRO620  LYS621  CYS622 
 ASP623  PHE694  ASN695  SER759  ASP760  ASP761  ALA762  ILE779  LEU786  VAL792 
 PHE793  MET794  SER795  GLU796  ALA797  LYS798  CYS799  TRP800  GLU811  SER814 

> <Gold.Protein.RotatedAtoms>
  152.4809  134.4722  159.9638 H   0  0  0  0  0  0  0  0  0  0  0  0  # atno 6907 bound_to 6896
  151.4728  133.3559  159.2834 H   0  0  0  0  0  0  0  0  0  0  0  0  # atno 6908 bound_to 6896
  150.8881  134.8307  159.7334 H   0  0  0  0  0  0  0  0  0  0  0  0  # atno 6909 bound_to 6896
  145.3294  140.9438  143.2670 H   0  0  0  0  0  0  0  0  0  0  0  0  # atno 7974 bound_to 7965
  155.1476  140.3272  155.4438 H   0  0  0  0  0  0  0  0  0  0  0  0  # atno 8008 bound_to 7997
  156.2585  140.1982  156.6539 H   0  0  0  0  0  0  0  0  0  0  0  0  # atno 8009 bound_to 7997
  154.6497  140.0560  156.9927 H   0  0  0  0  0  0  0  0  0  0  0  0  # atno 8010 bound_to 7997
  139.5381  144.6703  151.4717 H   0  0  0  0  0  0  0  0  0  0  0  0  # atno 10167 bound_to 10162
  156.4322  130.8081  151.2308 H   0  0  0  0  0  0  0  0  0  0  0  0  # atno 10718 bound_to 10713
  154.0866  135.6583  153.4846 H   0  0  0  0  0  0  0  0  0  0  0  0  # atno 10763 bound_to 10752
  153.0337  135.5192  154.7422 H   0  0  0  0  0  0  0  0  0  0  0  0  # atno 10764 bound_to 10752
  154.6533  135.3004  154.9928 H   0  0  0  0  0  0  0  0  0  0  0  0  # atno 10765 bound_to 10752
  140.1362  134.8769  157.2270 H   0  0  0  0  0  0  0  0  0  0  0  0  # atno 11005 bound_to 11000
  144.8876  139.4818  143.6693 LP  0  0  0  0  0  0  0  0  0  0  0  0  # atno 17320 bound_to 7965
  146.3051  139.7554  142.9062 LP  0  0  0  0  0  0  0  0  0  0  0  0  # atno 17321 bound_to 7965
  140.6598  143.8523  150.6875 LP  0  0  0  0  0  0  0  0  0  0  0  0  # atno 17342 bound_to 10162
  140.1914  143.4033  152.1860 LP  0  0  0  0  0  0  0  0  0  0  0  0  # atno 17343 bound_to 10162
  157.7508  131.0195  150.3669 LP  0  0  0  0  0  0  0  0  0  0  0  0  # atno 17370 bound_to 10713
  156.4008  130.3915  149.6961 LP  0  0  0  0  0  0  0  0  0  0  0  0  # atno 17371 bound_to 10713
  140.2779  134.3384  155.7352 LP  0  0  0  0  0  0  0  0  0  0  0  0  # atno 17394 bound_to 11000
  141.2178  133.7461  156.9320 LP  0  0  0  0  0  0  0  0  0  0  0  0  # atno 17395 bound_to 11000

$$$$
