AV-unprocessed.smi:1381|AV-procd|sdf|5606|dock7
  -GOLD-   22720 5213D 1   1.00000     0.00000
 Structure written by MMmdl.
 43 44  0  0  0  0  0  0  0  0  2 V2000
  150.6426  142.5306  156.7099 C   0  0  0  0  0  0  0  0  0  0  0  0
  150.3576  141.3803  155.8065 C   0  0  0  0  0  0  0  0  0  0  0  0
  149.2273  140.9595  155.1637 C   0  0  0  0  0  0  0  0  0  0  0  0
  149.6662  139.7994  154.4720 C   0  0  0  0  0  0  0  0  0  0  0  0
  148.7718  139.0505  153.6653 N   0  0  0  0  0  0  0  0  0  0  0  0
  147.4420  138.9282  153.8158 C   0  0  0  0  0  0  0  0  0  0  0  0
  146.7750  139.4590  154.7045 O   0  0  0  0  0  0  0  0  0  0  0  0
  146.9123  138.1410  152.8682 N   0  0  0  0  0  0  0  0  0  0  0  0
  145.4948  137.8178  152.7556 C   0  0  0  0  0  0  0  0  0  0  0  0
  145.1530  136.5086  153.4926 C   0  0  0  0  0  0  0  0  0  0  0  0
  146.0257  135.3837  153.0750 N   0  3  1  0  0  0  0  0  0  0  0  0
  146.3459  134.4695  154.1968 C   0  0  0  0  0  0  0  0  0  0  0  0
  147.3044  133.3489  153.7474 C   0  0  2  0  0  0  0  0  0  0  0  0
  148.7517  133.8267  153.5333 C   0  0  0  0  0  0  0  0  0  0  0  0
  146.7793  132.6810  152.6002 O   0  0  0  0  0  0  0  0  0  0  0  0
  146.4909  133.5297  151.4919 C   0  0  1  0  0  0  0  0  0  0  0  0
  145.9381  132.6557  150.3605 C   0  0  0  0  0  0  0  0  0  0  0  0
  145.4901  134.6159  151.9251 C   0  0  0  0  0  0  0  0  0  0  0  0
  150.9477  139.5349  154.6750 N   0  0  0  0  0  0  0  0  0  0  0  0
  151.3971  140.5464  155.5321 O   0  0  0  0  0  0  0  0  0  0  0  0
  149.8204  143.2463  156.7001 H   0  0  0  0  0  0  0  0  0  0  0  0
  151.5476  143.0525  156.3988 H   0  0  0  0  0  0  0  0  0  0  0  0
  150.7836  142.1899  157.7356 H   0  0  0  0  0  0  0  0  0  0  0  0
  148.2471  141.4122  155.1865 H   0  0  0  0  0  0  0  0  0  0  0  0
  149.1905  138.5564  152.8912 H   0  0  0  0  0  0  0  0  0  0  0  0
  147.5297  137.7457  152.1740 H   0  0  0  0  0  0  0  0  0  0  0  0
  144.9074  138.6554  153.1330 H   0  0  0  0  0  0  0  0  0  0  0  0
  145.2520  137.7214  151.6970 H   0  0  0  0  0  0  0  0  0  0  0  0
  145.2785  136.6820  154.5625 H   0  0  0  0  0  0  0  0  0  0  0  0
  144.1073  136.2329  153.3472 H   0  0  0  0  0  0  0  0  0  0  0  0
  146.7889  135.0266  155.0233 H   0  0  0  0  0  0  0  0  0  0  0  0
  145.4197  134.0313  154.5725 H   0  0  0  0  0  0  0  0  0  0  0  0
  147.3357  132.6025  154.5417 H   0  0  0  0  0  0  0  0  0  0  0  0
  149.1728  134.2111  154.4626 H   0  0  0  0  0  0  0  0  0  0  0  0
  148.8207  134.6239  152.7937 H   0  0  0  0  0  0  0  0  0  0  0  0
  149.3866  133.0052  153.2006 H   0  0  0  0  0  0  0  0  0  0  0  0
  147.4090  133.9984  151.1372 H   0  0  0  0  0  0  0  0  0  0  0  0
  145.7043  133.2541  149.4797 H   0  0  0  0  0  0  0  0  0  0  0  0
  145.0270  132.1411  150.6670 H   0  0  0  0  0  0  0  0  0  0  0  0
  146.6637  131.8983  150.0635 H   0  0  0  0  0  0  0  0  0  0  0  0
  144.5366  134.1626  152.2020 H   0  0  0  0  0  0  0  0  0  0  0  0
  145.2935  135.2787  151.0831 H   0  0  0  0  0  0  0  0  0  0  0  0
  146.9021  135.7905  152.7808 H   0  0  0  0  0  0  0  0  0  0  0  0
  1  2  1  0  0  0  0
  1 21  1  0  0  0  0
  1 22  1  0  0  0  0
  1 23  1  0  0  0  0
  2 20  1  0  0  0  0
  2  3  2  0  0  0  0
  3  4  1  0  0  0  0
  3 24  1  0  0  0  0
  4  5  1  0  0  0  0
  4 19  2  0  0  0  0
  5  6  1  0  0  0  0
  5 25  1  0  0  0  0
  6  7  2  0  0  0  0
  6  8  1  0  0  0  0
  8  9  1  0  0  0  0
  8 26  1  0  0  0  0
  9 10  1  0  0  0  0
  9 27  1  0  0  0  0
  9 28  1  0  0  0  0
 10 11  1  0  0  0  0
 10 29  1  0  0  0  0
 10 30  1  0  0  0  0
 11 18  1  0  0  0  0
 11 12  1  0  0  0  0
 11 43  1  0  0  0  0
 12 13  1  0  0  0  0
 12 31  1  0  0  0  0
 12 32  1  0  0  0  0
 13 14  1  0  0  0  0
 13 15  1  0  0  0  0
 13 33  1  0  0  0  0
 14 34  1  0  0  0  0
 14 35  1  0  0  0  0
 14 36  1  0  0  0  0
 15 16  1  0  0  0  0
 16 17  1  0  0  0  0
 16 18  1  0  0  0  0
 16 37  1  0  0  0  0
 17 38  1  0  0  0  0
 17 39  1  0  0  0  0
 17 40  1  0  0  0  0
 18 41  1  0  0  0  0
 18 42  1  0  0  0  0
 19 20  1  0  0  0  0
M  CHG  1  11   1
M  END
> <s_m_source_file>
AV-unprocessed.smi

> <i_m_source_file_index>
1381

> <i_lp_mmshare_version>
43012

> <i_f3d_flags>
0

> <s_epik_input>
W0NIM11jMVtjSF1jKG5vMSlbTkhdQyg9TylbTkhdW0NIMl1bQ0gyXU4yW0NIMl1bQ0BASF0oW0NIM10pT1tDQEBIXShbQ0gzXSlbQ0gyXTI=

> <s_epik_cmdline>
J2VwaWtfcHl0aG9uJywgJy1waCcsICc3LjAnLCAnLXRuJywgJzgnLCAnLW1hJywgJzIwMCcsICctbWV0YWxfYmluZGluZycsICctaW1hZScsICc8aW5maWxlLm1hZT4nLCAnLW9tYWUnLCAnPG91dGZpbGUubWFlPic=

> <r_epik_Ionization_Penalty>
0.707076

> <r_epik_Ionization_Penalty_Charging>
0.707039

> <r_epik_Ionization_Penalty_Neutral>
3.6548e-05

> <r_epik_State_Penalty>
0.730276

> <r_epik_Charging_Adjusted_Penalty>
1.43732

> <i_epik_Tot_Q>
1

> <i_epik_Tot_abs_Q>
1

> <r_epik_Metal_State_Penalty>
0.743132

> <b_epik_Metal_Only>
0

> <s_lp_Force_Field>
OPLS_2005

> <r_lp_Energy>
14.5355

> <b_lp_Chiralities_Consistent>
1

> <s_lp_Variant>
AV-unprocessed.smi:1381-5

> <Gold.Version>
5.8.1

> <Gold.Id.Protein>
6NUR|6NUR_protein|mol2

> <Gold.PLP.Fitness>
40.7110

> <Gold.PLP.PLP>
-33.2589

> <Gold.PLP.part.hbond>
-4.3382

> <Gold.PLP.part.metal>
0.0000

> <Gold.PLP.part.buried>
-2.1069

> <Gold.PLP.part.nonpolar>
-27.2671

> <Gold.PLP.part.repulsive>
0.4761

> <Gold.PLP.ligand.clash>
0.0000

> <Gold.PLP.ligand.torsion>
0.7983

> <Gold.PLP.Chemscore.Hbond>
3.0094

> <Gold.PLP.Chemscore.CHOScore>
0.0000

> <Gold.PLP.Chemscore.Metal>
0.0000

> <Gold.Chemscore.Hbonds>
donor molecule, donor type, donor heavy atom, donor atom, acceptor molecule, acceptor atom, score
      L1  H     5    25       P1  7957  0.07
      L1  H     8    26       P1  7948  0.77
      L1  H    11    43       P1  7948  0.75

> <Gold.PLP.Chemscore.Internal.Correction>
0.0205

> <Gold.Rescore>
     Score         DG    S(hbond)    S(metal)    S(lipo)     H(rot)  DE(clash)    DE(int)     intcor
     14.50     -15.81       1.91        0.00      69.06       1.61       0.10       1.21       ----

> <Gold.Chemscore.Fitness>
14.5032

> <Gold.Chemscore.DG>
-15.8093

> <Gold.Chemscore.ZeroCoef>
-5.4800

> <Gold.Chemscore.Hbond>
1.9060

> <Gold.Chemscore.Metal>
0.0000

> <Gold.Chemscore.Lipo>
69.0610

> <Gold.Chemscore.Internal_Hbond>
0.0000

> <Gold.Chemscore.DEClash>
0.0953

> <Gold.Chemscore.DEInternal>
1.2108

> <Gold.Chemscore.Rot>
1.6081

> <Gold.Chemscore.Internal.Correction>
   9.000000E+99

> <Gold.Chemscore.Hbonds>
donor molecule, donor type, donor heavy atom, donor atom, acceptor molecule, acceptor atom, score
      L1  H     5    25       P1  7957  0.07
      L1  H     8    26       P1  7948  0.74
      L1  H    11    43       P1  7948  0.37

> <Gold.Chemscore.Hbond.Weighted>
-6.3659

> <Gold.Chemscore.Metal.Weighted>
-0.0000

> <Gold.Chemscore.Lipo.Weighted>
-8.0801

> <Gold.Chemscore.Internal_Hbond.Weighted>
0.0000

> <Gold.Chemscore.DEClash.Weighted>
0.0953

> <Gold.Chemscore.DEInternal.Weighted>
1.2108

> <Gold.Chemscore.Rot.Weighted>
4.1167

> <Gold.Chemscore.Internal.Correction.Weighted>
   9.000000E+99

> <Gold.Protein.RotatedTorsions>
[ 6907 6896 6895 6894 ] final -142.05 input  -60.11 | X-H torsion
[ 7974 7965 7964 7962 ] final  111.39 input  175.53 | X-H torsion
[ 8008 7997 7996 7995 ] final -150.46 input   59.86 | X-H torsion
[ 10167 10162 10161 10158 ] final    0.57 input  -65.29 | X-H torsion
[ 10718 10713 10712 10709 ] final  -56.07 input   66.30 | X-H torsion
[ 10763 10752 10751 10750 ] final   95.63 input  -60.55 | X-H torsion
[ 11005 11000 10999 10996 ] final -128.12 input  -57.11 | X-H torsion

> <Gold.Protein.ActiveResidues>
 VAL166  LYS551  ARG553  GLY616  TRP617  ASP618  TYR619  PRO620  LYS621  CYS622 
 ASP623  PHE694  ASN695  SER759  ASP760  ASP761  ALA762  ILE779  LEU786  VAL792 
 PHE793  MET794  SER795  GLU796  ALA797  LYS798  CYS799  TRP800  GLU811  SER814 

> <Gold.Protein.RotatedAtoms>
  151.0819  133.5383  159.2619 H   0  0  0  0  0  0  0  0  0  0  0  0  # atno 6907 bound_to 6896
  151.2283  135.0544  159.8987 H   0  0  0  0  0  0  0  0  0  0  0  0  # atno 6908 bound_to 6896
  152.5424  134.0611  159.8206 H   0  0  0  0  0  0  0  0  0  0  0  0  # atno 6909 bound_to 6896
  145.2428  139.2772  143.4109 H   0  0  0  0  0  0  0  0  0  0  0  0  # atno 7974 bound_to 7965
  155.6239  140.0684  157.2670 H   0  0  0  0  0  0  0  0  0  0  0  0  # atno 8008 bound_to 7997
  154.4222  140.1779  156.1449 H   0  0  0  0  0  0  0  0  0  0  0  0  # atno 8009 bound_to 7997
  155.9987  140.3338  155.6828 H   0  0  0  0  0  0  0  0  0  0  0  0  # atno 8010 bound_to 7997
  140.6722  143.7015  150.7948 H   0  0  0  0  0  0  0  0  0  0  0  0  # atno 10167 bound_to 10162
  156.1317  130.4159  150.0256 H   0  0  0  0  0  0  0  0  0  0  0  0  # atno 10718 bound_to 10713
  153.2554  135.4247  155.0840 H   0  0  0  0  0  0  0  0  0  0  0  0  # atno 10763 bound_to 10752
  154.8399  135.3436  154.6453 H   0  0  0  0  0  0  0  0  0  0  0  0  # atno 10764 bound_to 10752
  153.6873  135.7035  153.5157 H   0  0  0  0  0  0  0  0  0  0  0  0  # atno 10765 bound_to 10752
  140.9543  134.1023  157.4031 H   0  0  0  0  0  0  0  0  0  0  0  0  # atno 11005 bound_to 11000
  146.3324  140.2796  142.8609 LP  0  0  0  0  0  0  0  0  0  0  0  0  # atno 17320 bound_to 7965
  144.9574  140.8240  143.5535 LP  0  0  0  0  0  0  0  0  0  0  0  0  # atno 17321 bound_to 7965
  140.0703  143.5068  152.2583 LP  0  0  0  0  0  0  0  0  0  0  0  0  # atno 17342 bound_to 10162
  139.5997  144.7578  151.3202 LP  0  0  0  0  0  0  0  0  0  0  0  0  # atno 17343 bound_to 10162
  156.8166  130.9344  151.3642 LP  0  0  0  0  0  0  0  0  0  0  0  0  # atno 17370 bound_to 10713
  157.6495  130.8872  149.9604 LP  0  0  0  0  0  0  0  0  0  0  0  0  # atno 17371 bound_to 10713
  139.8857  135.0075  156.6453 LP  0  0  0  0  0  0  0  0  0  0  0  0  # atno 17394 bound_to 11000
  140.7558  133.8859  155.8381 LP  0  0  0  0  0  0  0  0  0  0  0  0  # atno 17395 bound_to 11000

$$$$
