AV-unprocessed.smi:1428|AV-procd|sdf|5813|dock1
  -GOLD-   22720 5463D 1   1.00000     0.00000
 Structure written by MMmdl.
 43 44  0  0  0  0  0  0  0  0  1 V2000
  151.2915  145.9526  159.8894 C   0  0  0  0  0  0  0  0  0  0  0  0
  151.1737  144.7479  159.1406 O   0  0  0  0  0  0  0  0  0  0  0  0
  151.7322  143.5936  159.6558 C   0  0  0  0  0  0  0  0  0  0  0  0
  152.4564  143.6823  160.7997 N   0  0  0  0  0  0  0  0  0  0  0  0
  152.9980  142.5558  161.3066 C   0  0  0  0  0  0  0  0  0  0  0  0
  152.8438  141.2911  160.7103 C   0  0  0  0  0  0  0  0  0  0  0  0
  152.0929  141.1962  159.5239 C   0  0  0  0  0  0  0  0  0  0  0  0
  151.5300  142.3723  158.9714 C   0  0  0  0  0  0  0  0  0  0  0  0
  150.7365  142.3872  157.7912 N   0  0  0  0  0  0  0  0  0  0  0  0
  149.9704  141.4068  157.2839 C   0  0  0  0  0  0  0  0  0  0  0  0
  149.8584  140.2745  157.7536 O   0  0  0  0  0  0  0  0  0  0  0  0
  149.3421  141.8116  156.1712 N   0  0  0  0  0  0  0  0  0  0  0  0
  148.4368  140.9923  155.3711 C   0  0  0  0  0  0  0  0  0  0  0  0
  149.1911  139.7801  154.8072 C   0  0  0  0  0  0  0  0  0  0  0  0
  148.2984  138.9637  153.8566 C   0  0  0  0  0  0  0  0  0  0  0  0
  147.8205  139.8004  152.7507 N   0  0  0  0  0  0  0  0  0  0  0  0
  147.0747  138.9572  151.7876 C   0  0  0  0  0  0  0  0  0  0  0  0
  146.0491  138.0107  152.4229 C   0  0  0  0  0  0  0  0  0  0  0  0
  144.7618  138.2331  152.1451 N   0  0  0  0  0  0  0  0  0  0  0  0
  146.4159  137.0882  153.1473 O   0  0  0  0  0  0  0  0  0  0  0  0
  147.0090  140.9111  153.2706 C   0  0  0  0  0  0  0  0  0  0  0  0
  147.8481  141.8018  154.2034 C   0  0  0  0  0  0  0  0  0  0  0  0
  150.7965  146.7610  159.3518 H   0  0  0  0  0  0  0  0  0  0  0  0
  152.3361  146.2365  160.0251 H   0  0  0  0  0  0  0  0  0  0  0  0
  150.8134  145.8647  160.8661 H   0  0  0  0  0  0  0  0  0  0  0  0
  153.5658  142.6652  162.2188 H   0  0  0  0  0  0  0  0  0  0  0  0
  153.2868  140.4127  161.1559 H   0  0  0  0  0  0  0  0  0  0  0  0
  151.9521  140.2260  159.0735 H   0  0  0  0  0  0  0  0  0  0  0  0
  150.8027  143.2303  157.2397 H   0  0  0  0  0  0  0  0  0  0  0  0
  149.4965  142.7583  155.8561 H   0  0  0  0  0  0  0  0  0  0  0  0
  147.6239  140.6298  156.0033 H   0  0  0  0  0  0  0  0  0  0  0  0
  150.0831  140.1096  154.2716 H   0  0  0  0  0  0  0  0  0  0  0  0
  149.5378  139.1447  155.6229 H   0  0  0  0  0  0  0  0  0  0  0  0
  148.8780  138.1274  153.4633 H   0  0  0  0  0  0  0  0  0  0  0  0
  147.4557  138.5361  154.4033 H   0  0  0  0  0  0  0  0  0  0  0  0
  146.5328  139.5956  151.0881 H   0  0  0  0  0  0  0  0  0  0  0  0
  147.7767  138.3716  151.1908 H   0  0  0  0  0  0  0  0  0  0  0  0
  144.0528  137.6299  152.5364 H   0  0  0  0  0  0  0  0  0  0  0  0
  144.5035  138.9988  151.5398 H   0  0  0  0  0  0  0  0  0  0  0  0
  146.6339  141.5342  152.4590 H   0  0  0  0  0  0  0  0  0  0  0  0
  146.1359  140.5250  153.7998 H   0  0  0  0  0  0  0  0  0  0  0  0
  147.2292  142.6156  154.5832 H   0  0  0  0  0  0  0  0  0  0  0  0
  148.6515  142.2674  153.6302 H   0  0  0  0  0  0  0  0  0  0  0  0
  1  2  1  0  0  0  0
  1 23  1  0  0  0  0
  1 24  1  0  0  0  0
  1 25  1  0  0  0  0
  2  3  1  0  0  0  0
  3  8  1  0  0  0  0
  3  4  2  0  0  0  0
  4  5  1  0  0  0  0
  5  6  2  0  0  0  0
  5 26  1  0  0  0  0
  6  7  1  0  0  0  0
  6 27  1  0  0  0  0
  7  8  2  0  0  0  0
  7 28  1  0  0  0  0
  8  9  1  0  0  0  0
  9 10  1  0  0  0  0
  9 29  1  0  0  0  0
 10 11  2  0  0  0  0
 10 12  1  0  0  0  0
 12 13  1  0  0  0  0
 12 30  1  0  0  0  0
 13 22  1  0  0  0  0
 13 14  1  0  0  0  0
 13 31  1  0  0  0  0
 14 15  1  0  0  0  0
 14 32  1  0  0  0  0
 14 33  1  0  0  0  0
 15 16  1  0  0  0  0
 15 34  1  0  0  0  0
 15 35  1  0  0  0  0
 16 17  1  0  0  0  0
 16 21  1  0  0  0  0
 17 18  1  0  0  0  0
 17 36  1  0  0  0  0
 17 37  1  0  0  0  0
 18 19  1  0  0  0  0
 18 20  2  0  0  0  0
 19 38  1  0  0  0  0
 19 39  1  0  0  0  0
 21 22  1  0  0  0  0
 21 40  1  0  0  0  0
 21 41  1  0  0  0  0
 22 42  1  0  0  0  0
 22 43  1  0  0  0  0
M  END
> <s_m_source_file>
AV-unprocessed.smi

> <i_m_source_file_index>
1428

> <i_lp_mmshare_version>
43012

> <i_f3d_flags>
0

> <s_epik_input>
W0NIM11PYzFuW2NIXVtjSF1bY0hdYzFbTkhdQyg9TylbTkhdW0NIXTJbQ0gyXVtDSDJdTihbQ0gyXVtDSDJdMilbQ0gyXUMoPU8pW05IMl0=

> <s_epik_cmdline>
J2VwaWtfcHl0aG9uJywgJy1waCcsICc3LjAnLCAnLXRuJywgJzgnLCAnLW1hJywgJzIwMCcsICctbWV0YWxfYmluZGluZycsICctaW1hZScsICc8aW5maWxlLm1hZT4nLCAnLW9tYWUnLCAnPG91dGZpbGUubWFlPic=

> <r_lp_tautomer_probability>
1

> <r_epik_Ionization_Penalty>
0.16483

> <r_epik_Ionization_Penalty_Charging>
0

> <r_epik_Ionization_Penalty_Neutral>
0.16483

> <r_epik_State_Penalty>
0.154069

> <r_epik_Charging_Adjusted_Penalty>
0.154069

> <i_epik_Tot_Q>
0

> <i_epik_Tot_abs_Q>
0

> <r_epik_Metal_State_Penalty>
0.171364

> <b_epik_Metal_Only>
0

> <s_lp_Force_Field>
OPLS_2005

> <r_lp_Energy>
13.8311

> <b_lp_Chiralities_Consistent>
1

> <s_lp_Variant>
AV-unprocessed.smi:1428-1

> <Gold.Version>
5.8.1

> <Gold.Id.Protein>
6NUR|6NUR_protein|mol2

> <Gold.PLP.Fitness>
40.7627

> <Gold.PLP.PLP>
-37.1590

> <Gold.PLP.part.hbond>
-2.5292

> <Gold.PLP.part.metal>
0.0000

> <Gold.PLP.part.buried>
-5.1119

> <Gold.PLP.part.nonpolar>
-34.3795

> <Gold.PLP.part.repulsive>
4.9239

> <Gold.PLP.ligand.clash>
0.0000

> <Gold.PLP.ligand.torsion>
0.3361

> <Gold.PLP.Chemscore.Hbond>
1.4193

> <Gold.PLP.Chemscore.CHOScore>
0.0000

> <Gold.PLP.Chemscore.Metal>
0.0000

> <Gold.Chemscore.Hbonds>
donor molecule, donor type, donor heavy atom, donor atom, acceptor molecule, acceptor atom, score
      L1  H    12    30       P1  8028  0.91
      L1  H    19    39       P1 10171  0.38

> <Gold.PLP.Chemscore.Internal.Correction>
0.0181

> <Gold.Rescore>
     Score         DG    S(hbond)    S(metal)    S(lipo)     H(rot)  DE(clash)    DE(int)     intcor
      9.64     -12.88       1.00        0.00      84.80       2.29       0.69       2.55       ----

> <Gold.Chemscore.Fitness>
9.6353

> <Gold.Chemscore.DG>
-12.8752

> <Gold.Chemscore.ZeroCoef>
-5.4800

> <Gold.Chemscore.Hbond>
1.0025

> <Gold.Chemscore.Metal>
0.0000

> <Gold.Chemscore.Lipo>
84.8026

> <Gold.Chemscore.Internal_Hbond>
0.0000

> <Gold.Chemscore.DEClash>
0.6853

> <Gold.Chemscore.DEInternal>
2.5546

> <Gold.Chemscore.Rot>
2.2949

> <Gold.Chemscore.Internal.Correction>
   9.000000E+99

> <Gold.Chemscore.Hbonds>
donor molecule, donor type, donor heavy atom, donor atom, acceptor molecule, acceptor atom, score
      L1  H    12    30       P1  8028  0.84
      L1  H    19    39       P1 10171  0.38

> <Gold.Chemscore.Hbond.Weighted>
-3.3483

> <Gold.Chemscore.Metal.Weighted>
-0.0000

> <Gold.Chemscore.Lipo.Weighted>
-9.9219

> <Gold.Chemscore.Internal_Hbond.Weighted>
0.0000

> <Gold.Chemscore.DEClash.Weighted>
0.6853

> <Gold.Chemscore.DEInternal.Weighted>
2.5546

> <Gold.Chemscore.Rot.Weighted>
5.8750

> <Gold.Chemscore.Internal.Correction.Weighted>
   9.000000E+99

> <Gold.Protein.RotatedTorsions>
[ 6907 6896 6895 6894 ] final  -85.69 input  -60.11 | X-H torsion
[ 7974 7965 7964 7962 ] final -105.14 input  175.53 | X-H torsion
[ 8008 7997 7996 7995 ] final   55.89 input   59.86 | X-H torsion
[ 10167 10162 10161 10158 ] final  -16.57 input  -65.29 | X-H torsion
[ 10718 10713 10712 10709 ] final   53.88 input   66.30 | X-H torsion
[ 10763 10752 10751 10750 ] final   26.22 input  -60.55 | X-H torsion
[ 11005 11000 10999 10996 ] final  126.33 input  -57.11 | X-H torsion

> <Gold.Protein.ActiveResidues>
 VAL166  LYS551  ARG553  GLY616  TRP617  ASP618  TYR619  PRO620  LYS621  CYS622 
 ASP623  PHE694  ASN695  SER759  ASP760  ASP761  ALA762  ILE779  LEU786  VAL792 
 PHE793  MET794  SER795  GLU796  ALA797  LYS798  CYS799  TRP800  GLU811  SER814 

> <Gold.Protein.RotatedAtoms>
  150.6869  134.3165  159.4768 H   0  0  0  0  0  0  0  0  0  0  0  0  # atno 6907 bound_to 6896
  152.1045  134.9315  160.0578 H   0  0  0  0  0  0  0  0  0  0  0  0  # atno 6908 bound_to 6896
  152.0581  133.4015  159.4443 H   0  0  0  0  0  0  0  0  0  0  0  0  # atno 6909 bound_to 6896
  145.2342  140.9182  143.3187 H   0  0  0  0  0  0  0  0  0  0  0  0  # atno 7974 bound_to 7965
  155.5086  140.3476  155.4384 H   0  0  0  0  0  0  0  0  0  0  0  0  # atno 8008 bound_to 7997
  156.0865  140.1400  156.9674 H   0  0  0  0  0  0  0  0  0  0  0  0  # atno 8009 bound_to 7997
  154.4610  140.0935  156.6868 H   0  0  0  0  0  0  0  0  0  0  0  0  # atno 8010 bound_to 7997
  140.7235  143.5103  150.9758 H   0  0  0  0  0  0  0  0  0  0  0  0  # atno 10167 bound_to 10162
  157.5206  130.8562  149.8554 H   0  0  0  0  0  0  0  0  0  0  0  0  # atno 10718 bound_to 10713
  153.0637  135.6565  154.0403 H   0  0  0  0  0  0  0  0  0  0  0  0  # atno 10763 bound_to 10752
  154.0065  135.2932  155.3398 H   0  0  0  0  0  0  0  0  0  0  0  0  # atno 10764 bound_to 10752
  154.6986  135.5253  153.8563 H   0  0  0  0  0  0  0  0  0  0  0  0  # atno 10765 bound_to 10752
  139.9451  134.9631  156.8691 H   0  0  0  0  0  0  0  0  0  0  0  0  # atno 11005 bound_to 11000
  144.9648  139.3942  143.6338 LP  0  0  0  0  0  0  0  0  0  0  0  0  # atno 17320 bound_to 7965
  146.3345  139.8718  142.8839 LP  0  0  0  0  0  0  0  0  0  0  0  0  # atno 17321 bound_to 7965
  139.8816  143.7065  152.3156 LP  0  0  0  0  0  0  0  0  0  0  0  0  # atno 17342 bound_to 10162
  139.7349  144.7573  151.0743 LP  0  0  0  0  0  0  0  0  0  0  0  0  # atno 17343 bound_to 10162
  156.0351  130.3753  150.1582 LP  0  0  0  0  0  0  0  0  0  0  0  0  # atno 17370 bound_to 10713
  156.9770  130.9852  151.3446 LP  0  0  0  0  0  0  0  0  0  0  0  0  # atno 17371 bound_to 10713
  140.5856  134.0311  155.7480 LP  0  0  0  0  0  0  0  0  0  0  0  0  # atno 17394 bound_to 11000
  141.1098  133.9635  157.2931 LP  0  0  0  0  0  0  0  0  0  0  0  0  # atno 17395 bound_to 11000

$$$$
