AV-unprocessed.smi:1776|AV-procd|sdf|7174|dock10
  -GOLD-   22720 8413D 1   1.00000     0.00000
 Structure written by MMmdl.
 31 32  0  0  0  0  0  0  0  0  1 V2000
  151.4773  140.2922  155.1045 O   0  0  0  0  0  0  0  0  0  0  0  0
  150.3525  140.6912  155.4056 C   0  0  0  0  0  0  0  0  0  0  0  0
  150.0274  141.2879  156.5706 N   0  0  0  0  0  0  0  0  0  0  0  0
  150.8258  141.6053  157.6836 C   0  0  0  0  0  0  0  0  0  0  0  0
  150.7697  142.7668  158.3876 C   0  0  0  0  0  0  0  0  0  0  0  0
  151.6266  143.0170  159.5346 C   0  0  0  0  0  0  0  0  0  0  0  0
  151.6030  144.3497  160.2671 C   0  0  0  0  0  0  0  0  0  0  0  0
  150.3541  144.7453  160.5173 F   0  0  0  0  0  0  0  0  0  0  0  0
  152.2562  144.2680  161.4264 F   0  0  0  0  0  0  0  0  0  0  0  0
  152.1940  145.2844  159.5242 F   0  0  0  0  0  0  0  0  0  0  0  0
  152.4936  142.0408  159.8610 C   0  0  0  0  0  0  0  0  0  0  0  0
  152.5473  140.8383  159.1537 N   0  0  0  0  0  0  0  0  0  0  0  0
  151.7716  140.5499  158.0849 C   0  0  0  0  0  0  0  0  0  0  0  0
  151.8811  139.4651  157.5143 O   0  0  0  0  0  0  0  0  0  0  0  0
  149.1924  140.5326  154.4113 C   0  0  1  0  0  0  0  0  0  0  0  0
  148.8018  139.0576  154.1577 C   0  0  0  0  0  0  0  0  0  0  0  0
  147.6995  139.0103  153.2606 O   0  0  0  0  0  0  0  0  0  0  0  0
  146.5726  139.6959  153.7886 C   0  0  0  0  0  0  0  0  0  0  0  0
  146.9531  141.1656  154.0304 C   0  0  0  0  0  0  0  0  0  0  0  0
  148.0539  141.2175  154.9279 O   0  0  0  0  0  0  0  0  0  0  0  0
  153.2156  140.1500  159.4691 H   0  0  0  0  0  0  0  0  0  0  0  0
  149.0527  141.5315  156.6776 H   0  0  0  0  0  0  0  0  0  0  0  0
  150.0744  143.5473  158.1295 H   0  0  0  0  0  0  0  0  0  0  0  0
  153.2048  142.1033  160.6714 H   0  0  0  0  0  0  0  0  0  0  0  0
  149.4971  140.9980  153.4723 H   0  0  0  0  0  0  0  0  0  0  0  0
  149.6321  138.5104  153.7096 H   0  0  0  0  0  0  0  0  0  0  0  0
  148.5454  138.5489  155.0890 H   0  0  0  0  0  0  0  0  0  0  0  0
  145.7485  139.6289  153.0783 H   0  0  0  0  0  0  0  0  0  0  0  0
  146.2402  139.2218  154.7135 H   0  0  0  0  0  0  0  0  0  0  0  0
  147.2065  141.6625  153.0926 H   0  0  0  0  0  0  0  0  0  0  0  0
  146.1136  141.7076  154.4658 H   0  0  0  0  0  0  0  0  0  0  0  0
  1  2  2  0  0  0  0
  2  3  1  0  0  0  0
  2 15  1  0  0  0  0
  3  4  1  0  0  0  0
  3 22  1  0  0  0  0
  4 13  1  0  0  0  0
  4  5  2  0  0  0  0
  5  6  1  0  0  0  0
  5 23  1  0  0  0  0
  6  7  1  0  0  0  0
  6 11  2  0  0  0  0
  7  8  1  0  0  0  0
  7  9  1  0  0  0  0
  7 10  1  0  0  0  0
 11 12  1  0  0  0  0
 11 24  1  0  0  0  0
 12 21  1  0  0  0  0
 12 13  1  0  0  0  0
 13 14  2  0  0  0  0
 15 20  1  0  0  0  0
 15 16  1  0  0  0  0
 15 25  1  0  0  0  0
 16 17  1  0  0  0  0
 16 26  1  0  0  0  0
 16 27  1  0  0  0  0
 17 18  1  0  0  0  0
 18 19  1  0  0  0  0
 18 28  1  0  0  0  0
 18 29  1  0  0  0  0
 19 20  1  0  0  0  0
 19 30  1  0  0  0  0
 19 31  1  0  0  0  0
M  END
> <s_m_source_file>
AV-unprocessed.smi

> <i_m_source_file_index>
1776

> <i_lp_mmshare_version>
43012

> <i_f3d_flags>
0

> <s_epik_input>
TzFbQ0gyXVtDSDJdT1tDSDJdW0NASF0xQyg9TylbTkhdYzJbY0hdYyhDKEYpKEYpRilbY0hdW25IXWMyPU8=

> <s_epik_cmdline>
J2VwaWtfcHl0aG9uJywgJy1waCcsICc3LjAnLCAnLXRuJywgJzgnLCAnLW1hJywgJzIwMCcsICctbWV0YWxfYmluZGluZycsICctaW1hZScsICc8aW5maWxlLm1hZT4nLCAnLW9tYWUnLCAnPG91dGZpbGUubWFlPic=

> <r_lp_tautomer_probability>
0.999

> <r_epik_Ionization_Penalty>
0.0100875

> <r_epik_Ionization_Penalty_Charging>
0.0100873

> <r_epik_Ionization_Penalty_Neutral>
1.79075e-07

> <r_epik_State_Penalty>
0.00769562

> <r_epik_Charging_Adjusted_Penalty>
0.017783

> <i_epik_Tot_Q>
0

> <i_epik_Tot_abs_Q>
0

> <r_epik_Metal_State_Penalty>
0.325451

> <b_epik_Metal_Only>
0

> <s_lp_Force_Field>
OPLS_2005

> <r_lp_Energy>
23.697

> <b_lp_Chiralities_Consistent>
1

> <s_lp_Variant>
AV-unprocessed.smi:1776-2

> <Gold.Version>
5.8.1

> <Gold.Id.Protein>
6NUR|6NUR_protein|mol2

> <Gold.PLP.Fitness>
38.5112

> <Gold.PLP.PLP>
-38.0958

> <Gold.PLP.part.hbond>
-1.0000

> <Gold.PLP.part.metal>
0.0000

> <Gold.PLP.part.buried>
-7.1063

> <Gold.PLP.part.nonpolar>
-32.0640

> <Gold.PLP.part.repulsive>
1.0273

> <Gold.PLP.ligand.clash>
0.6334

> <Gold.PLP.ligand.torsion>
0.9892

> <Gold.PLP.Chemscore.Hbond>
1.0000

> <Gold.PLP.Chemscore.CHOScore>
0.0000

> <Gold.PLP.Chemscore.Metal>
0.0000

> <Gold.Chemscore.Hbonds>
donor molecule, donor type, donor heavy atom, donor atom, acceptor molecule, acceptor atom, score
      P1  H  7989  7998       L1     1  0.99

> <Gold.PLP.Chemscore.Internal.Correction>
0.0272

> <Gold.Rescore>
     Score         DG    S(hbond)    S(metal)    S(lipo)     H(rot)  DE(clash)    DE(int)     intcor
      9.63     -15.38       1.53        0.00      62.78       1.00       0.50       5.24       ----

> <Gold.Chemscore.Fitness>
9.6344

> <Gold.Chemscore.DG>
-15.3779

> <Gold.Chemscore.ZeroCoef>
-5.4800

> <Gold.Chemscore.Hbond>
1.5309

> <Gold.Chemscore.Metal>
0.0000

> <Gold.Chemscore.Lipo>
62.7755

> <Gold.Chemscore.Internal_Hbond>
0.0000

> <Gold.Chemscore.DEClash>
0.4987

> <Gold.Chemscore.DEInternal>
5.2447

> <Gold.Chemscore.Rot>
1.0000

> <Gold.Chemscore.Internal.Correction>
   9.000000E+99

> <Gold.Chemscore.Hbonds>
donor molecule, donor type, donor heavy atom, donor atom, acceptor molecule, acceptor atom, score
      P1  H  7989  7998       L1     1  0.32

> <Gold.Chemscore.Hbond.Weighted>
-5.1131

> <Gold.Chemscore.Metal.Weighted>
-0.0000

> <Gold.Chemscore.Lipo.Weighted>
-7.3447

> <Gold.Chemscore.Internal_Hbond.Weighted>
0.0000

> <Gold.Chemscore.DEClash.Weighted>
0.4987

> <Gold.Chemscore.DEInternal.Weighted>
5.2447

> <Gold.Chemscore.Rot.Weighted>
2.5600

> <Gold.Chemscore.Internal.Correction.Weighted>
   9.000000E+99

> <Gold.Protein.RotatedTorsions>
[ 6907 6896 6895 6894 ] final    6.65 input  -60.11 | X-H torsion
[ 7974 7965 7964 7962 ] final -148.48 input  175.53 | X-H torsion
[ 8008 7997 7996 7995 ] final   56.87 input   59.86 | X-H torsion
[ 10167 10162 10161 10158 ] final -116.65 input  -65.29 | X-H torsion
[ 10718 10713 10712 10709 ] final  -28.50 input   66.30 | X-H torsion
[ 10763 10752 10751 10750 ] final  175.95 input  -60.55 | X-H torsion
[ 11005 11000 10999 10996 ] final  -32.13 input  -57.11 | X-H torsion

> <Gold.Protein.ActiveResidues>
 VAL166  LYS551  ARG553  GLY616  TRP617  ASP618  TYR619  PRO620  LYS621  CYS622 
 ASP623  PHE694  ASN695  SER759  ASP760  ASP761  ALA762  ILE779  LEU786  VAL792 
 PHE793  MET794  SER795  GLU796  ALA797  LYS798  CYS799  TRP800  GLU811  SER814 

> <Gold.Protein.RotatedAtoms>
  151.6772  135.0967  160.0208 H   0  0  0  0  0  0  0  0  0  0  0  0  # atno 6907 bound_to 6896
  152.3857  133.6603  159.6205 H   0  0  0  0  0  0  0  0  0  0  0  0  # atno 6908 bound_to 6896
  150.7783  133.8956  159.3367 H   0  0  0  0  0  0  0  0  0  0  0  0  # atno 6909 bound_to 6896
  144.8027  140.5191  143.5696 H   0  0  0  0  0  0  0  0  0  0  0  0  # atno 7974 bound_to 7965
  155.5245  140.3480  155.4413 H   0  0  0  0  0  0  0  0  0  0  0  0  # atno 8008 bound_to 7997
  156.0761  140.1375  156.9796 H   0  0  0  0  0  0  0  0  0  0  0  0  # atno 8009 bound_to 7997
  154.4554  140.0955  156.6718 H   0  0  0  0  0  0  0  0  0  0  0  0  # atno 8010 bound_to 7997
  140.0769  143.4824  152.1948 H   0  0  0  0  0  0  0  0  0  0  0  0  # atno 10167 bound_to 10162
  156.4245  130.4433  149.7160 H   0  0  0  0  0  0  0  0  0  0  0  0  # atno 10718 bound_to 10713
  154.4745  135.2772  155.1617 H   0  0  0  0  0  0  0  0  0  0  0  0  # atno 10763 bound_to 10752
  154.3353  135.6181  153.5574 H   0  0  0  0  0  0  0  0  0  0  0  0  # atno 10764 bound_to 10752
  152.9868  135.5775  154.5133 H   0  0  0  0  0  0  0  0  0  0  0  0  # atno 10765 bound_to 10752
  140.9526  133.7211  156.1244 H   0  0  0  0  0  0  0  0  0  0  0  0  # atno 11005 bound_to 11000
  145.5514  139.1477  143.3392 LP  0  0  0  0  0  0  0  0  0  0  0  0  # atno 17320 bound_to 7965
  146.2311  140.5652  142.8975 LP  0  0  0  0  0  0  0  0  0  0  0  0  # atno 17321 bound_to 7965
  139.5803  144.7507  151.3658 LP  0  0  0  0  0  0  0  0  0  0  0  0  # atno 17342 bound_to 10162
  140.7097  143.7421  150.7545 LP  0  0  0  0  0  0  0  0  0  0  0  0  # atno 17343 bound_to 10162
  156.4088  130.7711  151.2723 LP  0  0  0  0  0  0  0  0  0  0  0  0  # atno 17370 bound_to 10713
  157.7508  131.0218  150.3764 LP  0  0  0  0  0  0  0  0  0  0  0  0  # atno 17371 bound_to 10713
  140.7581  134.3970  157.5530 LP  0  0  0  0  0  0  0  0  0  0  0  0  # atno 17394 bound_to 11000
  139.8852  134.8943  156.2656 LP  0  0  0  0  0  0  0  0  0  0  0  0  # atno 17395 bound_to 11000

$$$$
