AV-unprocessed.smi:2235|AV-procd|sdf|9044|dock9
  -GOLD-   2272012253D 1   1.00000     0.00000
 Structure written by MMmdl.
 36 37  0  0  0  0  0  0  0  0  1 V2000
  152.6179  140.4274  157.0958 O   0  0  0  0  0  0  0  0  0  0  0  0
  151.4640  140.8097  157.2901 C   0  0  0  0  0  0  0  0  0  0  0  0
  150.2932  139.8518  157.0676 C   0  0  0  0  0  0  0  0  0  0  0  0
  149.4594  140.2915  155.9635 N   0  0  0  0  0  0  0  0  0  0  0  0
  148.7467  141.4660  155.8426 C   0  0  0  0  0  0  0  0  0  0  0  0
  148.1119  141.4399  154.6330 C   0  0  0  0  0  0  0  0  0  0  0  0
  147.2116  142.4764  154.0197 C   0  0  0  0  0  0  0  0  0  0  0  0
  145.9778  142.7419  154.8928 C   0  0  0  0  0  0  0  0  0  0  0  0
  145.2023  141.5674  154.9988 O   0  0  0  0  0  0  0  0  0  0  0  0
  148.5064  140.1884  154.0800 C   0  0  0  0  0  0  0  0  0  0  0  0
  149.3112  139.5040  154.8765 N   0  0  0  0  0  0  0  0  0  0  0  0
  151.1532  142.0510  157.6942 N   0  0  0  0  0  0  0  0  0  0  0  0
  152.1191  143.1126  157.9623 C   0  0  0  0  0  0  0  0  0  0  0  0
  153.0292  142.7293  159.1428 C   0  0  0  0  0  0  0  0  0  0  0  0
  152.5799  143.5989  160.3169 C   0  0  0  0  0  0  0  0  0  0  0  0
  152.0999  144.8892  159.6602 C   0  0  0  0  0  0  0  0  0  0  0  0
  151.4232  144.4294  158.3674 C   0  0  0  0  0  0  0  0  0  0  0  0
  150.6637  138.8443  156.8712 H   0  0  0  0  0  0  0  0  0  0  0  0
  149.6801  139.7972  157.9683 H   0  0  0  0  0  0  0  0  0  0  0  0
  148.7512  142.2158  156.6202 H   0  0  0  0  0  0  0  0  0  0  0  0
  147.7547  143.4102  153.8698 H   0  0  0  0  0  0  0  0  0  0  0  0
  146.8874  142.1596  153.0274 H   0  0  0  0  0  0  0  0  0  0  0  0
  146.2740  143.0624  155.8921 H   0  0  0  0  0  0  0  0  0  0  0  0
  145.3641  143.5345  154.4633 H   0  0  0  0  0  0  0  0  0  0  0  0
  144.9018  141.3267  154.1357 H   0  0  0  0  0  0  0  0  0  0  0  0
  148.2320  139.7596  153.1275 H   0  0  0  0  0  0  0  0  0  0  0  0
  150.1777  142.2742  157.8312 H   0  0  0  0  0  0  0  0  0  0  0  0
  152.7387  143.2687  157.0772 H   0  0  0  0  0  0  0  0  0  0  0  0
  153.0035  141.6658  159.3845 H   0  0  0  0  0  0  0  0  0  0  0  0
  154.0625  142.9746  158.8930 H   0  0  0  0  0  0  0  0  0  0  0  0
  151.7487  143.1182  160.8347 H   0  0  0  0  0  0  0  0  0  0  0  0
  153.3750  143.7668  161.0440 H   0  0  0  0  0  0  0  0  0  0  0  0
  151.4319  145.4645  160.3015 H   0  0  0  0  0  0  0  0  0  0  0  0
  152.9579  145.5193  159.4217 H   0  0  0  0  0  0  0  0  0  0  0  0
  151.4894  145.1851  157.5842 H   0  0  0  0  0  0  0  0  0  0  0  0
  150.3626  144.2620  158.5619 H   0  0  0  0  0  0  0  0  0  0  0  0
  1  2  2  0  0  0  0
  2  3  1  0  0  0  0
  2 12  1  0  0  0  0
  3  4  1  0  0  0  0
  3 18  1  0  0  0  0
  3 19  1  0  0  0  0
  4 11  1  0  0  0  0
  4  5  1  0  0  0  0
  5  6  2  0  0  0  0
  5 20  1  0  0  0  0
  6  7  1  0  0  0  0
  6 10  1  0  0  0  0
  7  8  1  0  0  0  0
  7 21  1  0  0  0  0
  7 22  1  0  0  0  0
  8  9  1  0  0  0  0
  8 23  1  0  0  0  0
  8 24  1  0  0  0  0
  9 25  1  0  0  0  0
 10 11  2  0  0  0  0
 10 26  1  0  0  0  0
 12 13  1  0  0  0  0
 12 27  1  0  0  0  0
 13 17  1  0  0  0  0
 13 14  1  0  0  0  0
 13 28  1  0  0  0  0
 14 15  1  0  0  0  0
 14 29  1  0  0  0  0
 14 30  1  0  0  0  0
 15 16  1  0  0  0  0
 15 31  1  0  0  0  0
 15 32  1  0  0  0  0
 16 17  1  0  0  0  0
 16 33  1  0  0  0  0
 16 34  1  0  0  0  0
 17 35  1  0  0  0  0
 17 36  1  0  0  0  0
M  END
> <s_m_source_file>
AV-unprocessed.smi

> <i_m_source_file_index>
2235

> <i_lp_mmshare_version>
43012

> <i_f3d_flags>
0

> <s_epik_input>
W0NIMl0xW0NIMl1bQ0gyXVtDSDJdW0NIXTFbTkhdQyg9TylbQ0gyXW4yW2NIXWMoW2NIXW4yKVtDSDJdW0NIMl1bT0hd

> <s_epik_cmdline>
J2VwaWtfcHl0aG9uJywgJy1waCcsICc3LjAnLCAnLXRuJywgJzgnLCAnLW1hJywgJzIwMCcsICctbWV0YWxfYmluZGluZycsICctaW1hZScsICc8aW5maWxlLm1hZT4nLCAnLW9tYWUnLCAnPG91dGZpbGUubWFlPic=

> <r_lp_tautomer_probability>
1

> <r_epik_Ionization_Penalty>
3.35381e-05

> <r_epik_Ionization_Penalty_Charging>
0

> <r_epik_Ionization_Penalty_Neutral>
3.35381e-05

> <r_epik_State_Penalty>
-0

> <r_epik_Charging_Adjusted_Penalty>
0

> <i_epik_Tot_Q>
0

> <i_epik_Tot_abs_Q>
0

> <r_epik_Metal_State_Penalty>
-0

> <b_epik_Metal_Only>
0

> <s_lp_Force_Field>
OPLS_2005

> <r_lp_Energy>
18.0157

> <b_lp_Chiralities_Consistent>
1

> <s_lp_Variant>
AV-unprocessed.smi:2235-1

> <Gold.Version>
5.8.1

> <Gold.Id.Protein>
6NUR|6NUR_protein|mol2

> <Gold.PLP.Fitness>
45.8383

> <Gold.PLP.PLP>
-35.7520

> <Gold.PLP.part.hbond>
-2.0000

> <Gold.PLP.part.metal>
0.0000

> <Gold.PLP.part.buried>
-2.2742

> <Gold.PLP.part.nonpolar>
-29.8416

> <Gold.PLP.part.repulsive>
0.1177

> <Gold.PLP.ligand.clash>
0.0000

> <Gold.PLP.ligand.torsion>
0.0458

> <Gold.PLP.Chemscore.Hbond>
1.8284

> <Gold.PLP.Chemscore.CHOScore>
1.5521

> <Gold.PLP.Chemscore.Metal>
0.0000

> <Gold.Chemscore.Hbonds>
donor molecule, donor type, donor heavy atom, donor atom, acceptor molecule, acceptor atom, score
      L1  H     9    25       P1 10175  0.55
      P1  H  7997  8010       L1     1  0.91
      L1  C     5    20       P1  8028  0.41
      L1  C    10    26       P1  7957  0.85

> <Gold.PLP.Chemscore.Internal.Correction>
0.0364

> <Gold.Rescore>
     Score         DG    S(hbond)    S(metal)    S(lipo)     H(rot)  DE(clash)    DE(int)     intcor
     14.66     -16.49       1.82        0.00      95.85       2.46       0.20       1.64       ----

> <Gold.Chemscore.Fitness>
14.6609

> <Gold.Chemscore.DG>
-16.4945

> <Gold.Chemscore.ZeroCoef>
-5.4800

> <Gold.Chemscore.Hbond>
1.8244

> <Gold.Chemscore.Metal>
0.0000

> <Gold.Chemscore.Lipo>
95.8451

> <Gold.Chemscore.Internal_Hbond>
0.0000

> <Gold.Chemscore.DEClash>
0.1969

> <Gold.Chemscore.DEInternal>
1.6368

> <Gold.Chemscore.Rot>
2.4581

> <Gold.Chemscore.Internal.Correction>
   9.000000E+99

> <Gold.Chemscore.Hbonds>
donor molecule, donor type, donor heavy atom, donor atom, acceptor molecule, acceptor atom, score
      L1  H     9    25       P1 10175  0.31
      P1  H  7997  8010       L1     1  0.88

> <Gold.Chemscore.Hbond.Weighted>
-6.0935

> <Gold.Chemscore.Metal.Weighted>
-0.0000

> <Gold.Chemscore.Lipo.Weighted>
-11.2139

> <Gold.Chemscore.Internal_Hbond.Weighted>
0.0000

> <Gold.Chemscore.DEClash.Weighted>
0.1969

> <Gold.Chemscore.DEInternal.Weighted>
1.6368

> <Gold.Chemscore.Rot.Weighted>
6.2928

> <Gold.Chemscore.Internal.Correction.Weighted>
   9.000000E+99

> <Gold.Protein.RotatedTorsions>
[ 6907 6896 6895 6894 ] final   94.92 input  -60.11 | X-H torsion
[ 7974 7965 7964 7962 ] final  -87.69 input  175.53 | X-H torsion
[ 8008 7997 7996 7995 ] final   61.39 input   59.86 | X-H torsion
[ 10167 10162 10161 10158 ] final  117.10 input  -65.29 | X-H torsion
[ 10718 10713 10712 10709 ] final   57.75 input   66.30 | X-H torsion
[ 10763 10752 10751 10750 ] final   64.45 input  -60.55 | X-H torsion
[ 11005 11000 10999 10996 ] final -174.48 input  -57.11 | X-H torsion

> <Gold.Protein.ActiveResidues>
 VAL166  LYS551  ARG553  GLY616  TRP617  ASP618  TYR619  PRO620  LYS621  CYS622 
 ASP623  PHE694  ASN695  SER759  ASP760  ASP761  ALA762  ILE779  LEU786  VAL792 
 PHE793  MET794  SER795  GLU796  ALA797  LYS798  CYS799  TRP800  GLU811  SER814 

> <Gold.Protein.RotatedAtoms>
  152.5447  134.1119  159.8361 H   0  0  0  0  0  0  0  0  0  0  0  0  # atno 6907 bound_to 6896
  151.1185  133.5114  159.2610 H   0  0  0  0  0  0  0  0  0  0  0  0  # atno 6908 bound_to 6896
  151.1806  135.0368  159.8845 H   0  0  0  0  0  0  0  0  0  0  0  0  # atno 6909 bound_to 6896
  145.4632  140.9560  143.1958 H   0  0  0  0  0  0  0  0  0  0  0  0  # atno 7974 bound_to 7965
  155.5976  140.3493  155.4584 H   0  0  0  0  0  0  0  0  0  0  0  0  # atno 8008 bound_to 7997
  156.0253  140.1262  157.0340 H   0  0  0  0  0  0  0  0  0  0  0  0  # atno 8009 bound_to 7997
  154.4331  140.1054  156.6008 H   0  0  0  0  0  0  0  0  0  0  0  0  # atno 8010 bound_to 7997
  139.6201  144.7099  151.2652 H   0  0  0  0  0  0  0  0  0  0  0  0  # atno 10167 bound_to 10162
  157.5540  130.8786  149.9007 H   0  0  0  0  0  0  0  0  0  0  0  0  # atno 10718 bound_to 10713
  153.0056  135.5392  154.6512 H   0  0  0  0  0  0  0  0  0  0  0  0  # atno 10763 bound_to 10752
  154.5743  135.2844  155.0798 H   0  0  0  0  0  0  0  0  0  0  0  0  # atno 10764 bound_to 10752
  154.1952  135.6493  153.5123 H   0  0  0  0  0  0  0  0  0  0  0  0  # atno 10765 bound_to 10752
  140.4740  134.6138  157.4893 H   0  0  0  0  0  0  0  0  0  0  0  0  # atno 11005 bound_to 11000
  144.7990  139.6178  143.7080 LP  0  0  0  0  0  0  0  0  0  0  0  0  # atno 17320 bound_to 7965
  146.2439  139.6058  142.9473 LP  0  0  0  0  0  0  0  0  0  0  0  0  # atno 17321 bound_to 7965
  140.7376  143.6671  150.8113 LP  0  0  0  0  0  0  0  0  0  0  0  0  # atno 17342 bound_to 10162
  140.0281  143.5472  152.2772 LP  0  0  0  0  0  0  0  0  0  0  0  0  # atno 17343 bound_to 10162
  156.0602  130.3701  150.1000 LP  0  0  0  0  0  0  0  0  0  0  0  0  # atno 17370 bound_to 10713
  156.9170  130.9670  151.3554 LP  0  0  0  0  0  0  0  0  0  0  0  0  # atno 17371 bound_to 10713
  139.9867  134.7050  155.9761 LP  0  0  0  0  0  0  0  0  0  0  0  0  # atno 17394 bound_to 11000
  141.1563  133.6542  156.4172 LP  0  0  0  0  0  0  0  0  0  0  0  0  # atno 17395 bound_to 11000

$$$$
