AV-unprocessed.smi:234|AV-procd|sdf|1785|dock5
  -GOLD-   2262020333D 1   1.00000     0.00000
 Structure written by MMmdl.
 59 62  0  0  0  0  0  0  0  0  1 V2000
  153.1668  144.1954  158.2146 C   0  0  0  0  0  0  0  0  0  0  0  0
  152.0082  143.6848  157.3554 C   0  0  0  0  0  0  0  0  0  0  0  0
  152.0467  142.2677  157.3281 O   0  0  0  0  0  0  0  0  0  0  0  0
  151.0215  141.7019  156.5254 C   0  0  2  0  0  0  0  0  0  0  0  0
  149.6339  141.6921  157.1809 C   0  0  0  0  0  0  0  0  0  0  0  0
  149.4726  140.2561  156.6640 C   0  0  1  0  0  0  0  0  0  0  0  0
  148.6894  140.1382  155.4171 N   0  0  0  0  0  0  0  0  0  0  0  0
  149.0830  140.7478  154.1426 C   0  0  0  0  0  0  0  0  0  0  0  0
  147.8859  139.0441  155.3361 C   0  0  0  0  0  0  0  0  0  0  0  0
  147.6434  138.3141  156.4585 N   0  0  0  0  0  0  0  0  0  0  0  0
  146.8391  137.2486  156.4149 C   0  0  0  0  0  0  0  0  0  0  0  0
  146.1846  136.7404  155.3703 N   0  0  0  0  0  0  0  0  0  0  0  0
  146.4318  137.4568  154.2368 C   0  0  0  0  0  0  0  0  0  0  0  0
  147.2658  138.6066  154.1292 C   0  0  0  0  0  0  0  0  0  0  0  0
  147.2928  139.0422  152.8089 N   0  0  0  0  0  0  0  0  0  0  0  0
  146.5062  138.2138  152.1793 C   0  0  0  0  0  0  0  0  0  0  0  0
  145.9367  137.2368  152.9630 N   0  0  0  0  0  0  0  0  0  0  0  0
  145.0182  136.1952  152.5286 C   0  0  0  0  0  0  0  0  0  0  0  0
  145.7211  135.0279  151.7863 C   0  0  1  0  0  0  0  0  0  0  0  0
  146.4139  135.5673  150.6732 O   0  0  0  0  0  0  0  0  0  0  0  0
  146.7370  134.2832  152.6500 C   0  0  0  0  0  0  0  0  0  0  0  0
  146.7086  132.8734  152.0809 C   0  0  0  0  0  0  0  0  0  0  0  0
  145.3306  132.6845  151.8147 O   0  0  0  0  0  0  0  0  0  0  0  0
  144.8024  133.8875  151.2629 C   0  0  1  0  0  0  0  0  0  0  0  0
  143.3145  133.9657  151.6382 C   0  0  0  0  0  0  0  0  0  0  0  0
  151.0211  140.1536  156.5375 C   0  0  0  0  0  0  0  0  0  0  0  0
  151.6279  139.4492  155.3178 C   0  0  0  0  0  0  0  0  0  0  0  0
  151.6816  139.5028  157.7613 C   0  0  0  0  0  0  0  0  0  0  0  0
  153.1684  145.2846  158.2588 H   0  0  0  0  0  0  0  0  0  0  0  0
  154.1262  143.8755  157.8072 H   0  0  0  0  0  0  0  0  0  0  0  0
  153.0932  143.8187  159.2349 H   0  0  0  0  0  0  0  0  0  0  0  0
  151.0601  144.0316  157.7686 H   0  0  0  0  0  0  0  0  0  0  0  0
  152.0926  144.0826  156.3431 H   0  0  0  0  0  0  0  0  0  0  0  0
  151.0116  142.1054  155.5116 H   0  0  0  0  0  0  0  0  0  0  0  0
  149.6863  141.7336  158.2699 H   0  0  0  0  0  0  0  0  0  0  0  0
  148.9286  142.4309  156.8031 H   0  0  0  0  0  0  0  0  0  0  0  0
  149.1031  139.6189  157.4651 H   0  0  0  0  0  0  0  0  0  0  0  0
  148.2210  140.8181  153.4779 H   0  0  0  0  0  0  0  0  0  0  0  0
  149.8478  140.1655  153.6319 H   0  0  0  0  0  0  0  0  0  0  0  0
  149.4600  141.7606  154.2682 H   0  0  0  0  0  0  0  0  0  0  0  0
  146.6978  136.7304  157.3519 H   0  0  0  0  0  0  0  0  0  0  0  0
  146.3149  138.2977  151.1194 H   0  0  0  0  0  0  0  0  0  0  0  0
  144.4974  135.8274  153.4132 H   0  0  0  0  0  0  0  0  0  0  0  0
  144.2604  136.6527  151.8913 H   0  0  0  0  0  0  0  0  0  0  0  0
  147.2790  135.8234  150.9541 H   0  0  0  0  0  0  0  0  0  0  0  0
  147.7328  134.7290  152.6465 H   0  0  0  0  0  0  0  0  0  0  0  0
  146.3939  134.2463  153.6848 H   0  0  0  0  0  0  0  0  0  0  0  0
  147.2793  132.8092  151.1532 H   0  0  0  0  0  0  0  0  0  0  0  0
  147.0914  132.1278  152.7779 H   0  0  0  0  0  0  0  0  0  0  0  0
  144.8779  133.8080  150.1766 H   0  0  0  0  0  0  0  0  0  0  0  0
  142.8474  134.8626  151.2314 H   0  0  0  0  0  0  0  0  0  0  0  0
  143.1724  133.9651  152.7191 H   0  0  0  0  0  0  0  0  0  0  0  0
  142.7736  133.1077  151.2386 H   0  0  0  0  0  0  0  0  0  0  0  0
  151.3112  138.4075  155.2602 H   0  0  0  0  0  0  0  0  0  0  0  0
  152.7177  139.4567  155.3529 H   0  0  0  0  0  0  0  0  0  0  0  0
  151.3509  139.9263  154.3808 H   0  0  0  0  0  0  0  0  0  0  0  0
  151.4839  138.4309  157.7975 H   0  0  0  0  0  0  0  0  0  0  0  0
  151.3133  139.9263  158.6962 H   0  0  0  0  0  0  0  0  0  0  0  0
  152.7639  139.6376  157.7549 H   0  0  0  0  0  0  0  0  0  0  0  0
  1  2  1  0  0  0  0
  1 29  1  0  0  0  0
  1 30  1  0  0  0  0
  1 31  1  0  0  0  0
  2  3  1  0  0  0  0
  2 32  1  0  0  0  0
  2 33  1  0  0  0  0
  3  4  1  0  0  0  0
  4 26  1  0  0  0  0
  4  5  1  0  0  0  0
  4 34  1  0  0  0  0
  5  6  1  0  0  0  0
  5 35  1  0  0  0  0
  5 36  1  0  0  0  0
  6  7  1  0  0  0  0
  6 26  1  0  0  0  0
  6 37  1  0  0  0  0
  7  8  1  0  0  0  0
  7  9  1  0  0  0  0
  8 38  1  0  0  0  0
  8 39  1  0  0  0  0
  8 40  1  0  0  0  0
  9 14  1  0  0  0  0
  9 10  2  0  0  0  0
 10 11  1  0  0  0  0
 11 12  2  0  0  0  0
 11 41  1  0  0  0  0
 12 13  1  0  0  0  0
 13 17  1  0  0  0  0
 13 14  2  0  0  0  0
 14 15  1  0  0  0  0
 15 16  2  0  0  0  0
 16 17  1  0  0  0  0
 16 42  1  0  0  0  0
 17 18  1  0  0  0  0
 18 19  1  0  0  0  0
 18 43  1  0  0  0  0
 18 44  1  0  0  0  0
 19 24  1  0  0  0  0
 19 20  1  0  0  0  0
 19 21  1  0  0  0  0
 20 45  1  0  0  0  0
 21 22  1  0  0  0  0
 21 46  1  0  0  0  0
 21 47  1  0  0  0  0
 22 23  1  0  0  0  0
 22 48  1  0  0  0  0
 22 49  1  0  0  0  0
 23 24  1  0  0  0  0
 24 25  1  0  0  0  0
 24 50  1  0  0  0  0
 25 51  1  0  0  0  0
 25 52  1  0  0  0  0
 25 53  1  0  0  0  0
 26 27  1  0  0  0  0
 26 28  1  0  0  0  0
 27 54  1  0  0  0  0
 27 55  1  0  0  0  0
 27 56  1  0  0  0  0
 28 57  1  0  0  0  0
 28 58  1  0  0  0  0
 28 59  1  0  0  0  0
M  END
> <s_m_source_file>
AV-unprocessed.smi

> <i_m_source_file_index>
234

> <i_lp_mmshare_version>
43012

> <i_f3d_flags>
0

> <s_epik_input>
W0NIM11bQ0gyXU9bQ0BASF0oQzEoW0NIM10pW0NIM10pW0NIMl1bQ0BIXTFOKFtDSDNdKWMobltjSF1uMiljKGMyMyluW2NIXW4zW0NIMl1bQ0BAXTQoW09IXSlbQ0gyXVtDSDJdT1tDQEhdNFtDSDNd

> <s_epik_cmdline>
J2VwaWtfcHl0aG9uJywgJy1waCcsICc3LjAnLCAnLXRuJywgJzgnLCAnLW1hJywgJzIwMCcsICctbWV0YWxfYmluZGluZycsICctaW1hZScsICc8aW5maWxlLm1hZT4nLCAnLW9tYWUnLCAnPG91dGZpbGUubWFlPic=

> <r_lp_tautomer_probability>
1

> <r_epik_Ionization_Penalty>
0.00349132

> <r_epik_Ionization_Penalty_Charging>
0

> <r_epik_Ionization_Penalty_Neutral>
0.00349132

> <r_epik_State_Penalty>
0.00242418

> <r_epik_Charging_Adjusted_Penalty>
0.00242418

> <i_epik_Tot_Q>
0

> <i_epik_Tot_abs_Q>
0

> <r_epik_Metal_State_Penalty>
-0

> <b_epik_Metal_Only>
0

> <s_lp_Force_Field>
OPLS_2005

> <r_lp_Energy>
52.3915

> <b_lp_Chiralities_Consistent>
1

> <s_lp_Variant>
AV-unprocessed.smi:234-1

> <Gold.Version>
5.8.1

> <Gold.Id.Protein>
6NUR|6NUR_protein|mol2

> <Gold.PLP.Fitness>
41.1152

> <Gold.PLP.PLP>
-35.5725

> <Gold.PLP.part.hbond>
-1.7784

> <Gold.PLP.part.metal>
0.0000

> <Gold.PLP.part.buried>
0.3368

> <Gold.PLP.part.nonpolar>
-35.2484

> <Gold.PLP.part.repulsive>
0.4592

> <Gold.PLP.ligand.clash>
0.0000

> <Gold.PLP.ligand.torsion>
0.6873

> <Gold.PLP.Chemscore.Hbond>
0.9750

> <Gold.PLP.Chemscore.CHOScore>
0.9912

> <Gold.PLP.Chemscore.Metal>
0.0000

> <Gold.Chemscore.Hbonds>
donor molecule, donor type, donor heavy atom, donor atom, acceptor molecule, acceptor atom, score
      L1  H    20    45       P1  7948  1.00
      L1  C    16    42       P1 10171  0.38

> <Gold.PLP.Chemscore.Internal.Correction>
1.0186

> <Gold.Rescore>
     Score         DG    S(hbond)    S(metal)    S(lipo)     H(rot)  DE(clash)    DE(int)     intcor
     10.98     -13.60       0.99        0.00      92.94       2.37       0.40       2.22       ----

> <Gold.Chemscore.Fitness>
10.9767

> <Gold.Chemscore.DG>
-13.6029

> <Gold.Chemscore.ZeroCoef>
-5.4800

> <Gold.Chemscore.Hbond>
0.9910

> <Gold.Chemscore.Metal>
0.0000

> <Gold.Chemscore.Lipo>
92.9397

> <Gold.Chemscore.Internal_Hbond>
0.0000

> <Gold.Chemscore.DEClash>
0.4029

> <Gold.Chemscore.DEInternal>
2.2233

> <Gold.Chemscore.Rot>
2.3676

> <Gold.Chemscore.Internal.Correction>
   9.000000E+99

> <Gold.Chemscore.Hbonds>
donor molecule, donor type, donor heavy atom, donor atom, acceptor molecule, acceptor atom, score
      L1  H    20    45       P1  7948  0.82

> <Gold.Chemscore.Hbond.Weighted>
-3.3100

> <Gold.Chemscore.Metal.Weighted>
-0.0000

> <Gold.Chemscore.Lipo.Weighted>
-10.8739

> <Gold.Chemscore.Internal_Hbond.Weighted>
0.0000

> <Gold.Chemscore.DEClash.Weighted>
0.4029

> <Gold.Chemscore.DEInternal.Weighted>
2.2233

> <Gold.Chemscore.Rot.Weighted>
6.0610

> <Gold.Chemscore.Internal.Correction.Weighted>
   9.000000E+99

> <Gold.Protein.RotatedTorsions>
[ 6907 6896 6895 6894 ] final  -14.51 input  -60.11 | X-H torsion
[ 7974 7965 7964 7962 ] final -170.03 input  175.53 | X-H torsion
[ 8008 7997 7996 7995 ] final -128.36 input   59.86 | X-H torsion
[ 10167 10162 10161 10158 ] final  -28.02 input  -65.29 | X-H torsion
[ 10718 10713 10712 10709 ] final   72.31 input   66.30 | X-H torsion
[ 10763 10752 10751 10750 ] final   26.43 input  -60.55 | X-H torsion
[ 11005 11000 10999 10996 ] final -176.86 input  -57.11 | X-H torsion

> <Gold.Protein.ActiveResidues>
 VAL166  LYS551  ARG553  GLY616  TRP617  ASP618  TYR619  PRO620  LYS621  CYS622 
 ASP623  PHE694  ASN695  SER759  ASP760  ASP761  ALA762  ILE779  LEU786  VAL792 
 PHE793  MET794  SER795  GLU796  ALA797  LYS798  CYS799  TRP800  GLU811  SER814 

> <Gold.Protein.RotatedAtoms>
  151.3383  135.0858  159.9362 H   0  0  0  0  0  0  0  0  0  0  0  0  # atno 6907 bound_to 6896
  152.5218  133.9473  159.7665 H   0  0  0  0  0  0  0  0  0  0  0  0  # atno 6908 bound_to 6896
  150.9825  133.6178  159.2750 H   0  0  0  0  0  0  0  0  0  0  0  0  # atno 6909 bound_to 6896
  144.7176  140.2133  143.6325 H   0  0  0  0  0  0  0  0  0  0  0  0  # atno 7974 bound_to 7965
  155.2614  140.0436  157.2997 H   0  0  0  0  0  0  0  0  0  0  0  0  # atno 8008 bound_to 7997
  154.5708  140.2373  155.8163 H   0  0  0  0  0  0  0  0  0  0  0  0  # atno 8009 bound_to 7997
  156.2121  140.2995  155.9764 H   0  0  0  0  0  0  0  0  0  0  0  0  # atno 8010 bound_to 7997
  140.7273  143.4045  151.1209 H   0  0  0  0  0  0  0  0  0  0  0  0  # atno 10167 bound_to 10162
  157.6495  130.9572  150.0911 H   0  0  0  0  0  0  0  0  0  0  0  0  # atno 10718 bound_to 10713
  153.0623  135.6560  154.0435 H   0  0  0  0  0  0  0  0  0  0  0  0  # atno 10763 bound_to 10752
  154.0099  135.2929  155.3395 H   0  0  0  0  0  0  0  0  0  0  0  0  # atno 10764 bound_to 10752
  154.6966  135.5261  153.8536 H   0  0  0  0  0  0  0  0  0  0  0  0  # atno 10765 bound_to 10752
  140.4474  134.6375  157.4785 H   0  0  0  0  0  0  0  0  0  0  0  0  # atno 11005 bound_to 11000
  145.8570  139.2203  143.1739 LP  0  0  0  0  0  0  0  0  0  0  0  0  # atno 17320 bound_to 7965
  146.0208  140.8349  142.9924 LP  0  0  0  0  0  0  0  0  0  0  0  0  # atno 17321 bound_to 7965
  139.7669  143.8551  152.3112 LP  0  0  0  0  0  0  0  0  0  0  0  0  # atno 17342 bound_to 10162
  139.8457  144.7189  150.9276 LP  0  0  0  0  0  0  0  0  0  0  0  0  # atno 17343 bound_to 10162
  156.1860  130.3652  149.8973 LP  0  0  0  0  0  0  0  0  0  0  0  0  # atno 17370 bound_to 10713
  156.6913  130.8897  151.3588 LP  0  0  0  0  0  0  0  0  0  0  0  0  # atno 17371 bound_to 10713
  140.0029  134.6808  155.9501 LP  0  0  0  0  0  0  0  0  0  0  0  0  # atno 17394 bound_to 11000
  141.1679  133.6537  156.4545 LP  0  0  0  0  0  0  0  0  0  0  0  0  # atno 17395 bound_to 11000

$$$$
