AV-unprocessed.smi:605|AV-procd|sdf|3039|dock2
  -GOLD-   2262023553D 1   1.00000     0.00000
 Structure written by MMmdl.
 35 36  0  0  0  0  0  0  0  0  1 V2000
  144.7295  132.6480  149.4275 C   0  0  0  0  0  0  0  0  0  0  0  0
  145.6375  133.1696  150.5511 C   0  0  0  0  0  0  0  0  0  0  0  0
  145.8303  132.1578  151.6898 C   0  0  0  0  0  0  0  0  0  0  0  0
  145.1996  134.5095  151.0554 C   0  0  0  0  0  0  0  0  0  0  0  0
  145.9756  135.2912  151.8178 N   0  0  0  0  0  0  0  0  0  0  0  0
  145.3534  136.4838  152.1552 N   0  0  0  0  0  0  0  0  0  0  0  0
  144.1176  136.5701  151.6429 C   0  0  0  0  0  0  0  0  0  0  0  0
  143.2483  137.6877  151.8093 N   0  0  0  0  0  0  0  0  0  0  0  0
  141.9092  137.8089  151.6848 C   0  0  0  0  0  0  0  0  0  0  0  0
  141.2136  136.8394  151.3873 O   0  0  0  0  0  0  0  0  0  0  0  0
  141.3995  139.0298  151.9170 N   0  0  0  0  0  0  0  0  0  0  0  0
  139.9897  139.4065  151.8500 C   0  0  0  0  0  0  0  0  0  0  0  0
  139.1437  138.5262  152.7915 C   0  0  0  0  0  0  0  0  0  0  0  0
  138.0156  137.9449  151.9356 C   0  0  0  0  0  0  0  0  0  0  0  0
  138.5903  137.9024  150.5233 C   0  0  0  0  0  0  0  0  0  0  0  0
  139.4399  139.1692  150.4324 C   0  0  0  0  0  0  0  0  0  0  0  0
  143.6202  135.1896  150.6791 S   0  0  0  0  0  0  0  0  0  0  0  0
  144.6894  133.3526  148.5963 H   0  0  0  0  0  0  0  0  0  0  0  0
  143.7099  132.4914  149.7815 H   0  0  0  0  0  0  0  0  0  0  0  0
  145.0936  131.6974  149.0373 H   0  0  0  0  0  0  0  0  0  0  0  0
  146.6214  133.3167  150.1038 H   0  0  0  0  0  0  0  0  0  0  0  0
  146.5480  132.5259  152.4237 H   0  0  0  0  0  0  0  0  0  0  0  0
  146.2049  131.2068  151.3104 H   0  0  0  0  0  0  0  0  0  0  0  0
  144.8922  131.9617  152.2100 H   0  0  0  0  0  0  0  0  0  0  0  0
  143.7175  138.5387  152.0830 H   0  0  0  0  0  0  0  0  0  0  0  0
  142.0488  139.7656  152.1574 H   0  0  0  0  0  0  0  0  0  0  0  0
  139.8527  140.4579  152.1083 H   0  0  0  0  0  0  0  0  0  0  0  0
  139.7414  137.7087  153.1986 H   0  0  0  0  0  0  0  0  0  0  0  0
  138.7555  139.0910  153.6397 H   0  0  0  0  0  0  0  0  0  0  0  0
  137.6859  136.9659  152.2847 H   0  0  0  0  0  0  0  0  0  0  0  0
  137.1545  138.6140  151.9593 H   0  0  0  0  0  0  0  0  0  0  0  0
  139.2265  137.0235  150.4106 H   0  0  0  0  0  0  0  0  0  0  0  0
  137.8180  137.8579  149.7551 H   0  0  0  0  0  0  0  0  0  0  0  0
  138.8014  140.0075  150.1505 H   0  0  0  0  0  0  0  0  0  0  0  0
  140.2184  139.0919  149.6721 H   0  0  0  0  0  0  0  0  0  0  0  0
  1  2  1  0  0  0  0
  1 18  1  0  0  0  0
  1 19  1  0  0  0  0
  1 20  1  0  0  0  0
  2  3  1  0  0  0  0
  2  4  1  0  0  0  0
  2 21  1  0  0  0  0
  3 22  1  0  0  0  0
  3 23  1  0  0  0  0
  3 24  1  0  0  0  0
  4 17  1  0  0  0  0
  4  5  2  0  0  0  0
  5  6  1  0  0  0  0
  6  7  2  0  0  0  0
  7  8  1  0  0  0  0
  7 17  1  0  0  0  0
  8  9  1  0  0  0  0
  8 25  1  0  0  0  0
  9 10  2  0  0  0  0
  9 11  1  0  0  0  0
 11 12  1  0  0  0  0
 11 26  1  0  0  0  0
 12 16  1  0  0  0  0
 12 13  1  0  0  0  0
 12 27  1  0  0  0  0
 13 14  1  0  0  0  0
 13 28  1  0  0  0  0
 13 29  1  0  0  0  0
 14 15  1  0  0  0  0
 14 30  1  0  0  0  0
 14 31  1  0  0  0  0
 15 16  1  0  0  0  0
 15 32  1  0  0  0  0
 15 33  1  0  0  0  0
 16 34  1  0  0  0  0
 16 35  1  0  0  0  0
M  END
> <s_m_source_file>
AV-unprocessed.smi

> <i_m_source_file_index>
605

> <i_lp_mmshare_version>
43012

> <i_f3d_flags>
0

> <s_epik_input>
W0NIM11bQ0hdKFtDSDNdKWMxbm5jKHMxKVtOSF1DKD1PKVtOSF1bQ0hdMltDSDJdW0NIMl1bQ0gyXVtDSDJdMg==

> <s_epik_cmdline>
J2VwaWtfcHl0aG9uJywgJy1waCcsICc3LjAnLCAnLXRuJywgJzgnLCAnLW1hJywgJzIwMCcsICctbWV0YWxfYmluZGluZycsICctaW1hZScsICc8aW5maWxlLm1hZT4nLCAnLW9tYWUnLCAnPG91dGZpbGUubWFlPic=

> <r_lp_tautomer_probability>
1

> <r_epik_Ionization_Penalty>
0.000375049

> <r_epik_Ionization_Penalty_Charging>
0

> <r_epik_Ionization_Penalty_Neutral>
0.000375049

> <r_epik_State_Penalty>
-0

> <r_epik_Charging_Adjusted_Penalty>
0

> <i_epik_Tot_Q>
0

> <i_epik_Tot_abs_Q>
0

> <r_epik_Metal_State_Penalty>
0.186879

> <b_epik_Metal_Only>
0

> <s_lp_Force_Field>
OPLS_2005

> <r_lp_Energy>
14.8416

> <b_lp_Chiralities_Consistent>
1

> <s_lp_Variant>
AV-unprocessed.smi:605-1

> <Gold.Version>
5.8.1

> <Gold.Id.Protein>
6NUR|6NUR_protein|mol2

> <Gold.PLP.Fitness>
35.0636

> <Gold.PLP.PLP>
-29.7043

> <Gold.PLP.part.hbond>
-3.4536

> <Gold.PLP.part.metal>
0.0000

> <Gold.PLP.part.buried>
-4.4236

> <Gold.PLP.part.nonpolar>
-22.5067

> <Gold.PLP.part.repulsive>
2.1812

> <Gold.PLP.ligand.clash>
0.0000

> <Gold.PLP.ligand.torsion>
0.3129

> <Gold.PLP.Chemscore.Hbond>
1.9675

> <Gold.PLP.Chemscore.CHOScore>
0.0000

> <Gold.PLP.Chemscore.Metal>
0.0000

> <Gold.Chemscore.Hbonds>
donor molecule, donor type, donor heavy atom, donor atom, acceptor molecule, acceptor atom, score
      L1  H     8    25       P1 10175  0.98
      L1  H    11    26       P1 10175  0.55

> <Gold.PLP.Chemscore.Internal.Correction>
0.0827

> <Gold.Rescore>
     Score         DG    S(hbond)    S(metal)    S(lipo)     H(rot)  DE(clash)    DE(int)     intcor
     13.01     -15.96       1.83        0.00      63.48       1.20       0.17       2.78       ----

> <Gold.Chemscore.Fitness>
13.0133

> <Gold.Chemscore.DG>
-15.9636

> <Gold.Chemscore.ZeroCoef>
-5.4800

> <Gold.Chemscore.Hbond>
1.8326

> <Gold.Chemscore.Metal>
0.0000

> <Gold.Chemscore.Lipo>
63.4831

> <Gold.Chemscore.Internal_Hbond>
0.0000

> <Gold.Chemscore.DEClash>
0.1722

> <Gold.Chemscore.DEInternal>
2.7781

> <Gold.Chemscore.Rot>
1.1971

> <Gold.Chemscore.Internal.Correction>
   9.000000E+99

> <Gold.Chemscore.Hbonds>
donor molecule, donor type, donor heavy atom, donor atom, acceptor molecule, acceptor atom, score
      L1  H     8    25       P1 10175  0.93
      L1  H    11    26       P1 10175  0.03

> <Gold.Chemscore.Hbond.Weighted>
-6.1208

> <Gold.Chemscore.Metal.Weighted>
-0.0000

> <Gold.Chemscore.Lipo.Weighted>
-7.4275

> <Gold.Chemscore.Internal_Hbond.Weighted>
0.0000

> <Gold.Chemscore.DEClash.Weighted>
0.1722

> <Gold.Chemscore.DEInternal.Weighted>
2.7781

> <Gold.Chemscore.Rot.Weighted>
3.0647

> <Gold.Chemscore.Internal.Correction.Weighted>
   9.000000E+99

> <Gold.Protein.RotatedTorsions>
[ 6907 6896 6895 6894 ] final  -85.70 input  -60.11 | X-H torsion
[ 7974 7965 7964 7962 ] final   63.30 input  175.53 | X-H torsion
[ 8008 7997 7996 7995 ] final -122.86 input   59.86 | X-H torsion
[ 10167 10162 10161 10158 ] final  -71.01 input  -65.29 | X-H torsion
[ 10718 10713 10712 10709 ] final  125.25 input   66.30 | X-H torsion
[ 10763 10752 10751 10750 ] final  -63.35 input  -60.55 | X-H torsion
[ 11005 11000 10999 10996 ] final   84.50 input  -57.11 | X-H torsion

> <Gold.Protein.ActiveResidues>
 VAL166  LYS551  ARG553  GLY616  TRP617  ASP618  TYR619  PRO620  LYS621  CYS622 
 ASP623  PHE694  ASN695  SER759  ASP760  ASP761  ALA762  ILE779  LEU786  VAL792 
 PHE793  MET794  SER795  GLU796  ALA797  LYS798  CYS799  TRP800  GLU811  SER814 

> <Gold.Protein.RotatedAtoms>
  150.6869  134.3164  159.4767 H   0  0  0  0  0  0  0  0  0  0  0  0  # atno 6907 bound_to 6896
  152.1044  134.9316  160.0578 H   0  0  0  0  0  0  0  0  0  0  0  0  # atno 6908 bound_to 6896
  152.0583  133.4015  159.4443 H   0  0  0  0  0  0  0  0  0  0  0  0  # atno 6909 bound_to 6896
  145.8634  139.3330  143.0805 H   0  0  0  0  0  0  0  0  0  0  0  0  # atno 7974 bound_to 7965
  155.1711  140.0408  157.2863 H   0  0  0  0  0  0  0  0  0  0  0  0  # atno 8008 bound_to 7997
  154.6269  140.2514  155.7454 H   0  0  0  0  0  0  0  0  0  0  0  0  # atno 8009 bound_to 7997
  156.2464  140.2883  156.0602 H   0  0  0  0  0  0  0  0  0  0  0  0  # atno 8010 bound_to 7997
  140.5307  143.2322  151.7268 H   0  0  0  0  0  0  0  0  0  0  0  0  # atno 10167 bound_to 10162
  157.5519  131.1093  150.8688 H   0  0  0  0  0  0  0  0  0  0  0  0  # atno 10718 bound_to 10713
  154.3137  135.6210  153.5477 H   0  0  0  0  0  0  0  0  0  0  0  0  # atno 10763 bound_to 10752
  152.9827  135.5707  154.5149 H   0  0  0  0  0  0  0  0  0  0  0  0  # atno 10764 bound_to 10752
  154.4803  135.2863  155.1552 H   0  0  0  0  0  0  0  0  0  0  0  0  # atno 10765 bound_to 10752
  139.8998  134.8221  156.2454 H   0  0  0  0  0  0  0  0  0  0  0  0  # atno 11005 bound_to 11000
  145.9221  140.9108  143.0399 LP  0  0  0  0  0  0  0  0  0  0  0  0  # atno 17320 bound_to 7965
  144.6726  140.1303  143.7444 LP  0  0  0  0  0  0  0  0  0  0  0  0  # atno 17321 bound_to 7965
  139.4953  144.4119  152.0071 LP  0  0  0  0  0  0  0  0  0  0  0  0  # atno 17342 bound_to 10162
  140.3221  144.3416  150.6007 LP  0  0  0  0  0  0  0  0  0  0  0  0  # atno 17343 bound_to 10162
  156.9210  130.5315  149.5279 LP  0  0  0  0  0  0  0  0  0  0  0  0  # atno 17370 bound_to 10713
  156.0584  130.5641  150.9140 LP  0  0  0  0  0  0  0  0  0  0  0  0  # atno 17371 bound_to 10713
  141.0258  133.7016  156.1345 LP  0  0  0  0  0  0  0  0  0  0  0  0  # atno 17394 bound_to 11000
  140.7168  134.4401  157.5578 LP  0  0  0  0  0  0  0  0  0  0  0  0  # atno 17395 bound_to 11000

$$$$
