AV-unprocessed.smi:655|AV-procd|sdf|3215|dock6
  -GOLD-   22720 0153D 1   1.00000     0.00000
 Structure written by MMmdl.
 35 36  0  0  0  0  0  0  0  0  1 V2000
  152.1683  145.2569  159.1033 C   0  0  0  0  0  0  0  0  0  0  0  0
  151.6210  143.8238  159.1610 C   0  0  2  0  0  0  0  0  0  0  0  0
  152.7424  142.7845  158.9864 C   0  0  0  0  0  0  0  0  0  0  0  0
  152.2016  141.3434  159.0422 C   0  0  0  0  0  0  0  0  0  0  0  0
  151.0734  141.0862  158.0136 C   0  0  2  0  0  0  0  0  0  0  0  0
  150.4508  139.8632  158.3605 O   0  0  0  0  0  0  0  0  0  0  0  0
  151.5411  140.9683  156.5315 C   0  0  0  0  0  0  0  0  0  0  0  0
  150.5163  140.5934  155.5751 N   0  0  0  0  0  0  0  0  0  0  0  0
  149.4679  141.4472  155.2631 C   0  0  0  0  0  0  0  0  0  0  0  0
  148.4966  141.1446  154.3686 C   0  0  0  0  0  0  0  0  0  0  0  0
  147.2232  142.2653  154.0426 Cl  0  0  0  0  0  0  0  0  0  0  0  0
  148.5213  139.8613  153.6698 C   0  0  0  0  0  0  0  0  0  0  0  0
  147.6934  139.4833  152.8432 O   0  0  0  0  0  0  0  0  0  0  0  0
  149.5981  139.0356  154.0040 N   0  0  0  0  0  0  0  0  0  0  0  0
  150.6043  139.3405  154.9209 C   0  0  0  0  0  0  0  0  0  0  0  0
  151.5062  138.5280  155.1181 O   0  0  0  0  0  0  0  0  0  0  0  0
  149.9721  142.1620  158.1719 C   0  0  0  0  0  0  0  0  0  0  0  0
  150.5203  143.5979  158.1096 C   0  0  0  0  0  0  0  0  0  0  0  0
  149.6546  138.1414  153.5383 H   0  0  0  0  0  0  0  0  0  0  0  0
  152.6214  145.4698  158.1346 H   0  0  0  0  0  0  0  0  0  0  0  0
  152.9276  145.4177  159.8691 H   0  0  0  0  0  0  0  0  0  0  0  0
  151.3758  145.9876  159.2673 H   0  0  0  0  0  0  0  0  0  0  0  0
  151.1792  143.6804  160.1483 H   0  0  0  0  0  0  0  0  0  0  0  0
  153.2492  142.9615  158.0397 H   0  0  0  0  0  0  0  0  0  0  0  0
  153.4959  142.9174  159.7635 H   0  0  0  0  0  0  0  0  0  0  0  0
  153.0158  140.6300  158.9175 H   0  0  0  0  0  0  0  0  0  0  0  0
  151.8149  141.1705  160.0480 H   0  0  0  0  0  0  0  0  0  0  0  0
  150.3353  139.8416  159.2980 H   0  0  0  0  0  0  0  0  0  0  0  0
  151.9180  141.9286  156.1739 H   0  0  0  0  0  0  0  0  0  0  0  0
  152.3811  140.2821  156.4174 H   0  0  0  0  0  0  0  0  0  0  0  0
  149.4194  142.4061  155.7595 H   0  0  0  0  0  0  0  0  0  0  0  0
  149.1989  142.0286  157.4143 H   0  0  0  0  0  0  0  0  0  0  0  0
  149.4722  142.0340  159.1335 H   0  0  0  0  0  0  0  0  0  0  0  0
  149.7042  144.3026  158.2728 H   0  0  0  0  0  0  0  0  0  0  0  0
  150.9066  143.8085  157.1120 H   0  0  0  0  0  0  0  0  0  0  0  0
  1  2  1  0  0  0  0
  1 20  1  0  0  0  0
  1 21  1  0  0  0  0
  1 22  1  0  0  0  0
  2 18  1  0  0  0  0
  2  3  1  0  0  0  0
  2 23  1  0  0  0  0
  3  4  1  0  0  0  0
  3 24  1  0  0  0  0
  3 25  1  0  0  0  0
  4  5  1  0  0  0  0
  4 26  1  0  0  0  0
  4 27  1  0  0  0  0
  5  6  1  0  0  0  0
  5  7  1  0  0  0  0
  5 17  1  0  0  0  0
  6 28  1  0  0  0  0
  7  8  1  0  0  0  0
  7 29  1  0  0  0  0
  7 30  1  0  0  0  0
  8 15  1  0  0  0  0
  8  9  1  0  0  0  0
  9 10  2  0  0  0  0
  9 31  1  0  0  0  0
 10 11  1  0  0  0  0
 10 12  1  0  0  0  0
 12 13  2  0  0  0  0
 12 14  1  0  0  0  0
 14 19  1  0  0  0  0
 14 15  1  0  0  0  0
 15 16  2  0  0  0  0
 17 18  1  0  0  0  0
 17 32  1  0  0  0  0
 17 33  1  0  0  0  0
 18 34  1  0  0  0  0
 18 35  1  0  0  0  0
M  END
> <s_m_source_file>
AV-unprocessed.smi

> <i_m_source_file_index>
655

> <i_lp_mmshare_version>
43012

> <i_f3d_flags>
0

> <s_epik_input>
W0NIMl0xW0NIMl1bQ0BIXShbQ0gzXSlbQ0gyXVtDSDJdW0NAQF0xKFtPSF0pW0NIMl1uMltjSF1jKENsKWMoPU8pW25IXWMyPU8=

> <s_epik_cmdline>
J2VwaWtfcHl0aG9uJywgJy1waCcsICc3LjAnLCAnLXRuJywgJzgnLCAnLW1hJywgJzIwMCcsICctbWV0YWxfYmluZGluZycsICctaW1hZScsICc8aW5maWxlLm1hZT4nLCAnLW9tYWUnLCAnPG91dGZpbGUubWFlPic=

> <r_lp_tautomer_probability>
0.999537

> <r_epik_Ionization_Penalty>
0.0114762

> <r_epik_Ionization_Penalty_Charging>
0.0114753

> <r_epik_Ionization_Penalty_Neutral>
8.25878e-07

> <r_epik_State_Penalty>
0.00883314

> <r_epik_Charging_Adjusted_Penalty>
0.0203085

> <i_epik_Tot_Q>
0

> <i_epik_Tot_abs_Q>
0

> <r_epik_Metal_State_Penalty>
1.64347

> <b_epik_Metal_Only>
0

> <s_lp_Force_Field>
OPLS_2005

> <r_lp_Energy>
18.8489

> <b_lp_Chiralities_Consistent>
1

> <s_lp_Variant>
AV-unprocessed.smi:655-2

> <Gold.Version>
5.8.1

> <Gold.Id.Protein>
6NUR|6NUR_protein|mol2

> <Gold.PLP.Fitness>
39.4359

> <Gold.PLP.PLP>
-36.5646

> <Gold.PLP.part.hbond>
-1.0000

> <Gold.PLP.part.metal>
0.0000

> <Gold.PLP.part.buried>
-3.8849

> <Gold.PLP.part.nonpolar>
-33.1188

> <Gold.PLP.part.repulsive>
1.4909

> <Gold.PLP.ligand.clash>
0.0000

> <Gold.PLP.ligand.torsion>
0.0704

> <Gold.PLP.Chemscore.Hbond>
0.0000

> <Gold.PLP.Chemscore.CHOScore>
1.0000

> <Gold.PLP.Chemscore.Metal>
0.0000

> <Gold.Chemscore.Hbonds>
donor molecule, donor type, donor heavy atom, donor atom, acceptor molecule, acceptor atom, score
      L1  C     9    31       P1  8028  1.00

> <Gold.PLP.Chemscore.Internal.Correction>
0.0122

> <Gold.Rescore>
     Score         DG    S(hbond)    S(metal)    S(lipo)     H(rot)  DE(clash)    DE(int)     intcor
     11.38     -11.87       0.00        0.00      94.94       1.84       0.25       0.25       ----

> <Gold.Chemscore.Fitness>
11.3773

> <Gold.Chemscore.DG>
-11.8710

> <Gold.Chemscore.ZeroCoef>
-5.4800

> <Gold.Chemscore.Hbond>
0.0000

> <Gold.Chemscore.Metal>
0.0000

> <Gold.Chemscore.Lipo>
94.9350

> <Gold.Chemscore.Internal_Hbond>
0.0000

> <Gold.Chemscore.DEClash>
0.2466

> <Gold.Chemscore.DEInternal>
0.2471

> <Gold.Chemscore.Rot>
1.8424

> <Gold.Chemscore.Internal.Correction>
   9.000000E+99

> <Gold.Chemscore.Hbond.Weighted>
-0.0000

> <Gold.Chemscore.Metal.Weighted>
-0.0000

> <Gold.Chemscore.Lipo.Weighted>
-11.1074

> <Gold.Chemscore.Internal_Hbond.Weighted>
0.0000

> <Gold.Chemscore.DEClash.Weighted>
0.2466

> <Gold.Chemscore.DEInternal.Weighted>
0.2471

> <Gold.Chemscore.Rot.Weighted>
4.7164

> <Gold.Chemscore.Internal.Correction.Weighted>
   9.000000E+99

> <Gold.Protein.RotatedTorsions>
[ 6907 6896 6895 6894 ] final -137.29 input  -60.11 | X-H torsion
[ 7974 7965 7964 7962 ] final -176.10 input  175.53 | X-H torsion
[ 8008 7997 7996 7995 ] final  -54.32 input   59.86 | X-H torsion
[ 10167 10162 10161 10158 ] final   69.98 input  -65.29 | X-H torsion
[ 10718 10713 10712 10709 ] final   80.61 input   66.30 | X-H torsion
[ 10763 10752 10751 10750 ] final  -71.83 input  -60.55 | X-H torsion
[ 11005 11000 10999 10996 ] final  -91.67 input  -57.11 | X-H torsion

> <Gold.Protein.ActiveResidues>
 VAL166  LYS551  ARG553  GLY616  TRP617  ASP618  TYR619  PRO620  LYS621  CYS622 
 ASP623  PHE694  ASN695  SER759  ASP760  ASP761  ALA762  ILE779  LEU786  VAL792 
 PHE793  MET794  SER795  GLU796  ALA797  LYS798  CYS799  TRP800  GLU811  SER814 

> <Gold.Protein.RotatedAtoms>
  151.0206  133.5880  159.2671 H   0  0  0  0  0  0  0  0  0  0  0  0  # atno 6907 bound_to 6896
  151.2998  135.0764  159.9244 H   0  0  0  0  0  0  0  0  0  0  0  0  # atno 6908 bound_to 6896
  152.5322  133.9890  159.7896 H   0  0  0  0  0  0  0  0  0  0  0  0  # atno 6909 bound_to 6896
  144.7127  140.1221  143.6404 H   0  0  0  0  0  0  0  0  0  0  0  0  # atno 7974 bound_to 7965
  154.4159  140.1179  156.5297 H   0  0  0  0  0  0  0  0  0  0  0  0  # atno 8008 bound_to 7997
  155.6618  140.3496  155.4766 H   0  0  0  0  0  0  0  0  0  0  0  0  # atno 8009 bound_to 7997
  155.9707  140.1141  157.0805 H   0  0  0  0  0  0  0  0  0  0  0  0  # atno 8010 bound_to 7997
  140.0619  144.5225  150.7288 H   0  0  0  0  0  0  0  0  0  0  0  0  # atno 10167 bound_to 10162
  157.6811  130.9967  150.2104 H   0  0  0  0  0  0  0  0  0  0  0  0  # atno 10718 bound_to 10713
  154.4372  135.5949  153.6106 H   0  0  0  0  0  0  0  0  0  0  0  0  # atno 10763 bound_to 10752
  152.9803  135.5989  154.3767 H   0  0  0  0  0  0  0  0  0  0  0  0  # atno 10764 bound_to 10752
  154.3612  135.2841  155.2297 H   0  0  0  0  0  0  0  0  0  0  0  0  # atno 10765 bound_to 10752
  141.1539  133.7771  156.9912 H   0  0  0  0  0  0  0  0  0  0  0  0  # atno 11005 bound_to 11000
  145.9362  139.2638  143.1296 LP  0  0  0  0  0  0  0  0  0  0  0  0  # atno 17320 bound_to 7965
  145.9472  140.8936  143.0278 LP  0  0  0  0  0  0  0  0  0  0  0  0  # atno 17321 bound_to 7965
  140.7168  143.2551  151.4409 LP  0  0  0  0  0  0  0  0  0  0  0  0  # atno 17342 bound_to 10162
  139.5888  144.1544  152.2063 LP  0  0  0  0  0  0  0  0  0  0  0  0  # atno 17343 bound_to 10162
  156.2776  130.3729  149.7967 LP  0  0  0  0  0  0  0  0  0  0  0  0  # atno 17370 bound_to 10713
  156.5665  130.8406  151.3344 LP  0  0  0  0  0  0  0  0  0  0  0  0  # atno 17371 bound_to 10713
  140.1001  134.9540  157.1910 LP  0  0  0  0  0  0  0  0  0  0  0  0  # atno 17394 bound_to 11000
  140.3329  134.2789  155.7225 LP  0  0  0  0  0  0  0  0  0  0  0  0  # atno 17395 bound_to 11000

$$$$
