AV-unprocessed.smi:676|AV-procd|sdf|3309|dock5
  -GOLD-   22720 0273D 1   1.00000     0.00000
 Structure written by MMmdl.
 42 43  0  0  0  0  0  0  0  0  1 V2000
  147.0188  140.3379  153.4403 C   0  0  0  0  0  0  0  0  0  0  0  0
  147.5375  140.2514  154.7618 O   0  0  0  0  0  0  0  0  0  0  0  0
  148.9578  140.1102  154.9040 C   0  0  1  0  0  0  0  0  0  0  0  0
  149.4393  138.8146  154.2391 C   0  0  0  0  0  0  0  0  0  0  0  0
  149.6607  141.4394  154.5670 C   0  0  0  0  0  0  0  0  0  0  0  0
  149.3577  141.8769  155.9985 C   0  0  2  0  0  0  0  0  0  0  0  0
  150.4390  142.6576  156.5900 N   0  0  0  0  0  0  0  0  0  0  0  0
  150.6679  142.7575  157.9071 C   0  0  0  0  0  0  0  0  0  0  0  0
  149.9824  142.1833  158.7544 O   0  0  0  0  0  0  0  0  0  0  0  0
  151.8698  143.6207  158.3160 C   0  0  0  0  0  0  0  0  0  0  0  0
  152.2292  143.4866  159.7374 N   0  0  0  0  0  0  0  0  0  0  0  0
  152.7169  142.2340  160.1602 C   0  0  0  0  0  0  0  0  0  0  0  0
  153.0706  142.0032  161.4344 C   0  0  0  0  0  0  0  0  0  0  0  0
  152.9410  143.0821  162.3849 C   0  0  0  0  0  0  0  0  0  0  0  0
  152.4723  144.2831  161.9918 C   0  0  0  0  0  0  0  0  0  0  0  0
  152.0822  144.5392  160.6004 C   0  0  0  0  0  0  0  0  0  0  0  0
  151.6508  145.6324  160.2332 O   0  0  0  0  0  0  0  0  0  0  0  0
  149.3339  140.3789  156.3984 C   0  0  0  0  0  0  0  0  0  0  0  0
  148.2915  139.9823  157.4497 C   0  0  0  0  0  0  0  0  0  0  0  0
  150.6645  139.7693  156.8791 C   0  0  0  0  0  0  0  0  0  0  0  0
  145.9632  140.6037  153.4900 H   0  0  0  0  0  0  0  0  0  0  0  0
  147.0849  139.3827  152.9199 H   0  0  0  0  0  0  0  0  0  0  0  0
  147.5225  141.0977  152.8438 H   0  0  0  0  0  0  0  0  0  0  0  0
  150.4990  138.6366  154.4182 H   0  0  0  0  0  0  0  0  0  0  0  0
  149.3175  138.8411  153.1566 H   0  0  0  0  0  0  0  0  0  0  0  0
  148.8940  137.9497  154.6174 H   0  0  0  0  0  0  0  0  0  0  0  0
  150.7259  141.3154  154.3637 H   0  0  0  0  0  0  0  0  0  0  0  0
  149.1871  142.0543  153.8026 H   0  0  0  0  0  0  0  0  0  0  0  0
  148.3770  142.3530  156.0738 H   0  0  0  0  0  0  0  0  0  0  0  0
  151.0489  143.1544  155.9572 H   0  0  0  0  0  0  0  0  0  0  0  0
  152.7139  143.3473  157.6814 H   0  0  0  0  0  0  0  0  0  0  0  0
  151.6619  144.6658  158.0790 H   0  0  0  0  0  0  0  0  0  0  0  0
  152.7762  141.4788  159.3899 H   0  0  0  0  0  0  0  0  0  0  0  0
  153.4382  141.0351  161.7414 H   0  0  0  0  0  0  0  0  0  0  0  0
  153.2203  142.9253  163.4164 H   0  0  0  0  0  0  0  0  0  0  0  0
  152.3810  145.0782  162.7171 H   0  0  0  0  0  0  0  0  0  0  0  0
  148.6028  140.2733  158.4536 H   0  0  0  0  0  0  0  0  0  0  0  0
  148.1216  138.9053  157.4554 H   0  0  0  0  0  0  0  0  0  0  0  0
  147.3288  140.4620  157.2720 H   0  0  0  0  0  0  0  0  0  0  0  0
  150.9447  140.1404  157.8656 H   0  0  0  0  0  0  0  0  0  0  0  0
  151.4910  140.0002  156.2068 H   0  0  0  0  0  0  0  0  0  0  0  0
  150.6029  138.6830  156.9510 H   0  0  0  0  0  0  0  0  0  0  0  0
  1  2  1  0  0  0  0
  1 21  1  0  0  0  0
  1 22  1  0  0  0  0
  1 23  1  0  0  0  0
  2  3  1  0  0  0  0
  3 18  1  0  0  0  0
  3  4  1  0  0  0  0
  3  5  1  0  0  0  0
  4 24  1  0  0  0  0
  4 25  1  0  0  0  0
  4 26  1  0  0  0  0
  5  6  1  0  0  0  0
  5 27  1  0  0  0  0
  5 28  1  0  0  0  0
  6  7  1  0  0  0  0
  6 18  1  0  0  0  0
  6 29  1  0  0  0  0
  7  8  1  0  0  0  0
  7 30  1  0  0  0  0
  8  9  2  0  0  0  0
  8 10  1  0  0  0  0
 10 11  1  0  0  0  0
 10 31  1  0  0  0  0
 10 32  1  0  0  0  0
 11 16  1  0  0  0  0
 11 12  1  0  0  0  0
 12 13  2  0  0  0  0
 12 33  1  0  0  0  0
 13 14  1  0  0  0  0
 13 34  1  0  0  0  0
 14 15  2  0  0  0  0
 14 35  1  0  0  0  0
 15 16  1  0  0  0  0
 15 36  1  0  0  0  0
 16 17  2  0  0  0  0
 18 19  1  0  0  0  0
 18 20  1  0  0  0  0
 19 37  1  0  0  0  0
 19 38  1  0  0  0  0
 19 39  1  0  0  0  0
 20 40  1  0  0  0  0
 20 41  1  0  0  0  0
 20 42  1  0  0  0  0
M  END
> <s_m_source_file>
AV-unprocessed.smi

> <i_m_source_file_index>
676

> <i_lp_mmshare_version>
43012

> <i_f3d_flags>
0

> <s_epik_input>
W0NIM11PW0NAQF0xKFtDSDNdKVtDSDJdW0NASF0oQzEoW0NIM10pW0NIM10pW05IXUMoPU8pW0NIMl1uMltjSF1bY0hdW2NIXVtjSF1jMj1P

> <s_epik_cmdline>
J2VwaWtfcHl0aG9uJywgJy1waCcsICc3LjAnLCAnLXRuJywgJzgnLCAnLW1hJywgJzIwMCcsICctbWV0YWxfYmluZGluZycsICctaW1hZScsICc8aW5maWxlLm1hZT4nLCAnLW9tYWUnLCAnPG91dGZpbGUubWFlPic=

> <r_lp_tautomer_probability>
1

> <r_epik_Ionization_Penalty>
4.09771e-07

> <r_epik_Ionization_Penalty_Charging>
3.90712e-07

> <r_epik_Ionization_Penalty_Neutral>
1.90591e-08

> <r_epik_State_Penalty>
-0

> <r_epik_Charging_Adjusted_Penalty>
3.90712e-07

> <i_epik_Tot_Q>
0

> <i_epik_Tot_abs_Q>
0

> <r_epik_Metal_State_Penalty>
-0

> <b_epik_Metal_Only>
0

> <s_lp_Force_Field>
OPLS_2005

> <r_lp_Energy>
31.664

> <b_lp_Chiralities_Consistent>
1

> <s_lp_Variant>
AV-unprocessed.smi:676-3

> <Gold.Version>
5.8.1

> <Gold.Id.Protein>
6NUR|6NUR_protein|mol2

> <Gold.PLP.Fitness>
41.6369

> <Gold.PLP.PLP>
-42.0817

> <Gold.PLP.part.hbond>
-1.6028

> <Gold.PLP.part.metal>
0.0000

> <Gold.PLP.part.buried>
-2.6547

> <Gold.PLP.part.nonpolar>
-36.5554

> <Gold.PLP.part.repulsive>
0.3711

> <Gold.PLP.ligand.clash>
0.0000

> <Gold.PLP.ligand.torsion>
0.4099

> <Gold.PLP.Chemscore.Hbond>
0.0000

> <Gold.PLP.Chemscore.CHOScore>
0.0000

> <Gold.PLP.Chemscore.Metal>
0.0000

> <Gold.PLP.Chemscore.Internal.Correction>
0.3751

> <Gold.Rescore>
     Score         DG    S(hbond)    S(metal)    S(lipo)     H(rot)  DE(clash)    DE(int)     intcor
     12.28     -13.24       0.00        0.00     101.70       1.62       0.31       0.65       ----

> <Gold.Chemscore.Fitness>
12.2824

> <Gold.Chemscore.DG>
-13.2378

> <Gold.Chemscore.ZeroCoef>
-5.4800

> <Gold.Chemscore.Hbond>
0.0000

> <Gold.Chemscore.Metal>
0.0000

> <Gold.Chemscore.Lipo>
101.6971

> <Gold.Chemscore.Internal_Hbond>
0.0000

> <Gold.Chemscore.DEClash>
0.3086

> <Gold.Chemscore.DEInternal>
0.6468

> <Gold.Chemscore.Rot>
1.6175

> <Gold.Chemscore.Internal.Correction>
   9.000000E+99

> <Gold.Chemscore.Hbond.Weighted>
-0.0000

> <Gold.Chemscore.Metal.Weighted>
-0.0000

> <Gold.Chemscore.Lipo.Weighted>
-11.8986

> <Gold.Chemscore.Internal_Hbond.Weighted>
0.0000

> <Gold.Chemscore.DEClash.Weighted>
0.3086

> <Gold.Chemscore.DEInternal.Weighted>
0.6468

> <Gold.Chemscore.Rot.Weighted>
4.1408

> <Gold.Chemscore.Internal.Correction.Weighted>
   9.000000E+99

> <Gold.Protein.RotatedTorsions>
[ 6907 6896 6895 6894 ] final  -53.42 input  -60.11 | X-H torsion
[ 7974 7965 7964 7962 ] final   45.26 input  175.53 | X-H torsion
[ 8008 7997 7996 7995 ] final  129.30 input   59.86 | X-H torsion
[ 10167 10162 10161 10158 ] final  -95.99 input  -65.29 | X-H torsion
[ 10718 10713 10712 10709 ] final -133.38 input   66.30 | X-H torsion
[ 10763 10752 10751 10750 ] final  133.22 input  -60.55 | X-H torsion
[ 11005 11000 10999 10996 ] final  -66.24 input  -57.11 | X-H torsion

> <Gold.Protein.ActiveResidues>
 VAL166  LYS551  ARG553  GLY616  TRP617  ASP618  TYR619  PRO620  LYS621  CYS622 
 ASP623  PHE694  ASN695  SER759  ASP760  ASP761  ALA762  ILE779  LEU786  VAL792 
 PHE793  MET794  SER795  GLU796  ALA797  LYS798  CYS799  TRP800  GLU811  SER814 

> <Gold.Protein.RotatedAtoms>
  150.8429  134.7727  159.6946 H   0  0  0  0  0  0  0  0  0  0  0  0  # atno 6907 bound_to 6896
  152.4512  134.5386  159.9842 H   0  0  0  0  0  0  0  0  0  0  0  0  # atno 6908 bound_to 6896
  151.5522  133.3378  159.2991 H   0  0  0  0  0  0  0  0  0  0  0  0  # atno 6909 bound_to 6896
  146.0496  139.4983  142.9727 H   0  0  0  0  0  0  0  0  0  0  0  0  # atno 7974 bound_to 7965
  156.2933  140.2624  156.2577 H   0  0  0  0  0  0  0  0  0  0  0  0  # atno 8008 bound_to 7997
  154.9820  140.0389  157.2300 H   0  0  0  0  0  0  0  0  0  0  0  0  # atno 8009 bound_to 7997
  154.7763  140.2787  155.6103 H   0  0  0  0  0  0  0  0  0  0  0  0  # atno 8010 bound_to 7997
  140.2985  143.3177  152.0273 H   0  0  0  0  0  0  0  0  0  0  0  0  # atno 10167 bound_to 10162
  156.2443  130.7115  151.0989 H   0  0  0  0  0  0  0  0  0  0  0  0  # atno 10718 bound_to 10713
  153.8035  135.3138  155.3393 H   0  0  0  0  0  0  0  0  0  0  0  0  # atno 10763 bound_to 10752
  154.8079  135.4686  154.0443 H   0  0  0  0  0  0  0  0  0  0  0  0  # atno 10764 bound_to 10752
  153.1799  135.6892  153.8580 H   0  0  0  0  0  0  0  0  0  0  0  0  # atno 10765 bound_to 10752
  141.1477  133.6696  156.6109 H   0  0  0  0  0  0  0  0  0  0  0  0  # atno 11005 bound_to 11000
  145.6748  141.0207  143.1638 LP  0  0  0  0  0  0  0  0  0  0  0  0  # atno 17320 bound_to 7965
  144.7115  139.8352  143.7413 LP  0  0  0  0  0  0  0  0  0  0  0  0  # atno 17321 bound_to 7965
  139.4921  144.6473  151.6750 LP  0  0  0  0  0  0  0  0  0  0  0  0  # atno 17342 bound_to 10162
  140.5672  144.0170  150.6198 LP  0  0  0  0  0  0  0  0  0  0  0  0  # atno 17343 bound_to 10162
  157.7188  131.0694  150.6218 LP  0  0  0  0  0  0  0  0  0  0  0  0  # atno 17370 bound_to 10713
  156.6294  130.4427  149.5792 LP  0  0  0  0  0  0  0  0  0  0  0  0  # atno 17371 bound_to 10713
  140.3615  134.7683  157.4537 LP  0  0  0  0  0  0  0  0  0  0  0  0  # atno 17394 bound_to 11000
  140.0781  134.5769  155.8569 LP  0  0  0  0  0  0  0  0  0  0  0  0  # atno 17395 bound_to 11000

$$$$
