AV-unprocessed.smi:1633|AV-procd|sdf|6532|dock3
  -GOLD-   22720 7213D 1   1.00000     0.00000
 Structure written by MMmdl.
 51 53  0  0  0  0  0  0  0  0  2 V2000
  144.2739  144.3479  156.4509 C   0  0  0  0  0  0  0  0  0  0  0  0
  144.5233  142.8383  156.4290 C   0  0  0  0  0  0  0  0  0  0  0  0
  144.0994  142.1685  157.3704 O   0  0  0  0  0  0  0  0  0  0  0  0
  145.1944  142.2914  155.3872 N   0  0  0  0  0  0  0  0  0  0  0  0
  145.5124  140.8628  155.3099 C   0  0  0  0  0  0  0  0  0  0  0  0
  147.0373  140.6796  155.4113 C   0  0  0  0  0  0  0  0  0  0  0  0
  147.7493  141.4712  154.3728 N   0  3  0  0  0  0  0  0  0  0  0  0
  149.2215  141.2818  154.4305 C   0  0  0  0  0  0  0  0  0  0  0  0
  149.7407  141.0907  155.8693 C   0  0  2  0  0  0  0  0  0  0  0  0
  149.3149  142.1905  156.6511 O   0  0  0  0  0  0  0  0  0  0  0  0
  151.2779  140.9949  155.9159 C   0  0  0  0  0  0  0  0  0  0  0  0
  151.7681  140.6423  157.2365 N   0  0  0  0  0  0  0  0  0  0  0  0
  152.1585  139.4234  157.6563 C   0  0  0  0  0  0  0  0  0  0  0  0
  152.5645  139.3152  158.9177 N   0  0  0  0  0  0  0  0  0  0  0  0
  152.4251  140.6165  159.3690 C   0  0  0  0  0  0  0  0  0  0  0  0
  152.6840  141.1800  160.6374 C   0  0  0  0  0  0  0  0  0  0  0  0
  152.4610  142.5543  160.8792 C   0  0  0  0  0  0  0  0  0  0  0  0
  152.7489  143.1175  162.2596 C   0  0  0  0  0  0  0  0  0  0  0  0
  151.9743  143.3887  159.8408 C   0  0  0  0  0  0  0  0  0  0  0  0
  151.7299  144.8689  160.0767 C   0  0  0  0  0  0  0  0  0  0  0  0
  151.7097  142.8419  158.5679 C   0  0  0  0  0  0  0  0  0  0  0  0
  151.9324  141.4722  158.3407 C   0  0  0  0  0  0  0  0  0  0  0  0
  147.3302  142.9003  154.3536 C   0  0  0  0  0  0  0  0  0  0  0  0
  145.7983  143.0357  154.2775 C   0  0  0  0  0  0  0  0  0  0  0  0
  145.2160  144.8971  156.4548 H   0  0  0  0  0  0  0  0  0  0  0  0
  143.7191  144.6321  157.3457 H   0  0  0  0  0  0  0  0  0  0  0  0
  143.6865  144.6553  155.5852 H   0  0  0  0  0  0  0  0  0  0  0  0
  145.0188  140.2740  156.0842 H   0  0  0  0  0  0  0  0  0  0  0  0
  145.1491  140.4671  154.3602 H   0  0  0  0  0  0  0  0  0  0  0  0
  147.3828  140.9866  156.4000 H   0  0  0  0  0  0  0  0  0  0  0  0
  147.2835  139.6225  155.3013 H   0  0  0  0  0  0  0  0  0  0  0  0
  149.5010  140.4325  153.8052 H   0  0  0  0  0  0  0  0  0  0  0  0
  149.7180  142.1529  153.9994 H   0  0  0  0  0  0  0  0  0  0  0  0
  149.3277  140.1817  156.3054 H   0  0  0  0  0  0  0  0  0  0  0  0
  149.2918  142.9596  156.1012 H   0  0  0  0  0  0  0  0  0  0  0  0
  151.6299  140.2413  155.2099 H   0  0  0  0  0  0  0  0  0  0  0  0
  151.7332  141.9392  155.6142 H   0  0  0  0  0  0  0  0  0  0  0  0
  152.1382  138.5657  157.0000 H   0  0  0  0  0  0  0  0  0  0  0  0
  153.0555  140.5440  161.4276 H   0  0  0  0  0  0  0  0  0  0  0  0
  153.5283  143.8777  162.2063 H   0  0  0  0  0  0  0  0  0  0  0  0
  153.0861  142.3395  162.9451 H   0  0  0  0  0  0  0  0  0  0  0  0
  151.8519  143.5694  162.6834 H   0  0  0  0  0  0  0  0  0  0  0  0
  151.3828  145.3645  159.1695 H   0  0  0  0  0  0  0  0  0  0  0  0
  152.6480  145.3625  160.3961 H   0  0  0  0  0  0  0  0  0  0  0  0
  150.9726  145.0125  160.8476 H   0  0  0  0  0  0  0  0  0  0  0  0
  151.3356  143.4660  157.7697 H   0  0  0  0  0  0  0  0  0  0  0  0
  147.6988  143.3981  155.2520 H   0  0  0  0  0  0  0  0  0  0  0  0
  147.7732  143.4149  153.5022 H   0  0  0  0  0  0  0  0  0  0  0  0
  145.4353  142.6220  153.3355 H   0  0  0  0  0  0  0  0  0  0  0  0
  145.5258  144.0897  154.2560 H   0  0  0  0  0  0  0  0  0  0  0  0
  147.4573  141.0778  153.4891 H   0  0  0  0  0  0  0  0  0  0  0  0
  1  2  1  0  0  0  0
  1 25  1  0  0  0  0
  1 26  1  0  0  0  0
  1 27  1  0  0  0  0
  2  3  2  0  0  0  0
  2  4  1  0  0  0  0
  4 24  1  0  0  0  0
  4  5  1  0  0  0  0
  5  6  1  0  0  0  0
  5 28  1  0  0  0  0
  5 29  1  0  0  0  0
  6  7  1  0  0  0  0
  6 30  1  0  0  0  0
  6 31  1  0  0  0  0
  7  8  1  0  0  0  0
  7 23  1  0  0  0  0
  7 51  1  0  0  0  0
  8  9  1  0  0  0  0
  8 32  1  0  0  0  0
  8 33  1  0  0  0  0
  9 10  1  0  0  0  0
  9 11  1  0  0  0  0
  9 34  1  0  0  0  0
 10 35  1  0  0  0  0
 11 12  1  0  0  0  0
 11 36  1  0  0  0  0
 11 37  1  0  0  0  0
 12 22  1  0  0  0  0
 12 13  1  0  0  0  0
 13 14  2  0  0  0  0
 13 38  1  0  0  0  0
 14 15  1  0  0  0  0
 15 22  2  0  0  0  0
 15 16  1  0  0  0  0
 16 17  2  0  0  0  0
 16 39  1  0  0  0  0
 17 18  1  0  0  0  0
 17 19  1  0  0  0  0
 18 40  1  0  0  0  0
 18 41  1  0  0  0  0
 18 42  1  0  0  0  0
 19 20  1  0  0  0  0
 19 21  2  0  0  0  0
 20 43  1  0  0  0  0
 20 44  1  0  0  0  0
 20 45  1  0  0  0  0
 21 22  1  0  0  0  0
 21 46  1  0  0  0  0
 23 24  1  0  0  0  0
 23 47  1  0  0  0  0
 23 48  1  0  0  0  0
 24 49  1  0  0  0  0
 24 50  1  0  0  0  0
M  CHG  1   7   1
M  END
> <s_m_source_file>
AV-unprocessed.smi

> <i_m_source_file_index>
1633

> <i_lp_mmshare_version>
43012

> <i_f3d_flags>
0

> <s_epik_input>
W0NIM11DKD1PKU4xW0NIMl1bQ0gyXU4oW0NIMl1bQ0gyXTEpW0NIMl1bQ0BIXShbT0hdKVtDSDJdbihbY0hdbjIpYyhjMjMpW2NIXWMoW0NIM10pYyhbY0hdMylbQ0gzXQ==

> <s_epik_cmdline>
J2VwaWtfcHl0aG9uJywgJy1waCcsICc3LjAnLCAnLXRuJywgJzgnLCAnLW1hJywgJzIwMCcsICctbWV0YWxfYmluZGluZycsICctaW1hZScsICc8aW5maWxlLm1hZT4nLCAnLW9tYWUnLCAnPG91dGZpbGUubWFlPic=

> <r_epik_Ionization_Penalty>
0.0939669

> <r_epik_Ionization_Penalty_Charging>
0.00645254

> <r_epik_Ionization_Penalty_Neutral>
0.0875144

> <r_epik_State_Penalty>
0.0777239

> <r_epik_Charging_Adjusted_Penalty>
0.0841764

> <i_epik_Tot_Q>
1

> <i_epik_Tot_abs_Q>
1

> <r_epik_Metal_State_Penalty>
7.71307e-05

> <b_epik_Metal_Only>
0

> <s_lp_Force_Field>
OPLS_2005

> <r_lp_Energy>
43.6945

> <b_lp_Chiralities_Consistent>
1

> <s_lp_Variant>
AV-unprocessed.smi:1633-1

> <Gold.Version>
5.8.1

> <Gold.Id.Protein>
6NUR|6NUR_protein|mol2

> <Gold.PLP.Fitness>
49.0476

> <Gold.PLP.PLP>
-47.6653

> <Gold.PLP.part.hbond>
-1.0000

> <Gold.PLP.part.metal>
0.0000

> <Gold.PLP.part.buried>
-4.1808

> <Gold.PLP.part.nonpolar>
-41.6001

> <Gold.PLP.part.repulsive>
0.1065

> <Gold.PLP.ligand.clash>
0.0000

> <Gold.PLP.ligand.torsion>
0.6999

> <Gold.PLP.Chemscore.Hbond>
0.8960

> <Gold.PLP.Chemscore.CHOScore>
0.0000

> <Gold.PLP.Chemscore.Metal>
0.0000

> <Gold.Chemscore.Hbonds>
donor molecule, donor type, donor heavy atom, donor atom, acceptor molecule, acceptor atom, score
      L1  H    10    35       P1  8028  1.00

> <Gold.PLP.Chemscore.Internal.Correction>
0.0941

> <Gold.Rescore>
     Score         DG    S(hbond)    S(metal)    S(lipo)     H(rot)  DE(clash)    DE(int)     intcor
     16.84     -17.58       0.98        0.00     122.67       2.16       0.03       0.71       ----

> <Gold.Chemscore.Fitness>
16.8379

> <Gold.Chemscore.DG>
-17.5760

> <Gold.Chemscore.ZeroCoef>
-5.4800

> <Gold.Chemscore.Hbond>
0.9807

> <Gold.Chemscore.Metal>
0.0000

> <Gold.Chemscore.Lipo>
122.6690

> <Gold.Chemscore.Internal_Hbond>
0.0000

> <Gold.Chemscore.DEClash>
0.0294

> <Gold.Chemscore.DEInternal>
0.7087

> <Gold.Chemscore.Rot>
2.1608

> <Gold.Chemscore.Internal.Correction>
   9.000000E+99

> <Gold.Chemscore.Hbonds>
donor molecule, donor type, donor heavy atom, donor atom, acceptor molecule, acceptor atom, score
      L1  H    10    35       P1  8028  0.98

> <Gold.Chemscore.Hbond.Weighted>
-3.2754

> <Gold.Chemscore.Metal.Weighted>
-0.0000

> <Gold.Chemscore.Lipo.Weighted>
-14.3523

> <Gold.Chemscore.Internal_Hbond.Weighted>
0.0000

> <Gold.Chemscore.DEClash.Weighted>
0.0294

> <Gold.Chemscore.DEInternal.Weighted>
0.7087

> <Gold.Chemscore.Rot.Weighted>
5.5317

> <Gold.Chemscore.Internal.Correction.Weighted>
   9.000000E+99

> <Gold.Protein.RotatedTorsions>
[ 6907 6896 6895 6894 ] final    9.68 input  -60.11 | X-H torsion
[ 7974 7965 7964 7962 ] final  120.15 input  175.53 | X-H torsion
[ 8008 7997 7996 7995 ] final   51.08 input   59.86 | X-H torsion
[ 10167 10162 10161 10158 ] final    9.19 input  -65.29 | X-H torsion
[ 10718 10713 10712 10709 ] final   33.87 input   66.30 | X-H torsion
[ 10763 10752 10751 10750 ] final  -16.92 input  -60.55 | X-H torsion
[ 11005 11000 10999 10996 ] final -109.43 input  -57.11 | X-H torsion

> <Gold.Protein.ActiveResidues>
 VAL166  LYS551  ARG553  GLY616  TRP617  ASP618  TYR619  PRO620  LYS621  CYS622 
 ASP623  PHE694  ASN695  SER759  ASP760  ASP761  ALA762  ILE779  LEU786  VAL792 
 PHE793  MET794  SER795  GLU796  ALA797  LYS798  CYS799  TRP800  GLU811  SER814 

> <Gold.Protein.RotatedAtoms>
  151.7260  135.0884  160.0291 H   0  0  0  0  0  0  0  0  0  0  0  0  # atno 6907 bound_to 6896
  152.3571  133.6247  159.5996 H   0  0  0  0  0  0  0  0  0  0  0  0  # atno 6908 bound_to 6896
  150.7579  133.9398  159.3494 H   0  0  0  0  0  0  0  0  0  0  0  0  # atno 6909 bound_to 6896
  145.1346  139.3306  143.4647 H   0  0  0  0  0  0  0  0  0  0  0  0  # atno 7974 bound_to 7965
  155.4294  140.3450  155.4278 H   0  0  0  0  0  0  0  0  0  0  0  0  # atno 8008 bound_to 7997
  156.1345  140.1524  156.9045 H   0  0  0  0  0  0  0  0  0  0  0  0  # atno 8009 bound_to 7997
  154.4921  140.0838  156.7597 H   0  0  0  0  0  0  0  0  0  0  0  0  # atno 8010 bound_to 7997
  140.6270  143.8079  150.7246 H   0  0  0  0  0  0  0  0  0  0  0  0  # atno 10167 bound_to 10162
  157.3032  130.7361  149.6680 H   0  0  0  0  0  0  0  0  0  0  0  0  # atno 10718 bound_to 10713
  153.5659  135.7008  153.5526 H   0  0  0  0  0  0  0  0  0  0  0  0  # atno 10763 bound_to 10752
  153.3388  135.4027  155.1555 H   0  0  0  0  0  0  0  0  0  0  0  0  # atno 10764 bound_to 10752
  154.8641  135.3737  154.5178 H   0  0  0  0  0  0  0  0  0  0  0  0  # atno 10765 bound_to 10752
  141.0848  133.9158  157.2210 H   0  0  0  0  0  0  0  0  0  0  0  0  # atno 11005 bound_to 11000
  146.3511  140.1359  142.8596 LP  0  0  0  0  0  0  0  0  0  0  0  0  # atno 17320 bound_to 7965
  145.0598  140.9079  143.4945 LP  0  0  0  0  0  0  0  0  0  0  0  0  # atno 17321 bound_to 7965
  140.1682  143.4217  152.2019 LP  0  0  0  0  0  0  0  0  0  0  0  0  # atno 17342 bound_to 10162
  139.5489  144.7321  151.4497 LP  0  0  0  0  0  0  0  0  0  0  0  0  # atno 17343 bound_to 10162
  155.9673  130.4273  150.4739 LP  0  0  0  0  0  0  0  0  0  0  0  0  # atno 17370 bound_to 10713
  157.2724  131.0590  151.2251 LP  0  0  0  0  0  0  0  0  0  0  0  0  # atno 17371 bound_to 10713
  139.9665  135.0140  156.9401 LP  0  0  0  0  0  0  0  0  0  0  0  0  # atno 17394 bound_to 11000
  140.5388  134.0741  155.7335 LP  0  0  0  0  0  0  0  0  0  0  0  0  # atno 17395 bound_to 11000

$$$$
