AV-unprocessed.smi:283|AV-procd|sdf|2150|dock1
  -GOLD-   2262021483D 1   1.00000     0.00000
 Structure written by MMmdl.
 48 51  0  0  0  0  0  0  0  0  1 V2000
  150.2802  141.2263  155.7535 C   0  0  0  0  0  0  0  0  0  0  0  0
  150.2599  140.9013  157.2533 C   0  0  1  0  0  0  0  0  0  0  0  0
  150.5423  139.4814  157.4514 N   0  0  0  0  0  0  0  0  0  0  0  0
  149.5916  138.5376  157.2700 C   0  0  0  0  0  0  0  0  0  0  0  0
  149.4470  137.6574  158.2888 N   0  0  0  0  0  0  0  0  0  0  0  0
  148.5217  136.6979  158.2191 C   0  0  0  0  0  0  0  0  0  0  0  0
  147.6550  136.4468  157.2379 N   0  0  0  0  0  0  0  0  0  0  0  0
  147.8006  137.3168  156.1963 C   0  0  0  0  0  0  0  0  0  0  0  0
  148.7443  138.3837  156.1321 C   0  0  0  0  0  0  0  0  0  0  0  0
  148.6063  139.0444  154.9173 N   0  0  0  0  0  0  0  0  0  0  0  0
  147.6324  138.4197  154.3160 C   0  0  0  0  0  0  0  0  0  0  0  0
  147.0878  137.3652  155.0120 N   0  0  0  0  0  0  0  0  0  0  0  0
  145.9672  136.4736  154.5616 C   0  0  2  0  0  0  0  0  0  0  0  0
  146.3467  135.8346  153.3803 O   0  0  0  0  0  0  0  0  0  0  0  0
  145.2944  135.9023  152.4226 C   0  0  2  0  0  0  0  0  0  0  0  0
  145.8398  135.7911  150.9874 C   0  0  0  0  0  0  0  0  0  0  0  0
  144.8223  136.0844  150.0537 O   0  0  0  0  0  0  0  0  0  0  0  0
  144.5680  137.2136  152.7566 C   0  0  2  0  0  0  0  0  0  0  0  0
  145.1905  138.3286  152.1415 O   0  0  0  0  0  0  0  0  0  0  0  0
  144.6651  137.2505  154.2772 C   0  0  2  0  0  0  0  0  0  0  0  0
  144.5929  138.5588  154.8196 O   0  0  0  0  0  0  0  0  0  0  0  0
  151.1852  141.8544  158.0162 C   0  0  0  0  0  0  0  0  0  0  0  0
  151.0218  143.2537  157.8865 C   0  0  0  0  0  0  0  0  0  0  0  0
  151.8688  144.1429  158.5739 C   0  0  0  0  0  0  0  0  0  0  0  0
  152.8843  143.6429  159.4082 C   0  0  0  0  0  0  0  0  0  0  0  0
  153.0463  142.2534  159.5582 C   0  0  0  0  0  0  0  0  0  0  0  0
  152.2010  141.3583  158.8723 C   0  0  0  0  0  0  0  0  0  0  0  0
  152.4377  139.6616  159.1072 Cl  0  0  0  0  0  0  0  0  0  0  0  0
  145.8603  135.7512  155.3718 H   0  0  0  0  0  0  0  0  0  0  0  0
  144.6048  135.0801  152.6242 H   0  0  0  0  0  0  0  0  0  0  0  0
  143.5300  137.1883  152.4232 H   0  0  0  0  0  0  0  0  0  0  0  0
  143.8467  136.6614  154.6930 H   0  0  0  0  0  0  0  0  0  0  0  0
  149.9817  142.2591  155.5708 H   0  0  0  0  0  0  0  0  0  0  0  0
  149.5923  140.5842  155.2029 H   0  0  0  0  0  0  0  0  0  0  0  0
  151.2762  141.0882  155.3309 H   0  0  0  0  0  0  0  0  0  0  0  0
  149.2369  141.0520  157.5944 H   0  0  0  0  0  0  0  0  0  0  0  0
  151.3905  139.2886  157.9639 H   0  0  0  0  0  0  0  0  0  0  0  0
  148.4653  136.0381  159.0722 H   0  0  0  0  0  0  0  0  0  0  0  0
  147.2858  138.7090  153.3348 H   0  0  0  0  0  0  0  0  0  0  0  0
  146.6397  136.5157  150.8320 H   0  0  0  0  0  0  0  0  0  0  0  0
  146.2547  134.8013  150.7943 H   0  0  0  0  0  0  0  0  0  0  0  0
  144.6588  137.0149  150.0678 H   0  0  0  0  0  0  0  0  0  0  0  0
  144.6517  139.0918  152.2810 H   0  0  0  0  0  0  0  0  0  0  0  0
  143.9933  139.0679  154.2963 H   0  0  0  0  0  0  0  0  0  0  0  0
  150.2456  143.6561  157.2523 H   0  0  0  0  0  0  0  0  0  0  0  0
  151.7393  145.2091  158.4598 H   0  0  0  0  0  0  0  0  0  0  0  0
  153.5358  144.3238  159.9359 H   0  0  0  0  0  0  0  0  0  0  0  0
  153.8232  141.8731  160.2048 H   0  0  0  0  0  0  0  0  0  0  0  0
  1  2  1  0  0  0  0
  1 33  1  0  0  0  0
  1 34  1  0  0  0  0
  1 35  1  0  0  0  0
  2  3  1  0  0  0  0
  2 22  1  0  0  0  0
  2 36  1  0  0  0  0
  3  4  1  0  0  0  0
  3 37  1  0  0  0  0
  4  9  1  0  0  0  0
  4  5  2  0  0  0  0
  5  6  1  0  0  0  0
  6  7  2  0  0  0  0
  6 38  1  0  0  0  0
  7  8  1  0  0  0  0
  8 12  1  0  0  0  0
  8  9  2  0  0  0  0
  9 10  1  0  0  0  0
 10 11  2  0  0  0  0
 11 12  1  0  0  0  0
 11 39  1  0  0  0  0
 12 13  1  0  0  0  0
 13 29  1  0  0  0  0
 13 20  1  0  0  0  0
 13 14  1  0  0  0  0
 14 15  1  0  0  0  0
 15 30  1  0  0  0  0
 15 16  1  0  0  0  0
 15 18  1  0  0  0  0
 16 17  1  0  0  0  0
 16 40  1  0  0  0  0
 16 41  1  0  0  0  0
 17 42  1  0  0  0  0
 18 31  1  0  0  0  0
 18 19  1  0  0  0  0
 18 20  1  0  0  0  0
 19 43  1  0  0  0  0
 20 32  1  0  0  0  0
 20 21  1  0  0  0  0
 21 44  1  0  0  0  0
 22 27  1  0  0  0  0
 22 23  2  0  0  0  0
 23 24  1  0  0  0  0
 23 45  1  0  0  0  0
 24 25  2  0  0  0  0
 24 46  1  0  0  0  0
 25 26  1  0  0  0  0
 25 47  1  0  0  0  0
 26 27  2  0  0  0  0
 26 48  1  0  0  0  0
 27 28  1  0  0  0  0
M  END
> <s_m_source_file>
AV-unprocessed.smi

> <i_m_source_file_index>
283

> <i_lp_mmshare_version>
43012

> <i_f3d_flags>
0

> <s_epik_input>
Q2xjMVtjSF1bY0hdW2NIXVtjSF1jMVtDQEhdKFtDSDNdKVtOSF1jKG5bY0hdbjIpYyhjMjMpbltjSF1uM1tDQEBIXTRPW0NASF0oW0NIMl1bT0hdKVtDQEBIXShbT0hdKVtDQEhdNFtPSF0=

> <s_epik_cmdline>
J2VwaWtfcHl0aG9uJywgJy1waCcsICc3LjAnLCAnLXRuJywgJzgnLCAnLW1hJywgJzIwMCcsICctbWV0YWxfYmluZGluZycsICctaW1hZScsICc8aW5maWxlLm1hZT4nLCAnLW9tYWUnLCAnPG91dGZpbGUubWFlPic=

> <r_lp_tautomer_probability>
1

> <r_epik_Ionization_Penalty>
0.000266407

> <r_epik_Ionization_Penalty_Charging>
0

> <r_epik_Ionization_Penalty_Neutral>
0.000266407

> <r_epik_State_Penalty>
-0

> <r_epik_Charging_Adjusted_Penalty>
0

> <i_epik_Tot_Q>
0

> <i_epik_Tot_abs_Q>
0

> <r_epik_Metal_State_Penalty>
-0

> <b_epik_Metal_Only>
0

> <s_epik_Chemistry_Notes>
This compound contains an acetal/aminal-like group ( X-CH(R)-Y where X, Y are N, S, or O) that may be acid/base labile, releasing an aldehyde.

> <s_lp_Force_Field>
OPLS_2005

> <r_lp_Energy>
56.8802

> <b_lp_Chiralities_Consistent>
1

> <s_lp_Variant>
AV-unprocessed.smi:283-26

> <Gold.Version>
5.8.1

> <Gold.Id.Protein>
6NUR|6NUR_protein|mol2

> <Gold.PLP.Fitness>
47.2323

> <Gold.PLP.PLP>
-39.6310

> <Gold.PLP.part.hbond>
-5.0000

> <Gold.PLP.part.metal>
0.0000

> <Gold.PLP.part.buried>
-4.8445

> <Gold.PLP.part.nonpolar>
-29.8791

> <Gold.PLP.part.repulsive>
0.2313

> <Gold.PLP.ligand.clash>
0.0000

> <Gold.PLP.ligand.torsion>
0.8303

> <Gold.PLP.Chemscore.Hbond>
3.0000

> <Gold.PLP.Chemscore.CHOScore>
0.0000

> <Gold.PLP.Chemscore.Metal>
0.0000

> <Gold.Chemscore.Hbonds>
donor molecule, donor type, donor heavy atom, donor atom, acceptor molecule, acceptor atom, score
      L1  H    17    42       P1 10171  1.00
      L1  H    19    43       P1 10175  1.00
      L1  H    21    44       P1 10175  0.32

> <Gold.PLP.Chemscore.Internal.Correction>
0.2618

> <Gold.Rescore>
     Score         DG    S(hbond)    S(metal)    S(lipo)     H(rot)  DE(clash)    DE(int)     intcor
     13.47     -16.27       2.99        0.00      96.46       4.10       0.16       2.64       ----

> <Gold.Chemscore.Fitness>
13.4707

> <Gold.Chemscore.DG>
-16.2687

> <Gold.Chemscore.ZeroCoef>
-5.4800

> <Gold.Chemscore.Hbond>
2.9911

> <Gold.Chemscore.Metal>
0.0000

> <Gold.Chemscore.Lipo>
96.4648

> <Gold.Chemscore.Internal_Hbond>
0.0000

> <Gold.Chemscore.DEClash>
0.1563

> <Gold.Chemscore.DEInternal>
2.6418

> <Gold.Chemscore.Rot>
4.0968

> <Gold.Chemscore.Internal.Correction>
   9.000000E+99

> <Gold.Chemscore.Hbonds>
donor molecule, donor type, donor heavy atom, donor atom, acceptor molecule, acceptor atom, score
      L1  H    17    42       P1 10171  1.00
      L1  H    19    43       P1 10175  1.00
      L1  H    21    44       P1 10175  0.31

> <Gold.Chemscore.Hbond.Weighted>
-9.9902

> <Gold.Chemscore.Metal.Weighted>
-0.0000

> <Gold.Chemscore.Lipo.Weighted>
-11.2864

> <Gold.Chemscore.Internal_Hbond.Weighted>
0.0000

> <Gold.Chemscore.DEClash.Weighted>
0.1563

> <Gold.Chemscore.DEInternal.Weighted>
2.6418

> <Gold.Chemscore.Rot.Weighted>
10.4879

> <Gold.Chemscore.Internal.Correction.Weighted>
   9.000000E+99

> <Gold.Protein.RotatedTorsions>
[ 6907 6896 6895 6894 ] final -155.16 input  -60.11 | X-H torsion
[ 7974 7965 7964 7962 ] final  141.66 input  175.53 | X-H torsion
[ 8008 7997 7996 7995 ] final   48.92 input   59.86 | X-H torsion
[ 10167 10162 10161 10158 ] final  157.50 input  -65.29 | X-H torsion
[ 10718 10713 10712 10709 ] final  153.51 input   66.30 | X-H torsion
[ 10763 10752 10751 10750 ] final -130.21 input  -60.55 | X-H torsion
[ 11005 11000 10999 10996 ] final  144.33 input  -57.11 | X-H torsion

> <Gold.Protein.ActiveResidues>
 VAL166  LYS551  ARG553  GLY616  TRP617  ASP618  TYR619  PRO620  LYS621  CYS622 
 ASP623  PHE694  ASN695  SER759  ASP760  ASP761  ALA762  ILE779  LEU786  VAL792 
 PHE793  MET794  SER795  GLU796  ALA797  LYS798  CYS799  TRP800  GLU811  SER814 

> <Gold.Protein.RotatedAtoms>
  151.2683  133.4268  159.2619 H   0  0  0  0  0  0  0  0  0  0  0  0  # atno 6907 bound_to 6896
  151.0468  134.9646  159.8201 H   0  0  0  0  0  0  0  0  0  0  0  0  # atno 6908 bound_to 6896
  152.5375  134.2638  159.8998 H   0  0  0  0  0  0  0  0  0  0  0  0  # atno 6909 bound_to 6896
  144.9077  139.5336  143.5724 H   0  0  0  0  0  0  0  0  0  0  0  0  # atno 7974 bound_to 7965
  155.3937  140.3434  155.4253 H   0  0  0  0  0  0  0  0  0  0  0  0  # atno 8008 bound_to 7997
  156.1543  140.1580  156.8751 H   0  0  0  0  0  0  0  0  0  0  0  0  # atno 8009 bound_to 7997
  154.5080  140.0797  156.7915 H   0  0  0  0  0  0  0  0  0  0  0  0  # atno 8010 bound_to 7997
  139.4823  144.4911  151.8306 H   0  0  0  0  0  0  0  0  0  0  0  0  # atno 10167 bound_to 10162
  157.2438  131.0764  151.1775 H   0  0  0  0  0  0  0  0  0  0  0  0  # atno 10718 bound_to 10713
  154.8756  135.3870  154.4047 H   0  0  0  0  0  0  0  0  0  0  0  0  # atno 10763 bound_to 10752
  153.4767  135.7030  153.5967 H   0  0  0  0  0  0  0  0  0  0  0  0  # atno 10764 bound_to 10752
  153.4400  135.3858  155.2190 H   0  0  0  0  0  0  0  0  0  0  0  0  # atno 10765 bound_to 10752
  140.0624  134.9197  157.1206 H   0  0  0  0  0  0  0  0  0  0  0  0  # atno 11005 bound_to 11000
  146.3142  139.7858  142.8996 LP  0  0  0  0  0  0  0  0  0  0  0  0  # atno 17320 bound_to 7965
  145.3508  141.0307  143.3340 LP  0  0  0  0  0  0  0  0  0  0  0  0  # atno 17321 bound_to 7965
  140.4396  144.2005  150.5891 LP  0  0  0  0  0  0  0  0  0  0  0  0  # atno 17342 bound_to 10162
  140.4697  143.2417  151.9106 LP  0  0  0  0  0  0  0  0  0  0  0  0  # atno 17343 bound_to 10162
  157.3351  130.7004  149.6347 LP  0  0  0  0  0  0  0  0  0  0  0  0  # atno 17370 bound_to 10713
  155.9669  130.4296  150.4840 LP  0  0  0  0  0  0  0  0  0  0  0  0  # atno 17371 bound_to 10713
  140.3750  134.2349  155.7175 LP  0  0  0  0  0  0  0  0  0  0  0  0  # atno 17394 bound_to 11000
  141.1978  133.8049  157.0609 LP  0  0  0  0  0  0  0  0  0  0  0  0  # atno 17395 bound_to 11000

$$$$
