AV-unprocessed.smi:3232|AV-procd|sdf|12340|dock7
  -GOLD-   2272018203D 1   1.00000     0.00000
 Structure written by MMmdl.
 40 41  0  0  0  0  0  0  0  0  2 V2000
  147.9875  139.4728  153.2333 C   0  0  0  0  0  0  0  0  0  0  0  0
  148.8345  140.4664  154.0419 C   0  0  0  0  0  0  0  0  0  0  0  0
  149.8208  139.7842  154.9213 N   0  3  1  0  0  0  0  0  0  0  0  0
  150.7826  138.9180  154.1998 C   0  0  0  0  0  0  0  0  0  0  0  0
  152.0193  138.8417  155.0871 C   0  0  0  0  0  0  0  0  0  0  0  0
  152.0793  140.2432  155.6730 C   0  0  0  0  0  0  0  0  0  0  0  0
  150.6028  140.6228  155.8824 C   0  0  1  0  0  0  0  0  0  0  0  0
  150.3404  142.1499  155.8380 C   0  0  0  0  0  0  0  0  0  0  0  0
  151.0790  142.8452  156.8874 N   0  0  0  0  0  0  0  0  0  0  0  0
  150.6808  142.9835  158.1628 C   0  0  0  0  0  0  0  0  0  0  0  0
  149.6633  142.4537  158.6106 O   0  0  0  0  0  0  0  0  0  0  0  0
  151.5570  143.8817  159.0503 C   0  0  2  0  0  0  0  0  0  0  0  0
  152.6167  144.6683  158.2525 C   0  0  0  0  0  0  0  0  0  0  0  0
  152.1547  143.0912  160.1200 N   0  0  0  0  0  0  0  0  0  0  0  0
  153.0560  142.1087  160.0601 C   0  0  0  0  0  0  0  0  0  0  0  0
  153.4261  141.6442  161.2450 N   0  0  0  0  0  0  0  0  0  0  0  0
  152.6640  142.4411  162.0510 C   0  0  0  0  0  0  0  0  0  0  0  0
  151.8944  143.3340  161.4291 N   0  0  0  0  0  0  0  0  0  0  0  0
  147.2252  139.9985  152.6578 H   0  0  0  0  0  0  0  0  0  0  0  0
  147.4773  138.7648  153.8870 H   0  0  0  0  0  0  0  0  0  0  0  0
  148.5923  138.9045  152.5261 H   0  0  0  0  0  0  0  0  0  0  0  0
  149.3434  141.1562  153.3672 H   0  0  0  0  0  0  0  0  0  0  0  0
  148.1502  141.0549  154.6524 H   0  0  0  0  0  0  0  0  0  0  0  0
  150.3625  137.9336  153.9916 H   0  0  0  0  0  0  0  0  0  0  0  0
  151.0507  139.3785  153.2473 H   0  0  0  0  0  0  0  0  0  0  0  0
  151.8704  138.1088  155.8811 H   0  0  0  0  0  0  0  0  0  0  0  0
  152.9213  138.5711  154.5373 H   0  0  0  0  0  0  0  0  0  0  0  0
  152.6641  140.2915  156.5926 H   0  0  0  0  0  0  0  0  0  0  0  0
  152.5438  140.9125  154.9475 H   0  0  0  0  0  0  0  0  0  0  0  0
  150.3104  140.2659  156.8710 H   0  0  0  0  0  0  0  0  0  0  0  0
  150.5859  142.5609  154.8576 H   0  0  0  0  0  0  0  0  0  0  0  0
  149.2852  142.3597  156.0109 H   0  0  0  0  0  0  0  0  0  0  0  0
  151.9344  143.3051  156.6108 H   0  0  0  0  0  0  0  0  0  0  0  0
  150.8966  144.6123  159.5202 H   0  0  0  0  0  0  0  0  0  0  0  0
  152.1508  145.2973  157.4933 H   0  0  0  0  0  0  0  0  0  0  0  0
  153.3231  144.0082  157.7471 H   0  0  0  0  0  0  0  0  0  0  0  0
  153.1904  145.3223  158.9098 H   0  0  0  0  0  0  0  0  0  0  0  0
  153.4573  141.7313  159.1308 H   0  0  0  0  0  0  0  0  0  0  0  0
  152.6842  142.3679  163.1285 H   0  0  0  0  0  0  0  0  0  0  0  0
  149.2815  139.1626  155.5070 H   0  0  0  0  0  0  0  0  0  0  0  0
  1  2  1  0  0  0  0
  1 19  1  0  0  0  0
  1 20  1  0  0  0  0
  1 21  1  0  0  0  0
  2  3  1  0  0  0  0
  2 22  1  0  0  0  0
  2 23  1  0  0  0  0
  3  7  1  0  0  0  0
  3  4  1  0  0  0  0
  3 40  1  0  0  0  0
  4  5  1  0  0  0  0
  4 24  1  0  0  0  0
  4 25  1  0  0  0  0
  5  6  1  0  0  0  0
  5 26  1  0  0  0  0
  5 27  1  0  0  0  0
  6  7  1  0  0  0  0
  6 28  1  0  0  0  0
  6 29  1  0  0  0  0
  7  8  1  0  0  0  0
  7 30  1  0  0  0  0
  8  9  1  0  0  0  0
  8 31  1  0  0  0  0
  8 32  1  0  0  0  0
  9 10  1  0  0  0  0
  9 33  1  0  0  0  0
 10 11  2  0  0  0  0
 10 12  1  0  0  0  0
 12 13  1  0  0  0  0
 12 14  1  0  0  0  0
 12 34  1  0  0  0  0
 13 35  1  0  0  0  0
 13 36  1  0  0  0  0
 13 37  1  0  0  0  0
 14 18  1  0  0  0  0
 14 15  1  0  0  0  0
 15 16  2  0  0  0  0
 15 38  1  0  0  0  0
 16 17  1  0  0  0  0
 17 18  2  0  0  0  0
 17 39  1  0  0  0  0
M  CHG  1   3   1
M  END
> <s_m_source_file>
AV-unprocessed.smi

> <i_m_source_file_index>
3232

> <i_lp_mmshare_version>
43012

> <i_f3d_flags>
0

> <s_epik_input>
W0NIM11bQ0gyXU4xW0NIMl1bQ0gyXVtDSDJdW0NASF0xW0NIMl1bTkhdQyg9TylbQ0BIXShbQ0gzXSluMltjSF1uW2NIXW4y

> <s_epik_cmdline>
J2VwaWtfcHl0aG9uJywgJy1waCcsICc3LjAnLCAnLXRuJywgJzgnLCAnLW1hJywgJzIwMCcsICctbWV0YWxfYmluZGluZycsICctaW1hZScsICc8aW5maWxlLm1hZT4nLCAnLW9tYWUnLCAnPG91dGZpbGUubWFlPic=

> <r_lp_tautomer_probability>
1

> <r_epik_Ionization_Penalty>
0.00177695

> <r_epik_Ionization_Penalty_Charging>
0.00176881

> <r_epik_Ionization_Penalty_Neutral>
8.13528e-06

> <r_epik_State_Penalty>
0.00119827

> <r_epik_Charging_Adjusted_Penalty>
0.00296709

> <i_epik_Tot_Q>
1

> <i_epik_Tot_abs_Q>
1

> <r_epik_Metal_State_Penalty>
-0

> <b_epik_Metal_Only>
0

> <s_lp_Force_Field>
OPLS_2005

> <r_lp_Energy>
36.2264

> <b_lp_Chiralities_Consistent>
1

> <s_lp_Variant>
AV-unprocessed.smi:3232-2

> <Gold.Version>
5.8.1

> <Gold.Id.Protein>
6NUR|6NUR_protein|mol2

> <Gold.PLP.Fitness>
41.9465

> <Gold.PLP.PLP>
-42.5588

> <Gold.PLP.part.hbond>
-1.3613

> <Gold.PLP.part.metal>
0.0000

> <Gold.PLP.part.buried>
-3.7265

> <Gold.PLP.part.nonpolar>
-38.2648

> <Gold.PLP.part.repulsive>
0.3531

> <Gold.PLP.ligand.clash>
0.0714

> <Gold.PLP.ligand.torsion>
0.3430

> <Gold.PLP.Chemscore.Hbond>
0.0000

> <Gold.PLP.Chemscore.CHOScore>
0.0000

> <Gold.PLP.Chemscore.Metal>
0.0000

> <Gold.PLP.Chemscore.Internal.Correction>
0.1451

> <Gold.Rescore>
     Score         DG    S(hbond)    S(metal)    S(lipo)     H(rot)  DE(clash)    DE(int)     intcor
      6.83      -8.44       0.00        0.00      79.75       2.49       1.52       0.09       ----

> <Gold.Chemscore.Fitness>
6.8297

> <Gold.Chemscore.DG>
-8.4407

> <Gold.Chemscore.ZeroCoef>
-5.4800

> <Gold.Chemscore.Hbond>
0.0000

> <Gold.Chemscore.Metal>
0.0000

> <Gold.Chemscore.Lipo>
79.7475

> <Gold.Chemscore.Internal_Hbond>
0.0000

> <Gold.Chemscore.DEClash>
1.5208

> <Gold.Chemscore.DEInternal>
0.0902

> <Gold.Chemscore.Rot>
2.4882

> <Gold.Chemscore.Internal.Correction>
   9.000000E+99

> <Gold.Chemscore.Hbond.Weighted>
-0.0000

> <Gold.Chemscore.Metal.Weighted>
-0.0000

> <Gold.Chemscore.Lipo.Weighted>
-9.3305

> <Gold.Chemscore.Internal_Hbond.Weighted>
0.0000

> <Gold.Chemscore.DEClash.Weighted>
1.5208

> <Gold.Chemscore.DEInternal.Weighted>
0.0902

> <Gold.Chemscore.Rot.Weighted>
6.3697

> <Gold.Chemscore.Internal.Correction.Weighted>
   9.000000E+99

> <Gold.Protein.RotatedTorsions>
[ 6907 6896 6895 6894 ] final   55.89 input  -60.11 | X-H torsion
[ 7974 7965 7964 7962 ] final   54.62 input  175.53 | X-H torsion
[ 8008 7997 7996 7995 ] final  -84.36 input   59.86 | X-H torsion
[ 10167 10162 10161 10158 ] final -112.07 input  -65.29 | X-H torsion
[ 10718 10713 10712 10709 ] final  -12.30 input   66.30 | X-H torsion
[ 10763 10752 10751 10750 ] final  -11.13 input  -60.55 | X-H torsion
[ 11005 11000 10999 10996 ] final   -9.39 input  -57.11 | X-H torsion

> <Gold.Protein.ActiveResidues>
 VAL166  LYS551  ARG553  GLY616  TRP617  ASP618  TYR619  PRO620  LYS621  CYS622 
 ASP623  PHE694  ASN695  SER759  ASP760  ASP761  ALA762  ILE779  LEU786  VAL792 
 PHE793  MET794  SER795  GLU796  ALA797  LYS798  CYS799  TRP800  GLU811  SER814 

> <Gold.Protein.RotatedAtoms>
  152.3583  134.6909  160.0215 H   0  0  0  0  0  0  0  0  0  0  0  0  # atno 6907 bound_to 6896
  151.7241  133.3310  159.3331 H   0  0  0  0  0  0  0  0  0  0  0  0  # atno 6908 bound_to 6896
  150.7586  134.6356  159.6254 H   0  0  0  0  0  0  0  0  0  0  0  0  # atno 6909 bound_to 6896
  145.9590  139.4041  143.0260 H   0  0  0  0  0  0  0  0  0  0  0  0  # atno 7974 bound_to 7965
  154.6290  140.0606  156.9709 H   0  0  0  0  0  0  0  0  0  0  0  0  # atno 8008 bound_to 7997
  155.1696  140.3290  155.4377 H   0  0  0  0  0  0  0  0  0  0  0  0  # atno 8009 bound_to 7997
  156.2473  140.1916  156.6799 H   0  0  0  0  0  0  0  0  0  0  0  0  # atno 8010 bound_to 7997
  140.1267  143.4396  152.1655 H   0  0  0  0  0  0  0  0  0  0  0  0  # atno 10167 bound_to 10162
  156.6466  130.4943  149.6076 H   0  0  0  0  0  0  0  0  0  0  0  0  # atno 10718 bound_to 10713
  153.4793  135.7017  153.5947 H   0  0  0  0  0  0  0  0  0  0  0  0  # atno 10763 bound_to 10752
  153.4167  135.3835  155.2085 H   0  0  0  0  0  0  0  0  0  0  0  0  # atno 10764 bound_to 10752
  154.8722  135.3918  154.4241 H   0  0  0  0  0  0  0  0  0  0  0  0  # atno 10765 bound_to 10752
  140.7336  133.8728  155.8912 H   0  0  0  0  0  0  0  0  0  0  0  0  # atno 11005 bound_to 11000
  145.8066  140.9745  143.0970 LP  0  0  0  0  0  0  0  0  0  0  0  0  # atno 17320 bound_to 7965
  144.6811  139.9869  143.7484 LP  0  0  0  0  0  0  0  0  0  0  0  0  # atno 17321 bound_to 7965
  139.5541  144.7359  151.4348 LP  0  0  0  0  0  0  0  0  0  0  0  0  # atno 17342 bound_to 10162
  140.6841  143.8015  150.7161 LP  0  0  0  0  0  0  0  0  0  0  0  0  # atno 17343 bound_to 10162
  156.2117  130.6683  151.1276 LP  0  0  0  0  0  0  0  0  0  0  0  0  # atno 17370 bound_to 10713
  157.7154  131.0712  150.6346 LP  0  0  0  0  0  0  0  0  0  0  0  0  # atno 17371 bound_to 10713
  140.9899  134.1293  157.4418 LP  0  0  0  0  0  0  0  0  0  0  0  0  # atno 17394 bound_to 11000
  139.8821  135.0037  156.6203 LP  0  0  0  0  0  0  0  0  0  0  0  0  # atno 17395 bound_to 11000

$$$$
