AV-unprocessed.smi:234|AV-procd|sdf|1792|dock9
  -GOLD-   2262020353D 1   1.00000     0.00000
 Structure written by MMmdl.
 59 62  0  0  0  0  0  0  0  0  1 V2000
  143.9379  141.1200  156.6316 C   0  0  0  0  0  0  0  0  0  0  0  0
  145.3418  141.5785  157.0472 C   0  0  0  0  0  0  0  0  0  0  0  0
  146.2930  141.3052  156.0280 O   0  0  0  0  0  0  0  0  0  0  0  0
  147.6213  141.7121  156.3431 C   0  0  1  0  0  0  0  0  0  0  0  0
  148.3239  140.7021  157.2574 C   0  0  0  0  0  0  0  0  0  0  0  0
  148.7571  139.9895  155.9700 C   0  0  2  0  0  0  0  0  0  0  0  0
  150.1080  139.4270  156.0120 N   0  0  0  0  0  0  0  0  0  0  0  0
  150.6623  138.9859  154.7392 C   0  0  0  0  0  0  0  0  0  0  0  0
  150.2893  138.4911  156.9691 C   0  0  0  0  0  0  0  0  0  0  0  0
  151.5648  138.1245  157.2452 N   0  0  0  0  0  0  0  0  0  0  0  0
  151.8058  137.2146  158.1942 C   0  0  0  0  0  0  0  0  0  0  0  0
  150.9345  136.5621  158.9671 N   0  0  0  0  0  0  0  0  0  0  0  0
  149.6501  136.9250  158.6851 C   0  0  0  0  0  0  0  0  0  0  0  0
  149.2399  137.8697  157.7034 C   0  0  0  0  0  0  0  0  0  0  0  0
  147.8542  137.9686  157.6888 N   0  0  0  0  0  0  0  0  0  0  0  0
  147.4670  137.1345  158.6141 C   0  0  0  0  0  0  0  0  0  0  0  0
  148.4806  136.4776  159.2756 N   0  0  0  0  0  0  0  0  0  0  0  0
  148.3342  135.5139  160.3559 C   0  0  0  0  0  0  0  0  0  0  0  0
  147.3516  135.9693  161.4639 C   0  0  2  0  0  0  0  0  0  0  0  0
  147.7535  137.2510  161.9169 O   0  0  0  0  0  0  0  0  0  0  0  0
  147.3578  135.0167  162.6639 C   0  0  0  0  0  0  0  0  0  0  0  0
  146.0023  134.3241  162.5915 C   0  0  0  0  0  0  0  0  0  0  0  0
  145.1607  135.3384  162.0734 O   0  0  0  0  0  0  0  0  0  0  0  0
  145.8670  135.9633  161.0112 C   0  0  1  0  0  0  0  0  0  0  0  0
  145.2331  137.3221  160.6686 C   0  0  0  0  0  0  0  0  0  0  0  0
  148.6372  141.3477  155.2291 C   0  0  0  0  0  0  0  0  0  0  0  0
  148.0854  141.3007  153.8020 C   0  0  0  0  0  0  0  0  0  0  0  0
  149.8776  142.2563  155.1949 C   0  0  0  0  0  0  0  0  0  0  0  0
  143.2262  141.2740  157.4428 H   0  0  0  0  0  0  0  0  0  0  0  0
  143.9334  140.0587  156.3829 H   0  0  0  0  0  0  0  0  0  0  0  0
  143.5705  141.6688  155.7652 H   0  0  0  0  0  0  0  0  0  0  0  0
  145.3446  142.6343  157.3212 H   0  0  0  0  0  0  0  0  0  0  0  0
  145.6437  141.0262  157.9369 H   0  0  0  0  0  0  0  0  0  0  0  0
  147.6994  142.7479  156.6750 H   0  0  0  0  0  0  0  0  0  0  0  0
  149.1481  141.1415  157.8216 H   0  0  0  0  0  0  0  0  0  0  0  0
  147.6676  140.1133  157.8985 H   0  0  0  0  0  0  0  0  0  0  0  0
  147.9985  139.2818  155.6304 H   0  0  0  0  0  0  0  0  0  0  0  0
  151.6778  138.6076  154.8637 H   0  0  0  0  0  0  0  0  0  0  0  0
  150.7018  139.8101  154.0284 H   0  0  0  0  0  0  0  0  0  0  0  0
  150.0514  138.1940  154.3042 H   0  0  0  0  0  0  0  0  0  0  0  0
  152.8462  136.9777  158.3605 H   0  0  0  0  0  0  0  0  0  0  0  0
  146.4230  136.9827  158.8465 H   0  0  0  0  0  0  0  0  0  0  0  0
  147.9976  134.5709  159.9230 H   0  0  0  0  0  0  0  0  0  0  0  0
  149.3207  135.3190  160.7791 H   0  0  0  0  0  0  0  0  0  0  0  0
  147.4256  137.3740  162.7946 H   0  0  0  0  0  0  0  0  0  0  0  0
  148.1849  134.3058  162.6518 H   0  0  0  0  0  0  0  0  0  0  0  0
  147.4197  135.5687  163.6034 H   0  0  0  0  0  0  0  0  0  0  0  0
  146.0298  133.4782  161.9027 H   0  0  0  0  0  0  0  0  0  0  0  0
  145.6567  133.9688  163.5625 H   0  0  0  0  0  0  0  0  0  0  0  0
  145.7557  135.3024  160.1506 H   0  0  0  0  0  0  0  0  0  0  0  0
  145.7840  137.8267  159.8743 H   0  0  0  0  0  0  0  0  0  0  0  0
  145.2080  137.9838  161.5348 H   0  0  0  0  0  0  0  0  0  0  0  0
  144.2063  137.1922  160.3266 H   0  0  0  0  0  0  0  0  0  0  0  0
  148.8449  140.9885  153.0850 H   0  0  0  0  0  0  0  0  0  0  0  0
  147.7162  142.2769  153.4866 H   0  0  0  0  0  0  0  0  0  0  0  0
  147.2575  140.5972  153.7128 H   0  0  0  0  0  0  0  0  0  0  0  0
  150.6268  141.8963  154.4898 H   0  0  0  0  0  0  0  0  0  0  0  0
  150.3631  142.3265  156.1682 H   0  0  0  0  0  0  0  0  0  0  0  0
  149.6148  143.2715  154.8963 H   0  0  0  0  0  0  0  0  0  0  0  0
  1  2  1  0  0  0  0
  1 29  1  0  0  0  0
  1 30  1  0  0  0  0
  1 31  1  0  0  0  0
  2  3  1  0  0  0  0
  2 32  1  0  0  0  0
  2 33  1  0  0  0  0
  3  4  1  0  0  0  0
  4 26  1  0  0  0  0
  4  5  1  0  0  0  0
  4 34  1  0  0  0  0
  5  6  1  0  0  0  0
  5 35  1  0  0  0  0
  5 36  1  0  0  0  0
  6  7  1  0  0  0  0
  6 26  1  0  0  0  0
  6 37  1  0  0  0  0
  7  8  1  0  0  0  0
  7  9  1  0  0  0  0
  8 38  1  0  0  0  0
  8 39  1  0  0  0  0
  8 40  1  0  0  0  0
  9 14  1  0  0  0  0
  9 10  2  0  0  0  0
 10 11  1  0  0  0  0
 11 12  2  0  0  0  0
 11 41  1  0  0  0  0
 12 13  1  0  0  0  0
 13 17  1  0  0  0  0
 13 14  2  0  0  0  0
 14 15  1  0  0  0  0
 15 16  2  0  0  0  0
 16 17  1  0  0  0  0
 16 42  1  0  0  0  0
 17 18  1  0  0  0  0
 18 19  1  0  0  0  0
 18 43  1  0  0  0  0
 18 44  1  0  0  0  0
 19 24  1  0  0  0  0
 19 20  1  0  0  0  0
 19 21  1  0  0  0  0
 20 45  1  0  0  0  0
 21 22  1  0  0  0  0
 21 46  1  0  0  0  0
 21 47  1  0  0  0  0
 22 23  1  0  0  0  0
 22 48  1  0  0  0  0
 22 49  1  0  0  0  0
 23 24  1  0  0  0  0
 24 25  1  0  0  0  0
 24 50  1  0  0  0  0
 25 51  1  0  0  0  0
 25 52  1  0  0  0  0
 25 53  1  0  0  0  0
 26 27  1  0  0  0  0
 26 28  1  0  0  0  0
 27 54  1  0  0  0  0
 27 55  1  0  0  0  0
 27 56  1  0  0  0  0
 28 57  1  0  0  0  0
 28 58  1  0  0  0  0
 28 59  1  0  0  0  0
M  END
> <s_m_source_file>
AV-unprocessed.smi

> <i_m_source_file_index>
234

> <i_lp_mmshare_version>
43012

> <i_f3d_flags>
0

> <s_epik_input>
W0NIM11bQ0gyXU9bQ0BASF0oQzEoW0NIM10pW0NIM10pW0NIMl1bQ0BIXTFOKFtDSDNdKWMobltjSF1uMiljKGMyMyluW2NIXW4zW0NIMl1bQ0BAXTQoW09IXSlbQ0gyXVtDSDJdT1tDQEhdNFtDSDNd

> <s_epik_cmdline>
J2VwaWtfcHl0aG9uJywgJy1waCcsICc3LjAnLCAnLXRuJywgJzgnLCAnLW1hJywgJzIwMCcsICctbWV0YWxfYmluZGluZycsICctaW1hZScsICc8aW5maWxlLm1hZT4nLCAnLW9tYWUnLCAnPG91dGZpbGUubWFlPic=

> <r_lp_tautomer_probability>
1

> <r_epik_Ionization_Penalty>
0.00349132

> <r_epik_Ionization_Penalty_Charging>
0

> <r_epik_Ionization_Penalty_Neutral>
0.00349132

> <r_epik_State_Penalty>
0.00242418

> <r_epik_Charging_Adjusted_Penalty>
0.00242418

> <i_epik_Tot_Q>
0

> <i_epik_Tot_abs_Q>
0

> <r_epik_Metal_State_Penalty>
-0

> <b_epik_Metal_Only>
0

> <s_lp_Force_Field>
OPLS_2005

> <r_lp_Energy>
49.6192

> <b_lp_Chiralities_Consistent>
1

> <s_lp_Variant>
AV-unprocessed.smi:234-8

> <Gold.Version>
5.8.1

> <Gold.Id.Protein>
6NUR|6NUR_protein|mol2

> <Gold.PLP.Fitness>
40.7242

> <Gold.PLP.PLP>
-33.3056

> <Gold.PLP.part.hbond>
-3.0000

> <Gold.PLP.part.metal>
0.0000

> <Gold.PLP.part.buried>
-1.3111

> <Gold.PLP.part.nonpolar>
-27.9849

> <Gold.PLP.part.repulsive>
0.0641

> <Gold.PLP.ligand.clash>
0.0000

> <Gold.PLP.ligand.torsion>
0.5893

> <Gold.PLP.Chemscore.Hbond>
2.6100

> <Gold.PLP.Chemscore.CHOScore>
0.0000

> <Gold.PLP.Chemscore.Metal>
0.0000

> <Gold.Chemscore.Hbonds>
donor molecule, donor type, donor heavy atom, donor atom, acceptor molecule, acceptor atom, score
      P1  H  6896  6909       L1    12  1.00
      P1  H  6931  6943       L1    20  1.00
      P1  H  6934  6947       L1    20  0.51

> <Gold.PLP.Chemscore.Internal.Correction>
0.7672

> <Gold.Rescore>
     Score         DG    S(hbond)    S(metal)    S(lipo)     H(rot)  DE(clash)    DE(int)     intcor
      9.32     -14.77       1.93        0.00      81.75       2.62       2.43       3.02       ----

> <Gold.Chemscore.Fitness>
9.3240

> <Gold.Chemscore.DG>
-14.7740

> <Gold.Chemscore.ZeroCoef>
-5.4800

> <Gold.Chemscore.Hbond>
1.9285

> <Gold.Chemscore.Metal>
0.0000

> <Gold.Chemscore.Lipo>
81.7527

> <Gold.Chemscore.Internal_Hbond>
0.0000

> <Gold.Chemscore.DEClash>
2.4332

> <Gold.Chemscore.DEInternal>
3.0169

> <Gold.Chemscore.Rot>
2.6219

> <Gold.Chemscore.Internal.Correction>
   9.000000E+99

> <Gold.Chemscore.Hbonds>
donor molecule, donor type, donor heavy atom, donor atom, acceptor molecule, acceptor atom, score
      P1  H  6896  6909       L1    12  0.93
      P1  H  6931  6943       L1    20  0.28
      P1  H  6934  6947       L1    20  0.20

> <Gold.Chemscore.Hbond.Weighted>
-6.4411

> <Gold.Chemscore.Metal.Weighted>
-0.0000

> <Gold.Chemscore.Lipo.Weighted>
-9.5651

> <Gold.Chemscore.Internal_Hbond.Weighted>
0.0000

> <Gold.Chemscore.DEClash.Weighted>
2.4332

> <Gold.Chemscore.DEInternal.Weighted>
3.0169

> <Gold.Chemscore.Rot.Weighted>
6.7121

> <Gold.Chemscore.Internal.Correction.Weighted>
   9.000000E+99

> <Gold.Protein.RotatedTorsions>
[ 6907 6896 6895 6894 ] final  102.29 input  -60.11 | X-H torsion
[ 7974 7965 7964 7962 ] final -106.94 input  175.53 | X-H torsion
[ 8008 7997 7996 7995 ] final  -77.85 input   59.86 | X-H torsion
[ 10167 10162 10161 10158 ] final -143.42 input  -65.29 | X-H torsion
[ 10718 10713 10712 10709 ] final -162.29 input   66.30 | X-H torsion
[ 10763 10752 10751 10750 ] final   63.53 input  -60.55 | X-H torsion
[ 11005 11000 10999 10996 ] final  147.27 input  -57.11 | X-H torsion

> <Gold.Protein.ActiveResidues>
 VAL166  LYS551  ARG553  GLY616  TRP617  ASP618  TYR619  PRO620  LYS621  CYS622 
 ASP623  PHE694  ASN695  SER759  ASP760  ASP761  ALA762  ILE779  LEU786  VAL792 
 PHE793  MET794  SER795  GLU796  ALA797  LYS798  CYS799  TRP800  GLU811  SER814 

> <Gold.Protein.RotatedAtoms>
  152.5327  133.9998  159.7889 H   0  0  0  0  0  0  0  0  0  0  0  0  # atno 6907 bound_to 6896
  151.0219  133.5861  159.2677 H   0  0  0  0  0  0  0  0  0  0  0  0  # atno 6908 bound_to 6896
  151.2898  135.0745  159.9253 H   0  0  0  0  0  0  0  0  0  0  0  0  # atno 6909 bound_to 6896
  145.2115  140.9098  143.3311 H   0  0  0  0  0  0  0  0  0  0  0  0  # atno 7974 bound_to 7965
  154.5634  140.0704  156.8854 H   0  0  0  0  0  0  0  0  0  0  0  0  # atno 8008 bound_to 7997
  155.2769  140.3369  155.4243 H   0  0  0  0  0  0  0  0  0  0  0  0  # atno 8009 bound_to 7997
  156.2061  140.1740  156.7783 H   0  0  0  0  0  0  0  0  0  0  0  0  # atno 8010 bound_to 7997
  139.7995  143.7854  152.2657 H   0  0  0  0  0  0  0  0  0  0  0  0  # atno 10167 bound_to 10162
  156.6084  130.8840  151.2930 H   0  0  0  0  0  0  0  0  0  0  0  0  # atno 10718 bound_to 10713
  153.0021  135.5426  154.6366 H   0  0  0  0  0  0  0  0  0  0  0  0  # atno 10763 bound_to 10752
  154.5631  135.2835  155.0902 H   0  0  0  0  0  0  0  0  0  0  0  0  # atno 10764 bound_to 10752
  154.2097  135.6469  153.5164 H   0  0  0  0  0  0  0  0  0  0  0  0  # atno 10765 bound_to 10752
  140.0862  134.9068  157.1579 H   0  0  0  0  0  0  0  0  0  0  0  0  # atno 11005 bound_to 11000
  144.9851  139.3745  143.6243 LP  0  0  0  0  0  0  0  0  0  0  0  0  # atno 17320 bound_to 7965
  146.3396  139.9009  142.8794 LP  0  0  0  0  0  0  0  0  0  0  0  0  # atno 17321 bound_to 7965
  139.7969  144.7389  150.9877 LP  0  0  0  0  0  0  0  0  0  0  0  0  # atno 17342 bound_to 10162
  140.7820  143.4384  151.0588 LP  0  0  0  0  0  0  0  0  0  0  0  0  # atno 17343 bound_to 10162
  157.7261  130.9624  150.1641 LP  0  0  0  0  0  0  0  0  0  0  0  0  # atno 17370 bound_to 10713
  156.2410  130.3691  149.8337 LP  0  0  0  0  0  0  0  0  0  0  0  0  # atno 17371 bound_to 10713
  140.3417  134.2697  155.7211 LP  0  0  0  0  0  0  0  0  0  0  0  0  # atno 17394 bound_to 11000
  141.2063  133.7836  157.0183 LP  0  0  0  0  0  0  0  0  0  0  0  0  # atno 17395 bound_to 11000

$$$$
