AV-unprocessed.smi:1207|AV-procd|sdf|5056|dock8
  -GOLD-   22720 4 93D 1   1.00000     0.00000
 Structure written by MMmdl.
 52 54  0  0  0  0  0  0  0  0  2 V2000
  151.7441  143.4947  160.3493 C   0  0  0  0  0  0  0  0  0  0  0  0
  151.6765  142.5572  159.1555 C   0  0  0  0  0  0  0  0  0  0  0  0
  150.8349  142.9025  158.0736 C   0  0  0  0  0  0  0  0  0  0  0  0
  150.7897  142.0218  156.9993 C   0  0  0  0  0  0  0  0  0  0  0  0
  150.0687  142.0708  155.8040 N   0  3  0  0  0  0  0  0  0  0  0  0
  150.3524  140.9680  155.0567 C   0  0  0  0  0  0  0  0  0  0  0  0
  151.2452  140.2176  155.7573 N   0  0  0  0  0  0  0  0  0  0  0  0
  151.8741  138.9349  155.4172 C   0  0  0  0  0  0  0  0  0  0  0  0
  150.8523  137.8654  154.9858 C   0  0  1  0  0  0  0  0  0  0  0  0
  151.4966  136.9252  154.1483 O   0  0  0  0  0  0  0  0  0  0  0  0
  150.2669  137.1201  156.2018 C   0  0  0  0  0  0  0  0  0  0  0  0
  149.6902  135.8029  155.9200 N   0  0  0  0  0  0  0  0  0  0  0  0
  148.5101  135.5396  156.7447 C   0  0  0  0  0  0  0  0  0  0  0  0
  150.6970  134.7556  156.0988 C   0  0  0  0  0  0  0  0  0  0  0  0
  150.2589  133.4188  155.5566 C   0  0  0  0  0  0  0  0  0  0  0  0
  149.1820  133.1412  154.6670 C   0  0  0  0  0  0  0  0  0  0  0  0
  148.2150  134.1062  154.0437 C   0  0  0  0  0  0  0  0  0  0  0  0
  149.0838  131.8501  154.3975 N   0  0  0  0  0  0  0  0  0  0  0  0
  150.1134  131.2302  155.1126 O   0  0  0  0  0  0  0  0  0  0  0  0
  150.7974  132.1840  155.7941 C   0  0  0  0  0  0  0  0  0  0  0  0
  151.9479  131.7202  156.6216 C   0  0  0  0  0  0  0  0  0  0  0  0
  151.5471  140.8350  156.9750 C   0  0  0  0  0  0  0  0  0  0  0  0
  152.3836  140.4808  158.0302 C   0  0  0  0  0  0  0  0  0  0  0  0
  152.4409  141.3618  159.1337 C   0  0  0  0  0  0  0  0  0  0  0  0
  153.3411  140.9999  160.3025 C   0  0  0  0  0  0  0  0  0  0  0  0
  151.1250  144.3794  160.1978 H   0  0  0  0  0  0  0  0  0  0  0  0
  152.7675  143.8306  160.5180 H   0  0  0  0  0  0  0  0  0  0  0  0
  151.3911  142.9915  161.2498 H   0  0  0  0  0  0  0  0  0  0  0  0
  150.2498  143.8104  158.0833 H   0  0  0  0  0  0  0  0  0  0  0  0
  149.9409  140.7290  154.0866 H   0  0  0  0  0  0  0  0  0  0  0  0
  152.5897  139.1231  154.6153 H   0  0  0  0  0  0  0  0  0  0  0  0
  152.4543  138.5978  156.2770 H   0  0  0  0  0  0  0  0  0  0  0  0
  150.0646  138.3518  154.4131 H   0  0  0  0  0  0  0  0  0  0  0  0
  151.1511  137.0227  153.2737 H   0  0  0  0  0  0  0  0  0  0  0  0
  151.0640  137.0173  156.9399 H   0  0  0  0  0  0  0  0  0  0  0  0
  149.5081  137.7452  156.6749 H   0  0  0  0  0  0  0  0  0  0  0  0
  148.0913  134.5556  156.5336 H   0  0  0  0  0  0  0  0  0  0  0  0
  147.7163  136.2589  156.5509 H   0  0  0  0  0  0  0  0  0  0  0  0
  148.7552  135.5786  157.8067 H   0  0  0  0  0  0  0  0  0  0  0  0
  151.6157  135.0531  155.5917 H   0  0  0  0  0  0  0  0  0  0  0  0
  150.9630  134.6819  157.1540 H   0  0  0  0  0  0  0  0  0  0  0  0
  148.7375  134.9702  153.6326 H   0  0  0  0  0  0  0  0  0  0  0  0
  147.4994  134.4703  154.7810 H   0  0  0  0  0  0  0  0  0  0  0  0
  147.6509  133.6459  153.2313 H   0  0  0  0  0  0  0  0  0  0  0  0
  152.1730  132.4366  157.4119 H   0  0  0  0  0  0  0  0  0  0  0  0
  152.8403  131.6043  156.0068 H   0  0  0  0  0  0  0  0  0  0  0  0
  151.7300  130.7601  157.0894 H   0  0  0  0  0  0  0  0  0  0  0  0
  152.9643  139.5702  158.0125 H   0  0  0  0  0  0  0  0  0  0  0  0
  153.8463  140.0476  160.1377 H   0  0  0  0  0  0  0  0  0  0  0  0
  152.7605  140.9139  161.2214 H   0  0  0  0  0  0  0  0  0  0  0  0
  154.1068  141.7627  160.4456 H   0  0  0  0  0  0  0  0  0  0  0  0
  149.4283  142.8000  155.5173 H   0  0  0  0  0  0  0  0  0  0  0  0
  1  2  1  0  0  0  0
  1 26  1  0  0  0  0
  1 27  1  0  0  0  0
  1 28  1  0  0  0  0
  2 24  1  0  0  0  0
  2  3  2  0  0  0  0
  3  4  1  0  0  0  0
  3 29  1  0  0  0  0
  4 22  2  0  0  0  0
  4  5  1  0  0  0  0
  5  6  2  0  0  0  0
  5 52  1  0  0  0  0
  6  7  1  0  0  0  0
  6 30  1  0  0  0  0
  7  8  1  0  0  0  0
  7 22  1  0  0  0  0
  8  9  1  0  0  0  0
  8 31  1  0  0  0  0
  8 32  1  0  0  0  0
  9 10  1  0  0  0  0
  9 11  1  0  0  0  0
  9 33  1  0  0  0  0
 10 34  1  0  0  0  0
 11 12  1  0  0  0  0
 11 35  1  0  0  0  0
 11 36  1  0  0  0  0
 12 13  1  0  0  0  0
 12 14  1  0  0  0  0
 13 37  1  0  0  0  0
 13 38  1  0  0  0  0
 13 39  1  0  0  0  0
 14 15  1  0  0  0  0
 14 40  1  0  0  0  0
 14 41  1  0  0  0  0
 15 20  2  0  0  0  0
 15 16  1  0  0  0  0
 16 17  1  0  0  0  0
 16 18  2  0  0  0  0
 17 42  1  0  0  0  0
 17 43  1  0  0  0  0
 17 44  1  0  0  0  0
 18 19  1  0  0  0  0
 19 20  1  0  0  0  0
 20 21  1  0  0  0  0
 21 45  1  0  0  0  0
 21 46  1  0  0  0  0
 21 47  1  0  0  0  0
 22 23  1  0  0  0  0
 23 24  2  0  0  0  0
 23 48  1  0  0  0  0
 24 25  1  0  0  0  0
 25 49  1  0  0  0  0
 25 50  1  0  0  0  0
 25 51  1  0  0  0  0
M  CHG  1   5   1
M  END
> <s_m_source_file>
AV-unprocessed.smi

> <i_m_source_file_index>
1207

> <i_lp_mmshare_version>
43012

> <i_f3d_flags>
0

> <s_epik_input>
W0NIM11jKFtjSF0xKWMoW0NIM10pW2NIXWMoYzEyKW4oW2NIXW4yKVtDSDJdW0NASF0oW09IXSlbQ0gyXU4oW0NIM10pW0NIMl1jM2MoW0NIM10pbm9jM1tDSDNd

> <s_epik_cmdline>
J2VwaWtfcHl0aG9uJywgJy1waCcsICc3LjAnLCAnLXRuJywgJzgnLCAnLW1hJywgJzIwMCcsICctbWV0YWxfYmluZGluZycsICctaW1hZScsICc8aW5maWxlLm1hZT4nLCAnLW9tYWUnLCAnPG91dGZpbGUubWFlPic=

> <r_epik_Ionization_Penalty>
1.48114

> <r_epik_Ionization_Penalty_Charging>
1.21121

> <r_epik_Ionization_Penalty_Neutral>
0.269933

> <r_epik_State_Penalty>
1.53013

> <r_epik_Charging_Adjusted_Penalty>
2.74134

> <i_epik_Tot_Q>
1

> <i_epik_Tot_abs_Q>
1

> <r_epik_Metal_State_Penalty>
1.60462

> <b_epik_Metal_Only>
0

> <s_lp_Force_Field>
OPLS_2005

> <r_lp_Energy>
20.0432

> <b_lp_Chiralities_Consistent>
1

> <s_lp_Variant>
AV-unprocessed.smi:1207-8

> <Gold.Version>
5.8.1

> <Gold.Id.Protein>
6NUR|6NUR_protein|mol2

> <Gold.PLP.Fitness>
52.6874

> <Gold.PLP.PLP>
-44.3476

> <Gold.PLP.part.hbond>
-3.0000

> <Gold.PLP.part.metal>
0.0000

> <Gold.PLP.part.buried>
-4.2454

> <Gold.PLP.part.nonpolar>
-36.3150

> <Gold.PLP.part.repulsive>
0.2188

> <Gold.PLP.ligand.clash>
0.0000

> <Gold.PLP.ligand.torsion>
1.2761

> <Gold.PLP.Chemscore.Hbond>
3.5810

> <Gold.PLP.Chemscore.CHOScore>
0.0000

> <Gold.PLP.Chemscore.Metal>
0.0000

> <Gold.Chemscore.Hbonds>
donor molecule, donor type, donor heavy atom, donor atom, acceptor molecule, acceptor atom, score
      L1  H     5    52       P1  8028  1.92
      L1  H    10    34       P1  7949  0.71
      P1  H 10752 10763       L1    10  1.00

> <Gold.PLP.Chemscore.Internal.Correction>
0.1491

> <Gold.Rescore>
     Score         DG    S(hbond)    S(metal)    S(lipo)     H(rot)  DE(clash)    DE(int)     intcor
     15.54     -19.64       2.13        0.00     113.91       2.46       0.72       3.38       ----

> <Gold.Chemscore.Fitness>
15.5407

> <Gold.Chemscore.DG>
-19.6365

> <Gold.Chemscore.ZeroCoef>
-5.4800

> <Gold.Chemscore.Hbond>
2.1302

> <Gold.Chemscore.Metal>
0.0000

> <Gold.Chemscore.Lipo>
113.9124

> <Gold.Chemscore.Internal_Hbond>
0.0000

> <Gold.Chemscore.DEClash>
0.7173

> <Gold.Chemscore.DEInternal>
3.3785

> <Gold.Chemscore.Rot>
2.4555

> <Gold.Chemscore.Internal.Correction>
   9.000000E+99

> <Gold.Chemscore.Hbonds>
donor molecule, donor type, donor heavy atom, donor atom, acceptor molecule, acceptor atom, score
      L1  H     5    52       P1  8028  0.89
      L1  H    10    34       P1  7949  0.34
      P1  H 10752 10763       L1    10  0.90

> <Gold.Chemscore.Hbond.Weighted>
-7.1148

> <Gold.Chemscore.Metal.Weighted>
-0.0000

> <Gold.Chemscore.Lipo.Weighted>
-13.3277

> <Gold.Chemscore.Internal_Hbond.Weighted>
0.0000

> <Gold.Chemscore.DEClash.Weighted>
0.7173

> <Gold.Chemscore.DEInternal.Weighted>
3.3785

> <Gold.Chemscore.Rot.Weighted>
6.2861

> <Gold.Chemscore.Internal.Correction.Weighted>
   9.000000E+99

> <Gold.Protein.RotatedTorsions>
[ 6907 6896 6895 6894 ] final -133.33 input  -60.11 | X-H torsion
[ 7974 7965 7964 7962 ] final -161.78 input  175.53 | X-H torsion
[ 8008 7997 7996 7995 ] final  -11.86 input   59.86 | X-H torsion
[ 10167 10162 10161 10158 ] final  -17.29 input  -65.29 | X-H torsion
[ 10718 10713 10712 10709 ] final  134.16 input   66.30 | X-H torsion
[ 10763 10752 10751 10750 ] final   43.87 input  -60.55 | X-H torsion
[ 11005 11000 10999 10996 ] final  -89.71 input  -57.11 | X-H torsion

> <Gold.Protein.ActiveResidues>
 VAL166  LYS551  ARG553  GLY616  TRP617  ASP618  TYR619  PRO620  LYS621  CYS622 
 ASP623  PHE694  ASN695  SER759  ASP760  ASP761  ALA762  ILE779  LEU786  VAL792 
 PHE793  MET794  SER795  GLU796  ALA797  LYS798  CYS799  TRP800  GLU811  SER814 

> <Gold.Protein.RotatedAtoms>
  150.9728  133.6326  159.2734 H   0  0  0  0  0  0  0  0  0  0  0  0  # atno 6907 bound_to 6896
  151.3609  135.0902  159.9444 H   0  0  0  0  0  0  0  0  0  0  0  0  # atno 6908 bound_to 6896
  152.5189  133.9302  159.7631 H   0  0  0  0  0  0  0  0  0  0  0  0  # atno 6909 bound_to 6896
  144.7379  140.3348  143.6146 H   0  0  0  0  0  0  0  0  0  0  0  0  # atno 7974 bound_to 7965
  154.5428  140.2291  155.8613 H   0  0  0  0  0  0  0  0  0  0  0  0  # atno 8008 bound_to 7997
  156.1874  140.3085  155.9228 H   0  0  0  0  0  0  0  0  0  0  0  0  # atno 8009 bound_to 7997
  155.3224  140.0441  157.3030 H   0  0  0  0  0  0  0  0  0  0  0  0  # atno 8010 bound_to 7997
  140.7245  143.5031  150.9845 H   0  0  0  0  0  0  0  0  0  0  0  0  # atno 10167 bound_to 10162
  157.4700  131.1079  150.9814 H   0  0  0  0  0  0  0  0  0  0  0  0  # atno 10718 bound_to 10713
  152.9852  135.6088  154.3182 H   0  0  0  0  0  0  0  0  0  0  0  0  # atno 10763 bound_to 10752
  154.2893  135.2775  155.2664 H   0  0  0  0  0  0  0  0  0  0  0  0  # atno 10764 bound_to 10752
  154.4966  135.5878  153.6556 H   0  0  0  0  0  0  0  0  0  0  0  0  # atno 10765 bound_to 10752
  141.1579  133.7647  156.9634 H   0  0  0  0  0  0  0  0  0  0  0  0  # atno 11005 bound_to 11000
  145.7435  139.1771  143.2362 LP  0  0  0  0  0  0  0  0  0  0  0  0  # atno 17320 bound_to 7965
  146.1116  140.7421  142.9500 LP  0  0  0  0  0  0  0  0  0  0  0  0  # atno 17321 bound_to 7965
  139.8741  143.7155  152.3163 LP  0  0  0  0  0  0  0  0  0  0  0  0  # atno 17342 bound_to 10162
  139.7414  144.7558  151.0646 LP  0  0  0  0  0  0  0  0  0  0  0  0  # atno 17343 bound_to 10162
  157.0582  130.5815  149.5381 LP  0  0  0  0  0  0  0  0  0  0  0  0  # atno 17370 bound_to 10713
  156.0069  130.5156  150.7859 LP  0  0  0  0  0  0  0  0  0  0  0  0  # atno 17371 bound_to 10713
  140.1177  134.9436  157.2159 LP  0  0  0  0  0  0  0  0  0  0  0  0  # atno 17394 bound_to 11000
  140.3111  134.3022  155.7266 LP  0  0  0  0  0  0  0  0  0  0  0  0  # atno 17395 bound_to 11000

$$$$
