AV-unprocessed.smi:1493|AV-procd|sdf|6049|dock7
  -GOLD-   22720 6163D 1   1.00000     0.00000
 Structure written by MMmdl.
 33 33  0  0  0  0  0  0  0  0  2 V2000
  152.5814  144.6903  158.2572 C   0  0  0  0  0  0  0  0  0  0  0  0
  151.9115  144.3132  159.5830 C   0  0  0  0  0  0  0  0  0  0  0  0
  152.7564  143.3301  160.4121 C   0  0  0  0  0  0  0  0  0  0  0  0
  153.2353  142.0985  159.6193 C   0  0  1  0  0  0  0  0  0  0  0  0
  153.7221  140.9790  160.5500 C   0  0  0  0  0  0  0  0  0  0  0  0
  152.1604  141.5862  158.7714 N   0  0  0  0  0  0  0  0  0  0  0  0
  152.2141  140.4872  158.0025 C   0  0  0  0  0  0  0  0  0  0  0  0
  153.2079  139.7628  157.9258 O   0  0  0  0  0  0  0  0  0  0  0  0
  150.9378  140.1810  157.2026 C   0  0  0  0  0  0  0  0  0  0  0  0
  150.9479  138.8765  156.5252 N   0  0  0  0  0  0  0  0  0  0  0  0
  150.9554  137.7380  157.4398 N   0  5  0  0  0  0  0  0  0  0  0  0
  150.9439  136.4782  156.9291 C   0  0  0  0  0  0  0  0  0  0  0  0
  150.9327  135.4728  157.6356 O   0  0  0  0  0  0  0  0  0  0  0  0
  150.9498  136.3254  155.4838 C   0  0  0  0  0  0  0  0  0  0  0  0
  150.9644  137.3946  154.6634 C   0  0  0  0  0  0  0  0  0  0  0  0
  150.9703  138.7630  155.1664 C   0  0  0  0  0  0  0  0  0  0  0  0
  150.9899  139.7442  154.4228 O   0  0  0  0  0  0  0  0  0  0  0  0
  151.9611  145.3877  157.6940 H   0  0  0  0  0  0  0  0  0  0  0  0
  152.7433  143.8109  157.6333 H   0  0  0  0  0  0  0  0  0  0  0  0
  153.5480  145.1657  158.4254 H   0  0  0  0  0  0  0  0  0  0  0  0
  151.7257  145.2227  160.1553 H   0  0  0  0  0  0  0  0  0  0  0  0
  150.9342  143.8742  159.3789 H   0  0  0  0  0  0  0  0  0  0  0  0
  153.6278  143.8588  160.8005 H   0  0  0  0  0  0  0  0  0  0  0  0
  152.1856  143.0059  161.2835 H   0  0  0  0  0  0  0  0  0  0  0  0
  154.0847  142.4070  159.0076 H   0  0  0  0  0  0  0  0  0  0  0  0
  154.5371  141.3253  161.1860 H   0  0  0  0  0  0  0  0  0  0  0  0
  154.0910  140.1265  159.9786 H   0  0  0  0  0  0  0  0  0  0  0  0
  152.9210  140.6242  161.1994 H   0  0  0  0  0  0  0  0  0  0  0  0
  151.3011  142.1162  158.7631 H   0  0  0  0  0  0  0  0  0  0  0  0
  150.0796  140.2415  157.8741 H   0  0  0  0  0  0  0  0  0  0  0  0
  150.7916  140.9805  156.4736 H   0  0  0  0  0  0  0  0  0  0  0  0
  150.9446  135.3325  155.0590 H   0  0  0  0  0  0  0  0  0  0  0  0
  150.9693  137.2343  153.5957 H   0  0  0  0  0  0  0  0  0  0  0  0
  1  2  1  0  0  0  0
  1 18  1  0  0  0  0
  1 19  1  0  0  0  0
  1 20  1  0  0  0  0
  2  3  1  0  0  0  0
  2 21  1  0  0  0  0
  2 22  1  0  0  0  0
  3  4  1  0  0  0  0
  3 23  1  0  0  0  0
  3 24  1  0  0  0  0
  4  5  1  0  0  0  0
  4  6  1  0  0  0  0
  4 25  1  0  0  0  0
  5 26  1  0  0  0  0
  5 27  1  0  0  0  0
  5 28  1  0  0  0  0
  6  7  1  0  0  0  0
  6 29  1  0  0  0  0
  7  8  2  0  0  0  0
  7  9  1  0  0  0  0
  9 30  1  0  0  0  0
  9 31  1  0  0  0  0
  9 10  1  0  0  0  0
 10 11  1  0  0  0  0
 10 16  1  0  0  0  0
 11 12  1  0  0  0  0
 12 13  2  0  0  0  0
 12 14  1  0  0  0  0
 14 32  1  0  0  0  0
 14 15  2  0  0  0  0
 15 33  1  0  0  0  0
 15 16  1  0  0  0  0
 16 17  2  0  0  0  0
M  CHG  1  11  -1
M  END
> <s_m_source_file>
AV-unprocessed.smi

> <i_m_source_file_index>
1493

> <i_lp_mmshare_version>
43012

> <i_f3d_flags>
0

> <s_epik_input>
W0NIM11bQ0gyXVtDSDJdW0NASF0oW0NIM10pW05IXUMoPU8pW0NIMl1uMVtuSF1jKD1PKVtjSF1bY0hdYzE9Tw==

> <s_epik_cmdline>
J2VwaWtfcHl0aG9uJywgJy1waCcsICc3LjAnLCAnLXRuJywgJzgnLCAnLW1hJywgJzIwMCcsICctbWV0YWxfYmluZGluZycsICctaW1hZScsICc8aW5maWxlLm1hZT4nLCAnLW9tYWUnLCAnPG91dGZpbGUubWFlPic=

> <r_lp_tautomer_probability>
1

> <r_epik_Ionization_Penalty>
0.0986298

> <r_epik_Ionization_Penalty_Charging>
0.0986298

> <r_epik_Ionization_Penalty_Neutral>
1.93017e-08

> <r_epik_State_Penalty>
0.0347731

> <r_epik_Charging_Adjusted_Penalty>
0.133403

> <i_epik_Tot_Q>
-1

> <i_epik_Tot_abs_Q>
1

> <r_epik_Metal_State_Penalty>
0.0347731

> <b_epik_Metal_Only>
0

> <s_lp_Force_Field>
OPLS_2005

> <r_lp_Energy>
19.264

> <b_lp_Chiralities_Consistent>
1

> <s_lp_Variant>
AV-unprocessed.smi:1493-2

> <Gold.Version>
5.8.1

> <Gold.Id.Protein>
6NUR|6NUR_protein|mol2

> <Gold.PLP.Fitness>
42.1457

> <Gold.PLP.PLP>
-35.0155

> <Gold.PLP.part.hbond>
-3.0000

> <Gold.PLP.part.metal>
0.0000

> <Gold.PLP.part.buried>
-4.8431

> <Gold.PLP.part.nonpolar>
-27.4909

> <Gold.PLP.part.repulsive>
0.2119

> <Gold.PLP.ligand.clash>
0.0000

> <Gold.PLP.ligand.torsion>
0.3012

> <Gold.PLP.Chemscore.Hbond>
2.5710

> <Gold.PLP.Chemscore.CHOScore>
0.0000

> <Gold.PLP.Chemscore.Metal>
0.0000

> <Gold.Chemscore.Hbonds>
donor molecule, donor type, donor heavy atom, donor atom, acceptor molecule, acceptor atom, score
      P1  H  6896  6908       L1    13  0.30
      P1  H  7989  7998       L1    17  1.00
      P1  H  7997  8009       L1     8  1.00

> <Gold.PLP.Chemscore.Internal.Correction>
0.0197

> <Gold.Rescore>
     Score         DG    S(hbond)    S(metal)    S(lipo)     H(rot)  DE(clash)    DE(int)     intcor
     17.02     -18.67       2.88        0.00      77.30       2.14       0.07       1.58       ----

> <Gold.Chemscore.Fitness>
17.0195

> <Gold.Chemscore.DG>
-18.6748

> <Gold.Chemscore.ZeroCoef>
-5.4800

> <Gold.Chemscore.Hbond>
2.8810

> <Gold.Chemscore.Metal>
0.0000

> <Gold.Chemscore.Lipo>
77.2956

> <Gold.Chemscore.Internal_Hbond>
0.0000

> <Gold.Chemscore.DEClash>
0.0706

> <Gold.Chemscore.DEInternal>
1.5847

> <Gold.Chemscore.Rot>
2.1372

> <Gold.Chemscore.Internal.Correction>
   9.000000E+99

> <Gold.Chemscore.Hbonds>
donor molecule, donor type, donor heavy atom, donor atom, acceptor molecule, acceptor atom, score
      P1  H  6896  6908       L1    13  0.28
      P1  H  7989  7998       L1    17  0.98
      P1  H  7997  8009       L1     8  0.96

> <Gold.Chemscore.Hbond.Weighted>
-9.6226

> <Gold.Chemscore.Metal.Weighted>
-0.0000

> <Gold.Chemscore.Lipo.Weighted>
-9.0436

> <Gold.Chemscore.Internal_Hbond.Weighted>
0.0000

> <Gold.Chemscore.DEClash.Weighted>
0.0706

> <Gold.Chemscore.DEInternal.Weighted>
1.5847

> <Gold.Chemscore.Rot.Weighted>
5.4713

> <Gold.Chemscore.Internal.Correction.Weighted>
   9.000000E+99

> <Gold.Protein.RotatedTorsions>
[ 6907 6896 6895 6894 ] final  173.21 input  -60.11 | X-H torsion
[ 7974 7965 7964 7962 ] final -117.52 input  175.53 | X-H torsion
[ 8008 7997 7996 7995 ] final  172.46 input   59.86 | X-H torsion
[ 10167 10162 10161 10158 ] final  120.24 input  -65.29 | X-H torsion
[ 10718 10713 10712 10709 ] final  133.20 input   66.30 | X-H torsion
[ 10763 10752 10751 10750 ] final  -67.28 input  -60.55 | X-H torsion
[ 11005 11000 10999 10996 ] final -112.41 input  -57.11 | X-H torsion

> <Gold.Protein.ActiveResidues>
 VAL166  LYS551  ARG553  GLY616  TRP617  ASP618  TYR619  PRO620  LYS621  CYS622 
 ASP623  PHE694  ASN695  SER759  ASP760  ASP761  ALA762  ILE779  LEU786  VAL792 
 PHE793  MET794  SER795  GLU796  ALA797  LYS798  CYS799  TRP800  GLU811  SER814 

> <Gold.Protein.RotatedAtoms>
  151.7719  133.3342  159.3446 H   0  0  0  0  0  0  0  0  0  0  0  0  # atno 6907 bound_to 6896
  150.7458  134.6011  159.6046 H   0  0  0  0  0  0  0  0  0  0  0  0  # atno 6908 bound_to 6896
  152.3335  134.7229  160.0334 H   0  0  0  0  0  0  0  0  0  0  0  0  # atno 6909 bound_to 6896
  145.0843  140.8447  143.4020 H   0  0  0  0  0  0  0  0  0  0  0  0  # atno 7974 bound_to 7965
  156.1172  140.1485  156.9255 H   0  0  0  0  0  0  0  0  0  0  0  0  # atno 8008 bound_to 7997
  154.4809  140.0879  156.7417 H   0  0  0  0  0  0  0  0  0  0  0  0  # atno 8009 bound_to 7997
  155.4492  140.3434  155.4301 H   0  0  0  0  0  0  0  0  0  0  0  0  # atno 8010 bound_to 7997
  139.5994  144.7052  151.3097 H   0  0  0  0  0  0  0  0  0  0  0  0  # atno 10167 bound_to 10162
  157.4797  131.1085  150.9698 H   0  0  0  0  0  0  0  0  0  0  0  0  # atno 10718 bound_to 10713
  154.3722  135.6092  153.5746 H   0  0  0  0  0  0  0  0  0  0  0  0  # atno 10763 bound_to 10752
  152.9790  135.5840  154.4509 H   0  0  0  0  0  0  0  0  0  0  0  0  # atno 10764 bound_to 10752
  154.4264  135.2847  155.1919 H   0  0  0  0  0  0  0  0  0  0  0  0  # atno 10765 bound_to 10752
  141.0677  133.9432  157.2547 H   0  0  0  0  0  0  0  0  0  0  0  0  # atno 11005 bound_to 11000
  145.1141  139.2737  143.5622 LP  0  0  0  0  0  0  0  0  0  0  0  0  # atno 17320 bound_to 7965
  146.3531  140.0745  142.8621 LP  0  0  0  0  0  0  0  0  0  0  0  0  # atno 17321 bound_to 7965
  140.7238  143.7061  150.7806 LP  0  0  0  0  0  0  0  0  0  0  0  0  # atno 17342 bound_to 10162
  140.0635  143.5132  152.2616 LP  0  0  0  0  0  0  0  0  0  0  0  0  # atno 17343 bound_to 10162
  157.0435  130.5758  149.5359 LP  0  0  0  0  0  0  0  0  0  0  0  0  # atno 17370 bound_to 10713
  156.0115  130.5207  150.8002 LP  0  0  0  0  0  0  0  0  0  0  0  0  # atno 17371 bound_to 10713
  139.9492  135.0178  156.8944 LP  0  0  0  0  0  0  0  0  0  0  0  0  # atno 17394 bound_to 11000
  140.5739  134.0417  155.7440 LP  0  0  0  0  0  0  0  0  0  0  0  0  # atno 17395 bound_to 11000

$$$$
