AV-unprocessed.smi:1042|AV-procd|sdf|4538|dock6
  -GOLD-   22720 2563D 1   1.00000     0.00000
 Structure written by MMmdl.
 40 42  0  0  0  0  0  0  0  0  2 V2000
  150.8857  140.7436  155.3727 O   0  0  0  0  0  0  0  0  0  0  0  0
  150.0777  141.6298  155.6513 C   0  0  0  0  0  0  0  0  0  0  0  0
  148.8838  141.7526  155.0531 N   0  0  0  0  0  0  0  0  0  0  0  0
  148.3809  140.8808  153.9958 C   0  0  0  0  0  0  0  0  0  0  0  0
  147.8865  139.5243  154.5359 C   0  0  2  0  0  0  0  0  0  0  0  0
  148.9970  138.6276  155.0743 C   0  0  0  0  0  0  0  0  0  0  0  0
  148.3333  137.2532  155.0830 C   0  0  0  0  0  0  0  0  0  0  0  0
  147.4621  137.2288  153.8885 N   0  3  1  0  0  0  0  0  0  0  0  0
  146.2519  136.3943  154.0469 C   0  0  0  0  0  0  0  0  0  0  0  0
  146.4954  134.9237  153.8062 C   0  0  0  0  0  0  0  0  0  0  0  0
  145.7871  135.7567  152.7596 C   0  0  0  0  0  0  0  0  0  0  0  0
  147.1842  138.6321  153.5011 C   0  0  0  0  0  0  0  0  0  0  0  0
  150.2607  142.5892  156.5755 N   0  0  0  0  0  0  0  0  0  0  0  0
  151.3731  142.7747  157.4389 C   0  0  0  0  0  0  0  0  0  0  0  0
  151.6125  144.1122  157.8277 C   0  0  0  0  0  0  0  0  0  0  0  0
  152.6916  144.4018  158.6853 C   0  0  0  0  0  0  0  0  0  0  0  0
  153.5025  143.3448  159.1349 C   0  0  0  0  0  0  0  0  0  0  0  0
  153.1943  142.0421  158.7017 C   0  0  0  0  0  0  0  0  0  0  0  0
  152.1612  141.7624  157.8791 N   0  0  0  0  0  0  0  0  0  0  0  0
  148.2860  142.5148  155.3377 H   0  0  0  0  0  0  0  0  0  0  0  0
  147.5667  141.4018  153.4912 H   0  0  0  0  0  0  0  0  0  0  0  0
  149.1595  140.7274  153.2467 H   0  0  0  0  0  0  0  0  0  0  0  0
  147.1877  139.6997  155.3558 H   0  0  0  0  0  0  0  0  0  0  0  0
  149.8505  138.6255  154.3945 H   0  0  0  0  0  0  0  0  0  0  0  0
  149.3490  138.9332  156.0601 H   0  0  0  0  0  0  0  0  0  0  0  0
  149.0555  136.4366  155.0681 H   0  0  0  0  0  0  0  0  0  0  0  0
  147.7282  137.1496  155.9855 H   0  0  0  0  0  0  0  0  0  0  0  0
  145.5309  136.7209  154.7947 H   0  0  0  0  0  0  0  0  0  0  0  0
  147.5109  134.5981  153.5874 H   0  0  0  0  0  0  0  0  0  0  0  0
  145.8924  134.2158  154.3715 H   0  0  0  0  0  0  0  0  0  0  0  0
  144.7181  135.5966  152.6354 H   0  0  0  0  0  0  0  0  0  0  0  0
  146.3319  135.9852  151.8451 H   0  0  0  0  0  0  0  0  0  0  0  0
  146.1158  138.8493  153.4525 H   0  0  0  0  0  0  0  0  0  0  0  0
  147.5961  138.7920  152.5039 H   0  0  0  0  0  0  0  0  0  0  0  0
  149.5163  143.2627  156.6784 H   0  0  0  0  0  0  0  0  0  0  0  0
  150.9793  144.9128  157.4735 H   0  0  0  0  0  0  0  0  0  0  0  0
  152.8924  145.4176  158.9927 H   0  0  0  0  0  0  0  0  0  0  0  0
  154.3387  143.5271  159.7936 H   0  0  0  0  0  0  0  0  0  0  0  0
  153.7925  141.2026  159.0236 H   0  0  0  0  0  0  0  0  0  0  0  0
  148.0074  136.8310  153.1371 H   0  0  0  0  0  0  0  0  0  0  0  0
  1  2  2  0  0  0  0
  2  3  1  0  0  0  0
  2 13  1  0  0  0  0
  3  4  1  0  0  0  0
  3 20  1  0  0  0  0
  4  5  1  0  0  0  0
  4 21  1  0  0  0  0
  4 22  1  0  0  0  0
  5 12  1  0  0  0  0
  5  6  1  0  0  0  0
  5 23  1  0  0  0  0
  6  7  1  0  0  0  0
  6 24  1  0  0  0  0
  6 25  1  0  0  0  0
  7  8  1  0  0  0  0
  7 26  1  0  0  0  0
  7 27  1  0  0  0  0
  8  9  1  0  0  0  0
  8 12  1  0  0  0  0
  8 40  1  0  0  0  0
  9 11  1  0  0  0  0
  9 10  1  0  0  0  0
  9 28  1  0  0  0  0
 10 11  1  0  0  0  0
 10 29  1  0  0  0  0
 10 30  1  0  0  0  0
 11 31  1  0  0  0  0
 11 32  1  0  0  0  0
 12 33  1  0  0  0  0
 12 34  1  0  0  0  0
 13 14  1  0  0  0  0
 13 35  1  0  0  0  0
 14 19  1  0  0  0  0
 14 15  2  0  0  0  0
 15 16  1  0  0  0  0
 15 36  1  0  0  0  0
 16 17  2  0  0  0  0
 16 37  1  0  0  0  0
 17 18  1  0  0  0  0
 17 38  1  0  0  0  0
 18 19  2  0  0  0  0
 18 39  1  0  0  0  0
M  CHG  1   8   1
M  END
> <s_m_source_file>
AV-unprocessed.smi

> <i_m_source_file_index>
1042

> <i_lp_mmshare_version>
43012

> <i_f3d_flags>
0

> <s_epik_input>
bjFbY0hdW2NIXVtjSF1bY0hdYzFbTkhdQyg9TylbTkhdW0NIMl1bQ0BASF0yW0NIMl1bQ0gyXU4oW0NIMl0yKVtDSF0zW0NIMl1bQ0gyXTM=

> <s_epik_cmdline>
J2VwaWtfcHl0aG9uJywgJy1waCcsICc3LjAnLCAnLXRuJywgJzgnLCAnLW1hJywgJzIwMCcsICctbWV0YWxfYmluZGluZycsICctaW1hZScsICc8aW5maWxlLm1hZT4nLCAnLW9tYWUnLCAnPG91dGZpbGUubWFlPic=

> <r_lp_tautomer_probability>
1

> <r_epik_Ionization_Penalty>
0.000244736

> <r_epik_Ionization_Penalty_Charging>
0.000203384

> <r_epik_Ionization_Penalty_Neutral>
4.13519e-05

> <r_epik_State_Penalty>
-0

> <r_epik_Charging_Adjusted_Penalty>
0.000203384

> <i_epik_Tot_Q>
1

> <i_epik_Tot_abs_Q>
1

> <r_epik_Metal_State_Penalty>
-0

> <b_epik_Metal_Only>
0

> <s_lp_Force_Field>
OPLS_2005

> <r_lp_Energy>
38.555

> <b_lp_Chiralities_Consistent>
1

> <s_lp_Variant>
AV-unprocessed.smi:1042-3

> <Gold.Version>
5.8.1

> <Gold.Id.Protein>
6NUR|6NUR_protein|mol2

> <Gold.PLP.Fitness>
48.4092

> <Gold.PLP.PLP>
-35.0026

> <Gold.PLP.part.hbond>
-4.0000

> <Gold.PLP.part.metal>
0.0000

> <Gold.PLP.part.buried>
-1.3066

> <Gold.PLP.part.nonpolar>
-28.8506

> <Gold.PLP.part.repulsive>
0.3764

> <Gold.PLP.ligand.clash>
0.0000

> <Gold.PLP.ligand.torsion>
0.9465

> <Gold.PLP.Chemscore.Hbond>
4.6800

> <Gold.PLP.Chemscore.CHOScore>
0.0000

> <Gold.PLP.Chemscore.Metal>
0.0000

> <Gold.Chemscore.Hbonds>
donor molecule, donor type, donor heavy atom, donor atom, acceptor molecule, acceptor atom, score
      L1  H     3    20       P1  8028  0.19
      L1  H     8    40       P1  7948  2.00
      L1  H    13    35       P1  8028  0.70
      P1  H  7989  7998       L1     1  0.83

> <Gold.PLP.Chemscore.Internal.Correction>
1.2596

> <Gold.Rescore>
     Score         DG    S(hbond)    S(metal)    S(lipo)     H(rot)  DE(clash)    DE(int)     intcor
     19.78     -22.60       3.22        0.00      86.49       1.47       0.74       2.08       ----

> <Gold.Chemscore.Fitness>
19.7821

> <Gold.Chemscore.DG>
-22.6008

> <Gold.Chemscore.ZeroCoef>
-5.4800

> <Gold.Chemscore.Hbond>
3.2234

> <Gold.Chemscore.Metal>
0.0000

> <Gold.Chemscore.Lipo>
86.4923

> <Gold.Chemscore.Internal_Hbond>
0.0000

> <Gold.Chemscore.DEClash>
0.7360

> <Gold.Chemscore.DEInternal>
2.0827

> <Gold.Chemscore.Rot>
1.4707

> <Gold.Chemscore.Internal.Correction>
   9.000000E+99

> <Gold.Chemscore.Hbonds>
donor molecule, donor type, donor heavy atom, donor atom, acceptor molecule, acceptor atom, score
      L1  H     3    20       P1  8028  0.20
      L1  H     8    40       P1  7948  1.00
      L1  H    13    35       P1  8028  0.70
      P1  H  7989  7998       L1     1  0.70

> <Gold.Chemscore.Hbond.Weighted>
-10.7662

> <Gold.Chemscore.Metal.Weighted>
-0.0000

> <Gold.Chemscore.Lipo.Weighted>
-10.1196

> <Gold.Chemscore.Internal_Hbond.Weighted>
0.0000

> <Gold.Chemscore.DEClash.Weighted>
0.7360

> <Gold.Chemscore.DEInternal.Weighted>
2.0827

> <Gold.Chemscore.Rot.Weighted>
3.7650

> <Gold.Chemscore.Internal.Correction.Weighted>
   9.000000E+99

> <Gold.Protein.RotatedTorsions>
[ 6907 6896 6895 6894 ] final   89.39 input  -60.11 | X-H torsion
[ 7974 7965 7964 7962 ] final  147.96 input  175.53 | X-H torsion
[ 8008 7997 7996 7995 ] final -176.74 input   59.86 | X-H torsion
[ 10167 10162 10161 10158 ] final   84.46 input  -65.29 | X-H torsion
[ 10718 10713 10712 10709 ] final  149.96 input   66.30 | X-H torsion
[ 10763 10752 10751 10750 ] final  113.35 input  -60.55 | X-H torsion
[ 11005 11000 10999 10996 ] final    8.15 input  -57.11 | X-H torsion

> <Gold.Protein.ActiveResidues>
 VAL166  LYS551  ARG553  GLY616  TRP617  ASP618  TYR619  PRO620  LYS621  CYS622 
 ASP623  PHE694  ASN695  SER759  ASP760  ASP761  ALA762  ILE779  LEU786  VAL792 
 PHE793  MET794  SER795  GLU796  ALA797  LYS798  CYS799  TRP800  GLU811  SER814 

> <Gold.Protein.RotatedAtoms>
  152.5435  134.1974  159.8697 H   0  0  0  0  0  0  0  0  0  0  0  0  # atno 6907 bound_to 6896
  151.1965  133.4629  159.2603 H   0  0  0  0  0  0  0  0  0  0  0  0  # atno 6908 bound_to 6896
  151.1032  134.9996  159.8514 H   0  0  0  0  0  0  0  0  0  0  0  0  # atno 6909 bound_to 6896
  144.8550  139.6094  143.5956 H   0  0  0  0  0  0  0  0  0  0  0  0  # atno 7974 bound_to 7965
  155.9985  140.1215  157.0570 H   0  0  0  0  0  0  0  0  0  0  0  0  # atno 8008 bound_to 7997
  154.4234  140.1111  156.5732 H   0  0  0  0  0  0  0  0  0  0  0  0  # atno 8009 bound_to 7997
  155.6245  140.3472  155.4665 H   0  0  0  0  0  0  0  0  0  0  0  0  # atno 8010 bound_to 7997
  139.9079  144.6290  150.8568 H   0  0  0  0  0  0  0  0  0  0  0  0  # atno 10167 bound_to 10162
  157.2895  131.0851  151.1472 H   0  0  0  0  0  0  0  0  0  0  0  0  # atno 10718 bound_to 10713
  153.4912  135.3658  155.2493 H   0  0  0  0  0  0  0  0  0  0  0  0  # atno 10763 bound_to 10752
  154.8752  135.3977  154.3586 H   0  0  0  0  0  0  0  0  0  0  0  0  # atno 10764 bound_to 10752
  153.4206  135.7080  153.6362 H   0  0  0  0  0  0  0  0  0  0  0  0  # atno 10765 bound_to 10752
  140.5402  134.0381  155.7901 H   0  0  0  0  0  0  0  0  0  0  0  0  # atno 11005 bound_to 11000
  146.2816  139.6892  142.9225 LP  0  0  0  0  0  0  0  0  0  0  0  0  # atno 17320 bound_to 7965
  145.4424  141.0423  143.2850 LP  0  0  0  0  0  0  0  0  0  0  0  0  # atno 17321 bound_to 7965
  140.7692  143.3388  151.2252 LP  0  0  0  0  0  0  0  0  0  0  0  0  # atno 17342 bound_to 10162
  139.6968  143.9599  152.2886 LP  0  0  0  0  0  0  0  0  0  0  0  0  # atno 17343 bound_to 10162
  157.2874  130.6779  149.6096 LP  0  0  0  0  0  0  0  0  0  0  0  0  # atno 17370 bound_to 10713
  155.9666  130.4431  150.5408 LP  0  0  0  0  0  0  0  0  0  0  0  0  # atno 17371 bound_to 10713
  141.1231  133.9428  157.2689 LP  0  0  0  0  0  0  0  0  0  0  0  0  # atno 17394 bound_to 11000
  139.9508  135.0176  156.8987 LP  0  0  0  0  0  0  0  0  0  0  0  0  # atno 17395 bound_to 11000

$$$$
