AV-unprocessed.smi:1800|AV-procd|sdf|7264|dock4
  -GOLD-   22720 8513D 1   1.00000     0.00000
 Structure written by MMmdl.
 36 37  0  0  0  0  0  0  0  0  1 V2000
  151.1803  140.4357  158.6291 C   0  0  0  0  0  0  0  0  0  0  0  0
  150.4286  141.2567  157.5694 C   0  0  1  0  0  0  0  0  0  0  0  0
  151.2423  142.4408  157.0097 C   0  0  0  0  0  0  0  0  0  0  0  0
  151.4365  143.4956  157.9879 N   0  0  0  0  0  0  0  0  0  0  0  0
  152.6141  144.1122  158.3546 C   0  0  0  0  0  0  0  0  0  0  0  0
  152.3067  145.0429  159.3051 C   0  0  0  0  0  0  0  0  0  0  0  0
  150.8974  144.9181  159.4566 C   0  0  0  0  0  0  0  0  0  0  0  0
  150.3794  143.9902  158.6682 N   0  0  0  0  0  0  0  0  0  0  0  0
  150.0302  140.3742  156.4712 N   0  0  0  0  0  0  0  0  0  0  0  0
  151.2519  139.4819  155.6418 S   0  0  0  0  0  0  0  0  0  0  0  0
  151.0971  139.7721  154.2082 O   0  0  0  0  0  0  0  0  0  0  0  0
  152.5311  139.7602  156.3131 O   0  0  0  0  0  0  0  0  0  0  0  0
  150.7443  137.7299  155.9735 C   0  0  0  0  0  0  0  0  0  0  0  0
  150.4365  136.9352  154.6979 C   0  0  0  0  0  0  0  0  0  0  0  0
  149.4625  135.8563  155.1621 C   0  0  0  0  0  0  0  0  0  0  0  0
  148.5799  136.5691  156.1872 C   0  0  0  0  0  0  0  0  0  0  0  0
  149.4684  137.6436  156.8308 C   0  0  0  0  0  0  0  0  0  0  0  0
  151.4202  141.0388  159.5050 H   0  0  0  0  0  0  0  0  0  0  0  0
  152.1152  140.0381  158.2325 H   0  0  0  0  0  0  0  0  0  0  0  0
  150.5784  139.5938  158.9723 H   0  0  0  0  0  0  0  0  0  0  0  0
  149.5231  141.6456  158.0378 H   0  0  0  0  0  0  0  0  0  0  0  0
  152.2170  142.0990  156.6573 H   0  0  0  0  0  0  0  0  0  0  0  0
  150.7376  142.8757  156.1462 H   0  0  0  0  0  0  0  0  0  0  0  0
  153.5610  143.8409  157.9114 H   0  0  0  0  0  0  0  0  0  0  0  0
  152.9850  145.7112  159.8144 H   0  0  0  0  0  0  0  0  0  0  0  0
  150.2401  145.4706  160.1117 H   0  0  0  0  0  0  0  0  0  0  0  0
  149.4212  140.8601  155.8134 H   0  0  0  0  0  0  0  0  0  0  0  0
  151.5544  137.2439  156.5184 H   0  0  0  0  0  0  0  0  0  0  0  0
  149.9364  137.5583  153.9567 H   0  0  0  0  0  0  0  0  0  0  0  0
  151.3342  136.5230  154.2361 H   0  0  0  0  0  0  0  0  0  0  0  0
  148.8883  135.4262  154.3409 H   0  0  0  0  0  0  0  0  0  0  0  0
  150.0121  135.0476  155.6456 H   0  0  0  0  0  0  0  0  0  0  0  0
  147.7434  137.0475  155.6761 H   0  0  0  0  0  0  0  0  0  0  0  0
  148.1629  135.8795  156.9218 H   0  0  0  0  0  0  0  0  0  0  0  0
  149.7197  137.3830  157.8595 H   0  0  0  0  0  0  0  0  0  0  0  0
  148.9319  138.5923  156.8608 H   0  0  0  0  0  0  0  0  0  0  0  0
  1  2  1  0  0  0  0
  1 18  1  0  0  0  0
  1 19  1  0  0  0  0
  1 20  1  0  0  0  0
  2  3  1  0  0  0  0
  2  9  1  0  0  0  0
  2 21  1  0  0  0  0
  3  4  1  0  0  0  0
  3 22  1  0  0  0  0
  3 23  1  0  0  0  0
  4  8  1  0  0  0  0
  4  5  1  0  0  0  0
  5  6  2  0  0  0  0
  5 24  1  0  0  0  0
  6  7  1  0  0  0  0
  6 25  1  0  0  0  0
  7  8  2  0  0  0  0
  7 26  1  0  0  0  0
  9 10  1  0  0  0  0
  9 27  1  0  0  0  0
 10 11  2  0  0  0  0
 10 12  2  0  0  0  0
 10 13  1  0  0  0  0
 13 17  1  0  0  0  0
 13 14  1  0  0  0  0
 13 28  1  0  0  0  0
 14 15  1  0  0  0  0
 14 29  1  0  0  0  0
 14 30  1  0  0  0  0
 15 16  1  0  0  0  0
 15 31  1  0  0  0  0
 15 32  1  0  0  0  0
 16 17  1  0  0  0  0
 16 33  1  0  0  0  0
 16 34  1  0  0  0  0
 17 35  1  0  0  0  0
 17 36  1  0  0  0  0
M  END
> <s_m_source_file>
AV-unprocessed.smi

> <i_m_source_file_index>
1800

> <i_lp_mmshare_version>
43012

> <i_f3d_flags>
0

> <s_epik_input>
bjFbY0hdW2NIXVtjSF1uMVtDSDJdW0NAQEhdKFtDSDNdKVtOSF1TKD1PKSg9TylbQ0hdMltDSDJdW0NIMl1bQ0gyXVtDSDJdMg==

> <s_epik_cmdline>
J2VwaWtfcHl0aG9uJywgJy1waCcsICc3LjAnLCAnLXRuJywgJzgnLCAnLW1hJywgJzIwMCcsICctbWV0YWxfYmluZGluZycsICctaW1hZScsICc8aW5maWxlLm1hZT4nLCAnLW9tYWUnLCAnPG91dGZpbGUubWFlPic=

> <r_lp_tautomer_probability>
1

> <r_epik_Ionization_Penalty>
1.44925e-05

> <r_epik_Ionization_Penalty_Charging>
0

> <r_epik_Ionization_Penalty_Neutral>
1.44925e-05

> <r_epik_State_Penalty>
-0

> <r_epik_Charging_Adjusted_Penalty>
0

> <i_epik_Tot_Q>
0

> <i_epik_Tot_abs_Q>
0

> <r_epik_Metal_State_Penalty>
0.00862991

> <b_epik_Metal_Only>
0

> <s_lp_Force_Field>
OPLS_2005

> <r_lp_Energy>
17.3369

> <b_lp_Chiralities_Consistent>
1

> <s_lp_Variant>
AV-unprocessed.smi:1800-2

> <Gold.Version>
5.8.1

> <Gold.Id.Protein>
6NUR|6NUR_protein|mol2

> <Gold.PLP.Fitness>
38.1594

> <Gold.PLP.PLP>
-32.4557

> <Gold.PLP.part.hbond>
-2.4111

> <Gold.PLP.part.metal>
0.0000

> <Gold.PLP.part.buried>
-4.0799

> <Gold.PLP.part.nonpolar>
-26.8736

> <Gold.PLP.part.repulsive>
0.2605

> <Gold.PLP.ligand.clash>
0.0000

> <Gold.PLP.ligand.torsion>
0.2747

> <Gold.PLP.Chemscore.Hbond>
2.0000

> <Gold.PLP.Chemscore.CHOScore>
0.0000

> <Gold.PLP.Chemscore.Metal>
0.0000

> <Gold.Chemscore.Hbonds>
donor molecule, donor type, donor heavy atom, donor atom, acceptor molecule, acceptor atom, score
      P1  H  7989  7998       L1    11  0.70
      P1  H  7997  8009       L1    12  1.00

> <Gold.PLP.Chemscore.Internal.Correction>
0.2531

> <Gold.Rescore>
     Score         DG    S(hbond)    S(metal)    S(lipo)     H(rot)  DE(clash)    DE(int)     intcor
     14.83     -17.12       1.97        0.00      81.68       1.76       0.03       2.26       ----

> <Gold.Chemscore.Fitness>
14.8314

> <Gold.Chemscore.DG>
-17.1181

> <Gold.Chemscore.ZeroCoef>
-5.4800

> <Gold.Chemscore.Hbond>
1.9710

> <Gold.Chemscore.Metal>
0.0000

> <Gold.Chemscore.Lipo>
81.6830

> <Gold.Chemscore.Internal_Hbond>
0.0000

> <Gold.Chemscore.DEClash>
0.0300

> <Gold.Chemscore.DEInternal>
2.2567

> <Gold.Chemscore.Rot>
1.7585

> <Gold.Chemscore.Internal.Correction>
   9.000000E+99

> <Gold.Chemscore.Hbonds>
donor molecule, donor type, donor heavy atom, donor atom, acceptor molecule, acceptor atom, score
      P1  H  7989  7998       L1    11  0.69
      P1  H  7997  8009       L1    12  1.00

> <Gold.Chemscore.Hbond.Weighted>
-6.5831

> <Gold.Chemscore.Metal.Weighted>
-0.0000

> <Gold.Chemscore.Lipo.Weighted>
-9.5569

> <Gold.Chemscore.Internal_Hbond.Weighted>
0.0000

> <Gold.Chemscore.DEClash.Weighted>
0.0300

> <Gold.Chemscore.DEInternal.Weighted>
2.2567

> <Gold.Chemscore.Rot.Weighted>
4.5019

> <Gold.Chemscore.Internal.Correction.Weighted>
   9.000000E+99

> <Gold.Protein.RotatedTorsions>
[ 6907 6896 6895 6894 ] final  -38.68 input  -60.11 | X-H torsion
[ 7974 7965 7964 7962 ] final   -6.23 input  175.53 | X-H torsion
[ 8008 7997 7996 7995 ] final -158.62 input   59.86 | X-H torsion
[ 10167 10162 10161 10158 ] final   96.23 input  -65.29 | X-H torsion
[ 10718 10713 10712 10709 ] final  -43.19 input   66.30 | X-H torsion
[ 10763 10752 10751 10750 ] final -167.24 input  -60.55 | X-H torsion
[ 11005 11000 10999 10996 ] final  -51.88 input  -57.11 | X-H torsion

> <Gold.Protein.ActiveResidues>
 VAL166  LYS551  ARG553  GLY616  TRP617  ASP618  TYR619  PRO620  LYS621  CYS622 
 ASP623  PHE694  ASN695  SER759  ASP760  ASP761  ALA762  ILE779  LEU786  VAL792 
 PHE793  MET794  SER795  GLU796  ALA797  LYS798  CYS799  TRP800  GLU811  SER814 

> <Gold.Protein.RotatedAtoms>
  150.9995  134.9310  159.7945 H   0  0  0  0  0  0  0  0  0  0  0  0  # atno 6907 bound_to 6896
  152.5274  134.3174  159.9145 H   0  0  0  0  0  0  0  0  0  0  0  0  # atno 6908 bound_to 6896
  151.3179  133.4011  159.2686 H   0  0  0  0  0  0  0  0  0  0  0  0  # atno 6909 bound_to 6896
  146.2335  140.2140  142.8336 H   0  0  0  0  0  0  0  0  0  0  0  0  # atno 7974 bound_to 7965
  155.7502  140.0825  157.2204 H   0  0  0  0  0  0  0  0  0  0  0  0  # atno 8008 bound_to 7997
  154.4013  140.1562  156.2771 H   0  0  0  0  0  0  0  0  0  0  0  0  # atno 8009 bound_to 7997
  155.8937  140.3414  155.5978 H   0  0  0  0  0  0  0  0  0  0  0  0  # atno 8010 bound_to 7997
  139.7913  144.6851  150.9888 H   0  0  0  0  0  0  0  0  0  0  0  0  # atno 10167 bound_to 10162
  156.2516  130.4188  149.8643 H   0  0  0  0  0  0  0  0  0  0  0  0  # atno 10718 bound_to 10713
  154.6752  135.2945  154.9688 H   0  0  0  0  0  0  0  0  0  0  0  0  # atno 10763 bound_to 10752
  154.0702  135.6619  153.4827 H   0  0  0  0  0  0  0  0  0  0  0  0  # atno 10764 bound_to 10752
  153.0512  135.5173  154.7767 H   0  0  0  0  0  0  0  0  0  0  0  0  # atno 10765 bound_to 10752
  141.0895  133.6635  156.3942 H   0  0  0  0  0  0  0  0  0  0  0  0  # atno 11005 bound_to 11000
  144.9684  140.8345  143.5470 LP  0  0  0  0  0  0  0  0  0  0  0  0  # atno 17320 bound_to 7965
  145.2118  139.2201  143.5139 LP  0  0  0  0  0  0  0  0  0  0  0  0  # atno 17321 bound_to 7965
  140.7820  143.4377  151.0598 LP  0  0  0  0  0  0  0  0  0  0  0  0  # atno 17342 bound_to 10162
  139.8054  143.8025  152.3167 LP  0  0  0  0  0  0  0  0  0  0  0  0  # atno 17343 bound_to 10162
  156.6189  130.8618  151.3471 LP  0  0  0  0  0  0  0  0  0  0  0  0  # atno 17370 bound_to 10713
  157.7216  130.9567  150.1464 LP  0  0  0  0  0  0  0  0  0  0  0  0  # atno 17371 bound_to 10713
  140.5286  134.6235  157.5342 LP  0  0  0  0  0  0  0  0  0  0  0  0  # atno 17394 bound_to 11000
  139.9718  134.7280  156.0027 LP  0  0  0  0  0  0  0  0  0  0  0  0  # atno 17395 bound_to 11000

$$$$
