AV-unprocessed.smi:3340|AV-procd|sdf|12882|dock1
  -GOLD-   2272019283D 1   1.00000     0.00000
 Structure written by MMmdl.
 41 42  0  0  0  0  0  0  0  0  1 V2000
  152.9917  138.2005  155.9719 C   0  0  0  0  0  0  0  0  0  0  0  0
  151.7920  138.7239  155.1789 C   0  0  0  0  0  0  0  0  0  0  0  0
  151.6945  139.9407  155.0171 O   0  0  0  0  0  0  0  0  0  0  0  0
  150.8866  137.8443  154.6861 N   0  0  0  0  0  0  0  0  0  0  0  0
  149.6821  138.2676  153.9555 C   0  0  0  0  0  0  0  0  0  0  0  0
  148.4337  137.8414  154.7538 C   0  0  0  0  0  0  0  0  0  0  0  0
  148.4636  136.3779  154.9402 N   0  0  0  0  0  0  0  0  0  0  0  0
  147.6097  135.4755  154.3935 C   0  0  0  0  0  0  0  0  0  0  0  0
  147.4416  134.3459  154.8541 O   0  0  0  0  0  0  0  0  0  0  0  0
  146.9387  135.9211  153.3151 N   0  0  0  0  0  0  0  0  0  0  0  0
  145.9327  135.2062  152.5241 C   0  0  1  0  0  0  0  0  0  0  0  0
  145.2751  136.1265  151.4811 C   0  0  0  0  0  0  0  0  0  0  0  0
  146.4793  133.9039  151.8967 C   0  0  0  0  0  0  0  0  0  0  0  0
  145.4557  133.1586  151.1874 N   0  0  0  0  0  0  0  0  0  0  0  0
  144.0847  133.3772  151.2215 C   0  0  0  0  0  0  0  0  0  0  0  0
  143.5157  132.4345  150.3954 C   0  0  0  0  0  0  0  0  0  0  0  0
  144.5117  131.6291  149.8475 N   0  0  0  0  0  0  0  0  0  0  0  0
  145.6324  132.1159  150.3646 C   0  0  0  0  0  0  0  0  0  0  0  0
  149.6638  135.9670  155.6849 C   0  0  0  0  0  0  0  0  0  0  0  0
  150.9153  136.3868  154.8881 C   0  0  0  0  0  0  0  0  0  0  0  0
  152.6625  137.6604  156.8601 H   0  0  0  0  0  0  0  0  0  0  0  0
  153.6245  139.0254  156.3010 H   0  0  0  0  0  0  0  0  0  0  0  0
  153.6022  137.5381  155.3575 H   0  0  0  0  0  0  0  0  0  0  0  0
  149.6500  139.3435  153.7795 H   0  0  0  0  0  0  0  0  0  0  0  0
  149.6774  137.8019  152.9688 H   0  0  0  0  0  0  0  0  0  0  0  0
  148.4335  138.3240  155.7322 H   0  0  0  0  0  0  0  0  0  0  0  0
  147.5407  138.2095  154.2495 H   0  0  0  0  0  0  0  0  0  0  0  0
  147.1400  136.8644  153.0170 H   0  0  0  0  0  0  0  0  0  0  0  0
  145.1525  134.9270  153.2332 H   0  0  0  0  0  0  0  0  0  0  0  0
  144.4391  135.6252  150.9929 H   0  0  0  0  0  0  0  0  0  0  0  0
  145.9764  136.4245  150.7017 H   0  0  0  0  0  0  0  0  0  0  0  0
  144.8864  137.0333  151.9456 H   0  0  0  0  0  0  0  0  0  0  0  0
  147.2740  134.1387  151.1876 H   0  0  0  0  0  0  0  0  0  0  0  0
  146.9269  133.2557  152.6507 H   0  0  0  0  0  0  0  0  0  0  0  0
  143.6410  134.1658  151.8116 H   0  0  0  0  0  0  0  0  0  0  0  0
  142.4748  132.2757  150.1547 H   0  0  0  0  0  0  0  0  0  0  0  0
  146.6057  131.7075  150.1357 H   0  0  0  0  0  0  0  0  0  0  0  0
  149.6610  136.4448  156.6657 H   0  0  0  0  0  0  0  0  0  0  0  0
  149.6965  134.8939  155.8779 H   0  0  0  0  0  0  0  0  0  0  0  0
  150.9237  135.8929  153.9151 H   0  0  0  0  0  0  0  0  0  0  0  0
  151.8061  136.0330  155.4044 H   0  0  0  0  0  0  0  0  0  0  0  0
  1  2  1  0  0  0  0
  1 21  1  0  0  0  0
  1 22  1  0  0  0  0
  1 23  1  0  0  0  0
  2  3  2  0  0  0  0
  2  4  1  0  0  0  0
  4 20  1  0  0  0  0
  4  5  1  0  0  0  0
  5  6  1  0  0  0  0
  5 24  1  0  0  0  0
  5 25  1  0  0  0  0
  6  7  1  0  0  0  0
  6 26  1  0  0  0  0
  6 27  1  0  0  0  0
  7  8  1  0  0  0  0
  7 19  1  0  0  0  0
  8  9  2  0  0  0  0
  8 10  1  0  0  0  0
 10 11  1  0  0  0  0
 10 28  1  0  0  0  0
 11 12  1  0  0  0  0
 11 13  1  0  0  0  0
 11 29  1  0  0  0  0
 12 30  1  0  0  0  0
 12 31  1  0  0  0  0
 12 32  1  0  0  0  0
 13 14  1  0  0  0  0
 13 33  1  0  0  0  0
 13 34  1  0  0  0  0
 14 18  1  0  0  0  0
 14 15  1  0  0  0  0
 15 16  2  0  0  0  0
 15 35  1  0  0  0  0
 16 17  1  0  0  0  0
 16 36  1  0  0  0  0
 17 18  2  0  0  0  0
 18 37  1  0  0  0  0
 19 20  1  0  0  0  0
 19 38  1  0  0  0  0
 19 39  1  0  0  0  0
 20 40  1  0  0  0  0
 20 41  1  0  0  0  0
M  END
> <s_m_source_file>
AV-unprocessed.smi

> <i_m_source_file_index>
3340

> <i_lp_mmshare_version>
43012

> <i_f3d_flags>
0

> <s_epik_input>
W0NIM11DKD1PKU4xW0NIMl1bQ0gyXU4oW0NIMl1bQ0gyXTEpQyg9TylbTkhdW0NASF0oW0NIM10pW0NIMl1uMltjSF1bY0hdbltjSF0y

> <s_epik_cmdline>
J2VwaWtfcHl0aG9uJywgJy1waCcsICc3LjAnLCAnLXRuJywgJzgnLCAnLW1hJywgJzIwMCcsICctbWV0YWxfYmluZGluZycsICctaW1hZScsICc8aW5maWxlLm1hZT4nLCAnLW9tYWUnLCAnPG91dGZpbGUubWFlPic=

> <r_lp_tautomer_probability>
1

> <r_epik_Ionization_Penalty>
0.622948

> <r_epik_Ionization_Penalty_Charging>
0.622904

> <r_epik_Ionization_Penalty_Neutral>
4.39259e-05

> <r_epik_State_Penalty>
0.639086

> <r_epik_Charging_Adjusted_Penalty>
1.26199

> <i_epik_Tot_Q>
0

> <i_epik_Tot_abs_Q>
0

> <r_epik_Metal_State_Penalty>
0.307185

> <b_epik_Metal_Only>
0

> <s_lp_Force_Field>
OPLS_2005

> <r_lp_Energy>
50.7734

> <b_lp_Chiralities_Consistent>
1

> <s_lp_Variant>
AV-unprocessed.smi:3340-4

> <Gold.Version>
5.8.1

> <Gold.Id.Protein>
6NUR|6NUR_protein|mol2

> <Gold.PLP.Fitness>
39.4910

> <Gold.PLP.PLP>
-29.4523

> <Gold.PLP.part.hbond>
-2.9887

> <Gold.PLP.part.metal>
0.0000

> <Gold.PLP.part.buried>
-1.0582

> <Gold.PLP.part.nonpolar>
-26.0584

> <Gold.PLP.part.repulsive>
0.2176

> <Gold.PLP.ligand.clash>
0.0000

> <Gold.PLP.ligand.torsion>
0.4130

> <Gold.PLP.Chemscore.Hbond>
1.1778

> <Gold.PLP.Chemscore.CHOScore>
2.4161

> <Gold.PLP.Chemscore.Metal>
0.0000

> <Gold.Chemscore.Hbonds>
donor molecule, donor type, donor heavy atom, donor atom, acceptor molecule, acceptor atom, score
      P1  H  7989  7998       L1     3  1.00
      P1  H 10785 10796       L1    17  0.22
      L1  C    16    36       P1 10186  0.52
      L1  C    16    36       P1 10952  0.83
      L1  C    18    37       P1 10747  1.00

> <Gold.PLP.Chemscore.Internal.Correction>
0.0830

> <Gold.Rescore>
     Score         DG    S(hbond)    S(metal)    S(lipo)     H(rot)  DE(clash)    DE(int)     intcor
     10.11     -11.11       1.12        0.00      52.08       1.65       0.39       0.61       ----

> <Gold.Chemscore.Fitness>
10.1062

> <Gold.Chemscore.DG>
-11.1054

> <Gold.Chemscore.ZeroCoef>
-5.4800

> <Gold.Chemscore.Hbond>
1.1225

> <Gold.Chemscore.Metal>
0.0000

> <Gold.Chemscore.Lipo>
52.0760

> <Gold.Chemscore.Internal_Hbond>
0.0000

> <Gold.Chemscore.DEClash>
0.3879

> <Gold.Chemscore.DEInternal>
0.6112

> <Gold.Chemscore.Rot>
1.6471

> <Gold.Chemscore.Internal.Correction>
   9.000000E+99

> <Gold.Chemscore.Hbonds>
donor molecule, donor type, donor heavy atom, donor atom, acceptor molecule, acceptor atom, score
      L1  H    10    28       P1  7948  0.01
      P1  H  7989  7998       L1     3  0.95
      P1  H 10785 10796       L1    17  0.06

> <Gold.Chemscore.Hbond.Weighted>
-3.7491

> <Gold.Chemscore.Metal.Weighted>
-0.0000

> <Gold.Chemscore.Lipo.Weighted>
-6.0929

> <Gold.Chemscore.Internal_Hbond.Weighted>
0.0000

> <Gold.Chemscore.DEClash.Weighted>
0.3879

> <Gold.Chemscore.DEInternal.Weighted>
0.6112

> <Gold.Chemscore.Rot.Weighted>
4.2166

> <Gold.Chemscore.Internal.Correction.Weighted>
   9.000000E+99

> <Gold.Protein.RotatedTorsions>
[ 6907 6896 6895 6894 ] final   37.25 input  -60.11 | X-H torsion
[ 7974 7965 7964 7962 ] final  106.99 input  175.53 | X-H torsion
[ 8008 7997 7996 7995 ] final  -85.71 input   59.86 | X-H torsion
[ 10167 10162 10161 10158 ] final -139.49 input  -65.29 | X-H torsion
[ 10718 10713 10712 10709 ] final   63.33 input   66.30 | X-H torsion
[ 10763 10752 10751 10750 ] final   69.04 input  -60.55 | X-H torsion
[ 11005 11000 10999 10996 ] final -173.60 input  -57.11 | X-H torsion

> <Gold.Protein.ActiveResidues>
 VAL166  LYS551  ARG553  GLY616  TRP617  ASP618  TYR619  PRO620  LYS621  CYS622 
 ASP623  PHE694  ASN695  SER759  ASP760  ASP761  ALA762  ILE779  LEU786  VAL792 
 PHE793  MET794  SER795  GLU796  ALA797  LYS798  CYS799  TRP800  GLU811  SER814 

> <Gold.Protein.RotatedAtoms>
  152.1406  134.9065  160.0553 H   0  0  0  0  0  0  0  0  0  0  0  0  # atno 6907 bound_to 6896
  152.0135  133.3865  159.4237 H   0  0  0  0  0  0  0  0  0  0  0  0  # atno 6908 bound_to 6896
  150.6865  134.3626  159.5001 H   0  0  0  0  0  0  0  0  0  0  0  0  # atno 6909 bound_to 6896
  145.2995  139.2574  143.3822 H   0  0  0  0  0  0  0  0  0  0  0  0  # atno 7974 bound_to 7965
  154.6438  140.0588  156.9876 H   0  0  0  0  0  0  0  0  0  0  0  0  # atno 8008 bound_to 7997
  155.1476  140.3271  155.4419 H   0  0  0  0  0  0  0  0  0  0  0  0  # atno 8009 bound_to 7997
  156.2543  140.1953  156.6590 H   0  0  0  0  0  0  0  0  0  0  0  0  # atno 8010 bound_to 7997
  139.8374  143.7366  152.2664 H   0  0  0  0  0  0  0  0  0  0  0  0  # atno 10167 bound_to 10162
  157.5964  130.9099  149.9702 H   0  0  0  0  0  0  0  0  0  0  0  0  # atno 10718 bound_to 10713
  153.0266  135.5225  154.7227 H   0  0  0  0  0  0  0  0  0  0  0  0  # atno 10763 bound_to 10752
  154.6278  135.2896  155.0254 H   0  0  0  0  0  0  0  0  0  0  0  0  # atno 10764 bound_to 10752
  154.1217  135.6606  153.4957 H   0  0  0  0  0  0  0  0  0  0  0  0  # atno 10765 bound_to 10752
  140.4839  134.6049  157.4929 H   0  0  0  0  0  0  0  0  0  0  0  0  # atno 11005 bound_to 11000
  146.3157  140.3505  142.8656 LP  0  0  0  0  0  0  0  0  0  0  0  0  # atno 17320 bound_to 7965
  144.9105  140.7752  143.5810 LP  0  0  0  0  0  0  0  0  0  0  0  0  # atno 17321 bound_to 7965
  139.7593  144.7511  151.0388 LP  0  0  0  0  0  0  0  0  0  0  0  0  # atno 17342 bound_to 10162
  140.7801  143.4770  151.0069 LP  0  0  0  0  0  0  0  0  0  0  0  0  # atno 17343 bound_to 10162
  156.1027  130.3654  150.0189 LP  0  0  0  0  0  0  0  0  0  0  0  0  # atno 17370 bound_to 10713
  156.8301  130.9389  151.3637 LP  0  0  0  0  0  0  0  0  0  0  0  0  # atno 17371 bound_to 10713
  139.9810  134.7138  155.9860 LP  0  0  0  0  0  0  0  0  0  0  0  0  # atno 17394 bound_to 11000
  141.1518  133.6547  156.4036 LP  0  0  0  0  0  0  0  0  0  0  0  0  # atno 17395 bound_to 11000

$$$$
