AV-unprocessed.smi:1961|AV-procd|sdf|7921|dock6
  -GOLD-   2272010 83D 1   1.00000     0.00000
 Structure written by MMmdl.
 35 36  0  0  0  0  0  0  0  0  2 V2000
  147.0210  141.7828  155.4048 C   0  0  0  0  0  0  0  0  0  0  0  0
  147.9218  141.4044  154.2203 C   0  0  0  0  0  0  0  0  0  0  0  0
  147.1967  140.5729  153.1521 C   0  0  0  0  0  0  0  0  0  0  0  0
  149.1985  140.7617  154.6649 C   0  0  0  0  0  0  0  0  0  0  0  0
  149.7144  139.6774  154.0774 N   0  0  0  0  0  0  0  0  0  0  0  0
  150.9020  139.2746  154.6701 N   0  0  0  0  0  0  0  0  0  0  0  0
  151.2740  140.0609  155.6898 C   0  0  0  0  0  0  0  0  0  0  0  0
  152.3933  139.8408  156.3991 N   0  5  0  0  0  0  0  0  0  0  0  0
  152.3463  139.8330  157.7509 C   0  0  0  0  0  0  0  0  0  0  0  0
  152.2016  138.8427  158.4718 O   0  0  0  0  0  0  0  0  0  0  0  0
  152.4773  141.0456  158.3042 N   0  0  0  0  0  0  0  0  0  0  0  0
  152.4732  141.3166  159.7354 C   0  0  0  0  0  0  0  0  0  0  0  0
  152.1041  142.7807  160.0112 C   0  0  1  0  0  0  0  0  0  0  0  0
  152.9566  143.7832  159.2350 C   0  0  0  0  0  0  0  0  0  0  0  0
  152.0419  144.9850  159.1798 C   0  0  0  0  0  0  0  0  0  0  0  0
  150.6786  144.3291  158.9824 C   0  0  0  0  0  0  0  0  0  0  0  0
  150.7632  143.0505  159.6066 O   0  0  0  0  0  0  0  0  0  0  0  0
  150.1440  141.3755  156.0117 S   0  0  0  0  0  0  0  0  0  0  0  0
  147.5423  142.4442  156.0976 H   0  0  0  0  0  0  0  0  0  0  0  0
  146.7058  140.8992  155.9608 H   0  0  0  0  0  0  0  0  0  0  0  0
  146.1230  142.3001  155.0664 H   0  0  0  0  0  0  0  0  0  0  0  0
  148.2025  142.3420  153.7385 H   0  0  0  0  0  0  0  0  0  0  0  0
  147.8410  140.3954  152.2904 H   0  0  0  0  0  0  0  0  0  0  0  0
  146.3024  141.0846  152.7963 H   0  0  0  0  0  0  0  0  0  0  0  0
  146.8904  139.6025  153.5444 H   0  0  0  0  0  0  0  0  0  0  0  0
  152.5977  141.8345  157.6860 H   0  0  0  0  0  0  0  0  0  0  0  0
  151.7513  140.6568  160.2192 H   0  0  0  0  0  0  0  0  0  0  0  0
  153.4537  141.0876  160.1556 H   0  0  0  0  0  0  0  0  0  0  0  0
  152.1841  142.9975  161.0778 H   0  0  0  0  0  0  0  0  0  0  0  0
  153.9117  143.9930  159.7174 H   0  0  0  0  0  0  0  0  0  0  0  0
  153.1551  143.4208  158.2252 H   0  0  0  0  0  0  0  0  0  0  0  0
  152.0685  145.5196  160.1300 H   0  0  0  0  0  0  0  0  0  0  0  0
  152.2979  145.6852  158.3843 H   0  0  0  0  0  0  0  0  0  0  0  0
  149.8676  144.9247  159.4020 H   0  0  0  0  0  0  0  0  0  0  0  0
  150.4764  144.1816  157.9207 H   0  0  0  0  0  0  0  0  0  0  0  0
  1  2  1  0  0  0  0
  1 19  1  0  0  0  0
  1 20  1  0  0  0  0
  1 21  1  0  0  0  0
  2  3  1  0  0  0  0
  2  4  1  0  0  0  0
  2 22  1  0  0  0  0
  3 23  1  0  0  0  0
  3 24  1  0  0  0  0
  3 25  1  0  0  0  0
  4 18  1  0  0  0  0
  4  5  2  0  0  0  0
  5  6  1  0  0  0  0
  6  7  2  0  0  0  0
  7  8  1  0  0  0  0
  7 18  1  0  0  0  0
  8  9  1  0  0  0  0
  9 10  2  0  0  0  0
  9 11  1  0  0  0  0
 11 12  1  0  0  0  0
 11 26  1  0  0  0  0
 12 13  1  0  0  0  0
 12 27  1  0  0  0  0
 12 28  1  0  0  0  0
 13 17  1  0  0  0  0
 13 14  1  0  0  0  0
 13 29  1  0  0  0  0
 14 15  1  0  0  0  0
 14 30  1  0  0  0  0
 14 31  1  0  0  0  0
 15 16  1  0  0  0  0
 15 32  1  0  0  0  0
 15 33  1  0  0  0  0
 16 17  1  0  0  0  0
 16 34  1  0  0  0  0
 16 35  1  0  0  0  0
M  CHG  1   8  -1
M  END
> <s_m_source_file>
AV-unprocessed.smi

> <i_m_source_file_index>
1961

> <i_lp_mmshare_version>
43012

> <i_f3d_flags>
0

> <s_epik_input>
W0NIM11bQ0hdKFtDSDNdKWMxbm5jKHMxKVtOSF1DKD1PKVtOSF1bQ0gyXVtDQEBIXTJbQ0gyXVtDSDJdW0NIMl1PMg==

> <s_epik_cmdline>
J2VwaWtfcHl0aG9uJywgJy1waCcsICc3LjAnLCAnLXRuJywgJzgnLCAnLW1hJywgJzIwMCcsICctbWV0YWxfYmluZGluZycsICctaW1hZScsICc8aW5maWxlLm1hZT4nLCAnLW9tYWUnLCAnPG91dGZpbGUubWFlPic=

> <r_lp_tautomer_probability>
1

> <r_epik_Ionization_Penalty>
4.36179

> <r_epik_Ionization_Penalty_Charging>
4.21437

> <r_epik_Ionization_Penalty_Neutral>
0.147417

> <r_epik_State_Penalty>
4.21389

> <r_epik_Charging_Adjusted_Penalty>
8.42826

> <i_epik_Tot_Q>
-1

> <i_epik_Tot_abs_Q>
1

> <r_epik_Metal_State_Penalty>
0.693772

> <b_epik_Metal_Only>
1

> <s_lp_Force_Field>
OPLS_2005

> <r_lp_Energy>
8.86259

> <b_lp_Chiralities_Consistent>
1

> <s_lp_Variant>
AV-unprocessed.smi:1961-4

> <Gold.Version>
5.8.1

> <Gold.Id.Protein>
6NUR|6NUR_protein|mol2

> <Gold.PLP.Fitness>
41.8607

> <Gold.PLP.PLP>
-38.9103

> <Gold.PLP.part.hbond>
-3.3626

> <Gold.PLP.part.metal>
0.0000

> <Gold.PLP.part.buried>
-4.0796

> <Gold.PLP.part.nonpolar>
-32.1743

> <Gold.PLP.part.repulsive>
1.6921

> <Gold.PLP.ligand.clash>
0.0000

> <Gold.PLP.ligand.torsion>
1.6125

> <Gold.PLP.Chemscore.Hbond>
2.0125

> <Gold.PLP.Chemscore.CHOScore>
0.0000

> <Gold.PLP.Chemscore.Metal>
0.0000

> <Gold.Chemscore.Hbonds>
donor molecule, donor type, donor heavy atom, donor atom, acceptor molecule, acceptor atom, score
      P1  H  7989  7998       L1     6  0.01
      P1  H  7997  8008       L1     8  2.00

> <Gold.PLP.Chemscore.Internal.Correction>
0.1378

> <Gold.Rescore>
     Score         DG    S(hbond)    S(metal)    S(lipo)     H(rot)  DE(clash)    DE(int)     intcor
     12.97     -14.65       0.69        0.00      89.83       1.42       0.07       1.61       ----

> <Gold.Chemscore.Fitness>
12.9664

> <Gold.Chemscore.DG>
-14.6476

> <Gold.Chemscore.ZeroCoef>
-5.4800

> <Gold.Chemscore.Hbond>
0.6858

> <Gold.Chemscore.Metal>
0.0000

> <Gold.Chemscore.Lipo>
89.8323

> <Gold.Chemscore.Internal_Hbond>
0.0000

> <Gold.Chemscore.DEClash>
0.0698

> <Gold.Chemscore.DEInternal>
1.6115

> <Gold.Chemscore.Rot>
1.4193

> <Gold.Chemscore.Internal.Correction>
   9.000000E+99

> <Gold.Chemscore.Hbonds>
donor molecule, donor type, donor heavy atom, donor atom, acceptor molecule, acceptor atom, score
      P1  H  7997  8008       L1     8  0.23

> <Gold.Chemscore.Hbond.Weighted>
-2.2906

> <Gold.Chemscore.Metal.Weighted>
-0.0000

> <Gold.Chemscore.Lipo.Weighted>
-10.5104

> <Gold.Chemscore.Internal_Hbond.Weighted>
0.0000

> <Gold.Chemscore.DEClash.Weighted>
0.0698

> <Gold.Chemscore.DEInternal.Weighted>
1.6115

> <Gold.Chemscore.Rot.Weighted>
3.6333

> <Gold.Chemscore.Internal.Correction.Weighted>
   9.000000E+99

> <Gold.Protein.RotatedTorsions>
[ 6907 6896 6895 6894 ] final   40.21 input  -60.11 | X-H torsion
[ 7974 7965 7964 7962 ] final   13.82 input  175.53 | X-H torsion
[ 8008 7997 7996 7995 ] final  -27.74 input   59.86 | X-H torsion
[ 10167 10162 10161 10158 ] final  171.45 input  -65.29 | X-H torsion
[ 10718 10713 10712 10709 ] final  174.86 input   66.30 | X-H torsion
[ 10763 10752 10751 10750 ] final   75.34 input  -60.55 | X-H torsion
[ 11005 11000 10999 10996 ] final -110.75 input  -57.11 | X-H torsion

> <Gold.Protein.ActiveResidues>
 VAL166  LYS551  ARG553  GLY616  TRP617  ASP618  TYR619  PRO620  LYS621  CYS622 
 ASP623  PHE694  ASN695  SER759  ASP760  ASP761  ALA762  ILE779  LEU786  VAL792 
 PHE793  MET794  SER795  GLU796  ALA797  LYS798  CYS799  TRP800  GLU811  SER814 

> <Gold.Protein.RotatedAtoms>
  152.1795  134.8766  160.0527 H   0  0  0  0  0  0  0  0  0  0  0  0  # atno 6907 bound_to 6896
  151.9695  133.3716  159.4074 H   0  0  0  0  0  0  0  0  0  0  0  0  # atno 6908 bound_to 6896
  150.6915  134.4078  159.5192 H   0  0  0  0  0  0  0  0  0  0  0  0  # atno 6909 bound_to 6896
  146.2320  139.9132  142.8521 H   0  0  0  0  0  0  0  0  0  0  0  0  # atno 7974 bound_to 7965
  154.4363  140.1864  156.0980 H   0  0  0  0  0  0  0  0  0  0  0  0  # atno 8008 bound_to 7997
  156.0314  140.3330  155.7118 H   0  0  0  0  0  0  0  0  0  0  0  0  # atno 8009 bound_to 7997
  155.5833  140.0624  157.2768 H   0  0  0  0  0  0  0  0  0  0  0  0  # atno 8010 bound_to 7997
  139.5047  144.3484  151.9948 H   0  0  0  0  0  0  0  0  0  0  0  0  # atno 10167 bound_to 10162
  156.9433  131.0008  151.2964 H   0  0  0  0  0  0  0  0  0  0  0  0  # atno 10718 bound_to 10713
  153.0648  135.4992  154.8175 H   0  0  0  0  0  0  0  0  0  0  0  0  # atno 10763 bound_to 10752
  154.6937  135.2989  154.9445 H   0  0  0  0  0  0  0  0  0  0  0  0  # atno 10764 bound_to 10752
  154.0191  135.6744  153.4824 H   0  0  0  0  0  0  0  0  0  0  0  0  # atno 10765 bound_to 10752
  141.0774  133.9278  157.2361 H   0  0  0  0  0  0  0  0  0  0  0  0  # atno 11005 bound_to 11000
  145.2209  140.9935  143.4046 LP  0  0  0  0  0  0  0  0  0  0  0  0  # atno 17320 bound_to 7965
  144.9611  139.3979  143.6355 LP  0  0  0  0  0  0  0  0  0  0  0  0  # atno 17321 bound_to 7965
  140.2921  144.3742  150.6085 LP  0  0  0  0  0  0  0  0  0  0  0  0  # atno 17342 bound_to 10162
  140.5938  143.2167  151.7202 LP  0  0  0  0  0  0  0  0  0  0  0  0  # atno 17343 bound_to 10162
  157.5770  130.8350  149.8470 LP  0  0  0  0  0  0  0  0  0  0  0  0  # atno 17370 bound_to 10713
  156.0395  130.3742  150.1473 LP  0  0  0  0  0  0  0  0  0  0  0  0  # atno 17371 bound_to 10713
  139.9586  135.0159  156.9199 LP  0  0  0  0  0  0  0  0  0  0  0  0  # atno 17394 bound_to 11000
  140.5544  134.0596  155.7379 LP  0  0  0  0  0  0  0  0  0  0  0  0  # atno 17395 bound_to 11000

$$$$
