AV-unprocessed.smi:2721|AV-procd|sdf|10500|dock1
  -GOLD-   2272014543D 1   1.00000     0.00000
 Structure written by MMmdl.
 29 30  0  0  0  0  0  0  0  0  2 V2000
  151.3953  138.4120  154.9184 C   0  0  0  0  0  0  0  0  0  0  0  0
  151.2212  139.6524  155.6434 N   0  0  0  0  0  0  0  0  0  0  0  0
  151.4943  139.9213  156.9671 C   0  0  0  0  0  0  0  0  0  0  0  0
  151.1651  141.2282  157.1972 C   0  0  0  0  0  0  0  0  0  0  0  0
  151.2908  142.0249  158.4694 C   0  0  1  0  0  0  0  0  0  0  0  0
  152.6586  142.0863  158.8698 O   0  0  0  0  0  0  0  0  0  0  0  0
  152.8698  142.7379  160.1178 C   0  0  0  0  0  0  0  0  0  0  0  0
  152.4241  144.2033  160.0174 C   0  0  0  0  0  0  0  0  0  0  0  0
  150.9591  144.2802  159.5781 C   0  0  0  0  0  0  0  0  0  0  0  0
  150.7524  143.4663  158.2916 C   0  0  2  0  0  0  0  0  0  0  0  0
  149.3274  143.4698  157.9093 N   0  3  0  0  0  0  0  0  0  0  0  0
  150.6939  141.6764  155.9299 C   0  0  0  0  0  0  0  0  0  0  0  0
  150.7296  140.7332  155.0039 N   0  0  0  0  0  0  0  0  0  0  0  0
  150.7306  141.5298  159.2651 H   0  0  0  0  0  0  0  0  0  0  0  0
  151.3042  143.9500  157.4839 H   0  0  0  0  0  0  0  0  0  0  0  0
  151.9831  137.7115  155.5123 H   0  0  0  0  0  0  0  0  0  0  0  0
  151.9144  138.5999  153.9779 H   0  0  0  0  0  0  0  0  0  0  0  0
  150.4212  137.9697  154.7081 H   0  0  0  0  0  0  0  0  0  0  0  0
  151.8974  139.1696  157.6301 H   0  0  0  0  0  0  0  0  0  0  0  0
  152.3302  142.2174  160.9104 H   0  0  0  0  0  0  0  0  0  0  0  0
  153.9298  142.6852  160.3670 H   0  0  0  0  0  0  0  0  0  0  0  0
  152.5587  144.7061  160.9755 H   0  0  0  0  0  0  0  0  0  0  0  0
  153.0533  144.7277  159.2970 H   0  0  0  0  0  0  0  0  0  0  0  0
  150.3219  143.8901  160.3734 H   0  0  0  0  0  0  0  0  0  0  0  0
  150.6692  145.3205  159.4253 H   0  0  0  0  0  0  0  0  0  0  0  0
  148.8387  144.1862  158.4273 H   0  0  0  0  0  0  0  0  0  0  0  0
  148.9220  142.5684  158.1182 H   0  0  0  0  0  0  0  0  0  0  0  0
  150.3334  142.6570  155.6566 H   0  0  0  0  0  0  0  0  0  0  0  0
  149.2436  143.6537  156.9197 H   0  0  0  0  0  0  0  0  0  0  0  0
  1  2  1  0  0  0  0
  1 16  1  0  0  0  0
  1 17  1  0  0  0  0
  1 18  1  0  0  0  0
  2 13  1  0  0  0  0
  2  3  1  0  0  0  0
  3  4  2  0  0  0  0
  3 19  1  0  0  0  0
  4  5  1  0  0  0  0
  4 12  1  0  0  0  0
  5 14  1  0  0  0  0
  5 10  1  0  0  0  0
  5  6  1  0  0  0  0
  6  7  1  0  0  0  0
  7  8  1  0  0  0  0
  7 20  1  0  0  0  0
  7 21  1  0  0  0  0
  8  9  1  0  0  0  0
  8 22  1  0  0  0  0
  8 23  1  0  0  0  0
  9 10  1  0  0  0  0
  9 24  1  0  0  0  0
  9 25  1  0  0  0  0
 10 15  1  0  0  0  0
 10 11  1  0  0  0  0
 11 26  1  0  0  0  0
 11 27  1  0  0  0  0
 11 29  1  0  0  0  0
 12 13  2  0  0  0  0
 12 28  1  0  0  0  0
M  CHG  1  11   1
M  END
> <s_m_source_file>
AV-unprocessed.smi

> <i_m_source_file_index>
2721

> <i_lp_mmshare_version>
43012

> <i_f3d_flags>
0

> <s_epik_input>
W0NIM11uMVtjSF1jKFtjSF1uMSlbQ0BIXTJPW0NIMl1bQ0gyXVtDSDJdW0NAQEhdMltOSDJd

> <s_epik_cmdline>
J2VwaWtfcHl0aG9uJywgJy1waCcsICc3LjAnLCAnLXRuJywgJzgnLCAnLW1hJywgJzIwMCcsICctbWV0YWxfYmluZGluZycsICctaW1hZScsICc8aW5maWxlLm1hZT4nLCAnLW9tYWUnLCAnPG91dGZpbGUubWFlPic=

> <r_lp_tautomer_probability>
1

> <r_epik_Ionization_Penalty>
0.0061467

> <r_epik_Ionization_Penalty_Charging>
0.00611941

> <r_epik_Ionization_Penalty_Neutral>
2.72888e-05

> <r_epik_State_Penalty>
0.00451057

> <r_epik_Charging_Adjusted_Penalty>
0.01063

> <i_epik_Tot_Q>
1

> <i_epik_Tot_abs_Q>
1

> <r_epik_Metal_State_Penalty>
-0

> <b_epik_Metal_Only>
0

> <s_lp_Force_Field>
OPLS_2005

> <r_lp_Energy>
11.0235

> <b_lp_Chiralities_Consistent>
1

> <s_lp_Variant>
AV-unprocessed.smi:2721-1

> <Gold.Version>
5.8.1

> <Gold.Id.Protein>
6NUR|6NUR_protein|mol2

> <Gold.PLP.Fitness>
41.2952

> <Gold.PLP.PLP>
-28.8595

> <Gold.PLP.part.hbond>
-3.0000

> <Gold.PLP.part.metal>
0.0000

> <Gold.PLP.part.buried>
-2.4460

> <Gold.PLP.part.nonpolar>
-22.8952

> <Gold.PLP.part.repulsive>
0.1165

> <Gold.PLP.ligand.clash>
0.0000

> <Gold.PLP.ligand.torsion>
0.0107

> <Gold.PLP.Chemscore.Hbond>
3.1510

> <Gold.PLP.Chemscore.CHOScore>
1.0000

> <Gold.PLP.Chemscore.Metal>
0.0000

> <Gold.Chemscore.Hbonds>
donor molecule, donor type, donor heavy atom, donor atom, acceptor molecule, acceptor atom, score
      L1  H    11    26       P1  8029  0.24
      L1  H    11    29       P1  8028  1.95
      P1  H  7989  7998       L1    13  0.88
      L1  C    12    28       P1  8028  1.00

> <Gold.PLP.Chemscore.Internal.Correction>
0.0039

> <Gold.Rescore>
     Score         DG    S(hbond)    S(metal)    S(lipo)     H(rot)  DE(clash)    DE(int)     intcor
     16.70     -17.63       1.70        0.00      77.31       1.00       0.04       0.90       ----

> <Gold.Chemscore.Fitness>
16.6974

> <Gold.Chemscore.DG>
-17.6310

> <Gold.Chemscore.ZeroCoef>
-5.4800

> <Gold.Chemscore.Hbond>
1.6963

> <Gold.Chemscore.Metal>
0.0000

> <Gold.Chemscore.Lipo>
77.3106

> <Gold.Chemscore.Internal_Hbond>
0.0000

> <Gold.Chemscore.DEClash>
0.0351

> <Gold.Chemscore.DEInternal>
0.8985

> <Gold.Chemscore.Rot>
1.0000

> <Gold.Chemscore.Internal.Correction>
   9.000000E+99

> <Gold.Chemscore.Hbonds>
donor molecule, donor type, donor heavy atom, donor atom, acceptor molecule, acceptor atom, score
      L1  H    11    26       P1  8029  0.05
      L1  H    11    29       P1  8028  0.76
      P1  H  7989  7998       L1    13  0.52

> <Gold.Chemscore.Hbond.Weighted>
-5.6657

> <Gold.Chemscore.Metal.Weighted>
-0.0000

> <Gold.Chemscore.Lipo.Weighted>
-9.0453

> <Gold.Chemscore.Internal_Hbond.Weighted>
0.0000

> <Gold.Chemscore.DEClash.Weighted>
0.0351

> <Gold.Chemscore.DEInternal.Weighted>
0.8985

> <Gold.Chemscore.Rot.Weighted>
2.5600

> <Gold.Chemscore.Internal.Correction.Weighted>
   9.000000E+99

> <Gold.Protein.RotatedTorsions>
[ 6907 6896 6895 6894 ] final  158.38 input  -60.11 | X-H torsion
[ 7974 7965 7964 7962 ] final -156.03 input  175.53 | X-H torsion
[ 8008 7997 7996 7995 ] final   -7.59 input   59.86 | X-H torsion
[ 10167 10162 10161 10158 ] final  -29.49 input  -65.29 | X-H torsion
[ 10718 10713 10712 10709 ] final  108.41 input   66.30 | X-H torsion
[ 10763 10752 10751 10750 ] final  -91.63 input  -60.55 | X-H torsion
[ 11005 11000 10999 10996 ] final   -8.41 input  -57.11 | X-H torsion

> <Gold.Protein.ActiveResidues>
 VAL166  LYS551  ARG553  GLY616  TRP617  ASP618  TYR619  PRO620  LYS621  CYS622 
 ASP623  PHE694  ASN695  SER759  ASP760  ASP761  ALA762  ILE779  LEU786  VAL792 
 PHE793  MET794  SER795  GLU796  ALA797  LYS798  CYS799  TRP800  GLU811  SER814 

> <Gold.Protein.RotatedAtoms>
  152.0013  133.3826  159.4182 H   0  0  0  0  0  0  0  0  0  0  0  0  # atno 6907 bound_to 6896
  150.6910  134.3831  159.5052 H   0  0  0  0  0  0  0  0  0  0  0  0  # atno 6908 bound_to 6896
  152.1578  134.8936  160.0594 H   0  0  0  0  0  0  0  0  0  0  0  0  # atno 6909 bound_to 6896
  144.7612  140.4167  143.5975 H   0  0  0  0  0  0  0  0  0  0  0  0  # atno 7974 bound_to 7965
  154.5824  140.2403  155.8035 H   0  0  0  0  0  0  0  0  0  0  0  0  # atno 8008 bound_to 7997
  156.2189  140.3004  155.9860 H   0  0  0  0  0  0  0  0  0  0  0  0  # atno 8009 bound_to 7997
  155.2518  140.0411  157.2978 H   0  0  0  0  0  0  0  0  0  0  0  0  # atno 8010 bound_to 7997
  140.7260  143.3924  151.1406 H   0  0  0  0  0  0  0  0  0  0  0  0  # atno 10167 bound_to 10162
  157.6587  131.0893  150.6301 H   0  0  0  0  0  0  0  0  0  0  0  0  # atno 10718 bound_to 10713
  154.6780  135.5261  153.8225 H   0  0  0  0  0  0  0  0  0  0  0  0  # atno 10763 bound_to 10752
  153.0545  135.6545  154.0621 H   0  0  0  0  0  0  0  0  0  0  0  0  # atno 10764 bound_to 10752
  154.0511  135.2969  155.3320 H   0  0  0  0  0  0  0  0  0  0  0  0  # atno 10765 bound_to 10752
  140.7232  133.8811  155.8836 H   0  0  0  0  0  0  0  0  0  0  0  0  # atno 11005 bound_to 11000
  145.6614  139.1582  143.2806 LP  0  0  0  0  0  0  0  0  0  0  0  0  # atno 17320 bound_to 7965
  146.1676  140.6694  142.9248 LP  0  0  0  0  0  0  0  0  0  0  0  0  # atno 17321 bound_to 7965
  139.7531  143.8748  152.3082 LP  0  0  0  0  0  0  0  0  0  0  0  0  # atno 17342 bound_to 10162
  139.8609  144.7118  150.9101 LP  0  0  0  0  0  0  0  0  0  0  0  0  # atno 17343 bound_to 10162
  156.6605  130.4511  149.5689 LP  0  0  0  0  0  0  0  0  0  0  0  0  # atno 17370 bound_to 10713
  156.2071  130.6655  151.1229 LP  0  0  0  0  0  0  0  0  0  0  0  0  # atno 17371 bound_to 10713
  140.9985  134.1182  157.4340 LP  0  0  0  0  0  0  0  0  0  0  0  0  # atno 17394 bound_to 11000
  139.8843  135.0061  156.6361 LP  0  0  0  0  0  0  0  0  0  0  0  0  # atno 17395 bound_to 11000

$$$$
