AV-unprocessed.smi:625|AV-procd|sdf|3103|dock8
  -GOLD-   22720 0 23D 1   1.00000     0.00000
 Structure written by MMmdl.
 49 51  0  0  0  0  0  0  0  0  1 V2000
  150.0571  144.0425  159.3405 C   0  0  0  0  0  0  0  0  0  0  0  0
  150.0939  143.1140  158.2212 N   0  0  0  0  0  0  0  0  0  0  0  0
  150.6982  141.9131  158.2442 C   0  0  0  0  0  0  0  0  0  0  0  0
  151.2893  141.5072  159.2455 O   0  0  0  0  0  0  0  0  0  0  0  0
  150.5758  141.1537  156.9964 C   0  0  0  0  0  0  0  0  0  0  0  0
  151.4537  140.0239  156.7615 C   0  0  0  0  0  0  0  0  0  0  0  0
  151.3398  139.2833  155.6413 C   0  0  0  0  0  0  0  0  0  0  0  0
  150.3332  139.5811  154.6180 C   0  0  0  0  0  0  0  0  0  0  0  0
  150.2103  138.8936  153.6043 O   0  0  0  0  0  0  0  0  0  0  0  0
  149.5396  140.6663  154.8664 N   0  0  0  0  0  0  0  0  0  0  0  0
  148.4543  141.0535  153.9516 C   0  0  0  0  0  0  0  0  0  0  0  0
  147.0874  140.8452  154.6124 C   0  0  0  0  0  0  0  0  0  0  0  0
  146.7708  139.7377  155.0468 O   0  0  0  0  0  0  0  0  0  0  0  0
  146.3033  141.9311  154.7002 N   0  0  0  0  0  0  0  0  0  0  0  0
  145.0359  142.0159  155.4225 C   0  0  2  0  0  0  0  0  0  0  0  0
  144.0474  141.0240  154.7886 C   0  0  0  0  0  0  0  0  0  0  0  0
  144.5084  143.4740  155.3948 C   0  0  1  0  0  0  0  0  0  0  0  0
  144.2589  144.0119  153.9647 C   0  0  0  0  0  0  0  0  0  0  0  0
  142.8033  144.5089  154.0194 C   0  0  2  0  0  0  0  0  0  0  0  0
  142.7191  145.7645  154.9062 C   0  0  0  0  0  0  0  0  0  0  0  0
  142.9113  145.1902  156.3214 C   0  0  0  0  0  0  0  0  0  0  0  0
  143.1180  143.6876  156.0530 C   0  0  1  0  0  0  0  0  0  0  0  0
  142.1514  143.4507  154.8988 C   0  0  0  0  0  0  0  0  0  0  0  0
  149.6654  141.4365  156.0399 C   0  0  0  0  0  0  0  0  0  0  0  0
  149.5136  144.9435  159.0566 H   0  0  0  0  0  0  0  0  0  0  0  0
  151.0650  144.3315  159.6404 H   0  0  0  0  0  0  0  0  0  0  0  0
  149.5514  143.5964  160.1978 H   0  0  0  0  0  0  0  0  0  0  0  0
  149.6223  143.3954  157.3740 H   0  0  0  0  0  0  0  0  0  0  0  0
  152.2120  139.7609  157.4850 H   0  0  0  0  0  0  0  0  0  0  0  0
  152.0059  138.4461  155.4927 H   0  0  0  0  0  0  0  0  0  0  0  0
  148.5795  142.0989  153.6634 H   0  0  0  0  0  0  0  0  0  0  0  0
  148.4794  140.4931  153.0160 H   0  0  0  0  0  0  0  0  0  0  0  0
  146.6481  142.7903  154.2970 H   0  0  0  0  0  0  0  0  0  0  0  0
  145.1799  141.7168  156.4617 H   0  0  0  0  0  0  0  0  0  0  0  0
  143.0945  141.0130  155.3172 H   0  0  0  0  0  0  0  0  0  0  0  0
  144.4429  140.0080  154.8148 H   0  0  0  0  0  0  0  0  0  0  0  0
  143.8451  141.2746  153.7465 H   0  0  0  0  0  0  0  0  0  0  0  0
  145.2417  144.1041  155.9007 H   0  0  0  0  0  0  0  0  0  0  0  0
  144.9582  144.8030  153.6913 H   0  0  0  0  0  0  0  0  0  0  0  0
  144.3483  143.2216  153.2183 H   0  0  0  0  0  0  0  0  0  0  0  0
  142.3478  144.6351  153.0370 H   0  0  0  0  0  0  0  0  0  0  0  0
  143.4789  146.5033  154.6493 H   0  0  0  0  0  0  0  0  0  0  0  0
  141.7423  146.2417  154.8161 H   0  0  0  0  0  0  0  0  0  0  0  0
  143.7529  145.6417  156.8475 H   0  0  0  0  0  0  0  0  0  0  0  0
  142.0172  145.3542  156.9235 H   0  0  0  0  0  0  0  0  0  0  0  0
  142.9251  143.0805  156.9358 H   0  0  0  0  0  0  0  0  0  0  0  0
  141.1135  143.6762  155.1499 H   0  0  0  0  0  0  0  0  0  0  0  0
  142.2074  142.4434  154.4836 H   0  0  0  0  0  0  0  0  0  0  0  0
  148.9532  142.2472  156.1009 H   0  0  0  0  0  0  0  0  0  0  0  0
  1  2  1  0  0  0  0
  1 25  1  0  0  0  0
  1 26  1  0  0  0  0
  1 27  1  0  0  0  0
  2  3  1  0  0  0  0
  2 28  1  0  0  0  0
  3  4  2  0  0  0  0
  3  5  1  0  0  0  0
  5 24  2  0  0  0  0
  5  6  1  0  0  0  0
  6  7  2  0  0  0  0
  6 29  1  0  0  0  0
  7  8  1  0  0  0  0
  7 30  1  0  0  0  0
  8  9  2  0  0  0  0
  8 10  1  0  0  0  0
 10 11  1  0  0  0  0
 10 24  1  0  0  0  0
 11 12  1  0  0  0  0
 11 31  1  0  0  0  0
 11 32  1  0  0  0  0
 12 13  2  0  0  0  0
 12 14  1  0  0  0  0
 14 15  1  0  0  0  0
 14 33  1  0  0  0  0
 15 16  1  0  0  0  0
 15 17  1  0  0  0  0
 15 34  1  0  0  0  0
 16 35  1  0  0  0  0
 16 36  1  0  0  0  0
 16 37  1  0  0  0  0
 17 22  1  0  0  0  0
 17 18  1  0  0  0  0
 17 38  1  0  0  0  0
 18 19  1  0  0  0  0
 18 39  1  0  0  0  0
 18 40  1  0  0  0  0
 19 23  1  0  0  0  0
 19 20  1  0  0  0  0
 19 41  1  0  0  0  0
 20 21  1  0  0  0  0
 20 42  1  0  0  0  0
 20 43  1  0  0  0  0
 21 22  1  0  0  0  0
 21 44  1  0  0  0  0
 21 45  1  0  0  0  0
 22 23  1  0  0  0  0
 22 46  1  0  0  0  0
 23 47  1  0  0  0  0
 23 48  1  0  0  0  0
 24 49  1  0  0  0  0
M  END
> <s_m_source_file>
AV-unprocessed.smi

> <i_m_source_file_index>
625

> <i_lp_mmshare_version>
43012

> <i_f3d_flags>
0

> <s_epik_input>
W0NIM11bTkhdQyg9TyljMVtjSF1bY0hdYyg9TyluKFtjSF0xKVtDSDJdQyg9TylbTkhdW0NASF0oW0NIM10pW0NASF0oW0NIMl1bQ0BIXTIzKVtDQEhdKFtDSDJdMylbQ0gyXVtDSDJdMg==

> <s_epik_cmdline>
J2VwaWtfcHl0aG9uJywgJy1waCcsICc3LjAnLCAnLXRuJywgJzgnLCAnLW1hJywgJzIwMCcsICctbWV0YWxfYmluZGluZycsICctaW1hZScsICc8aW5maWxlLm1hZT4nLCAnLW9tYWUnLCAnPG91dGZpbGUubWFlPic=

> <r_lp_tautomer_probability>
1

> <r_epik_Ionization_Penalty>
3.7129e-07

> <r_epik_Ionization_Penalty_Charging>
5.04114e-08

> <r_epik_Ionization_Penalty_Neutral>
3.20879e-07

> <r_epik_State_Penalty>
-0

> <r_epik_Charging_Adjusted_Penalty>
5.04114e-08

> <i_epik_Tot_Q>
0

> <i_epik_Tot_abs_Q>
0

> <r_epik_Metal_State_Penalty>
-0

> <b_epik_Metal_Only>
0

> <s_lp_Force_Field>
OPLS_2005

> <r_lp_Energy>
63.7952

> <b_lp_Chiralities_Consistent>
1

> <s_lp_Variant>
AV-unprocessed.smi:625-3

> <Gold.Version>
5.8.1

> <Gold.Id.Protein>
6NUR|6NUR_protein|mol2

> <Gold.PLP.Fitness>
47.1769

> <Gold.PLP.PLP>
-41.5115

> <Gold.PLP.part.hbond>
-1.0000

> <Gold.PLP.part.metal>
0.0000

> <Gold.PLP.part.buried>
-6.2945

> <Gold.PLP.part.nonpolar>
-34.3842

> <Gold.PLP.part.repulsive>
0.9867

> <Gold.PLP.ligand.clash>
0.0000

> <Gold.PLP.ligand.torsion>
0.1956

> <Gold.PLP.Chemscore.Hbond>
1.0000

> <Gold.PLP.Chemscore.CHOScore>
1.0000

> <Gold.PLP.Chemscore.Metal>
0.0000

> <Gold.Chemscore.Hbonds>
donor molecule, donor type, donor heavy atom, donor atom, acceptor molecule, acceptor atom, score
      L1  H     2    28       P1  8028  0.39
      L1  C    24    49       P1  8028  1.00

> <Gold.PLP.Chemscore.Internal.Correction>
0.0567

> <Gold.Rescore>
     Score         DG    S(hbond)    S(metal)    S(lipo)     H(rot)  DE(clash)    DE(int)     intcor
     14.50     -14.96       0.98        0.00      89.56       1.67       0.30       0.16       ----

> <Gold.Chemscore.Fitness>
14.5007

> <Gold.Chemscore.DG>
-14.9564

> <Gold.Chemscore.ZeroCoef>
-5.4800

> <Gold.Chemscore.Hbond>
0.9807

> <Gold.Chemscore.Metal>
0.0000

> <Gold.Chemscore.Lipo>
89.5573

> <Gold.Chemscore.Internal_Hbond>
0.0000

> <Gold.Chemscore.DEClash>
0.2999

> <Gold.Chemscore.DEInternal>
0.1558

> <Gold.Chemscore.Rot>
1.6709

> <Gold.Chemscore.Internal.Correction>
   9.000000E+99

> <Gold.Chemscore.Hbonds>
donor molecule, donor type, donor heavy atom, donor atom, acceptor molecule, acceptor atom, score
      L1  H     2    28       P1  8028  0.33

> <Gold.Chemscore.Hbond.Weighted>
-3.2755

> <Gold.Chemscore.Metal.Weighted>
-0.0000

> <Gold.Chemscore.Lipo.Weighted>
-10.4782

> <Gold.Chemscore.Internal_Hbond.Weighted>
0.0000

> <Gold.Chemscore.DEClash.Weighted>
0.2999

> <Gold.Chemscore.DEInternal.Weighted>
0.1558

> <Gold.Chemscore.Rot.Weighted>
4.2774

> <Gold.Chemscore.Internal.Correction.Weighted>
   9.000000E+99

> <Gold.Protein.RotatedTorsions>
[ 6907 6896 6895 6894 ] final    6.85 input  -60.11 | X-H torsion
[ 7974 7965 7964 7962 ] final -107.73 input  175.53 | X-H torsion
[ 8008 7997 7996 7995 ] final -162.75 input   59.86 | X-H torsion
[ 10167 10162 10161 10158 ] final   18.29 input  -65.29 | X-H torsion
[ 10718 10713 10712 10709 ] final  -33.45 input   66.30 | X-H torsion
[ 10763 10752 10751 10750 ] final   42.88 input  -60.55 | X-H torsion
[ 11005 11000 10999 10996 ] final  130.73 input  -57.11 | X-H torsion

> <Gold.Protein.ActiveResidues>
 VAL166  LYS551  ARG553  GLY616  TRP617  ASP618  TYR619  PRO620  LYS621  CYS622 
 ASP623  PHE694  ASN695  SER759  ASP760  ASP761  ALA762  ILE779  LEU786  VAL792 
 PHE793  MET794  SER795  GLU796  ALA797  LYS798  CYS799  TRP800  GLU811  SER814 

> <Gold.Protein.RotatedAtoms>
  151.6803  135.0962  160.0214 H   0  0  0  0  0  0  0  0  0  0  0  0  # atno 6907 bound_to 6896
  152.3839  133.6580  159.6192 H   0  0  0  0  0  0  0  0  0  0  0  0  # atno 6908 bound_to 6896
  150.7769  133.8984  159.3375 H   0  0  0  0  0  0  0  0  0  0  0  0  # atno 6909 bound_to 6896
  145.2017  140.9059  143.3366 H   0  0  0  0  0  0  0  0  0  0  0  0  # atno 7974 bound_to 7965
  155.8114  140.0906  157.1902 H   0  0  0  0  0  0  0  0  0  0  0  0  # atno 8008 bound_to 7997
  154.3980  140.1454  156.3450 H   0  0  0  0  0  0  0  0  0  0  0  0  # atno 8009 bound_to 7997
  155.8361  140.3440  155.5605 H   0  0  0  0  0  0  0  0  0  0  0  0  # atno 8010 bound_to 7997
  140.5664  143.9242  150.6680 H   0  0  0  0  0  0  0  0  0  0  0  0  # atno 10167 bound_to 10162
  156.3625  130.4326  149.7612 H   0  0  0  0  0  0  0  0  0  0  0  0  # atno 10718 bound_to 10713
  152.9873  135.6118  154.3021 H   0  0  0  0  0  0  0  0  0  0  0  0  # atno 10763 bound_to 10752
  154.2741  135.2779  155.2727 H   0  0  0  0  0  0  0  0  0  0  0  0  # atno 10764 bound_to 10752
  154.5096  135.5844  153.6651 H   0  0  0  0  0  0  0  0  0  0  0  0  # atno 10765 bound_to 10752
  139.9689  134.9583  156.9336 H   0  0  0  0  0  0  0  0  0  0  0  0  # atno 11005 bound_to 11000
  144.9941  139.3661  143.6200 LP  0  0  0  0  0  0  0  0  0  0  0  0  # atno 17320 bound_to 7965
  146.3416  139.9137  142.8776 LP  0  0  0  0  0  0  0  0  0  0  0  0  # atno 17321 bound_to 7965
  140.2706  143.3458  152.1241 LP  0  0  0  0  0  0  0  0  0  0  0  0  # atno 17342 bound_to 10162
  139.5095  144.6868  151.5865 LP  0  0  0  0  0  0  0  0  0  0  0  0  # atno 17343 bound_to 10162
  156.4770  130.8023  151.3039 LP  0  0  0  0  0  0  0  0  0  0  0  0  # atno 17370 bound_to 10713
  157.7475  131.0018  150.2976 LP  0  0  0  0  0  0  0  0  0  0  0  0  # atno 17371 bound_to 10713
  140.5336  134.0789  155.7322 LP  0  0  0  0  0  0  0  0  0  0  0  0  # atno 17394 bound_to 11000
  141.1369  133.9206  157.2414 LP  0  0  0  0  0  0  0  0  0  0  0  0  # atno 17395 bound_to 11000

$$$$
