AV-unprocessed.smi:3181|AV-procd|sdf|12141|dock10
  -GOLD-   2272017583D 1   1.00000     0.00000
 Structure written by MMmdl.
 42 43  0  0  0  0  0  0  0  0  2 V2000
  151.1070  140.2674  155.7668 C   0  0  0  0  0  0  0  0  0  0  0  0
  150.0699  141.3944  155.9069 C   0  0  2  0  0  0  0  0  0  0  0  0
  149.2856  141.6578  154.6003 C   0  0  0  0  0  0  0  0  0  0  0  0
  148.4503  140.5387  154.2050 N   0  0  0  0  0  0  0  0  0  0  0  0
  148.6983  139.2280  154.2112 C   0  0  0  0  0  0  0  0  0  0  0  0
  147.6880  138.4904  153.7732 N   0  0  0  0  0  0  0  0  0  0  0  0
  146.7850  139.4787  153.4991 C   0  0  0  0  0  0  0  0  0  0  0  0
  147.1920  140.7249  153.7422 N   0  0  0  0  0  0  0  0  0  0  0  0
  150.7489  142.6204  156.3875 N   0  3  0  0  0  0  0  0  0  0  0  0
  150.9280  142.7375  157.8527 C   0  0  1  0  0  0  0  0  0  0  0  0
  152.0098  141.7572  158.3293 C   0  0  0  0  0  0  0  0  0  0  0  0
  152.2254  141.8726  159.8446 C   0  0  0  0  0  0  0  0  0  0  0  0
  152.5974  143.3079  160.2701 C   0  0  2  0  0  0  0  0  0  0  0  0
  152.8005  143.3633  161.7947 C   0  0  0  0  0  0  0  0  0  0  0  0
  151.5391  144.3241  159.7632 C   0  0  1  0  0  0  0  0  0  0  0  0
  151.9022  145.7820  160.0968 C   0  0  0  0  0  0  0  0  0  0  0  0
  151.3222  144.1741  158.2428 C   0  0  0  0  0  0  0  0  0  0  0  0
  150.6359  139.3125  155.5324 H   0  0  0  0  0  0  0  0  0  0  0  0
  151.6628  140.1292  156.6948 H   0  0  0  0  0  0  0  0  0  0  0  0
  151.8269  140.4868  154.9778 H   0  0  0  0  0  0  0  0  0  0  0  0
  149.3650  141.0837  156.6796 H   0  0  0  0  0  0  0  0  0  0  0  0
  148.6344  142.5249  154.7115 H   0  0  0  0  0  0  0  0  0  0  0  0
  149.9735  141.8869  153.7842 H   0  0  0  0  0  0  0  0  0  0  0  0
  149.6365  138.8053  154.5398 H   0  0  0  0  0  0  0  0  0  0  0  0
  145.7992  139.2736  153.1080 H   0  0  0  0  0  0  0  0  0  0  0  0
  151.6732  142.6186  155.9805 H   0  0  0  0  0  0  0  0  0  0  0  0
  149.9948  142.4758  158.3546 H   0  0  0  0  0  0  0  0  0  0  0  0
  151.7255  140.7343  158.0781 H   0  0  0  0  0  0  0  0  0  0  0  0
  152.9497  141.9540  157.8113 H   0  0  0  0  0  0  0  0  0  0  0  0
  151.3194  141.5572  160.3642 H   0  0  0  0  0  0  0  0  0  0  0  0
  153.0098  141.1790  160.1501 H   0  0  0  0  0  0  0  0  0  0  0  0
  153.5528  143.5529  159.8032 H   0  0  0  0  0  0  0  0  0  0  0  0
  151.8630  143.1979  162.3268 H   0  0  0  0  0  0  0  0  0  0  0  0
  153.2044  144.3230  162.1157 H   0  0  0  0  0  0  0  0  0  0  0  0
  153.5056  142.5993  162.1230 H   0  0  0  0  0  0  0  0  0  0  0  0
  150.5911  144.1018  160.2557 H   0  0  0  0  0  0  0  0  0  0  0  0
  152.8791  146.0501  159.6931 H   0  0  0  0  0  0  0  0  0  0  0  0
  151.9230  145.9589  161.1718 H   0  0  0  0  0  0  0  0  0  0  0  0
  151.1706  146.4740  159.6786 H   0  0  0  0  0  0  0  0  0  0  0  0
  152.2344  144.4587  157.7156 H   0  0  0  0  0  0  0  0  0  0  0  0
  150.5537  144.8741  157.9155 H   0  0  0  0  0  0  0  0  0  0  0  0
  150.2577  143.4345  156.0461 H   0  0  0  0  0  0  0  0  0  0  0  0
  1  2  1  0  0  0  0
  1 18  1  0  0  0  0
  1 19  1  0  0  0  0
  1 20  1  0  0  0  0
  2  3  1  0  0  0  0
  2  9  1  0  0  0  0
  2 21  1  0  0  0  0
  3  4  1  0  0  0  0
  3 22  1  0  0  0  0
  3 23  1  0  0  0  0
  4  8  1  0  0  0  0
  4  5  1  0  0  0  0
  5  6  2  0  0  0  0
  5 24  1  0  0  0  0
  6  7  1  0  0  0  0
  7  8  2  0  0  0  0
  7 25  1  0  0  0  0
  9 10  1  0  0  0  0
  9 26  1  0  0  0  0
  9 42  1  0  0  0  0
 10 17  1  0  0  0  0
 10 11  1  0  0  0  0
 10 27  1  0  0  0  0
 11 12  1  0  0  0  0
 11 28  1  0  0  0  0
 11 29  1  0  0  0  0
 12 13  1  0  0  0  0
 12 30  1  0  0  0  0
 12 31  1  0  0  0  0
 13 14  1  0  0  0  0
 13 15  1  0  0  0  0
 13 32  1  0  0  0  0
 14 33  1  0  0  0  0
 14 34  1  0  0  0  0
 14 35  1  0  0  0  0
 15 16  1  0  0  0  0
 15 17  1  0  0  0  0
 15 36  1  0  0  0  0
 16 37  1  0  0  0  0
 16 38  1  0  0  0  0
 16 39  1  0  0  0  0
 17 40  1  0  0  0  0
 17 41  1  0  0  0  0
M  CHG  1   9   1
M  END
> <s_m_source_file>
AV-unprocessed.smi

> <i_m_source_file_index>
3181

> <i_lp_mmshare_version>
43012

> <i_f3d_flags>
0

> <s_epik_input>
bjFbY0hdbltjSF1uMVtDSDJdW0NAQEhdKFtDSDNdKVtOSF1bQ0BASF0yW0NIMl1bQ0gyXVtDQEBIXShbQ0gzXSlbQ0BASF0oW0NIM10pW0NIMl0y

> <s_epik_cmdline>
J2VwaWtfcHl0aG9uJywgJy1waCcsICc3LjAnLCAnLXRuJywgJzgnLCAnLW1hJywgJzIwMCcsICctbWV0YWxfYmluZGluZycsICctaW1hZScsICc8aW5maWxlLm1hZT4nLCAnLW9tYWUnLCAnPG91dGZpbGUubWFlPic=

> <r_lp_tautomer_probability>
1

> <r_epik_Ionization_Penalty>
0.000617007

> <r_epik_Ionization_Penalty_Charging>
0.000616215

> <r_epik_Ionization_Penalty_Neutral>
7.92544e-07

> <r_epik_State_Penalty>
0.000388807

> <r_epik_Charging_Adjusted_Penalty>
0.00100502

> <i_epik_Tot_Q>
1

> <i_epik_Tot_abs_Q>
1

> <r_epik_Metal_State_Penalty>
-0

> <b_epik_Metal_Only>
0

> <s_lp_Force_Field>
OPLS_2005

> <r_lp_Energy>
19.8131

> <b_lp_Chiralities_Consistent>
1

> <s_lp_Variant>
AV-unprocessed.smi:3181-7

> <Gold.Version>
5.8.1

> <Gold.Id.Protein>
6NUR|6NUR_protein|mol2

> <Gold.PLP.Fitness>
49.0629

> <Gold.PLP.PLP>
-41.3935

> <Gold.PLP.part.hbond>
-1.0000

> <Gold.PLP.part.metal>
0.0000

> <Gold.PLP.part.buried>
-3.0978

> <Gold.PLP.part.nonpolar>
-37.3409

> <Gold.PLP.part.repulsive>
0.4378

> <Gold.PLP.ligand.clash>
0.0000

> <Gold.PLP.ligand.torsion>
0.6741

> <Gold.PLP.Chemscore.Hbond>
2.0000

> <Gold.PLP.Chemscore.CHOScore>
1.0000

> <Gold.PLP.Chemscore.Metal>
0.0000

> <Gold.Chemscore.Hbonds>
donor molecule, donor type, donor heavy atom, donor atom, acceptor molecule, acceptor atom, score
      L1  H     9    42       P1  8028  2.00
      L1  C     7    25       P1 10175  1.00

> <Gold.PLP.Chemscore.Internal.Correction>
0.0177

> <Gold.Rescore>
     Score         DG    S(hbond)    S(metal)    S(lipo)     H(rot)  DE(clash)    DE(int)     intcor
     15.17     -16.10       1.00        0.00     108.38       2.11       0.19       0.74       ----

> <Gold.Chemscore.Fitness>
15.1720

> <Gold.Chemscore.DG>
-16.0996

> <Gold.Chemscore.ZeroCoef>
-5.4800

> <Gold.Chemscore.Hbond>
0.9997

> <Gold.Chemscore.Metal>
0.0000

> <Gold.Chemscore.Lipo>
108.3838

> <Gold.Chemscore.Internal_Hbond>
0.0000

> <Gold.Chemscore.DEClash>
0.1858

> <Gold.Chemscore.DEInternal>
0.7418

> <Gold.Chemscore.Rot>
2.1095

> <Gold.Chemscore.Internal.Correction>
   9.000000E+99

> <Gold.Chemscore.Hbonds>
donor molecule, donor type, donor heavy atom, donor atom, acceptor molecule, acceptor atom, score
      L1  H     9    42       P1  8028  1.00

> <Gold.Chemscore.Hbond.Weighted>
-3.3390

> <Gold.Chemscore.Metal.Weighted>
-0.0000

> <Gold.Chemscore.Lipo.Weighted>
-12.6809

> <Gold.Chemscore.Internal_Hbond.Weighted>
0.0000

> <Gold.Chemscore.DEClash.Weighted>
0.1858

> <Gold.Chemscore.DEInternal.Weighted>
0.7418

> <Gold.Chemscore.Rot.Weighted>
5.4003

> <Gold.Chemscore.Internal.Correction.Weighted>
   9.000000E+99

> <Gold.Protein.RotatedTorsions>
[ 6907 6896 6895 6894 ] final -165.12 input  -60.11 | X-H torsion
[ 7974 7965 7964 7962 ] final  -22.50 input  175.53 | X-H torsion
[ 8008 7997 7996 7995 ] final   19.27 input   59.86 | X-H torsion
[ 10167 10162 10161 10158 ] final -103.13 input  -65.29 | X-H torsion
[ 10718 10713 10712 10709 ] final -114.21 input   66.30 | X-H torsion
[ 10763 10752 10751 10750 ] final  -14.22 input  -60.55 | X-H torsion
[ 11005 11000 10999 10996 ] final  -45.18 input  -57.11 | X-H torsion

> <Gold.Protein.ActiveResidues>
 VAL166  LYS551  ARG553  GLY616  TRP617  ASP618  TYR619  PRO620  LYS621  CYS622 
 ASP623  PHE694  ASN695  SER759  ASP760  ASP761  ALA762  ILE779  LEU786  VAL792 
 PHE793  MET794  SER795  GLU796  ALA797  LYS798  CYS799  TRP800  GLU811  SER814 

> <Gold.Protein.RotatedAtoms>
  151.4226  133.3694  159.2757 H   0  0  0  0  0  0  0  0  0  0  0  0  # atno 6907 bound_to 6896
  150.9283  134.8700  159.7545 H   0  0  0  0  0  0  0  0  0  0  0  0  # atno 6908 bound_to 6896
  152.5015  134.4168  159.9519 H   0  0  0  0  0  0  0  0  0  0  0  0  # atno 6909 bound_to 6896
  146.1672  140.4487  142.8547 H   0  0  0  0  0  0  0  0  0  0  0  0  # atno 7974 bound_to 7965
  154.9183  140.3024  155.5229 H   0  0  0  0  0  0  0  0  0  0  0  0  # atno 8008 bound_to 7997
  156.3011  140.2376  156.4166 H   0  0  0  0  0  0  0  0  0  0  0  0  # atno 8009 bound_to 7997
  154.8356  140.0416  157.1495 H   0  0  0  0  0  0  0  0  0  0  0  0  # atno 8010 bound_to 7997
  140.2233  143.3660  152.0951 H   0  0  0  0  0  0  0  0  0  0  0  0  # atno 10167 bound_to 10162
  156.0815  130.6014  150.8745 H   0  0  0  0  0  0  0  0  0  0  0  0  # atno 10718 bound_to 10713
  153.5250  135.7015  153.5712 H   0  0  0  0  0  0  0  0  0  0  0  0  # atno 10763 bound_to 10752
  153.3744  135.3936  155.1812 H   0  0  0  0  0  0  0  0  0  0  0  0  # atno 10764 bound_to 10752
  154.8690  135.3820  154.4742 H   0  0  0  0  0  0  0  0  0  0  0  0  # atno 10765 bound_to 10752
  141.0499  133.6747  156.2977 H   0  0  0  0  0  0  0  0  0  0  0  0  # atno 11005 bound_to 11000
  144.8109  140.6384  143.6415 LP  0  0  0  0  0  0  0  0  0  0  0  0  # atno 17320 bound_to 7965
  145.4436  139.1532  143.3957 LP  0  0  0  0  0  0  0  0  0  0  0  0  # atno 17321 bound_to 7965
  139.5136  144.6935  151.5694 LP  0  0  0  0  0  0  0  0  0  0  0  0  # atno 17342 bound_to 10162
  140.6239  143.9206  150.6548 LP  0  0  0  0  0  0  0  0  0  0  0  0  # atno 17343 bound_to 10162
  157.5934  131.0944  150.9081 LP  0  0  0  0  0  0  0  0  0  0  0  0  # atno 17370 bound_to 10713
  156.9252  130.5330  149.5279 LP  0  0  0  0  0  0  0  0  0  0  0  0  # atno 17371 bound_to 10713
  140.6076  134.5491  157.5528 LP  0  0  0  0  0  0  0  0  0  0  0  0  # atno 17394 bound_to 11000
  139.9341  134.7907  156.0849 LP  0  0  0  0  0  0  0  0  0  0  0  0  # atno 17395 bound_to 11000

$$$$
