AV-unprocessed.smi:279|AV-procd|sdf|2096|dock10
  -GOLD-   2262021383D 1   1.00000     0.00000
 Structure written by MMmdl.
 50 54  0  0  0  0  0  0  0  0  1 V2000
  142.7069  135.4653  161.3844 O   0  0  0  0  0  0  0  0  0  0  0  0
  142.3087  135.8374  160.0184 S   0  0  0  0  0  0  0  0  0  0  0  0
  141.5133  134.9206  159.1873 O   0  0  0  0  0  0  0  0  0  0  0  0
  141.4960  137.4730  160.0448 C   0  0  0  0  0  0  0  0  0  0  0  0
  141.9370  138.1387  158.7380 C   0  0  0  0  0  0  0  0  0  0  0  0
  143.4219  137.7935  158.4800 C   0  0  2  0  0  0  0  0  0  0  0  0
  143.8027  137.7029  156.9937 C   0  0  0  0  0  0  0  0  0  0  0  0
  144.5812  136.4808  156.8486 N   0  0  0  0  0  0  0  0  0  0  0  0
  144.8959  136.0202  155.6066 C   0  0  0  0  0  0  0  0  0  0  0  0
  146.1950  136.0694  155.2054 N   0  0  0  0  0  0  0  0  0  0  0  0
  146.5551  135.6263  153.9982 C   0  0  0  0  0  0  0  0  0  0  0  0
  145.7887  135.1086  153.0384 N   0  0  0  0  0  0  0  0  0  0  0  0
  144.4802  135.0702  153.4188 C   0  0  0  0  0  0  0  0  0  0  0  0
  143.9506  135.4971  154.6722 C   0  0  0  0  0  0  0  0  0  0  0  0
  142.5748  135.2917  154.6852 N   0  0  0  0  0  0  0  0  0  0  0  0
  142.3112  134.7665  153.5208 C   0  0  0  0  0  0  0  0  0  0  0  0
  143.3946  134.6222  152.6862 N   0  0  0  0  0  0  0  0  0  0  0  0
  143.3950  134.0357  151.3780 C   0  0  0  0  0  0  0  0  0  0  0  0
  143.6911  132.5465  151.1725 C   0  0  0  0  0  0  0  0  0  0  0  0
  144.3445  132.8782  149.8112 C   0  0  0  0  0  0  0  0  0  0  0  0
  145.6148  132.0866  149.4431 C   0  0  0  0  0  0  0  0  0  0  0  0
  146.6087  132.1549  150.4462 O   0  0  0  0  0  0  0  0  0  0  0  0
  143.3828  132.7769  148.6117 C   0  0  0  0  0  0  0  0  0  0  0  0
  143.5334  133.8723  147.7316 O   0  0  0  0  0  0  0  0  0  0  0  0
  144.5366  134.2989  150.3912 C   0  0  0  0  0  0  0  0  0  0  0  0
  144.1504  135.5439  157.8770 C   0  0  0  0  0  0  0  0  0  0  0  0
  143.7750  136.4204  159.0743 C   0  0  2  0  0  0  0  0  0  0  0  0
  144.0471  138.5406  158.9711 H   0  0  0  0  0  0  0  0  0  0  0  0
  144.6178  136.5187  159.7594 H   0  0  0  0  0  0  0  0  0  0  0  0
  140.4157  137.3597  160.1341 H   0  0  0  0  0  0  0  0  0  0  0  0
  141.8682  138.0259  160.9076 H   0  0  0  0  0  0  0  0  0  0  0  0
  141.3211  137.7356  157.9332 H   0  0  0  0  0  0  0  0  0  0  0  0
  141.7696  139.2158  158.7547 H   0  0  0  0  0  0  0  0  0  0  0  0
  142.9227  137.6519  156.3510 H   0  0  0  0  0  0  0  0  0  0  0  0
  144.3857  138.5772  156.7054 H   0  0  0  0  0  0  0  0  0  0  0  0
  147.6078  135.6986  153.7676 H   0  0  0  0  0  0  0  0  0  0  0  0
  141.3108  134.4734  153.2370 H   0  0  0  0  0  0  0  0  0  0  0  0
  142.4349  134.3016  150.9329 H   0  0  0  0  0  0  0  0  0  0  0  0
  144.3889  132.1596  151.9166 H   0  0  0  0  0  0  0  0  0  0  0  0
  142.8025  131.9171  151.1132 H   0  0  0  0  0  0  0  0  0  0  0  0
  145.3806  131.0348  149.2765 H   0  0  0  0  0  0  0  0  0  0  0  0
  146.0569  132.4603  148.5192 H   0  0  0  0  0  0  0  0  0  0  0  0
  147.3562  131.6506  150.1629 H   0  0  0  0  0  0  0  0  0  0  0  0
  143.5477  131.8545  148.0538 H   0  0  0  0  0  0  0  0  0  0  0  0
  142.3427  132.7522  148.9370 H   0  0  0  0  0  0  0  0  0  0  0  0
  144.4445  134.1233  147.7180 H   0  0  0  0  0  0  0  0  0  0  0  0
  144.3458  135.1141  149.6928 H   0  0  0  0  0  0  0  0  0  0  0  0
  145.4952  134.4373  150.8939 H   0  0  0  0  0  0  0  0  0  0  0  0
  143.2964  134.9809  157.5008 H   0  0  0  0  0  0  0  0  0  0  0  0
  144.9384  134.8367  158.1387 H   0  0  0  0  0  0  0  0  0  0  0  0
  1  2  2  0  0  0  0
  2 27  1  0  0  0  0
  2  3  2  0  0  0  0
  2  4  1  0  0  0  0
  4  5  1  0  0  0  0
  4 30  1  0  0  0  0
  4 31  1  0  0  0  0
  5  6  1  0  0  0  0
  5 32  1  0  0  0  0
  5 33  1  0  0  0  0
  6 28  1  0  0  0  0
  6 27  1  0  0  0  0
  6  7  1  0  0  0  0
  7  8  1  0  0  0  0
  7 34  1  0  0  0  0
  7 35  1  0  0  0  0
  8  9  1  0  0  0  0
  8 26  1  0  0  0  0
  9 14  1  0  0  0  0
  9 10  2  0  0  0  0
 10 11  1  0  0  0  0
 11 12  2  0  0  0  0
 11 36  1  0  0  0  0
 12 13  1  0  0  0  0
 13 17  1  0  0  0  0
 13 14  2  0  0  0  0
 14 15  1  0  0  0  0
 15 16  2  0  0  0  0
 16 17  1  0  0  0  0
 16 37  1  0  0  0  0
 17 18  1  0  0  0  0
 18 25  1  0  0  0  0
 18 19  1  0  0  0  0
 18 38  1  0  0  0  0
 19 20  1  0  0  0  0
 19 39  1  0  0  0  0
 19 40  1  0  0  0  0
 20 21  1  0  0  0  0
 20 23  1  0  0  0  0
 20 25  1  0  0  0  0
 21 22  1  0  0  0  0
 21 41  1  0  0  0  0
 21 42  1  0  0  0  0
 22 43  1  0  0  0  0
 23 24  1  0  0  0  0
 23 44  1  0  0  0  0
 23 45  1  0  0  0  0
 24 46  1  0  0  0  0
 25 47  1  0  0  0  0
 25 48  1  0  0  0  0
 26 27  1  0  0  0  0
 26 49  1  0  0  0  0
 26 50  1  0  0  0  0
 27 29  1  0  0  0  0
M  END
> <s_m_source_file>
AV-unprocessed.smi

> <i_m_source_file_index>
279

> <i_lp_mmshare_version>
43012

> <i_f3d_flags>
0

> <s_epik_input>
W0NIMl0xW0NIMl1TKD1PKSg9TylbQ0BASF0oW0NAQEhdMTIpW0NIMl1OKFtDSDJdMiljKG5bY0hdbjMpYyhjMzQpbltjSF1uNFtDSF0oW0NIMl01KVtDSDJdQzUoW0NIMl1bT0hdKVtDSDJdW09IXQ==

> <s_epik_cmdline>
J2VwaWtfcHl0aG9uJywgJy1waCcsICc3LjAnLCAnLXRuJywgJzgnLCAnLW1hJywgJzIwMCcsICctbWV0YWxfYmluZGluZycsICctaW1hZScsICc8aW5maWxlLm1hZT4nLCAnLW9tYWUnLCAnPG91dGZpbGUubWFlPic=

> <r_lp_tautomer_probability>
1

> <r_epik_Ionization_Penalty>
0.000990948

> <r_epik_Ionization_Penalty_Charging>
0

> <r_epik_Ionization_Penalty_Neutral>
0.000990948

> <r_epik_State_Penalty>
0.000515994

> <r_epik_Charging_Adjusted_Penalty>
0.000515994

> <i_epik_Tot_Q>
0

> <i_epik_Tot_abs_Q>
0

> <r_epik_Metal_State_Penalty>
-0

> <b_epik_Metal_Only>
0

> <s_lp_Force_Field>
OPLS_2005

> <r_lp_Energy>
55.7342

> <b_lp_Chiralities_Consistent>
1

> <s_lp_Variant>
AV-unprocessed.smi:279-2

> <Gold.Version>
5.8.1

> <Gold.Id.Protein>
6NUR|6NUR_protein|mol2

> <Gold.PLP.Fitness>
44.6092

> <Gold.PLP.PLP>
-31.8384

> <Gold.PLP.part.hbond>
-6.3094

> <Gold.PLP.part.metal>
0.0000

> <Gold.PLP.part.buried>
-2.6189

> <Gold.PLP.part.nonpolar>
-22.8968

> <Gold.PLP.part.repulsive>
0.1881

> <Gold.PLP.ligand.clash>
0.0000

> <Gold.PLP.ligand.torsion>
1.4932

> <Gold.PLP.Chemscore.Hbond>
4.0000

> <Gold.PLP.Chemscore.CHOScore>
1.0000

> <Gold.PLP.Chemscore.Metal>
0.0000

> <Gold.Chemscore.Hbonds>
donor molecule, donor type, donor heavy atom, donor atom, acceptor molecule, acceptor atom, score
      L1  H    22    43       P1 10747  1.00
      L1  H    24    46       P1  7921  1.00
      P1  H 10192 10197       L1    24  0.89
      P1  H 11000 11005       L1     3  1.00
      L1  C    11    36       P1  7948  1.00

> <Gold.PLP.Chemscore.Internal.Correction>
0.7572

> <Gold.Rescore>
     Score         DG    S(hbond)    S(metal)    S(lipo)     H(rot)  DE(clash)    DE(int)     intcor
     14.40     -17.52       3.96        0.00      61.95       3.29       0.88       2.25       ----

> <Gold.Chemscore.Fitness>
14.3957

> <Gold.Chemscore.DG>
-17.5221

> <Gold.Chemscore.ZeroCoef>
-5.4800

> <Gold.Chemscore.Hbond>
3.9605

> <Gold.Chemscore.Metal>
0.0000

> <Gold.Chemscore.Lipo>
61.9478

> <Gold.Chemscore.Internal_Hbond>
0.0000

> <Gold.Chemscore.DEClash>
0.8800

> <Gold.Chemscore.DEInternal>
2.2464

> <Gold.Chemscore.Rot>
3.2944

> <Gold.Chemscore.Internal.Correction>
   9.000000E+99

> <Gold.Chemscore.Hbonds>
donor molecule, donor type, donor heavy atom, donor atom, acceptor molecule, acceptor atom, score
      L1  H    22    43       P1 10747  0.99
      L1  H    24    46       P1  7921  1.00
      P1  H 10192 10197       L1    24  0.86
      P1  H 11000 11005       L1     3  1.00

> <Gold.Chemscore.Hbond.Weighted>
-13.2279

> <Gold.Chemscore.Metal.Weighted>
-0.0000

> <Gold.Chemscore.Lipo.Weighted>
-7.2479

> <Gold.Chemscore.Internal_Hbond.Weighted>
0.0000

> <Gold.Chemscore.DEClash.Weighted>
0.8800

> <Gold.Chemscore.DEInternal.Weighted>
2.2464

> <Gold.Chemscore.Rot.Weighted>
8.4337

> <Gold.Chemscore.Internal.Correction.Weighted>
   9.000000E+99

> <Gold.Protein.RotatedTorsions>
[ 6907 6896 6895 6894 ] final -161.27 input  -60.11 | X-H torsion
[ 7974 7965 7964 7962 ] final  -64.18 input  175.53 | X-H torsion
[ 8008 7997 7996 7995 ] final -122.11 input   59.86 | X-H torsion
[ 10167 10162 10161 10158 ] final   43.71 input  -65.29 | X-H torsion
[ 10718 10713 10712 10709 ] final -170.76 input   66.30 | X-H torsion
[ 10763 10752 10751 10750 ] final  159.06 input  -60.55 | X-H torsion
[ 11005 11000 10999 10996 ] final -146.29 input  -57.11 | X-H torsion

> <Gold.Protein.ActiveResidues>
 VAL166  LYS551  ARG553  GLY616  TRP617  ASP618  TYR619  PRO620  LYS621  CYS622 
 ASP623  PHE694  ASN695  SER759  ASP760  ASP761  ALA762  ILE779  LEU786  VAL792 
 PHE793  MET794  SER795  GLU796  ALA797  LYS798  CYS799  TRP800  GLU811  SER814 

> <Gold.Protein.RotatedAtoms>
  151.3620  133.3886  159.2690 H   0  0  0  0  0  0  0  0  0  0  0  0  # atno 6907 bound_to 6896
  150.9718  134.9090  159.7803 H   0  0  0  0  0  0  0  0  0  0  0  0  # atno 6908 bound_to 6896
  152.5187  134.3582  159.9327 H   0  0  0  0  0  0  0  0  0  0  0  0  # atno 6909 bound_to 6896
  145.7699  140.8818  143.0386 H   0  0  0  0  0  0  0  0  0  0  0  0  # atno 7974 bound_to 7965
  155.1588  140.0405  157.2838 H   0  0  0  0  0  0  0  0  0  0  0  0  # atno 8008 bound_to 7997
  154.6351  140.2533  155.7361 H   0  0  0  0  0  0  0  0  0  0  0  0  # atno 8009 bound_to 7997
  156.2504  140.2867  156.0720 H   0  0  0  0  0  0  0  0  0  0  0  0  # atno 8010 bound_to 7997
  140.3417  144.2462  150.6155 H   0  0  0  0  0  0  0  0  0  0  0  0  # atno 10167 bound_to 10162
  156.7310  130.9306  151.3104 H   0  0  0  0  0  0  0  0  0  0  0  0  # atno 10718 bound_to 10713
  154.2258  135.2780  155.2908 H   0  0  0  0  0  0  0  0  0  0  0  0  # atno 10763 bound_to 10752
  154.5665  135.5631  153.7058 H   0  0  0  0  0  0  0  0  0  0  0  0  # atno 10764 bound_to 10752
  153.0031  135.6310  154.2399 H   0  0  0  0  0  0  0  0  0  0  0  0  # atno 10765 bound_to 10752
  140.7835  134.3051  157.5037 H   0  0  0  0  0  0  0  0  0  0  0  0  # atno 11005 bound_to 11000
  144.6814  139.9840  143.7484 LP  0  0  0  0  0  0  0  0  0  0  0  0  # atno 17320 bound_to 7965
  146.0181  139.3227  143.0830 LP  0  0  0  0  0  0  0  0  0  0  0  0  # atno 17321 bound_to 7965
  140.5303  143.2245  151.8249 LP  0  0  0  0  0  0  0  0  0  0  0  0  # atno 17342 bound_to 10162
  139.4839  144.4729  151.9403 LP  0  0  0  0  0  0  0  0  0  0  0  0  # atno 17343 bound_to 10162
  157.6859  130.9185  150.0385 LP  0  0  0  0  0  0  0  0  0  0  0  0  # atno 17370 bound_to 10713
  156.1529  130.3642  149.9411 LP  0  0  0  0  0  0  0  0  0  0  0  0  # atno 17371 bound_to 10713
  139.8739  134.9332  156.3576 LP  0  0  0  0  0  0  0  0  0  0  0  0  # atno 17394 bound_to 11000
  140.9459  133.7483  156.0208 LP  0  0  0  0  0  0  0  0  0  0  0  0  # atno 17395 bound_to 11000

$$$$
