AV-unprocessed.smi:13|AV-procd|sdf|76|dock4
  -GOLD-   2262015203D 1   1.00000     0.00000
 Structure written by MMmdl.
 54 58  0  0  0  0  0  0  0  0  1 V2000
  143.2019  138.7141  160.1075 C   0  0  0  0  0  0  0  0  0  0  0  0
  143.9242  137.3795  160.2922 C   0  0  0  0  0  0  0  0  0  0  0  0
  143.0309  136.5208  161.1979 C   0  0  0  0  0  0  0  0  0  0  0  0
  144.4107  136.6959  159.0054 C   0  0  0  0  0  0  0  0  0  0  0  0
  145.6311  136.3737  159.7230 N   0  0  0  0  0  0  0  0  0  0  0  0
  146.7868  136.3966  158.8933 C   0  0  0  0  0  0  0  0  0  0  0  0
  147.5468  135.2852  158.6953 N   0  0  0  0  0  0  0  0  0  0  0  0
  148.6282  135.3234  157.9113 C   0  0  0  0  0  0  0  0  0  0  0  0
  149.1299  136.3564  157.2338 N   0  0  0  0  0  0  0  0  0  0  0  0
  148.3777  137.4772  157.4231 C   0  0  0  0  0  0  0  0  0  0  0  0
  147.2102  137.5807  158.2310 C   0  0  0  0  0  0  0  0  0  0  0  0
  146.7192  138.8794  158.1898 N   0  0  0  0  0  0  0  0  0  0  0  0
  147.5479  139.5076  157.4015 C   0  0  0  0  0  0  0  0  0  0  0  0
  148.5676  138.7388  156.8860 N   0  0  0  0  0  0  0  0  0  0  0  0
  149.6226  139.1768  155.9842 C   0  0  0  0  0  0  0  0  0  0  0  0
  149.1011  139.9172  154.7293 C   0  0  2  0  0  0  0  0  0  0  0  0
  150.1390  139.9931  153.7675 O   0  0  0  0  0  0  0  0  0  0  0  0
  148.6297  141.3339  155.0338 C   0  0  0  0  0  0  0  0  0  0  0  0
  147.5524  141.5646  153.9829 C   0  0  0  0  0  0  0  0  0  0  0  0
  146.8949  140.3105  153.9262 O   0  0  0  0  0  0  0  0  0  0  0  0
  147.8646  139.2761  154.0648 C   0  0  0  0  0  0  0  0  0  0  0  0
  145.4232  137.4796  160.6545 C   0  0  2  0  0  0  0  0  0  0  0  0
  145.9230  137.1541  162.0684 C   0  0  1  0  0  0  0  0  0  0  0  0
  145.6622  135.7089  162.5082 C   0  0  0  0  0  0  0  0  0  0  0  0
  146.8709  134.9752  161.9760 C   0  0  0  0  0  0  0  0  0  0  0  0
  147.9686  136.0041  162.2129 C   0  0  0  0  0  0  0  0  0  0  0  0
  147.3460  137.2744  162.0459 O   0  0  0  0  0  0  0  0  0  0  0  0
  142.2198  138.5801  159.6529 H   0  0  0  0  0  0  0  0  0  0  0  0
  143.7661  139.3880  159.4620 H   0  0  0  0  0  0  0  0  0  0  0  0
  143.0595  139.2252  161.0603 H   0  0  0  0  0  0  0  0  0  0  0  0
  143.4505  135.5267  161.3543 H   0  0  0  0  0  0  0  0  0  0  0  0
  142.0396  136.3822  160.7652 H   0  0  0  0  0  0  0  0  0  0  0  0
  142.8998  136.9755  162.1804 H   0  0  0  0  0  0  0  0  0  0  0  0
  143.8330  135.8207  158.7072 H   0  0  0  0  0  0  0  0  0  0  0  0
  144.5700  137.3885  158.1763 H   0  0  0  0  0  0  0  0  0  0  0  0
  149.1671  134.3928  157.8121 H   0  0  0  0  0  0  0  0  0  0  0  0
  147.4342  140.5569  157.1716 H   0  0  0  0  0  0  0  0  0  0  0  0
  150.2999  139.8216  156.5450 H   0  0  0  0  0  0  0  0  0  0  0  0
  150.2071  138.3039  155.6900 H   0  0  0  0  0  0  0  0  0  0  0  0
  149.7501  140.0113  152.9066 H   0  0  0  0  0  0  0  0  0  0  0  0
  148.1740  141.3771  156.0243 H   0  0  0  0  0  0  0  0  0  0  0  0
  149.4263  142.0785  155.0031 H   0  0  0  0  0  0  0  0  0  0  0  0
  146.8655  142.3680  154.2495 H   0  0  0  0  0  0  0  0  0  0  0  0
  147.9936  141.7928  153.0113 H   0  0  0  0  0  0  0  0  0  0  0  0
  148.0959  138.8455  153.0889 H   0  0  0  0  0  0  0  0  0  0  0  0
  147.4275  138.4861  154.6743 H   0  0  0  0  0  0  0  0  0  0  0  0
  145.8177  138.4238  160.2760 H   0  0  0  0  0  0  0  0  0  0  0  0
  145.5111  137.8510  162.7990 H   0  0  0  0  0  0  0  0  0  0  0  0
  145.6528  135.6526  163.5975 H   0  0  0  0  0  0  0  0  0  0  0  0
  144.7181  135.2989  162.1515 H   0  0  0  0  0  0  0  0  0  0  0  0
  147.0564  134.0274  162.4819 H   0  0  0  0  0  0  0  0  0  0  0  0
  146.7551  134.7787  160.9093 H   0  0  0  0  0  0  0  0  0  0  0  0
  148.3431  135.9325  163.2346 H   0  0  0  0  0  0  0  0  0  0  0  0
  148.8115  135.8807  161.5325 H   0  0  0  0  0  0  0  0  0  0  0  0
  1  2  1  0  0  0  0
  1 28  1  0  0  0  0
  1 29  1  0  0  0  0
  1 30  1  0  0  0  0
  2 22  1  0  0  0  0
  2  3  1  0  0  0  0
  2  4  1  0  0  0  0
  3 31  1  0  0  0  0
  3 32  1  0  0  0  0
  3 33  1  0  0  0  0
  4  5  1  0  0  0  0
  4 34  1  0  0  0  0
  4 35  1  0  0  0  0
  5  6  1  0  0  0  0
  5 22  1  0  0  0  0
  6 11  1  0  0  0  0
  6  7  2  0  0  0  0
  7  8  1  0  0  0  0
  8  9  2  0  0  0  0
  8 36  1  0  0  0  0
  9 10  1  0  0  0  0
 10 14  1  0  0  0  0
 10 11  2  0  0  0  0
 11 12  1  0  0  0  0
 12 13  2  0  0  0  0
 13 14  1  0  0  0  0
 13 37  1  0  0  0  0
 14 15  1  0  0  0  0
 15 16  1  0  0  0  0
 15 38  1  0  0  0  0
 15 39  1  0  0  0  0
 16 21  1  0  0  0  0
 16 17  1  0  0  0  0
 16 18  1  0  0  0  0
 17 40  1  0  0  0  0
 18 19  1  0  0  0  0
 18 41  1  0  0  0  0
 18 42  1  0  0  0  0
 19 20  1  0  0  0  0
 19 43  1  0  0  0  0
 19 44  1  0  0  0  0
 20 21  1  0  0  0  0
 21 45  1  0  0  0  0
 21 46  1  0  0  0  0
 22 23  1  0  0  0  0
 22 47  1  0  0  0  0
 23 27  1  0  0  0  0
 23 24  1  0  0  0  0
 23 48  1  0  0  0  0
 24 25  1  0  0  0  0
 24 49  1  0  0  0  0
 24 50  1  0  0  0  0
 25 26  1  0  0  0  0
 25 51  1  0  0  0  0
 25 52  1  0  0  0  0
 26 27  1  0  0  0  0
 26 53  1  0  0  0  0
 26 54  1  0  0  0  0
M  END
> <s_m_source_file>
AV-unprocessed.smi

> <i_m_source_file_index>
13

> <i_lp_mmshare_version>
43012

> <i_f3d_flags>
0

> <s_epik_input>
TzFbQ0gyXVtDSDJdW0NIMl1bQ0BIXTFbQ0BASF0yTihbQ0gyXUMyKFtDSDNdKVtDSDNdKWMobltjSF1uMyljKGMzNCluW2NIXW40W0NIMl1bQ0BAXTUoW09IXSlbQ0gyXVtDSDJdT1tDSDJdNQ==

> <s_epik_cmdline>
J2VwaWtfcHl0aG9uJywgJy1waCcsICc3LjAnLCAnLXRuJywgJzgnLCAnLW1hJywgJzIwMCcsICctbWV0YWxfYmluZGluZycsICctaW1hZScsICc8aW5maWxlLm1hZT4nLCAnLW9tYWUnLCAnPG91dGZpbGUubWFlPic=

> <r_lp_tautomer_probability>
1

> <r_epik_Ionization_Penalty>
0.00202764

> <r_epik_Ionization_Penalty_Charging>
0

> <r_epik_Ionization_Penalty_Neutral>
0.00202764

> <r_epik_State_Penalty>
0.00134017

> <r_epik_Charging_Adjusted_Penalty>
0.00134017

> <i_epik_Tot_Q>
0

> <i_epik_Tot_abs_Q>
0

> <r_epik_Metal_State_Penalty>
-0

> <b_epik_Metal_Only>
0

> <s_lp_Force_Field>
OPLS_2005

> <r_lp_Energy>
64.8662

> <b_lp_Chiralities_Consistent>
1

> <s_lp_Variant>
AV-unprocessed.smi:13-8

> <Gold.Version>
5.8.1

> <Gold.Id.Protein>
6NUR|6NUR_protein|mol2

> <Gold.PLP.Fitness>
38.7760

> <Gold.PLP.PLP>
-30.9542

> <Gold.PLP.part.hbond>
-4.7794

> <Gold.PLP.part.metal>
0.0000

> <Gold.PLP.part.buried>
-6.1188

> <Gold.PLP.part.nonpolar>
-19.9396

> <Gold.PLP.part.repulsive>
0.1332

> <Gold.PLP.ligand.clash>
0.0000

> <Gold.PLP.ligand.torsion>
0.6469

> <Gold.PLP.Chemscore.Hbond>
2.8820

> <Gold.PLP.Chemscore.CHOScore>
0.0000

> <Gold.PLP.Chemscore.Metal>
0.0000

> <Gold.Chemscore.Hbonds>
donor molecule, donor type, donor heavy atom, donor atom, acceptor molecule, acceptor atom, score
      L1  H    17    40       P1  7957  1.00
      P1  H  6931  6943       L1    27  0.62
      P1  H  6934  6947       L1    27  0.31
      P1  H  7989  7998       L1    17  0.85

> <Gold.PLP.Chemscore.Internal.Correction>
0.4697

> <Gold.Rescore>
     Score         DG    S(hbond)    S(metal)    S(lipo)     H(rot)  DE(clash)    DE(int)     intcor
     12.81     -15.48       2.40        0.00      67.40       2.30       0.15       2.52       ----

> <Gold.Chemscore.Fitness>
12.8127

> <Gold.Chemscore.DG>
-15.4805

> <Gold.Chemscore.ZeroCoef>
-5.4800

> <Gold.Chemscore.Hbond>
2.3956

> <Gold.Chemscore.Metal>
0.0000

> <Gold.Chemscore.Lipo>
67.4042

> <Gold.Chemscore.Internal_Hbond>
0.0000

> <Gold.Chemscore.DEClash>
0.1480

> <Gold.Chemscore.DEInternal>
2.5198

> <Gold.Chemscore.Rot>
2.2996

> <Gold.Chemscore.Internal.Correction>
   9.000000E+99

> <Gold.Chemscore.Hbonds>
donor molecule, donor type, donor heavy atom, donor atom, acceptor molecule, acceptor atom, score
      L1  H    17    40       P1  7957  1.00
      P1  H  6931  6943       L1    27  0.08
      P1  H  6934  6947       L1    27  0.01
      P1  H  7989  7998       L1    17  0.21

> <Gold.Chemscore.Hbond.Weighted>
-8.0012

> <Gold.Chemscore.Metal.Weighted>
-0.0000

> <Gold.Chemscore.Lipo.Weighted>
-7.8863

> <Gold.Chemscore.Internal_Hbond.Weighted>
0.0000

> <Gold.Chemscore.DEClash.Weighted>
0.1480

> <Gold.Chemscore.DEInternal.Weighted>
2.5198

> <Gold.Chemscore.Rot.Weighted>
5.8869

> <Gold.Chemscore.Internal.Correction.Weighted>
   9.000000E+99

> <Gold.Protein.RotatedTorsions>
[ 6907 6896 6895 6894 ] final   72.51 input  -60.11 | X-H torsion
[ 7974 7965 7964 7962 ] final   21.86 input  175.53 | X-H torsion
[ 8008 7997 7996 7995 ] final -138.17 input   59.86 | X-H torsion
[ 10167 10162 10161 10158 ] final   78.61 input  -65.29 | X-H torsion
[ 10718 10713 10712 10709 ] final  173.67 input   66.30 | X-H torsion
[ 10763 10752 10751 10750 ] final  179.34 input  -60.55 | X-H torsion
[ 11005 11000 10999 10996 ] final   85.22 input  -57.11 | X-H torsion

> <Gold.Protein.ActiveResidues>
 VAL166  LYS551  ARG553  GLY616  TRP617  ASP618  TYR619  PRO620  LYS621  CYS622 
 ASP623  PHE694  ASN695  SER759  ASP760  ASP761  ALA762  ILE779  LEU786  VAL792 
 PHE793  MET794  SER795  GLU796  ALA797  LYS798  CYS799  TRP800  GLU811  SER814 

> <Gold.Protein.RotatedAtoms>
  152.4872  134.4560  159.9589 H   0  0  0  0  0  0  0  0  0  0  0  0  # atno 6907 bound_to 6896
  151.4554  133.3600  159.2809 H   0  0  0  0  0  0  0  0  0  0  0  0  # atno 6908 bound_to 6896
  150.8993  134.8428  159.7409 H   0  0  0  0  0  0  0  0  0  0  0  0  # atno 6909 bound_to 6896
  146.2053  139.7967  142.8730 H   0  0  0  0  0  0  0  0  0  0  0  0  # atno 7974 bound_to 7965
  155.4240  140.0520  157.3023 H   0  0  0  0  0  0  0  0  0  0  0  0  # atno 8008 bound_to 7997
  154.4890  140.2112  155.9550 H   0  0  0  0  0  0  0  0  0  0  0  0  # atno 8009 bound_to 7997
  156.1315  140.3171  155.8361 H   0  0  0  0  0  0  0  0  0  0  0  0  # atno 8010 bound_to 7997
  139.9691  144.5907  150.8002 H   0  0  0  0  0  0  0  0  0  0  0  0  # atno 10167 bound_to 10162
  156.9609  131.0060  151.2927 H   0  0  0  0  0  0  0  0  0  0  0  0  # atno 10718 bound_to 10713
  154.5193  135.2793  155.1276 H   0  0  0  0  0  0  0  0  0  0  0  0  # atno 10763 bound_to 10752
  154.2839  135.6280  153.5362 H   0  0  0  0  0  0  0  0  0  0  0  0  # atno 10764 bound_to 10752
  152.9934  135.5658  154.5678 H   0  0  0  0  0  0  0  0  0  0  0  0  # atno 10765 bound_to 10752
  139.8977  134.8271  156.2553 H   0  0  0  0  0  0  0  0  0  0  0  0  # atno 11005 bound_to 11000
  145.3340  141.0273  143.3430 LP  0  0  0  0  0  0  0  0  0  0  0  0  # atno 17320 bound_to 7965
  144.8779  139.4946  143.6737 LP  0  0  0  0  0  0  0  0  0  0  0  0  # atno 17321 bound_to 7965
  140.7528  143.2997  151.3113 LP  0  0  0  0  0  0  0  0  0  0  0  0  # atno 17342 bound_to 10162
  139.6495  144.0388  152.2616 LP  0  0  0  0  0  0  0  0  0  0  0  0  # atno 17343 bound_to 10162
  157.5658  130.8277  149.8326 LP  0  0  0  0  0  0  0  0  0  0  0  0  # atno 17370 bound_to 10713
  156.0322  130.3761  150.1655 LP  0  0  0  0  0  0  0  0  0  0  0  0  # atno 17371 bound_to 10713
  141.0198  133.7048  156.1248 LP  0  0  0  0  0  0  0  0  0  0  0  0  # atno 17394 bound_to 11000
  140.7250  134.4317  157.5571 LP  0  0  0  0  0  0  0  0  0  0  0  0  # atno 17395 bound_to 11000

$$$$
