AV-unprocessed.smi:1029|AV-procd|sdf|4477|dock8
  -GOLD-   22720 2453D 1   1.00000     0.00000
 Structure written by MMmdl.
 46 47  0  0  0  0  0  0  0  0  2 V2000
  152.1226  139.8046  158.1219 C   0  0  0  0  0  0  0  0  0  0  0  0
  151.6513  139.4625  156.7396 C   0  0  0  0  0  0  0  0  0  0  0  0
  150.3423  139.0977  156.3181 C   0  0  0  0  0  0  0  0  0  0  0  0
  150.5016  138.9005  154.9723 C   0  0  0  0  0  0  0  0  0  0  0  0
  149.5696  138.5270  154.0571 N   0  0  0  0  0  0  0  0  0  0  0  0
  148.3391  139.0290  153.8522 C   0  0  0  0  0  0  0  0  0  0  0  0
  147.8335  139.9623  154.4762 O   0  0  0  0  0  0  0  0  0  0  0  0
  147.7110  138.3814  152.8605 N   0  0  0  0  0  0  0  0  0  0  0  0
  146.3639  138.6798  152.3858 C   0  0  0  0  0  0  0  0  0  0  0  0
  145.4685  137.4240  152.3618 C   0  0  1  0  0  0  0  0  0  0  0  0
  144.1638  137.8081  151.9728 O   0  0  0  0  0  0  0  0  0  0  0  0
  145.9703  136.3914  151.3311 C   0  0  0  0  0  0  0  0  0  0  0  0
  145.4414  135.0254  151.5827 N   0  3  2  0  0  0  0  0  0  0  0  0
  146.2515  133.9517  150.9479 C   0  0  0  0  0  0  0  0  0  0  0  0
  145.7378  132.5564  151.3463 C   0  0  0  0  0  0  0  0  0  0  0  0
  144.2441  132.3701  151.0237 C   0  0  2  0  0  0  0  0  0  0  0  0
  143.9766  132.1906  149.5189 C   0  0  0  0  0  0  0  0  0  0  0  0
  143.4409  133.5313  151.6363 C   0  0  0  0  0  0  0  0  0  0  0  0
  144.0029  134.9059  151.2316 C   0  0  0  0  0  0  0  0  0  0  0  0
  151.7842  139.1172  154.5924 O   0  0  0  0  0  0  0  0  0  0  0  0
  152.5116  139.4791  155.7322 N   0  0  0  0  0  0  0  0  0  0  0  0
  151.2961  139.7961  158.8327 H   0  0  0  0  0  0  0  0  0  0  0  0
  152.5734  140.7969  158.1496 H   0  0  0  0  0  0  0  0  0  0  0  0
  152.8673  139.0890  158.4707 H   0  0  0  0  0  0  0  0  0  0  0  0
  149.4511  139.0009  156.9194 H   0  0  0  0  0  0  0  0  0  0  0  0
  149.8477  137.7705  153.4496 H   0  0  0  0  0  0  0  0  0  0  0  0
  148.2014  137.6298  152.3980 H   0  0  0  0  0  0  0  0  0  0  0  0
  145.9053  139.4905  152.9557 H   0  0  0  0  0  0  0  0  0  0  0  0
  146.4831  139.0579  151.3702 H   0  0  0  0  0  0  0  0  0  0  0  0
  145.4326  136.9817  153.3571 H   0  0  0  0  0  0  0  0  0  0  0  0
  144.1304  137.8589  151.0293 H   0  0  0  0  0  0  0  0  0  0  0  0
  145.6717  136.7258  150.3361 H   0  0  0  0  0  0  0  0  0  0  0  0
  147.0608  136.3550  151.3221 H   0  0  0  0  0  0  0  0  0  0  0  0
  146.2325  134.0696  149.8637 H   0  0  0  0  0  0  0  0  0  0  0  0
  147.2944  134.0357  151.2499 H   0  0  0  0  0  0  0  0  0  0  0  0
  146.3299  131.7844  150.8535 H   0  0  0  0  0  0  0  0  0  0  0  0
  145.8917  132.4163  152.4173 H   0  0  0  0  0  0  0  0  0  0  0  0
  143.9147  131.4493  151.5071 H   0  0  0  0  0  0  0  0  0  0  0  0
  144.2721  133.0649  148.9397 H   0  0  0  0  0  0  0  0  0  0  0  0
  142.9173  132.0139  149.3301 H   0  0  0  0  0  0  0  0  0  0  0  0
  144.5247  131.3344  149.1248 H   0  0  0  0  0  0  0  0  0  0  0  0
  142.3909  133.4565  151.3512 H   0  0  0  0  0  0  0  0  0  0  0  0
  143.4641  133.4463  152.7236 H   0  0  0  0  0  0  0  0  0  0  0  0
  143.4349  135.6828  151.7450 H   0  0  0  0  0  0  0  0  0  0  0  0
  143.8705  135.0760  150.1623 H   0  0  0  0  0  0  0  0  0  0  0  0
  145.4977  134.8845  152.5817 H   0  0  0  0  0  0  0  0  0  0  0  0
  1  2  1  0  0  0  0
  1 22  1  0  0  0  0
  1 23  1  0  0  0  0
  1 24  1  0  0  0  0
  2 21  2  0  0  0  0
  2  3  1  0  0  0  0
  3  4  2  0  0  0  0
  3 25  1  0  0  0  0
  4  5  1  0  0  0  0
  4 20  1  0  0  0  0
  5  6  1  0  0  0  0
  5 26  1  0  0  0  0
  6  7  2  0  0  0  0
  6  8  1  0  0  0  0
  8  9  1  0  0  0  0
  8 27  1  0  0  0  0
  9 10  1  0  0  0  0
  9 28  1  0  0  0  0
  9 29  1  0  0  0  0
 10 11  1  0  0  0  0
 10 12  1  0  0  0  0
 10 30  1  0  0  0  0
 11 31  1  0  0  0  0
 12 13  1  0  0  0  0
 12 32  1  0  0  0  0
 12 33  1  0  0  0  0
 13 19  1  0  0  0  0
 13 14  1  0  0  0  0
 13 46  1  0  0  0  0
 14 15  1  0  0  0  0
 14 34  1  0  0  0  0
 14 35  1  0  0  0  0
 15 16  1  0  0  0  0
 15 36  1  0  0  0  0
 15 37  1  0  0  0  0
 16 17  1  0  0  0  0
 16 18  1  0  0  0  0
 16 38  1  0  0  0  0
 17 39  1  0  0  0  0
 17 40  1  0  0  0  0
 17 41  1  0  0  0  0
 18 19  1  0  0  0  0
 18 42  1  0  0  0  0
 18 43  1  0  0  0  0
 19 44  1  0  0  0  0
 19 45  1  0  0  0  0
 20 21  1  0  0  0  0
M  CHG  1  13   1
M  END
> <s_m_source_file>
AV-unprocessed.smi

> <i_m_source_file_index>
1029

> <i_lp_mmshare_version>
43012

> <i_f3d_flags>
0

> <s_epik_input>
W0NIM11jMVtjSF1jKG9uMSlbTkhdQyg9TylbTkhdW0NIMl1bQ0BIXShbT0hdKVtDSDJdTjJbQ0gyXVtDSDJdW0NIXShbQ0gzXSlbQ0gyXVtDSDJdMg==

> <s_epik_cmdline>
J2VwaWtfcHl0aG9uJywgJy1waCcsICc3LjAnLCAnLXRuJywgJzgnLCAnLW1hJywgJzIwMCcsICctbWV0YWxfYmluZGluZycsICctaW1hZScsICc8aW5maWxlLm1hZT4nLCAnLW9tYWUnLCAnPG91dGZpbGUubWFlPic=

> <r_lp_tautomer_probability>
1

> <r_epik_Ionization_Penalty>
0.00211787

> <r_epik_Ionization_Penalty_Charging>
0.00153238

> <r_epik_Ionization_Penalty_Neutral>
0.000585488

> <r_epik_State_Penalty>
-0

> <r_epik_Charging_Adjusted_Penalty>
0.00153238

> <i_epik_Tot_Q>
1

> <i_epik_Tot_abs_Q>
1

> <r_epik_Metal_State_Penalty>
-0

> <b_epik_Metal_Only>
0

> <s_lp_Force_Field>
OPLS_2005

> <r_lp_Energy>
22.6481

> <b_lp_Chiralities_Consistent>
1

> <s_lp_Variant>
AV-unprocessed.smi:1029-4

> <Gold.Version>
5.8.1

> <Gold.Id.Protein>
6NUR|6NUR_protein|mol2

> <Gold.PLP.Fitness>
47.7411

> <Gold.PLP.PLP>
-36.3563

> <Gold.PLP.part.hbond>
-6.9772

> <Gold.PLP.part.metal>
0.0000

> <Gold.PLP.part.buried>
-2.4197

> <Gold.PLP.part.nonpolar>
-29.0366

> <Gold.PLP.part.repulsive>
0.3365

> <Gold.PLP.ligand.clash>
0.0118

> <Gold.PLP.ligand.torsion>
0.7854

> <Gold.PLP.Chemscore.Hbond>
4.3094

> <Gold.PLP.Chemscore.CHOScore>
0.0000

> <Gold.PLP.Chemscore.Metal>
0.0000

> <Gold.Chemscore.Hbonds>
donor molecule, donor type, donor heavy atom, donor atom, acceptor molecule, acceptor atom, score
      L1  H     5    26       P1  7948  0.18
      L1  H     8    27       P1  7948  1.00
      L1  H    11    31       P1 10171  0.78
      P1  H  7989  7998       L1    20  0.94
      P1  H  7997  8008       L1    21  1.00

> <Gold.PLP.Chemscore.Internal.Correction>
0.0392

> <Gold.Rescore>
     Score         DG    S(hbond)    S(metal)    S(lipo)     H(rot)  DE(clash)    DE(int)     intcor
     19.42     -20.62       3.77        0.00      75.66       2.46       0.08       1.12       ----

> <Gold.Chemscore.Fitness>
19.4202

> <Gold.Chemscore.DG>
-20.6216

> <Gold.Chemscore.ZeroCoef>
-5.4800

> <Gold.Chemscore.Hbond>
3.7702

> <Gold.Chemscore.Metal>
0.0000

> <Gold.Chemscore.Lipo>
75.6645

> <Gold.Chemscore.Internal_Hbond>
0.0000

> <Gold.Chemscore.DEClash>
0.0801

> <Gold.Chemscore.DEInternal>
1.1213

> <Gold.Chemscore.Rot>
2.4624

> <Gold.Chemscore.Internal.Correction>
   9.000000E+99

> <Gold.Chemscore.Hbonds>
donor molecule, donor type, donor heavy atom, donor atom, acceptor molecule, acceptor atom, score
      L1  H     5    26       P1  7948  0.13
      L1  H     8    27       P1  7948  1.00
      L1  H    11    31       P1 10171  0.73
      P1  H  7989  7998       L1    20  0.17
      P1  H  7997  8008       L1    21  0.90

> <Gold.Chemscore.Hbond.Weighted>
-12.5926

> <Gold.Chemscore.Metal.Weighted>
-0.0000

> <Gold.Chemscore.Lipo.Weighted>
-8.8528

> <Gold.Chemscore.Internal_Hbond.Weighted>
0.0000

> <Gold.Chemscore.DEClash.Weighted>
0.0801

> <Gold.Chemscore.DEInternal.Weighted>
1.1213

> <Gold.Chemscore.Rot.Weighted>
6.3037

> <Gold.Chemscore.Internal.Correction.Weighted>
   9.000000E+99

> <Gold.Protein.RotatedTorsions>
[ 6907 6896 6895 6894 ] final  146.12 input  -60.11 | X-H torsion
[ 7974 7965 7964 7962 ] final -105.80 input  175.53 | X-H torsion
[ 8008 7997 7996 7995 ] final  -31.24 input   59.86 | X-H torsion
[ 10167 10162 10161 10158 ] final  -99.32 input  -65.29 | X-H torsion
[ 10718 10713 10712 10709 ] final -116.17 input   66.30 | X-H torsion
[ 10763 10752 10751 10750 ] final   68.49 input  -60.55 | X-H torsion
[ 11005 11000 10999 10996 ] final   96.51 input  -57.11 | X-H torsion

> <Gold.Protein.ActiveResidues>
 VAL166  LYS551  ARG553  GLY616  TRP617  ASP618  TYR619  PRO620  LYS621  CYS622 
 ASP623  PHE694  ASN695  SER759  ASP760  ASP761  ALA762  ILE779  LEU786  VAL792 
 PHE793  MET794  SER795  GLU796  ALA797  LYS798  CYS799  TRP800  GLU811  SER814 

> <Gold.Protein.RotatedAtoms>
  152.1721  133.4650  159.4914 H   0  0  0  0  0  0  0  0  0  0  0  0  # atno 6907 bound_to 6896
  150.6921  134.1940  159.4305 H   0  0  0  0  0  0  0  0  0  0  0  0  # atno 6908 bound_to 6896
  151.9848  135.0010  160.0609 H   0  0  0  0  0  0  0  0  0  0  0  0  # atno 6909 bound_to 6896
  145.2259  140.9152  143.3232 H   0  0  0  0  0  0  0  0  0  0  0  0  # atno 7974 bound_to 7965
  154.4221  140.1769  156.1536 H   0  0  0  0  0  0  0  0  0  0  0  0  # atno 8008 bound_to 7997
  155.9895  140.3370  155.6715 H   0  0  0  0  0  0  0  0  0  0  0  0  # atno 8009 bound_to 7997
  155.6391  140.0678  157.2615 H   0  0  0  0  0  0  0  0  0  0  0  0  # atno 8010 bound_to 7997
  140.2636  143.3390  152.0602 H   0  0  0  0  0  0  0  0  0  0  0  0  # atno 10167 bound_to 10162
  156.0945  130.6121  150.9001 H   0  0  0  0  0  0  0  0  0  0  0  0  # atno 10718 bound_to 10713
  153.0238  135.5245  154.7142 H   0  0  0  0  0  0  0  0  0  0  0  0  # atno 10763 bound_to 10752
  154.6215  135.2889  155.0322 H   0  0  0  0  0  0  0  0  0  0  0  0  # atno 10764 bound_to 10752
  154.1307  135.6593  153.4974 H   0  0  0  0  0  0  0  0  0  0  0  0  # atno 10765 bound_to 10752
  139.8781  134.8954  156.4170 H   0  0  0  0  0  0  0  0  0  0  0  0  # atno 11005 bound_to 11000
  144.9722  139.3869  143.6303 LP  0  0  0  0  0  0  0  0  0  0  0  0  # atno 17320 bound_to 7965
  146.3365  139.8824  142.8822 LP  0  0  0  0  0  0  0  0  0  0  0  0  # atno 17321 bound_to 7965
  139.5009  144.6702  151.6260 LP  0  0  0  0  0  0  0  0  0  0  0  0  # atno 17342 bound_to 10162
  140.5946  143.9719  150.6346 LP  0  0  0  0  0  0  0  0  0  0  0  0  # atno 17343 bound_to 10162
  157.6103  131.0937  150.8807 LP  0  0  0  0  0  0  0  0  0  0  0  0  # atno 17370 bound_to 10713
  156.8948  130.5226  149.5285 LP  0  0  0  0  0  0  0  0  0  0  0  0  # atno 17371 bound_to 10713
  140.9160  133.7678  155.9849 LP  0  0  0  0  0  0  0  0  0  0  0  0  # atno 17394 bound_to 11000
  140.8493  134.2974  157.5282 LP  0  0  0  0  0  0  0  0  0  0  0  0  # atno 17395 bound_to 11000

$$$$
