AV-unprocessed.smi:1680|AV-procd|sdf|6740|dock2
  -GOLD-   22720 7493D 1   1.00000     0.00000
 Structure written by MMmdl.
 38 39  0  0  0  0  0  0  0  0  3 V2000
  144.4383  131.9723  150.5529 C   0  0  0  0  0  0  0  0  0  0  0  0
  144.3658  133.2213  151.4340 C   0  0  0  0  0  0  0  0  0  0  0  0
  143.2717  133.5365  151.9018 O   0  0  0  0  0  0  0  0  0  0  0  0
  145.4936  133.9344  151.6687 N   0  0  0  0  0  0  0  0  0  0  0  0
  146.8076  133.5353  151.1569 C   0  0  0  0  0  0  0  0  0  0  0  0
  147.7093  133.1384  152.3397 C   0  0  0  0  0  0  0  0  0  0  0  0
  147.8053  134.2310  153.3446 N   0  3  0  0  0  0  0  0  0  0  0  0
  148.6836  133.8656  154.4834 C   0  0  0  0  0  0  0  0  0  0  0  0
  148.9384  135.0499  155.4344 C   0  0  0  0  0  0  0  0  0  0  0  0
  148.8697  134.6321  156.8295 N   0  0  0  0  0  0  0  0  0  0  0  0
  148.9147  135.4476  157.8927 C   0  0  0  0  0  0  0  0  0  0  0  0
  149.0162  136.6656  157.7279 O   0  0  0  0  0  0  0  0  0  0  0  0
  148.8462  134.8009  159.0775 N   0  5  0  0  0  0  0  0  0  0  0  0
  148.4281  135.4526  160.1753 C   0  0  0  0  0  0  0  0  0  0  0  0
  148.3481  136.7918  160.2274 N   0  0  0  0  0  0  0  0  0  0  0  0
  147.8885  137.2644  161.4491 N   0  0  0  0  0  0  0  0  0  0  0  0
  147.6253  136.2636  162.2892 C   0  0  0  0  0  0  0  0  0  0  0  0
  147.9111  134.6536  161.6630 S   0  0  0  0  0  0  0  0  0  0  0  0
  146.4710  134.7431  153.7647 C   0  0  0  0  0  0  0  0  0  0  0  0
  145.5963  135.1024  152.5491 C   0  0  0  0  0  0  0  0  0  0  0  0
  144.7869  132.2244  149.5509 H   0  0  0  0  0  0  0  0  0  0  0  0
  143.4539  131.5125  150.4561 H   0  0  0  0  0  0  0  0  0  0  0  0
  145.1094  131.2307  150.9875 H   0  0  0  0  0  0  0  0  0  0  0  0
  146.7538  132.7123  150.4431 H   0  0  0  0  0  0  0  0  0  0  0  0
  147.2492  134.3715  150.6128 H   0  0  0  0  0  0  0  0  0  0  0  0
  147.3160  132.2404  152.8194 H   0  0  0  0  0  0  0  0  0  0  0  0
  148.7051  132.8911  151.9701 H   0  0  0  0  0  0  0  0  0  0  0  0
  148.2577  133.0191  155.0241 H   0  0  0  0  0  0  0  0  0  0  0  0
  149.6432  133.5266  154.0899 H   0  0  0  0  0  0  0  0  0  0  0  0
  149.9070  135.5085  155.2280 H   0  0  0  0  0  0  0  0  0  0  0  0
  148.1895  135.8287  155.2961 H   0  0  0  0  0  0  0  0  0  0  0  0
  148.7805  133.6424  157.0090 H   0  0  0  0  0  0  0  0  0  0  0  0
  147.2580  136.4747  163.2823 H   0  0  0  0  0  0  0  0  0  0  0  0
  145.9669  133.9874  154.3696 H   0  0  0  0  0  0  0  0  0  0  0  0
  146.5852  135.6262  154.3921 H   0  0  0  0  0  0  0  0  0  0  0  0
  146.0520  135.9238  151.9941 H   0  0  0  0  0  0  0  0  0  0  0  0
  144.6341  135.4813  152.8902 H   0  0  0  0  0  0  0  0  0  0  0  0
  148.2668  134.9936  152.8693 H   0  0  0  0  0  0  0  0  0  0  0  0
  1  2  1  0  0  0  0
  1 21  1  0  0  0  0
  1 22  1  0  0  0  0
  1 23  1  0  0  0  0
  2  3  2  0  0  0  0
  2  4  1  0  0  0  0
  4 20  1  0  0  0  0
  4  5  1  0  0  0  0
  5  6  1  0  0  0  0
  5 24  1  0  0  0  0
  5 25  1  0  0  0  0
  6  7  1  0  0  0  0
  6 26  1  0  0  0  0
  6 27  1  0  0  0  0
  7  8  1  0  0  0  0
  7 19  1  0  0  0  0
  7 38  1  0  0  0  0
  8  9  1  0  0  0  0
  8 28  1  0  0  0  0
  8 29  1  0  0  0  0
  9 10  1  0  0  0  0
  9 30  1  0  0  0  0
  9 31  1  0  0  0  0
 10 11  1  0  0  0  0
 10 32  1  0  0  0  0
 11 12  2  0  0  0  0
 11 13  1  0  0  0  0
 13 14  1  0  0  0  0
 14 18  1  0  0  0  0
 14 15  2  0  0  0  0
 15 16  1  0  0  0  0
 16 17  2  0  0  0  0
 17 18  1  0  0  0  0
 17 33  1  0  0  0  0
 19 20  1  0  0  0  0
 19 34  1  0  0  0  0
 19 35  1  0  0  0  0
 20 36  1  0  0  0  0
 20 37  1  0  0  0  0
M  CHG  1   7   1
M  CHG  1  13  -1
M  END
> <s_m_source_file>
AV-unprocessed.smi

> <i_m_source_file_index>
1680

> <i_lp_mmshare_version>
43012

> <i_f3d_flags>
0

> <s_epik_input>
W0NIM11DKD1PKU4xW0NIMl1bQ0gyXU4oW0NIMl1bQ0gyXTEpW0NIMl1bQ0gyXVtOSF1DKD1PKVtOSF1jMm5uW2NIXXMy

> <s_epik_cmdline>
J2VwaWtfcHl0aG9uJywgJy1waCcsICc3LjAnLCAnLXRuJywgJzgnLCAnLW1hJywgJzIwMCcsICctbWV0YWxfYmluZGluZycsICctaW1hZScsICc8aW5maWxlLm1hZT4nLCAnLW9tYWUnLCAnPG91dGZpbGUubWFlPic=

> <r_lp_tautomer_probability>
1

> <r_epik_Ionization_Penalty>
3.68953

> <r_epik_Ionization_Penalty_Charging>
3.65812

> <r_epik_Ionization_Penalty_Neutral>
0.0314116

> <r_epik_State_Penalty>
3.68215

> <r_epik_Charging_Adjusted_Penalty>
7.34027

> <i_epik_Tot_Q>
0

> <i_epik_Tot_abs_Q>
2

> <r_epik_Metal_State_Penalty>
1.11495

> <b_epik_Metal_Only>
1

> <s_lp_Force_Field>
OPLS_2005

> <r_lp_Energy>
32.4697

> <b_lp_Chiralities_Consistent>
1

> <s_lp_Variant>
AV-unprocessed.smi:1680-4

> <Gold.Version>
5.8.1

> <Gold.Id.Protein>
6NUR|6NUR_protein|mol2

> <Gold.PLP.Fitness>
48.1111

> <Gold.PLP.PLP>
-31.7495

> <Gold.PLP.part.hbond>
-4.2455

> <Gold.PLP.part.metal>
0.0000

> <Gold.PLP.part.buried>
-5.3278

> <Gold.PLP.part.nonpolar>
-22.1492

> <Gold.PLP.part.repulsive>
0.2617

> <Gold.PLP.ligand.clash>
0.0000

> <Gold.PLP.ligand.torsion>
0.5089

> <Gold.PLP.Chemscore.Hbond>
5.7760

> <Gold.PLP.Chemscore.CHOScore>
0.0000

> <Gold.PLP.Chemscore.Metal>
0.0000

> <Gold.Chemscore.Hbonds>
donor molecule, donor type, donor heavy atom, donor atom, acceptor molecule, acceptor atom, score
      L1  H     7    38       P1  7948  2.00
      P1  H  6896  6908       L1    13  2.00
      P1  H  6931  6943       L1    16  1.00
      P1  H  6934  6947       L1    16  0.69

> <Gold.PLP.Chemscore.Internal.Correction>
0.0514

> <Gold.Rescore>
     Score         DG    S(hbond)    S(metal)    S(lipo)     H(rot)  DE(clash)    DE(int)     intcor
     11.13     -13.72       1.96        0.00      53.90       1.80       0.46       2.14       ----

> <Gold.Chemscore.Fitness>
11.1268

> <Gold.Chemscore.DG>
-13.7184

> <Gold.Chemscore.ZeroCoef>
-5.4800

> <Gold.Chemscore.Hbond>
1.9582

> <Gold.Chemscore.Metal>
0.0000

> <Gold.Chemscore.Lipo>
53.9036

> <Gold.Chemscore.Internal_Hbond>
0.0000

> <Gold.Chemscore.DEClash>
0.4557

> <Gold.Chemscore.DEInternal>
2.1358

> <Gold.Chemscore.Rot>
1.8003

> <Gold.Chemscore.Internal.Correction>
   9.000000E+99

> <Gold.Chemscore.Hbonds>
donor molecule, donor type, donor heavy atom, donor atom, acceptor molecule, acceptor atom, score
      L1  H     7    38       P1  7948  0.82
      P1  H  6896  6908       L1    13  0.27
      P1  H  6931  6943       L1    16  0.34
      P1  H  6934  6947       L1    16  0.20

> <Gold.Chemscore.Hbond.Weighted>
-6.5404

> <Gold.Chemscore.Metal.Weighted>
-0.0000

> <Gold.Chemscore.Lipo.Weighted>
-6.3067

> <Gold.Chemscore.Internal_Hbond.Weighted>
0.0000

> <Gold.Chemscore.DEClash.Weighted>
0.4557

> <Gold.Chemscore.DEInternal.Weighted>
2.1358

> <Gold.Chemscore.Rot.Weighted>
4.6088

> <Gold.Chemscore.Internal.Correction.Weighted>
   9.000000E+99

> <Gold.Protein.RotatedTorsions>
[ 6907 6896 6895 6894 ] final  149.30 input  -60.11 | X-H torsion
[ 7974 7965 7964 7962 ] final  -42.65 input  175.53 | X-H torsion
[ 8008 7997 7996 7995 ] final   56.71 input   59.86 | X-H torsion
[ 10167 10162 10161 10158 ] final  133.76 input  -65.29 | X-H torsion
[ 10718 10713 10712 10709 ] final  173.45 input   66.30 | X-H torsion
[ 10763 10752 10751 10750 ] final  -95.21 input  -60.55 | X-H torsion
[ 11005 11000 10999 10996 ] final -142.50 input  -57.11 | X-H torsion

> <Gold.Protein.ActiveResidues>
 VAL166  LYS551  ARG553  GLY616  TRP617  ASP618  TYR619  PRO620  LYS621  CYS622 
 ASP623  PHE694  ASN695  SER759  ASP760  ASP761  ALA762  ILE779  LEU786  VAL792 
 PHE793  MET794  SER795  GLU796  ALA797  LYS798  CYS799  TRP800  GLU811  SER814 

> <Gold.Protein.RotatedAtoms>
  152.1299  133.4402  159.4715 H   0  0  0  0  0  0  0  0  0  0  0  0  # atno 6907 bound_to 6896
  150.6877  134.2433  159.4490 H   0  0  0  0  0  0  0  0  0  0  0  0  # atno 6908 bound_to 6896
  152.0316  134.9764  160.0623 H   0  0  0  0  0  0  0  0  0  0  0  0  # atno 6909 bound_to 6896
  146.0095  140.6981  142.9231 H   0  0  0  0  0  0  0  0  0  0  0  0  # atno 7974 bound_to 7965
  155.5219  140.3480  155.4408 H   0  0  0  0  0  0  0  0  0  0  0  0  # atno 8008 bound_to 7997
  156.0778  140.1379  156.9776 H   0  0  0  0  0  0  0  0  0  0  0  0  # atno 8009 bound_to 7997
  154.4563  140.0952  156.6742 H   0  0  0  0  0  0  0  0  0  0  0  0  # atno 8010 bound_to 7997
  139.5284  144.6600  151.5042 H   0  0  0  0  0  0  0  0  0  0  0  0  # atno 10167 bound_to 10162
  156.9641  131.0070  151.2920 H   0  0  0  0  0  0  0  0  0  0  0  0  # atno 10718 bound_to 10713
  154.7127  135.5129  153.8691 H   0  0  0  0  0  0  0  0  0  0  0  0  # atno 10763 bound_to 10752
  153.0794  135.6626  154.0085 H   0  0  0  0  0  0  0  0  0  0  0  0  # atno 10764 bound_to 10752
  153.9924  135.3018  155.3390 H   0  0  0  0  0  0  0  0  0  0  0  0  # atno 10765 bound_to 10752
  140.8219  134.2621  157.4896 H   0  0  0  0  0  0  0  0  0  0  0  0  # atno 11005 bound_to 11000
  144.6948  140.3374  143.7205 LP  0  0  0  0  0  0  0  0  0  0  0  0  # atno 17320 bound_to 7965
  145.7364  139.1751  143.2401 LP  0  0  0  0  0  0  0  0  0  0  0  0  # atno 17321 bound_to 7965
  140.6444  143.8824  150.6723 LP  0  0  0  0  0  0  0  0  0  0  0  0  # atno 17342 bound_to 10162
  140.2169  143.3839  152.1674 LP  0  0  0  0  0  0  0  0  0  0  0  0  # atno 17343 bound_to 10162
  157.5637  130.8263  149.8299 LP  0  0  0  0  0  0  0  0  0  0  0  0  # atno 17370 bound_to 10713
  156.0310  130.3765  150.1689 LP  0  0  0  0  0  0  0  0  0  0  0  0  # atno 17371 bound_to 10713
  139.8708  134.9540  156.4161 LP  0  0  0  0  0  0  0  0  0  0  0  0  # atno 17394 bound_to 11000
  140.9090  133.7725  155.9769 LP  0  0  0  0  0  0  0  0  0  0  0  0  # atno 17395 bound_to 11000

$$$$
