AV-unprocessed.smi:2588|AV-procd|sdf|10150|dock2
  -GOLD-   2272014163D 1   1.00000     0.00000
 Structure written by MMmdl.
 39 40  0  0  0  0  0  0  0  0  1 V2000
  153.5535  143.0975  159.7864 C   0  0  0  0  0  0  0  0  0  0  0  0
  152.5947  143.0204  158.5771 C   0  0  0  0  0  0  0  0  0  0  0  0
  151.8630  144.3762  158.4560 C   0  0  0  0  0  0  0  0  0  0  0  0
  151.6463  141.8924  158.6946 N   0  0  0  0  0  0  0  0  0  0  0  0
  152.3471  140.5975  158.6888 C   0  0  0  0  0  0  0  0  0  0  0  0
  151.3735  139.4238  158.8933 C   0  0  0  0  0  0  0  0  0  0  0  0
  150.3001  139.3983  157.7977 C   0  0  0  0  0  0  0  0  0  0  0  0
  149.3026  138.3666  158.0647 N   0  0  0  0  0  0  0  0  0  0  0  0
  149.5661  137.1437  158.5498 C   0  0  0  0  0  0  0  0  0  0  0  0
  150.7053  136.7507  158.8059 O   0  0  0  0  0  0  0  0  0  0  0  0
  148.3547  136.2249  158.7558 C   0  0  0  0  0  0  0  0  0  0  0  0
  148.2270  135.7475  160.1336 N   0  0  0  0  0  0  0  0  0  0  0  0
  148.1637  136.6698  161.1317 N   0  0  0  0  0  0  0  0  0  0  0  0
  148.0406  136.1119  162.2787 C   0  0  0  0  0  0  0  0  0  0  0  0
  147.9909  134.3440  162.2854 S   0  0  0  0  0  0  0  0  0  0  0  0
  148.1585  134.4087  160.5092 C   0  0  0  0  0  0  0  0  0  0  0  0
  148.1998  133.4092  159.7939 O   0  0  0  0  0  0  0  0  0  0  0  0
  149.6315  140.7751  157.7478 C   0  0  0  0  0  0  0  0  0  0  0  0
  150.6761  141.8933  157.5873 C   0  0  0  0  0  0  0  0  0  0  0  0
  154.1345  144.0200  159.7679 H   0  0  0  0  0  0  0  0  0  0  0  0
  154.2848  142.2899  159.7913 H   0  0  0  0  0  0  0  0  0  0  0  0
  153.0084  143.0739  160.7309 H   0  0  0  0  0  0  0  0  0  0  0  0
  153.1964  142.8788  157.6780 H   0  0  0  0  0  0  0  0  0  0  0  0
  152.5638  145.2079  158.5338 H   0  0  0  0  0  0  0  0  0  0  0  0
  151.1204  144.5009  159.2451 H   0  0  0  0  0  0  0  0  0  0  0  0
  151.3663  144.4994  157.4944 H   0  0  0  0  0  0  0  0  0  0  0  0
  152.8989  140.4740  157.7555 H   0  0  0  0  0  0  0  0  0  0  0  0
  153.0720  140.5432  159.4984 H   0  0  0  0  0  0  0  0  0  0  0  0
  151.9299  138.4859  158.8970 H   0  0  0  0  0  0  0  0  0  0  0  0
  150.9052  139.5091  159.8751 H   0  0  0  0  0  0  0  0  0  0  0  0
  150.7724  139.2059  156.8322 H   0  0  0  0  0  0  0  0  0  0  0  0
  148.3396  138.6050  157.8764 H   0  0  0  0  0  0  0  0  0  0  0  0
  147.4415  136.7547  158.4798 H   0  0  0  0  0  0  0  0  0  0  0  0
  148.4404  135.3806  158.0699 H   0  0  0  0  0  0  0  0  0  0  0  0
  147.9645  136.6235  163.2382 H   0  0  0  0  0  0  0  0  0  0  0  0
  148.9219  140.8145  156.9207 H   0  0  0  0  0  0  0  0  0  0  0  0
  149.0558  140.9470  158.6588 H   0  0  0  0  0  0  0  0  0  0  0  0
  150.1258  142.8311  157.5529 H   0  0  0  0  0  0  0  0  0  0  0  0
  151.1972  141.7924  156.6340 H   0  0  0  0  0  0  0  0  0  0  0  0
  1  2  1  0  0  0  0
  1 20  1  0  0  0  0
  1 21  1  0  0  0  0
  1 22  1  0  0  0  0
  2  3  1  0  0  0  0
  2  4  1  0  0  0  0
  2 23  1  0  0  0  0
  3 24  1  0  0  0  0
  3 25  1  0  0  0  0
  3 26  1  0  0  0  0
  4 19  1  0  0  0  0
  4  5  1  0  0  0  0
  5  6  1  0  0  0  0
  5 27  1  0  0  0  0
  5 28  1  0  0  0  0
  6  7  1  0  0  0  0
  6 29  1  0  0  0  0
  6 30  1  0  0  0  0
  7  8  1  0  0  0  0
  7 18  1  0  0  0  0
  7 31  1  0  0  0  0
  8  9  1  0  0  0  0
  8 32  1  0  0  0  0
  9 10  2  0  0  0  0
  9 11  1  0  0  0  0
 11 12  1  0  0  0  0
 11 33  1  0  0  0  0
 11 34  1  0  0  0  0
 12 16  1  0  0  0  0
 12 13  1  0  0  0  0
 13 14  2  0  0  0  0
 14 15  1  0  0  0  0
 14 35  1  0  0  0  0
 15 16  1  0  0  0  0
 16 17  2  0  0  0  0
 18 19  1  0  0  0  0
 18 36  1  0  0  0  0
 18 37  1  0  0  0  0
 19 38  1  0  0  0  0
 19 39  1  0  0  0  0
M  END
> <s_m_source_file>
AV-unprocessed.smi

> <i_m_source_file_index>
2588

> <i_lp_mmshare_version>
43012

> <i_f3d_flags>
0

> <s_epik_input>
W0NIM11bQ0hdKFtDSDNdKU4xW0NIMl1bQ0gyXVtDSF0oW0NIMl1bQ0gyXTEpW05IXUMoPU8pW0NIMl1uMm5bY0hdc2MyPU8=

> <s_epik_cmdline>
J2VwaWtfcHl0aG9uJywgJy1waCcsICc3LjAnLCAnLXRuJywgJzgnLCAnLW1hJywgJzIwMCcsICctbWV0YWxfYmluZGluZycsICctaW1hZScsICc8aW5maWxlLm1hZT4nLCAnLW9tYWUnLCAnPG91dGZpbGUubWFlPic=

> <r_lp_tautomer_probability>
1

> <r_epik_Ionization_Penalty>
2.47038

> <r_epik_Ionization_Penalty_Charging>
1.38606e-08

> <r_epik_Ionization_Penalty_Neutral>
2.47038

> <r_epik_State_Penalty>
2.63325

> <r_epik_Charging_Adjusted_Penalty>
2.63325

> <i_epik_Tot_Q>
0

> <i_epik_Tot_abs_Q>
0

> <r_epik_Metal_State_Penalty>
2.63325

> <b_epik_Metal_Only>
0

> <s_lp_Force_Field>
OPLS_2005

> <r_lp_Energy>
19.6439

> <b_lp_Chiralities_Consistent>
1

> <s_lp_Variant>
AV-unprocessed.smi:2588-3

> <Gold.Version>
5.8.1

> <Gold.Id.Protein>
6NUR|6NUR_protein|mol2

> <Gold.PLP.Fitness>
43.6487

> <Gold.PLP.PLP>
-36.6118

> <Gold.PLP.part.hbond>
-3.0000

> <Gold.PLP.part.metal>
0.0000

> <Gold.PLP.part.buried>
-4.8584

> <Gold.PLP.part.nonpolar>
-29.1094

> <Gold.PLP.part.repulsive>
0.1552

> <Gold.PLP.ligand.clash>
0.0000

> <Gold.PLP.ligand.torsion>
0.3351

> <Gold.PLP.Chemscore.Hbond>
2.5660

> <Gold.PLP.Chemscore.CHOScore>
0.0000

> <Gold.PLP.Chemscore.Metal>
0.0000

> <Gold.Chemscore.Hbonds>
donor molecule, donor type, donor heavy atom, donor atom, acceptor molecule, acceptor atom, score
      P1  H  6896  6907       L1    10  1.00
      P1  H  6931  6943       L1    13  0.60

> <Gold.PLP.Chemscore.Internal.Correction>
0.0090

> <Gold.Rescore>
     Score         DG    S(hbond)    S(metal)    S(lipo)     H(rot)  DE(clash)    DE(int)     intcor
     15.43     -16.87       1.88        0.00      83.82       1.83       0.00       1.44       ----

> <Gold.Chemscore.Fitness>
15.4256

> <Gold.Chemscore.DG>
-16.8705

> <Gold.Chemscore.ZeroCoef>
-5.4800

> <Gold.Chemscore.Hbond>
1.8793

> <Gold.Chemscore.Metal>
0.0000

> <Gold.Chemscore.Lipo>
83.8188

> <Gold.Chemscore.Internal_Hbond>
0.0000

> <Gold.Chemscore.DEClash>
0.0021

> <Gold.Chemscore.DEInternal>
1.4428

> <Gold.Chemscore.Rot>
1.8332

> <Gold.Chemscore.Internal.Correction>
   9.000000E+99

> <Gold.Chemscore.Hbonds>
donor molecule, donor type, donor heavy atom, donor atom, acceptor molecule, acceptor atom, score
      P1  H  6896  6907       L1    10  0.91
      P1  H  6931  6943       L1    13  0.04

> <Gold.Chemscore.Hbond.Weighted>
-6.2767

> <Gold.Chemscore.Metal.Weighted>
-0.0000

> <Gold.Chemscore.Lipo.Weighted>
-9.8068

> <Gold.Chemscore.Internal_Hbond.Weighted>
0.0000

> <Gold.Chemscore.DEClash.Weighted>
0.0021

> <Gold.Chemscore.DEInternal.Weighted>
1.4428

> <Gold.Chemscore.Rot.Weighted>
4.6930

> <Gold.Chemscore.Internal.Correction.Weighted>
   9.000000E+99

> <Gold.Protein.RotatedTorsions>
[ 6907 6896 6895 6894 ] final  -35.37 input  -60.11 | X-H torsion
[ 7974 7965 7964 7962 ] final  -53.10 input  175.53 | X-H torsion
[ 8008 7997 7996 7995 ] final  152.39 input   59.86 | X-H torsion
[ 10167 10162 10161 10158 ] final  169.74 input  -65.29 | X-H torsion
[ 10718 10713 10712 10709 ] final  -27.48 input   66.30 | X-H torsion
[ 10763 10752 10751 10750 ] final  -37.18 input  -60.55 | X-H torsion
[ 11005 11000 10999 10996 ] final   84.83 input  -57.11 | X-H torsion

> <Gold.Protein.ActiveResidues>
 VAL166  LYS551  ARG553  GLY616  TRP617  ASP618  TYR619  PRO620  LYS621  CYS622 
 ASP623  PHE694  ASN695  SER759  ASP760  ASP761  ALA762  ILE779  LEU786  VAL792 
 PHE793  MET794  SER795  GLU796  ALA797  LYS798  CYS799  TRP800  GLU811  SER814 

> <Gold.Protein.RotatedAtoms>
  151.0407  134.9605  159.8159 H   0  0  0  0  0  0  0  0  0  0  0  0  # atno 6907 bound_to 6896
  152.5363  134.2661  159.8964 H   0  0  0  0  0  0  0  0  0  0  0  0  # atno 6908 bound_to 6896
  151.2674  133.4229  159.2653 H   0  0  0  0  0  0  0  0  0  0  0  0  # atno 6909 bound_to 6896
  145.9006  140.7997  142.9745 H   0  0  0  0  0  0  0  0  0  0  0  0  # atno 7974 bound_to 7965
  156.2631  140.2022  156.6327 H   0  0  0  0  0  0  0  0  0  0  0  0  # atno 8008 bound_to 7997
  154.6671  140.0554  157.0149 H   0  0  0  0  0  0  0  0  0  0  0  0  # atno 8009 bound_to 7997
  155.1191  140.3223  155.4504 H   0  0  0  0  0  0  0  0  0  0  0  0  # atno 8010 bound_to 7997
  139.5000  144.3673  151.9762 H   0  0  0  0  0  0  0  0  0  0  0  0  # atno 10167 bound_to 10162
  156.4376  130.4458  149.7074 H   0  0  0  0  0  0  0  0  0  0  0  0  # atno 10718 bound_to 10713
  153.8921  135.6811  153.4760 H   0  0  0  0  0  0  0  0  0  0  0  0  # atno 10763 bound_to 10752
  153.1175  135.4755  154.9138 H   0  0  0  0  0  0  0  0  0  0  0  0  # atno 10764 bound_to 10752
  154.7617  135.3212  154.8318 H   0  0  0  0  0  0  0  0  0  0  0  0  # atno 10765 bound_to 10752
  139.8989  134.8244  156.2499 H   0  0  0  0  0  0  0  0  0  0  0  0  # atno 11005 bound_to 11000
  144.6735  140.1671  143.7417 LP  0  0  0  0  0  0  0  0  0  0  0  0  # atno 17320 bound_to 7965
  145.8795  139.2315  143.1613 LP  0  0  0  0  0  0  0  0  0  0  0  0  # atno 17321 bound_to 7965
  140.3109  144.3539  150.6034 LP  0  0  0  0  0  0  0  0  0  0  0  0  # atno 17342 bound_to 10162
  140.5799  143.2173  151.7447 LP  0  0  0  0  0  0  0  0  0  0  0  0  # atno 17343 bound_to 10162
  156.3952  130.7647  151.2651 LP  0  0  0  0  0  0  0  0  0  0  0  0  # atno 17370 bound_to 10713
  157.7507  131.0256  150.3926 LP  0  0  0  0  0  0  0  0  0  0  0  0  # atno 17371 bound_to 10713
  141.0230  133.7030  156.1301 LP  0  0  0  0  0  0  0  0  0  0  0  0  # atno 17394 bound_to 11000
  140.7206  134.4363  157.5575 LP  0  0  0  0  0  0  0  0  0  0  0  0  # atno 17395 bound_to 11000

$$$$
