AV-unprocessed.smi:2814|AV-procd|sdf|10839|dock4
  -GOLD-   2272015283D 1   1.00000     0.00000
 Structure written by MMmdl.
 37 38  0  0  0  0  0  0  0  0  1 V2000
  152.2994  139.7445  155.6957 C   0  0  0  0  0  0  0  0  0  0  0  0
  150.9046  139.9321  155.1364 C   0  0  0  0  0  0  0  0  0  0  0  0
  150.2181  138.8599  154.5274 C   0  0  0  0  0  0  0  0  0  0  0  0
  148.9150  139.0890  154.0232 C   0  0  0  0  0  0  0  0  0  0  0  0
  148.1272  138.1021  153.3714 N   0  0  0  0  0  0  0  0  0  0  0  0
  146.7960  137.9227  153.4218 C   0  0  0  0  0  0  0  0  0  0  0  0
  146.0043  138.6312  154.0435 O   0  0  0  0  0  0  0  0  0  0  0  0
  146.4240  136.8652  152.6861 N   0  0  0  0  0  0  0  0  0  0  0  0
  145.0560  136.3800  152.5153 C   0  0  0  0  0  0  0  0  0  0  0  0
  144.9695  135.1893  151.5336 C   0  0  0  0  0  0  0  0  0  0  0  0
  144.7969  135.7061  150.2258 O   0  0  0  0  0  0  0  0  0  0  0  0
  146.1670  134.2275  151.5522 C   0  0  0  0  0  0  0  0  0  0  0  0
  145.6462  132.8994  150.9884 C   0  0  0  0  0  0  0  0  0  0  0  0
  144.1187  132.9289  151.1478 C   0  0  0  0  0  0  0  0  0  0  0  0
  143.7806  134.2637  151.8241 C   0  0  0  0  0  0  0  0  0  0  0  0
  148.3793  140.3885  154.1338 C   0  0  0  0  0  0  0  0  0  0  0  0
  149.1476  141.3887  154.7612 C   0  0  0  0  0  0  0  0  0  0  0  0
  150.3835  141.1723  155.2577 N   0  0  0  0  0  0  0  0  0  0  0  0
  152.6549  138.7253  155.5416 H   0  0  0  0  0  0  0  0  0  0  0  0
  152.3085  139.9500  156.7664 H   0  0  0  0  0  0  0  0  0  0  0  0
  152.9981  140.4252  155.2086 H   0  0  0  0  0  0  0  0  0  0  0  0
  150.6997  137.8977  154.4469 H   0  0  0  0  0  0  0  0  0  0  0  0
  148.6328  137.4888  152.7493 H   0  0  0  0  0  0  0  0  0  0  0  0
  147.1454  136.3420  152.2115 H   0  0  0  0  0  0  0  0  0  0  0  0
  144.6405  136.0969  153.4839 H   0  0  0  0  0  0  0  0  0  0  0  0
  144.4389  137.2059  152.1595 H   0  0  0  0  0  0  0  0  0  0  0  0
  145.2089  135.1143  149.6149 H   0  0  0  0  0  0  0  0  0  0  0  0
  147.0302  134.6064  151.0034 H   0  0  0  0  0  0  0  0  0  0  0  0
  146.4852  134.0656  152.5829 H   0  0  0  0  0  0  0  0  0  0  0  0
  145.9059  132.8106  149.9329 H   0  0  0  0  0  0  0  0  0  0  0  0
  146.0923  132.0491  151.5055 H   0  0  0  0  0  0  0  0  0  0  0  0
  143.6460  132.8755  150.1664 H   0  0  0  0  0  0  0  0  0  0  0  0
  143.7526  132.0832  151.7310 H   0  0  0  0  0  0  0  0  0  0  0  0
  143.7005  134.0985  152.8996 H   0  0  0  0  0  0  0  0  0  0  0  0
  142.8256  134.6736  151.4918 H   0  0  0  0  0  0  0  0  0  0  0  0
  147.3951  140.6180  153.7522 H   0  0  0  0  0  0  0  0  0  0  0  0
  148.7588  142.3906  154.8662 H   0  0  0  0  0  0  0  0  0  0  0  0
  1  2  1  0  0  0  0
  1 19  1  0  0  0  0
  1 20  1  0  0  0  0
  1 21  1  0  0  0  0
  2 18  1  0  0  0  0
  2  3  2  0  0  0  0
  3  4  1  0  0  0  0
  3 22  1  0  0  0  0
  4  5  1  0  0  0  0
  4 16  2  0  0  0  0
  5  6  1  0  0  0  0
  5 23  1  0  0  0  0
  6  7  2  0  0  0  0
  6  8  1  0  0  0  0
  8  9  1  0  0  0  0
  8 24  1  0  0  0  0
  9 10  1  0  0  0  0
  9 25  1  0  0  0  0
  9 26  1  0  0  0  0
 10 15  1  0  0  0  0
 10 11  1  0  0  0  0
 10 12  1  0  0  0  0
 11 27  1  0  0  0  0
 12 13  1  0  0  0  0
 12 28  1  0  0  0  0
 12 29  1  0  0  0  0
 13 14  1  0  0  0  0
 13 30  1  0  0  0  0
 13 31  1  0  0  0  0
 14 15  1  0  0  0  0
 14 32  1  0  0  0  0
 14 33  1  0  0  0  0
 15 34  1  0  0  0  0
 15 35  1  0  0  0  0
 16 17  1  0  0  0  0
 16 36  1  0  0  0  0
 17 18  2  0  0  0  0
 17 37  1  0  0  0  0
M  END
> <s_m_source_file>
AV-unprocessed.smi

> <i_m_source_file_index>
2814

> <i_lp_mmshare_version>
43012

> <i_f3d_flags>
0

> <s_epik_input>
W0NIM11jMVtjSF1jKFtjSF1bY0hdbjEpW05IXUMoPU8pW05IXVtDSDJdQzIoW09IXSlbQ0gyXVtDSDJdW0NIMl1bQ0gyXTI=

> <s_epik_cmdline>
J2VwaWtfcHl0aG9uJywgJy1waCcsICc3LjAnLCAnLXRuJywgJzgnLCAnLW1hJywgJzIwMCcsICctbWV0YWxfYmluZGluZycsICctaW1hZScsICc8aW5maWxlLm1hZT4nLCAnLW9tYWUnLCAnPG91dGZpbGUubWFlPic=

> <r_epik_Ionization_Penalty>
0.405099

> <r_epik_Ionization_Penalty_Charging>
0

> <r_epik_Ionization_Penalty_Neutral>
0.405099

> <r_epik_State_Penalty>
0.404681

> <r_epik_Charging_Adjusted_Penalty>
0.404681

> <i_epik_Tot_Q>
0

> <i_epik_Tot_abs_Q>
0

> <r_epik_Metal_State_Penalty>
0.238286

> <b_epik_Metal_Only>
0

> <s_lp_Force_Field>
OPLS_2005

> <r_lp_Energy>
28.9703

> <b_lp_Chiralities_Consistent>
1

> <s_lp_Variant>
AV-unprocessed.smi:2814-1

> <Gold.Version>
5.8.1

> <Gold.Id.Protein>
6NUR|6NUR_protein|mol2

> <Gold.PLP.Fitness>
46.1665

> <Gold.PLP.PLP>
-35.7528

> <Gold.PLP.part.hbond>
-5.6025

> <Gold.PLP.part.metal>
0.0000

> <Gold.PLP.part.buried>
-1.4687

> <Gold.PLP.part.nonpolar>
-29.1818

> <Gold.PLP.part.repulsive>
0.3379

> <Gold.PLP.ligand.clash>
0.0000

> <Gold.PLP.ligand.torsion>
0.7590

> <Gold.PLP.Chemscore.Hbond>
2.9760

> <Gold.PLP.Chemscore.CHOScore>
1.0000

> <Gold.PLP.Chemscore.Metal>
0.0000

> <Gold.Chemscore.Hbonds>
donor molecule, donor type, donor heavy atom, donor atom, acceptor molecule, acceptor atom, score
      L1  H     5    23       P1  7948  1.00
      L1  H     8    24       P1  7948  0.93
      L1  H    11    27       P1  7921  0.54
      L1  C    17    37       P1  8028  1.00

> <Gold.PLP.Chemscore.Internal.Correction>
0.0037

> <Gold.Rescore>
     Score         DG    S(hbond)    S(metal)    S(lipo)     H(rot)  DE(clash)    DE(int)     intcor
     18.03     -19.85       2.94        0.00      76.21       1.71       0.02       1.81       ----

> <Gold.Chemscore.Fitness>
18.0280

> <Gold.Chemscore.DG>
-19.8521

> <Gold.Chemscore.ZeroCoef>
-5.4800

> <Gold.Chemscore.Hbond>
2.9442

> <Gold.Chemscore.Metal>
0.0000

> <Gold.Chemscore.Lipo>
76.2130

> <Gold.Chemscore.Internal_Hbond>
0.0000

> <Gold.Chemscore.DEClash>
0.0166

> <Gold.Chemscore.DEInternal>
1.8075

> <Gold.Chemscore.Rot>
1.7103

> <Gold.Chemscore.Internal.Correction>
   9.000000E+99

> <Gold.Chemscore.Hbonds>
donor molecule, donor type, donor heavy atom, donor atom, acceptor molecule, acceptor atom, score
      L1  H     5    23       P1  7948  0.95
      L1  H     8    24       P1  7948  0.90
      L1  H    11    27       P1  7921  0.52

> <Gold.Chemscore.Hbond.Weighted>
-9.8336

> <Gold.Chemscore.Metal.Weighted>
-0.0000

> <Gold.Chemscore.Lipo.Weighted>
-8.9169

> <Gold.Chemscore.Internal_Hbond.Weighted>
0.0000

> <Gold.Chemscore.DEClash.Weighted>
0.0166

> <Gold.Chemscore.DEInternal.Weighted>
1.8075

> <Gold.Chemscore.Rot.Weighted>
4.3785

> <Gold.Chemscore.Internal.Correction.Weighted>
   9.000000E+99

> <Gold.Protein.RotatedTorsions>
[ 6907 6896 6895 6894 ] final   83.92 input  -60.11 | X-H torsion
[ 7974 7965 7964 7962 ] final   28.96 input  175.53 | X-H torsion
[ 8008 7997 7996 7995 ] final  -43.60 input   59.86 | X-H torsion
[ 10167 10162 10161 10158 ] final -120.61 input  -65.29 | X-H torsion
[ 10718 10713 10712 10709 ] final   81.52 input   66.30 | X-H torsion
[ 10763 10752 10751 10750 ] final   23.62 input  -60.55 | X-H torsion
[ 11005 11000 10999 10996 ] final -170.58 input  -57.11 | X-H torsion

> <Gold.Protein.ActiveResidues>
 VAL166  LYS551  ARG553  GLY616  TRP617  ASP618  TYR619  PRO620  LYS621  CYS622 
 ASP623  PHE694  ASN695  SER759  ASP760  ASP761  ALA762  ILE779  LEU786  VAL792 
 PHE793  MET794  SER795  GLU796  ALA797  LYS798  CYS799  TRP800  GLU811  SER814 

> <Gold.Protein.RotatedAtoms>
  152.5339  134.2821  159.9011 H   0  0  0  0  0  0  0  0  0  0  0  0  # atno 6907 bound_to 6896
  151.2775  133.4219  159.2632 H   0  0  0  0  0  0  0  0  0  0  0  0  # atno 6908 bound_to 6896
  151.0313  134.9556  159.8169 H   0  0  0  0  0  0  0  0  0  0  0  0  # atno 6909 bound_to 6896
  146.1699  139.6986  142.8975 H   0  0  0  0  0  0  0  0  0  0  0  0  # atno 7974 bound_to 7965
  154.3997  140.1443  156.3546 H   0  0  0  0  0  0  0  0  0  0  0  0  # atno 8008 bound_to 7997
  155.8238  140.3468  155.5509 H   0  0  0  0  0  0  0  0  0  0  0  0  # atno 8009 bound_to 7997
  155.8260  140.0905  157.1811 H   0  0  0  0  0  0  0  0  0  0  0  0  # atno 8010 bound_to 7997
  140.0340  143.5220  152.2162 H   0  0  0  0  0  0  0  0  0  0  0  0  # atno 10167 bound_to 10162
  157.6835  131.0007  150.2238 H   0  0  0  0  0  0  0  0  0  0  0  0  # atno 10718 bound_to 10713
  153.0824  135.6623  154.0017 H   0  0  0  0  0  0  0  0  0  0  0  0  # atno 10763 bound_to 10752
  153.9636  135.2971  155.3433 H   0  0  0  0  0  0  0  0  0  0  0  0  # atno 10764 bound_to 10752
  154.7226  135.5158  153.8908 H   0  0  0  0  0  0  0  0  0  0  0  0  # atno 10765 bound_to 10752
  140.5179  134.5738  157.5039 H   0  0  0  0  0  0  0  0  0  0  0  0  # atno 11005 bound_to 11000
  145.4368  141.0419  143.2880 LP  0  0  0  0  0  0  0  0  0  0  0  0  # atno 17320 bound_to 7965
  144.8147  139.5897  143.7013 LP  0  0  0  0  0  0  0  0  0  0  0  0  # atno 17321 bound_to 7965
  139.6057  144.7595  151.3067 LP  0  0  0  0  0  0  0  0  0  0  0  0  # atno 17342 bound_to 10162
  140.7289  143.6921  150.7913 LP  0  0  0  0  0  0  0  0  0  0  0  0  # atno 17343 bound_to 10162
  156.2885  130.3742  149.7865 LP  0  0  0  0  0  0  0  0  0  0  0  0  # atno 17370 bound_to 10713
  156.5532  130.8351  151.3306 LP  0  0  0  0  0  0  0  0  0  0  0  0  # atno 17371 bound_to 10713
  139.9622  134.7433  156.0213 LP  0  0  0  0  0  0  0  0  0  0  0  0  # atno 17394 bound_to 11000
  141.1350  133.6577  156.3569 LP  0  0  0  0  0  0  0  0  0  0  0  0  # atno 17395 bound_to 11000

$$$$
