AV-unprocessed.smi:3028|AV-procd|sdf|11521|dock8
  -GOLD-   2272016463D 1   1.00000     0.00000
 Structure written by MMmdl.
 47 48  0  0  0  0  0  0  0  0  1 V2000
  151.2373  141.7209  158.6461 C   0  0  0  0  0  0  0  0  0  0  0  0
  150.7279  141.1360  157.3607 C   0  0  0  0  0  0  0  0  0  0  0  0
  150.4461  141.8142  156.1412 C   0  0  0  0  0  0  0  0  0  0  0  0
  150.0051  141.0050  155.1924 N   0  0  0  0  0  0  0  0  0  0  0  0
  149.9890  139.7828  155.7674 N   0  0  0  0  0  0  0  0  0  0  0  0
  149.5443  138.6254  155.0001 C   0  0  2  0  0  0  0  0  0  0  0  0
  148.1302  138.2197  155.4573 C   0  0  0  0  0  0  0  0  0  0  0  0
  150.5602  137.4535  155.0769 C   0  0  2  0  0  0  0  0  0  0  0  0
  151.8495  137.7180  154.2680 C   0  0  0  0  0  0  0  0  0  0  0  0
  149.9049  136.2522  154.5649 N   0  0  0  0  0  0  0  0  0  0  0  0
  150.5074  135.0004  155.0468 C   0  0  0  0  0  0  0  0  0  0  0  0
  149.8850  133.7514  154.4025 C   0  0  0  0  0  0  0  0  0  0  0  0
  150.1317  132.6321  154.8504 O   0  0  0  0  0  0  0  0  0  0  0  0
  149.0630  133.8998  153.3497 N   0  0  0  0  0  0  0  0  0  0  0  0
  148.3744  132.8515  152.5995 C   0  0  0  0  0  0  0  0  0  0  0  0
  147.3481  133.4854  151.6483 C   0  0  0  0  0  0  0  0  0  0  0  0
  146.5020  132.4018  150.9599 C   0  0  0  0  0  0  0  0  0  0  0  0
  145.8663  131.5854  151.9378 O   0  0  0  0  0  0  0  0  0  0  0  0
  146.7916  130.8860  152.7632 C   0  0  0  0  0  0  0  0  0  0  0  0
  147.6515  131.8856  153.5535 C   0  0  0  0  0  0  0  0  0  0  0  0
  150.4210  139.8353  157.0776 C   0  0  0  0  0  0  0  0  0  0  0  0
  151.5607  142.7546  158.5215 H   0  0  0  0  0  0  0  0  0  0  0  0
  152.0899  141.1625  159.0331 H   0  0  0  0  0  0  0  0  0  0  0  0
  150.4702  141.7157  159.4207 H   0  0  0  0  0  0  0  0  0  0  0  0
  150.5476  142.8664  155.9190 H   0  0  0  0  0  0  0  0  0  0  0  0
  149.4722  138.9395  153.9565 H   0  0  0  0  0  0  0  0  0  0  0  0
  147.7159  137.4311  154.8289 H   0  0  0  0  0  0  0  0  0  0  0  0
  147.4457  139.0668  155.4043 H   0  0  0  0  0  0  0  0  0  0  0  0
  148.1311  137.8567  156.4855 H   0  0  0  0  0  0  0  0  0  0  0  0
  150.8263  137.3039  156.1246 H   0  0  0  0  0  0  0  0  0  0  0  0
  152.3793  138.5988  154.6306 H   0  0  0  0  0  0  0  0  0  0  0  0
  151.6274  137.8795  153.2127 H   0  0  0  0  0  0  0  0  0  0  0  0
  152.5544  136.8904  154.3362 H   0  0  0  0  0  0  0  0  0  0  0  0
  149.8610  136.2869  153.5563 H   0  0  0  0  0  0  0  0  0  0  0  0
  151.5752  134.9981  154.8312 H   0  0  0  0  0  0  0  0  0  0  0  0
  150.3857  134.9371  156.1284 H   0  0  0  0  0  0  0  0  0  0  0  0
  148.8975  134.8454  153.0362 H   0  0  0  0  0  0  0  0  0  0  0  0
  149.0833  132.2879  151.9918 H   0  0  0  0  0  0  0  0  0  0  0  0
  146.6885  134.1538  152.2039 H   0  0  0  0  0  0  0  0  0  0  0  0
  147.8533  134.0966  150.8997 H   0  0  0  0  0  0  0  0  0  0  0  0
  145.7366  132.8645  150.3366 H   0  0  0  0  0  0  0  0  0  0  0  0
  147.1178  131.7864  150.3021 H   0  0  0  0  0  0  0  0  0  0  0  0
  146.2372  130.2449  153.4487 H   0  0  0  0  0  0  0  0  0  0  0  0
  147.4177  130.2326  152.1533 H   0  0  0  0  0  0  0  0  0  0  0  0
  148.3687  131.3483  154.1743 H   0  0  0  0  0  0  0  0  0  0  0  0
  147.0108  132.4473  154.2349 H   0  0  0  0  0  0  0  0  0  0  0  0
  150.4731  138.9502  157.6947 H   0  0  0  0  0  0  0  0  0  0  0  0
  1  2  1  0  0  0  0
  1 22  1  0  0  0  0
  1 23  1  0  0  0  0
  1 24  1  0  0  0  0
  2 21  2  0  0  0  0
  2  3  1  0  0  0  0
  3  4  2  0  0  0  0
  3 25  1  0  0  0  0
  4  5  1  0  0  0  0
  5  6  1  0  0  0  0
  5 21  1  0  0  0  0
  6  7  1  0  0  0  0
  6  8  1  0  0  0  0
  6 26  1  0  0  0  0
  7 27  1  0  0  0  0
  7 28  1  0  0  0  0
  7 29  1  0  0  0  0
  8  9  1  0  0  0  0
  8 10  1  0  0  0  0
  8 30  1  0  0  0  0
  9 31  1  0  0  0  0
  9 32  1  0  0  0  0
  9 33  1  0  0  0  0
 10 11  1  0  0  0  0
 10 34  1  0  0  0  0
 11 12  1  0  0  0  0
 11 35  1  0  0  0  0
 11 36  1  0  0  0  0
 12 13  2  0  0  0  0
 12 14  1  0  0  0  0
 14 15  1  0  0  0  0
 14 37  1  0  0  0  0
 15 20  1  0  0  0  0
 15 16  1  0  0  0  0
 15 38  1  0  0  0  0
 16 17  1  0  0  0  0
 16 39  1  0  0  0  0
 16 40  1  0  0  0  0
 17 18  1  0  0  0  0
 17 41  1  0  0  0  0
 17 42  1  0  0  0  0
 18 19  1  0  0  0  0
 19 20  1  0  0  0  0
 19 43  1  0  0  0  0
 19 44  1  0  0  0  0
 20 45  1  0  0  0  0
 20 46  1  0  0  0  0
 21 47  1  0  0  0  0
M  END
> <s_m_source_file>
AV-unprocessed.smi

> <i_m_source_file_index>
3028

> <i_lp_mmshare_version>
43012

> <i_f3d_flags>
0

> <s_epik_input>
W0NIM11jMVtjSF1ubihbY0hdMSlbQ0BIXShbQ0gzXSlbQ0BIXShbQ0gzXSlbTkhdW0NIMl1DKD1PKVtOSF1bQ0hdMltDSDJdW0NIMl1PW0NIMl1bQ0gyXTI=

> <s_epik_cmdline>
J2VwaWtfcHl0aG9uJywgJy1waCcsICc3LjAnLCAnLXRuJywgJzgnLCAnLW1hJywgJzIwMCcsICctbWV0YWxfYmluZGluZycsICctaW1hZScsICc8aW5maWxlLm1hZT4nLCAnLW9tYWUnLCAnPG91dGZpbGUubWFlPic=

> <r_lp_tautomer_probability>
1

> <r_epik_Ionization_Penalty>
0.88617

> <r_epik_Ionization_Penalty_Charging>
0

> <r_epik_Ionization_Penalty_Neutral>
0.88617

> <r_epik_State_Penalty>
0.921066

> <r_epik_Charging_Adjusted_Penalty>
0.921066

> <i_epik_Tot_Q>
0

> <i_epik_Tot_abs_Q>
0

> <r_epik_Metal_State_Penalty>
0.917309

> <b_epik_Metal_Only>
0

> <s_lp_Force_Field>
OPLS_2005

> <r_lp_Energy>
19.247

> <b_lp_Chiralities_Consistent>
1

> <s_lp_Variant>
AV-unprocessed.smi:3028-5

> <Gold.Version>
5.8.1

> <Gold.Id.Protein>
6NUR|6NUR_protein|mol2

> <Gold.PLP.Fitness>
41.9917

> <Gold.PLP.PLP>
-33.5618

> <Gold.PLP.part.hbond>
-3.0000

> <Gold.PLP.part.metal>
0.0000

> <Gold.PLP.part.buried>
-2.6560

> <Gold.PLP.part.nonpolar>
-26.5518

> <Gold.PLP.part.repulsive>
0.2923

> <Gold.PLP.ligand.clash>
0.0000

> <Gold.PLP.ligand.torsion>
0.9165

> <Gold.PLP.Chemscore.Hbond>
2.4808

> <Gold.PLP.Chemscore.CHOScore>
0.9142

> <Gold.PLP.Chemscore.Metal>
0.0000

> <Gold.Chemscore.Hbonds>
donor molecule, donor type, donor heavy atom, donor atom, acceptor molecule, acceptor atom, score
      L1  H    10    34       P1  7948  0.90
      L1  H    14    37       P1  7948  0.85
      P1  H  7989  7998       L1     4  0.16
      L1  C     3    25       P1  8028  1.00

> <Gold.PLP.Chemscore.Internal.Correction>
0.0779

> <Gold.Rescore>
     Score         DG    S(hbond)    S(metal)    S(lipo)     H(rot)  DE(clash)    DE(int)     intcor
     13.95     -15.59       1.79        0.00      77.48       1.92       0.67       0.96       ----

> <Gold.Chemscore.Fitness>
13.9545

> <Gold.Chemscore.DG>
-15.5902

> <Gold.Chemscore.ZeroCoef>
-5.4800

> <Gold.Chemscore.Hbond>
1.7870

> <Gold.Chemscore.Metal>
0.0000

> <Gold.Chemscore.Lipo>
77.4790

> <Gold.Chemscore.Internal_Hbond>
0.0000

> <Gold.Chemscore.DEClash>
0.6716

> <Gold.Chemscore.DEInternal>
0.9641

> <Gold.Chemscore.Rot>
1.9233

> <Gold.Chemscore.Internal.Correction>
   9.000000E+99

> <Gold.Chemscore.Hbonds>
donor molecule, donor type, donor heavy atom, donor atom, acceptor molecule, acceptor atom, score
      L1  H    10    34       P1  7948  0.18
      L1  H    14    37       P1  7948  0.14
      P1  H  7989  7998       L1     4  0.06

> <Gold.Chemscore.Hbond.Weighted>
-5.9687

> <Gold.Chemscore.Metal.Weighted>
-0.0000

> <Gold.Chemscore.Lipo.Weighted>
-9.0650

> <Gold.Chemscore.Internal_Hbond.Weighted>
0.0000

> <Gold.Chemscore.DEClash.Weighted>
0.6716

> <Gold.Chemscore.DEInternal.Weighted>
0.9641

> <Gold.Chemscore.Rot.Weighted>
4.9235

> <Gold.Chemscore.Internal.Correction.Weighted>
   9.000000E+99

> <Gold.Protein.RotatedTorsions>
[ 6907 6896 6895 6894 ] final   17.04 input  -60.11 | X-H torsion
[ 7974 7965 7964 7962 ] final -138.56 input  175.53 | X-H torsion
[ 8008 7997 7996 7995 ] final  -62.19 input   59.86 | X-H torsion
[ 10167 10162 10161 10158 ] final   19.37 input  -65.29 | X-H torsion
[ 10718 10713 10712 10709 ] final   -6.91 input   66.30 | X-H torsion
[ 10763 10752 10751 10750 ] final  132.69 input  -60.55 | X-H torsion
[ 11005 11000 10999 10996 ] final -142.17 input  -57.11 | X-H torsion

> <Gold.Protein.ActiveResidues>
 VAL166  LYS551  ARG553  GLY616  TRP617  ASP618  TYR619  PRO620  LYS621  CYS622 
 ASP623  PHE694  ASN695  SER759  ASP760  ASP761  ALA762  ILE779  LEU786  VAL792 
 PHE793  MET794  SER795  GLU796  ALA797  LYS798  CYS799  TRP800  GLU811  SER814 

> <Gold.Protein.RotatedAtoms>
  151.8434  135.0582  160.0450 H   0  0  0  0  0  0  0  0  0  0  0  0  # atno 6907 bound_to 6896
  152.2792  133.5449  159.5495 H   0  0  0  0  0  0  0  0  0  0  0  0  # atno 6908 bound_to 6896
  150.7182  134.0505  159.3839 H   0  0  0  0  0  0  0  0  0  0  0  0  # atno 6909 bound_to 6896
  144.8748  140.6421  143.5243 H   0  0  0  0  0  0  0  0  0  0  0  0  # atno 7974 bound_to 7965
  154.4486  140.1001  156.6548 H   0  0  0  0  0  0  0  0  0  0  0  0  # atno 8008 bound_to 7997
  155.5358  140.3482  155.4417 H   0  0  0  0  0  0  0  0  0  0  0  0  # atno 8009 bound_to 7997
  156.0632  140.1331  156.9906 H   0  0  0  0  0  0  0  0  0  0  0  0  # atno 8010 bound_to 7997
  140.5584  143.9382  150.6625 H   0  0  0  0  0  0  0  0  0  0  0  0  # atno 10167 bound_to 10162
  156.7249  130.5162  149.5859 H   0  0  0  0  0  0  0  0  0  0  0  0  # atno 10718 bound_to 10713
  153.7948  135.3150  155.3383 H   0  0  0  0  0  0  0  0  0  0  0  0  # atno 10763 bound_to 10752
  154.8112  135.4666  154.0524 H   0  0  0  0  0  0  0  0  0  0  0  0  # atno 10764 bound_to 10752
  153.1853  135.6900  153.8510 H   0  0  0  0  0  0  0  0  0  0  0  0  # atno 10765 bound_to 10752
  140.8252  134.2583  157.4882 H   0  0  0  0  0  0  0  0  0  0  0  0  # atno 11005 bound_to 11000
  145.4062  139.1588  143.4150 LP  0  0  0  0  0  0  0  0  0  0  0  0  # atno 17320 bound_to 7965
  146.2955  140.4163  142.8723 LP  0  0  0  0  0  0  0  0  0  0  0  0  # atno 17321 bound_to 7965
  140.2827  143.3378  152.1136 LP  0  0  0  0  0  0  0  0  0  0  0  0  # atno 17342 bound_to 10162
  139.5058  144.6802  151.6027 LP  0  0  0  0  0  0  0  0  0  0  0  0  # atno 17343 bound_to 10162
  156.1569  130.6347  151.0668 LP  0  0  0  0  0  0  0  0  0  0  0  0  # atno 17370 bound_to 10713
  157.6883  131.0818  150.7181 LP  0  0  0  0  0  0  0  0  0  0  0  0  # atno 17371 bound_to 10713
  139.8707  134.9557  156.4213 LP  0  0  0  0  0  0  0  0  0  0  0  0  # atno 17394 bound_to 11000
  140.9057  133.7748  155.9732 LP  0  0  0  0  0  0  0  0  0  0  0  0  # atno 17395 bound_to 11000

$$$$
