AV-unprocessed.smi:2224|AV-procd|sdf|8992|dock7
  -GOLD-   2272012203D 1   1.00000     0.00000
 Structure written by MMmdl.
 44 46  0  0  0  0  0  0  0  0  1 V2000
  144.8115  132.0962  150.2842 C   0  0  0  0  0  0  0  0  0  0  0  0
  144.5269  133.2485  151.2246 C   0  0  0  0  0  0  0  0  0  0  0  0
  143.2156  133.5186  151.6602 C   0  0  0  0  0  0  0  0  0  0  0  0
  143.0163  134.6045  152.5350 C   0  0  0  0  0  0  0  0  0  0  0  0
  141.6320  134.9530  153.0404 C   0  0  0  0  0  0  0  0  0  0  0  0
  144.0216  135.3941  152.9703 N   0  0  0  0  0  0  0  0  0  0  0  0
  145.2889  135.1432  152.5579 C   0  0  0  0  0  0  0  0  0  0  0  0
  146.4138  135.9137  152.9557 N   0  0  0  0  0  0  0  0  0  0  0  0
  146.5262  136.7331  154.0161 C   0  0  0  0  0  0  0  0  0  0  0  0
  145.6475  136.9419  154.8532 O   0  0  0  0  0  0  0  0  0  0  0  0
  147.7322  137.3163  154.0544 N   0  0  0  0  0  0  0  0  0  0  0  0
  148.1596  138.2704  155.0836 C   0  0  1  0  0  0  0  0  0  0  0  0
  149.6647  138.2101  155.3580 C   0  0  1  0  0  0  0  0  0  0  0  0
  150.7579  137.2384  155.0954 C   0  0  0  0  0  0  0  0  0  0  0  0
  151.8348  138.2708  154.6634 C   0  0  0  0  0  0  0  0  0  0  0  0
  151.1393  139.5353  154.5135 O   0  0  0  0  0  0  0  0  0  0  0  0
  149.8162  139.1589  154.1873 C   0  0  2  0  0  0  0  0  0  0  0  0
  148.4391  139.7416  154.5769 C   0  0  0  0  0  0  0  0  0  0  0  0
  147.5906  140.2554  153.4083 C   0  0  0  0  0  0  0  0  0  0  0  0
  148.4242  140.8642  155.6302 C   0  0  0  0  0  0  0  0  0  0  0  0
  145.5755  134.0724  151.6814 C   0  0  0  0  0  0  0  0  0  0  0  0
  143.8901  131.6092  149.9635 H   0  0  0  0  0  0  0  0  0  0  0  0
  145.4370  131.3521  150.7777 H   0  0  0  0  0  0  0  0  0  0  0  0
  145.3349  132.4524  149.3966 H   0  0  0  0  0  0  0  0  0  0  0  0
  142.3850  132.9103  151.3328 H   0  0  0  0  0  0  0  0  0  0  0  0
  140.9155  134.1664  152.8021 H   0  0  0  0  0  0  0  0  0  0  0  0
  141.2864  135.8803  152.5831 H   0  0  0  0  0  0  0  0  0  0  0  0
  141.6418  135.0855  154.1228 H   0  0  0  0  0  0  0  0  0  0  0  0
  147.2229  135.8405  152.3570 H   0  0  0  0  0  0  0  0  0  0  0  0
  148.3993  137.0916  153.3311 H   0  0  0  0  0  0  0  0  0  0  0  0
  147.5624  138.2332  155.9964 H   0  0  0  0  0  0  0  0  0  0  0  0
  149.8556  138.6927  156.3197 H   0  0  0  0  0  0  0  0  0  0  0  0
  151.0477  136.6744  155.9824 H   0  0  0  0  0  0  0  0  0  0  0  0
  150.5104  136.5438  154.2917 H   0  0  0  0  0  0  0  0  0  0  0  0
  152.6228  138.3749  155.4098 H   0  0  0  0  0  0  0  0  0  0  0  0
  152.2985  137.9772  153.7208 H   0  0  0  0  0  0  0  0  0  0  0  0
  149.7916  138.6682  153.2088 H   0  0  0  0  0  0  0  0  0  0  0  0
  147.9274  141.2352  153.0688 H   0  0  0  0  0  0  0  0  0  0  0  0
  146.5408  140.3463  153.6883 H   0  0  0  0  0  0  0  0  0  0  0  0
  147.6381  139.5916  152.5449 H   0  0  0  0  0  0  0  0  0  0  0  0
  148.9443  141.7511  155.2674 H   0  0  0  0  0  0  0  0  0  0  0  0
  148.8961  140.5855  156.5706 H   0  0  0  0  0  0  0  0  0  0  0  0
  147.4045  141.1635  155.8750 H   0  0  0  0  0  0  0  0  0  0  0  0
  146.5896  133.8829  151.3597 H   0  0  0  0  0  0  0  0  0  0  0  0
  1  2  1  0  0  0  0
  1 22  1  0  0  0  0
  1 23  1  0  0  0  0
  1 24  1  0  0  0  0
  2 21  1  0  0  0  0
  2  3  2  0  0  0  0
  3  4  1  0  0  0  0
  3 25  1  0  0  0  0
  4  5  1  0  0  0  0
  4  6  2  0  0  0  0
  5 26  1  0  0  0  0
  5 27  1  0  0  0  0
  5 28  1  0  0  0  0
  6  7  1  0  0  0  0
  7  8  1  0  0  0  0
  7 21  2  0  0  0  0
  8  9  1  0  0  0  0
  8 29  1  0  0  0  0
  9 10  2  0  0  0  0
  9 11  1  0  0  0  0
 11 12  1  0  0  0  0
 11 30  1  0  0  0  0
 12 18  1  0  0  0  0
 12 13  1  0  0  0  0
 12 31  1  0  0  0  0
 13 17  1  0  0  0  0
 13 14  1  0  0  0  0
 13 32  1  0  0  0  0
 14 15  1  0  0  0  0
 14 33  1  0  0  0  0
 14 34  1  0  0  0  0
 15 16  1  0  0  0  0
 15 35  1  0  0  0  0
 15 36  1  0  0  0  0
 16 17  1  0  0  0  0
 17 18  1  0  0  0  0
 17 37  1  0  0  0  0
 18 19  1  0  0  0  0
 18 20  1  0  0  0  0
 19 38  1  0  0  0  0
 19 39  1  0  0  0  0
 19 40  1  0  0  0  0
 20 41  1  0  0  0  0
 20 42  1  0  0  0  0
 20 43  1  0  0  0  0
 21 44  1  0  0  0  0
M  END
> <s_m_source_file>
AV-unprocessed.smi

> <i_m_source_file_index>
2224

> <i_lp_mmshare_version>
43012

> <i_f3d_flags>
0

> <s_epik_input>
W0NIM11jMVtjSF1jKFtDSDNdKW5jKFtjSF0xKVtOSF1DKD1PKVtOSF1bQ0BIXTJDKFtDSDNdKShbQ0gzXSlbQ0BIXShbQ0BASF0yMylPW0NIMl1bQ0gyXTM=

> <s_epik_cmdline>
J2VwaWtfcHl0aG9uJywgJy1waCcsICc3LjAnLCAnLXRuJywgJzgnLCAnLW1hJywgJzIwMCcsICctbWV0YWxfYmluZGluZycsICctaW1hZScsICc8aW5maWxlLm1hZT4nLCAnLW9tYWUnLCAnPG91dGZpbGUubWFlPic=

> <r_lp_tautomer_probability>
1

> <r_epik_Ionization_Penalty>
0.000276544

> <r_epik_Ionization_Penalty_Charging>
0

> <r_epik_Ionization_Penalty_Neutral>
0.000276544

> <r_epik_State_Penalty>
-0

> <r_epik_Charging_Adjusted_Penalty>
0

> <i_epik_Tot_Q>
0

> <i_epik_Tot_abs_Q>
0

> <r_epik_Metal_State_Penalty>
-0

> <b_epik_Metal_Only>
0

> <s_lp_Force_Field>
OPLS_2005

> <r_lp_Energy>
64.3875

> <b_lp_Chiralities_Consistent>
1

> <s_lp_Variant>
AV-unprocessed.smi:2224-2

> <Gold.Version>
5.8.1

> <Gold.Id.Protein>
6NUR|6NUR_protein|mol2

> <Gold.PLP.Fitness>
42.1100

> <Gold.PLP.PLP>
-33.4207

> <Gold.PLP.part.hbond>
-3.0000

> <Gold.PLP.part.metal>
0.0000

> <Gold.PLP.part.buried>
-3.9284

> <Gold.PLP.part.nonpolar>
-25.8576

> <Gold.PLP.part.repulsive>
0.2301

> <Gold.PLP.ligand.clash>
0.0000

> <Gold.PLP.ligand.torsion>
0.2848

> <Gold.PLP.Chemscore.Hbond>
3.0000

> <Gold.PLP.Chemscore.CHOScore>
0.0000

> <Gold.PLP.Chemscore.Metal>
0.0000

> <Gold.Chemscore.Hbonds>
donor molecule, donor type, donor heavy atom, donor atom, acceptor molecule, acceptor atom, score
      L1  H     8    29       P1  7948  1.00
      L1  H    11    30       P1  7948  1.00
      P1  H  7989  7998       L1    16  1.00

> <Gold.PLP.Chemscore.Internal.Correction>
0.2588

> <Gold.Rescore>
     Score         DG    S(hbond)    S(metal)    S(lipo)     H(rot)  DE(clash)    DE(int)     intcor
     20.89     -22.49       2.86        0.00      85.75       1.00       0.11       1.49       ----

> <Gold.Chemscore.Fitness>
20.8877

> <Gold.Chemscore.DG>
-22.4923

> <Gold.Chemscore.ZeroCoef>
-5.4800

> <Gold.Chemscore.Hbond>
2.8560

> <Gold.Chemscore.Metal>
0.0000

> <Gold.Chemscore.Lipo>
85.7541

> <Gold.Chemscore.Internal_Hbond>
0.0000

> <Gold.Chemscore.DEClash>
0.1129

> <Gold.Chemscore.DEInternal>
1.4917

> <Gold.Chemscore.Rot>
1.0000

> <Gold.Chemscore.Internal.Correction>
   9.000000E+99

> <Gold.Chemscore.Hbonds>
donor molecule, donor type, donor heavy atom, donor atom, acceptor molecule, acceptor atom, score
      L1  H     8    29       P1  7948  0.98
      L1  H    11    30       P1  7948  0.98
      P1  H  7989  7998       L1    16  0.74

> <Gold.Chemscore.Hbond.Weighted>
-9.5391

> <Gold.Chemscore.Metal.Weighted>
-0.0000

> <Gold.Chemscore.Lipo.Weighted>
-10.0332

> <Gold.Chemscore.Internal_Hbond.Weighted>
0.0000

> <Gold.Chemscore.DEClash.Weighted>
0.1129

> <Gold.Chemscore.DEInternal.Weighted>
1.4917

> <Gold.Chemscore.Rot.Weighted>
2.5600

> <Gold.Chemscore.Internal.Correction.Weighted>
   9.000000E+99

> <Gold.Protein.RotatedTorsions>
[ 6907 6896 6895 6894 ] final   -2.53 input  -60.11 | X-H torsion
[ 7974 7965 7964 7962 ] final -158.93 input  175.53 | X-H torsion
[ 8008 7997 7996 7995 ] final  -75.40 input   59.86 | X-H torsion
[ 10167 10162 10161 10158 ] final   55.44 input  -65.29 | X-H torsion
[ 10718 10713 10712 10709 ] final  125.21 input   66.30 | X-H torsion
[ 10763 10752 10751 10750 ] final  157.00 input  -60.55 | X-H torsion
[ 11005 11000 10999 10996 ] final  139.62 input  -57.11 | X-H torsion

> <Gold.Protein.ActiveResidues>
 VAL166  LYS551  ARG553  GLY616  TRP617  ASP618  TYR619  PRO620  LYS621  CYS622 
 ASP623  PHE694  ASN695  SER759  ASP760  ASP761  ALA762  ILE779  LEU786  VAL792 
 PHE793  MET794  SER795  GLU796  ALA797  LYS798  CYS799  TRP800  GLU811  SER814 

> <Gold.Protein.RotatedAtoms>
  151.5285  135.1068  159.9896 H   0  0  0  0  0  0  0  0  0  0  0  0  # atno 6907 bound_to 6896
  152.4589  133.7776  159.6844 H   0  0  0  0  0  0  0  0  0  0  0  0  # atno 6908 bound_to 6896
  150.8543  133.7674  159.3039 H   0  0  0  0  0  0  0  0  0  0  0  0  # atno 6909 bound_to 6896
  144.7485  140.3758  143.6066 H   0  0  0  0  0  0  0  0  0  0  0  0  # atno 7974 bound_to 7965
  154.5413  140.0745  156.8515 H   0  0  0  0  0  0  0  0  0  0  0  0  # atno 8008 bound_to 7997
  155.3174  140.3394  155.4224 H   0  0  0  0  0  0  0  0  0  0  0  0  # atno 8009 bound_to 7997
  156.1877  140.1675  156.8139 H   0  0  0  0  0  0  0  0  0  0  0  0  # atno 8010 bound_to 7997
  140.2194  144.3805  150.6457 H   0  0  0  0  0  0  0  0  0  0  0  0  # atno 10167 bound_to 10162
  157.5521  131.1093  150.8683 H   0  0  0  0  0  0  0  0  0  0  0  0  # atno 10718 bound_to 10713
  154.1934  135.2794  155.3015 H   0  0  0  0  0  0  0  0  0  0  0  0  # atno 10763 bound_to 10752
  154.5911  135.5559  153.7283 H   0  0  0  0  0  0  0  0  0  0  0  0  # atno 10764 bound_to 10752
  153.0106  135.6368  154.2072 H   0  0  0  0  0  0  0  0  0  0  0  0  # atno 10765 bound_to 10752
  140.0268  134.9371  157.0584 H   0  0  0  0  0  0  0  0  0  0  0  0  # atno 11005 bound_to 11000
  145.7030  139.1666  143.2582 LP  0  0  0  0  0  0  0  0  0  0  0  0  # atno 17320 bound_to 7965
  146.1402  140.7068  142.9370 LP  0  0  0  0  0  0  0  0  0  0  0  0  # atno 17321 bound_to 7965
  140.6266  143.2182  151.6583 LP  0  0  0  0  0  0  0  0  0  0  0  0  # atno 17342 bound_to 10162
  139.5150  144.3393  152.0755 LP  0  0  0  0  0  0  0  0  0  0  0  0  # atno 17343 bound_to 10162
  156.9205  130.5313  149.5279 LP  0  0  0  0  0  0  0  0  0  0  0  0  # atno 17370 bound_to 10713
  156.0586  130.5643  150.9145 LP  0  0  0  0  0  0  0  0  0  0  0  0  # atno 17371 bound_to 10713
  140.4293  134.1797  155.7167 LP  0  0  0  0  0  0  0  0  0  0  0  0  # atno 17394 bound_to 11000
  141.1807  133.8419  157.1267 LP  0  0  0  0  0  0  0  0  0  0  0  0  # atno 17395 bound_to 11000

$$$$
