AV-unprocessed.smi:2364|AV-procd|sdf|9418|dock9
  -GOLD-   2272013 53D 1   1.00000     0.00000
 Structure written by MMmdl.
 46 47  0  0  0  0  0  0  0  0  1 V2000
  150.0685  141.5719  155.5249 C   0  0  0  0  0  0  0  0  0  0  0  0
  151.2059  140.5354  155.4840 C   0  0  0  0  0  0  0  0  0  0  0  0
  150.7817  139.0481  155.6508 C   0  0  2  0  0  0  0  0  0  0  0  0
  152.0364  138.1487  155.5980 C   0  0  0  0  0  0  0  0  0  0  0  0
  149.8248  138.6668  154.4887 C   0  0  0  0  0  0  0  0  0  0  0  0
  149.4969  137.2906  154.4910 O   0  0  0  0  0  0  0  0  0  0  0  0
  150.1316  138.8236  156.9511 N   0  0  0  0  0  0  0  0  0  0  0  0
  149.7656  137.6588  157.5134 C   0  0  0  0  0  0  0  0  0  0  0  0
  149.9192  136.5588  156.9820 O   0  0  0  0  0  0  0  0  0  0  0  0
  149.2132  137.8627  158.7221 N   0  0  0  0  0  0  0  0  0  0  0  0
  148.6875  136.8989  159.6218 C   0  0  0  0  0  0  0  0  0  0  0  0
  148.9660  135.5798  159.4210 N   0  0  0  0  0  0  0  0  0  0  0  0
  148.3117  135.0676  160.4551 C   0  0  0  0  0  0  0  0  0  0  0  0
  147.6590  135.9698  161.1999 N   0  0  0  0  0  0  0  0  0  0  0  0
  146.9123  135.8202  162.4530 C   0  0  0  0  0  0  0  0  0  0  0  0
  146.9711  134.3760  163.0039 C   0  0  0  0  0  0  0  0  0  0  0  0
  146.2066  133.3845  162.1068 C   0  0  0  0  0  0  0  0  0  0  0  0
  144.7422  133.8172  161.9268 C   0  0  0  0  0  0  0  0  0  0  0  0
  144.6381  135.2640  161.4159 C   0  0  0  0  0  0  0  0  0  0  0  0
  145.4239  136.2302  162.3223 C   0  0  0  0  0  0  0  0  0  0  0  0
  147.9381  137.1941  160.6852 N   0  0  0  0  0  0  0  0  0  0  0  0
  150.4652  142.5757  155.3727 H   0  0  0  0  0  0  0  0  0  0  0  0
  149.5526  141.5721  156.4845 H   0  0  0  0  0  0  0  0  0  0  0  0
  149.3291  141.3953  154.7439 H   0  0  0  0  0  0  0  0  0  0  0  0
  151.7419  140.6618  154.5431 H   0  0  0  0  0  0  0  0  0  0  0  0
  151.9319  140.7885  156.2577 H   0  0  0  0  0  0  0  0  0  0  0  0
  152.5763  138.2757  154.6592 H   0  0  0  0  0  0  0  0  0  0  0  0
  151.7813  137.0923  155.6865 H   0  0  0  0  0  0  0  0  0  0  0  0
  152.7304  138.3697  156.4085 H   0  0  0  0  0  0  0  0  0  0  0  0
  148.9001  139.2425  154.5253 H   0  0  0  0  0  0  0  0  0  0  0  0
  150.2889  138.8996  153.5298 H   0  0  0  0  0  0  0  0  0  0  0  0
  149.1282  137.0692  153.6497 H   0  0  0  0  0  0  0  0  0  0  0  0
  149.9555  139.6584  157.4905 H   0  0  0  0  0  0  0  0  0  0  0  0
  149.1595  138.8204  159.0354 H   0  0  0  0  0  0  0  0  0  0  0  0
  148.3135  134.0091  160.6676 H   0  0  0  0  0  0  0  0  0  0  0  0
  147.3885  136.4835  163.1760 H   0  0  0  0  0  0  0  0  0  0  0  0
  148.0026  134.0497  163.1342 H   0  0  0  0  0  0  0  0  0  0  0  0
  146.5331  134.3584  164.0028 H   0  0  0  0  0  0  0  0  0  0  0  0
  146.6893  133.3118  161.1318 H   0  0  0  0  0  0  0  0  0  0  0  0
  146.2451  132.3858  162.5422 H   0  0  0  0  0  0  0  0  0  0  0  0
  144.2359  133.1413  161.2373 H   0  0  0  0  0  0  0  0  0  0  0  0
  144.2205  133.7320  162.8808 H   0  0  0  0  0  0  0  0  0  0  0  0
  145.0145  135.3209  160.3940 H   0  0  0  0  0  0  0  0  0  0  0  0
  143.5913  135.5659  161.3732 H   0  0  0  0  0  0  0  0  0  0  0  0
  144.9677  136.2359  163.3130 H   0  0  0  0  0  0  0  0  0  0  0  0
  145.3280  137.2521  161.9541 H   0  0  0  0  0  0  0  0  0  0  0  0
  1  2  1  0  0  0  0
  1 22  1  0  0  0  0
  1 23  1  0  0  0  0
  1 24  1  0  0  0  0
  2  3  1  0  0  0  0
  2 25  1  0  0  0  0
  2 26  1  0  0  0  0
  3  4  1  0  0  0  0
  3  5  1  0  0  0  0
  3  7  1  0  0  0  0
  4 27  1  0  0  0  0
  4 28  1  0  0  0  0
  4 29  1  0  0  0  0
  5  6  1  0  0  0  0
  5 30  1  0  0  0  0
  5 31  1  0  0  0  0
  6 32  1  0  0  0  0
  7  8  1  0  0  0  0
  7 33  1  0  0  0  0
  8  9  2  0  0  0  0
  8 10  1  0  0  0  0
 10 11  1  0  0  0  0
 10 34  1  0  0  0  0
 11 21  2  0  0  0  0
 11 12  1  0  0  0  0
 12 13  2  0  0  0  0
 13 14  1  0  0  0  0
 13 35  1  0  0  0  0
 14 15  1  0  0  0  0
 14 21  1  0  0  0  0
 15 20  1  0  0  0  0
 15 16  1  0  0  0  0
 15 36  1  0  0  0  0
 16 17  1  0  0  0  0
 16 37  1  0  0  0  0
 16 38  1  0  0  0  0
 17 18  1  0  0  0  0
 17 39  1  0  0  0  0
 17 40  1  0  0  0  0
 18 19  1  0  0  0  0
 18 41  1  0  0  0  0
 18 42  1  0  0  0  0
 19 20  1  0  0  0  0
 19 43  1  0  0  0  0
 19 44  1  0  0  0  0
 20 45  1  0  0  0  0
 20 46  1  0  0  0  0
M  END
> <s_m_source_file>
AV-unprocessed.smi

> <i_m_source_file_index>
2364

> <i_lp_mmshare_version>
43012

> <i_f3d_flags>
0

> <s_epik_input>
W0NIM11bQ0gyXVtDQEBdKFtDSDNdKShbQ0gyXVtPSF0pW05IXUMoPU8pW05IXWMxbltjSF1uKG4xKVtDSF0yW0NIMl1bQ0gyXVtDSDJdW0NIMl1bQ0gyXTI=

> <s_epik_cmdline>
J2VwaWtfcHl0aG9uJywgJy1waCcsICc3LjAnLCAnLXRuJywgJzgnLCAnLW1hJywgJzIwMCcsICctbWV0YWxfYmluZGluZycsICctaW1hZScsICc8aW5maWxlLm1hZT4nLCAnLW9tYWUnLCAnPG91dGZpbGUubWFlPic=

> <r_lp_tautomer_probability>
1

> <r_epik_Ionization_Penalty>
9.31261e-05

> <r_epik_Ionization_Penalty_Charging>
0

> <r_epik_Ionization_Penalty_Neutral>
9.31261e-05

> <r_epik_State_Penalty>
-0

> <r_epik_Charging_Adjusted_Penalty>
0

> <i_epik_Tot_Q>
0

> <i_epik_Tot_abs_Q>
0

> <r_epik_Metal_State_Penalty>
-0

> <b_epik_Metal_Only>
0

> <s_lp_Force_Field>
OPLS_2005

> <r_lp_Energy>
24.8913

> <b_lp_Chiralities_Consistent>
1

> <s_lp_Variant>
AV-unprocessed.smi:2364-2

> <Gold.Version>
5.8.1

> <Gold.Id.Protein>
6NUR|6NUR_protein|mol2

> <Gold.PLP.Fitness>
44.2060

> <Gold.PLP.PLP>
-33.8942

> <Gold.PLP.part.hbond>
-4.0000

> <Gold.PLP.part.metal>
0.0000

> <Gold.PLP.part.buried>
-1.6598

> <Gold.PLP.part.nonpolar>
-29.0552

> <Gold.PLP.part.repulsive>
0.1920

> <Gold.PLP.ligand.clash>
0.0000

> <Gold.PLP.ligand.torsion>
0.2584

> <Gold.PLP.Chemscore.Hbond>
3.5750

> <Gold.PLP.Chemscore.CHOScore>
0.0000

> <Gold.PLP.Chemscore.Metal>
0.0000

> <Gold.Chemscore.Hbonds>
donor molecule, donor type, donor heavy atom, donor atom, acceptor molecule, acceptor atom, score
      L1  H     6    32       P1  7948  1.00
      P1  H  6896  6908       L1    12  1.00
      P1  H  6931  6943       L1    21  0.82
      P1  H  6934  6947       L1    21  0.78

> <Gold.PLP.Chemscore.Internal.Correction>
0.1035

> <Gold.Rescore>
     Score         DG    S(hbond)    S(metal)    S(lipo)     H(rot)  DE(clash)    DE(int)     intcor
     11.67     -16.69       2.51        0.00      75.26       2.34       0.38       4.65       ----

> <Gold.Chemscore.Fitness>
11.6657

> <Gold.Chemscore.DG>
-16.6916

> <Gold.Chemscore.ZeroCoef>
-5.4800

> <Gold.Chemscore.Hbond>
2.5105

> <Gold.Chemscore.Metal>
0.0000

> <Gold.Chemscore.Lipo>
75.2579

> <Gold.Chemscore.Internal_Hbond>
0.0000

> <Gold.Chemscore.DEClash>
0.3763

> <Gold.Chemscore.DEInternal>
4.6497

> <Gold.Chemscore.Rot>
2.3354

> <Gold.Chemscore.Internal.Correction>
   9.000000E+99

> <Gold.Chemscore.Hbonds>
donor molecule, donor type, donor heavy atom, donor atom, acceptor molecule, acceptor atom, score
      L1  H     6    32       P1  7948  0.97
      P1  H  6896  6908       L1    12  0.31
      P1  H  6931  6943       L1    21  0.40
      P1  H  6934  6947       L1    21  0.76

> <Gold.Chemscore.Hbond.Weighted>
-8.3851

> <Gold.Chemscore.Metal.Weighted>
-0.0000

> <Gold.Chemscore.Lipo.Weighted>
-8.8052

> <Gold.Chemscore.Internal_Hbond.Weighted>
0.0000

> <Gold.Chemscore.DEClash.Weighted>
0.3763

> <Gold.Chemscore.DEInternal.Weighted>
4.6497

> <Gold.Chemscore.Rot.Weighted>
5.9787

> <Gold.Chemscore.Internal.Correction.Weighted>
   9.000000E+99

> <Gold.Protein.RotatedTorsions>
[ 6907 6896 6895 6894 ] final -167.71 input  -60.11 | X-H torsion
[ 7974 7965 7964 7962 ] final  -44.92 input  175.53 | X-H torsion
[ 8008 7997 7996 7995 ] final -161.10 input   59.86 | X-H torsion
[ 10167 10162 10161 10158 ] final  122.83 input  -65.29 | X-H torsion
[ 10718 10713 10712 10709 ] final   -4.60 input   66.30 | X-H torsion
[ 10763 10752 10751 10750 ] final  164.66 input  -60.55 | X-H torsion
[ 11005 11000 10999 10996 ] final -174.07 input  -57.11 | X-H torsion

> <Gold.Protein.ActiveResidues>
 VAL166  LYS551  ARG553  GLY616  TRP617  ASP618  TYR619  PRO620  LYS621  CYS622 
 ASP623  PHE694  ASN695  SER759  ASP760  ASP761  ALA762  ILE779  LEU786  VAL792 
 PHE793  MET794  SER795  GLU796  ALA797  LYS798  CYS799  TRP800  GLU811  SER814 

> <Gold.Protein.RotatedAtoms>
  151.4639  133.3586  159.2813 H   0  0  0  0  0  0  0  0  0  0  0  0  # atno 6907 bound_to 6896
  150.9006  134.8420  159.7368 H   0  0  0  0  0  0  0  0  0  0  0  0  # atno 6908 bound_to 6896
  152.4877  134.4559  159.9641 H   0  0  0  0  0  0  0  0  0  0  0  0  # atno 6909 bound_to 6896
  145.9872  140.7220  142.9334 H   0  0  0  0  0  0  0  0  0  0  0  0  # atno 7974 bound_to 7965
  155.7872  140.0873  157.2028 H   0  0  0  0  0  0  0  0  0  0  0  0  # atno 8008 bound_to 7997
  154.3987  140.1497  156.3178 H   0  0  0  0  0  0  0  0  0  0  0  0  # atno 8009 bound_to 7997
  155.8595  140.3431  155.5749 H   0  0  0  0  0  0  0  0  0  0  0  0  # atno 8010 bound_to 7997
  139.5835  144.6996  151.3467 H   0  0  0  0  0  0  0  0  0  0  0  0  # atno 10167 bound_to 10162
  156.7589  130.5263  149.5789 H   0  0  0  0  0  0  0  0  0  0  0  0  # atno 10718 bound_to 10713
  154.3122  135.2757  155.2560 H   0  0  0  0  0  0  0  0  0  0  0  0  # atno 10763 bound_to 10752
  154.4950  135.5823  153.6491 H   0  0  0  0  0  0  0  0  0  0  0  0  # atno 10764 bound_to 10752
  152.9886  135.6144  154.3301 H   0  0  0  0  0  0  0  0  0  0  0  0  # atno 10765 bound_to 10752
  140.4787  134.6096  157.4911 H   0  0  0  0  0  0  0  0  0  0  0  0  # atno 11005 bound_to 11000
  144.6878  140.3008  143.7263 LP  0  0  0  0  0  0  0  0  0  0  0  0  # atno 17320 bound_to 7965
  145.7683  139.1848  143.2227 LP  0  0  0  0  0  0  0  0  0  0  0  0  # atno 17321 bound_to 7965
  140.7110  143.7389  150.7568 LP  0  0  0  0  0  0  0  0  0  0  0  0  # atno 17342 bound_to 10162
  140.0928  143.4861  152.2469 LP  0  0  0  0  0  0  0  0  0  0  0  0  # atno 17343 bound_to 10162
  156.1352  130.6206  151.0390 LP  0  0  0  0  0  0  0  0  0  0  0  0  # atno 17370 bound_to 10713
  157.6744  131.0854  150.7532 LP  0  0  0  0  0  0  0  0  0  0  0  0  # atno 17371 bound_to 10713
  139.9840  134.7091  155.9808 LP  0  0  0  0  0  0  0  0  0  0  0  0  # atno 17394 bound_to 11000
  141.1542  133.6545  156.4108 LP  0  0  0  0  0  0  0  0  0  0  0  0  # atno 17395 bound_to 11000

$$$$
