AV-unprocessed.smi:2446|AV-procd|sdf|9645|dock1
  -GOLD-   2272013273D 1   1.00000     0.00000
 Structure written by MMmdl.
 40 41  0  0  0  0  0  0  0  0  2 V2000
  141.8974  137.7594  152.7466 C   0  0  0  0  0  0  0  0  0  0  0  0
  142.7973  136.7026  153.3642 C   0  0  0  0  0  0  0  0  0  0  0  0
  142.4919  135.3365  153.1798 C   0  0  0  0  0  0  0  0  0  0  0  0
  143.2840  134.3860  153.7187 N   0  3  0  0  0  0  0  0  0  0  0  0
  144.3864  134.6777  154.4396 C   0  0  0  0  0  0  0  0  0  0  0  0
  144.7467  136.0218  154.6605 C   0  0  0  0  0  0  0  0  0  0  0  0
  143.9375  137.0590  154.1295 C   0  0  0  0  0  0  0  0  0  0  0  0
  144.2375  138.4407  154.2926 N   0  0  0  0  0  0  0  0  0  0  0  0
  144.9918  139.0413  155.2338 C   0  0  0  0  0  0  0  0  0  0  0  0
  145.6014  138.4524  156.1236 O   0  0  0  0  0  0  0  0  0  0  0  0
  145.0264  140.3831  155.1389 N   0  0  0  0  0  0  0  0  0  0  0  0
  145.7392  141.3450  155.9869 C   0  0  2  0  0  0  0  0  0  0  0  0
  145.8837  142.6919  155.2530 C   0  0  0  0  0  0  0  0  0  0  0  0
  146.8832  142.6139  154.0865 C   0  0  0  0  0  0  0  0  0  0  0  0
  148.2496  142.0882  154.5529 C   0  0  0  0  0  0  0  0  0  0  0  0
  148.1252  140.7170  155.2493 C   0  0  1  0  0  0  0  0  0  0  0  0
  149.4944  140.1713  155.7041 C   0  0  0  0  0  0  0  0  0  0  0  0
  150.1340  141.0643  156.4600 F   0  0  0  0  0  0  0  0  0  0  0  0
  149.3270  139.0516  156.4079 F   0  0  0  0  0  0  0  0  0  0  0  0
  150.2482  139.8859  154.6424 F   0  0  0  0  0  0  0  0  0  0  0  0
  147.1218  140.8076  156.4215 C   0  0  0  0  0  0  0  0  0  0  0  0
  141.0980  137.3052  152.1603 H   0  0  0  0  0  0  0  0  0  0  0  0
  142.4698  138.4116  152.0862 H   0  0  0  0  0  0  0  0  0  0  0  0
  141.4391  138.3704  153.5246 H   0  0  0  0  0  0  0  0  0  0  0  0
  141.6423  134.9754  152.6184 H   0  0  0  0  0  0  0  0  0  0  0  0
  144.9477  133.8329  154.8115 H   0  0  0  0  0  0  0  0  0  0  0  0
  145.6443  136.2281  155.2226 H   0  0  0  0  0  0  0  0  0  0  0  0
  143.7470  139.0631  153.6672 H   0  0  0  0  0  0  0  0  0  0  0  0
  144.5052  140.7867  154.3735 H   0  0  0  0  0  0  0  0  0  0  0  0
  145.1390  141.5295  156.8794 H   0  0  0  0  0  0  0  0  0  0  0  0
  144.9125  143.0326  154.8915 H   0  0  0  0  0  0  0  0  0  0  0  0
  146.2242  143.4489  155.9607 H   0  0  0  0  0  0  0  0  0  0  0  0
  146.4894  141.9646  153.3037 H   0  0  0  0  0  0  0  0  0  0  0  0
  147.0007  143.5997  153.6356 H   0  0  0  0  0  0  0  0  0  0  0  0
  148.9182  142.0136  153.6947 H   0  0  0  0  0  0  0  0  0  0  0  0
  148.7031  142.8098  155.2337 H   0  0  0  0  0  0  0  0  0  0  0  0
  147.7257  140.0110  154.5196 H   0  0  0  0  0  0  0  0  0  0  0  0
  147.5283  141.4672  157.1889 H   0  0  0  0  0  0  0  0  0  0  0  0
  147.0138  139.8326  156.8964 H   0  0  0  0  0  0  0  0  0  0  0  0
  143.0423  133.4059  153.5702 H   0  0  0  0  0  0  0  0  0  0  0  0
  1  2  1  0  0  0  0
  1 22  1  0  0  0  0
  1 23  1  0  0  0  0
  1 24  1  0  0  0  0
  2  7  1  0  0  0  0
  2  3  2  0  0  0  0
  3  4  1  0  0  0  0
  3 25  1  0  0  0  0
  4  5  2  0  0  0  0
  4 40  1  0  0  0  0
  5  6  1  0  0  0  0
  5 26  1  0  0  0  0
  6  7  2  0  0  0  0
  6 27  1  0  0  0  0
  7  8  1  0  0  0  0
  8  9  1  0  0  0  0
  8 28  1  0  0  0  0
  9 10  2  0  0  0  0
  9 11  1  0  0  0  0
 11 12  1  0  0  0  0
 11 29  1  0  0  0  0
 12 21  1  0  0  0  0
 12 13  1  0  0  0  0
 12 30  1  0  0  0  0
 13 14  1  0  0  0  0
 13 31  1  0  0  0  0
 13 32  1  0  0  0  0
 14 15  1  0  0  0  0
 14 33  1  0  0  0  0
 14 34  1  0  0  0  0
 15 16  1  0  0  0  0
 15 35  1  0  0  0  0
 15 36  1  0  0  0  0
 16 17  1  0  0  0  0
 16 21  1  0  0  0  0
 16 37  1  0  0  0  0
 17 18  1  0  0  0  0
 17 19  1  0  0  0  0
 17 20  1  0  0  0  0
 21 38  1  0  0  0  0
 21 39  1  0  0  0  0
M  CHG  1   4   1
M  END
> <s_m_source_file>
AV-unprocessed.smi

> <i_m_source_file_index>
2446

> <i_lp_mmshare_version>
43012

> <i_f3d_flags>
0

> <s_epik_input>
W0NIM11jMVtjSF1uW2NIXVtjSF1jMVtOSF1DKD1PKVtOSF1bQ0BASF0yW0NIMl1bQ0gyXVtDSDJdW0NAQEhdKEMoRikoRilGKVtDSDJdMg==

> <s_epik_cmdline>
J2VwaWtfcHl0aG9uJywgJy1waCcsICc3LjAnLCAnLXRuJywgJzgnLCAnLW1hJywgJzIwMCcsICctbWV0YWxfYmluZGluZycsICctaW1hZScsICc8aW5maWxlLm1hZT4nLCAnLW9tYWUnLCAnPG91dGZpbGUubWFlPic=

> <r_epik_Ionization_Penalty>
0.736582

> <r_epik_Ionization_Penalty_Charging>
0.736562

> <r_epik_Ionization_Penalty_Neutral>
1.98379e-05

> <r_epik_State_Penalty>
0.762314

> <r_epik_Charging_Adjusted_Penalty>
1.49888

> <i_epik_Tot_Q>
1

> <i_epik_Tot_abs_Q>
1

> <r_epik_Metal_State_Penalty>
0.914579

> <b_epik_Metal_Only>
0

> <s_lp_Force_Field>
OPLS_2005

> <r_lp_Energy>
31.0639

> <b_lp_Chiralities_Consistent>
1

> <s_lp_Variant>
AV-unprocessed.smi:2446-5

> <Gold.Version>
5.8.1

> <Gold.Id.Protein>
6NUR|6NUR_protein|mol2

> <Gold.PLP.Fitness>
37.7840

> <Gold.PLP.PLP>
-26.8461

> <Gold.PLP.part.hbond>
-3.9254

> <Gold.PLP.part.metal>
0.0000

> <Gold.PLP.part.buried>
-2.0040

> <Gold.PLP.part.nonpolar>
-20.5479

> <Gold.PLP.part.repulsive>
0.0448

> <Gold.PLP.ligand.clash>
0.0000

> <Gold.PLP.ligand.torsion>
0.5059

> <Gold.PLP.Chemscore.Hbond>
3.9760

> <Gold.PLP.Chemscore.CHOScore>
0.0000

> <Gold.PLP.Chemscore.Metal>
0.0000

> <Gold.Chemscore.Hbonds>
donor molecule, donor type, donor heavy atom, donor atom, acceptor molecule, acceptor atom, score
      L1  H     4    40       P1 10957  1.32
      L1  H     8    28       P1 10175  1.00
      L1  H    11    29       P1 10175  0.84

> <Gold.PLP.Chemscore.Internal.Correction>
0.0217

> <Gold.Rescore>
     Score         DG    S(hbond)    S(metal)    S(lipo)     H(rot)  DE(clash)    DE(int)     intcor
     13.66     -18.37       2.90        0.00      49.15       1.00       1.40       3.31       ----

> <Gold.Chemscore.Fitness>
13.6644

> <Gold.Chemscore.DG>
-18.3724

> <Gold.Chemscore.ZeroCoef>
-5.4800

> <Gold.Chemscore.Hbond>
2.9048

> <Gold.Chemscore.Metal>
0.0000

> <Gold.Chemscore.Lipo>
49.1496

> <Gold.Chemscore.Internal_Hbond>
0.0000

> <Gold.Chemscore.DEClash>
1.4030

> <Gold.Chemscore.DEInternal>
3.3051

> <Gold.Chemscore.Rot>
1.0000

> <Gold.Chemscore.Internal.Correction>
   9.000000E+99

> <Gold.Chemscore.Hbonds>
donor molecule, donor type, donor heavy atom, donor atom, acceptor molecule, acceptor atom, score
      L1  H     4    40       P1 10957  0.62
      L1  H     8    28       P1 10175  0.98
      L1  H    11    29       P1 10175  0.78

> <Gold.Chemscore.Hbond.Weighted>
-9.7019

> <Gold.Chemscore.Metal.Weighted>
-0.0000

> <Gold.Chemscore.Lipo.Weighted>
-5.7505

> <Gold.Chemscore.Internal_Hbond.Weighted>
0.0000

> <Gold.Chemscore.DEClash.Weighted>
1.4030

> <Gold.Chemscore.DEInternal.Weighted>
3.3051

> <Gold.Chemscore.Rot.Weighted>
2.5600

> <Gold.Chemscore.Internal.Correction.Weighted>
   9.000000E+99

> <Gold.Protein.RotatedTorsions>
[ 6907 6896 6895 6894 ] final  145.93 input  -60.11 | X-H torsion
[ 7974 7965 7964 7962 ] final -109.91 input  175.53 | X-H torsion
[ 8008 7997 7996 7995 ] final -160.39 input   59.86 | X-H torsion
[ 10167 10162 10161 10158 ] final   -8.78 input  -65.29 | X-H torsion
[ 10718 10713 10712 10709 ] final  -20.81 input   66.30 | X-H torsion
[ 10763 10752 10751 10750 ] final   79.97 input  -60.55 | X-H torsion
[ 11005 11000 10999 10996 ] final   12.24 input  -57.11 | X-H torsion

> <Gold.Protein.ActiveResidues>
 VAL166  LYS551  ARG553  GLY616  TRP617  ASP618  TYR619  PRO620  LYS621  CYS622 
 ASP623  PHE694  ASN695  SER759  ASP760  ASP761  ALA762  ILE779  LEU786  VAL792 
 PHE793  MET794  SER795  GLU796  ALA797  LYS798  CYS799  TRP800  GLU811  SER814 

> <Gold.Protein.RotatedAtoms>
  152.1745  133.4666  159.4926 H   0  0  0  0  0  0  0  0  0  0  0  0  # atno 6907 bound_to 6896
  150.6925  134.1911  159.4294 H   0  0  0  0  0  0  0  0  0  0  0  0  # atno 6908 bound_to 6896
  151.9819  135.0024  160.0608 H   0  0  0  0  0  0  0  0  0  0  0  0  # atno 6909 bound_to 6896
  145.1747  140.8942  143.3515 H   0  0  0  0  0  0  0  0  0  0  0  0  # atno 7974 bound_to 7965
  155.7767  140.0859  157.2080 H   0  0  0  0  0  0  0  0  0  0  0  0  # atno 8008 bound_to 7997
  154.3992  140.1515  156.3062 H   0  0  0  0  0  0  0  0  0  0  0  0  # atno 8009 bound_to 7997
  155.8694  140.3426  155.5813 H   0  0  0  0  0  0  0  0  0  0  0  0  # atno 8010 bound_to 7997
  140.7069  143.5930  150.8874 H   0  0  0  0  0  0  0  0  0  0  0  0  # atno 10167 bound_to 10162
  156.5267  130.4645  149.6568 H   0  0  0  0  0  0  0  0  0  0  0  0  # atno 10718 bound_to 10713
  153.0996  135.4820  154.8842 H   0  0  0  0  0  0  0  0  0  0  0  0  # atno 10763 bound_to 10752
  154.7363  135.3072  154.8807 H   0  0  0  0  0  0  0  0  0  0  0  0  # atno 10764 bound_to 10752
  153.9428  135.6832  153.4797 H   0  0  0  0  0  0  0  0  0  0  0  0  # atno 10765 bound_to 10752
  140.4941  134.0810  155.7778 H   0  0  0  0  0  0  0  0  0  0  0  0  # atno 11005 bound_to 11000
  145.0197  139.3435  143.6078 LP  0  0  0  0  0  0  0  0  0  0  0  0  # atno 17320 bound_to 7965
  146.3463  139.9493  142.8731 LP  0  0  0  0  0  0  0  0  0  0  0  0  # atno 17321 bound_to 7965
  139.9655  143.6115  152.2989 LP  0  0  0  0  0  0  0  0  0  0  0  0  # atno 17342 bound_to 10162
  139.6683  144.7661  151.1831 LP  0  0  0  0  0  0  0  0  0  0  0  0  # atno 17343 bound_to 10162
  156.3098  130.7223  151.2113 LP  0  0  0  0  0  0  0  0  0  0  0  0  # atno 17370 bound_to 10713
  157.7428  131.0484  150.4994 LP  0  0  0  0  0  0  0  0  0  0  0  0  # atno 17371 bound_to 10713
  141.1469  133.9039  157.2194 LP  0  0  0  0  0  0  0  0  0  0  0  0  # atno 17394 bound_to 11000
  139.9751  135.0116  156.9612 LP  0  0  0  0  0  0  0  0  0  0  0  0  # atno 17395 bound_to 11000

$$$$
