AV-unprocessed.smi:174|AV-procd|sdf|1427|dock2
  -GOLD-   2262019203D 1   1.00000     0.00000
 Structure written by MMmdl.
 51 54  0  0  0  0  0  0  0  0  1 V2000
  144.3960  140.3060  154.9905 N   0  0  0  0  0  0  0  0  0  0  0  0
  144.7644  139.1129  155.4620 C   0  0  0  0  0  0  0  0  0  0  0  0
  144.2909  138.0643  155.0269 O   0  0  0  0  0  0  0  0  0  0  0  0
  145.7975  139.1119  156.5979 C   0  0  0  0  0  0  0  0  0  0  0  0
  147.0038  139.8933  156.2880 N   0  0  0  0  0  0  0  0  0  0  0  0
  147.7112  139.5036  155.0575 C   0  0  0  0  0  0  0  0  0  0  0  0
  148.7179  140.5552  154.5619 C   0  0  0  0  0  0  0  0  0  0  0  0
  149.5004  141.0628  155.6811 N   0  0  0  0  0  0  0  0  0  0  0  0
  150.5579  140.2841  156.0333 C   0  0  0  0  0  0  0  0  0  0  0  0
  151.2763  139.6335  155.0785 N   0  0  0  0  0  0  0  0  0  0  0  0
  152.3265  138.8805  155.4173 C   0  0  0  0  0  0  0  0  0  0  0  0
  152.8260  138.6435  156.6315 N   0  0  0  0  0  0  0  0  0  0  0  0
  152.1098  139.2914  157.5940 C   0  0  0  0  0  0  0  0  0  0  0  0
  150.9735  140.1230  157.3849 C   0  0  0  0  0  0  0  0  0  0  0  0
  150.5047  140.5980  158.6046 N   0  0  0  0  0  0  0  0  0  0  0  0
  151.3167  140.0772  159.4836 C   0  0  0  0  0  0  0  0  0  0  0  0
  152.3069  139.2757  158.9635 N   0  0  0  0  0  0  0  0  0  0  0  0
  153.3260  138.5626  159.7113 C   0  0  0  0  0  0  0  0  0  0  0  0
  153.1414  137.0311  159.6694 C   0  0  2  0  0  0  0  0  0  0  0  0
  151.7775  136.7667  159.9302 O   0  0  0  0  0  0  0  0  0  0  0  0
  154.0097  136.2550  160.6852 C   0  0  1  0  0  0  0  0  0  0  0  0
  153.6773  136.5352  162.1537 C   0  0  0  0  0  0  0  0  0  0  0  0
  154.1228  135.2741  162.8800 C   0  0  0  0  0  0  0  0  0  0  0  0
  154.3626  134.2642  161.7563 C   0  0  0  0  0  0  0  0  0  0  0  0
  153.7678  134.8574  160.6132 O   0  0  0  0  0  0  0  0  0  0  0  0
  148.6980  141.6797  156.7445 C   0  0  0  0  0  0  0  0  0  0  0  0
  147.4244  140.8917  157.1074 C   0  0  0  0  0  0  0  0  0  0  0  0
  146.8271  141.2015  158.1387 O   0  0  0  0  0  0  0  0  0  0  0  0
  143.7224  140.3608  154.2405 H   0  0  0  0  0  0  0  0  0  0  0  0
  144.7932  141.1486  155.3800 H   0  0  0  0  0  0  0  0  0  0  0  0
  145.3348  139.4818  157.5150 H   0  0  0  0  0  0  0  0  0  0  0  0
  146.0719  138.0768  156.8061 H   0  0  0  0  0  0  0  0  0  0  0  0
  148.2366  138.5696  155.2613 H   0  0  0  0  0  0  0  0  0  0  0  0
  146.9927  139.2886  154.2652 H   0  0  0  0  0  0  0  0  0  0  0  0
  149.3388  140.1400  153.7683 H   0  0  0  0  0  0  0  0  0  0  0  0
  148.1820  141.3941  154.1157 H   0  0  0  0  0  0  0  0  0  0  0  0
  152.8396  138.3996  154.5977 H   0  0  0  0  0  0  0  0  0  0  0  0
  151.2105  140.2568  160.5435 H   0  0  0  0  0  0  0  0  0  0  0  0
  154.3045  138.8380  159.3154 H   0  0  0  0  0  0  0  0  0  0  0  0
  153.2983  138.9184  160.7422 H   0  0  0  0  0  0  0  0  0  0  0  0
  153.3575  136.6696  158.6633 H   0  0  0  0  0  0  0  0  0  0  0  0
  151.4926  137.3295  160.6340 H   0  0  0  0  0  0  0  0  0  0  0  0
  155.0695  136.4441  160.5026 H   0  0  0  0  0  0  0  0  0  0  0  0
  154.1670  137.4340  162.5295 H   0  0  0  0  0  0  0  0  0  0  0  0
  152.6010  136.6639  162.2782 H   0  0  0  0  0  0  0  0  0  0  0  0
  155.0344  135.4378  163.4556 H   0  0  0  0  0  0  0  0  0  0  0  0
  153.3475  134.9317  163.5664 H   0  0  0  0  0  0  0  0  0  0  0  0
  155.4307  134.1329  161.5765 H   0  0  0  0  0  0  0  0  0  0  0  0
  153.9286  133.2867  161.9669 H   0  0  0  0  0  0  0  0  0  0  0  0
  149.2887  141.8644  157.6431 H   0  0  0  0  0  0  0  0  0  0  0  0
  148.3866  142.6638  156.3933 H   0  0  0  0  0  0  0  0  0  0  0  0
  1  2  1  0  0  0  0
  1 29  1  0  0  0  0
  1 30  1  0  0  0  0
  2  3  2  0  0  0  0
  2  4  1  0  0  0  0
  4  5  1  0  0  0  0
  4 31  1  0  0  0  0
  4 32  1  0  0  0  0
  5 27  1  0  0  0  0
  5  6  1  0  0  0  0
  6  7  1  0  0  0  0
  6 33  1  0  0  0  0
  6 34  1  0  0  0  0
  7  8  1  0  0  0  0
  7 35  1  0  0  0  0
  7 36  1  0  0  0  0
  8  9  1  0  0  0  0
  8 26  1  0  0  0  0
  9 14  1  0  0  0  0
  9 10  2  0  0  0  0
 10 11  1  0  0  0  0
 11 12  2  0  0  0  0
 11 37  1  0  0  0  0
 12 13  1  0  0  0  0
 13 17  1  0  0  0  0
 13 14  2  0  0  0  0
 14 15  1  0  0  0  0
 15 16  2  0  0  0  0
 16 17  1  0  0  0  0
 16 38  1  0  0  0  0
 17 18  1  0  0  0  0
 18 19  1  0  0  0  0
 18 39  1  0  0  0  0
 18 40  1  0  0  0  0
 19 20  1  0  0  0  0
 19 21  1  0  0  0  0
 19 41  1  0  0  0  0
 20 42  1  0  0  0  0
 21 25  1  0  0  0  0
 21 22  1  0  0  0  0
 21 43  1  0  0  0  0
 22 23  1  0  0  0  0
 22 44  1  0  0  0  0
 22 45  1  0  0  0  0
 23 24  1  0  0  0  0
 23 46  1  0  0  0  0
 23 47  1  0  0  0  0
 24 25  1  0  0  0  0
 24 48  1  0  0  0  0
 24 49  1  0  0  0  0
 26 27  1  0  0  0  0
 26 50  1  0  0  0  0
 26 51  1  0  0  0  0
 27 28  2  0  0  0  0
M  END
> <s_m_source_file>
AV-unprocessed.smi

> <i_m_source_file_index>
174

> <i_lp_mmshare_version>
43012

> <i_f3d_flags>
0

> <s_epik_input>
W05IMl1DKD1PKVtDSDJdTjFbQ0gyXVtDSDJdTihbQ0gyXUMxPU8pYyhuW2NIXW4yKWMoYzIzKW5bY0hdbjNbQ0gyXVtDQEhdKFtPSF0pW0NAQEhdNFtDSDJdW0NIMl1bQ0gyXU80

> <s_epik_cmdline>
J2VwaWtfcHl0aG9uJywgJy1waCcsICc3LjAnLCAnLXRuJywgJzgnLCAnLW1hJywgJzIwMCcsICctbWV0YWxfYmluZGluZycsICctaW1hZScsICc8aW5maWxlLm1hZT4nLCAnLW9tYWUnLCAnPG91dGZpbGUubWFlPic=

> <r_lp_tautomer_probability>
1

> <r_epik_Ionization_Penalty>
0.000250477

> <r_epik_Ionization_Penalty_Charging>
0

> <r_epik_Ionization_Penalty_Neutral>
0.000250477

> <r_epik_State_Penalty>
-0

> <r_epik_Charging_Adjusted_Penalty>
0

> <i_epik_Tot_Q>
0

> <i_epik_Tot_abs_Q>
0

> <r_epik_Metal_State_Penalty>
-0

> <b_epik_Metal_Only>
0

> <s_lp_Force_Field>
OPLS_2005

> <r_lp_Energy>
34.8675

> <b_lp_Chiralities_Consistent>
1

> <s_lp_Variant>
AV-unprocessed.smi:174-3

> <Gold.Version>
5.8.1

> <Gold.Id.Protein>
6NUR|6NUR_protein|mol2

> <Gold.PLP.Fitness>
44.0047

> <Gold.PLP.PLP>
-33.1918

> <Gold.PLP.part.hbond>
-5.2707

> <Gold.PLP.part.metal>
0.0000

> <Gold.PLP.part.buried>
-4.8655

> <Gold.PLP.part.nonpolar>
-23.3592

> <Gold.PLP.part.repulsive>
0.2562

> <Gold.PLP.ligand.clash>
0.0000

> <Gold.PLP.ligand.torsion>
0.5994

> <Gold.PLP.Chemscore.Hbond>
3.8353

> <Gold.PLP.Chemscore.CHOScore>
0.0000

> <Gold.PLP.Chemscore.Metal>
0.0000

> <Gold.Chemscore.Hbonds>
donor molecule, donor type, donor heavy atom, donor atom, acceptor molecule, acceptor atom, score
      L1  H     1    29       P1 10175  0.83
      P1  H  6896  6908       L1    20  0.93
      P1  H  6896  6909       L1    25  0.56
      P1  H  7989  7998       L1    10  0.99
      P1  H  7997  8008       L1    12  0.02

> <Gold.PLP.Chemscore.Internal.Correction>
0.5057

> <Gold.Rescore>
     Score         DG    S(hbond)    S(metal)    S(lipo)     H(rot)  DE(clash)    DE(int)     intcor
     10.34     -12.44       3.20        0.00      53.53       3.90       0.09       2.02       ----

> <Gold.Chemscore.Fitness>
10.3364

> <Gold.Chemscore.DG>
-12.4398

> <Gold.Chemscore.ZeroCoef>
-5.4800

> <Gold.Chemscore.Hbond>
3.1970

> <Gold.Chemscore.Metal>
0.0000

> <Gold.Chemscore.Lipo>
53.5272

> <Gold.Chemscore.Internal_Hbond>
0.0000

> <Gold.Chemscore.DEClash>
0.0863

> <Gold.Chemscore.DEInternal>
2.0172

> <Gold.Chemscore.Rot>
3.8988

> <Gold.Chemscore.Internal.Correction>
   9.000000E+99

> <Gold.Chemscore.Hbonds>
donor molecule, donor type, donor heavy atom, donor atom, acceptor molecule, acceptor atom, score
      L1  H     1    29       P1 10175  0.81
      P1  H  6896  6908       L1    20  0.82
      P1  H  6896  6909       L1    25  0.54
      P1  H  7989  7998       L1    10  0.62

> <Gold.Chemscore.Hbond.Weighted>
-10.6779

> <Gold.Chemscore.Metal.Weighted>
-0.0000

> <Gold.Chemscore.Lipo.Weighted>
-6.2627

> <Gold.Chemscore.Internal_Hbond.Weighted>
0.0000

> <Gold.Chemscore.DEClash.Weighted>
0.0863

> <Gold.Chemscore.DEInternal.Weighted>
2.0172

> <Gold.Chemscore.Rot.Weighted>
9.9808

> <Gold.Chemscore.Internal.Correction.Weighted>
   9.000000E+99

> <Gold.Protein.RotatedTorsions>
[ 6907 6896 6895 6894 ] final -139.99 input  -60.11 | X-H torsion
[ 7974 7965 7964 7962 ] final -114.56 input  175.53 | X-H torsion
[ 8008 7997 7996 7995 ] final  -15.21 input   59.86 | X-H torsion
[ 10167 10162 10161 10158 ] final  131.98 input  -65.29 | X-H torsion
[ 10718 10713 10712 10709 ] final -129.81 input   66.30 | X-H torsion
[ 10763 10752 10751 10750 ] final -109.63 input  -60.55 | X-H torsion
[ 11005 11000 10999 10996 ] final  171.62 input  -57.11 | X-H torsion

> <Gold.Protein.ActiveResidues>
 VAL166  LYS551  ARG553  GLY616  TRP617  ASP618  TYR619  PRO620  LYS621  CYS622 
 ASP623  PHE694  ASN695  SER759  ASP760  ASP761  ALA762  ILE779  LEU786  VAL792 
 PHE793  MET794  SER795  GLU796  ALA797  LYS798  CYS799  TRP800  GLU811  SER814 

> <Gold.Protein.RotatedAtoms>
  151.0549  133.5593  159.2638 H   0  0  0  0  0  0  0  0  0  0  0  0  # atno 6907 bound_to 6896
  151.2590  135.0647  159.9101 H   0  0  0  0  0  0  0  0  0  0  0  0  # atno 6908 bound_to 6896
  152.5388  134.0297  159.8073 H   0  0  0  0  0  0  0  0  0  0  0  0  # atno 6909 bound_to 6896
  145.1187  140.8656  143.3826 H   0  0  0  0  0  0  0  0  0  0  0  0  # atno 7974 bound_to 7965
  154.5148  140.2202  155.9087 H   0  0  0  0  0  0  0  0  0  0  0  0  # atno 8008 bound_to 7997
  156.1595  140.3145  155.8748 H   0  0  0  0  0  0  0  0  0  0  0  0  # atno 8009 bound_to 7997
  155.3780  140.0470  157.3035 H   0  0  0  0  0  0  0  0  0  0  0  0  # atno 8010 bound_to 7997
  139.5359  144.6682  151.4786 H   0  0  0  0  0  0  0  0  0  0  0  0  # atno 10167 bound_to 10162
  156.2083  130.6902  151.0620 H   0  0  0  0  0  0  0  0  0  0  0  0  # atno 10718 bound_to 10713
  154.8203  135.4594  154.0761 H   0  0  0  0  0  0  0  0  0  0  0  0  # atno 10763 bound_to 10752
  153.2120  135.6883  153.8109 H   0  0  0  0  0  0  0  0  0  0  0  0  # atno 10764 bound_to 10752
  153.7557  135.3291  155.3305 H   0  0  0  0  0  0  0  0  0  0  0  0  # atno 10765 bound_to 10752
  140.3209  134.7438  157.4063 H   0  0  0  0  0  0  0  0  0  0  0  0  # atno 11005 bound_to 11000
  145.0764  139.2992  143.5806 LP  0  0  0  0  0  0  0  0  0  0  0  0  # atno 17320 bound_to 7965
  146.3522  140.0256  142.8655 LP  0  0  0  0  0  0  0  0  0  0  0  0  # atno 17321 bound_to 7965
  140.6566  143.8587  150.6841 LP  0  0  0  0  0  0  0  0  0  0  0  0  # atno 17342 bound_to 10162
  140.1968  143.3991  152.1822 LP  0  0  0  0  0  0  0  0  0  0  0  0  # atno 17343 bound_to 10162
  157.7024  131.0770  150.6776 LP  0  0  0  0  0  0  0  0  0  0  0  0  # atno 17370 bound_to 10713
  156.6835  130.4574  149.5621 LP  0  0  0  0  0  0  0  0  0  0  0  0  # atno 17371 bound_to 10713
  140.0942  134.5559  155.8414 LP  0  0  0  0  0  0  0  0  0  0  0  0  # atno 17394 bound_to 11000
  141.2087  133.6676  156.6386 LP  0  0  0  0  0  0  0  0  0  0  0  0  # atno 17395 bound_to 11000

$$$$
