AV-unprocessed.smi:862|AV-procd|sdf|3979|dock5
  -GOLD-   22720 1453D 1   1.00000     0.00000
 Structure written by MMmdl.
 44 46  0  0  0  0  0  0  0  0  2 V2000
  150.3474  137.7345  153.8843 N   0  0  0  0  0  0  0  0  0  0  0  0
  150.4833  137.2969  155.1398 C   0  0  0  0  0  0  0  0  0  0  0  0
  149.7248  136.4447  155.5982 O   0  0  0  0  0  0  0  0  0  0  0  0
  151.5269  137.8249  155.8283 N   0  0  0  0  0  0  0  0  0  0  0  0
  152.2782  139.0387  155.4674 C   0  0  0  0  0  0  0  0  0  0  0  0
  151.8504  140.1812  156.4065 C   0  0  0  0  0  0  0  0  0  0  0  0
  152.0720  139.8020  157.8860 C   0  0  0  0  0  0  0  0  0  0  0  0
  151.5330  140.8632  158.7646 N   0  3  0  0  0  0  0  0  0  0  0  0
  152.1552  142.1979  158.6167 C   0  0  1  0  0  0  0  0  0  0  0  0
  151.5542  143.0148  157.4683 C   0  0  0  0  0  0  0  0  0  0  0  0
  151.8297  144.4820  157.8276 C   0  0  0  0  0  0  0  0  0  0  0  0
  152.1549  144.5124  159.3296 C   0  0  0  0  0  0  0  0  0  0  0  0
  151.9019  143.0861  159.8391 C   0  0  2  0  0  0  0  0  0  0  0  0
  152.7144  142.7228  160.9902 N   0  0  0  0  0  0  0  0  0  0  0  0
  152.7043  143.3341  162.2376 C   0  0  0  0  0  0  0  0  0  0  0  0
  153.6135  142.6565  163.0182 C   0  0  0  0  0  0  0  0  0  0  0  0
  154.1902  141.6276  162.2787 N   0  0  0  0  0  0  0  0  0  0  0  0
  153.6103  141.7286  161.0905 C   0  0  0  0  0  0  0  0  0  0  0  0
  151.4345  138.4290  158.2012 C   0  0  0  0  0  0  0  0  0  0  0  0
  151.8751  137.3658  157.1786 C   0  0  0  0  0  0  0  0  0  0  0  0
  149.5981  137.3757  153.3100 H   0  0  0  0  0  0  0  0  0  0  0  0
  150.9960  138.4112  153.5098 H   0  0  0  0  0  0  0  0  0  0  0  0
  153.3462  138.8449  155.5780 H   0  0  0  0  0  0  0  0  0  0  0  0
  152.1466  139.3467  154.4305 H   0  0  0  0  0  0  0  0  0  0  0  0
  152.4091  141.0862  156.1651 H   0  0  0  0  0  0  0  0  0  0  0  0
  150.7979  140.4121  156.2343 H   0  0  0  0  0  0  0  0  0  0  0  0
  153.1487  139.7313  158.0457 H   0  0  0  0  0  0  0  0  0  0  0  0
  150.5459  140.9644  158.5769 H   0  0  0  0  0  0  0  0  0  0  0  0
  153.2299  142.1012  158.4601 H   0  0  0  0  0  0  0  0  0  0  0  0
  151.9710  142.7432  156.4979 H   0  0  0  0  0  0  0  0  0  0  0  0
  150.4760  142.8539  157.4192 H   0  0  0  0  0  0  0  0  0  0  0  0
  152.6756  144.8654  157.2557 H   0  0  0  0  0  0  0  0  0  0  0  0
  150.9687  145.1077  157.5912 H   0  0  0  0  0  0  0  0  0  0  0  0
  153.1985  144.7998  159.4620 H   0  0  0  0  0  0  0  0  0  0  0  0
  151.5493  145.2439  159.8657 H   0  0  0  0  0  0  0  0  0  0  0  0
  150.8504  143.0082  160.1227 H   0  0  0  0  0  0  0  0  0  0  0  0
  152.0691  144.1781  162.4632 H   0  0  0  0  0  0  0  0  0  0  0  0
  153.8931  142.8274  164.0474 H   0  0  0  0  0  0  0  0  0  0  0  0
  153.8413  141.0591  160.2746 H   0  0  0  0  0  0  0  0  0  0  0  0
  151.7064  138.0975  159.2033 H   0  0  0  0  0  0  0  0  0  0  0  0
  150.3464  138.5127  158.1885 H   0  0  0  0  0  0  0  0  0  0  0  0
  151.4242  136.4028  157.4230 H   0  0  0  0  0  0  0  0  0  0  0  0
  152.9530  137.2090  157.2405 H   0  0  0  0  0  0  0  0  0  0  0  0
  151.6454  140.5587  159.7212 H   0  0  0  0  0  0  0  0  0  0  0  0
  1  2  1  0  0  0  0
  1 21  1  0  0  0  0
  1 22  1  0  0  0  0
  2  3  2  0  0  0  0
  2  4  1  0  0  0  0
  4 20  1  0  0  0  0
  4  5  1  0  0  0  0
  5  6  1  0  0  0  0
  5 23  1  0  0  0  0
  5 24  1  0  0  0  0
  6  7  1  0  0  0  0
  6 25  1  0  0  0  0
  6 26  1  0  0  0  0
  7  8  1  0  0  0  0
  7 19  1  0  0  0  0
  7 27  1  0  0  0  0
  8  9  1  0  0  0  0
  8 28  1  0  0  0  0
  8 44  1  0  0  0  0
  9 13  1  0  0  0  0
  9 10  1  0  0  0  0
  9 29  1  0  0  0  0
 10 11  1  0  0  0  0
 10 30  1  0  0  0  0
 10 31  1  0  0  0  0
 11 12  1  0  0  0  0
 11 32  1  0  0  0  0
 11 33  1  0  0  0  0
 12 13  1  0  0  0  0
 12 34  1  0  0  0  0
 12 35  1  0  0  0  0
 13 14  1  0  0  0  0
 13 36  1  0  0  0  0
 14 18  1  0  0  0  0
 14 15  1  0  0  0  0
 15 16  2  0  0  0  0
 15 37  1  0  0  0  0
 16 17  1  0  0  0  0
 16 38  1  0  0  0  0
 17 18  2  0  0  0  0
 18 39  1  0  0  0  0
 19 20  1  0  0  0  0
 19 40  1  0  0  0  0
 19 41  1  0  0  0  0
 20 42  1  0  0  0  0
 20 43  1  0  0  0  0
M  CHG  1   8   1
M  END
> <s_m_source_file>
AV-unprocessed.smi

> <i_m_source_file_index>
862

> <i_lp_mmshare_version>
43012

> <i_f3d_flags>
0

> <s_epik_input>
W05IMl1DKD1PKU4xW0NIMl1bQ0gyXVtDSF0oW0NIMl1bQ0gyXTEpW05IXVtDQEBIXTJbQ0gyXVtDSDJdW0NIMl1bQ0BIXTJuM1tjSF1bY0hdbltjSF0z

> <s_epik_cmdline>
J2VwaWtfcHl0aG9uJywgJy1waCcsICc3LjAnLCAnLXRuJywgJzgnLCAnLW1hJywgJzIwMCcsICctbWV0YWxfYmluZGluZycsICctaW1hZScsICc8aW5maWxlLm1hZT4nLCAnLW9tYWUnLCAnPG91dGZpbGUubWFlPic=

> <r_lp_tautomer_probability>
1

> <r_epik_Ionization_Penalty>
0.0731506

> <r_epik_Ionization_Penalty_Charging>
0.0731

> <r_epik_Ionization_Penalty_Neutral>
5.05966e-05

> <r_epik_State_Penalty>
0.128895

> <r_epik_Charging_Adjusted_Penalty>
0.201995

> <i_epik_Tot_Q>
1

> <i_epik_Tot_abs_Q>
1

> <r_epik_Metal_State_Penalty>
0.113934

> <b_epik_Metal_Only>
0

> <s_lp_Force_Field>
OPLS_2005

> <r_lp_Energy>
55.4297

> <b_lp_Chiralities_Consistent>
1

> <s_lp_Variant>
AV-unprocessed.smi:862-4

> <Gold.Version>
5.8.1

> <Gold.Id.Protein>
6NUR|6NUR_protein|mol2

> <Gold.PLP.Fitness>
50.9687

> <Gold.PLP.PLP>
-48.4821

> <Gold.PLP.part.hbond>
-3.0000

> <Gold.PLP.part.metal>
0.0000

> <Gold.PLP.part.buried>
-6.2746

> <Gold.PLP.part.nonpolar>
-38.6081

> <Gold.PLP.part.repulsive>
0.3250

> <Gold.PLP.ligand.clash>
0.0000

> <Gold.PLP.ligand.torsion>
0.2821

> <Gold.PLP.Chemscore.Hbond>
1.0000

> <Gold.PLP.Chemscore.CHOScore>
0.0000

> <Gold.PLP.Chemscore.Metal>
0.0000

> <Gold.Chemscore.Hbonds>
donor molecule, donor type, donor heavy atom, donor atom, acceptor molecule, acceptor atom, score
      L1  H     1    21       P1  7948  0.99

> <Gold.PLP.Chemscore.Internal.Correction>
0.0508

> <Gold.Rescore>
     Score         DG    S(hbond)    S(metal)    S(lipo)     H(rot)  DE(clash)    DE(int)     intcor
     16.40     -16.78       0.80        0.00     109.63       1.64       0.04       0.33       ----

> <Gold.Chemscore.Fitness>
16.4033

> <Gold.Chemscore.DG>
-16.7769

> <Gold.Chemscore.ZeroCoef>
-5.4800

> <Gold.Chemscore.Hbond>
0.7997

> <Gold.Chemscore.Metal>
0.0000

> <Gold.Chemscore.Lipo>
109.6335

> <Gold.Chemscore.Internal_Hbond>
0.0000

> <Gold.Chemscore.DEClash>
0.0429

> <Gold.Chemscore.DEInternal>
0.3307

> <Gold.Chemscore.Rot>
1.6411

> <Gold.Chemscore.Internal.Correction>
   9.000000E+99

> <Gold.Chemscore.Hbonds>
donor molecule, donor type, donor heavy atom, donor atom, acceptor molecule, acceptor atom, score
      L1  H     1    21       P1  7948  0.76

> <Gold.Chemscore.Hbond.Weighted>
-2.6711

> <Gold.Chemscore.Metal.Weighted>
-0.0000

> <Gold.Chemscore.Lipo.Weighted>
-12.8271

> <Gold.Chemscore.Internal_Hbond.Weighted>
0.0000

> <Gold.Chemscore.DEClash.Weighted>
0.0429

> <Gold.Chemscore.DEInternal.Weighted>
0.3307

> <Gold.Chemscore.Rot.Weighted>
4.2013

> <Gold.Chemscore.Internal.Correction.Weighted>
   9.000000E+99

> <Gold.Protein.RotatedTorsions>
[ 6907 6896 6895 6894 ] final  124.97 input  -60.11 | X-H torsion
[ 7974 7965 7964 7962 ] final  -49.57 input  175.53 | X-H torsion
[ 8008 7997 7996 7995 ] final  -31.57 input   59.86 | X-H torsion
[ 10167 10162 10161 10158 ] final -149.92 input  -65.29 | X-H torsion
[ 10718 10713 10712 10709 ] final -164.61 input   66.30 | X-H torsion
[ 10763 10752 10751 10750 ] final  172.98 input  -60.55 | X-H torsion
[ 11005 11000 10999 10996 ] final  -23.93 input  -57.11 | X-H torsion

> <Gold.Protein.ActiveResidues>
 VAL166  LYS551  ARG553  GLY616  TRP617  ASP618  TYR619  PRO620  LYS621  CYS622 
 ASP623  PHE694  ASN695  SER759  ASP760  ASP761  ALA762  ILE779  LEU786  VAL792 
 PHE793  MET794  SER795  GLU796  ALA797  LYS798  CYS799  TRP800  GLU811  SER814 

> <Gold.Protein.RotatedAtoms>
  152.4032  133.6849  159.6333 H   0  0  0  0  0  0  0  0  0  0  0  0  # atno 6907 bound_to 6896
  150.7920  133.8754  159.3279 H   0  0  0  0  0  0  0  0  0  0  0  0  # atno 6908 bound_to 6896
  151.6515  135.1002  160.0213 H   0  0  0  0  0  0  0  0  0  0  0  0  # atno 6909 bound_to 6896
  145.9391  140.7679  142.9561 H   0  0  0  0  0  0  0  0  0  0  0  0  # atno 7974 bound_to 7965
  154.4209  140.1761  156.1587 H   0  0  0  0  0  0  0  0  0  0  0  0  # atno 8008 bound_to 7997
  155.9855  140.3373  155.6679 H   0  0  0  0  0  0  0  0  0  0  0  0  # atno 8009 bound_to 7997
  155.6442  140.0683  157.2599 H   0  0  0  0  0  0  0  0  0  0  0  0  # atno 8010 bound_to 7997
  139.7400  143.8677  152.2559 H   0  0  0  0  0  0  0  0  0  0  0  0  # atno 10167 bound_to 10162
  156.6415  130.8970  151.2997 H   0  0  0  0  0  0  0  0  0  0  0  0  # atno 10718 bound_to 10713
  154.4337  135.2760  155.1895 H   0  0  0  0  0  0  0  0  0  0  0  0  # atno 10763 bound_to 10752
  154.3790  135.6092  153.5784 H   0  0  0  0  0  0  0  0  0  0  0  0  # atno 10764 bound_to 10752
  152.9837  135.5875  154.4653 H   0  0  0  0  0  0  0  0  0  0  0  0  # atno 10765 bound_to 10752
  140.8797  133.7662  156.0287 H   0  0  0  0  0  0  0  0  0  0  0  0  # atno 11005 bound_to 11000
  144.6776  140.2251  143.7362 LP  0  0  0  0  0  0  0  0  0  0  0  0  # atno 17320 bound_to 7965
  145.8324  139.2092  143.1875 LP  0  0  0  0  0  0  0  0  0  0  0  0  # atno 17321 bound_to 7965
  139.8624  144.7110  150.9083 LP  0  0  0  0  0  0  0  0  0  0  0  0  # atno 17342 bound_to 10162
  140.7784  143.3806  151.1484 LP  0  0  0  0  0  0  0  0  0  0  0  0  # atno 17343 bound_to 10162
  157.7169  130.9509  150.1291 LP  0  0  0  0  0  0  0  0  0  0  0  0  # atno 17370 bound_to 10713
  156.2155  130.3670  149.8618 LP  0  0  0  0  0  0  0  0  0  0  0  0  # atno 17371 bound_to 10713
  140.8475  134.2993  157.5289 LP  0  0  0  0  0  0  0  0  0  0  0  0  # atno 17394 bound_to 11000
  139.8718  134.9450  156.3897 LP  0  0  0  0  0  0  0  0  0  0  0  0  # atno 17395 bound_to 11000

$$$$
