AV-unprocessed.smi:114|AV-procd|sdf|1120|dock8
  -GOLD-   2262018243D 1   1.00000     0.00000
 Structure written by MMmdl.
 32 34  0  0  0  0  0  0  0  0  1 V2000
  152.8540  142.2318  160.3390 N   0  0  0  0  0  0  0  0  0  0  0  0
  152.3904  141.2311  159.5770 C   0  0  0  0  0  0  0  0  0  0  0  0
  152.9760  140.0152  159.6824 N   0  0  0  0  0  0  0  0  0  0  0  0
  152.5442  138.9890  158.9380 C   0  0  0  0  0  0  0  0  0  0  0  0
  153.1878  137.8104  159.1085 F   0  0  0  0  0  0  0  0  0  0  0  0
  151.5490  138.9970  158.0439 N   0  0  0  0  0  0  0  0  0  0  0  0
  150.9574  140.2216  157.9381 C   0  0  0  0  0  0  0  0  0  0  0  0
  151.3175  141.3861  158.6656 C   0  0  0  0  0  0  0  0  0  0  0  0
  150.4996  142.4453  158.2959 N   0  0  0  0  0  0  0  0  0  0  0  0
  149.7031  141.9294  157.3973 C   0  0  0  0  0  0  0  0  0  0  0  0
  149.9159  140.5948  157.1177 N   0  0  0  0  0  0  0  0  0  0  0  0
  149.1988  139.6927  156.1578 C   0  0  1  0  0  0  0  0  0  0  0  0
  148.1248  140.3956  155.6090 O   0  0  0  0  0  0  0  0  0  0  0  0
  148.4575  140.8338  154.2966 C   0  0  2  0  0  0  0  0  0  0  0  0
  147.1969  141.1821  153.4872 C   0  0  0  0  0  0  0  0  0  0  0  0
  146.2942  140.0975  153.5127 O   0  0  0  0  0  0  0  0  0  0  0  0
  149.2896  139.6620  153.7608 C   0  0  2  0  0  0  0  0  0  0  0  0
  148.4578  138.6027  153.3229 O   0  0  0  0  0  0  0  0  0  0  0  0
  150.0980  139.2373  154.9812 C   0  0  1  0  0  0  0  0  0  0  0  0
  151.3716  139.8595  154.9504 O   0  0  0  0  0  0  0  0  0  0  0  0
  148.8331  138.8707  156.7742 H   0  0  0  0  0  0  0  0  0  0  0  0
  149.1092  141.7068  154.3650 H   0  0  0  0  0  0  0  0  0  0  0  0
  149.9196  139.9617  152.9220 H   0  0  0  0  0  0  0  0  0  0  0  0
  150.2431  138.1570  155.0269 H   0  0  0  0  0  0  0  0  0  0  0  0
  152.4325  143.1475  160.2758 H   0  0  0  0  0  0  0  0  0  0  0  0
  153.6233  142.0695  160.9727 H   0  0  0  0  0  0  0  0  0  0  0  0
  148.9351  142.5171  156.9158 H   0  0  0  0  0  0  0  0  0  0  0  0
  146.6897  142.0389  153.9318 H   0  0  0  0  0  0  0  0  0  0  0  0
  147.4428  141.4446  152.4578 H   0  0  0  0  0  0  0  0  0  0  0  0
  145.5586  140.3049  152.9569 H   0  0  0  0  0  0  0  0  0  0  0  0
  148.9419  138.0748  152.7064 H   0  0  0  0  0  0  0  0  0  0  0  0
  151.8014  139.6967  155.7763 H   0  0  0  0  0  0  0  0  0  0  0  0
  1  2  1  0  0  0  0
  1 25  1  0  0  0  0
  1 26  1  0  0  0  0
  2  8  1  0  0  0  0
  2  3  2  0  0  0  0
  3  4  1  0  0  0  0
  4  5  1  0  0  0  0
  4  6  2  0  0  0  0
  6  7  1  0  0  0  0
  7 11  1  0  0  0  0
  7  8  2  0  0  0  0
  8  9  1  0  0  0  0
  9 10  2  0  0  0  0
 10 11  1  0  0  0  0
 10 27  1  0  0  0  0
 11 12  1  0  0  0  0
 12 21  1  0  0  0  0
 12 19  1  0  0  0  0
 12 13  1  0  0  0  0
 13 14  1  0  0  0  0
 14 22  1  0  0  0  0
 14 15  1  0  0  0  0
 14 17  1  0  0  0  0
 15 16  1  0  0  0  0
 15 28  1  0  0  0  0
 15 29  1  0  0  0  0
 16 30  1  0  0  0  0
 17 23  1  0  0  0  0
 17 18  1  0  0  0  0
 17 19  1  0  0  0  0
 18 31  1  0  0  0  0
 19 24  1  0  0  0  0
 19 20  1  0  0  0  0
 20 32  1  0  0  0  0
M  END
> <s_m_source_file>
AV-unprocessed.smi

> <i_m_source_file_index>
114

> <i_lp_mmshare_version>
43012

> <i_f3d_flags>
0

> <s_epik_input>
RmMobjEpbmMoW05IMl0pYyhjMTIpbltjSF1uMltDQEBIXTNPW0NASF0oW0NIMl1bT0hdKVtDQEBIXShbT0hdKVtDQEBIXTNbT0hd

> <s_epik_cmdline>
J2VwaWtfcHl0aG9uJywgJy1waCcsICc3LjAnLCAnLXRuJywgJzgnLCAnLW1hJywgJzIwMCcsICctbWV0YWxfYmluZGluZycsICctaW1hZScsICc8aW5maWxlLm1hZT4nLCAnLW9tYWUnLCAnPG91dGZpbGUubWFlPic=

> <r_lp_tautomer_probability>
1

> <r_epik_Ionization_Penalty>
1.13199e-05

> <r_epik_Ionization_Penalty_Charging>
0

> <r_epik_Ionization_Penalty_Neutral>
1.13199e-05

> <r_epik_State_Penalty>
-0

> <r_epik_Charging_Adjusted_Penalty>
0

> <i_epik_Tot_Q>
0

> <i_epik_Tot_abs_Q>
0

> <r_epik_Metal_State_Penalty>
-0

> <b_epik_Metal_Only>
0

> <s_epik_Chemistry_Notes>
This compound contains an acetal/aminal-like group ( X-CH(R)-Y where X, Y are N, S, or O) that may be acid/base labile, releasing an aldehyde.

> <s_lp_Force_Field>
OPLS_2005

> <r_lp_Energy>
38.7556

> <b_lp_Chiralities_Consistent>
1

> <s_lp_Variant>
AV-unprocessed.smi:114-14

> <Gold.Version>
5.8.1

> <Gold.Id.Protein>
6NUR|6NUR_protein|mol2

> <Gold.PLP.Fitness>
38.8272

> <Gold.PLP.PLP>
-27.0691

> <Gold.PLP.part.hbond>
-4.0000

> <Gold.PLP.part.metal>
0.0000

> <Gold.PLP.part.buried>
-4.2478

> <Gold.PLP.part.nonpolar>
-19.8163

> <Gold.PLP.part.repulsive>
0.1927

> <Gold.PLP.ligand.clash>
0.0000

> <Gold.PLP.ligand.torsion>
0.0916

> <Gold.PLP.Chemscore.Hbond>
2.9600

> <Gold.PLP.Chemscore.CHOScore>
1.0000

> <Gold.PLP.Chemscore.Metal>
0.0000

> <Gold.Chemscore.Hbonds>
donor molecule, donor type, donor heavy atom, donor atom, acceptor molecule, acceptor atom, score
      L1  H    16    30       P1 10175  1.00
      L1  H    18    31       P1  7948  0.86
      P1  H  7989  7998       L1    20  1.00
      L1  C    10    27       P1  8028  1.00

> <Gold.PLP.Chemscore.Internal.Correction>
0.0612

> <Gold.Rescore>
     Score         DG    S(hbond)    S(metal)    S(lipo)     H(rot)  DE(clash)    DE(int)     intcor
      8.11      -8.89       2.98        0.00      32.06       4.03       0.55       0.23       ----

> <Gold.Chemscore.Fitness>
8.1113

> <Gold.Chemscore.DG>
-8.8889

> <Gold.Chemscore.ZeroCoef>
-5.4800

> <Gold.Chemscore.Hbond>
2.9846

> <Gold.Chemscore.Metal>
0.0000

> <Gold.Chemscore.Lipo>
32.0643

> <Gold.Chemscore.Internal_Hbond>
0.0000

> <Gold.Chemscore.DEClash>
0.5461

> <Gold.Chemscore.DEInternal>
0.2316

> <Gold.Chemscore.Rot>
4.0277

> <Gold.Chemscore.Internal.Correction>
   9.000000E+99

> <Gold.Chemscore.Hbonds>
donor molecule, donor type, donor heavy atom, donor atom, acceptor molecule, acceptor atom, score
      L1  H    16    30       P1 10175  0.93
      L1  H    18    31       P1  7948  0.82
      P1  H  7989  7998       L1    20  0.88

> <Gold.Chemscore.Hbond.Weighted>
-9.9684

> <Gold.Chemscore.Metal.Weighted>
-0.0000

> <Gold.Chemscore.Lipo.Weighted>
-3.7515

> <Gold.Chemscore.Internal_Hbond.Weighted>
0.0000

> <Gold.Chemscore.DEClash.Weighted>
0.5461

> <Gold.Chemscore.DEInternal.Weighted>
0.2316

> <Gold.Chemscore.Rot.Weighted>
10.3110

> <Gold.Chemscore.Internal.Correction.Weighted>
   9.000000E+99

> <Gold.Protein.RotatedTorsions>
[ 6907 6896 6895 6894 ] final   24.04 input  -60.11 | X-H torsion
[ 7974 7965 7964 7962 ] final   17.50 input  175.53 | X-H torsion
[ 8008 7997 7996 7995 ] final  -23.78 input   59.86 | X-H torsion
[ 10167 10162 10161 10158 ] final   49.17 input  -65.29 | X-H torsion
[ 10718 10713 10712 10709 ] final  -58.36 input   66.30 | X-H torsion
[ 10763 10752 10751 10750 ] final  158.81 input  -60.55 | X-H torsion
[ 11005 11000 10999 10996 ] final   66.31 input  -57.11 | X-H torsion

> <Gold.Protein.ActiveResidues>
 VAL166  LYS551  ARG553  GLY616  TRP617  ASP618  TYR619  PRO620  LYS621  CYS622 
 ASP623  PHE694  ASN695  SER759  ASP760  ASP761  ALA762  ILE779  LEU786  VAL792 
 PHE793  MET794  SER795  GLU796  ALA797  LYS798  CYS799  TRP800  GLU811  SER814 

> <Gold.Protein.RotatedAtoms>
  151.9515  135.0166  160.0542 H   0  0  0  0  0  0  0  0  0  0  0  0  # atno 6907 bound_to 6896
  152.1948  133.4794  159.5035 H   0  0  0  0  0  0  0  0  0  0  0  0  # atno 6908 bound_to 6896
  150.6942  134.1583  159.4209 H   0  0  0  0  0  0  0  0  0  0  0  0  # atno 6909 bound_to 6896
  146.2216  139.8593  142.8607 H   0  0  0  0  0  0  0  0  0  0  0  0  # atno 7974 bound_to 7965
  154.4566  140.1971  156.0364 H   0  0  0  0  0  0  0  0  0  0  0  0  # atno 8008 bound_to 7997
  156.0757  140.3278  155.7603 H   0  0  0  0  0  0  0  0  0  0  0  0  # atno 8009 bound_to 7997
  155.5192  140.0568  157.2900 H   0  0  0  0  0  0  0  0  0  0  0  0  # atno 8010 bound_to 7997
  140.2856  144.3105  150.6253 H   0  0  0  0  0  0  0  0  0  0  0  0  # atno 10167 bound_to 10162
  156.1141  130.4172  150.0567 H   0  0  0  0  0  0  0  0  0  0  0  0  # atno 10718 bound_to 10713
  154.2219  135.2781  155.2921 H   0  0  0  0  0  0  0  0  0  0  0  0  # atno 10763 bound_to 10752
  154.5695  135.5623  153.7085 H   0  0  0  0  0  0  0  0  0  0  0  0  # atno 10764 bound_to 10752
  153.0040  135.6317  154.2359 H   0  0  0  0  0  0  0  0  0  0  0  0  # atno 10765 bound_to 10752
  139.9840  134.6698  156.0210 H   0  0  0  0  0  0  0  0  0  0  0  0  # atno 11005 bound_to 11000
  145.2721  141.0112  143.3766 LP  0  0  0  0  0  0  0  0  0  0  0  0  # atno 17320 bound_to 7965
  144.9216  139.4405  143.6538 LP  0  0  0  0  0  0  0  0  0  0  0  0  # atno 17321 bound_to 7965
  140.5775  143.2175  151.7488 LP  0  0  0  0  0  0  0  0  0  0  0  0  # atno 17342 bound_to 10162
  139.4951  144.4128  152.0062 LP  0  0  0  0  0  0  0  0  0  0  0  0  # atno 17343 bound_to 10162
  156.8523  130.9463  151.3624 LP  0  0  0  0  0  0  0  0  0  0  0  0  # atno 17370 bound_to 10713
  157.6323  130.8739  149.9297 LP  0  0  0  0  0  0  0  0  0  0  0  0  # atno 17371 bound_to 10713
  141.1508  133.6549  156.4007 LP  0  0  0  0  0  0  0  0  0  0  0  0  # atno 17394 bound_to 11000
  140.5040  134.6459  157.5259 LP  0  0  0  0  0  0  0  0  0  0  0  0  # atno 17395 bound_to 11000

$$$$
