AV-unprocessed.smi:3336|AV-procd|sdf|12853|dock5
  -GOLD-   2272019243D 1   1.00000     0.00000
 Structure written by MMmdl.
 42 43  0  0  0  0  0  0  0  0  2 V2000
  151.9155  144.4165  157.8053 C   0  0  0  0  0  0  0  0  0  0  0  0
  151.2524  143.0291  157.8209 C   0  0  2  0  0  0  0  0  0  0  0  0
  152.1986  141.9308  158.3588 C   0  0  0  0  0  0  0  0  0  0  0  0
  152.6253  142.1703  159.7252 N   0  0  0  0  0  0  0  0  0  0  0  0
  153.5205  141.4472  160.4858 C   0  0  0  0  0  0  0  0  0  0  0  0
  153.5928  142.0502  161.7086 C   0  0  0  0  0  0  0  0  0  0  0  0
  152.6884  143.1435  161.6013 C   0  0  0  0  0  0  0  0  0  0  0  0
  152.1083  143.2107  160.4137 N   0  0  0  0  0  0  0  0  0  0  0  0
  150.7837  142.6981  156.4540 N   0  3  0  0  0  0  0  0  0  0  0  0
  150.1008  141.3903  156.2899 C   0  0  2  0  0  0  0  0  0  0  0  0
  151.1567  140.3069  156.0138 C   0  0  0  0  0  0  0  0  0  0  0  0
  149.0619  141.4261  155.1472 C   0  0  0  0  0  0  0  0  0  0  0  0
  149.4782  141.3844  153.9878 O   0  0  0  0  0  0  0  0  0  0  0  0
  147.7363  141.4946  155.4290 N   0  0  0  0  0  0  0  0  0  0  0  0
  147.2171  141.5285  156.8010 C   0  0  0  0  0  0  0  0  0  0  0  0
  146.4894  142.8662  157.0213 C   0  0  0  0  0  0  0  0  0  0  0  0
  145.4416  143.0003  156.0658 O   0  0  0  0  0  0  0  0  0  0  0  0
  145.9073  142.9520  154.7206 C   0  0  0  0  0  0  0  0  0  0  0  0
  146.6349  141.6189  154.4664 C   0  0  0  0  0  0  0  0  0  0  0  0
  152.1832  144.7455  158.8098 H   0  0  0  0  0  0  0  0  0  0  0  0
  151.2412  145.1675  157.3918 H   0  0  0  0  0  0  0  0  0  0  0  0
  152.8240  144.4165  157.2017 H   0  0  0  0  0  0  0  0  0  0  0  0
  150.3836  143.0987  158.4768 H   0  0  0  0  0  0  0  0  0  0  0  0
  151.7220  140.9510  158.3286 H   0  0  0  0  0  0  0  0  0  0  0  0
  153.0873  141.8618  157.7302 H   0  0  0  0  0  0  0  0  0  0  0  0
  154.0280  140.5758  160.0983 H   0  0  0  0  0  0  0  0  0  0  0  0
  154.1980  141.7538  162.5525 H   0  0  0  0  0  0  0  0  0  0  0  0
  152.4370  143.8841  162.3461 H   0  0  0  0  0  0  0  0  0  0  0  0
  150.1281  143.4104  156.1646 H   0  0  0  0  0  0  0  0  0  0  0  0
  149.6089  141.1692  157.2346 H   0  0  0  0  0  0  0  0  0  0  0  0
  150.7088  139.3183  155.9149 H   0  0  0  0  0  0  0  0  0  0  0  0
  151.8807  140.2524  156.8272 H   0  0  0  0  0  0  0  0  0  0  0  0
  151.7079  140.5118  155.0948 H   0  0  0  0  0  0  0  0  0  0  0  0
  146.5250  140.6972  156.9451 H   0  0  0  0  0  0  0  0  0  0  0  0
  147.9930  141.4065  157.5576 H   0  0  0  0  0  0  0  0  0  0  0  0
  146.0600  142.9023  158.0225 H   0  0  0  0  0  0  0  0  0  0  0  0
  147.1819  143.7056  156.9387 H   0  0  0  0  0  0  0  0  0  0  0  0
  145.0541  143.0497  154.0493 H   0  0  0  0  0  0  0  0  0  0  0  0
  146.5663  143.7994  154.5249 H   0  0  0  0  0  0  0  0  0  0  0  0
  146.9426  141.5829  153.4245 H   0  0  0  0  0  0  0  0  0  0  0  0
  145.9453  140.7845  154.6033 H   0  0  0  0  0  0  0  0  0  0  0  0
  151.5821  142.7301  155.8367 H   0  0  0  0  0  0  0  0  0  0  0  0
  1  2  1  0  0  0  0
  1 20  1  0  0  0  0
  1 21  1  0  0  0  0
  1 22  1  0  0  0  0
  2  3  1  0  0  0  0
  2  9  1  0  0  0  0
  2 23  1  0  0  0  0
  3  4  1  0  0  0  0
  3 24  1  0  0  0  0
  3 25  1  0  0  0  0
  4  8  1  0  0  0  0
  4  5  1  0  0  0  0
  5  6  2  0  0  0  0
  5 26  1  0  0  0  0
  6  7  1  0  0  0  0
  6 27  1  0  0  0  0
  7  8  2  0  0  0  0
  7 28  1  0  0  0  0
  9 10  1  0  0  0  0
  9 29  1  0  0  0  0
  9 42  1  0  0  0  0
 10 11  1  0  0  0  0
 10 12  1  0  0  0  0
 10 30  1  0  0  0  0
 11 31  1  0  0  0  0
 11 32  1  0  0  0  0
 11 33  1  0  0  0  0
 12 13  2  0  0  0  0
 12 14  1  0  0  0  0
 14 19  1  0  0  0  0
 14 15  1  0  0  0  0
 15 16  1  0  0  0  0
 15 34  1  0  0  0  0
 15 35  1  0  0  0  0
 16 17  1  0  0  0  0
 16 36  1  0  0  0  0
 16 37  1  0  0  0  0
 17 18  1  0  0  0  0
 18 19  1  0  0  0  0
 18 38  1  0  0  0  0
 18 39  1  0  0  0  0
 19 40  1  0  0  0  0
 19 41  1  0  0  0  0
M  CHG  1   9   1
M  END
> <s_m_source_file>
AV-unprocessed.smi

> <i_m_source_file_index>
3336

> <i_lp_mmshare_version>
43012

> <i_f3d_flags>
0

> <s_epik_input>
bjFbY0hdW2NIXVtjSF1uMVtDSDJdW0NAQEhdKFtDSDNdKVtOSF1bQ0BIXShbQ0gzXSlDKD1PKU4yW0NIMl1bQ0gyXU9bQ0gyXVtDSDJdMg==

> <s_epik_cmdline>
J2VwaWtfcHl0aG9uJywgJy1waCcsICc3LjAnLCAnLXRuJywgJzgnLCAnLW1hJywgJzIwMCcsICctbWV0YWxfYmluZGluZycsICctaW1hZScsICc8aW5maWxlLm1hZT4nLCAnLW9tYWUnLCAnPG91dGZpbGUubWFlPic=

> <r_lp_tautomer_probability>
1

> <r_epik_Ionization_Penalty>
0.200288

> <r_epik_Ionization_Penalty_Charging>
0.200285

> <r_epik_Ionization_Penalty_Neutral>
3.37705e-06

> <r_epik_State_Penalty>
0.190126

> <r_epik_Charging_Adjusted_Penalty>
0.39041

> <i_epik_Tot_Q>
1

> <i_epik_Tot_abs_Q>
1

> <r_epik_Metal_State_Penalty>
0.190133

> <b_epik_Metal_Only>
0

> <s_lp_Force_Field>
OPLS_2005

> <r_lp_Energy>
27.4401

> <b_lp_Chiralities_Consistent>
1

> <s_lp_Variant>
AV-unprocessed.smi:3336-1

> <Gold.Version>
5.8.1

> <Gold.Id.Protein>
6NUR|6NUR_protein|mol2

> <Gold.PLP.Fitness>
52.2983

> <Gold.PLP.PLP>
-44.8738

> <Gold.PLP.part.hbond>
-3.0000

> <Gold.PLP.part.metal>
0.0000

> <Gold.PLP.part.buried>
-5.6426

> <Gold.PLP.part.nonpolar>
-37.2102

> <Gold.PLP.part.repulsive>
0.8139

> <Gold.PLP.ligand.clash>
0.0000

> <Gold.PLP.ligand.torsion>
0.7655

> <Gold.PLP.Chemscore.Hbond>
2.9642

> <Gold.PLP.Chemscore.CHOScore>
0.0000

> <Gold.PLP.Chemscore.Metal>
0.0000

> <Gold.Chemscore.Hbonds>
donor molecule, donor type, donor heavy atom, donor atom, acceptor molecule, acceptor atom, score
      L1  H     9    29       P1  8028  2.00
      P1  H  7989  7998       L1    13  0.13
      P1  H  8011  8017       L1    13  0.74

> <Gold.PLP.Chemscore.Internal.Correction>
0.0632

> <Gold.Rescore>
     Score         DG    S(hbond)    S(metal)    S(lipo)     H(rot)  DE(clash)    DE(int)     intcor
     17.00     -18.15       1.92        0.00      94.07       1.85       0.27       0.87       ----

> <Gold.Chemscore.Fitness>
17.0038

> <Gold.Chemscore.DG>
-18.1490

> <Gold.Chemscore.ZeroCoef>
-5.4800

> <Gold.Chemscore.Hbond>
1.9191

> <Gold.Chemscore.Metal>
0.0000

> <Gold.Chemscore.Lipo>
94.0663

> <Gold.Chemscore.Internal_Hbond>
0.0000

> <Gold.Chemscore.DEClash>
0.2729

> <Gold.Chemscore.DEInternal>
0.8724

> <Gold.Chemscore.Rot>
1.8541

> <Gold.Chemscore.Internal.Correction>
   9.000000E+99

> <Gold.Chemscore.Hbonds>
donor molecule, donor type, donor heavy atom, donor atom, acceptor molecule, acceptor atom, score
      L1  H     9    29       P1  8028  1.00
      P1  H  7989  7998       L1    13  0.13
      P1  H  8011  8017       L1    13  0.72

> <Gold.Chemscore.Hbond.Weighted>
-6.4098

> <Gold.Chemscore.Metal.Weighted>
-0.0000

> <Gold.Chemscore.Lipo.Weighted>
-11.0058

> <Gold.Chemscore.Internal_Hbond.Weighted>
0.0000

> <Gold.Chemscore.DEClash.Weighted>
0.2729

> <Gold.Chemscore.DEInternal.Weighted>
0.8724

> <Gold.Chemscore.Rot.Weighted>
4.7465

> <Gold.Chemscore.Internal.Correction.Weighted>
   9.000000E+99

> <Gold.Protein.RotatedTorsions>
[ 6907 6896 6895 6894 ] final  178.06 input  -60.11 | X-H torsion
[ 7974 7965 7964 7962 ] final   74.62 input  175.53 | X-H torsion
[ 8008 7997 7996 7995 ] final -177.60 input   59.86 | X-H torsion
[ 10167 10162 10161 10158 ] final  -52.92 input  -65.29 | X-H torsion
[ 10718 10713 10712 10709 ] final  168.39 input   66.30 | X-H torsion
[ 10763 10752 10751 10750 ] final   56.96 input  -60.55 | X-H torsion
[ 11005 11000 10999 10996 ] final   19.18 input  -57.11 | X-H torsion

> <Gold.Protein.ActiveResidues>
 VAL166  LYS551  ARG553  GLY616  TRP617  ASP618  TYR619  PRO620  LYS621  CYS622 
 ASP623  PHE694  ASN695  SER759  ASP760  ASP761  ALA762  ILE779  LEU786  VAL792 
 PHE793  MET794  SER795  GLU796  ALA797  LYS798  CYS799  TRP800  GLU811  SER814 

> <Gold.Protein.RotatedAtoms>
  151.6940  133.3311  159.3249 H   0  0  0  0  0  0  0  0  0  0  0  0  # atno 6907 bound_to 6896
  150.7766  134.6674  159.6382 H   0  0  0  0  0  0  0  0  0  0  0  0  # atno 6908 bound_to 6896
  152.3810  134.6594  160.0195 H   0  0  0  0  0  0  0  0  0  0  0  0  # atno 6909 bound_to 6896
  145.7260  139.2666  143.1569 H   0  0  0  0  0  0  0  0  0  0  0  0  # atno 7974 bound_to 7965
  156.0088  140.1236  157.0474 H   0  0  0  0  0  0  0  0  0  0  0  0  # atno 8008 bound_to 7997
  154.4268  140.1092  156.5870 H   0  0  0  0  0  0  0  0  0  0  0  0  # atno 8009 bound_to 7997
  155.6109  140.3471  155.4624 H   0  0  0  0  0  0  0  0  0  0  0  0  # atno 8010 bound_to 7997
  140.6512  143.2567  151.4717 H   0  0  0  0  0  0  0  0  0  0  0  0  # atno 10167 bound_to 10162
  157.0378  131.0278  151.2723 H   0  0  0  0  0  0  0  0  0  0  0  0  # atno 10718 bound_to 10713
  152.9841  135.5658  154.5313 H   0  0  0  0  0  0  0  0  0  0  0  0  # atno 10763 bound_to 10752
  154.4784  135.2787  155.1591 H   0  0  0  0  0  0  0  0  0  0  0  0  # atno 10764 bound_to 10752
  154.3110  135.6288  153.5519 H   0  0  0  0  0  0  0  0  0  0  0  0  # atno 10765 bound_to 10752
  140.4165  134.1563  155.7670 H   0  0  0  0  0  0  0  0  0  0  0  0  # atno 11005 bound_to 11000
  146.0582  140.7999  142.9748 LP  0  0  0  0  0  0  0  0  0  0  0  0  # atno 17320 bound_to 7965
  144.6905  140.3156  143.7241 LP  0  0  0  0  0  0  0  0  0  0  0  0  # atno 17321 bound_to 7965
  139.5728  144.1889  152.1860 LP  0  0  0  0  0  0  0  0  0  0  0  0  # atno 17342 bound_to 10162
  140.1190  144.5390  150.6875 LP  0  0  0  0  0  0  0  0  0  0  0  0  # atno 17343 bound_to 10162
  157.5128  130.7949  149.7724 LP  0  0  0  0  0  0  0  0  0  0  0  0  # atno 17370 bound_to 10713
  156.0048  130.3861  150.2471 LP  0  0  0  0  0  0  0  0  0  0  0  0  # atno 17371 bound_to 10713
  141.1801  133.8433  157.1289 LP  0  0  0  0  0  0  0  0  0  0  0  0  # atno 17394 bound_to 11000
  140.0230  134.9937  157.0630 LP  0  0  0  0  0  0  0  0  0  0  0  0  # atno 17395 bound_to 11000

$$$$
