AV-unprocessed.smi:276|AV-procd|sdf|2082|dock7
  -GOLD-   2262021353D 1   1.00000     0.00000
 Structure written by MMmdl.
 57 61  0  0  0  0  0  0  0  0  1 V2000
  152.3902  143.0693  160.4539 C   0  0  0  0  0  0  0  0  0  0  0  0
  152.9003  141.9945  159.6848 O   0  0  0  0  0  0  0  0  0  0  0  0
  151.9006  141.0467  159.3463 C   0  0  2  0  0  0  0  0  0  0  0  0
  152.3607  139.9573  158.3699 C   0  0  0  0  0  0  0  0  0  0  0  0
  151.0050  140.0923  157.6485 C   0  0  1  0  0  0  0  0  0  0  0  0
  150.0221  139.1322  158.1698 N   0  0  0  0  0  0  0  0  0  0  0  0
  150.5340  137.8145  158.5370 C   0  0  0  0  0  0  0  0  0  0  0  0
  148.8611  139.0164  157.4864 C   0  0  0  0  0  0  0  0  0  0  0  0
  147.7153  139.1370  158.2021 N   0  0  0  0  0  0  0  0  0  0  0  0
  146.5314  139.0423  157.5908 C   0  0  0  0  0  0  0  0  0  0  0  0
  146.2740  138.8250  156.2997 N   0  0  0  0  0  0  0  0  0  0  0  0
  147.4236  138.6828  155.5800 C   0  0  0  0  0  0  0  0  0  0  0  0
  148.7509  138.7622  156.0886 C   0  0  0  0  0  0  0  0  0  0  0  0
  149.6627  138.5705  155.0574 N   0  0  0  0  0  0  0  0  0  0  0  0
  148.9186  138.4016  153.9993 C   0  0  0  0  0  0  0  0  0  0  0  0
  147.5612  138.4302  154.2258 N   0  0  0  0  0  0  0  0  0  0  0  0
  146.5132  138.2718  153.2317 C   0  0  0  0  0  0  0  0  0  0  0  0
  145.3498  137.3516  153.6726 C   0  0  1  0  0  0  0  0  0  0  0  0
  144.2019  137.8563  153.0204 O   0  0  0  0  0  0  0  0  0  0  0  0
  145.4812  135.8626  153.2758 C   0  0  1  0  0  0  0  0  0  0  0  0
  145.7385  135.5763  151.7938 C   0  0  0  0  0  0  0  0  0  0  0  0
  146.4445  134.2309  151.7959 C   0  0  0  0  0  0  0  0  0  0  0  0
  146.9272  134.0730  153.2375 C   0  0  0  0  0  0  0  0  0  0  0  0
  146.6652  135.3271  153.8501 O   0  0  0  0  0  0  0  0  0  0  0  0
  150.9311  141.5226  158.2495 C   0  0  0  0  0  0  0  0  0  0  0  0
  151.3011  142.7296  157.3682 C   0  0  0  0  0  0  0  0  0  0  0  0
  150.3671  143.5805  158.2328 C   0  0  0  0  0  0  0  0  0  0  0  0
  149.6421  142.2864  158.6097 C   0  0  0  0  0  0  0  0  0  0  0  0
  153.1950  143.7659  160.6883 H   0  0  0  0  0  0  0  0  0  0  0  0
  151.9643  142.7180  161.3946 H   0  0  0  0  0  0  0  0  0  0  0  0
  151.6223  143.6152  159.9042 H   0  0  0  0  0  0  0  0  0  0  0  0
  151.3673  140.6457  160.2110 H   0  0  0  0  0  0  0  0  0  0  0  0
  153.1957  140.2804  157.7457 H   0  0  0  0  0  0  0  0  0  0  0  0
  152.5716  138.9954  158.8373 H   0  0  0  0  0  0  0  0  0  0  0  0
  151.1148  140.0749  156.5643 H   0  0  0  0  0  0  0  0  0  0  0  0
  149.7953  137.0211  158.4081 H   0  0  0  0  0  0  0  0  0  0  0  0
  150.8334  137.8135  159.5849 H   0  0  0  0  0  0  0  0  0  0  0  0
  151.4061  137.5582  157.9348 H   0  0  0  0  0  0  0  0  0  0  0  0
  145.6665  139.1574  158.2273 H   0  0  0  0  0  0  0  0  0  0  0  0
  149.3440  138.2359  153.0203 H   0  0  0  0  0  0  0  0  0  0  0  0
  146.1322  139.2700  153.0104 H   0  0  0  0  0  0  0  0  0  0  0  0
  146.9585  137.9001  152.3077 H   0  0  0  0  0  0  0  0  0  0  0  0
  145.1902  137.4370  154.7474 H   0  0  0  0  0  0  0  0  0  0  0  0
  144.2634  138.7986  152.9887 H   0  0  0  0  0  0  0  0  0  0  0  0
  144.6160  135.2900  153.6164 H   0  0  0  0  0  0  0  0  0  0  0  0
  144.8248  135.5580  151.2008 H   0  0  0  0  0  0  0  0  0  0  0  0
  146.4043  136.3312  151.3734 H   0  0  0  0  0  0  0  0  0  0  0  0
  145.7620  133.4229  151.5308 H   0  0  0  0  0  0  0  0  0  0  0  0
  147.2712  134.2208  151.0850 H   0  0  0  0  0  0  0  0  0  0  0  0
  146.3601  133.2951  153.7502 H   0  0  0  0  0  0  0  0  0  0  0  0
  147.9861  133.8218  153.2999 H   0  0  0  0  0  0  0  0  0  0  0  0
  152.3491  143.0286  157.3924 H   0  0  0  0  0  0  0  0  0  0  0  0
  150.9411  142.6247  156.3431 H   0  0  0  0  0  0  0  0  0  0  0  0
  150.8780  144.0420  159.0796 H   0  0  0  0  0  0  0  0  0  0  0  0
  149.7624  144.3005  157.6808 H   0  0  0  0  0  0  0  0  0  0  0  0
  148.8053  142.0968  157.9385 H   0  0  0  0  0  0  0  0  0  0  0  0
  149.3430  142.2176  159.6557 H   0  0  0  0  0  0  0  0  0  0  0  0
  1  2  1  0  0  0  0
  1 29  1  0  0  0  0
  1 30  1  0  0  0  0
  1 31  1  0  0  0  0
  2  3  1  0  0  0  0
  3 25  1  0  0  0  0
  3  4  1  0  0  0  0
  3 32  1  0  0  0  0
  4  5  1  0  0  0  0
  4 33  1  0  0  0  0
  4 34  1  0  0  0  0
  5  6  1  0  0  0  0
  5 25  1  0  0  0  0
  5 35  1  0  0  0  0
  6  7  1  0  0  0  0
  6  8  1  0  0  0  0
  7 36  1  0  0  0  0
  7 37  1  0  0  0  0
  7 38  1  0  0  0  0
  8 13  1  0  0  0  0
  8  9  2  0  0  0  0
  9 10  1  0  0  0  0
 10 11  2  0  0  0  0
 10 39  1  0  0  0  0
 11 12  1  0  0  0  0
 12 16  1  0  0  0  0
 12 13  2  0  0  0  0
 13 14  1  0  0  0  0
 14 15  2  0  0  0  0
 15 16  1  0  0  0  0
 15 40  1  0  0  0  0
 16 17  1  0  0  0  0
 17 18  1  0  0  0  0
 17 41  1  0  0  0  0
 17 42  1  0  0  0  0
 18 19  1  0  0  0  0
 18 20  1  0  0  0  0
 18 43  1  0  0  0  0
 19 44  1  0  0  0  0
 20 24  1  0  0  0  0
 20 21  1  0  0  0  0
 20 45  1  0  0  0  0
 21 22  1  0  0  0  0
 21 46  1  0  0  0  0
 21 47  1  0  0  0  0
 22 23  1  0  0  0  0
 22 48  1  0  0  0  0
 22 49  1  0  0  0  0
 23 24  1  0  0  0  0
 23 50  1  0  0  0  0
 23 51  1  0  0  0  0
 25 28  1  0  0  0  0
 25 26  1  0  0  0  0
 26 27  1  0  0  0  0
 26 52  1  0  0  0  0
 26 53  1  0  0  0  0
 27 28  1  0  0  0  0
 27 54  1  0  0  0  0
 27 55  1  0  0  0  0
 28 56  1  0  0  0  0
 28 57  1  0  0  0  0
M  END
> <s_m_source_file>
AV-unprocessed.smi

> <i_m_source_file_index>
276

> <i_lp_mmshare_version>
43012

> <i_f3d_flags>
0

> <s_epik_input>
W0NIMl0xW0NIMl1bQ0gyXUMxMltDQEhdKE9bQ0gzXSlbQ0gyXVtDQEhdMk4oW0NIM10pYyhuW2NIXW4zKWMoYzM0KW5bY0hdbjRbQ0gyXVtDQEhdKFtPSF0pW0NAQEhdNVtDSDJdW0NIMl1bQ0gyXU81

> <s_epik_cmdline>
J2VwaWtfcHl0aG9uJywgJy1waCcsICc3LjAnLCAnLXRuJywgJzgnLCAnLW1hJywgJzIwMCcsICctbWV0YWxfYmluZGluZycsICctaW1hZScsICc8aW5maWxlLm1hZT4nLCAnLW9tYWUnLCAnPG91dGZpbGUubWFlPic=

> <r_lp_tautomer_probability>
1

> <r_epik_Ionization_Penalty>
0.00204117

> <r_epik_Ionization_Penalty_Charging>
0

> <r_epik_Ionization_Penalty_Neutral>
0.00204117

> <r_epik_State_Penalty>
0.00127401

> <r_epik_Charging_Adjusted_Penalty>
0.00127401

> <i_epik_Tot_Q>
0

> <i_epik_Tot_abs_Q>
0

> <r_epik_Metal_State_Penalty>
-0

> <b_epik_Metal_Only>
0

> <s_lp_Force_Field>
OPLS_2005

> <r_lp_Energy>
59.2093

> <b_lp_Chiralities_Consistent>
1

> <s_lp_Variant>
AV-unprocessed.smi:276-13

> <Gold.Version>
5.8.1

> <Gold.Id.Protein>
6NUR|6NUR_protein|mol2

> <Gold.PLP.Fitness>
36.0913

> <Gold.PLP.PLP>
-30.3464

> <Gold.PLP.part.hbond>
-2.2039

> <Gold.PLP.part.metal>
0.0000

> <Gold.PLP.part.buried>
-3.1026

> <Gold.PLP.part.nonpolar>
-25.4019

> <Gold.PLP.part.repulsive>
0.2351

> <Gold.PLP.ligand.clash>
0.0000

> <Gold.PLP.ligand.torsion>
1.7653

> <Gold.PLP.Chemscore.Hbond>
1.0000

> <Gold.PLP.Chemscore.CHOScore>
1.7742

> <Gold.PLP.Chemscore.Metal>
0.0000

> <Gold.Chemscore.Hbonds>
donor molecule, donor type, donor heavy atom, donor atom, acceptor molecule, acceptor atom, score
      L1  H    19    44       P1 10175  1.00
      L1  C    15    40       P1  7948  0.85
      L1  C    15    40       P1  7957  0.80

> <Gold.PLP.Chemscore.Internal.Correction>
0.9530

> <Gold.Rescore>
     Score         DG    S(hbond)    S(metal)    S(lipo)     H(rot)  DE(clash)    DE(int)     intcor
      8.71     -11.32       1.00        0.00      80.86       2.72       0.06       2.55       ----

> <Gold.Chemscore.Fitness>
8.7069

> <Gold.Chemscore.DG>
-11.3178

> <Gold.Chemscore.ZeroCoef>
-5.4800

> <Gold.Chemscore.Hbond>
0.9979

> <Gold.Chemscore.Metal>
0.0000

> <Gold.Chemscore.Lipo>
80.8613

> <Gold.Chemscore.Internal_Hbond>
0.0000

> <Gold.Chemscore.DEClash>
0.0590

> <Gold.Chemscore.DEInternal>
2.5519

> <Gold.Chemscore.Rot>
2.7172

> <Gold.Chemscore.Internal.Correction>
   9.000000E+99

> <Gold.Chemscore.Hbonds>
donor molecule, donor type, donor heavy atom, donor atom, acceptor molecule, acceptor atom, score
      L1  H    19    44       P1 10175  0.96

> <Gold.Chemscore.Hbond.Weighted>
-3.3330

> <Gold.Chemscore.Metal.Weighted>
-0.0000

> <Gold.Chemscore.Lipo.Weighted>
-9.4608

> <Gold.Chemscore.Internal_Hbond.Weighted>
0.0000

> <Gold.Chemscore.DEClash.Weighted>
0.0590

> <Gold.Chemscore.DEInternal.Weighted>
2.5519

> <Gold.Chemscore.Rot.Weighted>
6.9560

> <Gold.Chemscore.Internal.Correction.Weighted>
   9.000000E+99

> <Gold.Protein.RotatedTorsions>
[ 6907 6896 6895 6894 ] final -178.81 input  -60.11 | X-H torsion
[ 7974 7965 7964 7962 ] final  -77.85 input  175.53 | X-H torsion
[ 8008 7997 7996 7995 ] final    9.42 input   59.86 | X-H torsion
[ 10167 10162 10161 10158 ] final   65.37 input  -65.29 | X-H torsion
[ 10718 10713 10712 10709 ] final   -8.98 input   66.30 | X-H torsion
[ 10763 10752 10751 10750 ] final -154.47 input  -60.55 | X-H torsion
[ 11005 11000 10999 10996 ] final   71.84 input  -57.11 | X-H torsion

> <Gold.Protein.ActiveResidues>
 VAL166  LYS551  ARG553  GLY616  TRP617  ASP618  TYR619  PRO620  LYS621  CYS622 
 ASP623  PHE694  ASN695  SER759  ASP760  ASP761  ALA762  ILE779  LEU786  VAL792 
 PHE793  MET794  SER795  GLU796  ALA797  LYS798  CYS799  TRP800  GLU811  SER814 

> <Gold.Protein.RotatedAtoms>
  151.6433  133.3325  159.3134 H   0  0  0  0  0  0  0  0  0  0  0  0  # atno 6907 bound_to 6896
  150.7997  134.7085  159.6600 H   0  0  0  0  0  0  0  0  0  0  0  0  # atno 6908 bound_to 6896
  152.4088  134.6165  160.0091 H   0  0  0  0  0  0  0  0  0  0  0  0  # atno 6909 bound_to 6896
  145.5943  140.9423  143.1275 H   0  0  0  0  0  0  0  0  0  0  0  0  # atno 7974 bound_to 7965
  154.7798  140.2817  155.6073 H   0  0  0  0  0  0  0  0  0  0  0  0  # atno 8008 bound_to 7997
  156.2948  140.2625  156.2549 H   0  0  0  0  0  0  0  0  0  0  0  0  # atno 8009 bound_to 7997
  154.9798  140.0375  157.2262 H   0  0  0  0  0  0  0  0  0  0  0  0  # atno 8010 bound_to 7997
  140.1121  144.4809  150.6972 H   0  0  0  0  0  0  0  0  0  0  0  0  # atno 10167 bound_to 10162
  156.6947  130.5075  149.5934 H   0  0  0  0  0  0  0  0  0  0  0  0  # atno 10718 bound_to 10713
  154.7856  135.3189  154.7893 H   0  0  0  0  0  0  0  0  0  0  0  0  # atno 10763 bound_to 10752
  153.8594  135.6855  153.4788 H   0  0  0  0  0  0  0  0  0  0  0  0  # atno 10764 bound_to 10752
  153.1507  135.4701  154.9571 H   0  0  0  0  0  0  0  0  0  0  0  0  # atno 10765 bound_to 10752
  139.9522  134.7206  156.0835 H   0  0  0  0  0  0  0  0  0  0  0  0  # atno 11005 bound_to 11000
  144.7338  139.7647  143.7337 LP  0  0  0  0  0  0  0  0  0  0  0  0  # atno 17320 bound_to 7965
  146.1624  139.4743  142.9980 LP  0  0  0  0  0  0  0  0  0  0  0  0  # atno 17321 bound_to 7965
  140.6920  143.2381  151.5105 LP  0  0  0  0  0  0  0  0  0  0  0  0  # atno 17342 bound_to 10162
  139.5614  144.2148  152.1697 LP  0  0  0  0  0  0  0  0  0  0  0  0  # atno 17343 bound_to 10162
  156.1772  130.6475  151.0908 LP  0  0  0  0  0  0  0  0  0  0  0  0  # atno 17370 bound_to 10713
  157.6996  131.0781  150.6863 LP  0  0  0  0  0  0  0  0  0  0  0  0  # atno 17371 bound_to 10713
  141.1187  133.6619  156.3160 LP  0  0  0  0  0  0  0  0  0  0  0  0  # atno 17394 bound_to 11000
  140.5692  134.5857  157.5453 LP  0  0  0  0  0  0  0  0  0  0  0  0  # atno 17395 bound_to 11000

$$$$
