AV-unprocessed.smi:1843|AV-procd|sdf|7500|dock3
  -GOLD-   22720 9203D 1   1.00000     0.00000
 Structure written by MMmdl.
 37 39  0  0  0  0  0  0  0  0  1 V2000
  145.8381  138.7811  153.7994 O   0  0  0  0  0  0  0  0  0  0  0  0
  146.7687  138.1654  153.2784 C   0  0  0  0  0  0  0  0  0  0  0  0
  148.0721  138.4670  153.4113 N   0  0  0  0  0  0  0  0  0  0  0  0
  148.6601  139.5150  154.1678 C   0  0  0  0  0  0  0  0  0  0  0  0
  148.0414  140.6708  154.4456 N   0  0  0  0  0  0  0  0  0  0  0  0
  148.8392  141.5158  155.2042 N   0  0  0  0  0  0  0  0  0  0  0  0
  150.0342  140.9781  155.4766 C   0  0  0  0  0  0  0  0  0  0  0  0
  151.0641  141.6958  156.2839 C   0  0  0  0  0  0  0  0  0  0  0  0
  151.6761  141.0507  157.5057 C   0  0  0  0  0  0  0  0  0  0  0  0
  150.7578  142.2357  157.6638 C   0  0  0  0  0  0  0  0  0  0  0  0
  150.2859  139.3670  154.8125 S   0  0  0  0  0  0  0  0  0  0  0  0
  146.5975  137.0885  152.4984 N   0  0  0  0  0  0  0  0  0  0  0  0
  145.3080  136.4941  152.1525 C   0  0  2  0  0  0  0  0  0  0  0  0
  144.8726  135.5437  153.2901 C   0  0  0  0  0  0  0  0  0  0  0  0
  143.6004  134.7591  152.9381 C   0  0  0  0  0  0  0  0  0  0  0  0
  143.7791  133.9816  151.6277 C   0  0  0  0  0  0  0  0  0  0  0  0
  144.1614  134.9299  150.4836 C   0  0  0  0  0  0  0  0  0  0  0  0
  145.4340  135.7343  150.8112 C   0  0  1  0  0  0  0  0  0  0  0  0
  145.6374  136.6571  149.7598 O   0  0  0  0  0  0  0  0  0  0  0  0
  148.7217  137.8674  152.9247 H   0  0  0  0  0  0  0  0  0  0  0  0
  151.7140  142.2853  155.6399 H   0  0  0  0  0  0  0  0  0  0  0  0
  151.2954  140.0772  157.8082 H   0  0  0  0  0  0  0  0  0  0  0  0
  152.7388  141.2097  157.6769 H   0  0  0  0  0  0  0  0  0  0  0  0
  151.2080  143.1867  157.9407 H   0  0  0  0  0  0  0  0  0  0  0  0
  149.7726  142.0470  158.0855 H   0  0  0  0  0  0  0  0  0  0  0  0
  147.4170  136.6485  152.1063 H   0  0  0  0  0  0  0  0  0  0  0  0
  144.5540  137.2766  152.0422 H   0  0  0  0  0  0  0  0  0  0  0  0
  145.6757  134.8371  153.5053 H   0  0  0  0  0  0  0  0  0  0  0  0
  144.7085  136.1087  154.2085 H   0  0  0  0  0  0  0  0  0  0  0  0
  143.3524  134.0717  153.7473 H   0  0  0  0  0  0  0  0  0  0  0  0
  142.7586  135.4467  152.8464 H   0  0  0  0  0  0  0  0  0  0  0  0
  144.5516  133.2213  151.7508 H   0  0  0  0  0  0  0  0  0  0  0  0
  142.8584  133.4526  151.3805 H   0  0  0  0  0  0  0  0  0  0  0  0
  144.3055  134.3586  149.5656 H   0  0  0  0  0  0  0  0  0  0  0  0
  143.3306  135.6118  150.2952 H   0  0  0  0  0  0  0  0  0  0  0  0
  146.2864  135.0542  150.8475 H   0  0  0  0  0  0  0  0  0  0  0  0
  144.8344  137.1363  149.6220 H   0  0  0  0  0  0  0  0  0  0  0  0
  1  2  2  0  0  0  0
  2  3  1  0  0  0  0
  2 12  1  0  0  0  0
  3  4  1  0  0  0  0
  3 20  1  0  0  0  0
  4 11  1  0  0  0  0
  4  5  2  0  0  0  0
  5  6  1  0  0  0  0
  6  7  2  0  0  0  0
  7  8  1  0  0  0  0
  7 11  1  0  0  0  0
  8 10  1  0  0  0  0
  8  9  1  0  0  0  0
  8 21  1  0  0  0  0
  9 10  1  0  0  0  0
  9 22  1  0  0  0  0
  9 23  1  0  0  0  0
 10 24  1  0  0  0  0
 10 25  1  0  0  0  0
 12 13  1  0  0  0  0
 12 26  1  0  0  0  0
 13 18  1  0  0  0  0
 13 14  1  0  0  0  0
 13 27  1  0  0  0  0
 14 15  1  0  0  0  0
 14 28  1  0  0  0  0
 14 29  1  0  0  0  0
 15 16  1  0  0  0  0
 15 30  1  0  0  0  0
 15 31  1  0  0  0  0
 16 17  1  0  0  0  0
 16 32  1  0  0  0  0
 16 33  1  0  0  0  0
 17 18  1  0  0  0  0
 17 34  1  0  0  0  0
 17 35  1  0  0  0  0
 18 19  1  0  0  0  0
 18 36  1  0  0  0  0
 19 37  1  0  0  0  0
M  END
> <s_m_source_file>
AV-unprocessed.smi

> <i_m_source_file_index>
1843

> <i_lp_mmshare_version>
43012

> <i_f3d_flags>
0

> <s_epik_input>
W09IXVtDQEBIXTFbQ0gyXVtDSDJdW0NIMl1bQ0gyXVtDQEhdMVtOSF1DKD1PKVtOSF1jMm5uYyhzMilbQ0hdM1tDSDJdW0NIMl0z

> <s_epik_cmdline>
J2VwaWtfcHl0aG9uJywgJy1waCcsICc3LjAnLCAnLXRuJywgJzgnLCAnLW1hJywgJzIwMCcsICctbWV0YWxfYmluZGluZycsICctaW1hZScsICc8aW5maWxlLm1hZT4nLCAnLW9tYWUnLCAnPG91dGZpbGUubWFlPic=

> <r_lp_tautomer_probability>
1

> <r_epik_Ionization_Penalty>
0.000257313

> <r_epik_Ionization_Penalty_Charging>
0

> <r_epik_Ionization_Penalty_Neutral>
0.000257313

> <r_epik_State_Penalty>
-0

> <r_epik_Charging_Adjusted_Penalty>
0

> <i_epik_Tot_Q>
0

> <i_epik_Tot_abs_Q>
0

> <r_epik_Metal_State_Penalty>
0.147479

> <b_epik_Metal_Only>
0

> <s_lp_Force_Field>
OPLS_2005

> <r_lp_Energy>
7.85459

> <b_lp_Chiralities_Consistent>
1

> <s_lp_Variant>
AV-unprocessed.smi:1843-1

> <Gold.Version>
5.8.1

> <Gold.Id.Protein>
6NUR|6NUR_protein|mol2

> <Gold.PLP.Fitness>
39.7817

> <Gold.PLP.PLP>
-31.9296

> <Gold.PLP.part.hbond>
-4.6895

> <Gold.PLP.part.metal>
0.0000

> <Gold.PLP.part.buried>
-6.0670

> <Gold.PLP.part.nonpolar>
-23.5427

> <Gold.PLP.part.repulsive>
1.3282

> <Gold.PLP.ligand.clash>
0.0000

> <Gold.PLP.ligand.torsion>
0.5696

> <Gold.PLP.Chemscore.Hbond>
2.9520

> <Gold.PLP.Chemscore.CHOScore>
0.0000

> <Gold.PLP.Chemscore.Metal>
0.0000

> <Gold.Chemscore.Hbonds>
donor molecule, donor type, donor heavy atom, donor atom, acceptor molecule, acceptor atom, score
      L1  H     3    20       P1  7948  0.94
      L1  H    12    26       P1  7948  1.00
      L1  H    19    37       P1 10171  1.00

> <Gold.PLP.Chemscore.Internal.Correction>
0.1353

> <Gold.Rescore>
     Score         DG    S(hbond)    S(metal)    S(lipo)     H(rot)  DE(clash)    DE(int)     intcor
     16.35     -18.13       2.91        0.00      63.21       1.74       0.02       1.77       ----

> <Gold.Chemscore.Fitness>
16.3476

> <Gold.Chemscore.DG>
-18.1327

> <Gold.Chemscore.ZeroCoef>
-5.4800

> <Gold.Chemscore.Hbond>
2.9080

> <Gold.Chemscore.Metal>
0.0000

> <Gold.Chemscore.Lipo>
63.2094

> <Gold.Chemscore.Internal_Hbond>
0.0000

> <Gold.Chemscore.DEClash>
0.0195

> <Gold.Chemscore.DEInternal>
1.7656

> <Gold.Chemscore.Rot>
1.7404

> <Gold.Chemscore.Internal.Correction>
   9.000000E+99

> <Gold.Chemscore.Hbonds>
donor molecule, donor type, donor heavy atom, donor atom, acceptor molecule, acceptor atom, score
      L1  H     3    20       P1  7948  0.90
      L1  H    12    26       P1  7948  0.98
      L1  H    19    37       P1 10171  0.96

> <Gold.Chemscore.Hbond.Weighted>
-9.7127

> <Gold.Chemscore.Metal.Weighted>
-0.0000

> <Gold.Chemscore.Lipo.Weighted>
-7.3955

> <Gold.Chemscore.Internal_Hbond.Weighted>
0.0000

> <Gold.Chemscore.DEClash.Weighted>
0.0195

> <Gold.Chemscore.DEInternal.Weighted>
1.7656

> <Gold.Chemscore.Rot.Weighted>
4.4555

> <Gold.Chemscore.Internal.Correction.Weighted>
   9.000000E+99

> <Gold.Protein.RotatedTorsions>
[ 6907 6896 6895 6894 ] final  -32.15 input  -60.11 | X-H torsion
[ 7974 7965 7964 7962 ] final  129.66 input  175.53 | X-H torsion
[ 8008 7997 7996 7995 ] final   90.64 input   59.86 | X-H torsion
[ 10167 10162 10161 10158 ] final -127.15 input  -65.29 | X-H torsion
[ 10718 10713 10712 10709 ] final -124.54 input   66.30 | X-H torsion
[ 10763 10752 10751 10750 ] final   77.60 input  -60.55 | X-H torsion
[ 11005 11000 10999 10996 ] final   93.03 input  -57.11 | X-H torsion

> <Gold.Protein.ActiveResidues>
 VAL166  LYS551  ARG553  GLY616  TRP617  ASP618  TYR619  PRO620  LYS621  CYS622 
 ASP623  PHE694  ASN695  SER759  ASP760  ASP761  ALA762  ILE779  LEU786  VAL792 
 PHE793  MET794  SER795  GLU796  ALA797  LYS798  CYS799  TRP800  GLU811  SER814 

> <Gold.Protein.RotatedAtoms>
  151.0826  134.9868  159.8363 H   0  0  0  0  0  0  0  0  0  0  0  0  # atno 6907 bound_to 6896
  152.5421  134.2163  159.8780 H   0  0  0  0  0  0  0  0  0  0  0  0  # atno 6908 bound_to 6896
  151.2194  133.4467  159.2634 H   0  0  0  0  0  0  0  0  0  0  0  0  # atno 6909 bound_to 6896
  145.0263  139.4086  143.5172 H   0  0  0  0  0  0  0  0  0  0  0  0  # atno 7974 bound_to 7965
  156.0144  140.3347  155.6974 H   0  0  0  0  0  0  0  0  0  0  0  0  # atno 8008 bound_to 7997
  155.6112  140.0665  157.2723 H   0  0  0  0  0  0  0  0  0  0  0  0  # atno 8009 bound_to 7997
  154.4293  140.1793  156.1262 H   0  0  0  0  0  0  0  0  0  0  0  0  # atno 8010 bound_to 7997
  139.9639  143.5919  152.2436 H   0  0  0  0  0  0  0  0  0  0  0  0  # atno 10167 bound_to 10162
  156.1596  130.6592  151.0031 H   0  0  0  0  0  0  0  0  0  0  0  0  # atno 10718 bound_to 10713
  153.0811  135.4908  154.8504 H   0  0  0  0  0  0  0  0  0  0  0  0  # atno 10763 bound_to 10752
  154.7152  135.3028  154.9138 H   0  0  0  0  0  0  0  0  0  0  0  0  # atno 10764 bound_to 10752
  153.9819  135.6788  153.4803 H   0  0  0  0  0  0  0  0  0  0  0  0  # atno 10765 bound_to 10752
  139.8815  134.8767  156.3658 H   0  0  0  0  0  0  0  0  0  0  0  0  # atno 11005 bound_to 11000
  146.3492  139.9788  142.8698 LP  0  0  0  0  0  0  0  0  0  0  0  0  # atno 17320 bound_to 7965
  145.1830  140.9776  143.4255 LP  0  0  0  0  0  0  0  0  0  0  0  0  # atno 17321 bound_to 7965
  139.6533  144.7661  151.2106 LP  0  0  0  0  0  0  0  0  0  0  0  0  # atno 17342 bound_to 10162
  140.7544  143.6126  150.8590 LP  0  0  0  0  0  0  0  0  0  0  0  0  # atno 17343 bound_to 10162
  157.6722  131.0858  150.7583 LP  0  0  0  0  0  0  0  0  0  0  0  0  # atno 17370 bound_to 10713
  156.7647  130.4809  149.5430 LP  0  0  0  0  0  0  0  0  0  0  0  0  # atno 17371 bound_to 10713
  140.9498  133.7458  156.0257 LP  0  0  0  0  0  0  0  0  0  0  0  0  # atno 17394 bound_to 11000
  140.8119  134.3389  157.5409 LP  0  0  0  0  0  0  0  0  0  0  0  0  # atno 17395 bound_to 11000

$$$$
