AV-unprocessed.smi:2197|AV-procd|sdf|8909|dock5
  -GOLD-   2272012123D 1   1.00000     0.00000
 Structure written by MMmdl.
 28 28  0  0  0  0  0  0  0  0  1 V2000
  152.4480  143.3634  160.2160 C   0  0  0  0  0  0  0  0  0  0  0  0
  151.9786  144.6218  159.4784 C   0  0  0  0  0  0  0  0  0  0  0  0
  152.1313  144.5017  157.9534 C   0  0  0  0  0  0  0  0  0  0  0  0
  151.0959  143.6505  157.3793 N   0  0  0  0  0  0  0  0  0  0  0  0
  151.0585  142.3123  157.4711 C   0  0  0  0  0  0  0  0  0  0  0  0
  151.8992  141.6553  158.0867 O   0  0  0  0  0  0  0  0  0  0  0  0
  149.8791  141.6204  156.7722 C   0  0  0  0  0  0  0  0  0  0  0  0
  150.2853  140.4496  155.9810 N   0  0  0  0  0  0  0  0  0  0  0  0
  151.0471  139.4432  156.5578 C   0  0  0  0  0  0  0  0  0  0  0  0
  151.4624  138.3439  155.8850 C   0  0  0  0  0  0  0  0  0  0  0  0
  151.1167  138.1635  154.4791 C   0  0  0  0  0  0  0  0  0  0  0  0
  151.4436  137.2029  153.7858 O   0  0  0  0  0  0  0  0  0  0  0  0
  150.3520  139.1983  153.9341 N   0  0  0  0  0  0  0  0  0  0  0  0
  149.9213  140.3342  154.6214 C   0  0  0  0  0  0  0  0  0  0  0  0
  149.2518  141.1897  154.0435 O   0  0  0  0  0  0  0  0  0  0  0  0
  150.0910  139.1191  152.9620 H   0  0  0  0  0  0  0  0  0  0  0  0
  152.3205  143.4744  161.2930 H   0  0  0  0  0  0  0  0  0  0  0  0
  153.5030  143.1662  160.0247 H   0  0  0  0  0  0  0  0  0  0  0  0
  151.8795  142.4879  159.9019 H   0  0  0  0  0  0  0  0  0  0  0  0
  150.9347  144.8155  159.7274 H   0  0  0  0  0  0  0  0  0  0  0  0
  152.5464  145.4796  159.8417 H   0  0  0  0  0  0  0  0  0  0  0  0
  152.1105  145.4881  157.4864 H   0  0  0  0  0  0  0  0  0  0  0  0
  153.1002  144.0643  157.7111 H   0  0  0  0  0  0  0  0  0  0  0  0
  150.3618  144.1112  156.8612 H   0  0  0  0  0  0  0  0  0  0  0  0
  149.1563  141.3307  157.5364 H   0  0  0  0  0  0  0  0  0  0  0  0
  149.3542  142.3356  156.1351 H   0  0  0  0  0  0  0  0  0  0  0  0
  151.3310  139.5361  157.5965 H   0  0  0  0  0  0  0  0  0  0  0  0
  152.0548  137.5944  156.3899 H   0  0  0  0  0  0  0  0  0  0  0  0
  1  2  1  0  0  0  0
  1 17  1  0  0  0  0
  1 18  1  0  0  0  0
  1 19  1  0  0  0  0
  2  3  1  0  0  0  0
  2 20  1  0  0  0  0
  2 21  1  0  0  0  0
  3  4  1  0  0  0  0
  3 22  1  0  0  0  0
  3 23  1  0  0  0  0
  4  5  1  0  0  0  0
  4 24  1  0  0  0  0
  5  6  2  0  0  0  0
  5  7  1  0  0  0  0
  7  8  1  0  0  0  0
  7 25  1  0  0  0  0
  7 26  1  0  0  0  0
  8 14  1  0  0  0  0
  8  9  1  0  0  0  0
  9 10  2  0  0  0  0
  9 27  1  0  0  0  0
 10 11  1  0  0  0  0
 10 28  1  0  0  0  0
 11 12  2  0  0  0  0
 11 13  1  0  0  0  0
 13 16  1  0  0  0  0
 13 14  1  0  0  0  0
 14 15  2  0  0  0  0
M  END
> <s_m_source_file>
AV-unprocessed.smi

> <i_m_source_file_index>
2197

> <i_lp_mmshare_version>
43012

> <i_f3d_flags>
0

> <s_epik_input>
W0NIM11bQ0gyXVtDSDJdW05IXUMoPU8pW0NIMl1uMVtjSF1bY0hdYyg9TylbbkhdYzE9Tw==

> <s_epik_cmdline>
J2VwaWtfcHl0aG9uJywgJy1waCcsICc3LjAnLCAnLXRuJywgJzgnLCAnLW1hJywgJzIwMCcsICctbWV0YWxfYmluZGluZycsICctaW1hZScsICc8aW5maWxlLm1hZT4nLCAnLW9tYWUnLCAnPG91dGZpbGUubWFlPic=

> <r_lp_tautomer_probability>
0.999537

> <r_epik_Ionization_Penalty>
0.00328917

> <r_epik_Ionization_Penalty_Charging>
0.00328916

> <r_epik_Ionization_Penalty_Neutral>
1.81689e-08

> <r_epik_State_Penalty>
0.00232387

> <r_epik_Charging_Adjusted_Penalty>
0.00561303

> <i_epik_Tot_Q>
0

> <i_epik_Tot_abs_Q>
0

> <r_epik_Metal_State_Penalty>
0.365275

> <b_epik_Metal_Only>
0

> <s_lp_Force_Field>
OPLS_2005

> <r_lp_Energy>
1.80706

> <b_lp_Chiralities_Consistent>
1

> <s_lp_Variant>
AV-unprocessed.smi:2197-1

> <Gold.Version>
5.8.1

> <Gold.Id.Protein>
6NUR|6NUR_protein|mol2

> <Gold.PLP.Fitness>
38.2972

> <Gold.PLP.PLP>
-29.2157

> <Gold.PLP.part.hbond>
-4.7117

> <Gold.PLP.part.metal>
0.0000

> <Gold.PLP.part.buried>
-2.9116

> <Gold.PLP.part.nonpolar>
-25.0684

> <Gold.PLP.part.repulsive>
3.8769

> <Gold.PLP.ligand.clash>
0.0000

> <Gold.PLP.ligand.torsion>
0.3658

> <Gold.PLP.Chemscore.Hbond>
3.2681

> <Gold.PLP.Chemscore.CHOScore>
0.0000

> <Gold.PLP.Chemscore.Metal>
0.0000

> <Gold.Chemscore.Hbonds>
donor molecule, donor type, donor heavy atom, donor atom, acceptor molecule, acceptor atom, score
      L1  H     4    24       P1  8028  1.00
      L1  H    13    16       P1  7957  0.90
      P1  H  8011  8017       L1    15  0.53
      P1  H 10752 10765       L1    12  0.63

> <Gold.PLP.Chemscore.Internal.Correction>
0.0090

> <Gold.Rescore>
     Score         DG    S(hbond)    S(metal)    S(lipo)     H(rot)  DE(clash)    DE(int)     intcor
     12.40     -15.19       2.57        0.00      54.37       2.05       0.86       1.92       ----

> <Gold.Chemscore.Fitness>
12.3988

> <Gold.Chemscore.DG>
-15.1854

> <Gold.Chemscore.ZeroCoef>
-5.4800

> <Gold.Chemscore.Hbond>
2.5704

> <Gold.Chemscore.Metal>
0.0000

> <Gold.Chemscore.Lipo>
54.3663

> <Gold.Chemscore.Internal_Hbond>
0.0000

> <Gold.Chemscore.DEClash>
0.8640

> <Gold.Chemscore.DEInternal>
1.9226

> <Gold.Chemscore.Rot>
2.0471

> <Gold.Chemscore.Internal.Correction>
   9.000000E+99

> <Gold.Chemscore.Hbonds>
donor molecule, donor type, donor heavy atom, donor atom, acceptor molecule, acceptor atom, score
      L1  H     4    24       P1  8028  0.96
      L1  H    13    16       P1  7957  0.73
      P1  H  8011  8017       L1    15  0.53
      P1  H 10752 10765       L1    12  0.63

> <Gold.Chemscore.Hbond.Weighted>
-8.5852

> <Gold.Chemscore.Metal.Weighted>
-0.0000

> <Gold.Chemscore.Lipo.Weighted>
-6.3609

> <Gold.Chemscore.Internal_Hbond.Weighted>
0.0000

> <Gold.Chemscore.DEClash.Weighted>
0.8640

> <Gold.Chemscore.DEInternal.Weighted>
1.9226

> <Gold.Chemscore.Rot.Weighted>
5.2406

> <Gold.Chemscore.Internal.Correction.Weighted>
   9.000000E+99

> <Gold.Protein.RotatedTorsions>
[ 6907 6896 6895 6894 ] final   34.99 input  -60.11 | X-H torsion
[ 7974 7965 7964 7962 ] final   59.75 input  175.53 | X-H torsion
[ 8008 7997 7996 7995 ] final  104.09 input   59.86 | X-H torsion
[ 10167 10162 10161 10158 ] final -173.72 input  -65.29 | X-H torsion
[ 10718 10713 10712 10709 ] final   84.01 input   66.30 | X-H torsion
[ 10763 10752 10751 10750 ] final  150.88 input  -60.55 | X-H torsion
[ 11005 11000 10999 10996 ] final  172.53 input  -57.11 | X-H torsion

> <Gold.Protein.ActiveResidues>
 VAL166  LYS551  ARG553  GLY616  TRP617  ASP618  TYR619  PRO620  LYS621  CYS622 
 ASP623  PHE694  ASN695  SER759  ASP760  ASP761  ALA762  ILE779  LEU786  VAL792 
 PHE793  MET794  SER795  GLU796  ALA797  LYS798  CYS799  TRP800  GLU811  SER814 

> <Gold.Protein.RotatedAtoms>
  152.1100  134.9281  160.0566 H   0  0  0  0  0  0  0  0  0  0  0  0  # atno 6907 bound_to 6896
  152.0462  133.3994  159.4366 H   0  0  0  0  0  0  0  0  0  0  0  0  # atno 6908 bound_to 6896
  150.6843  134.3280  159.4858 H   0  0  0  0  0  0  0  0  0  0  0  0  # atno 6909 bound_to 6896
  145.9037  139.3600  143.0577 H   0  0  0  0  0  0  0  0  0  0  0  0  # atno 7974 bound_to 7965
  156.1542  140.3154  155.8698 H   0  0  0  0  0  0  0  0  0  0  0  0  # atno 8008 bound_to 7997
  155.3911  140.0493  157.3057 H   0  0  0  0  0  0  0  0  0  0  0  0  # atno 8009 bound_to 7997
  154.5086  140.2156  155.9213 H   0  0  0  0  0  0  0  0  0  0  0  0  # atno 8010 bound_to 7997
  139.5673  144.1725  152.1331 H   0  0  0  0  0  0  0  0  0  0  0  0  # atno 10167 bound_to 10162
  157.6890  131.0115  150.2608 H   0  0  0  0  0  0  0  0  0  0  0  0  # atno 10718 bound_to 10713
  154.0947  135.2850  155.3264 H   0  0  0  0  0  0  0  0  0  0  0  0  # atno 10763 bound_to 10752
  154.6596  135.5339  153.8005 H   0  0  0  0  0  0  0  0  0  0  0  0  # atno 10764 bound_to 10752
  153.0400  135.6530  154.1114 H   0  0  0  0  0  0  0  0  0  0  0  0  # atno 10765 bound_to 10752
  140.3307  134.7360  157.4132 H   0  0  0  0  0  0  0  0  0  0  0  0  # atno 11005 bound_to 11000
  145.8759  140.9392  143.0626 LP  0  0  0  0  0  0  0  0  0  0  0  0  # atno 17320 bound_to 7965
  144.6737  140.0716  143.7472 LP  0  0  0  0  0  0  0  0  0  0  0  0  # atno 17321 bound_to 7965
  140.1251  144.5339  150.6838 LP  0  0  0  0  0  0  0  0  0  0  0  0  # atno 17342 bound_to 10162
  140.6957  143.2402  151.5008 LP  0  0  0  0  0  0  0  0  0  0  0  0  # atno 17343 bound_to 10162
  156.3188  130.3783  149.7594 LP  0  0  0  0  0  0  0  0  0  0  0  0  # atno 17370 bound_to 10713
  156.5171  130.8198  151.3190 LP  0  0  0  0  0  0  0  0  0  0  0  0  # atno 17371 bound_to 10713
  140.0863  134.5662  155.8489 LP  0  0  0  0  0  0  0  0  0  0  0  0  # atno 17394 bound_to 11000
  141.2064  133.6655  156.6240 LP  0  0  0  0  0  0  0  0  0  0  0  0  # atno 17395 bound_to 11000

$$$$
