AV-unprocessed.smi:102|AV-procd|sdf|945|dock8
  -GOLD-   2262017463D 1   1.00000     0.00000
 Structure written by MMmdl.
 44 45  0  0  0  0  0  0  0  0  1 V2000
  152.2065  141.1765  158.6232 C   0  0  0  0  0  0  0  0  0  0  0  0
  152.4125  139.6702  158.5290 C   0  0  0  0  0  0  0  0  0  0  0  0
  153.3668  139.1897  157.9176 O   0  0  0  0  0  0  0  0  0  0  0  0
  151.4581  138.9792  159.1694 O   0  0  0  0  0  0  0  0  0  0  0  0
  151.5178  137.5614  159.1970 C   0  0  0  0  0  0  0  0  0  0  0  0
  150.3043  136.9626  158.4748 C   0  0  2  0  0  0  0  0  0  0  0  0
  150.1691  137.5202  157.1748 O   0  0  0  0  0  0  0  0  0  0  0  0
  148.8484  137.3776  156.7671 C   0  0  1  0  0  0  0  0  0  0  0  0
  148.7346  136.0742  155.9777 N   0  0  0  0  0  0  0  0  0  0  0  0
  149.6198  135.0118  156.1410 C   0  0  0  0  0  0  0  0  0  0  0  0
  149.5839  133.8875  155.3885 C   0  0  0  0  0  0  0  0  0  0  0  0
  150.4741  132.9071  155.6181 F   0  0  0  0  0  0  0  0  0  0  0  0
  148.6069  133.7409  154.3162 C   0  0  0  0  0  0  0  0  0  0  0  0
  148.4854  132.7562  153.5904 O   0  0  0  0  0  0  0  0  0  0  0  0
  147.7803  134.8523  154.1395 N   0  0  0  0  0  0  0  0  0  0  0  0
  147.8159  136.0213  154.9015 C   0  0  0  0  0  0  0  0  0  0  0  0
  147.0592  136.9491  154.6181 O   0  0  0  0  0  0  0  0  0  0  0  0
  147.9731  137.4939  158.0358 C   0  0  1  0  0  0  0  0  0  0  0  0
  146.8074  136.6731  158.0100 O   0  0  0  0  0  0  0  0  0  0  0  0
  145.8198  136.8688  158.8989 C   0  0  0  0  0  0  0  0  0  0  0  0
  144.6871  135.8648  158.7353 C   0  0  0  0  0  0  0  0  0  0  0  0
  145.7816  137.7500  159.7574 O   0  0  0  0  0  0  0  0  0  0  0  0
  148.9531  137.1876  159.1777 C   0  0  1  0  0  0  0  0  0  0  0  0
  148.6055  136.0261  159.9251 O   0  0  0  0  0  0  0  0  0  0  0  0
  147.8656  136.1306  161.0430 C   0  0  0  0  0  0  0  0  0  0  0  0
  147.5389  134.7729  161.6495 C   0  0  0  0  0  0  0  0  0  0  0  0
  147.4639  137.1768  161.5519 O   0  0  0  0  0  0  0  0  0  0  0  0
  147.1081  134.8118  153.3872 H   0  0  0  0  0  0  0  0  0  0  0  0
  151.6598  141.4360  159.5303 H   0  0  0  0  0  0  0  0  0  0  0  0
  151.6403  141.5333  157.7627 H   0  0  0  0  0  0  0  0  0  0  0  0
  153.1679  141.6902  158.6420 H   0  0  0  0  0  0  0  0  0  0  0  0
  152.4397  137.2213  158.7236 H   0  0  0  0  0  0  0  0  0  0  0  0
  151.5351  137.2165  160.2319 H   0  0  0  0  0  0  0  0  0  0  0  0
  150.4780  135.8938  158.3445 H   0  0  0  0  0  0  0  0  0  0  0  0
  148.5817  138.1745  156.0721 H   0  0  0  0  0  0  0  0  0  0  0  0
  150.3892  135.0600  156.8928 H   0  0  0  0  0  0  0  0  0  0  0  0
  147.6840  138.5414  158.1371 H   0  0  0  0  0  0  0  0  0  0  0  0
  145.0814  134.8490  158.6943 H   0  0  0  0  0  0  0  0  0  0  0  0
  144.1386  136.0626  157.8141 H   0  0  0  0  0  0  0  0  0  0  0  0
  143.9926  135.9319  159.5732 H   0  0  0  0  0  0  0  0  0  0  0  0
  149.0168  138.0593  159.8304 H   0  0  0  0  0  0  0  0  0  0  0  0
  148.4511  134.1945  161.7986 H   0  0  0  0  0  0  0  0  0  0  0  0
  146.8770  134.2133  160.9881 H   0  0  0  0  0  0  0  0  0  0  0  0
  147.0445  134.8928  162.6140 H   0  0  0  0  0  0  0  0  0  0  0  0
  1  2  1  0  0  0  0
  1 29  1  0  0  0  0
  1 30  1  0  0  0  0
  1 31  1  0  0  0  0
  2  3  2  0  0  0  0
  2  4  1  0  0  0  0
  4  5  1  0  0  0  0
  5  6  1  0  0  0  0
  5 32  1  0  0  0  0
  5 33  1  0  0  0  0
  6 23  1  0  0  0  0
  6  7  1  0  0  0  0
  6 34  1  0  0  0  0
  7  8  1  0  0  0  0
  8  9  1  0  0  0  0
  8 18  1  0  0  0  0
  8 35  1  0  0  0  0
  9 16  1  0  0  0  0
  9 10  1  0  0  0  0
 10 11  2  0  0  0  0
 10 36  1  0  0  0  0
 11 12  1  0  0  0  0
 11 13  1  0  0  0  0
 13 14  2  0  0  0  0
 13 15  1  0  0  0  0
 15 28  1  0  0  0  0
 15 16  1  0  0  0  0
 16 17  2  0  0  0  0
 18 19  1  0  0  0  0
 18 23  1  0  0  0  0
 18 37  1  0  0  0  0
 19 20  1  0  0  0  0
 20 21  1  0  0  0  0
 20 22  2  0  0  0  0
 21 38  1  0  0  0  0
 21 39  1  0  0  0  0
 21 40  1  0  0  0  0
 23 24  1  0  0  0  0
 23 41  1  0  0  0  0
 24 25  1  0  0  0  0
 25 26  1  0  0  0  0
 25 27  2  0  0  0  0
 26 42  1  0  0  0  0
 26 43  1  0  0  0  0
 26 44  1  0  0  0  0
M  END
> <s_m_source_file>
AV-unprocessed.smi

> <i_m_source_file_index>
102

> <i_lp_mmshare_version>
43012

> <i_f3d_flags>
0

> <s_epik_input>
W0NIM11DKD1PKU9bQ0gyXVtDQEBIXTFPW0NASF0oW0NAQEhdKE9DKD1PKVtDSDNdKVtDQEhdMU9DKD1PKVtDSDNdKW4yW2NIXWMoRiljKD1PKVtuSF1jMj1P

> <s_epik_cmdline>
J2VwaWtfcHl0aG9uJywgJy1waCcsICc3LjAnLCAnLXRuJywgJzgnLCAnLW1hJywgJzIwMCcsICctbWV0YWxfYmluZGluZycsICctaW1hZScsICc8aW5maWxlLm1hZT4nLCAnLW9tYWUnLCAnPG91dGZpbGUubWFlPic=

> <r_lp_tautomer_probability>
0.999537

> <r_epik_Ionization_Penalty>
0.058267

> <r_epik_Ionization_Penalty_Charging>
0.058267

> <r_epik_Ionization_Penalty_Neutral>
6.57791e-16

> <r_epik_State_Penalty>
0.0503774

> <r_epik_Charging_Adjusted_Penalty>
0.108644

> <i_epik_Tot_Q>
0

> <i_epik_Tot_abs_Q>
0

> <r_epik_Metal_State_Penalty>
2.6644

> <b_epik_Metal_Only>
0

> <s_epik_Chemistry_Notes>
This compound has an ester and may undergo hydrolysis at high or low pH. This compound contains an acetal/aminal-like group ( X-CH(R)-Y where X, Y are N, S, or O) that may be acid/base labile, releasing an aldehyde.

> <s_lp_Force_Field>
OPLS_2005

> <r_lp_Energy>
14.9607

> <b_lp_Chiralities_Consistent>
1

> <s_lp_Variant>
AV-unprocessed.smi:102-1

> <Gold.Version>
5.8.1

> <Gold.Id.Protein>
6NUR|6NUR_protein|mol2

> <Gold.PLP.Fitness>
34.7472

> <Gold.PLP.PLP>
-29.4332

> <Gold.PLP.part.hbond>
-4.5909

> <Gold.PLP.part.metal>
0.0000

> <Gold.PLP.part.buried>
-5.6685

> <Gold.PLP.part.nonpolar>
-19.0974

> <Gold.PLP.part.repulsive>
0.2348

> <Gold.PLP.ligand.clash>
0.0000

> <Gold.PLP.ligand.torsion>
1.6284

> <Gold.PLP.Chemscore.Hbond>
2.7920

> <Gold.PLP.Chemscore.CHOScore>
0.0000

> <Gold.PLP.Chemscore.Metal>
0.0000

> <Gold.Chemscore.Hbonds>
donor molecule, donor type, donor heavy atom, donor atom, acceptor molecule, acceptor atom, score
      P1  H  6931  6943       L1    27  0.94
      P1  H  6934  6947       L1    27  0.86
      P1  H  7997  8009       L1     3  1.00

> <Gold.PLP.Chemscore.Internal.Correction>
0.1947

> <Gold.Rescore>
     Score         DG    S(hbond)    S(metal)    S(lipo)     H(rot)  DE(clash)    DE(int)     intcor
      6.18      -8.19       2.56        0.00      38.61       4.05       0.05       1.97       ----

> <Gold.Chemscore.Fitness>
6.1777

> <Gold.Chemscore.DG>
-8.1917

> <Gold.Chemscore.ZeroCoef>
-5.4800

> <Gold.Chemscore.Hbond>
2.5650

> <Gold.Chemscore.Metal>
0.0000

> <Gold.Chemscore.Lipo>
38.6140

> <Gold.Chemscore.Internal_Hbond>
0.0000

> <Gold.Chemscore.DEClash>
0.0470

> <Gold.Chemscore.DEInternal>
1.9670

> <Gold.Chemscore.Rot>
4.0520

> <Gold.Chemscore.Internal.Correction>
   9.000000E+99

> <Gold.Chemscore.Hbonds>
donor molecule, donor type, donor heavy atom, donor atom, acceptor molecule, acceptor atom, score
      P1  H  6931  6943       L1    27  0.55
      P1  H  6934  6947       L1    27  0.84
      P1  H  7997  8009       L1     3  1.00

> <Gold.Chemscore.Hbond.Weighted>
-8.5670

> <Gold.Chemscore.Metal.Weighted>
-0.0000

> <Gold.Chemscore.Lipo.Weighted>
-4.5178

> <Gold.Chemscore.Internal_Hbond.Weighted>
0.0000

> <Gold.Chemscore.DEClash.Weighted>
0.0470

> <Gold.Chemscore.DEInternal.Weighted>
1.9670

> <Gold.Chemscore.Rot.Weighted>
10.3732

> <Gold.Chemscore.Internal.Correction.Weighted>
   9.000000E+99

> <Gold.Protein.RotatedTorsions>
[ 6907 6896 6895 6894 ] final  143.55 input  -60.11 | X-H torsion
[ 7974 7965 7964 7962 ] final  -33.90 input  175.53 | X-H torsion
[ 8008 7997 7996 7995 ] final  156.05 input   59.86 | X-H torsion
[ 10167 10162 10161 10158 ] final    9.31 input  -65.29 | X-H torsion
[ 10718 10713 10712 10709 ] final   46.92 input   66.30 | X-H torsion
[ 10763 10752 10751 10750 ] final   37.97 input  -60.55 | X-H torsion
[ 11005 11000 10999 10996 ] final -102.12 input  -57.11 | X-H torsion

> <Gold.Protein.ActiveResidues>
 VAL166  LYS551  ARG553  GLY616  TRP617  ASP618  TYR619  PRO620  LYS621  CYS622 
 ASP623  PHE694  ASN695  SER759  ASP760  ASP761  ALA762  ILE779  LEU786  VAL792 
 PHE793  MET794  SER795  GLU796  ALA797  LYS798  CYS799  TRP800  GLU811  SER814 

> <Gold.Protein.RotatedAtoms>
  152.2049  133.4868  159.5078 H   0  0  0  0  0  0  0  0  0  0  0  0  # atno 6907 bound_to 6896
  150.6977  134.1543  159.4161 H   0  0  0  0  0  0  0  0  0  0  0  0  # atno 6908 bound_to 6896
  151.9461  135.0191  160.0589 H   0  0  0  0  0  0  0  0  0  0  0  0  # atno 6909 bound_to 6896
  146.0873  140.5973  142.8880 H   0  0  0  0  0  0  0  0  0  0  0  0  # atno 7974 bound_to 7965
  156.2444  140.1923  156.6896 H   0  0  0  0  0  0  0  0  0  0  0  0  # atno 8008 bound_to 7997
  154.6261  140.0602  156.9702 H   0  0  0  0  0  0  0  0  0  0  0  0  # atno 8009 bound_to 7997
  155.1784  140.3274  155.4382 H   0  0  0  0  0  0  0  0  0  0  0  0  # atno 8010 bound_to 7997
  140.6262  143.8095  150.7237 H   0  0  0  0  0  0  0  0  0  0  0  0  # atno 10167 bound_to 10162
  157.4531  130.8150  149.7809 H   0  0  0  0  0  0  0  0  0  0  0  0  # atno 10718 bound_to 10713
  153.0018  135.6262  154.2230 H   0  0  0  0  0  0  0  0  0  0  0  0  # atno 10763 bound_to 10752
  154.1973  135.2806  155.3004 H   0  0  0  0  0  0  0  0  0  0  0  0  # atno 10764 bound_to 10752
  154.5712  135.5676  153.7156 H   0  0  0  0  0  0  0  0  0  0  0  0  # atno 10765 bound_to 10752
  141.1202  133.8533  157.1320 H   0  0  0  0  0  0  0  0  0  0  0  0  # atno 11005 bound_to 11000
  144.7335  140.4740  143.6921 LP  0  0  0  0  0  0  0  0  0  0  0  0  # atno 17320 bound_to 7965
  145.6105  139.1513  143.3078 LP  0  0  0  0  0  0  0  0  0  0  0  0  # atno 17321 bound_to 7965
  140.1696  143.4206  152.2010 LP  0  0  0  0  0  0  0  0  0  0  0  0  # atno 17342 bound_to 10162
  139.5482  144.7316  151.4516 LP  0  0  0  0  0  0  0  0  0  0  0  0  # atno 17343 bound_to 10162
  155.9996  130.3888  150.2660 LP  0  0  0  0  0  0  0  0  0  0  0  0  # atno 17370 bound_to 10713
  157.0832  131.0149  151.3149 LP  0  0  0  0  0  0  0  0  0  0  0  0  # atno 17371 bound_to 10713
  140.0154  134.9970  157.0482 LP  0  0  0  0  0  0  0  0  0  0  0  0  # atno 17394 bound_to 11000
  140.4529  134.1564  155.7183 LP  0  0  0  0  0  0  0  0  0  0  0  0  # atno 17395 bound_to 11000

$$$$
