AV-unprocessed.smi:1600|AV-procd|sdf|6430|dock6
  -GOLD-   22720 7 73D 1   1.00000     0.00000
 Structure written by MMmdl.
 46 47  0  0  0  0  0  0  0  0  2 V2000
  150.4285  141.6049  156.6665 C   0  0  0  0  0  0  0  0  0  0  0  0
  150.1445  140.4902  155.7036 C   0  0  0  0  0  0  0  0  0  0  0  0
  148.9350  140.2295  154.9958 C   0  0  0  0  0  0  0  0  0  0  0  0
  149.2430  139.1070  154.2768 C   0  0  0  0  0  0  0  0  0  0  0  0
  148.4641  138.4057  153.4108 N   0  0  0  0  0  0  0  0  0  0  0  0
  147.1243  138.4041  153.2983 C   0  0  0  0  0  0  0  0  0  0  0  0
  146.3489  139.0637  153.9904 O   0  0  0  0  0  0  0  0  0  0  0  0
  146.7218  137.5822  152.3179 N   0  0  0  0  0  0  0  0  0  0  0  0
  145.3350  137.3295  151.9370 C   0  0  0  0  0  0  0  0  0  0  0  0
  144.9893  135.8286  151.9736 C   0  0  1  0  0  0  0  0  0  0  0  0
  143.8489  135.4804  152.9245 C   0  0  0  0  0  0  0  0  0  0  0  0
  143.3985  134.1173  152.4113 C   0  0  0  0  0  0  0  0  0  0  0  0
  143.4966  134.2054  150.9372 N   0  3  2  0  0  0  0  0  0  0  0  0
  143.6500  132.9077  150.2206 C   0  0  0  0  0  0  0  0  0  0  0  0
  144.9830  132.2270  150.5858 C   0  0  0  0  0  0  0  0  0  0  0  0
  143.5702  133.0863  148.6919 C   0  0  0  0  0  0  0  0  0  0  0  0
  144.5322  135.2261  150.6333 C   0  0  0  0  0  0  0  0  0  0  0  0
  150.5430  138.7450  154.5522 N   0  0  0  0  0  0  0  0  0  0  0  0
  151.3199  137.6348  154.0355 C   0  0  0  0  0  0  0  0  0  0  0  0
  151.0966  139.6035  155.4355 N   0  0  0  0  0  0  0  0  0  0  0  0
  149.6529  142.3700  156.6224 H   0  0  0  0  0  0  0  0  0  0  0  0
  151.3811  142.0867  156.4439 H   0  0  0  0  0  0  0  0  0  0  0  0
  150.4719  141.2347  157.6910 H   0  0  0  0  0  0  0  0  0  0  0  0
  148.0109  140.7867  155.0257 H   0  0  0  0  0  0  0  0  0  0  0  0
  148.9654  137.8025  152.7754 H   0  0  0  0  0  0  0  0  0  0  0  0
  147.4301  137.0787  151.8034 H   0  0  0  0  0  0  0  0  0  0  0  0
  144.6999  137.8647  152.6433 H   0  0  0  0  0  0  0  0  0  0  0  0
  145.1171  137.7513  150.9544 H   0  0  0  0  0  0  0  0  0  0  0  0
  145.8696  135.2763  152.3073 H   0  0  0  0  0  0  0  0  0  0  0  0
  144.1595  135.4562  153.9695 H   0  0  0  0  0  0  0  0  0  0  0  0
  143.0360  136.2020  152.8282 H   0  0  0  0  0  0  0  0  0  0  0  0
  144.0776  133.3474  152.7822 H   0  0  0  0  0  0  0  0  0  0  0  0
  142.3882  133.8672  152.7370 H   0  0  0  0  0  0  0  0  0  0  0  0
  142.8327  132.2530  150.5273 H   0  0  0  0  0  0  0  0  0  0  0  0
  145.1014  131.2874  150.0450 H   0  0  0  0  0  0  0  0  0  0  0  0
  145.0510  131.9902  151.6473 H   0  0  0  0  0  0  0  0  0  0  0  0
  145.8331  132.8616  150.3324 H   0  0  0  0  0  0  0  0  0  0  0  0
  143.7363  132.1382  148.1795 H   0  0  0  0  0  0  0  0  0  0  0  0
  144.3235  133.7896  148.3349 H   0  0  0  0  0  0  0  0  0  0  0  0
  142.5936  133.4487  148.3710 H   0  0  0  0  0  0  0  0  0  0  0  0
  144.0742  135.9782  149.9910 H   0  0  0  0  0  0  0  0  0  0  0  0
  145.3894  134.8125  150.1005 H   0  0  0  0  0  0  0  0  0  0  0  0
  151.5325  137.7986  152.9789 H   0  0  0  0  0  0  0  0  0  0  0  0
  150.7562  136.7082  154.1466 H   0  0  0  0  0  0  0  0  0  0  0  0
  152.2619  137.5400  154.5770 H   0  0  0  0  0  0  0  0  0  0  0  0
  142.6214  134.6053  150.6297 H   0  0  0  0  0  0  0  0  0  0  0  0
  1  2  1  0  0  0  0
  1 21  1  0  0  0  0
  1 22  1  0  0  0  0
  1 23  1  0  0  0  0
  2 20  2  0  0  0  0
  2  3  1  0  0  0  0
  3  4  2  0  0  0  0
  3 24  1  0  0  0  0
  4  5  1  0  0  0  0
  4 18  1  0  0  0  0
  5  6  1  0  0  0  0
  5 25  1  0  0  0  0
  6  7  2  0  0  0  0
  6  8  1  0  0  0  0
  8  9  1  0  0  0  0
  8 26  1  0  0  0  0
  9 10  1  0  0  0  0
  9 27  1  0  0  0  0
  9 28  1  0  0  0  0
 10 17  1  0  0  0  0
 10 11  1  0  0  0  0
 10 29  1  0  0  0  0
 11 12  1  0  0  0  0
 11 30  1  0  0  0  0
 11 31  1  0  0  0  0
 12 13  1  0  0  0  0
 12 32  1  0  0  0  0
 12 33  1  0  0  0  0
 13 14  1  0  0  0  0
 13 17  1  0  0  0  0
 13 46  1  0  0  0  0
 14 15  1  0  0  0  0
 14 16  1  0  0  0  0
 14 34  1  0  0  0  0
 15 35  1  0  0  0  0
 15 36  1  0  0  0  0
 15 37  1  0  0  0  0
 16 38  1  0  0  0  0
 16 39  1  0  0  0  0
 16 40  1  0  0  0  0
 17 41  1  0  0  0  0
 17 42  1  0  0  0  0
 18 19  1  0  0  0  0
 18 20  1  0  0  0  0
 19 43  1  0  0  0  0
 19 44  1  0  0  0  0
 19 45  1  0  0  0  0
M  CHG  1  13   1
M  END
> <s_m_source_file>
AV-unprocessed.smi

> <i_m_source_file_index>
1600

> <i_lp_mmshare_version>
43012

> <i_f3d_flags>
0

> <s_epik_input>
W0NIM11jMVtjSF1jKG4objEpW0NIM10pW05IXUMoPU8pW05IXVtDSDJdW0NAQEhdMltDSDJdW0NIMl1OKFtDSDJdMilbQ0hdKFtDSDNdKVtDSDNd

> <s_epik_cmdline>
J2VwaWtfcHl0aG9uJywgJy1waCcsICc3LjAnLCAnLXRuJywgJzgnLCAnLW1hJywgJzIwMCcsICctbWV0YWxfYmluZGluZycsICctaW1hZScsICc8aW5maWxlLm1hZT4nLCAnLW9tYWUnLCAnPG91dGZpbGUubWFlPic=

> <r_lp_tautomer_probability>
1

> <r_epik_Ionization_Penalty>
0.000297652

> <r_epik_Ionization_Penalty_Charging>
0.000213653

> <r_epik_Ionization_Penalty_Neutral>
8.3999e-05

> <r_epik_State_Penalty>
-0

> <r_epik_Charging_Adjusted_Penalty>
0.000213653

> <i_epik_Tot_Q>
1

> <i_epik_Tot_abs_Q>
1

> <r_epik_Metal_State_Penalty>
-0

> <b_epik_Metal_Only>
0

> <s_lp_Force_Field>
OPLS_2005

> <r_lp_Energy>
32.7515

> <b_lp_Chiralities_Consistent>
1

> <s_lp_Variant>
AV-unprocessed.smi:1600-4

> <Gold.Version>
5.8.1

> <Gold.Id.Protein>
6NUR|6NUR_protein|mol2

> <Gold.PLP.Fitness>
51.0250

> <Gold.PLP.PLP>
-40.7823

> <Gold.PLP.part.hbond>
-4.7647

> <Gold.PLP.part.metal>
0.0000

> <Gold.PLP.part.buried>
2.0983

> <Gold.PLP.part.nonpolar>
-38.7387

> <Gold.PLP.part.repulsive>
0.3866

> <Gold.PLP.ligand.clash>
0.0000

> <Gold.PLP.ligand.torsion>
0.8600

> <Gold.PLP.Chemscore.Hbond>
3.9756

> <Gold.PLP.Chemscore.CHOScore>
0.0000

> <Gold.PLP.Chemscore.Metal>
0.0000

> <Gold.Chemscore.Hbonds>
donor molecule, donor type, donor heavy atom, donor atom, acceptor molecule, acceptor atom, score
      L1  H     5    25       P1  7948  0.96
      L1  H     8    26       P1  7948  0.98
      L1  H    13    46       P1 10186  1.85
      P1  H  7989  7998       L1    20  0.01

> <Gold.PLP.Chemscore.Internal.Correction>
0.0359

> <Gold.Rescore>
     Score         DG    S(hbond)    S(metal)    S(lipo)     H(rot)  DE(clash)    DE(int)     intcor
     18.22     -20.64       2.70        0.00      84.05       1.44       1.42       1.00       ----

> <Gold.Chemscore.Fitness>
18.2175

> <Gold.Chemscore.DG>
-20.6407

> <Gold.Chemscore.ZeroCoef>
-5.4800

> <Gold.Chemscore.Hbond>
2.6963

> <Gold.Chemscore.Metal>
0.0000

> <Gold.Chemscore.Lipo>
84.0475

> <Gold.Chemscore.Internal_Hbond>
0.0000

> <Gold.Chemscore.DEClash>
1.4237

> <Gold.Chemscore.DEInternal>
0.9994

> <Gold.Chemscore.Rot>
1.4369

> <Gold.Chemscore.Internal.Correction>
   9.000000E+99

> <Gold.Chemscore.Hbonds>
donor molecule, donor type, donor heavy atom, donor atom, acceptor molecule, acceptor atom, score
      L1  H     5    25       P1  7948  0.92
      L1  H     8    26       P1  7948  0.93
      L1  H    13    46       P1 10186  0.20

> <Gold.Chemscore.Hbond.Weighted>
-9.0056

> <Gold.Chemscore.Metal.Weighted>
-0.0000

> <Gold.Chemscore.Lipo.Weighted>
-9.8336

> <Gold.Chemscore.Internal_Hbond.Weighted>
0.0000

> <Gold.Chemscore.DEClash.Weighted>
1.4237

> <Gold.Chemscore.DEInternal.Weighted>
0.9994

> <Gold.Chemscore.Rot.Weighted>
3.6785

> <Gold.Chemscore.Internal.Correction.Weighted>
   9.000000E+99

> <Gold.Protein.RotatedTorsions>
[ 6907 6896 6895 6894 ] final -178.59 input  -60.11 | X-H torsion
[ 7974 7965 7964 7962 ] final   -4.61 input  175.53 | X-H torsion
[ 8008 7997 7996 7995 ] final  -77.78 input   59.86 | X-H torsion
[ 10167 10162 10161 10158 ] final  163.77 input  -65.29 | X-H torsion
[ 10718 10713 10712 10709 ] final   -1.27 input   66.30 | X-H torsion
[ 10763 10752 10751 10750 ] final  -73.83 input  -60.55 | X-H torsion
[ 11005 11000 10999 10996 ] final  142.74 input  -57.11 | X-H torsion

> <Gold.Protein.ActiveResidues>
 VAL166  LYS551  ARG553  GLY616  TRP617  ASP618  TYR619  PRO620  LYS621  CYS622 
 ASP623  PHE694  ASN695  SER759  ASP760  ASP761  ALA762  ILE779  LEU786  VAL792 
 PHE793  MET794  SER795  GLU796  ALA797  LYS798  CYS799  TRP800  GLU811  SER814 

> <Gold.Protein.RotatedAtoms>
  151.6397  133.3327  159.3127 H   0  0  0  0  0  0  0  0  0  0  0  0  # atno 6907 bound_to 6896
  150.8014  134.7114  159.6615 H   0  0  0  0  0  0  0  0  0  0  0  0  # atno 6908 bound_to 6896
  152.4107  134.6134  160.0083 H   0  0  0  0  0  0  0  0  0  0  0  0  # atno 6909 bound_to 6896
  146.2369  140.1897  142.8332 H   0  0  0  0  0  0  0  0  0  0  0  0  # atno 7974 bound_to 7965
  154.5628  140.0705  156.8845 H   0  0  0  0  0  0  0  0  0  0  0  0  # atno 8008 bound_to 7997
  155.2779  140.3369  155.4242 H   0  0  0  0  0  0  0  0  0  0  0  0  # atno 8009 bound_to 7997
  156.2056  140.1739  156.7792 H   0  0  0  0  0  0  0  0  0  0  0  0  # atno 8010 bound_to 7997
  139.4878  144.4304  151.9078 H   0  0  0  0  0  0  0  0  0  0  0  0  # atno 10167 bound_to 10162
  156.8081  130.5415  149.5712 H   0  0  0  0  0  0  0  0  0  0  0  0  # atno 10718 bound_to 10713
  154.4648  135.5884  153.6280 H   0  0  0  0  0  0  0  0  0  0  0  0  # atno 10763 bound_to 10752
  152.9827  135.6052  154.3441 H   0  0  0  0  0  0  0  0  0  0  0  0  # atno 10764 bound_to 10752
  154.3317  135.2842  155.2447 H   0  0  0  0  0  0  0  0  0  0  0  0  # atno 10765 bound_to 10752
  140.0500  134.9260  157.1000 H   0  0  0  0  0  0  0  0  0  0  0  0  # atno 11005 bound_to 11000
  144.9868  140.8510  143.5363 LP  0  0  0  0  0  0  0  0  0  0  0  0  # atno 17320 bound_to 7965
  145.1897  139.2307  143.5249 LP  0  0  0  0  0  0  0  0  0  0  0  0  # atno 17321 bound_to 7965
  140.3751  144.2806  150.5915 LP  0  0  0  0  0  0  0  0  0  0  0  0  # atno 17342 bound_to 10162
  140.5284  143.2249  151.8278 LP  0  0  0  0  0  0  0  0  0  0  0  0  # atno 17343 bound_to 10162
  156.1061  130.6005  150.9972 LP  0  0  0  0  0  0  0  0  0  0  0  0  # atno 17370 bound_to 10713
  157.6520  131.0895  150.8031 LP  0  0  0  0  0  0  0  0  0  0  0  0  # atno 17371 bound_to 10713
  140.3932  134.2162  155.7165 LP  0  0  0  0  0  0  0  0  0  0  0  0  # atno 17394 bound_to 11000
  141.1926  133.8170  157.0834 LP  0  0  0  0  0  0  0  0  0  0  0  0  # atno 17395 bound_to 11000

$$$$
