AV-unprocessed.smi:1244|AV-procd|sdf|5229|dock4
  -GOLD-   22720 4333D 1   1.00000     0.00000
 Structure written by MMmdl.
 55 57  0  0  0  0  0  0  0  0  2 V2000
  147.6894  141.6275  154.3867 C   0  0  0  0  0  0  0  0  0  0  0  0
  149.1924  141.4196  154.5986 C   0  0  2  0  0  0  0  0  0  0  0  0
  149.6150  139.9541  154.3825 C   0  0  0  0  0  0  0  0  0  0  0  0
  151.0320  139.7512  154.6584 N   0  0  0  0  0  0  0  0  0  0  0  0
  151.4231  138.3604  154.4256 C   0  0  0  0  0  0  0  0  0  0  0  0
  150.6268  137.3108  155.2274 C   0  0  0  0  0  0  0  0  0  0  0  0
  150.1033  136.2549  154.3668 N   0  0  0  0  0  0  0  0  0  0  0  0
  149.9958  134.9644  154.7104 C   0  0  0  0  0  0  0  0  0  0  0  0
  150.4056  134.5039  155.7760 O   0  0  0  0  0  0  0  0  0  0  0  0
  149.3591  134.2612  153.7600 N   0  0  0  0  0  0  0  0  0  0  0  0
  148.9687  132.8942  153.8086 C   0  0  0  0  0  0  0  0  0  0  0  0
  149.7791  131.9083  154.4264 C   0  0  0  0  0  0  0  0  0  0  0  0
  149.3545  130.5657  154.4447 C   0  0  0  0  0  0  0  0  0  0  0  0
  148.1313  130.2287  153.8380 C   0  0  0  0  0  0  0  0  0  0  0  0
  147.3910  131.1889  153.2456 N   0  3  0  0  0  0  0  0  0  0  0  0
  147.7484  132.4959  153.1984 C   0  0  0  0  0  0  0  0  0  0  0  0
  146.9062  133.4114  152.5325 N   0  0  0  0  0  0  0  0  0  0  0  0
  146.8728  133.2472  151.0816 C   0  0  0  0  0  0  0  0  0  0  0  0
  145.4379  133.5498  150.6442 C   0  0  0  0  0  0  0  0  0  0  0  0
  144.6186  133.2046  151.8818 C   0  0  0  0  0  0  0  0  0  0  0  0
  145.5451  133.6300  153.0194 C   0  0  0  0  0  0  0  0  0  0  0  0
  151.3197  140.1968  156.0185 C   0  0  0  0  0  0  0  0  0  0  0  0
  150.8986  141.6619  156.2426 C   0  0  2  0  0  0  0  0  0  0  0  0
  151.1171  142.1129  157.6906 C   0  0  0  0  0  0  0  0  0  0  0  0
  149.5151  141.8042  155.9325 O   0  0  0  0  0  0  0  0  0  0  0  0
  147.3953  141.3585  153.3719 H   0  0  0  0  0  0  0  0  0  0  0  0
  147.4141  142.6701  154.5472 H   0  0  0  0  0  0  0  0  0  0  0  0
  147.1057  141.0186  155.0776 H   0  0  0  0  0  0  0  0  0  0  0  0
  149.7365  142.0624  153.9043 H   0  0  0  0  0  0  0  0  0  0  0  0
  149.0175  139.3035  155.0237 H   0  0  0  0  0  0  0  0  0  0  0  0
  149.3952  139.6647  153.3540 H   0  0  0  0  0  0  0  0  0  0  0  0
  151.3543  138.1304  153.3614 H   0  0  0  0  0  0  0  0  0  0  0  0
  152.4765  138.2442  154.6835 H   0  0  0  0  0  0  0  0  0  0  0  0
  151.2556  136.8525  155.9904 H   0  0  0  0  0  0  0  0  0  0  0  0
  149.8087  137.7936  155.7640 H   0  0  0  0  0  0  0  0  0  0  0  0
  149.7395  136.5427  153.4705 H   0  0  0  0  0  0  0  0  0  0  0  0
  148.9950  134.7935  152.9836 H   0  0  0  0  0  0  0  0  0  0  0  0
  150.7264  132.1619  154.8781 H   0  0  0  0  0  0  0  0  0  0  0  0
  149.9616  129.8056  154.9142 H   0  0  0  0  0  0  0  0  0  0  0  0
  147.7287  129.2268  153.8016 H   0  0  0  0  0  0  0  0  0  0  0  0
  147.5828  133.9146  150.5930 H   0  0  0  0  0  0  0  0  0  0  0  0
  147.1365  132.2225  150.8132 H   0  0  0  0  0  0  0  0  0  0  0  0
  145.3351  134.6127  150.4202 H   0  0  0  0  0  0  0  0  0  0  0  0
  145.1353  132.9875  149.7605 H   0  0  0  0  0  0  0  0  0  0  0  0
  143.6521  133.7086  151.9099 H   0  0  0  0  0  0  0  0  0  0  0  0
  144.4440  132.1286  151.9245 H   0  0  0  0  0  0  0  0  0  0  0  0
  145.3057  133.1160  153.9503 H   0  0  0  0  0  0  0  0  0  0  0  0
  145.4307  134.6976  153.2111 H   0  0  0  0  0  0  0  0  0  0  0  0
  150.8027  139.5548  156.7337 H   0  0  0  0  0  0  0  0  0  0  0  0
  152.3849  140.1034  156.2275 H   0  0  0  0  0  0  0  0  0  0  0  0
  151.4762  142.3114  155.5824 H   0  0  0  0  0  0  0  0  0  0  0  0
  152.1674  142.0346  157.9721 H   0  0  0  0  0  0  0  0  0  0  0  0
  150.5371  141.5041  158.3849 H   0  0  0  0  0  0  0  0  0  0  0  0
  150.8138  143.1515  157.8246 H   0  0  0  0  0  0  0  0  0  0  0  0
  146.5133  130.9134  152.8046 H   0  0  0  0  0  0  0  0  0  0  0  0
  1  2  1  0  0  0  0
  1 26  1  0  0  0  0
  1 27  1  0  0  0  0
  1 28  1  0  0  0  0
  2 25  1  0  0  0  0
  2  3  1  0  0  0  0
  2 29  1  0  0  0  0
  3  4  1  0  0  0  0
  3 30  1  0  0  0  0
  3 31  1  0  0  0  0
  4  5  1  0  0  0  0
  4 22  1  0  0  0  0
  5  6  1  0  0  0  0
  5 32  1  0  0  0  0
  5 33  1  0  0  0  0
  6  7  1  0  0  0  0
  6 34  1  0  0  0  0
  6 35  1  0  0  0  0
  7  8  1  0  0  0  0
  7 36  1  0  0  0  0
  8  9  2  0  0  0  0
  8 10  1  0  0  0  0
 10 11  1  0  0  0  0
 10 37  1  0  0  0  0
 11 16  1  0  0  0  0
 11 12  2  0  0  0  0
 12 13  1  0  0  0  0
 12 38  1  0  0  0  0
 13 14  2  0  0  0  0
 13 39  1  0  0  0  0
 14 15  1  0  0  0  0
 14 40  1  0  0  0  0
 15 16  2  0  0  0  0
 15 55  1  0  0  0  0
 16 17  1  0  0  0  0
 17 21  1  0  0  0  0
 17 18  1  0  0  0  0
 18 19  1  0  0  0  0
 18 41  1  0  0  0  0
 18 42  1  0  0  0  0
 19 20  1  0  0  0  0
 19 43  1  0  0  0  0
 19 44  1  0  0  0  0
 20 21  1  0  0  0  0
 20 45  1  0  0  0  0
 20 46  1  0  0  0  0
 21 47  1  0  0  0  0
 21 48  1  0  0  0  0
 22 23  1  0  0  0  0
 22 49  1  0  0  0  0
 22 50  1  0  0  0  0
 23 24  1  0  0  0  0
 23 25  1  0  0  0  0
 23 51  1  0  0  0  0
 24 52  1  0  0  0  0
 24 53  1  0  0  0  0
 24 54  1  0  0  0  0
M  CHG  1  15   1
M  END
> <s_m_source_file>
AV-unprocessed.smi

> <i_m_source_file_index>
1244

> <i_lp_mmshare_version>
43012

> <i_f3d_flags>
0

> <s_epik_input>
W0NIM11bQ0BASF0xW0NIMl1OKFtDSDJdW0NASF0oTzEpW0NIM10pW0NIMl1bQ0gyXVtOSF1DKD1PKVtOSF1jMltjSF1bY0hdW2NIXW5jMk4zW0NIMl1bQ0gyXVtDSDJdW0NIMl0z

> <s_epik_cmdline>
J2VwaWtfcHl0aG9uJywgJy1waCcsICc3LjAnLCAnLXRuJywgJzgnLCAnLW1hJywgJzIwMCcsICctbWV0YWxfYmluZGluZycsICctaW1hZScsICc8aW5maWxlLm1hZT4nLCAnLW9tYWUnLCAnPG91dGZpbGUubWFlPic=

> <r_epik_Ionization_Penalty>
1.38385

> <r_epik_Ionization_Penalty_Charging>
1.11784

> <r_epik_Ionization_Penalty_Neutral>
0.26601

> <r_epik_State_Penalty>
1.46794

> <r_epik_Charging_Adjusted_Penalty>
2.58578

> <i_epik_Tot_Q>
1

> <i_epik_Tot_abs_Q>
1

> <r_epik_Metal_State_Penalty>
1.54908

> <b_epik_Metal_Only>
0

> <s_lp_Force_Field>
OPLS_2005

> <r_lp_Energy>
57.7362

> <b_lp_Chiralities_Consistent>
1

> <s_lp_Variant>
AV-unprocessed.smi:1244-9

> <Gold.Version>
5.8.1

> <Gold.Id.Protein>
6NUR|6NUR_protein|mol2

> <Gold.PLP.Fitness>
52.8145

> <Gold.PLP.PLP>
-46.3361

> <Gold.PLP.part.hbond>
-3.8774

> <Gold.PLP.part.metal>
0.0000

> <Gold.PLP.part.buried>
-5.1942

> <Gold.PLP.part.nonpolar>
-38.0080

> <Gold.PLP.part.repulsive>
1.2969

> <Gold.PLP.ligand.clash>
0.0000

> <Gold.PLP.ligand.torsion>
0.9058

> <Gold.PLP.Chemscore.Hbond>
2.7000

> <Gold.PLP.Chemscore.CHOScore>
0.0000

> <Gold.PLP.Chemscore.Metal>
0.0000

> <Gold.Chemscore.Hbonds>
donor molecule, donor type, donor heavy atom, donor atom, acceptor molecule, acceptor atom, score
      L1  H     7    36       P1  7948  1.00
      L1  H    10    37       P1  7948  0.65
      P1  H  7989  7998       L1     4  0.85

> <Gold.PLP.Chemscore.Internal.Correction>
0.1900

> <Gold.Rescore>
     Score         DG    S(hbond)    S(metal)    S(lipo)     H(rot)  DE(clash)    DE(int)     intcor
     13.74     -16.46       0.97        0.00     100.87       1.58       0.71       2.01       ----

> <Gold.Chemscore.Fitness>
13.7432

> <Gold.Chemscore.DG>
-16.4640

> <Gold.Chemscore.ZeroCoef>
-5.4800

> <Gold.Chemscore.Hbond>
0.9661

> <Gold.Chemscore.Metal>
0.0000

> <Gold.Chemscore.Lipo>
100.8654

> <Gold.Chemscore.Internal_Hbond>
0.0000

> <Gold.Chemscore.DEClash>
0.7136

> <Gold.Chemscore.DEInternal>
2.0072

> <Gold.Chemscore.Rot>
1.5797

> <Gold.Chemscore.Internal.Correction>
   9.000000E+99

> <Gold.Chemscore.Hbonds>
donor molecule, donor type, donor heavy atom, donor atom, acceptor molecule, acceptor atom, score
      L1  H     7    36       P1  7948  0.38
      L1  H    10    37       P1  7948  0.05
      P1  H  7989  7998       L1     4  0.10

> <Gold.Chemscore.Hbond.Weighted>
-3.2266

> <Gold.Chemscore.Metal.Weighted>
-0.0000

> <Gold.Chemscore.Lipo.Weighted>
-11.8013

> <Gold.Chemscore.Internal_Hbond.Weighted>
0.0000

> <Gold.Chemscore.DEClash.Weighted>
0.7136

> <Gold.Chemscore.DEInternal.Weighted>
2.0072

> <Gold.Chemscore.Rot.Weighted>
4.0439

> <Gold.Chemscore.Internal.Correction.Weighted>
   9.000000E+99

> <Gold.Protein.RotatedTorsions>
[ 6907 6896 6895 6894 ] final  -54.99 input  -60.11 | X-H torsion
[ 7974 7965 7964 7962 ] final -161.36 input  175.53 | X-H torsion
[ 8008 7997 7996 7995 ] final  -53.94 input   59.86 | X-H torsion
[ 10167 10162 10161 10158 ] final -173.36 input  -65.29 | X-H torsion
[ 10718 10713 10712 10709 ] final   28.65 input   66.30 | X-H torsion
[ 10763 10752 10751 10750 ] final -107.88 input  -60.55 | X-H torsion
[ 11005 11000 10999 10996 ] final    1.11 input  -57.11 | X-H torsion

> <Gold.Protein.ActiveResidues>
 VAL166  LYS551  ARG553  GLY616  TRP617  ASP618  TYR619  PRO620  LYS621  CYS622 
 ASP623  PHE694  ASN695  SER759  ASP760  ASP761  ALA762  ILE779  LEU786  VAL792 
 PHE793  MET794  SER795  GLU796  ALA797  LYS798  CYS799  TRP800  GLU811  SER814 

> <Gold.Protein.RotatedAtoms>
  150.8290  134.7534  159.6836 H   0  0  0  0  0  0  0  0  0  0  0  0  # atno 6907 bound_to 6896
  152.4397  134.5613  159.9904 H   0  0  0  0  0  0  0  0  0  0  0  0  # atno 6908 bound_to 6896
  151.5778  133.3344  159.3038 H   0  0  0  0  0  0  0  0  0  0  0  0  # atno 6909 bound_to 6896
  144.7394  140.3408  143.6135 H   0  0  0  0  0  0  0  0  0  0  0  0  # atno 7974 bound_to 7965
  154.4148  140.1188  156.5235 H   0  0  0  0  0  0  0  0  0  0  0  0  # atno 8008 bound_to 7997
  155.6678  140.3496  155.4787 H   0  0  0  0  0  0  0  0  0  0  0  0  # atno 8009 bound_to 7997
  155.9659  140.1132  157.0845 H   0  0  0  0  0  0  0  0  0  0  0  0  # atno 8010 bound_to 7997
  139.5693  144.1680  152.1359 H   0  0  0  0  0  0  0  0  0  0  0  0  # atno 10167 bound_to 10162
  157.2363  130.7048  149.6337 H   0  0  0  0  0  0  0  0  0  0  0  0  # atno 10718 bound_to 10713
  154.8102  135.4658  154.0497 H   0  0  0  0  0  0  0  0  0  0  0  0  # atno 10763 bound_to 10752
  153.1934  135.6858  153.8330 H   0  0  0  0  0  0  0  0  0  0  0  0  # atno 10764 bound_to 10752
  153.7840  135.3252  155.3347 H   0  0  0  0  0  0  0  0  0  0  0  0  # atno 10765 bound_to 10752
  140.6191  133.9678  155.8216 H   0  0  0  0  0  0  0  0  0  0  0  0  # atno 11005 bound_to 11000
  145.7376  139.1754  143.2394 LP  0  0  0  0  0  0  0  0  0  0  0  0  # atno 17320 bound_to 7965
  146.1159  140.7370  142.9481 LP  0  0  0  0  0  0  0  0  0  0  0  0  # atno 17321 bound_to 7965
  140.1210  144.5373  150.6863 LP  0  0  0  0  0  0  0  0  0  0  0  0  # atno 17342 bound_to 10162
  140.6977  143.2414  151.4954 LP  0  0  0  0  0  0  0  0  0  0  0  0  # atno 17343 bound_to 10162
  155.9672  130.4472  150.5573 LP  0  0  0  0  0  0  0  0  0  0  0  0  # atno 17370 bound_to 10713
  157.3426  131.0719  151.1776 LP  0  0  0  0  0  0  0  0  0  0  0  0  # atno 17371 bound_to 10713
  141.0755  134.0142  157.3464 LP  0  0  0  0  0  0  0  0  0  0  0  0  # atno 17394 bound_to 11000
  139.9160  135.0197  156.7884 LP  0  0  0  0  0  0  0  0  0  0  0  0  # atno 17395 bound_to 11000

$$$$
