AV-unprocessed.smi:824|AV-procd|sdf|3849|dock8
  -GOLD-   22720 1293D 1   1.00000     0.00000
 Structure written by MMmdl.
 52 53  0  0  0  0  0  0  0  0  1 V2000
  152.8906  137.8664  158.7481 C   0  0  0  0  0  0  0  0  0  0  0  0
  152.3312  138.9928  157.8967 C   0  0  0  0  0  0  0  0  0  0  0  0
  152.3871  140.2420  158.4873 N   0  0  0  0  0  0  0  0  0  0  0  0
  151.8963  141.3418  157.7947 C   0  0  0  0  0  0  0  0  0  0  0  0
  152.0084  142.5485  158.4815 N   0  0  0  0  0  0  0  0  0  0  0  0
  151.8236  142.5634  159.9321 C   0  0  0  0  0  0  0  0  0  0  0  0
  152.4252  143.8329  160.5584 C   0  0  0  0  0  0  0  0  0  0  0  0
  151.8616  144.9835  159.9425 O   0  0  0  0  0  0  0  0  0  0  0  0
  152.1455  145.0201  158.5499 C   0  0  0  0  0  0  0  0  0  0  0  0
  151.5332  143.7867  157.8653 C   0  0  0  0  0  0  0  0  0  0  0  0
  151.3833  141.2595  156.6010 N   0  0  0  0  0  0  0  0  0  0  0  0
  151.2924  140.0190  155.9521 C   0  0  0  0  0  0  0  0  0  0  0  0
  150.7981  139.9376  154.8285 O   0  0  0  0  0  0  0  0  0  0  0  0
  151.8009  138.8266  156.6616 C   0  0  0  0  0  0  0  0  0  0  0  0
  151.7170  137.4710  155.9654 C   0  0  0  0  0  0  0  0  0  0  0  0
  150.2638  137.0902  155.6191 C   0  0  0  0  0  0  0  0  0  0  0  0
  150.0038  135.5722  155.6038 C   0  0  0  0  0  0  0  0  0  0  0  0
  150.9535  134.8031  155.7652 O   0  0  0  0  0  0  0  0  0  0  0  0
  148.7454  135.1167  155.3860 N   0  0  0  0  0  0  0  0  0  0  0  0
  147.6305  136.0663  155.3020 C   0  0  0  0  0  0  0  0  0  0  0  0
  148.3766  133.6948  155.2894 C   0  0  0  0  0  0  0  0  0  0  0  0
  148.8636  133.0243  153.9817 C   0  0  0  0  0  0  0  0  0  0  0  0
  148.0187  133.4179  152.7581 C   0  0  0  0  0  0  0  0  0  0  0  0
  148.8990  131.4972  154.1404 C   0  0  0  0  0  0  0  0  0  0  0  0
  152.7913  140.3122  159.4098 H   0  0  0  0  0  0  0  0  0  0  0  0
  152.1453  137.0819  158.8810 H   0  0  0  0  0  0  0  0  0  0  0  0
  153.1860  138.2182  159.7372 H   0  0  0  0  0  0  0  0  0  0  0  0
  153.7691  137.4308  158.2715 H   0  0  0  0  0  0  0  0  0  0  0  0
  152.2785  141.6858  160.3926 H   0  0  0  0  0  0  0  0  0  0  0  0
  150.7558  142.5141  160.1494 H   0  0  0  0  0  0  0  0  0  0  0  0
  152.2106  143.8619  161.6267 H   0  0  0  0  0  0  0  0  0  0  0  0
  153.5111  143.8424  160.4517 H   0  0  0  0  0  0  0  0  0  0  0  0
  151.7251  145.9320  158.1259 H   0  0  0  0  0  0  0  0  0  0  0  0
  153.2236  145.0600  158.3869 H   0  0  0  0  0  0  0  0  0  0  0  0
  150.4450  143.8244  157.9334 H   0  0  0  0  0  0  0  0  0  0  0  0
  151.7872  143.7993  156.8042 H   0  0  0  0  0  0  0  0  0  0  0  0
  152.1568  136.7030  156.6018 H   0  0  0  0  0  0  0  0  0  0  0  0
  152.3348  137.4862  155.0660 H   0  0  0  0  0  0  0  0  0  0  0  0
  149.6029  137.5718  156.3373 H   0  0  0  0  0  0  0  0  0  0  0  0
  150.0089  137.4898  154.6370 H   0  0  0  0  0  0  0  0  0  0  0  0
  147.8330  136.8409  154.5607 H   0  0  0  0  0  0  0  0  0  0  0  0
  147.4708  136.5508  156.2662 H   0  0  0  0  0  0  0  0  0  0  0  0
  146.6940  135.5884  155.0132 H   0  0  0  0  0  0  0  0  0  0  0  0
  148.7615  133.1499  156.1520 H   0  0  0  0  0  0  0  0  0  0  0  0
  147.2940  133.5864  155.3700 H   0  0  0  0  0  0  0  0  0  0  0  0
  149.8844  133.3460  153.7790 H   0  0  0  0  0  0  0  0  0  0  0  0
  146.9690  133.1591  152.9006 H   0  0  0  0  0  0  0  0  0  0  0  0
  148.3672  132.9068  151.8602 H   0  0  0  0  0  0  0  0  0  0  0  0
  148.0762  134.4880  152.5590 H   0  0  0  0  0  0  0  0  0  0  0  0
  147.9040  131.0957  154.3355 H   0  0  0  0  0  0  0  0  0  0  0  0
  149.5454  131.2026  154.9675 H   0  0  0  0  0  0  0  0  0  0  0  0
  149.2812  131.0161  153.2396 H   0  0  0  0  0  0  0  0  0  0  0  0
  1 26  1  0  0  0  0
  1 27  1  0  0  0  0
  1 28  1  0  0  0  0
  1  2  1  0  0  0  0
  2 14  2  0  0  0  0
  2  3  1  0  0  0  0
  3 25  1  0  0  0  0
  3  4  1  0  0  0  0
  4  5  1  0  0  0  0
  4 11  2  0  0  0  0
  5 10  1  0  0  0  0
  5  6  1  0  0  0  0
  6  7  1  0  0  0  0
  6 29  1  0  0  0  0
  6 30  1  0  0  0  0
  7  8  1  0  0  0  0
  7 31  1  0  0  0  0
  7 32  1  0  0  0  0
  8  9  1  0  0  0  0
  9 10  1  0  0  0  0
  9 33  1  0  0  0  0
  9 34  1  0  0  0  0
 10 35  1  0  0  0  0
 10 36  1  0  0  0  0
 11 12  1  0  0  0  0
 12 13  2  0  0  0  0
 12 14  1  0  0  0  0
 14 15  1  0  0  0  0
 15 16  1  0  0  0  0
 15 37  1  0  0  0  0
 15 38  1  0  0  0  0
 16 17  1  0  0  0  0
 16 39  1  0  0  0  0
 16 40  1  0  0  0  0
 17 18  2  0  0  0  0
 17 19  1  0  0  0  0
 19 20  1  0  0  0  0
 19 21  1  0  0  0  0
 20 41  1  0  0  0  0
 20 42  1  0  0  0  0
 20 43  1  0  0  0  0
 21 22  1  0  0  0  0
 21 44  1  0  0  0  0
 21 45  1  0  0  0  0
 22 23  1  0  0  0  0
 22 24  1  0  0  0  0
 22 46  1  0  0  0  0
 23 47  1  0  0  0  0
 23 48  1  0  0  0  0
 23 49  1  0  0  0  0
 24 50  1  0  0  0  0
 24 51  1  0  0  0  0
 24 52  1  0  0  0  0
M  END
> <s_m_source_file>
AV-unprocessed.smi

> <i_m_source_file_index>
824

> <i_lp_mmshare_version>
43012

> <i_f3d_flags>
0

> <s_epik_input>
W0NIMl0xW0NIMl1PW0NIMl1bQ0gyXU4xYyhuYzJbQ0gzXSlbbkhdYyg9TyljMltDSDJdW0NIMl1DKD1PKU4oW0NIM10pW0NIMl1bQ0hdKFtDSDNdKVtDSDNd

> <s_epik_cmdline>
J2VwaWtfcHl0aG9uJywgJy1waCcsICc3LjAnLCAnLXRuJywgJzgnLCAnLW1hJywgJzIwMCcsICctbWV0YWxfYmluZGluZycsICctaW1hZScsICc8aW5maWxlLm1hZT4nLCAnLW9tYWUnLCAnPG91dGZpbGUubWFlPic=

> <r_lp_tautomer_probability>
0.108306

> <r_epik_Ionization_Penalty>
0.0729191

> <r_epik_Ionization_Penalty_Charging>
0.0597558

> <r_epik_Ionization_Penalty_Neutral>
0.0131634

> <r_epik_State_Penalty>
1.71329

> <r_epik_Charging_Adjusted_Penalty>
1.77304

> <i_epik_Tot_Q>
0

> <i_epik_Tot_abs_Q>
0

> <r_epik_Metal_State_Penalty>
2.71696

> <b_epik_Metal_Only>
0

> <s_lp_Force_Field>
OPLS_2005

> <r_lp_Energy>
37.7489

> <b_lp_Chiralities_Consistent>
1

> <s_lp_Variant>
AV-unprocessed.smi:824-2

> <Gold.Version>
5.8.1

> <Gold.Id.Protein>
6NUR|6NUR_protein|mol2

> <Gold.PLP.Fitness>
44.7892

> <Gold.PLP.PLP>
-40.3762

> <Gold.PLP.part.hbond>
-2.0000

> <Gold.PLP.part.metal>
0.0000

> <Gold.PLP.part.buried>
-4.1412

> <Gold.PLP.part.nonpolar>
-34.0722

> <Gold.PLP.part.repulsive>
0.3248

> <Gold.PLP.ligand.clash>
0.0000

> <Gold.PLP.ligand.torsion>
0.7214

> <Gold.PLP.Chemscore.Hbond>
1.8320

> <Gold.PLP.Chemscore.CHOScore>
0.0000

> <Gold.PLP.Chemscore.Metal>
0.0000

> <Gold.Chemscore.Hbonds>
donor molecule, donor type, donor heavy atom, donor atom, acceptor molecule, acceptor atom, score
      P1  H  7989  7998       L1    13  1.00
      P1  H 10752 10763       L1    18  0.18

> <Gold.PLP.Chemscore.Internal.Correction>
0.3598

> <Gold.Rescore>
     Score         DG    S(hbond)    S(metal)    S(lipo)     H(rot)  DE(clash)    DE(int)     intcor
     15.46     -17.37       1.48        0.00      96.64       1.71       0.17       1.73       ----

> <Gold.Chemscore.Fitness>
15.4638

> <Gold.Chemscore.DG>
-17.3654

> <Gold.Chemscore.ZeroCoef>
-5.4800

> <Gold.Chemscore.Hbond>
1.4832

> <Gold.Chemscore.Metal>
0.0000

> <Gold.Chemscore.Lipo>
96.6444

> <Gold.Chemscore.Internal_Hbond>
0.0000

> <Gold.Chemscore.DEClash>
0.1667

> <Gold.Chemscore.DEInternal>
1.7348

> <Gold.Chemscore.Rot>
1.7093

> <Gold.Chemscore.Internal.Correction>
   9.000000E+99

> <Gold.Chemscore.Hbonds>
donor molecule, donor type, donor heavy atom, donor atom, acceptor molecule, acceptor atom, score
      P1  H  7989  7998       L1    13  0.94
      P1  H 10752 10763       L1    18  0.17

> <Gold.Chemscore.Hbond.Weighted>
-4.9539

> <Gold.Chemscore.Metal.Weighted>
-0.0000

> <Gold.Chemscore.Lipo.Weighted>
-11.3074

> <Gold.Chemscore.Internal_Hbond.Weighted>
0.0000

> <Gold.Chemscore.DEClash.Weighted>
0.1667

> <Gold.Chemscore.DEInternal.Weighted>
1.7348

> <Gold.Chemscore.Rot.Weighted>
4.3759

> <Gold.Chemscore.Internal.Correction.Weighted>
   9.000000E+99

> <Gold.Protein.RotatedTorsions>
[ 6907 6896 6895 6894 ] final -141.44 input  -60.11 | X-H torsion
[ 7974 7965 7964 7962 ] final -125.00 input  175.53 | X-H torsion
[ 8008 7997 7996 7995 ] final  159.90 input   59.86 | X-H torsion
[ 10167 10162 10161 10158 ] final -169.33 input  -65.29 | X-H torsion
[ 10718 10713 10712 10709 ] final -102.31 input   66.30 | X-H torsion
[ 10763 10752 10751 10750 ] final   80.08 input  -60.55 | X-H torsion
[ 11005 11000 10999 10996 ] final   13.94 input  -57.11 | X-H torsion

> <Gold.Protein.ActiveResidues>
 VAL166  LYS551  ARG553  GLY616  TRP617  ASP618  TYR619  PRO620  LYS621  CYS622 
 ASP623  PHE694  ASN695  SER759  ASP760  ASP761  ALA762  ILE779  LEU786  VAL792 
 PHE793  MET794  SER795  GLU796  ALA797  LYS798  CYS799  TRP800  GLU811  SER814 

> <Gold.Protein.RotatedAtoms>
  151.0739  133.5444  159.2624 H   0  0  0  0  0  0  0  0  0  0  0  0  # atno 6907 bound_to 6896
  151.2373  135.0575  159.9021 H   0  0  0  0  0  0  0  0  0  0  0  0  # atno 6908 bound_to 6896
  152.5415  134.0519  159.8167 H   0  0  0  0  0  0  0  0  0  0  0  0  # atno 6909 bound_to 6896
  145.0022  140.7831  143.4489 H   0  0  0  0  0  0  0  0  0  0  0  0  # atno 7974 bound_to 7965
  156.2208  140.1819  156.7480 H   0  0  0  0  0  0  0  0  0  0  0  0  # atno 8008 bound_to 7997
  154.5863  140.0658  156.9204 H   0  0  0  0  0  0  0  0  0  0  0  0  # atno 8009 bound_to 7997
  155.2414  140.3322  155.4294 H   0  0  0  0  0  0  0  0  0  0  0  0  # atno 8010 bound_to 7997
  139.5929  144.1174  152.1656 H   0  0  0  0  0  0  0  0  0  0  0  0  # atno 10167 bound_to 10162
  156.0224  130.5414  150.7090 H   0  0  0  0  0  0  0  0  0  0  0  0  # atno 10718 bound_to 10713
  153.1004  135.4816  154.8856 H   0  0  0  0  0  0  0  0  0  0  0  0  # atno 10763 bound_to 10752
  154.7372  135.3074  154.8793 H   0  0  0  0  0  0  0  0  0  0  0  0  # atno 10764 bound_to 10752
  153.9411  135.6834  153.4797 H   0  0  0  0  0  0  0  0  0  0  0  0  # atno 10765 bound_to 10752
  140.4750  134.0992  155.7740 H   0  0  0  0  0  0  0  0  0  0  0  0  # atno 11005 bound_to 11000
  145.2137  139.2192  143.5129 LP  0  0  0  0  0  0  0  0  0  0  0  0  # atno 17320 bound_to 7965
  146.3454  140.1981  142.8589 LP  0  0  0  0  0  0  0  0  0  0  0  0  # atno 17321 bound_to 7965
  140.0752  144.5746  150.7162 LP  0  0  0  0  0  0  0  0  0  0  0  0  # atno 17342 bound_to 10162
  140.7188  143.2569  151.4346 LP  0  0  0  0  0  0  0  0  0  0  0  0  # atno 17343 bound_to 10162
  157.4733  131.0895  151.0619 LP  0  0  0  0  0  0  0  0  0  0  0  0  # atno 17370 bound_to 10713
  157.1073  130.6007  149.5474 LP  0  0  0  0  0  0  0  0  0  0  0  0  # atno 17371 bound_to 10713
  141.1558  133.8884  157.1979 LP  0  0  0  0  0  0  0  0  0  0  0  0  # atno 17394 bound_to 11000
  139.9861  135.0081  156.9866 LP  0  0  0  0  0  0  0  0  0  0  0  0  # atno 17395 bound_to 11000

$$$$
