AV-unprocessed.smi:1261|AV-procd|sdf|5308|dock7
  -GOLD-   22720 4433D 1   1.00000     0.00000
 Structure written by MMmdl.
 50 51  0  0  0  0  0  0  0  0  2 V2000
  146.1902  131.8393  149.5568 C   0  0  0  0  0  0  0  0  0  0  0  0
  146.3857  133.0071  150.5341 C   0  0  1  0  0  0  0  0  0  0  0  0
  145.0379  133.6366  150.9304 C   0  0  0  0  0  0  0  0  0  0  0  0
  145.2183  134.7662  151.9612 C   0  0  2  0  0  0  0  0  0  0  0  0
  145.8009  136.0514  151.3464 C   0  0  0  0  0  0  0  0  0  0  0  0
  146.0432  134.2703  153.1655 C   0  0  0  0  0  0  0  0  0  0  0  0
  147.3459  133.6957  152.7393 N   0  3  1  0  0  0  0  0  0  0  0  0
  148.2152  133.3544  153.8939 C   0  0  0  0  0  0  0  0  0  0  0  0
  149.6370  133.9197  153.7412 C   0  0  0  0  0  0  0  0  0  0  0  0
  150.0052  134.8923  154.8732 C   0  0  0  0  0  0  0  0  0  0  0  0
  150.0735  136.2650  154.3893 N   0  0  0  0  0  0  0  0  0  0  0  0
  151.1032  137.1065  154.5861 C   0  0  0  0  0  0  0  0  0  0  0  0
  152.1031  136.7924  155.2309 O   0  0  0  0  0  0  0  0  0  0  0  0
  151.0255  138.5123  153.9649 C   0  0  0  0  0  0  0  0  0  0  0  0
  150.8101  139.6074  154.9251 N   0  0  0  0  0  0  0  0  0  0  0  0
  149.6310  140.3101  154.7276 N   0  0  0  0  0  0  0  0  0  0  0  0
  149.3266  141.2918  155.5076 C   0  0  0  0  0  0  0  0  0  0  0  0
  148.1512  141.9627  155.2743 O   0  0  0  0  0  0  0  0  0  0  0  0
  150.1956  141.6788  156.5975 C   0  0  0  0  0  0  0  0  0  0  0  0
  151.3434  140.9901  156.7804 C   0  0  0  0  0  0  0  0  0  0  0  0
  151.7221  139.8757  155.9098 C   0  0  0  0  0  0  0  0  0  0  0  0
  152.7695  139.2429  156.0419 O   0  0  0  0  0  0  0  0  0  0  0  0
  147.1597  132.5650  151.7912 C   0  0  0  0  0  0  0  0  0  0  0  0
  148.4006  142.8591  155.1101 H   0  0  0  0  0  0  0  0  0  0  0  0
  145.6002  131.0397  150.0056 H   0  0  0  0  0  0  0  0  0  0  0  0
  147.1483  131.4158  149.2538 H   0  0  0  0  0  0  0  0  0  0  0  0
  145.6750  132.1656  148.6527 H   0  0  0  0  0  0  0  0  0  0  0  0
  146.9807  133.7620  150.0186 H   0  0  0  0  0  0  0  0  0  0  0  0
  144.5185  134.0111  150.0474 H   0  0  0  0  0  0  0  0  0  0  0  0
  144.3939  132.8664  151.3575 H   0  0  0  0  0  0  0  0  0  0  0  0
  144.2258  135.0276  152.3307 H   0  0  0  0  0  0  0  0  0  0  0  0
  146.8167  135.9054  150.9797 H   0  0  0  0  0  0  0  0  0  0  0  0
  145.8304  136.8563  152.0811 H   0  0  0  0  0  0  0  0  0  0  0  0
  145.1929  136.3966  150.5096 H   0  0  0  0  0  0  0  0  0  0  0  0
  146.2063  135.0976  153.8577 H   0  0  0  0  0  0  0  0  0  0  0  0
  145.4824  133.5113  153.7138 H   0  0  0  0  0  0  0  0  0  0  0  0
  147.7858  133.7749  154.8045 H   0  0  0  0  0  0  0  0  0  0  0  0
  148.2388  132.2729  154.0366 H   0  0  0  0  0  0  0  0  0  0  0  0
  150.3637  133.1082  153.7204 H   0  0  0  0  0  0  0  0  0  0  0  0
  149.7218  134.4338  152.7827 H   0  0  0  0  0  0  0  0  0  0  0  0
  149.2534  134.8496  155.6617 H   0  0  0  0  0  0  0  0  0  0  0  0
  150.9538  134.6077  155.3317 H   0  0  0  0  0  0  0  0  0  0  0  0
  149.2867  136.6012  153.8525 H   0  0  0  0  0  0  0  0  0  0  0  0
  151.9506  138.6826  153.4111 H   0  0  0  0  0  0  0  0  0  0  0  0
  150.2366  138.5169  153.2107 H   0  0  0  0  0  0  0  0  0  0  0  0
  149.9255  142.4998  157.2455 H   0  0  0  0  0  0  0  0  0  0  0  0
  152.0010  141.2680  157.5911 H   0  0  0  0  0  0  0  0  0  0  0  0
  146.6325  131.7526  152.2943 H   0  0  0  0  0  0  0  0  0  0  0  0
  148.1273  132.1683  151.4862 H   0  0  0  0  0  0  0  0  0  0  0  0
  147.8208  134.4296  152.2332 H   0  0  0  0  0  0  0  0  0  0  0  0
  1  2  1  0  0  0  0
  1 25  1  0  0  0  0
  1 26  1  0  0  0  0
  1 27  1  0  0  0  0
  2 23  1  0  0  0  0
  2  3  1  0  0  0  0
  2 28  1  0  0  0  0
  3  4  1  0  0  0  0
  3 29  1  0  0  0  0
  3 30  1  0  0  0  0
  4  5  1  0  0  0  0
  4  6  1  0  0  0  0
  4 31  1  0  0  0  0
  5 32  1  0  0  0  0
  5 33  1  0  0  0  0
  5 34  1  0  0  0  0
  6  7  1  0  0  0  0
  6 35  1  0  0  0  0
  6 36  1  0  0  0  0
  7  8  1  0  0  0  0
  7 23  1  0  0  0  0
  7 50  1  0  0  0  0
  8  9  1  0  0  0  0
  8 37  1  0  0  0  0
  8 38  1  0  0  0  0
  9 10  1  0  0  0  0
  9 39  1  0  0  0  0
  9 40  1  0  0  0  0
 10 11  1  0  0  0  0
 10 41  1  0  0  0  0
 10 42  1  0  0  0  0
 11 12  1  0  0  0  0
 11 43  1  0  0  0  0
 12 13  2  0  0  0  0
 12 14  1  0  0  0  0
 14 44  1  0  0  0  0
 14 45  1  0  0  0  0
 14 15  1  0  0  0  0
 15 16  1  0  0  0  0
 15 21  1  0  0  0  0
 16 17  2  0  0  0  0
 17 18  1  0  0  0  0
 17 19  1  0  0  0  0
 18 24  1  0  0  0  0
 19 46  1  0  0  0  0
 19 20  2  0  0  0  0
 20 47  1  0  0  0  0
 20 21  1  0  0  0  0
 21 22  2  0  0  0  0
 23 48  1  0  0  0  0
 23 49  1  0  0  0  0
M  CHG  1   7   1
M  END
> <s_m_source_file>
AV-unprocessed.smi

> <i_m_source_file_index>
1261

> <i_lp_mmshare_version>
43012

> <i_f3d_flags>
0

> <s_epik_input>
W0NIM11bQ0BASF0xW0NIMl1bQ0BASF0oW0NIM10pW0NIMl1OKFtDSDJdMSlbQ0gyXVtDSDJdW0NIMl1bTkhdQyg9TylbQ0gyXW4yW25IXWMoPU8pW2NIXVtjSF1jMj1P

> <s_epik_cmdline>
J2VwaWtfcHl0aG9uJywgJy1waCcsICc3LjAnLCAnLXRuJywgJzgnLCAnLW1hJywgJzIwMCcsICctbWV0YWxfYmluZGluZycsICctaW1hZScsICc8aW5maWxlLm1hZT4nLCAnLW9tYWUnLCAnPG91dGZpbGUubWFlPic=

> <r_lp_tautomer_probability>
0.9996

> <r_epik_Ionization_Penalty>
2.1425

> <r_epik_Ionization_Penalty_Charging>
0.000312112

> <r_epik_Ionization_Penalty_Neutral>
2.14218

> <r_epik_State_Penalty>
1.71978

> <r_epik_Charging_Adjusted_Penalty>
1.72009

> <i_epik_Tot_Q>
1

> <i_epik_Tot_abs_Q>
1

> <r_epik_Metal_State_Penalty>
1.71978

> <b_epik_Metal_Only>
0

> <s_lp_Force_Field>
OPLS_2005

> <r_lp_Energy>
29.1446

> <b_lp_Chiralities_Consistent>
1

> <s_lp_Variant>
AV-unprocessed.smi:1261-8

> <Gold.Version>
5.8.1

> <Gold.Id.Protein>
6NUR|6NUR_protein|mol2

> <Gold.PLP.Fitness>
57.3546

> <Gold.PLP.PLP>
-45.3508

> <Gold.PLP.part.hbond>
-6.4332

> <Gold.PLP.part.metal>
0.0000

> <Gold.PLP.part.buried>
-2.1519

> <Gold.PLP.part.nonpolar>
-36.0596

> <Gold.PLP.part.repulsive>
0.2154

> <Gold.PLP.ligand.clash>
0.0000

> <Gold.PLP.ligand.torsion>
1.5461

> <Gold.PLP.Chemscore.Hbond>
5.0170

> <Gold.PLP.Chemscore.CHOScore>
0.0000

> <Gold.PLP.Chemscore.Metal>
0.0000

> <Gold.Chemscore.Hbonds>
donor molecule, donor type, donor heavy atom, donor atom, acceptor molecule, acceptor atom, score
      L1  H     7    50       P1  7948  1.59
      L1  H    11    43       P1  7948  0.48
      L1  H    18    24       P1  8028  1.00
      P1  H  7997  8010       L1    22  1.00
      P1  H 10752 10765       L1    13  1.00

> <Gold.PLP.Chemscore.Internal.Correction>
0.0449

> <Gold.Rescore>
     Score         DG    S(hbond)    S(metal)    S(lipo)     H(rot)  DE(clash)    DE(int)     intcor
     16.52     -19.73       3.81        0.00      81.70       3.14       0.49       2.73       ----

> <Gold.Chemscore.Fitness>
16.5159

> <Gold.Chemscore.DG>
-19.7320

> <Gold.Chemscore.ZeroCoef>
-5.4800

> <Gold.Chemscore.Hbond>
3.8079

> <Gold.Chemscore.Metal>
0.0000

> <Gold.Chemscore.Lipo>
81.7049

> <Gold.Chemscore.Internal_Hbond>
0.0000

> <Gold.Chemscore.DEClash>
0.4885

> <Gold.Chemscore.DEInternal>
2.7276

> <Gold.Chemscore.Rot>
3.1352

> <Gold.Chemscore.Internal.Correction>
   9.000000E+99

> <Gold.Chemscore.Hbonds>
donor molecule, donor type, donor heavy atom, donor atom, acceptor molecule, acceptor atom, score
      L1  H     7    50       P1  7948  0.31
      L1  H    11    43       P1  7948  0.43
      L1  H    18    24       P1  8028  0.95
      P1  H  7997  8010       L1    22  0.96
      P1  H 10752 10765       L1    13  0.88

> <Gold.Chemscore.Hbond.Weighted>
-12.7186

> <Gold.Chemscore.Metal.Weighted>
-0.0000

> <Gold.Chemscore.Lipo.Weighted>
-9.5595

> <Gold.Chemscore.Internal_Hbond.Weighted>
0.0000

> <Gold.Chemscore.DEClash.Weighted>
0.4885

> <Gold.Chemscore.DEInternal.Weighted>
2.7276

> <Gold.Chemscore.Rot.Weighted>
8.0260

> <Gold.Chemscore.Internal.Correction.Weighted>
   9.000000E+99

> <Gold.Protein.RotatedTorsions>
[ 6907 6896 6895 6894 ] final  -56.33 input  -60.11 | X-H torsion
[ 7974 7965 7964 7962 ] final   -0.12 input  175.53 | X-H torsion
[ 8008 7997 7996 7995 ] final   94.34 input   59.86 | X-H torsion
[ 10167 10162 10161 10158 ] final   49.22 input  -65.29 | X-H torsion
[ 10718 10713 10712 10709 ] final   22.50 input   66.30 | X-H torsion
[ 10763 10752 10751 10750 ] final -174.71 input  -60.55 | X-H torsion
[ 11005 11000 10999 10996 ] final   44.96 input  -57.11 | X-H torsion

> <Gold.Protein.ActiveResidues>
 VAL166  LYS551  ARG553  GLY616  TRP617  ASP618  TYR619  PRO620  LYS621  CYS622 
 ASP623  PHE694  ASN695  SER759  ASP760  ASP761  ALA762  ILE779  LEU786  VAL792 
 PHE793  MET794  SER795  GLU796  ALA797  LYS798  CYS799  TRP800  GLU811  SER814 

> <Gold.Protein.RotatedAtoms>
  150.8177  134.7368  159.6744 H   0  0  0  0  0  0  0  0  0  0  0  0  # atno 6907 bound_to 6896
  152.4295  134.5802  159.9955 H   0  0  0  0  0  0  0  0  0  0  0  0  # atno 6908 bound_to 6896
  151.5994  133.3320  159.3080 H   0  0  0  0  0  0  0  0  0  0  0  0  # atno 6909 bound_to 6896
  146.2430  140.1221  142.8340 H   0  0  0  0  0  0  0  0  0  0  0  0  # atno 7974 bound_to 7965
  156.0568  140.3301  155.7415 H   0  0  0  0  0  0  0  0  0  0  0  0  # atno 8008 bound_to 7997
  155.5516  140.0611  157.2866 H   0  0  0  0  0  0  0  0  0  0  0  0  # atno 8009 bound_to 7997
  154.4462  140.1893  156.0680 H   0  0  0  0  0  0  0  0  0  0  0  0  # atno 8010 bound_to 7997
  140.2851  144.3111  150.6254 H   0  0  0  0  0  0  0  0  0  0  0  0  # atno 10167 bound_to 10162
  157.1532  130.6684  149.6019 H   0  0  0  0  0  0  0  0  0  0  0  0  # atno 10718 bound_to 10713
  154.5930  135.2847  155.0616 H   0  0  0  0  0  0  0  0  0  0  0  0  # atno 10763 bound_to 10752
  154.1909  135.6441  153.5063 H   0  0  0  0  0  0  0  0  0  0  0  0  # atno 10764 bound_to 10752
  153.0128  135.5446  154.6622 H   0  0  0  0  0  0  0  0  0  0  0  0  # atno 10765 bound_to 10752
  140.1503  134.4469  155.8386 H   0  0  0  0  0  0  0  0  0  0  0  0  # atno 11005 bound_to 11000
  145.0397  140.8936  143.5059 LP  0  0  0  0  0  0  0  0  0  0  0  0  # atno 17320 bound_to 7965
  145.1300  139.2638  143.5544 LP  0  0  0  0  0  0  0  0  0  0  0  0  # atno 17321 bound_to 7965
  140.5779  143.2175  151.7482 LP  0  0  0  0  0  0  0  0  0  0  0  0  # atno 17342 bound_to 10162
  139.4952  144.4123  152.0068 LP  0  0  0  0  0  0  0  0  0  0  0  0  # atno 17343 bound_to 10162
  155.9767  130.4737  150.6543 LP  0  0  0  0  0  0  0  0  0  0  0  0  # atno 17370 bound_to 10713
  157.4201  131.0835  151.1139 LP  0  0  0  0  0  0  0  0  0  0  0  0  # atno 17371 bound_to 10713
  141.2198  133.6870  156.7410 LP  0  0  0  0  0  0  0  0  0  0  0  0  # atno 17394 bound_to 11000
  140.2612  134.8465  157.3760 LP  0  0  0  0  0  0  0  0  0  0  0  0  # atno 17395 bound_to 11000

$$$$
