AV-unprocessed.smi:22|AV-procd|sdf|171|dock2
  -GOLD-   2262015423D 1   1.00000     0.00000
 Structure written by MMmdl.
 56 59  0  0  0  0  0  0  0  0  2 V2000
  147.4029  131.8385  154.8795 C   0  0  0  0  0  0  0  0  0  0  0  0
  147.0644  133.2272  154.4690 N   0  3  2  0  0  0  0  0  0  0  0  0
  146.8960  133.3498  152.9891 C   0  0  0  0  0  0  0  0  0  0  0  0
  146.0077  132.2578  152.3626 C   0  0  0  0  0  0  0  0  0  0  0  0
  146.4091  132.0012  151.0331 O   0  0  0  0  0  0  0  0  0  0  0  0
  147.9907  134.2245  155.1004 C   0  0  0  0  0  0  0  0  0  0  0  0
  147.5416  135.6659  154.7599 C   0  0  0  0  0  0  0  0  0  0  0  0
  148.4503  136.7190  155.4128 C   0  0  0  0  0  0  0  0  0  0  0  0
  149.8478  136.5026  155.0432 N   0  0  0  0  0  0  0  0  0  0  0  0
  150.7264  137.5067  155.2932 C   0  0  0  0  0  0  0  0  0  0  0  0
  152.0616  137.2495  155.3231 N   0  0  0  0  0  0  0  0  0  0  0  0
  152.9338  138.2351  155.5536 C   0  0  0  0  0  0  0  0  0  0  0  0
  152.6916  139.5275  155.7793 N   0  0  0  0  0  0  0  0  0  0  0  0
  151.3537  139.7910  155.7621 C   0  0  0  0  0  0  0  0  0  0  0  0
  150.3128  138.8487  155.5262 C   0  0  0  0  0  0  0  0  0  0  0  0
  149.0776  139.4826  155.5903 N   0  0  0  0  0  0  0  0  0  0  0  0
  149.3720  140.7291  155.8411 C   0  0  0  0  0  0  0  0  0  0  0  0
  150.7156  141.0019  155.9684 N   0  0  0  0  0  0  0  0  0  0  0  0
  151.3192  142.2971  156.2451 C   0  0  0  0  0  0  0  0  0  0  0  0
  150.9736  142.8563  157.6453 C   0  0  2  0  0  0  0  0  0  0  0  0
  149.5886  143.1556  157.6921 O   0  0  0  0  0  0  0  0  0  0  0  0
  151.7480  144.1236  157.9856 C   0  0  0  0  0  0  0  0  0  0  0  0
  151.8322  144.0675  159.5049 C   0  0  0  0  0  0  0  0  0  0  0  0
  152.0565  142.6912  159.7597 O   0  0  0  0  0  0  0  0  0  0  0  0
  151.3112  141.9182  158.8230 C   0  0  0  0  0  0  0  0  0  0  0  0
  150.3559  135.1674  155.3456 C   0  0  0  0  0  0  0  0  0  0  0  0
  149.4809  134.0839  154.6944 C   0  0  0  0  0  0  0  0  0  0  0  0
  148.2883  131.4823  154.3516 H   0  0  0  0  0  0  0  0  0  0  0  0
  146.5818  131.1520  154.6780 H   0  0  0  0  0  0  0  0  0  0  0  0
  147.6035  131.7585  155.9464 H   0  0  0  0  0  0  0  0  0  0  0  0
  146.4301  134.3009  152.7348 H   0  0  0  0  0  0  0  0  0  0  0  0
  147.8791  133.3409  152.5160 H   0  0  0  0  0  0  0  0  0  0  0  0
  146.1120  131.3327  152.9301 H   0  0  0  0  0  0  0  0  0  0  0  0
  144.9488  132.5112  152.3930 H   0  0  0  0  0  0  0  0  0  0  0  0
  147.3429  131.8533  151.0211 H   0  0  0  0  0  0  0  0  0  0  0  0
  147.9418  134.0853  156.1820 H   0  0  0  0  0  0  0  0  0  0  0  0
  147.5508  135.8045  153.6776 H   0  0  0  0  0  0  0  0  0  0  0  0
  146.5182  135.8539  155.0802 H   0  0  0  0  0  0  0  0  0  0  0  0
  148.1322  137.7146  155.0995 H   0  0  0  0  0  0  0  0  0  0  0  0
  148.3507  136.6744  156.4983 H   0  0  0  0  0  0  0  0  0  0  0  0
  153.9748  137.9474  155.5558 H   0  0  0  0  0  0  0  0  0  0  0  0
  148.6115  141.4892  155.9470 H   0  0  0  0  0  0  0  0  0  0  0  0
  152.4001  142.1994  156.1368 H   0  0  0  0  0  0  0  0  0  0  0  0
  150.9981  142.9950  155.4706 H   0  0  0  0  0  0  0  0  0  0  0  0
  149.3629  143.6464  156.9167 H   0  0  0  0  0  0  0  0  0  0  0  0
  152.7568  144.0739  157.5731 H   0  0  0  0  0  0  0  0  0  0  0  0
  151.2822  145.0374  157.6139 H   0  0  0  0  0  0  0  0  0  0  0  0
  152.6328  144.6873  159.9087 H   0  0  0  0  0  0  0  0  0  0  0  0
  150.8908  144.3765  159.9617 H   0  0  0  0  0  0  0  0  0  0  0  0
  150.4174  141.5102  159.2972 H   0  0  0  0  0  0  0  0  0  0  0  0
  151.9306  141.0758  158.5180 H   0  0  0  0  0  0  0  0  0  0  0  0
  151.3849  135.0486  155.0075 H   0  0  0  0  0  0  0  0  0  0  0  0
  150.3671  135.0340  156.4282 H   0  0  0  0  0  0  0  0  0  0  0  0
  149.8786  133.1151  154.9970 H   0  0  0  0  0  0  0  0  0  0  0  0
  149.5823  134.1483  153.6098 H   0  0  0  0  0  0  0  0  0  0  0  0
  146.1519  133.4250  154.8549 H   0  0  0  0  0  0  0  0  0  0  0  0
  1  2  1  0  0  0  0
  1 28  1  0  0  0  0
  1 29  1  0  0  0  0
  1 30  1  0  0  0  0
  2  3  1  0  0  0  0
  2  6  1  0  0  0  0
  2 56  1  0  0  0  0
  3  4  1  0  0  0  0
  3 31  1  0  0  0  0
  3 32  1  0  0  0  0
  4  5  1  0  0  0  0
  4 33  1  0  0  0  0
  4 34  1  0  0  0  0
  5 35  1  0  0  0  0
  6 27  1  0  0  0  0
  6  7  1  0  0  0  0
  6 36  1  0  0  0  0
  7  8  1  0  0  0  0
  7 37  1  0  0  0  0
  7 38  1  0  0  0  0
  8  9  1  0  0  0  0
  8 39  1  0  0  0  0
  8 40  1  0  0  0  0
  9 10  1  0  0  0  0
  9 26  1  0  0  0  0
 10 15  1  0  0  0  0
 10 11  2  0  0  0  0
 11 12  1  0  0  0  0
 12 13  2  0  0  0  0
 12 41  1  0  0  0  0
 13 14  1  0  0  0  0
 14 18  1  0  0  0  0
 14 15  2  0  0  0  0
 15 16  1  0  0  0  0
 16 17  2  0  0  0  0
 17 18  1  0  0  0  0
 17 42  1  0  0  0  0
 18 19  1  0  0  0  0
 19 20  1  0  0  0  0
 19 43  1  0  0  0  0
 19 44  1  0  0  0  0
 20 25  1  0  0  0  0
 20 21  1  0  0  0  0
 20 22  1  0  0  0  0
 21 45  1  0  0  0  0
 22 23  1  0  0  0  0
 22 46  1  0  0  0  0
 22 47  1  0  0  0  0
 23 24  1  0  0  0  0
 23 48  1  0  0  0  0
 23 49  1  0  0  0  0
 24 25  1  0  0  0  0
 25 50  1  0  0  0  0
 25 51  1  0  0  0  0
 26 27  1  0  0  0  0
 26 52  1  0  0  0  0
 26 53  1  0  0  0  0
 27 54  1  0  0  0  0
 27 55  1  0  0  0  0
M  CHG  1   2   1
M  END
> <s_m_source_file>
AV-unprocessed.smi

> <i_m_source_file_index>
22

> <i_lp_mmshare_version>
43012

> <i_f3d_flags>
0

> <s_epik_input>
W09IXVtDSDJdW0NIMl1OKFtDSDNdKVtDSF0xW0NIMl1bQ0gyXU4oW0NIMl1bQ0gyXTEpYyhuW2NIXW4yKWMoYzIzKW5bY0hdbjNbQ0gyXVtDQEBdNChbT0hdKVtDSDJdW0NIMl1PW0NIMl00

> <s_epik_cmdline>
J2VwaWtfcHl0aG9uJywgJy1waCcsICc3LjAnLCAnLXRuJywgJzgnLCAnLW1hJywgJzIwMCcsICctbWV0YWxfYmluZGluZycsICctaW1hZScsICc8aW5maWxlLm1hZT4nLCAnLW9tYWUnLCAnPG91dGZpbGUubWFlPic=

> <r_lp_tautomer_probability>
1

> <r_epik_Ionization_Penalty>
0.00317524

> <r_epik_Ionization_Penalty_Charging>
0.00191487

> <r_epik_Ionization_Penalty_Neutral>
0.00126037

> <r_epik_State_Penalty>
-0

> <r_epik_Charging_Adjusted_Penalty>
0.00191487

> <i_epik_Tot_Q>
1

> <i_epik_Tot_abs_Q>
1

> <r_epik_Metal_State_Penalty>
-0

> <b_epik_Metal_Only>
0

> <s_lp_Force_Field>
OPLS_2005

> <r_lp_Energy>
48.0385

> <b_lp_Chiralities_Consistent>
1

> <s_lp_Variant>
AV-unprocessed.smi:22-3

> <Gold.Version>
5.8.1

> <Gold.Id.Protein>
6NUR|6NUR_protein|mol2

> <Gold.PLP.Fitness>
51.7626

> <Gold.PLP.PLP>
-41.9306

> <Gold.PLP.part.hbond>
-4.2164

> <Gold.PLP.part.metal>
0.0000

> <Gold.PLP.part.buried>
-6.6531

> <Gold.PLP.part.nonpolar>
-32.0514

> <Gold.PLP.part.repulsive>
0.3192

> <Gold.PLP.ligand.clash>
0.0000

> <Gold.PLP.ligand.torsion>
0.8865

> <Gold.PLP.Chemscore.Hbond>
3.7180

> <Gold.PLP.Chemscore.CHOScore>
0.0000

> <Gold.PLP.Chemscore.Metal>
0.0000

> <Gold.Chemscore.Hbonds>
donor molecule, donor type, donor heavy atom, donor atom, acceptor molecule, acceptor atom, score
      L1  H     5    35       P1 10747  0.93
      L1  H    21    45       P1  8028  1.00
      P1  H  7997  8008       L1    13  1.00
      P1  H 10752 10764       L1    11  0.85

> <Gold.PLP.Chemscore.Internal.Correction>
0.4510

> <Gold.Rescore>
     Score         DG    S(hbond)    S(metal)    S(lipo)     H(rot)  DE(clash)    DE(int)     intcor
     11.60     -16.03       2.91        0.00      89.22       3.76       1.16       3.27       ----

> <Gold.Chemscore.Fitness>
11.5975

> <Gold.Chemscore.DG>
-16.0274

> <Gold.Chemscore.ZeroCoef>
-5.4800

> <Gold.Chemscore.Hbond>
2.9132

> <Gold.Chemscore.Metal>
0.0000

> <Gold.Chemscore.Lipo>
89.2185

> <Gold.Chemscore.Internal_Hbond>
0.0000

> <Gold.Chemscore.DEClash>
1.1604

> <Gold.Chemscore.DEInternal>
3.2695

> <Gold.Chemscore.Rot>
3.7583

> <Gold.Chemscore.Internal.Correction>
   9.000000E+99

> <Gold.Chemscore.Hbonds>
donor molecule, donor type, donor heavy atom, donor atom, acceptor molecule, acceptor atom, score
      L1  H     5    35       P1 10747  0.85
      L1  H    21    45       P1  8028  0.88
      P1  H  7997  8008       L1    13  0.35
      P1  H 10752 10764       L1    11  0.65

> <Gold.Chemscore.Hbond.Weighted>
-9.7301

> <Gold.Chemscore.Metal.Weighted>
-0.0000

> <Gold.Chemscore.Lipo.Weighted>
-10.4386

> <Gold.Chemscore.Internal_Hbond.Weighted>
0.0000

> <Gold.Chemscore.DEClash.Weighted>
1.1604

> <Gold.Chemscore.DEInternal.Weighted>
3.2695

> <Gold.Chemscore.Rot.Weighted>
9.6213

> <Gold.Chemscore.Internal.Correction.Weighted>
   9.000000E+99

> <Gold.Protein.RotatedTorsions>
[ 6907 6896 6895 6894 ] final  123.49 input  -60.11 | X-H torsion
[ 7974 7965 7964 7962 ] final -154.05 input  175.53 | X-H torsion
[ 8008 7997 7996 7995 ] final  -32.31 input   59.86 | X-H torsion
[ 10167 10162 10161 10158 ] final -135.58 input  -65.29 | X-H torsion
[ 10718 10713 10712 10709 ] final  -85.77 input   66.30 | X-H torsion
[ 10763 10752 10751 10750 ] final  -63.07 input  -60.55 | X-H torsion
[ 11005 11000 10999 10996 ] final  -82.71 input  -57.11 | X-H torsion

> <Gold.Protein.ActiveResidues>
 VAL166  LYS551  ARG553  GLY616  TRP617  ASP618  TYR619  PRO620  LYS621  CYS622 
 ASP623  PHE694  ASN695  SER759  ASP760  ASP761  ALA762  ILE779  LEU786  VAL792 
 PHE793  MET794  SER795  GLU796  ALA797  LYS798  CYS799  TRP800  GLU811  SER814 

> <Gold.Protein.RotatedAtoms>
  152.4157  133.7034  159.6436 H   0  0  0  0  0  0  0  0  0  0  0  0  # atno 6907 bound_to 6896
  150.8034  133.8544  159.3223 H   0  0  0  0  0  0  0  0  0  0  0  0  # atno 6908 bound_to 6896
  151.6275  135.1028  160.0166 H   0  0  0  0  0  0  0  0  0  0  0  0  # atno 6909 bound_to 6896
  144.7709  140.4442  143.5908 H   0  0  0  0  0  0  0  0  0  0  0  0  # atno 7974 bound_to 7965
  154.4184  140.1741  156.1707 H   0  0  0  0  0  0  0  0  0  0  0  0  # atno 8008 bound_to 7997
  155.9762  140.3381  155.6597 H   0  0  0  0  0  0  0  0  0  0  0  0  # atno 8009 bound_to 7997
  155.6560  140.0695  157.2561 H   0  0  0  0  0  0  0  0  0  0  0  0  # atno 8010 bound_to 7997
  139.8764  143.6893  152.2633 H   0  0  0  0  0  0  0  0  0  0  0  0  # atno 10167 bound_to 10162
  155.9994  130.4742  150.4613 H   0  0  0  0  0  0  0  0  0  0  0  0  # atno 10718 bound_to 10713
  154.3095  135.6218  153.5459 H   0  0  0  0  0  0  0  0  0  0  0  0  # atno 10763 bound_to 10752
  152.9831  135.5697  154.5194 H   0  0  0  0  0  0  0  0  0  0  0  0  # atno 10764 bound_to 10752
  154.4840  135.2864  155.1525 H   0  0  0  0  0  0  0  0  0  0  0  0  # atno 10765 bound_to 10752
  141.1662  133.7258  156.8612 H   0  0  0  0  0  0  0  0  0  0  0  0  # atno 11005 bound_to 11000
  145.6326  139.1538  143.2960 LP  0  0  0  0  0  0  0  0  0  0  0  0  # atno 17320 bound_to 7965
  146.1855  140.6429  142.9169 LP  0  0  0  0  0  0  0  0  0  0  0  0  # atno 17321 bound_to 7965
  139.7236  144.7597  151.0915 LP  0  0  0  0  0  0  0  0  0  0  0  0  # atno 17342 bound_to 10162
  140.7752  143.5177  150.9575 LP  0  0  0  0  0  0  0  0  0  0  0  0  # atno 17343 bound_to 10162
  157.2637  131.0572  151.2304 LP  0  0  0  0  0  0  0  0  0  0  0  0  # atno 17370 bound_to 10713
  157.3409  130.7033  149.6381 LP  0  0  0  0  0  0  0  0  0  0  0  0  # atno 17371 bound_to 10713
  140.1847  134.9008  157.2990 LP  0  0  0  0  0  0  0  0  0  0  0  0  # atno 17394 bound_to 11000
  140.2356  134.3857  155.7502 LP  0  0  0  0  0  0  0  0  0  0  0  0  # atno 17395 bound_to 11000

$$$$
