AV-unprocessed.smi:22|AV-procd|sdf|170|dock2
  -GOLD-   2262015423D 1   1.00000     0.00000
 Structure written by MMmdl.
 56 59  0  0  0  0  0  0  0  0  2 V2000
  145.9046  130.2731  151.5013 C   0  0  0  0  0  0  0  0  0  0  0  0
  146.1811  131.6627  151.0550 N   0  3  1  0  0  0  0  0  0  0  0  0
  145.4022  131.9951  149.8301 C   0  0  0  0  0  0  0  0  0  0  0  0
  144.0473  132.6372  150.1699 C   0  0  0  0  0  0  0  0  0  0  0  0
  143.1396  132.4376  149.1072 O   0  0  0  0  0  0  0  0  0  0  0  0
  146.0627  132.7065  152.1218 C   0  0  0  0  0  0  0  0  0  0  0  0
  146.4408  134.0991  151.5612 C   0  0  0  0  0  0  0  0  0  0  0  0
  146.3236  135.1960  152.6308 C   0  0  0  0  0  0  0  0  0  0  0  0
  147.1305  134.8658  153.8039 N   0  0  0  0  0  0  0  0  0  0  0  0
  147.3764  135.8564  154.6988 C   0  0  0  0  0  0  0  0  0  0  0  0
  147.7965  135.5490  155.9554 N   0  0  0  0  0  0  0  0  0  0  0  0
  148.0503  136.5191  156.8388 C   0  0  0  0  0  0  0  0  0  0  0  0
  147.9479  137.8396  156.6797 N   0  0  0  0  0  0  0  0  0  0  0  0
  147.5192  138.1551  155.4243 C   0  0  0  0  0  0  0  0  0  0  0  0
  147.2159  137.2347  154.3814 C   0  0  0  0  0  0  0  0  0  0  0  0
  146.8033  137.9244  153.2471 N   0  0  0  0  0  0  0  0  0  0  0  0
  146.8663  139.1801  153.5975 C   0  0  0  0  0  0  0  0  0  0  0  0
  147.2803  139.4094  154.8902 N   0  0  0  0  0  0  0  0  0  0  0  0
  147.4326  140.7027  155.5388 C   0  0  0  0  0  0  0  0  0  0  0  0
  148.9084  141.1260  155.7221 C   0  0  1  0  0  0  0  0  0  0  0  0
  148.9470  142.3707  156.3991 O   0  0  0  0  0  0  0  0  0  0  0  0
  149.7546  140.1227  156.5003 C   0  0  0  0  0  0  0  0  0  0  0  0
  151.1386  140.3059  155.8941 C   0  0  0  0  0  0  0  0  0  0  0  0
  150.8512  140.4765  154.5166 O   0  0  0  0  0  0  0  0  0  0  0  0
  149.6752  141.2708  154.3925 C   0  0  0  0  0  0  0  0  0  0  0  0
  146.8324  133.5680  154.4036 C   0  0  0  0  0  0  0  0  0  0  0  0
  146.9498  132.4400  153.3655 C   0  0  0  0  0  0  0  0  0  0  0  0
  144.9136  130.1967  151.9513 H   0  0  0  0  0  0  0  0  0  0  0  0
  146.6450  129.9303  152.2238 H   0  0  0  0  0  0  0  0  0  0  0  0
  145.9452  129.5745  150.6660 H   0  0  0  0  0  0  0  0  0  0  0  0
  145.9875  132.6678  149.2009 H   0  0  0  0  0  0  0  0  0  0  0  0
  145.2225  131.1158  149.2123 H   0  0  0  0  0  0  0  0  0  0  0  0
  143.6258  132.2382  151.0923 H   0  0  0  0  0  0  0  0  0  0  0  0
  144.1724  133.7105  150.3148 H   0  0  0  0  0  0  0  0  0  0  0  0
  142.5254  133.1564  149.0956 H   0  0  0  0  0  0  0  0  0  0  0  0
  145.0244  132.7250  152.4580 H   0  0  0  0  0  0  0  0  0  0  0  0
  147.4644  134.0742  151.1838 H   0  0  0  0  0  0  0  0  0  0  0  0
  145.8153  134.3766  150.7141 H   0  0  0  0  0  0  0  0  0  0  0  0
  146.6509  136.1478  152.2096 H   0  0  0  0  0  0  0  0  0  0  0  0
  145.2810  135.3160  152.9290 H   0  0  0  0  0  0  0  0  0  0  0  0
  148.3840  136.1901  157.8119 H   0  0  0  0  0  0  0  0  0  0  0  0
  146.6030  139.9801  152.9205 H   0  0  0  0  0  0  0  0  0  0  0  0
  146.9010  141.4465  154.9439 H   0  0  0  0  0  0  0  0  0  0  0  0
  146.9255  140.6655  156.5041 H   0  0  0  0  0  0  0  0  0  0  0  0
  149.2055  143.0386  155.7822 H   0  0  0  0  0  0  0  0  0  0  0  0
  149.7320  140.2687  157.5811 H   0  0  0  0  0  0  0  0  0  0  0  0
  149.4181  139.1061  156.2951 H   0  0  0  0  0  0  0  0  0  0  0  0
  151.6244  141.2015  156.2844 H   0  0  0  0  0  0  0  0  0  0  0  0
  151.7933  139.4517  156.0674 H   0  0  0  0  0  0  0  0  0  0  0  0
  149.0969  140.9141  153.5396 H   0  0  0  0  0  0  0  0  0  0  0  0
  149.9524  142.3061  154.1868 H   0  0  0  0  0  0  0  0  0  0  0  0
  147.4978  133.3551  155.2398 H   0  0  0  0  0  0  0  0  0  0  0  0
  145.8208  133.5946  154.8107 H   0  0  0  0  0  0  0  0  0  0  0  0
  146.6687  131.5086  153.8570 H   0  0  0  0  0  0  0  0  0  0  0  0
  147.9935  132.3372  153.0645 H   0  0  0  0  0  0  0  0  0  0  0  0
  147.1524  131.6763  150.7767 H   0  0  0  0  0  0  0  0  0  0  0  0
  1  2  1  0  0  0  0
  1 28  1  0  0  0  0
  1 29  1  0  0  0  0
  1 30  1  0  0  0  0
  2  3  1  0  0  0  0
  2  6  1  0  0  0  0
  2 56  1  0  0  0  0
  3  4  1  0  0  0  0
  3 31  1  0  0  0  0
  3 32  1  0  0  0  0
  4  5  1  0  0  0  0
  4 33  1  0  0  0  0
  4 34  1  0  0  0  0
  5 35  1  0  0  0  0
  6 27  1  0  0  0  0
  6  7  1  0  0  0  0
  6 36  1  0  0  0  0
  7  8  1  0  0  0  0
  7 37  1  0  0  0  0
  7 38  1  0  0  0  0
  8  9  1  0  0  0  0
  8 39  1  0  0  0  0
  8 40  1  0  0  0  0
  9 10  1  0  0  0  0
  9 26  1  0  0  0  0
 10 15  1  0  0  0  0
 10 11  2  0  0  0  0
 11 12  1  0  0  0  0
 12 13  2  0  0  0  0
 12 41  1  0  0  0  0
 13 14  1  0  0  0  0
 14 18  1  0  0  0  0
 14 15  2  0  0  0  0
 15 16  1  0  0  0  0
 16 17  2  0  0  0  0
 17 18  1  0  0  0  0
 17 42  1  0  0  0  0
 18 19  1  0  0  0  0
 19 20  1  0  0  0  0
 19 43  1  0  0  0  0
 19 44  1  0  0  0  0
 20 25  1  0  0  0  0
 20 21  1  0  0  0  0
 20 22  1  0  0  0  0
 21 45  1  0  0  0  0
 22 23  1  0  0  0  0
 22 46  1  0  0  0  0
 22 47  1  0  0  0  0
 23 24  1  0  0  0  0
 23 48  1  0  0  0  0
 23 49  1  0  0  0  0
 24 25  1  0  0  0  0
 25 50  1  0  0  0  0
 25 51  1  0  0  0  0
 26 27  1  0  0  0  0
 26 52  1  0  0  0  0
 26 53  1  0  0  0  0
 27 54  1  0  0  0  0
 27 55  1  0  0  0  0
M  CHG  1   2   1
M  END
> <s_m_source_file>
AV-unprocessed.smi

> <i_m_source_file_index>
22

> <i_lp_mmshare_version>
43012

> <i_f3d_flags>
0

> <s_epik_input>
W09IXVtDSDJdW0NIMl1OKFtDSDNdKVtDSF0xW0NIMl1bQ0gyXU4oW0NIMl1bQ0gyXTEpYyhuW2NIXW4yKWMoYzIzKW5bY0hdbjNbQ0gyXVtDQEBdNChbT0hdKVtDSDJdW0NIMl1PW0NIMl00

> <s_epik_cmdline>
J2VwaWtfcHl0aG9uJywgJy1waCcsICc3LjAnLCAnLXRuJywgJzgnLCAnLW1hJywgJzIwMCcsICctbWV0YWxfYmluZGluZycsICctaW1hZScsICc8aW5maWxlLm1hZT4nLCAnLW9tYWUnLCAnPG91dGZpbGUubWFlPic=

> <r_lp_tautomer_probability>
1

> <r_epik_Ionization_Penalty>
0.00317524

> <r_epik_Ionization_Penalty_Charging>
0.00191487

> <r_epik_Ionization_Penalty_Neutral>
0.00126037

> <r_epik_State_Penalty>
-0

> <r_epik_Charging_Adjusted_Penalty>
0.00191487

> <i_epik_Tot_Q>
1

> <i_epik_Tot_abs_Q>
1

> <r_epik_Metal_State_Penalty>
-0

> <b_epik_Metal_Only>
0

> <s_lp_Force_Field>
OPLS_2005

> <r_lp_Energy>
47.7053

> <b_lp_Chiralities_Consistent>
1

> <s_lp_Variant>
AV-unprocessed.smi:22-2

> <Gold.Version>
5.8.1

> <Gold.Id.Protein>
6NUR|6NUR_protein|mol2

> <Gold.PLP.Fitness>
48.0683

> <Gold.PLP.PLP>
-32.7133

> <Gold.PLP.part.hbond>
-5.9918

> <Gold.PLP.part.metal>
0.0000

> <Gold.PLP.part.buried>
-6.8143

> <Gold.PLP.part.nonpolar>
-22.4027

> <Gold.PLP.part.repulsive>
0.4870

> <Gold.PLP.ligand.clash>
0.0000

> <Gold.PLP.ligand.torsion>
1.1849

> <Gold.PLP.Chemscore.Hbond>
4.7235

> <Gold.PLP.Chemscore.CHOScore>
0.9849

> <Gold.PLP.Chemscore.Metal>
0.0000

> <Gold.Chemscore.Hbonds>
donor molecule, donor type, donor heavy atom, donor atom, acceptor molecule, acceptor atom, score
      L1  H     2    56       P1 10747  0.93
      L1  H     5    35       P1 10186  1.00
      L1  H    21    45       P1  8028  0.67
      P1  H  7989  7998       L1    24  0.52
      P1  H 10785 10796       L1     5  0.26

> <Gold.PLP.Chemscore.Internal.Correction>
0.5996

> <Gold.Rescore>
     Score         DG    S(hbond)    S(metal)    S(lipo)     H(rot)  DE(clash)    DE(int)     intcor
     15.07     -18.86       4.19        0.00      77.12       3.76       0.08       3.71       ----

> <Gold.Chemscore.Fitness>
15.0673

> <Gold.Chemscore.DG>
-18.8608

> <Gold.Chemscore.ZeroCoef>
-5.4800

> <Gold.Chemscore.Hbond>
4.1852

> <Gold.Chemscore.Metal>
0.0000

> <Gold.Chemscore.Lipo>
77.1243

> <Gold.Chemscore.Internal_Hbond>
0.0000

> <Gold.Chemscore.DEClash>
0.0820

> <Gold.Chemscore.DEInternal>
3.7115

> <Gold.Chemscore.Rot>
3.7583

> <Gold.Chemscore.Internal.Correction>
   9.000000E+99

> <Gold.Chemscore.Hbonds>
donor molecule, donor type, donor heavy atom, donor atom, acceptor molecule, acceptor atom, score
      L1  H     2    56       P1 10747  0.87
      L1  H     5    35       P1 10186  0.94
      L1  H    21    45       P1  8028  0.68
      P1  H  7989  7998       L1    24  0.23
      P1  H 10785 10796       L1     5  0.12

> <Gold.Chemscore.Hbond.Weighted>
-13.9785

> <Gold.Chemscore.Metal.Weighted>
-0.0000

> <Gold.Chemscore.Lipo.Weighted>
-9.0235

> <Gold.Chemscore.Internal_Hbond.Weighted>
0.0000

> <Gold.Chemscore.DEClash.Weighted>
0.0820

> <Gold.Chemscore.DEInternal.Weighted>
3.7115

> <Gold.Chemscore.Rot.Weighted>
9.6213

> <Gold.Chemscore.Internal.Correction.Weighted>
   9.000000E+99

> <Gold.Protein.RotatedTorsions>
[ 6907 6896 6895 6894 ] final  -16.26 input  -60.11 | X-H torsion
[ 7974 7965 7964 7962 ] final   64.47 input  175.53 | X-H torsion
[ 8008 7997 7996 7995 ] final   72.05 input   59.86 | X-H torsion
[ 10167 10162 10161 10158 ] final   66.61 input  -65.29 | X-H torsion
[ 10718 10713 10712 10709 ] final  113.11 input   66.30 | X-H torsion
[ 10763 10752 10751 10750 ] final    7.54 input  -60.55 | X-H torsion
[ 11005 11000 10999 10996 ] final  -73.04 input  -57.11 | X-H torsion

> <Gold.Protein.ActiveResidues>
 VAL166  LYS551  ARG553  GLY616  TRP617  ASP618  TYR619  PRO620  LYS621  CYS622 
 ASP623  PHE694  ASN695  SER759  ASP760  ASP761  ALA762  ILE779  LEU786  VAL792 
 PHE793  MET794  SER795  GLU796  ALA797  LYS798  CYS799  TRP800  GLU811  SER814 

> <Gold.Protein.RotatedAtoms>
  151.3113  135.0795  159.9273 H   0  0  0  0  0  0  0  0  0  0  0  0  # atno 6907 bound_to 6896
  152.5277  133.9733  159.7782 H   0  0  0  0  0  0  0  0  0  0  0  0  # atno 6908 bound_to 6896
  151.0037  133.5980  159.2722 H   0  0  0  0  0  0  0  0  0  0  0  0  # atno 6909 bound_to 6896
  145.8499  139.3247  143.0881 H   0  0  0  0  0  0  0  0  0  0  0  0  # atno 7974 bound_to 7965
  155.7630  140.3486  155.5207 H   0  0  0  0  0  0  0  0  0  0  0  0  # atno 8008 bound_to 7997
  155.8896  140.1015  157.1449 H   0  0  0  0  0  0  0  0  0  0  0  0  # atno 8009 bound_to 7997
  154.4032  140.1307  156.4286 H   0  0  0  0  0  0  0  0  0  0  0  0  # atno 8010 bound_to 7997
  140.0985  144.4924  150.7052 H   0  0  0  0  0  0  0  0  0  0  0  0  # atno 10167 bound_to 10162
  157.6356  131.0978  150.6994 H   0  0  0  0  0  0  0  0  0  0  0  0  # atno 10718 bound_to 10713
  153.2352  135.6897  153.7845 H   0  0  0  0  0  0  0  0  0  0  0  0  # atno 10763 bound_to 10752
  153.6995  135.3300  155.3222 H   0  0  0  0  0  0  0  0  0  0  0  0  # atno 10764 bound_to 10752
  154.8331  135.4564  154.1252 H   0  0  0  0  0  0  0  0  0  0  0  0  # atno 10765 bound_to 10752
  141.1617  133.6865  156.7151 H   0  0  0  0  0  0  0  0  0  0  0  0  # atno 11005 bound_to 11000
  145.9370  140.9007  143.0327 LP  0  0  0  0  0  0  0  0  0  0  0  0  # atno 17320 bound_to 7965
  144.6729  140.1496  143.7431 LP  0  0  0  0  0  0  0  0  0  0  0  0  # atno 17321 bound_to 7965
  140.6990  143.2422  151.4918 LP  0  0  0  0  0  0  0  0  0  0  0  0  # atno 17342 bound_to 10162
  139.5684  144.1986  152.1800 LP  0  0  0  0  0  0  0  0  0  0  0  0  # atno 17343 bound_to 10162
  156.7326  130.4714  149.5496 LP  0  0  0  0  0  0  0  0  0  0  0  0  # atno 17370 bound_to 10713
  156.1592  130.6362  151.0697 LP  0  0  0  0  0  0  0  0  0  0  0  0  # atno 17371 bound_to 10713
  140.2858  134.8280  157.3973 LP  0  0  0  0  0  0  0  0  0  0  0  0  # atno 17394 bound_to 11000
  140.1391  134.4995  155.8045 LP  0  0  0  0  0  0  0  0  0  0  0  0  # atno 17395 bound_to 11000

$$$$
