AV-unprocessed.smi:2965|AV-procd|sdf|11322|dock4
  -GOLD-   2272016223D 1   1.00000     0.00000
 Structure written by MMmdl.
 36 37  0  0  0  0  0  0  0  0  1 V2000
  150.8711  140.9098  157.5463 O   0  0  0  0  0  0  0  0  0  0  0  0
  150.5382  142.0813  157.3602 C   0  0  0  0  0  0  0  0  0  0  0  0
  151.4612  143.2391  157.7672 C   0  0  0  0  0  0  0  0  0  0  0  0
  152.0096  143.1015  159.1270 N   0  0  0  0  0  0  0  0  0  0  0  0
  152.8626  142.0061  159.3666 C   0  0  0  0  0  0  0  0  0  0  0  0
  153.4210  141.7608  160.5676 C   0  0  0  0  0  0  0  0  0  0  0  0
  154.3865  140.6057  160.7833 C   0  0  0  0  0  0  0  0  0  0  0  0
  154.7422  140.5135  162.0648 F   0  0  0  0  0  0  0  0  0  0  0  0
  153.8064  139.4593  160.4309 F   0  0  0  0  0  0  0  0  0  0  0  0
  155.4916  140.7544  160.0515 F   0  0  0  0  0  0  0  0  0  0  0  0
  153.1271  142.7117  161.6216 C   0  0  0  0  0  0  0  0  0  0  0  0
  152.3240  143.7718  161.4058 C   0  0  0  0  0  0  0  0  0  0  0  0
  151.7092  144.0143  160.0989 C   0  0  0  0  0  0  0  0  0  0  0  0
  150.9713  144.9776  159.8905 O   0  0  0  0  0  0  0  0  0  0  0  0
  149.3628  142.4325  156.8178 N   0  0  0  0  0  0  0  0  0  0  0  0
  148.3313  141.5018  156.3746 C   0  0  0  0  0  0  0  0  0  0  0  0
  148.2929  141.3851  154.8419 C   0  0  2  0  0  0  0  0  0  0  0  0
  147.2101  142.2408  154.1880 C   0  0  0  0  0  0  0  0  0  0  0  0
  146.9994  141.5134  152.8801 C   0  0  0  0  0  0  0  0  0  0  0  0
  147.1267  140.0544  153.3093 C   0  0  0  0  0  0  0  0  0  0  0  0
  147.9881  140.0500  154.4455 O   0  0  0  0  0  0  0  0  0  0  0  0
  152.2733  143.3245  157.0424 H   0  0  0  0  0  0  0  0  0  0  0  0
  150.8990  144.1694  157.6746 H   0  0  0  0  0  0  0  0  0  0  0  0
  153.0425  141.3807  158.5042 H   0  0  0  0  0  0  0  0  0  0  0  0
  153.5561  142.5702  162.6028 H   0  0  0  0  0  0  0  0  0  0  0  0
  152.1259  144.4592  162.2154 H   0  0  0  0  0  0  0  0  0  0  0  0
  149.1638  143.4166  156.7101 H   0  0  0  0  0  0  0  0  0  0  0  0
  148.5344  140.5273  156.8195 H   0  0  0  0  0  0  0  0  0  0  0  0
  147.3587  141.8193  156.7541 H   0  0  0  0  0  0  0  0  0  0  0  0
  149.2597  141.6522  154.4118 H   0  0  0  0  0  0  0  0  0  0  0  0
  146.2924  142.2205  154.7776 H   0  0  0  0  0  0  0  0  0  0  0  0
  147.5111  143.2807  154.0566 H   0  0  0  0  0  0  0  0  0  0  0  0
  146.0412  141.7387  152.4111 H   0  0  0  0  0  0  0  0  0  0  0  0
  147.7939  141.7698  152.1778 H   0  0  0  0  0  0  0  0  0  0  0  0
  146.1562  139.6595  153.6119 H   0  0  0  0  0  0  0  0  0  0  0  0
  147.5159  139.4210  152.5121 H   0  0  0  0  0  0  0  0  0  0  0  0
  1  2  2  0  0  0  0
  2  3  1  0  0  0  0
  2 15  1  0  0  0  0
  3  4  1  0  0  0  0
  3 22  1  0  0  0  0
  3 23  1  0  0  0  0
  4 13  1  0  0  0  0
  4  5  1  0  0  0  0
  5  6  2  0  0  0  0
  5 24  1  0  0  0  0
  6  7  1  0  0  0  0
  6 11  1  0  0  0  0
  7  8  1  0  0  0  0
  7  9  1  0  0  0  0
  7 10  1  0  0  0  0
 11 12  2  0  0  0  0
 11 25  1  0  0  0  0
 12 13  1  0  0  0  0
 12 26  1  0  0  0  0
 13 14  2  0  0  0  0
 15 16  1  0  0  0  0
 15 27  1  0  0  0  0
 16 17  1  0  0  0  0
 16 28  1  0  0  0  0
 16 29  1  0  0  0  0
 17 21  1  0  0  0  0
 17 18  1  0  0  0  0
 17 30  1  0  0  0  0
 18 19  1  0  0  0  0
 18 31  1  0  0  0  0
 18 32  1  0  0  0  0
 19 20  1  0  0  0  0
 19 33  1  0  0  0  0
 19 34  1  0  0  0  0
 20 21  1  0  0  0  0
 20 35  1  0  0  0  0
 20 36  1  0  0  0  0
M  END
> <s_m_source_file>
AV-unprocessed.smi

> <i_m_source_file_index>
2965

> <i_lp_mmshare_version>
43012

> <i_f3d_flags>
0

> <s_epik_input>
TzFbQ0gyXVtDSDJdW0NIMl1bQ0BIXTFbQ0gyXVtOSF1DKD1PKVtDSDJdbjJbY0hdYyhDKEYpKEYpRilbY0hdW2NIXWMyPU8=

> <s_epik_cmdline>
J2VwaWtfcHl0aG9uJywgJy1waCcsICc3LjAnLCAnLXRuJywgJzgnLCAnLW1hJywgJzIwMCcsICctbWV0YWxfYmluZGluZycsICctaW1hZScsICc8aW5maWxlLm1hZT4nLCAnLW9tYWUnLCAnPG91dGZpbGUubWFlPic=

> <r_lp_tautomer_probability>
1

> <r_epik_Ionization_Penalty>
4.53327e-08

> <r_epik_Ionization_Penalty_Charging>
1.84737e-08

> <r_epik_Ionization_Penalty_Neutral>
2.6859e-08

> <r_epik_State_Penalty>
-0

> <r_epik_Charging_Adjusted_Penalty>
1.84737e-08

> <i_epik_Tot_Q>
0

> <i_epik_Tot_abs_Q>
0

> <r_epik_Metal_State_Penalty>
-0

> <b_epik_Metal_Only>
0

> <s_lp_Force_Field>
OPLS_2005

> <r_lp_Energy>
28.8202

> <b_lp_Chiralities_Consistent>
1

> <s_lp_Variant>
AV-unprocessed.smi:2965-1

> <Gold.Version>
5.8.1

> <Gold.Id.Protein>
6NUR|6NUR_protein|mol2

> <Gold.PLP.Fitness>
48.2017

> <Gold.PLP.PLP>
-46.8927

> <Gold.PLP.part.hbond>
-1.0000

> <Gold.PLP.part.metal>
0.0000

> <Gold.PLP.part.buried>
-5.9768

> <Gold.PLP.part.nonpolar>
-40.5803

> <Gold.PLP.part.repulsive>
0.2712

> <Gold.PLP.ligand.clash>
0.0000

> <Gold.PLP.ligand.torsion>
0.8622

> <Gold.PLP.Chemscore.Hbond>
0.9920

> <Gold.PLP.Chemscore.CHOScore>
0.0000

> <Gold.PLP.Chemscore.Metal>
0.0000

> <Gold.Chemscore.Hbonds>
donor molecule, donor type, donor heavy atom, donor atom, acceptor molecule, acceptor atom, score
      L1  H    15    27       P1  8028  0.98

> <Gold.PLP.Chemscore.Internal.Correction>
0.0574

> <Gold.Rescore>
     Score         DG    S(hbond)    S(metal)    S(lipo)     H(rot)  DE(clash)    DE(int)     intcor
     13.18     -15.43       1.00        0.00      97.48       1.87       0.28       1.97       ----

> <Gold.Chemscore.Fitness>
13.1783

> <Gold.Chemscore.DG>
-15.4343

> <Gold.Chemscore.ZeroCoef>
-5.4800

> <Gold.Chemscore.Hbond>
0.9975

> <Gold.Chemscore.Metal>
0.0000

> <Gold.Chemscore.Lipo>
97.4771

> <Gold.Chemscore.Internal_Hbond>
0.0000

> <Gold.Chemscore.DEClash>
0.2849

> <Gold.Chemscore.DEInternal>
1.9711

> <Gold.Chemscore.Rot>
1.8681

> <Gold.Chemscore.Internal.Correction>
   9.000000E+99

> <Gold.Chemscore.Hbonds>
donor molecule, donor type, donor heavy atom, donor atom, acceptor molecule, acceptor atom, score
      L1  H    15    27       P1  8028  0.89

> <Gold.Chemscore.Hbond.Weighted>
-3.3317

> <Gold.Chemscore.Metal.Weighted>
-0.0000

> <Gold.Chemscore.Lipo.Weighted>
-11.4048

> <Gold.Chemscore.Internal_Hbond.Weighted>
0.0000

> <Gold.Chemscore.DEClash.Weighted>
0.2849

> <Gold.Chemscore.DEInternal.Weighted>
1.9711

> <Gold.Chemscore.Rot.Weighted>
4.7822

> <Gold.Chemscore.Internal.Correction.Weighted>
   9.000000E+99

> <Gold.Protein.RotatedTorsions>
[ 6907 6896 6895 6894 ] final   81.39 input  -60.11 | X-H torsion
[ 7974 7965 7964 7962 ] final   65.73 input  175.53 | X-H torsion
[ 8008 7997 7996 7995 ] final -170.99 input   59.86 | X-H torsion
[ 10167 10162 10161 10158 ] final   56.64 input  -65.29 | X-H torsion
[ 10718 10713 10712 10709 ] final   69.71 input   66.30 | X-H torsion
[ 10763 10752 10751 10750 ] final  -49.74 input  -60.55 | X-H torsion
[ 11005 11000 10999 10996 ] final -129.51 input  -57.11 | X-H torsion

> <Gold.Protein.ActiveResidues>
 VAL166  LYS551  ARG553  GLY616  TRP617  ASP618  TYR619  PRO620  LYS621  CYS622 
 ASP623  PHE694  ASN695  SER759  ASP760  ASP761  ALA762  ILE779  LEU786  VAL792 
 PHE793  MET794  SER795  GLU796  ALA797  LYS798  CYS799  TRP800  GLU811  SER814 

> <Gold.Protein.RotatedAtoms>
  152.5267  134.3210  159.9148 H   0  0  0  0  0  0  0  0  0  0  0  0  # atno 6907 bound_to 6896
  151.3160  133.4054  159.2658 H   0  0  0  0  0  0  0  0  0  0  0  0  # atno 6908 bound_to 6896
  150.9999  134.9330  159.8005 H   0  0  0  0  0  0  0  0  0  0  0  0  # atno 6909 bound_to 6896
  145.8350  139.3161  143.0965 H   0  0  0  0  0  0  0  0  0  0  0  0  # atno 7974 bound_to 7965
  155.9256  140.1082  157.1173 H   0  0  0  0  0  0  0  0  0  0  0  0  # atno 8008 bound_to 7997
  154.4061  140.1247  156.4801 H   0  0  0  0  0  0  0  0  0  0  0  0  # atno 8009 bound_to 7997
  155.7143  140.3470  155.4990 H   0  0  0  0  0  0  0  0  0  0  0  0  # atno 8010 bound_to 7997
  140.2066  144.3933  150.6506 H   0  0  0  0  0  0  0  0  0  0  0  0  # atno 10167 bound_to 10162
  157.6361  130.9440  150.0551 H   0  0  0  0  0  0  0  0  0  0  0  0  # atno 10718 bound_to 10713
  154.0990  135.6566  153.4865 H   0  0  0  0  0  0  0  0  0  0  0  0  # atno 10763 bound_to 10752
  153.0295  135.5220  154.7305 H   0  0  0  0  0  0  0  0  0  0  0  0  # atno 10764 bound_to 10752
  154.6452  135.2993  155.0024 H   0  0  0  0  0  0  0  0  0  0  0  0  # atno 10765 bound_to 10752
  140.9425  134.1174  157.4137 H   0  0  0  0  0  0  0  0  0  0  0  0  # atno 11005 bound_to 11000
  145.9529  140.8895  143.0250 LP  0  0  0  0  0  0  0  0  0  0  0  0  # atno 17320 bound_to 7965
  144.6737  140.1704  143.7415 LP  0  0  0  0  0  0  0  0  0  0  0  0  # atno 17321 bound_to 7965
  140.6353  143.2194  151.6408 LP  0  0  0  0  0  0  0  0  0  0  0  0  # atno 17342 bound_to 10162
  139.5196  144.3248  152.0879 LP  0  0  0  0  0  0  0  0  0  0  0  0  # atno 17343 bound_to 10162
  156.1601  130.3644  149.9312 LP  0  0  0  0  0  0  0  0  0  0  0  0  # atno 17370 bound_to 10713
  156.7312  130.9044  151.3626 LP  0  0  0  0  0  0  0  0  0  0  0  0  # atno 17371 bound_to 10713
  139.8824  135.0041  156.6228 LP  0  0  0  0  0  0  0  0  0  0  0  0  # atno 17394 bound_to 11000
  140.7714  133.8735  155.8495 LP  0  0  0  0  0  0  0  0  0  0  0  0  # atno 17395 bound_to 11000

$$$$
