AV-unprocessed.smi:3116|AV-procd|sdf|11863|dock6
  -GOLD-   2272017243D 1   1.00000     0.00000
 Structure written by MMmdl.
 34 34  0  0  0  0  0  0  0  0  2 V2000
  151.5968  138.0574  154.0625 C   0  0  0  0  0  0  0  0  0  0  0  0
  150.1460  138.1922  154.5492 C   0  0  1  0  0  0  0  0  0  0  0  0
  149.2957  138.7049  153.4483 N   0  3  0  0  0  0  0  0  0  0  0  0
  148.0435  139.3846  153.8591 C   0  0  2  0  0  0  0  0  0  0  0  0
  147.0061  139.2309  152.7315 C   0  0  0  0  0  0  0  0  0  0  0  0
  148.3209  140.8687  154.2251 C   0  0  2  0  0  0  0  0  0  0  0  0
  149.4702  141.0391  155.2369 C   0  0  0  0  0  0  0  0  0  0  0  0
  147.1248  141.5421  154.7150 N   0  0  0  0  0  0  0  0  0  0  0  0
  146.4653  142.6219  154.1642 C   0  0  0  0  0  0  0  0  0  0  0  0
  145.3982  142.9027  154.9684 C   0  0  0  0  0  0  0  0  0  0  0  0
  145.4889  141.9304  156.0028 C   0  0  0  0  0  0  0  0  0  0  0  0
  146.5226  141.1188  155.8496 N   0  0  0  0  0  0  0  0  0  0  0  0
  149.6402  136.8407  155.0740 C   0  0  0  0  0  0  0  0  0  0  0  0
  148.8839  136.1121  154.2489 N   0  0  0  0  0  0  0  0  0  0  0  0
  149.9167  136.4637  156.2114 O   0  0  0  0  0  0  0  0  0  0  0  0
  152.2541  137.7135  154.8621 H   0  0  0  0  0  0  0  0  0  0  0  0
  151.9828  139.0162  153.7149 H   0  0  0  0  0  0  0  0  0  0  0  0
  151.6789  137.3488  153.2368 H   0  0  0  0  0  0  0  0  0  0  0  0
  150.1313  138.9149  155.3664 H   0  0  0  0  0  0  0  0  0  0  0  0
  149.8359  139.3607  152.9030 H   0  0  0  0  0  0  0  0  0  0  0  0
  147.6327  138.8810  154.7360 H   0  0  0  0  0  0  0  0  0  0  0  0
  146.0302  139.6215  153.0206 H   0  0  0  0  0  0  0  0  0  0  0  0
  146.8625  138.1814  152.4723 H   0  0  0  0  0  0  0  0  0  0  0  0
  147.3205  139.7557  151.8287 H   0  0  0  0  0  0  0  0  0  0  0  0
  148.6144  141.3874  153.3108 H   0  0  0  0  0  0  0  0  0  0  0  0
  150.4177  140.6873  154.8293 H   0  0  0  0  0  0  0  0  0  0  0  0
  149.2784  140.4884  156.1583 H   0  0  0  0  0  0  0  0  0  0  0  0
  149.6060  142.0887  155.5004 H   0  0  0  0  0  0  0  0  0  0  0  0
  146.8047  143.0955  153.2545 H   0  0  0  0  0  0  0  0  0  0  0  0
  144.6646  143.6844  154.8382 H   0  0  0  0  0  0  0  0  0  0  0  0
  144.8391  141.7910  156.8542 H   0  0  0  0  0  0  0  0  0  0  0  0
  148.5281  135.2141  154.5437 H   0  0  0  0  0  0  0  0  0  0  0  0
  148.6713  136.4622  153.3255 H   0  0  0  0  0  0  0  0  0  0  0  0
  149.0574  137.9199  152.8588 H   0  0  0  0  0  0  0  0  0  0  0  0
  1  2  1  0  0  0  0
  1 16  1  0  0  0  0
  1 17  1  0  0  0  0
  1 18  1  0  0  0  0
  2  3  1  0  0  0  0
  2 13  1  0  0  0  0
  2 19  1  0  0  0  0
  3  4  1  0  0  0  0
  3 20  1  0  0  0  0
  3 34  1  0  0  0  0
  4  5  1  0  0  0  0
  4  6  1  0  0  0  0
  4 21  1  0  0  0  0
  5 22  1  0  0  0  0
  5 23  1  0  0  0  0
  5 24  1  0  0  0  0
  6  7  1  0  0  0  0
  6  8  1  0  0  0  0
  6 25  1  0  0  0  0
  7 26  1  0  0  0  0
  7 27  1  0  0  0  0
  7 28  1  0  0  0  0
  8 12  1  0  0  0  0
  8  9  1  0  0  0  0
  9 10  2  0  0  0  0
  9 29  1  0  0  0  0
 10 11  1  0  0  0  0
 10 30  1  0  0  0  0
 11 12  2  0  0  0  0
 11 31  1  0  0  0  0
 13 14  1  0  0  0  0
 13 15  2  0  0  0  0
 14 32  1  0  0  0  0
 14 33  1  0  0  0  0
M  CHG  1   3   1
M  END
> <s_m_source_file>
AV-unprocessed.smi

> <i_m_source_file_index>
3116

> <i_lp_mmshare_version>
43012

> <i_f3d_flags>
0

> <s_epik_input>
W05IMl1DKD1PKVtDQEhdKFtDSDNdKVtOSF1bQ0BIXShbQ0gzXSlbQ0BIXShbQ0gzXSluMVtjSF1bY0hdW2NIXW4x

> <s_epik_cmdline>
J2VwaWtfcHl0aG9uJywgJy1waCcsICc3LjAnLCAnLXRuJywgJzgnLCAnLW1hJywgJzIwMCcsICctbWV0YWxfYmluZGluZycsICctaW1hZScsICc8aW5maWxlLm1hZT4nLCAnLW9tYWUnLCAnPG91dGZpbGUubWFlPic=

> <r_lp_tautomer_probability>
1

> <r_epik_Ionization_Penalty>
0.15658

> <r_epik_Ionization_Penalty_Charging>
0.156568

> <r_epik_Ionization_Penalty_Neutral>
1.19778e-05

> <r_epik_State_Penalty>
0.145866

> <r_epik_Charging_Adjusted_Penalty>
0.302434

> <i_epik_Tot_Q>
1

> <i_epik_Tot_abs_Q>
1

> <r_epik_Metal_State_Penalty>
0.146064

> <b_epik_Metal_Only>
0

> <s_lp_Force_Field>
OPLS_2005

> <r_lp_Energy>
10.4239

> <b_lp_Chiralities_Consistent>
1

> <s_lp_Variant>
AV-unprocessed.smi:3116-2

> <Gold.Version>
5.8.1

> <Gold.Id.Protein>
6NUR|6NUR_protein|mol2

> <Gold.PLP.Fitness>
39.2401

> <Gold.PLP.PLP>
-30.1009

> <Gold.PLP.part.hbond>
-3.0000

> <Gold.PLP.part.metal>
0.0000

> <Gold.PLP.part.buried>
-3.8816

> <Gold.PLP.part.nonpolar>
-23.1182

> <Gold.PLP.part.repulsive>
0.1656

> <Gold.PLP.ligand.clash>
0.0000

> <Gold.PLP.ligand.torsion>
1.1908

> <Gold.PLP.Chemscore.Hbond>
3.7920

> <Gold.PLP.Chemscore.CHOScore>
0.0000

> <Gold.PLP.Chemscore.Metal>
0.0000

> <Gold.Chemscore.Hbonds>
donor molecule, donor type, donor heavy atom, donor atom, acceptor molecule, acceptor atom, score
      L1  H     3    20       P1  7957  0.64
      L1  H     3    34       P1  7948  2.00
      L1  H    14    33       P1  7948  0.77

> <Gold.PLP.Chemscore.Internal.Correction>
0.1448

> <Gold.Rescore>
     Score         DG    S(hbond)    S(metal)    S(lipo)     H(rot)  DE(clash)    DE(int)     intcor
     14.20     -15.58       2.81        0.00      59.55       2.45       0.15       1.23       ----

> <Gold.Chemscore.Fitness>
14.1991

> <Gold.Chemscore.DG>
-15.5837

> <Gold.Chemscore.ZeroCoef>
-5.4800

> <Gold.Chemscore.Hbond>
2.8143

> <Gold.Chemscore.Metal>
0.0000

> <Gold.Chemscore.Lipo>
59.5477

> <Gold.Chemscore.Internal_Hbond>
0.0000

> <Gold.Chemscore.DEClash>
0.1550

> <Gold.Chemscore.DEInternal>
1.2296

> <Gold.Chemscore.Rot>
2.4465

> <Gold.Chemscore.Internal.Correction>
   9.000000E+99

> <Gold.Chemscore.Hbonds>
donor molecule, donor type, donor heavy atom, donor atom, acceptor molecule, acceptor atom, score
      L1  H     3    20       P1  7957  0.63
      L1  H     3    34       P1  7948  0.99
      L1  H    14    33       P1  7948  0.74

> <Gold.Chemscore.Hbond.Weighted>
-9.3998

> <Gold.Chemscore.Metal.Weighted>
-0.0000

> <Gold.Chemscore.Lipo.Weighted>
-6.9671

> <Gold.Chemscore.Internal_Hbond.Weighted>
0.0000

> <Gold.Chemscore.DEClash.Weighted>
0.1550

> <Gold.Chemscore.DEInternal.Weighted>
1.2296

> <Gold.Chemscore.Rot.Weighted>
6.2631

> <Gold.Chemscore.Internal.Correction.Weighted>
   9.000000E+99

> <Gold.Protein.RotatedTorsions>
[ 6907 6896 6895 6894 ] final  140.59 input  -60.11 | X-H torsion
[ 7974 7965 7964 7962 ] final  -59.87 input  175.53 | X-H torsion
[ 8008 7997 7996 7995 ] final    0.10 input   59.86 | X-H torsion
[ 10167 10162 10161 10158 ] final   25.17 input  -65.29 | X-H torsion
[ 10718 10713 10712 10709 ] final -169.89 input   66.30 | X-H torsion
[ 10763 10752 10751 10750 ] final  149.42 input  -60.55 | X-H torsion
[ 11005 11000 10999 10996 ] final   -3.21 input  -57.11 | X-H torsion

> <Gold.Protein.ActiveResidues>
 VAL166  LYS551  ARG553  GLY616  TRP617  ASP618  TYR619  PRO620  LYS621  CYS622 
 ASP623  PHE694  ASN695  SER759  ASP760  ASP761  ALA762  ILE779  LEU786  VAL792 
 PHE793  MET794  SER795  GLU796  ALA797  LYS798  CYS799  TRP800  GLU811  SER814 

> <Gold.Protein.RotatedAtoms>
  152.2412  133.5137  159.5270 H   0  0  0  0  0  0  0  0  0  0  0  0  # atno 6907 bound_to 6896
  150.7065  134.1086  159.4001 H   0  0  0  0  0  0  0  0  0  0  0  0  # atno 6908 bound_to 6896
  151.9007  135.0379  160.0557 H   0  0  0  0  0  0  0  0  0  0  0  0  # atno 6909 bound_to 6896
  145.8223  140.8532  143.0126 H   0  0  0  0  0  0  0  0  0  0  0  0  # atno 7974 bound_to 7965
  154.6642  140.2597  155.7076 H   0  0  0  0  0  0  0  0  0  0  0  0  # atno 8008 bound_to 7997
  156.2632  140.2842  156.1048 H   0  0  0  0  0  0  0  0  0  0  0  0  # atno 8009 bound_to 7997
  155.1263  140.0378  157.2753 H   0  0  0  0  0  0  0  0  0  0  0  0  # atno 8010 bound_to 7997
  140.5128  144.0131  150.6380 H   0  0  0  0  0  0  0  0  0  0  0  0  # atno 10167 bound_to 10162
  156.7181  130.9259  151.3095 H   0  0  0  0  0  0  0  0  0  0  0  0  # atno 10718 bound_to 10713
  154.0708  135.2867  155.3308 H   0  0  0  0  0  0  0  0  0  0  0  0  # atno 10763 bound_to 10752
  154.6748  135.5286  153.8188 H   0  0  0  0  0  0  0  0  0  0  0  0  # atno 10764 bound_to 10752
  153.0486  135.6566  154.0889 H   0  0  0  0  0  0  0  0  0  0  0  0  # atno 10765 bound_to 10752
  140.6668  133.9272  155.8470 H   0  0  0  0  0  0  0  0  0  0  0  0  # atno 11005 bound_to 11000
  144.6746  140.0551  143.7477 LP  0  0  0  0  0  0  0  0  0  0  0  0  # atno 17320 bound_to 7965
  145.9662  139.2836  143.1126 LP  0  0  0  0  0  0  0  0  0  0  0  0  # atno 17321 bound_to 7965
  140.3459  143.2992  152.0539 LP  0  0  0  0  0  0  0  0  0  0  0  0  # atno 17342 bound_to 10162
  139.4901  144.6409  151.6879 LP  0  0  0  0  0  0  0  0  0  0  0  0  # atno 17343 bound_to 10162
  157.6909  130.9232  150.0511 LP  0  0  0  0  0  0  0  0  0  0  0  0  # atno 17370 bound_to 10713
  156.1613  130.3644  149.9295 LP  0  0  0  0  0  0  0  0  0  0  0  0  # atno 17371 bound_to 10713
  141.0423  134.0604  157.3887 LP  0  0  0  0  0  0  0  0  0  0  0  0  # atno 17394 bound_to 11000
  139.8994  135.0158  156.7196 LP  0  0  0  0  0  0  0  0  0  0  0  0  # atno 17395 bound_to 11000

$$$$
