AV-unprocessed.smi:2324|AV-procd|sdf|9291|dock10
  -GOLD-   2272012513D 1   1.00000     0.00000
 Structure written by MMmdl.
 37 39  0  0  0  0  0  0  0  0  1 V2000
  145.4307  137.9742  153.7388 O   0  0  0  0  0  0  0  0  0  0  0  0
  146.4550  137.4888  153.2614 C   0  0  0  0  0  0  0  0  0  0  0  0
  146.4149  136.3339  152.5634 N   0  0  0  0  0  0  0  0  0  0  0  0
  145.3327  135.4699  152.2244 C   0  0  0  0  0  0  0  0  0  0  0  0
  145.6233  134.5301  151.2122 C   0  0  0  0  0  0  0  0  0  0  0  0
  144.6129  133.6372  150.8165 C   0  0  0  0  0  0  0  0  0  0  0  0
  143.3704  133.7441  151.4639 C   0  0  0  0  0  0  0  0  0  0  0  0
  143.1335  134.6584  152.4289 N   0  0  0  0  0  0  0  0  0  0  0  0
  144.1008  135.5041  152.7989 N   0  0  0  0  0  0  0  0  0  0  0  0
  147.6621  138.0616  153.4009 N   0  0  0  0  0  0  0  0  0  0  0  0
  147.9321  139.3050  154.1157 C   0  0  2  0  0  0  0  0  0  0  0  0
  147.2170  140.4711  153.4208 C   0  0  0  0  0  0  0  0  0  0  0  0
  147.5802  141.8051  154.0903 C   0  0  0  0  0  0  0  0  0  0  0  0
  148.9939  141.9941  154.0927 O   0  0  0  0  0  0  0  0  0  0  0  0
  149.7453  140.9802  154.7629 C   0  0  1  0  0  0  0  0  0  0  0  0
  149.5533  141.0335  156.2728 C   0  0  0  0  0  0  0  0  0  0  0  0
  150.3366  142.0133  157.1144 C   0  0  0  0  0  0  0  0  0  0  0  0
  150.6333  140.5354  157.2042 C   0  0  0  0  0  0  0  0  0  0  0  0
  149.4425  139.5947  154.1595 C   0  0  0  0  0  0  0  0  0  0  0  0
  147.3134  136.0269  152.2201 H   0  0  0  0  0  0  0  0  0  0  0  0
  146.5980  134.4909  150.7477 H   0  0  0  0  0  0  0  0  0  0  0  0
  144.7837  132.8988  150.0473 H   0  0  0  0  0  0  0  0  0  0  0  0
  142.5536  133.0863  151.2062 H   0  0  0  0  0  0  0  0  0  0  0  0
  148.4546  137.5975  152.9797 H   0  0  0  0  0  0  0  0  0  0  0  0
  147.5458  139.2200  155.1328 H   0  0  0  0  0  0  0  0  0  0  0  0
  147.5021  140.5087  152.3684 H   0  0  0  0  0  0  0  0  0  0  0  0
  146.1367  140.3230  153.4464 H   0  0  0  0  0  0  0  0  0  0  0  0
  147.1230  142.6296  153.5432 H   0  0  0  0  0  0  0  0  0  0  0  0
  147.1837  141.8513  155.1046 H   0  0  0  0  0  0  0  0  0  0  0  0
  150.7945  141.2032  154.5657 H   0  0  0  0  0  0  0  0  0  0  0  0
  148.5356  140.8404  156.6043 H   0  0  0  0  0  0  0  0  0  0  0  0
  151.0684  142.6425  156.6118 H   0  0  0  0  0  0  0  0  0  0  0  0
  149.8222  142.4761  157.9542 H   0  0  0  0  0  0  0  0  0  0  0  0
  150.3158  140.0110  158.1029 H   0  0  0  0  0  0  0  0  0  0  0  0
  151.5618  140.1809  156.7612 H   0  0  0  0  0  0  0  0  0  0  0  0
  149.9676  138.8199  154.7195 H   0  0  0  0  0  0  0  0  0  0  0  0
  149.8424  139.5621  153.1449 H   0  0  0  0  0  0  0  0  0  0  0  0
  1  2  2  0  0  0  0
  2  3  1  0  0  0  0
  2 10  1  0  0  0  0
  3  4  1  0  0  0  0
  3 20  1  0  0  0  0
  4  9  1  0  0  0  0
  4  5  2  0  0  0  0
  5  6  1  0  0  0  0
  5 21  1  0  0  0  0
  6  7  2  0  0  0  0
  6 22  1  0  0  0  0
  7  8  1  0  0  0  0
  7 23  1  0  0  0  0
  8  9  2  0  0  0  0
 10 11  1  0  0  0  0
 10 24  1  0  0  0  0
 11 19  1  0  0  0  0
 11 12  1  0  0  0  0
 11 25  1  0  0  0  0
 12 13  1  0  0  0  0
 12 26  1  0  0  0  0
 12 27  1  0  0  0  0
 13 14  1  0  0  0  0
 13 28  1  0  0  0  0
 13 29  1  0  0  0  0
 14 15  1  0  0  0  0
 15 16  1  0  0  0  0
 15 19  1  0  0  0  0
 15 30  1  0  0  0  0
 16 18  1  0  0  0  0
 16 17  1  0  0  0  0
 16 31  1  0  0  0  0
 17 18  1  0  0  0  0
 17 32  1  0  0  0  0
 17 33  1  0  0  0  0
 18 34  1  0  0  0  0
 18 35  1  0  0  0  0
 19 36  1  0  0  0  0
 19 37  1  0  0  0  0
M  END
> <s_m_source_file>
AV-unprocessed.smi

> <i_m_source_file_index>
2324

> <i_lp_mmshare_version>
43012

> <i_f3d_flags>
0

> <s_epik_input>
bjFuW2NIXVtjSF1bY0hdYzFbTkhdQyg9TylbTkhdW0NAQEhdMltDSDJdW0NIMl1PW0NASF0oW0NIMl0yKVtDSF0zW0NIMl1bQ0gyXTM=

> <s_epik_cmdline>
J2VwaWtfcHl0aG9uJywgJy1waCcsICc3LjAnLCAnLXRuJywgJzgnLCAnLW1hJywgJzIwMCcsICctbWV0YWxfYmluZGluZycsICctaW1hZScsICc8aW5maWxlLm1hZT4nLCAnLW9tYWUnLCAnPG91dGZpbGUubWFlPic=

> <r_lp_tautomer_probability>
1

> <r_epik_Ionization_Penalty>
0.00521499

> <r_epik_Ionization_Penalty_Charging>
0

> <r_epik_Ionization_Penalty_Neutral>
0.00521499

> <r_epik_State_Penalty>
-0

> <r_epik_Charging_Adjusted_Penalty>
0

> <i_epik_Tot_Q>
0

> <i_epik_Tot_abs_Q>
0

> <r_epik_Metal_State_Penalty>
-0

> <b_epik_Metal_Only>
0

> <s_lp_Force_Field>
OPLS_2005

> <r_lp_Energy>
28.1305

> <b_lp_Chiralities_Consistent>
1

> <s_lp_Variant>
AV-unprocessed.smi:2324-1

> <Gold.Version>
5.8.1

> <Gold.Id.Protein>
6NUR|6NUR_protein|mol2

> <Gold.PLP.Fitness>
36.5137

> <Gold.PLP.PLP>
-27.9867

> <Gold.PLP.part.hbond>
-3.1569

> <Gold.PLP.part.metal>
0.0000

> <Gold.PLP.part.buried>
-0.6782

> <Gold.PLP.part.nonpolar>
-24.5149

> <Gold.PLP.part.repulsive>
0.7527

> <Gold.PLP.ligand.clash>
0.0000

> <Gold.PLP.ligand.torsion>
0.6049

> <Gold.PLP.Chemscore.Hbond>
2.3280

> <Gold.PLP.Chemscore.CHOScore>
0.5582

> <Gold.PLP.Chemscore.Metal>
0.0000

> <Gold.Chemscore.Hbonds>
donor molecule, donor type, donor heavy atom, donor atom, acceptor molecule, acceptor atom, score
      L1  H     3    20       P1  7948  1.00
      L1  H    10    24       P1  7948  0.90
      P1  H  8011  8017       L1    14  0.42
      L1  C     7    23       P1 10186  0.42

> <Gold.PLP.Chemscore.Internal.Correction>
1.0781

> <Gold.Rescore>
     Score         DG    S(hbond)    S(metal)    S(lipo)     H(rot)  DE(clash)    DE(int)     intcor
     15.87     -17.97       2.31        0.00      68.03       1.25       0.29       1.81       ----

> <Gold.Chemscore.Fitness>
15.8715

> <Gold.Chemscore.DG>
-17.9689

> <Gold.Chemscore.ZeroCoef>
-5.4800

> <Gold.Chemscore.Hbond>
2.3123

> <Gold.Chemscore.Metal>
0.0000

> <Gold.Chemscore.Lipo>
68.0300

> <Gold.Chemscore.Internal_Hbond>
0.0000

> <Gold.Chemscore.DEClash>
0.2878

> <Gold.Chemscore.DEInternal>
1.8096

> <Gold.Chemscore.Rot>
1.2476

> <Gold.Chemscore.Internal.Correction>
   9.000000E+99

> <Gold.Chemscore.Hbonds>
donor molecule, donor type, donor heavy atom, donor atom, acceptor molecule, acceptor atom, score
      L1  H     3    20       P1  7948  0.98
      L1  H    10    24       P1  7948  0.88
      P1  H  8011  8017       L1    14  0.29

> <Gold.Chemscore.Hbond.Weighted>
-7.7231

> <Gold.Chemscore.Metal.Weighted>
-0.0000

> <Gold.Chemscore.Lipo.Weighted>
-7.9595

> <Gold.Chemscore.Internal_Hbond.Weighted>
0.0000

> <Gold.Chemscore.DEClash.Weighted>
0.2878

> <Gold.Chemscore.DEInternal.Weighted>
1.8096

> <Gold.Chemscore.Rot.Weighted>
3.1938

> <Gold.Chemscore.Internal.Correction.Weighted>
   9.000000E+99

> <Gold.Protein.RotatedTorsions>
[ 6907 6896 6895 6894 ] final   45.54 input  -60.11 | X-H torsion
[ 7974 7965 7964 7962 ] final   30.54 input  175.53 | X-H torsion
[ 8008 7997 7996 7995 ] final  -28.09 input   59.86 | X-H torsion
[ 10167 10162 10161 10158 ] final  175.67 input  -65.29 | X-H torsion
[ 10718 10713 10712 10709 ] final   52.87 input   66.30 | X-H torsion
[ 10763 10752 10751 10750 ] final  -99.87 input  -60.55 | X-H torsion
[ 11005 11000 10999 10996 ] final -116.17 input  -57.11 | X-H torsion

> <Gold.Protein.ActiveResidues>
 VAL166  LYS551  ARG553  GLY616  TRP617  ASP618  TYR619  PRO620  LYS621  CYS622 
 ASP623  PHE694  ASN695  SER759  ASP760  ASP761  ALA762  ILE779  LEU786  VAL792 
 PHE793  MET794  SER795  GLU796  ALA797  LYS798  CYS799  TRP800  GLU811  SER814 

> <Gold.Protein.RotatedAtoms>
  152.2457  134.8183  160.0453 H   0  0  0  0  0  0  0  0  0  0  0  0  # atno 6907 bound_to 6896
  151.8881  133.3505  159.3797 H   0  0  0  0  0  0  0  0  0  0  0  0  # atno 6908 bound_to 6896
  150.7068  134.4877  159.5545 H   0  0  0  0  0  0  0  0  0  0  0  0  # atno 6909 bound_to 6896
  146.1605  139.6775  142.9037 H   0  0  0  0  0  0  0  0  0  0  0  0  # atno 7974 bound_to 7965
  154.4348  140.1855  156.1034 H   0  0  0  0  0  0  0  0  0  0  0  0  # atno 8008 bound_to 7997
  156.0274  140.3334  155.7077 H   0  0  0  0  0  0  0  0  0  0  0  0  # atno 8009 bound_to 7997
  155.5889  140.0629  157.2755 H   0  0  0  0  0  0  0  0  0  0  0  0  # atno 8010 bound_to 7997
  139.5185  144.3005  152.0383 H   0  0  0  0  0  0  0  0  0  0  0  0  # atno 10167 bound_to 10162
  157.5115  130.8504  149.8441 H   0  0  0  0  0  0  0  0  0  0  0  0  # atno 10718 bound_to 10713
  154.7533  135.4956  153.9329 H   0  0  0  0  0  0  0  0  0  0  0  0  # atno 10763 bound_to 10752
  153.1168  135.6722  153.9412 H   0  0  0  0  0  0  0  0  0  0  0  0  # atno 10764 bound_to 10752
  153.9156  135.3094  155.3427 H   0  0  0  0  0  0  0  0  0  0  0  0  # atno 10765 bound_to 10752
  141.0439  133.9792  157.2949 H   0  0  0  0  0  0  0  0  0  0  0  0  # atno 11005 bound_to 11000
  145.4599  141.0432  143.2757 LP  0  0  0  0  0  0  0  0  0  0  0  0  # atno 17320 bound_to 7965
  144.8021  139.6121  143.7067 LP  0  0  0  0  0  0  0  0  0  0  0  0  # atno 17321 bound_to 7965
  140.2453  144.4227  150.6243 LP  0  0  0  0  0  0  0  0  0  0  0  0  # atno 17342 bound_to 10162
  140.6262  143.2181  151.6591 LP  0  0  0  0  0  0  0  0  0  0  0  0  # atno 17343 bound_to 10162
  156.0292  130.3770  150.1735 LP  0  0  0  0  0  0  0  0  0  0  0  0  # atno 17370 bound_to 10713
  156.9925  130.9897  151.3411 LP  0  0  0  0  0  0  0  0  0  0  0  0  # atno 17371 bound_to 10713
  139.9297  135.0200  156.8358 LP  0  0  0  0  0  0  0  0  0  0  0  0  # atno 17394 bound_to 11000
  140.6182  134.0018  155.7606 LP  0  0  0  0  0  0  0  0  0  0  0  0  # atno 17395 bound_to 11000

$$$$
