AV-unprocessed.smi:2032|AV-procd|sdf|8252|dock3
  -GOLD-   2272010523D 1   1.00000     0.00000
 Structure written by MMmdl.
 42 43  0  0  0  0  0  0  0  0  3 V2000
  148.1775  141.5972  154.0522 C   0  0  0  0  0  0  0  0  0  0  0  0
  148.7792  140.2323  154.4042 C   0  0  1  0  0  0  0  0  0  0  0  0
  148.4133  139.1541  153.3617 C   0  0  0  0  0  0  0  0  0  0  0  0
  149.0592  137.8510  153.6820 N   0  3  2  0  0  0  0  0  0  0  0  0
  148.4678  137.0993  154.8424 C   0  0  2  0  0  0  0  0  0  0  0  0
  149.3511  135.8966  155.2557 C   0  0  0  0  0  0  0  0  0  0  0  0
  147.0205  136.6141  154.5468 C   0  0  0  0  0  0  0  0  0  0  0  0
  146.9077  135.8997  153.2785 N   0  0  0  0  0  0  0  0  0  0  0  0
  145.8368  135.2054  152.8674 C   0  0  0  0  0  0  0  0  0  0  0  0
  144.8295  135.1532  153.5774 O   0  0  0  0  0  0  0  0  0  0  0  0
  146.0034  134.6089  151.6662 N   0  5  0  0  0  0  0  0  0  0  0  0
  145.0778  133.7493  151.2103 C   0  0  0  0  0  0  0  0  0  0  0  0
  145.3479  132.7925  150.3153 N   0  0  0  0  0  0  0  0  0  0  0  0
  144.2387  132.0107  149.9868 C   0  0  0  0  0  0  0  0  0  0  0  0
  143.0995  132.3760  150.6538 C   0  0  0  0  0  0  0  0  0  0  0  0
  143.3877  133.7199  151.7214 S   0  0  0  0  0  0  0  0  0  0  0  0
  150.5288  138.0803  153.7502 C   0  0  0  0  0  0  0  0  0  0  0  0
  150.8763  139.1699  154.7879 C   0  0  1  0  0  0  0  0  0  0  0  0
  152.3790  139.4696  154.8241 C   0  0  0  0  0  0  0  0  0  0  0  0
  150.1968  140.3735  154.4412 O   0  0  0  0  0  0  0  0  0  0  0  0
  147.0888  141.5485  154.0176 H   0  0  0  0  0  0  0  0  0  0  0  0
  148.5283  141.9456  153.0804 H   0  0  0  0  0  0  0  0  0  0  0  0
  148.4519  142.3475  154.7941 H   0  0  0  0  0  0  0  0  0  0  0  0
  148.4171  139.9470  155.3927 H   0  0  0  0  0  0  0  0  0  0  0  0
  147.3366  139.0729  153.2375 H   0  0  0  0  0  0  0  0  0  0  0  0
  148.7758  139.4743  152.3835 H   0  0  0  0  0  0  0  0  0  0  0  0
  148.4251  137.7713  155.6985 H   0  0  0  0  0  0  0  0  0  0  0  0
  148.8838  135.2915  156.0320 H   0  0  0  0  0  0  0  0  0  0  0  0
  150.3050  136.2097  155.6780 H   0  0  0  0  0  0  0  0  0  0  0  0
  149.5500  135.2410  154.4076 H   0  0  0  0  0  0  0  0  0  0  0  0
  146.6425  135.9398  155.3130 H   0  0  0  0  0  0  0  0  0  0  0  0
  146.3398  137.4652  154.5192 H   0  0  0  0  0  0  0  0  0  0  0  0
  147.7093  135.9218  152.6650 H   0  0  0  0  0  0  0  0  0  0  0  0
  144.3514  131.2127  149.2681 H   0  0  0  0  0  0  0  0  0  0  0  0
  142.1151  131.9387  150.5847 H   0  0  0  0  0  0  0  0  0  0  0  0
  151.0864  137.1643  153.9333 H   0  0  0  0  0  0  0  0  0  0  0  0
  150.8622  138.4112  152.7654 H   0  0  0  0  0  0  0  0  0  0  0  0
  150.5682  138.8570  155.7863 H   0  0  0  0  0  0  0  0  0  0  0  0
  152.9490  138.5829  155.1028 H   0  0  0  0  0  0  0  0  0  0  0  0
  152.6034  140.2500  155.5517 H   0  0  0  0  0  0  0  0  0  0  0  0
  152.7391  139.8075  153.8518 H   0  0  0  0  0  0  0  0  0  0  0  0
  148.9054  137.2565  152.8803 H   0  0  0  0  0  0  0  0  0  0  0  0
  1  2  1  0  0  0  0
  1 21  1  0  0  0  0
  1 22  1  0  0  0  0
  1 23  1  0  0  0  0
  2 20  1  0  0  0  0
  2  3  1  0  0  0  0
  2 24  1  0  0  0  0
  3  4  1  0  0  0  0
  3 25  1  0  0  0  0
  3 26  1  0  0  0  0
  4  5  1  0  0  0  0
  4 17  1  0  0  0  0
  4 42  1  0  0  0  0
  5  6  1  0  0  0  0
  5  7  1  0  0  0  0
  5 27  1  0  0  0  0
  6 28  1  0  0  0  0
  6 29  1  0  0  0  0
  6 30  1  0  0  0  0
  7  8  1  0  0  0  0
  7 31  1  0  0  0  0
  7 32  1  0  0  0  0
  8  9  1  0  0  0  0
  8 33  1  0  0  0  0
  9 10  2  0  0  0  0
  9 11  1  0  0  0  0
 11 12  1  0  0  0  0
 12 16  1  0  0  0  0
 12 13  2  0  0  0  0
 13 14  1  0  0  0  0
 14 15  2  0  0  0  0
 14 34  1  0  0  0  0
 15 16  1  0  0  0  0
 15 35  1  0  0  0  0
 17 18  1  0  0  0  0
 17 36  1  0  0  0  0
 17 37  1  0  0  0  0
 18 19  1  0  0  0  0
 18 20  1  0  0  0  0
 18 38  1  0  0  0  0
 19 39  1  0  0  0  0
 19 40  1  0  0  0  0
 19 41  1  0  0  0  0
M  CHG  1   4   1
M  CHG  1  11  -1
M  END
> <s_m_source_file>
AV-unprocessed.smi

> <i_m_source_file_index>
2032

> <i_lp_mmshare_version>
43012

> <i_f3d_flags>
0

> <s_epik_input>
W0NIM11bQ0BASF0xW0NIMl1OKFtDSDJdW0NASF0oTzEpW0NIM10pW0NASF0oW0NIM10pW0NIMl1bTkhdQyg9TylbTkhdYzJuW2NIXVtjSF1zMg==

> <s_epik_cmdline>
J2VwaWtfcHl0aG9uJywgJy1waCcsICc3LjAnLCAnLXRuJywgJzgnLCAnLW1hJywgJzIwMCcsICctbWV0YWxfYmluZGluZycsICctaW1hZScsICc8aW5maWxlLm1hZT4nLCAnLW9tYWUnLCAnPG91dGZpbGUubWFlPic=

> <r_lp_tautomer_probability>
0.999

> <r_epik_Ionization_Penalty>
6.71699

> <r_epik_Ionization_Penalty_Charging>
5.88592

> <r_epik_Ionization_Penalty_Neutral>
0.831074

> <r_epik_State_Penalty>
6.08365

> <r_epik_Charging_Adjusted_Penalty>
11.9696

> <i_epik_Tot_Q>
0

> <i_epik_Tot_abs_Q>
2

> <r_epik_Metal_State_Penalty>
2.0947

> <b_epik_Metal_Only>
1

> <s_lp_Force_Field>
OPLS_2005

> <r_lp_Energy>
10.9101

> <b_lp_Chiralities_Consistent>
1

> <s_lp_Variant>
AV-unprocessed.smi:2032-22

> <Gold.Version>
5.8.1

> <Gold.Id.Protein>
6NUR|6NUR_protein|mol2

> <Gold.PLP.Fitness>
46.1011

> <Gold.PLP.PLP>
-31.4673

> <Gold.PLP.part.hbond>
-3.0000

> <Gold.PLP.part.metal>
0.0000

> <Gold.PLP.part.buried>
-0.1361

> <Gold.PLP.part.nonpolar>
-29.0504

> <Gold.PLP.part.repulsive>
0.4237

> <Gold.PLP.ligand.clash>
0.0000

> <Gold.PLP.ligand.torsion>
0.4095

> <Gold.PLP.Chemscore.Hbond>
4.0000

> <Gold.PLP.Chemscore.CHOScore>
1.1273

> <Gold.PLP.Chemscore.Metal>
0.0000

> <Gold.Chemscore.Hbonds>
donor molecule, donor type, donor heavy atom, donor atom, acceptor molecule, acceptor atom, score
      L1  H     4    42       P1  7948  1.50
      L1  H     8    33       P1  7948  0.93
      P1  H  7989  7998       L1    20  0.49
      L1  C    15    35       P1 10186  0.02
      L1  C    15    35       P1 10952  1.00

> <Gold.PLP.Chemscore.Internal.Correction>
0.0708

> <Gold.Rescore>
     Score         DG    S(hbond)    S(metal)    S(lipo)     H(rot)  DE(clash)    DE(int)     intcor
     16.82     -19.73       2.82        0.00      75.82       1.58       0.99       1.92       ----

> <Gold.Chemscore.Fitness>
16.8206

> <Gold.Chemscore.DG>
-19.7288

> <Gold.Chemscore.ZeroCoef>
-5.4800

> <Gold.Chemscore.Hbond>
2.8205

> <Gold.Chemscore.Metal>
0.0000

> <Gold.Chemscore.Lipo>
75.8193

> <Gold.Chemscore.Internal_Hbond>
0.0000

> <Gold.Chemscore.DEClash>
0.9874

> <Gold.Chemscore.DEInternal>
1.9208

> <Gold.Chemscore.Rot>
1.5791

> <Gold.Chemscore.Internal.Correction>
   9.000000E+99

> <Gold.Chemscore.Hbonds>
donor molecule, donor type, donor heavy atom, donor atom, acceptor molecule, acceptor atom, score
      L1  H     4    42       P1  7948  0.73
      L1  H     8    33       P1  7948  0.89
      P1  H  7989  7998       L1    20  0.02

> <Gold.Chemscore.Hbond.Weighted>
-9.4205

> <Gold.Chemscore.Metal.Weighted>
-0.0000

> <Gold.Chemscore.Lipo.Weighted>
-8.8709

> <Gold.Chemscore.Internal_Hbond.Weighted>
0.0000

> <Gold.Chemscore.DEClash.Weighted>
0.9874

> <Gold.Chemscore.DEInternal.Weighted>
1.9208

> <Gold.Chemscore.Rot.Weighted>
4.0425

> <Gold.Chemscore.Internal.Correction.Weighted>
   9.000000E+99

> <Gold.Protein.RotatedTorsions>
[ 6907 6896 6895 6894 ] final -156.12 input  -60.11 | X-H torsion
[ 7974 7965 7964 7962 ] final    8.25 input  175.53 | X-H torsion
[ 8008 7997 7996 7995 ] final  -66.61 input   59.86 | X-H torsion
[ 10167 10162 10161 10158 ] final  -85.89 input  -65.29 | X-H torsion
[ 10718 10713 10712 10709 ] final   -2.15 input   66.30 | X-H torsion
[ 10763 10752 10751 10750 ] final  -43.03 input  -60.55 | X-H torsion
[ 11005 11000 10999 10996 ] final  141.35 input  -57.11 | X-H torsion

> <Gold.Protein.ActiveResidues>
 VAL166  LYS551  ARG553  GLY616  TRP617  ASP618  TYR619  PRO620  LYS621  CYS622 
 ASP623  PHE694  ASN695  SER759  ASP760  ASP761  ALA762  ILE779  LEU786  VAL792 
 PHE793  MET794  SER795  GLU796  ALA797  LYS798  CYS799  TRP800  GLU811  SER814 

> <Gold.Protein.RotatedAtoms>
  151.2829  133.4201  159.2627 H   0  0  0  0  0  0  0  0  0  0  0  0  # atno 6907 bound_to 6896
  151.0345  134.9563  159.8139 H   0  0  0  0  0  0  0  0  0  0  0  0  # atno 6908 bound_to 6896
  152.5352  134.2788  159.9052 H   0  0  0  0  0  0  0  0  0  0  0  0  # atno 6909 bound_to 6896
  146.2418  139.9961  142.8420 H   0  0  0  0  0  0  0  0  0  0  0  0  # atno 7974 bound_to 7965
  154.4746  140.0909  156.7229 H   0  0  0  0  0  0  0  0  0  0  0  0  # atno 8008 bound_to 7997
  155.4632  140.3462  155.4297 H   0  0  0  0  0  0  0  0  0  0  0  0  # atno 8009 bound_to 7997
  156.1095  140.1444  156.9347 H   0  0  0  0  0  0  0  0  0  0  0  0  # atno 8010 bound_to 7997
  140.3994  143.2669  151.9162 H   0  0  0  0  0  0  0  0  0  0  0  0  # atno 10167 bound_to 10162
  156.7950  130.5374  149.5730 H   0  0  0  0  0  0  0  0  0  0  0  0  # atno 10718 bound_to 10713
  153.9889  135.6708  153.4753 H   0  0  0  0  0  0  0  0  0  0  0  0  # atno 10763 bound_to 10752
  153.0714  135.4972  154.8309 H   0  0  0  0  0  0  0  0  0  0  0  0  # atno 10764 bound_to 10752
  154.7121  135.3099  154.9143 H   0  0  0  0  0  0  0  0  0  0  0  0  # atno 10765 bound_to 10752
  140.0395  134.9312  157.0816 H   0  0  0  0  0  0  0  0  0  0  0  0  # atno 11005 bound_to 11000
  145.1458  140.9596  143.4462 LP  0  0  0  0  0  0  0  0  0  0  0  0  # atno 17320 bound_to 7965
  145.0252  139.3389  143.6052 LP  0  0  0  0  0  0  0  0  0  0  0  0  # atno 17321 bound_to 7965
  139.4785  144.5649  151.8181 LP  0  0  0  0  0  0  0  0  0  0  0  0  # atno 17342 bound_to 10162
  140.4756  144.1524  150.5924 LP  0  0  0  0  0  0  0  0  0  0  0  0  # atno 17343 bound_to 10162
  156.1136  130.6058  151.0085 LP  0  0  0  0  0  0  0  0  0  0  0  0  # atno 17370 bound_to 10713
  157.6582  131.0885  150.7900 LP  0  0  0  0  0  0  0  0  0  0  0  0  # atno 17371 bound_to 10713
  140.4093  134.1999  155.7163 LP  0  0  0  0  0  0  0  0  0  0  0  0  # atno 17394 bound_to 11000
  141.1875  133.8279  157.1029 LP  0  0  0  0  0  0  0  0  0  0  0  0  # atno 17395 bound_to 11000

$$$$
