AV-unprocessed.smi:336|AV-procd|sdf|2371|dock4
  -GOLD-   2262022293D 1   1.00000     0.00000
 Structure written by MMmdl.
 34 36  0  0  0  0  0  0  0  0  1 V2000
  151.3101  141.3860  156.7507 O   0  0  0  0  0  0  0  0  0  0  0  0
  150.5208  142.3052  156.5347 C   0  0  0  0  0  0  0  0  0  0  0  0
  150.3525  143.3825  157.3209 N   0  0  0  0  0  0  0  0  0  0  0  0
  150.9949  143.6884  158.5514 C   0  0  0  0  0  0  0  0  0  0  0  0
  151.9339  142.8437  159.1917 C   0  0  0  0  0  0  0  0  0  0  0  0
  152.4889  143.2521  160.4199 C   0  0  0  0  0  0  0  0  0  0  0  0
  152.0803  144.4841  160.9664 C   0  0  0  0  0  0  0  0  0  0  0  0
  151.1755  145.2921  160.3748 N   0  0  0  0  0  0  0  0  0  0  0  0
  150.6469  144.8935  159.1980 C   0  0  0  0  0  0  0  0  0  0  0  0
  149.7236  142.3655  155.4567 N   0  0  0  0  0  0  0  0  0  0  0  0
  149.6361  141.3829  154.3772 C   0  0  0  0  0  0  0  0  0  0  0  0
  148.3156  141.4134  153.6217 C   0  0  0  0  0  0  0  0  0  0  0  0
  147.2889  142.4902  153.8822 C   0  0  0  0  0  0  0  0  0  0  0  0
  147.0153  141.0637  154.3039 C   0  0  0  0  0  0  0  0  0  0  0  0
  149.9805  139.9647  154.8083 C   0  0  0  0  0  0  0  0  0  0  0  0
  151.4045  139.4639  154.7818 C   0  0  0  0  0  0  0  0  0  0  0  0
  150.3922  138.9181  153.7998 C   0  0  0  0  0  0  0  0  0  0  0  0
  149.7304  144.0956  156.9695 H   0  0  0  0  0  0  0  0  0  0  0  0
  152.2272  141.8916  158.7777 H   0  0  0  0  0  0  0  0  0  0  0  0
  153.2084  142.6320  160.9339 H   0  0  0  0  0  0  0  0  0  0  0  0
  152.4868  144.8265  161.9066 H   0  0  0  0  0  0  0  0  0  0  0  0
  149.9245  145.5640  158.7554 H   0  0  0  0  0  0  0  0  0  0  0  0
  149.1177  143.1686  155.3728 H   0  0  0  0  0  0  0  0  0  0  0  0
  150.4071  141.6905  153.6694 H   0  0  0  0  0  0  0  0  0  0  0  0
  148.3997  141.0997  152.5830 H   0  0  0  0  0  0  0  0  0  0  0  0
  147.4924  143.2127  154.6698 H   0  0  0  0  0  0  0  0  0  0  0  0
  146.7409  142.8767  153.0254 H   0  0  0  0  0  0  0  0  0  0  0  0
  146.2838  140.4996  153.7290 H   0  0  0  0  0  0  0  0  0  0  0  0
  147.0456  140.8395  155.3684 H   0  0  0  0  0  0  0  0  0  0  0  0
  149.3680  139.5974  155.6296 H   0  0  0  0  0  0  0  0  0  0  0  0
  152.1702  140.1328  154.3943 H   0  0  0  0  0  0  0  0  0  0  0  0
  151.7215  138.8119  155.5931 H   0  0  0  0  0  0  0  0  0  0  0  0
  150.0339  137.9026  153.9569 H   0  0  0  0  0  0  0  0  0  0  0  0
  150.4912  139.2214  152.7594 H   0  0  0  0  0  0  0  0  0  0  0  0
  1  2  2  0  0  0  0
  2  3  1  0  0  0  0
  2 10  1  0  0  0  0
  3  4  1  0  0  0  0
  3 18  1  0  0  0  0
  4  9  1  0  0  0  0
  4  5  2  0  0  0  0
  5  6  1  0  0  0  0
  5 19  1  0  0  0  0
  6  7  2  0  0  0  0
  6 20  1  0  0  0  0
  7  8  1  0  0  0  0
  7 21  1  0  0  0  0
  8  9  2  0  0  0  0
  9 22  1  0  0  0  0
 10 11  1  0  0  0  0
 10 23  1  0  0  0  0
 11 12  1  0  0  0  0
 11 15  1  0  0  0  0
 11 24  1  0  0  0  0
 12 14  1  0  0  0  0
 12 13  1  0  0  0  0
 12 25  1  0  0  0  0
 13 14  1  0  0  0  0
 13 26  1  0  0  0  0
 13 27  1  0  0  0  0
 14 28  1  0  0  0  0
 14 29  1  0  0  0  0
 15 17  1  0  0  0  0
 15 16  1  0  0  0  0
 15 30  1  0  0  0  0
 16 17  1  0  0  0  0
 16 31  1  0  0  0  0
 16 32  1  0  0  0  0
 17 33  1  0  0  0  0
 17 34  1  0  0  0  0
M  END
> <s_m_source_file>
AV-unprocessed.smi

> <i_m_source_file_index>
336

> <i_lp_mmshare_version>
43012

> <i_f3d_flags>
0

> <s_epik_input>
W0NIMl0xW0NIMl1bQ0hdMVtDSF0oW0NIXTJbQ0gyXVtDSDJdMilbTkhdQyg9TylbTkhdYzNbY0hdW2NIXVtjSF1uW2NIXTM=

> <s_epik_cmdline>
J2VwaWtfcHl0aG9uJywgJy1waCcsICc3LjAnLCAnLXRuJywgJzgnLCAnLW1hJywgJzIwMCcsICctbWV0YWxfYmluZGluZycsICctaW1hZScsICc8aW5maWxlLm1hZT4nLCAnLW9tYWUnLCAnPG91dGZpbGUubWFlPic=

> <r_epik_Ionization_Penalty>
0.00498677

> <r_epik_Ionization_Penalty_Charging>
0

> <r_epik_Ionization_Penalty_Neutral>
0.00498677

> <r_epik_State_Penalty>
0.00359262

> <r_epik_Charging_Adjusted_Penalty>
0.00359262

> <i_epik_Tot_Q>
0

> <i_epik_Tot_abs_Q>
0

> <r_epik_Metal_State_Penalty>
-0

> <b_epik_Metal_Only>
0

> <s_lp_Force_Field>
OPLS_2005

> <r_lp_Energy>
27.0567

> <b_lp_Chiralities_Consistent>
1

> <s_lp_Variant>
AV-unprocessed.smi:336-1

> <Gold.Version>
5.8.1

> <Gold.Id.Protein>
6NUR|6NUR_protein|mol2

> <Gold.PLP.Fitness>
47.5186

> <Gold.PLP.PLP>
-39.7679

> <Gold.PLP.part.hbond>
-2.0000

> <Gold.PLP.part.metal>
0.0000

> <Gold.PLP.part.buried>
-4.0723

> <Gold.PLP.part.nonpolar>
-33.9463

> <Gold.PLP.part.repulsive>
0.4055

> <Gold.PLP.ligand.clash>
0.0116

> <Gold.PLP.ligand.torsion>
1.5863

> <Gold.PLP.Chemscore.Hbond>
1.9440

> <Gold.PLP.Chemscore.CHOScore>
0.9795

> <Gold.PLP.Chemscore.Metal>
0.0000

> <Gold.Chemscore.Hbonds>
donor molecule, donor type, donor heavy atom, donor atom, acceptor molecule, acceptor atom, score
      L1  H     3    18       P1  8028  0.98
      L1  H    10    23       P1  8028  0.98
      L1  C     9    22       P1  8029  1.00

> <Gold.PLP.Chemscore.Internal.Correction>
2.1647

> <Gold.Rescore>
     Score         DG    S(hbond)    S(metal)    S(lipo)     H(rot)  DE(clash)    DE(int)     intcor
     13.74     -19.78       1.57        0.00     106.37       1.33       0.82       5.21       ----

> <Gold.Chemscore.Fitness>
13.7448

> <Gold.Chemscore.DG>
-19.7766

> <Gold.Chemscore.ZeroCoef>
-5.4800

> <Gold.Chemscore.Hbond>
1.5702

> <Gold.Chemscore.Metal>
0.0000

> <Gold.Chemscore.Lipo>
106.3670

> <Gold.Chemscore.Internal_Hbond>
0.0000

> <Gold.Chemscore.DEClash>
0.8242

> <Gold.Chemscore.DEInternal>
5.2075

> <Gold.Chemscore.Rot>
1.3253

> <Gold.Chemscore.Internal.Correction>
   9.000000E+99

> <Gold.Chemscore.Hbonds>
donor molecule, donor type, donor heavy atom, donor atom, acceptor molecule, acceptor atom, score
      L1  H     3    18       P1  8028  0.73
      L1  H    10    23       P1  8028  0.91

> <Gold.Chemscore.Hbond.Weighted>
-5.2445

> <Gold.Chemscore.Metal.Weighted>
-0.0000

> <Gold.Chemscore.Lipo.Weighted>
-12.4449

> <Gold.Chemscore.Internal_Hbond.Weighted>
0.0000

> <Gold.Chemscore.DEClash.Weighted>
0.8242

> <Gold.Chemscore.DEInternal.Weighted>
5.2075

> <Gold.Chemscore.Rot.Weighted>
3.3928

> <Gold.Chemscore.Internal.Correction.Weighted>
   9.000000E+99

> <Gold.Protein.RotatedTorsions>
[ 6907 6896 6895 6894 ] final  119.00 input  -60.11 | X-H torsion
[ 7974 7965 7964 7962 ] final   10.07 input  175.53 | X-H torsion
[ 8008 7997 7996 7995 ] final    0.65 input   59.86 | X-H torsion
[ 10167 10162 10161 10158 ] final -178.18 input  -65.29 | X-H torsion
[ 10718 10713 10712 10709 ] final  142.46 input   66.30 | X-H torsion
[ 10763 10752 10751 10750 ] final -172.21 input  -60.55 | X-H torsion
[ 11005 11000 10999 10996 ] final  159.64 input  -57.11 | X-H torsion

> <Gold.Protein.ActiveResidues>
 VAL166  LYS551  ARG553  GLY616  TRP617  ASP618  TYR619  PRO620  LYS621  CYS622 
 ASP623  PHE694  ASN695  SER759  ASP760  ASP761  ALA762  ILE779  LEU786  VAL792 
 PHE793  MET794  SER795  GLU796  ALA797  LYS798  CYS799  TRP800  GLU811  SER814 

> <Gold.Protein.RotatedAtoms>
  152.4503  133.7617  159.6749 H   0  0  0  0  0  0  0  0  0  0  0  0  # atno 6907 bound_to 6896
  150.8414  133.7920  159.3066 H   0  0  0  0  0  0  0  0  0  0  0  0  # atno 6908 bound_to 6896
  151.5544  135.1069  160.0009 H   0  0  0  0  0  0  0  0  0  0  0  0  # atno 6909 bound_to 6896
  146.2394  139.9689  142.8449 H   0  0  0  0  0  0  0  0  0  0  0  0  # atno 7974 bound_to 7965
  154.6706  140.2611  155.7011 H   0  0  0  0  0  0  0  0  0  0  0  0  # atno 8008 bound_to 7997
  156.2657  140.2830  156.1135 H   0  0  0  0  0  0  0  0  0  0  0  0  # atno 8009 bound_to 7997
  155.1174  140.0376  157.2731 H   0  0  0  0  0  0  0  0  0  0  0  0  # atno 8010 bound_to 7997
  139.5444  144.2274  152.0960 H   0  0  0  0  0  0  0  0  0  0  0  0  # atno 10167 bound_to 10162
  157.3803  131.0991  151.0745 H   0  0  0  0  0  0  0  0  0  0  0  0  # atno 10718 bound_to 10713
  154.6218  135.2876  155.0317 H   0  0  0  0  0  0  0  0  0  0  0  0  # atno 10763 bound_to 10752
  154.1509  135.6503  153.4967 H   0  0  0  0  0  0  0  0  0  0  0  0  # atno 10764 bound_to 10752
  153.0239  135.5355  154.7011 H   0  0  0  0  0  0  0  0  0  0  0  0  # atno 10765 bound_to 10752
  140.1981  134.8358  157.2988 H   0  0  0  0  0  0  0  0  0  0  0  0  # atno 11005 bound_to 11000
  145.1700  140.9716  143.4327 LP  0  0  0  0  0  0  0  0  0  0  0  0  # atno 17320 bound_to 7965
  145.0037  139.3574  143.6154 LP  0  0  0  0  0  0  0  0  0  0  0  0  # atno 17321 bound_to 7965
  140.1758  144.4892  150.6554 LP  0  0  0  0  0  0  0  0  0  0  0  0  # atno 17342 bound_to 10162
  140.6687  143.2277  151.5679 LP  0  0  0  0  0  0  0  0  0  0  0  0  # atno 17343 bound_to 10162
  157.1816  130.6312  149.5674 LP  0  0  0  0  0  0  0  0  0  0  0  0  # atno 17370 bound_to 10713
  155.9774  130.4751  150.6592 LP  0  0  0  0  0  0  0  0  0  0  0  0  # atno 17371 bound_to 10713
  140.2084  134.4169  155.7625 LP  0  0  0  0  0  0  0  0  0  0  0  0  # atno 17394 bound_to 11000
  141.2227  133.7106  156.8298 LP  0  0  0  0  0  0  0  0  0  0  0  0  # atno 17395 bound_to 11000

$$$$
