AV-unprocessed.smi:1993|AV-procd|sdf|8070|dock6
  -GOLD-   2272010283D 1   1.00000     0.00000
 Structure written by MMmdl.
 50 51  0  0  0  0  0  0  0  0  1 V2000
  153.6368  142.1674  162.7404 C   0  0  0  0  0  0  0  0  0  0  0  0
  152.6962  142.6659  161.6482 C   0  0  0  0  0  0  0  0  0  0  0  0
  152.0287  143.6832  161.8314 O   0  0  0  0  0  0  0  0  0  0  0  0
  152.6498  141.9421  160.5183 N   0  0  0  0  0  0  0  0  0  0  0  0
  151.8101  142.2372  159.3560 C   0  0  2  0  0  0  0  0  0  0  0  0
  151.6674  140.9502  158.5225 C   0  0  0  0  0  0  0  0  0  0  0  0
  152.6637  140.3888  158.0635 O   0  0  0  0  0  0  0  0  0  0  0  0
  150.4168  140.5087  158.3221 N   0  0  0  0  0  0  0  0  0  0  0  0
  150.0575  139.3478  157.5179 C   0  0  0  0  0  0  0  0  0  0  0  0
  149.5649  139.7290  156.1278 C   0  0  0  0  0  0  0  0  0  0  0  0
  149.4888  141.0908  155.7668 C   0  0  0  0  0  0  0  0  0  0  0  0
  149.0303  141.4356  154.4824 C   0  0  0  0  0  0  0  0  0  0  0  0
  148.6637  140.3989  153.6047 C   0  0  0  0  0  0  0  0  0  0  0  0
  148.7283  139.0927  153.9359 N   0  0  0  0  0  0  0  0  0  0  0  0
  149.1697  138.7570  155.1725 C   0  0  0  0  0  0  0  0  0  0  0  0
  149.2070  137.3908  155.4966 N   0  0  0  0  0  0  0  0  0  0  0  0
  150.3664  136.6611  154.9976 C   0  0  0  0  0  0  0  0  0  0  0  0
  150.3621  135.2299  155.5622 C   0  0  0  0  0  0  0  0  0  0  0  0
  149.1339  134.5885  155.2282 O   0  0  0  0  0  0  0  0  0  0  0  0
  148.0064  135.2707  155.7709 C   0  0  0  0  0  0  0  0  0  0  0  0
  147.9538  136.7039  155.2156 C   0  0  0  0  0  0  0  0  0  0  0  0
  152.4952  143.3502  158.5085 C   0  0  0  0  0  0  0  0  0  0  0  0
  152.6294  144.6700  159.2936 C   0  0  0  0  0  0  0  0  0  0  0  0
  151.7677  143.6301  157.1770 C   0  0  0  0  0  0  0  0  0  0  0  0
  153.0623  141.7793  163.5815 H   0  0  0  0  0  0  0  0  0  0  0  0
  154.2634  142.9839  163.1003 H   0  0  0  0  0  0  0  0  0  0  0  0
  154.2899  141.3738  162.3755 H   0  0  0  0  0  0  0  0  0  0  0  0
  153.2274  141.1159  160.4609 H   0  0  0  0  0  0  0  0  0  0  0  0
  150.8279  142.5841  159.6849 H   0  0  0  0  0  0  0  0  0  0  0  0
  149.6577  141.0257  158.7417 H   0  0  0  0  0  0  0  0  0  0  0  0
  150.9055  138.6650  157.4410 H   0  0  0  0  0  0  0  0  0  0  0  0
  149.2770  138.7933  158.0395 H   0  0  0  0  0  0  0  0  0  0  0  0
  149.7750  141.8633  156.4655 H   0  0  0  0  0  0  0  0  0  0  0  0
  148.9610  142.4694  154.1780 H   0  0  0  0  0  0  0  0  0  0  0  0
  148.3075  140.6243  152.6105 H   0  0  0  0  0  0  0  0  0  0  0  0
  150.3440  136.6261  153.9075 H   0  0  0  0  0  0  0  0  0  0  0  0
  151.2816  137.1782  155.2880 H   0  0  0  0  0  0  0  0  0  0  0  0
  151.1888  134.6570  155.1421 H   0  0  0  0  0  0  0  0  0  0  0  0
  150.4970  135.2383  156.6451 H   0  0  0  0  0  0  0  0  0  0  0  0
  147.0989  134.7299  155.5023 H   0  0  0  0  0  0  0  0  0  0  0  0
  148.0627  135.2789  156.8607 H   0  0  0  0  0  0  0  0  0  0  0  0
  147.1219  137.2469  155.6618 H   0  0  0  0  0  0  0  0  0  0  0  0
  147.7830  136.6823  154.1382 H   0  0  0  0  0  0  0  0  0  0  0  0
  153.5071  143.0244  158.2603 H   0  0  0  0  0  0  0  0  0  0  0  0
  151.6541  145.0424  159.6086 H   0  0  0  0  0  0  0  0  0  0  0  0
  153.0978  145.4433  158.6837 H   0  0  0  0  0  0  0  0  0  0  0  0
  153.2454  144.5548  160.1855 H   0  0  0  0  0  0  0  0  0  0  0  0
  150.7395  143.9476  157.3512 H   0  0  0  0  0  0  0  0  0  0  0  0
  151.7434  142.7566  156.5252 H   0  0  0  0  0  0  0  0  0  0  0  0
  152.2657  144.4237  156.6193 H   0  0  0  0  0  0  0  0  0  0  0  0
  1  2  1  0  0  0  0
  1 25  1  0  0  0  0
  1 26  1  0  0  0  0
  1 27  1  0  0  0  0
  2  3  2  0  0  0  0
  2  4  1  0  0  0  0
  4  5  1  0  0  0  0
  4 28  1  0  0  0  0
  5  6  1  0  0  0  0
  5 22  1  0  0  0  0
  5 29  1  0  0  0  0
  6  7  2  0  0  0  0
  6  8  1  0  0  0  0
  8  9  1  0  0  0  0
  8 30  1  0  0  0  0
  9 10  1  0  0  0  0
  9 31  1  0  0  0  0
  9 32  1  0  0  0  0
 10 15  1  0  0  0  0
 10 11  2  0  0  0  0
 11 12  1  0  0  0  0
 11 33  1  0  0  0  0
 12 13  2  0  0  0  0
 12 34  1  0  0  0  0
 13 14  1  0  0  0  0
 13 35  1  0  0  0  0
 14 15  2  0  0  0  0
 15 16  1  0  0  0  0
 16 21  1  0  0  0  0
 16 17  1  0  0  0  0
 17 18  1  0  0  0  0
 17 36  1  0  0  0  0
 17 37  1  0  0  0  0
 18 19  1  0  0  0  0
 18 38  1  0  0  0  0
 18 39  1  0  0  0  0
 19 20  1  0  0  0  0
 20 21  1  0  0  0  0
 20 40  1  0  0  0  0
 20 41  1  0  0  0  0
 21 42  1  0  0  0  0
 21 43  1  0  0  0  0
 22 23  1  0  0  0  0
 22 24  1  0  0  0  0
 22 44  1  0  0  0  0
 23 45  1  0  0  0  0
 23 46  1  0  0  0  0
 23 47  1  0  0  0  0
 24 48  1  0  0  0  0
 24 49  1  0  0  0  0
 24 50  1  0  0  0  0
M  END
> <s_m_source_file>
AV-unprocessed.smi

> <i_m_source_file_index>
1993

> <i_lp_mmshare_version>
43012

> <i_f3d_flags>
0

> <s_epik_input>
W0NIM11DKD1PKVtOSF1bQ0BASF0oW0NIXShbQ0gzXSlbQ0gzXSlDKD1PKVtOSF1bQ0gyXWMxW2NIXVtjSF1bY0hdbmMxTjJbQ0gyXVtDSDJdT1tDSDJdW0NIMl0y

> <s_epik_cmdline>
J2VwaWtfcHl0aG9uJywgJy1waCcsICc3LjAnLCAnLXRuJywgJzgnLCAnLW1hJywgJzIwMCcsICctbWV0YWxfYmluZGluZycsICctaW1hZScsICc8aW5maWxlLm1hZT4nLCAnLW9tYWUnLCAnPG91dGZpbGUubWFlPic=

> <r_lp_tautomer_probability>
1

> <r_epik_Ionization_Penalty>
0.00485175

> <r_epik_Ionization_Penalty_Charging>
0

> <r_epik_Ionization_Penalty_Neutral>
0.00485175

> <r_epik_State_Penalty>
0.00351951

> <r_epik_Charging_Adjusted_Penalty>
0.00351951

> <i_epik_Tot_Q>
0

> <i_epik_Tot_abs_Q>
0

> <r_epik_Metal_State_Penalty>
-0

> <b_epik_Metal_Only>
0

> <s_lp_Force_Field>
OPLS_2005

> <r_lp_Energy>
19.1581

> <b_lp_Chiralities_Consistent>
1

> <s_lp_Variant>
AV-unprocessed.smi:1993-1

> <Gold.Version>
5.8.1

> <Gold.Id.Protein>
6NUR|6NUR_protein|mol2

> <Gold.PLP.Fitness>
38.2025

> <Gold.PLP.PLP>
-35.6446

> <Gold.PLP.part.hbond>
-1.0000

> <Gold.PLP.part.metal>
0.0000

> <Gold.PLP.part.buried>
-1.3501

> <Gold.PLP.part.nonpolar>
-33.4696

> <Gold.PLP.part.repulsive>
1.6383

> <Gold.PLP.ligand.clash>
0.0000

> <Gold.PLP.ligand.torsion>
0.8082

> <Gold.PLP.Chemscore.Hbond>
0.7166

> <Gold.PLP.Chemscore.CHOScore>
0.6149

> <Gold.PLP.Chemscore.Metal>
0.0000

> <Gold.Chemscore.Hbonds>
donor molecule, donor type, donor heavy atom, donor atom, acceptor molecule, acceptor atom, score
      P1  H  7997  8009       L1     7  0.55
      L1  C    13    35       P1  7957  0.66

> <Gold.PLP.Chemscore.Internal.Correction>
0.1800

> <Gold.Rescore>
     Score         DG    S(hbond)    S(metal)    S(lipo)     H(rot)  DE(clash)    DE(int)     intcor
     12.37     -13.92       0.71        0.00      99.51       2.18       0.22       1.33       ----

> <Gold.Chemscore.Fitness>
12.3696

> <Gold.Chemscore.DG>
-13.9187

> <Gold.Chemscore.ZeroCoef>
-5.4800

> <Gold.Chemscore.Hbond>
0.7126

> <Gold.Chemscore.Metal>
0.0000

> <Gold.Chemscore.Lipo>
99.5102

> <Gold.Chemscore.Internal_Hbond>
0.0000

> <Gold.Chemscore.DEClash>
0.2190

> <Gold.Chemscore.DEInternal>
1.3301

> <Gold.Chemscore.Rot>
2.1813

> <Gold.Chemscore.Internal.Correction>
   9.000000E+99

> <Gold.Chemscore.Hbonds>
donor molecule, donor type, donor heavy atom, donor atom, acceptor molecule, acceptor atom, score
      P1  H  7997  8009       L1     7  0.53

> <Gold.Chemscore.Hbond.Weighted>
-2.3802

> <Gold.Chemscore.Metal.Weighted>
-0.0000

> <Gold.Chemscore.Lipo.Weighted>
-11.6427

> <Gold.Chemscore.Internal_Hbond.Weighted>
0.0000

> <Gold.Chemscore.DEClash.Weighted>
0.2190

> <Gold.Chemscore.DEInternal.Weighted>
1.3301

> <Gold.Chemscore.Rot.Weighted>
5.5842

> <Gold.Chemscore.Internal.Correction.Weighted>
   9.000000E+99

> <Gold.Protein.RotatedTorsions>
[ 6907 6896 6895 6894 ] final  -30.37 input  -60.11 | X-H torsion
[ 7974 7965 7964 7962 ] final  -11.14 input  175.53 | X-H torsion
[ 8008 7997 7996 7995 ] final  164.62 input   59.86 | X-H torsion
[ 10167 10162 10161 10158 ] final   72.75 input  -65.29 | X-H torsion
[ 10718 10713 10712 10709 ] final  -84.34 input   66.30 | X-H torsion
[ 10763 10752 10751 10750 ] final   65.97 input  -60.55 | X-H torsion
[ 11005 11000 10999 10996 ] final   92.60 input  -57.11 | X-H torsion

> <Gold.Protein.ActiveResidues>
 VAL166  LYS551  ARG553  GLY616  TRP617  ASP618  TYR619  PRO620  LYS621  CYS622 
 ASP623  PHE694  ASN695  SER759  ASP760  ASP761  ALA762  ILE779  LEU786  VAL792 
 PHE793  MET794  SER795  GLU796  ALA797  LYS798  CYS799  TRP800  GLU811  SER814 

> <Gold.Protein.RotatedAtoms>
  151.1065  135.0002  159.8473 H   0  0  0  0  0  0  0  0  0  0  0  0  # atno 6907 bound_to 6896
  152.5440  134.1888  159.8675 H   0  0  0  0  0  0  0  0  0  0  0  0  # atno 6908 bound_to 6896
  151.1934  133.4609  159.2628 H   0  0  0  0  0  0  0  0  0  0  0  0  # atno 6909 bound_to 6896
  146.2197  140.2868  142.8366 H   0  0  0  0  0  0  0  0  0  0  0  0  # atno 7974 bound_to 7965
  156.1866  140.1692  156.8173 H   0  0  0  0  0  0  0  0  0  0  0  0  # atno 8008 bound_to 7997
  154.5421  140.0734  156.8560 H   0  0  0  0  0  0  0  0  0  0  0  0  # atno 8009 bound_to 7997
  155.3194  140.3372  155.4244 H   0  0  0  0  0  0  0  0  0  0  0  0  # atno 8010 bound_to 7997
  140.0319  144.5459  150.7500 H   0  0  0  0  0  0  0  0  0  0  0  0  # atno 10167 bound_to 10162
  156.0007  130.4695  150.4395 H   0  0  0  0  0  0  0  0  0  0  0  0  # atno 10718 bound_to 10713
  153.0119  135.5337  154.6751 H   0  0  0  0  0  0  0  0  0  0  0  0  # atno 10763 bound_to 10752
  154.5925  135.2860  155.0622 H   0  0  0  0  0  0  0  0  0  0  0  0  # atno 10764 bound_to 10752
  154.1710  135.6532  153.5062 H   0  0  0  0  0  0  0  0  0  0  0  0  # atno 10765 bound_to 10752
  139.8821  134.8742  156.3596 H   0  0  0  0  0  0  0  0  0  0  0  0  # atno 11005 bound_to 11000
  144.9156  140.7809  143.5780 LP  0  0  0  0  0  0  0  0  0  0  0  0  # atno 17320 bound_to 7965
  145.2801  139.1921  143.4795 LP  0  0  0  0  0  0  0  0  0  0  0  0  # atno 17321 bound_to 7965
  140.7298  143.2677  151.3991 LP  0  0  0  0  0  0  0  0  0  0  0  0  # atno 17342 bound_to 10162
  139.6070  144.1176  152.2260 LP  0  0  0  0  0  0  0  0  0  0  0  0  # atno 17343 bound_to 10162
  157.2437  131.0531  151.2421 LP  0  0  0  0  0  0  0  0  0  0  0  0  # atno 17370 bound_to 10713
  157.3595  130.7124  149.6492 LP  0  0  0  0  0  0  0  0  0  0  0  0  # atno 17371 bound_to 10713
  140.9538  133.7433  156.0308 LP  0  0  0  0  0  0  0  0  0  0  0  0  # atno 17394 bound_to 11000
  140.8073  134.3440  157.5422 LP  0  0  0  0  0  0  0  0  0  0  0  0  # atno 17395 bound_to 11000

$$$$
