AV-unprocessed.smi:2735|AV-procd|sdf|10543|dock4
  -GOLD-   2272014593D 1   1.00000     0.00000
 Structure written by MMmdl.
 42 42  0  0  0  0  0  0  0  0  2 V2000
  154.2255  140.1435  161.0907 C   0  0  0  0  0  0  0  0  0  0  0  0
  153.5010  141.1336  160.2276 C   0  0  0  0  0  0  0  0  0  0  0  0
  153.4655  142.5498  160.3490 C   0  0  0  0  0  0  0  0  0  0  0  0
  152.6788  142.9586  159.3094 C   0  0  0  0  0  0  0  0  0  0  0  0
  152.2880  144.3395  158.8942 C   0  0  0  0  0  0  0  0  0  0  0  0
  152.2706  141.8182  158.6353 N   0  0  0  0  0  0  0  0  0  0  0  0
  151.4701  141.7075  157.4142 C   0  0  2  0  0  0  0  0  0  0  0  0
  150.0647  142.3207  157.5866 C   0  0  0  0  0  0  0  0  0  0  0  0
  151.4367  140.2465  156.9320 C   0  0  0  0  0  0  0  0  0  0  0  0
  152.2880  139.8141  156.1541 O   0  0  0  0  0  0  0  0  0  0  0  0
  150.4263  139.5003  157.4045 N   0  0  0  0  0  0  0  0  0  0  0  0
  150.1354  138.1148  157.0468 C   0  0  2  0  0  0  0  0  0  0  0  0
  148.7608  138.0656  156.3361 C   0  0  0  0  0  0  0  0  0  0  0  0
  148.8009  138.2767  154.8034 C   0  0  0  0  0  0  0  0  0  0  0  0
  149.7874  139.3962  154.4388 C   0  0  0  0  0  0  0  0  0  0  0  0
  147.4130  138.5652  154.2077 C   0  0  0  0  0  0  0  0  0  0  0  0
  150.0550  137.2581  158.3205 C   0  0  0  0  0  0  0  0  0  0  0  0
  149.7624  136.0515  158.1727 O   0  0  0  0  0  0  0  0  0  0  0  0
  150.2779  137.8183  159.4181 O   0  5  0  0  0  0  0  0  0  0  0  0
  152.7891  140.7029  159.2008 N   0  0  0  0  0  0  0  0  0  0  0  0
  150.9116  137.7145  156.3925 H   0  0  0  0  0  0  0  0  0  0  0  0
  154.9059  140.6448  161.7794 H   0  0  0  0  0  0  0  0  0  0  0  0
  154.8155  139.4527  160.4875 H   0  0  0  0  0  0  0  0  0  0  0  0
  153.5251  139.5553  161.6841 H   0  0  0  0  0  0  0  0  0  0  0  0
  153.9540  143.1734  161.0830 H   0  0  0  0  0  0  0  0  0  0  0  0
  152.7281  145.0845  159.5572 H   0  0  0  0  0  0  0  0  0  0  0  0
  151.2055  144.4635  158.9250 H   0  0  0  0  0  0  0  0  0  0  0  0
  152.6273  144.5538  157.8810 H   0  0  0  0  0  0  0  0  0  0  0  0
  151.9708  142.2805  156.6336 H   0  0  0  0  0  0  0  0  0  0  0  0
  149.5127  142.3094  156.6459 H   0  0  0  0  0  0  0  0  0  0  0  0
  150.1316  143.3593  157.9114 H   0  0  0  0  0  0  0  0  0  0  0  0
  149.4698  141.7812  158.3249 H   0  0  0  0  0  0  0  0  0  0  0  0
  149.7879  139.9341  158.0547 H   0  0  0  0  0  0  0  0  0  0  0  0
  148.2845  137.1067  156.5479 H   0  0  0  0  0  0  0  0  0  0  0  0
  148.1038  138.8239  156.7667 H   0  0  0  0  0  0  0  0  0  0  0  0
  149.1761  137.3657  154.3357 H   0  0  0  0  0  0  0  0  0  0  0  0
  149.4772  140.3513  154.8638 H   0  0  0  0  0  0  0  0  0  0  0  0
  149.8607  139.5200  153.3579 H   0  0  0  0  0  0  0  0  0  0  0  0
  150.7882  139.1750  154.8111 H   0  0  0  0  0  0  0  0  0  0  0  0
  146.9552  139.4388  154.6726 H   0  0  0  0  0  0  0  0  0  0  0  0
  146.7371  137.7206  154.3413 H   0  0  0  0  0  0  0  0  0  0  0  0
  147.4787  138.7537  153.1359 H   0  0  0  0  0  0  0  0  0  0  0  0
  1  2  1  0  0  0  0
  1 22  1  0  0  0  0
  1 23  1  0  0  0  0
  1 24  1  0  0  0  0
  2 20  2  0  0  0  0
  2  3  1  0  0  0  0
  3  4  2  0  0  0  0
  3 25  1  0  0  0  0
  4  5  1  0  0  0  0
  4  6  1  0  0  0  0
  5 26  1  0  0  0  0
  5 27  1  0  0  0  0
  5 28  1  0  0  0  0
  6  7  1  0  0  0  0
  6 20  1  0  0  0  0
  7  8  1  0  0  0  0
  7  9  1  0  0  0  0
  7 29  1  0  0  0  0
  8 30  1  0  0  0  0
  8 31  1  0  0  0  0
  8 32  1  0  0  0  0
  9 10  2  0  0  0  0
  9 11  1  0  0  0  0
 11 12  1  0  0  0  0
 11 33  1  0  0  0  0
 12 21  1  0  0  0  0
 12 13  1  0  0  0  0
 12 17  1  0  0  0  0
 13 14  1  0  0  0  0
 13 34  1  0  0  0  0
 13 35  1  0  0  0  0
 14 15  1  0  0  0  0
 14 16  1  0  0  0  0
 14 36  1  0  0  0  0
 15 37  1  0  0  0  0
 15 38  1  0  0  0  0
 15 39  1  0  0  0  0
 16 40  1  0  0  0  0
 16 41  1  0  0  0  0
 16 42  1  0  0  0  0
 17 18  2  0  0  0  0
 17 19  1  0  0  0  0
M  CHG  1  19  -1
M  END
> <s_m_source_file>
AV-unprocessed.smi

> <i_m_source_file_index>
2735

> <i_lp_mmshare_version>
43012

> <i_f3d_flags>
0

> <s_epik_input>
W0NIM11jMVtjSF1jKFtDSDNdKW4objEpW0NASF0oW0NIM10pQyg9TylbTkhdW0NASF0oQyg9TylbT0hdKVtDSDJdW0NIXShbQ0gzXSlbQ0gzXQ==

> <s_epik_cmdline>
J2VwaWtfcHl0aG9uJywgJy1waCcsICc3LjAnLCAnLXRuJywgJzgnLCAnLW1hJywgJzIwMCcsICctbWV0YWxfYmluZGluZycsICctaW1hZScsICc8aW5maWxlLm1hZT4nLCAnLW9tYWUnLCAnPG91dGZpbGUubWFlPic=

> <r_lp_tautomer_probability>
1

> <r_epik_Ionization_Penalty>
0.0012303

> <r_epik_Ionization_Penalty_Charging>
0.000186407

> <r_epik_Ionization_Penalty_Neutral>
0.0010439

> <r_epik_State_Penalty>
-0

> <r_epik_Charging_Adjusted_Penalty>
0.000186407

> <i_epik_Tot_Q>
-1

> <i_epik_Tot_abs_Q>
1

> <r_epik_Metal_State_Penalty>
-0

> <b_epik_Metal_Only>
0

> <s_lp_Force_Field>
OPLS_2005

> <r_lp_Energy>
6.45659

> <b_lp_Chiralities_Consistent>
1

> <s_lp_Variant>
AV-unprocessed.smi:2735-3

> <Gold.Version>
5.8.1

> <Gold.Id.Protein>
6NUR|6NUR_protein|mol2

> <Gold.PLP.Fitness>
43.2571

> <Gold.PLP.PLP>
-36.5511

> <Gold.PLP.part.hbond>
-3.0000

> <Gold.PLP.part.metal>
0.0000

> <Gold.PLP.part.buried>
-4.7943

> <Gold.PLP.part.nonpolar>
-28.3687

> <Gold.PLP.part.repulsive>
0.0297

> <Gold.PLP.ligand.clash>
0.0000

> <Gold.PLP.ligand.torsion>
1.2474

> <Gold.PLP.Chemscore.Hbond>
3.0000

> <Gold.PLP.Chemscore.CHOScore>
0.0000

> <Gold.PLP.Chemscore.Metal>
0.0000

> <Gold.Chemscore.Hbonds>
donor molecule, donor type, donor heavy atom, donor atom, acceptor molecule, acceptor atom, score
      P1  H  6896  6908       L1    18  1.20
      P1  H  7997  8009       L1    10  0.89

> <Gold.PLP.Chemscore.Internal.Correction>
0.2008

> <Gold.Rescore>
     Score         DG    S(hbond)    S(metal)    S(lipo)     H(rot)  DE(clash)    DE(int)     intcor
     15.47     -16.87       1.98        0.00      89.89       2.24       0.12       1.28       ----

> <Gold.Chemscore.Fitness>
15.4678

> <Gold.Chemscore.DG>
-16.8698

> <Gold.Chemscore.ZeroCoef>
-5.4800

> <Gold.Chemscore.Hbond>
1.9773

> <Gold.Chemscore.Metal>
0.0000

> <Gold.Chemscore.Lipo>
89.8893

> <Gold.Chemscore.Internal_Hbond>
0.0000

> <Gold.Chemscore.DEClash>
0.1207

> <Gold.Chemscore.DEInternal>
1.2814

> <Gold.Chemscore.Rot>
2.2388

> <Gold.Chemscore.Internal.Correction>
   9.000000E+99

> <Gold.Chemscore.Hbonds>
donor molecule, donor type, donor heavy atom, donor atom, acceptor molecule, acceptor atom, score
      P1  H  6896  6908       L1    18  0.48
      P1  H  7997  8009       L1    10  0.85

> <Gold.Chemscore.Hbond.Weighted>
-6.6041

> <Gold.Chemscore.Metal.Weighted>
-0.0000

> <Gold.Chemscore.Lipo.Weighted>
-10.5171

> <Gold.Chemscore.Internal_Hbond.Weighted>
0.0000

> <Gold.Chemscore.DEClash.Weighted>
0.1207

> <Gold.Chemscore.DEInternal.Weighted>
1.2814

> <Gold.Chemscore.Rot.Weighted>
5.7314

> <Gold.Chemscore.Internal.Correction.Weighted>
   9.000000E+99

> <Gold.Protein.RotatedTorsions>
[ 6907 6896 6895 6894 ] final -176.05 input  -60.11 | X-H torsion
[ 7974 7965 7964 7962 ] final   82.08 input  175.53 | X-H torsion
[ 8008 7997 7996 7995 ] final -159.90 input   59.86 | X-H torsion
[ 10167 10162 10161 10158 ] final -110.51 input  -65.29 | X-H torsion
[ 10718 10713 10712 10709 ] final -133.00 input   66.30 | X-H torsion
[ 10763 10752 10751 10750 ] final  -66.62 input  -60.55 | X-H torsion
[ 11005 11000 10999 10996 ] final   27.26 input  -57.11 | X-H torsion

> <Gold.Protein.ActiveResidues>
 VAL166  LYS551  ARG553  GLY616  TRP617  ASP618  TYR619  PRO620  LYS621  CYS622 
 ASP623  PHE694  ASN695  SER759  ASP760  ASP761  ALA762  ILE779  LEU786  VAL792 
 PHE793  MET794  SER795  GLU796  ALA797  LYS798  CYS799  TRP800  GLU811  SER814 

> <Gold.Protein.RotatedAtoms>
  151.5986  133.3359  159.3042 H   0  0  0  0  0  0  0  0  0  0  0  0  # atno 6907 bound_to 6896
  150.8220  134.7436  159.6792 H   0  0  0  0  0  0  0  0  0  0  0  0  # atno 6908 bound_to 6896
  152.4313  134.5778  159.9991 H   0  0  0  0  0  0  0  0  0  0  0  0  # atno 6909 bound_to 6896
  145.6297  139.2402  143.2092 H   0  0  0  0  0  0  0  0  0  0  0  0  # atno 7974 bound_to 7965
  155.7694  140.0850  157.2115 H   0  0  0  0  0  0  0  0  0  0  0  0  # atno 8008 bound_to 7997
  154.3997  140.1528  156.2981 H   0  0  0  0  0  0  0  0  0  0  0  0  # atno 8009 bound_to 7997
  155.8762  140.3423  155.5858 H   0  0  0  0  0  0  0  0  0  0  0  0  # atno 8010 bound_to 7997
  140.1437  143.4257  152.1544 H   0  0  0  0  0  0  0  0  0  0  0  0  # atno 10167 bound_to 10162
  156.2404  130.7092  151.0950 H   0  0  0  0  0  0  0  0  0  0  0  0  # atno 10718 bound_to 10713
  154.3625  135.6113  153.5698 H   0  0  0  0  0  0  0  0  0  0  0  0  # atno 10763 bound_to 10752
  152.9793  135.5818  154.4616 H   0  0  0  0  0  0  0  0  0  0  0  0  # atno 10764 bound_to 10752
  154.4356  135.2849  155.1860 H   0  0  0  0  0  0  0  0  0  0  0  0  # atno 10765 bound_to 10752
  140.3282  134.2467  155.7706 H   0  0  0  0  0  0  0  0  0  0  0  0  # atno 11005 bound_to 11000
  146.1366  140.7114  142.9387 LP  0  0  0  0  0  0  0  0  0  0  0  0  # atno 17320 bound_to 7965
  144.7198  140.4336  143.7016 LP  0  0  0  0  0  0  0  0  0  0  0  0  # atno 17321 bound_to 7965
  139.5459  144.7298  151.4584 LP  0  0  0  0  0  0  0  0  0  0  0  0  # atno 17342 bound_to 10162
  140.6745  143.8221  150.7040 LP  0  0  0  0  0  0  0  0  0  0  0  0  # atno 17343 bound_to 10162
  157.7172  131.0702  150.6279 LP  0  0  0  0  0  0  0  0  0  0  0  0  # atno 17370 bound_to 10713
  156.6351  130.4443  149.5772 LP  0  0  0  0  0  0  0  0  0  0  0  0  # atno 17371 bound_to 10713
  141.2070  133.7818  157.0145 LP  0  0  0  0  0  0  0  0  0  0  0  0  # atno 17394 bound_to 11000
  140.0883  134.9607  157.1735 LP  0  0  0  0  0  0  0  0  0  0  0  0  # atno 17395 bound_to 11000

$$$$
