AV-unprocessed.smi:3250|AV-procd|sdf|12428|dock4
  -GOLD-   2272018313D 1   1.00000     0.00000
 Structure written by MMmdl.
 39 40  0  0  0  0  0  0  0  0  2 V2000
  143.7715  132.6501  150.9939 C   0  0  0  0  0  0  0  0  0  0  0  0
  144.6558  133.8117  150.5184 C   0  0  0  0  0  0  0  0  0  0  0  0
  144.7870  134.8849  151.5356 N   0  3  2  0  0  0  0  0  0  0  0  0
  143.4707  135.3357  152.0462 C   0  0  0  0  0  0  0  0  0  0  0  0
  143.6511  136.4168  153.1234 C   0  0  0  0  0  0  0  0  0  0  0  0
  144.3997  137.4983  152.5849 O   0  0  0  0  0  0  0  0  0  0  0  0
  145.7099  137.1041  152.1897 C   0  0  2  0  0  0  0  0  0  0  0  0
  146.4606  138.3521  151.7062 C   0  0  0  0  0  0  0  0  0  0  0  0
  146.2530  139.4835  152.5971 N   0  0  0  0  0  0  0  0  0  0  0  0
  147.2528  140.0585  153.3583 C   0  0  0  0  0  0  0  0  0  0  0  0
  147.1477  141.3562  153.6664 N   0  0  0  0  0  0  0  0  0  0  0  0
  148.1397  141.8910  154.4108 C   0  0  0  0  0  0  0  0  0  0  0  0
  149.2368  141.1219  154.8472 C   0  0  0  0  0  0  0  0  0  0  0  0
  149.2445  139.7646  154.4674 C   0  0  0  0  0  0  0  0  0  0  0  0
  150.2877  138.9555  154.8667 O   0  0  0  0  0  0  0  0  0  0  0  0
  151.3985  139.5637  155.5158 C   0  0  0  0  0  0  0  0  0  0  0  0
  148.2433  139.2390  153.7167 N   0  0  0  0  0  0  0  0  0  0  0  0
  145.5878  136.0466  151.0744 C   0  0  0  0  0  0  0  0  0  0  0  0
  143.6210  131.9304  150.1887 H   0  0  0  0  0  0  0  0  0  0  0  0
  142.7888  133.0042  151.3067 H   0  0  0  0  0  0  0  0  0  0  0  0
  144.2180  132.1098  151.8282 H   0  0  0  0  0  0  0  0  0  0  0  0
  145.6425  133.4487  150.2267 H   0  0  0  0  0  0  0  0  0  0  0  0
  144.2020  134.2298  149.6189 H   0  0  0  0  0  0  0  0  0  0  0  0
  142.8733  135.7282  151.2214 H   0  0  0  0  0  0  0  0  0  0  0  0
  142.9245  134.4897  152.4648 H   0  0  0  0  0  0  0  0  0  0  0  0
  142.6796  136.7883  153.4497 H   0  0  0  0  0  0  0  0  0  0  0  0
  144.1507  136.0125  154.0053 H   0  0  0  0  0  0  0  0  0  0  0  0
  146.2399  136.6745  153.0423 H   0  0  0  0  0  0  0  0  0  0  0  0
  147.5298  138.1426  151.6607 H   0  0  0  0  0  0  0  0  0  0  0  0
  146.1418  138.6188  150.6977 H   0  0  0  0  0  0  0  0  0  0  0  0
  145.3667  139.9660  152.5620 H   0  0  0  0  0  0  0  0  0  0  0  0
  148.0575  142.9385  154.6606 H   0  0  0  0  0  0  0  0  0  0  0  0
  150.0292  141.5503  155.4429 H   0  0  0  0  0  0  0  0  0  0  0  0
  152.1382  138.8004  155.7563 H   0  0  0  0  0  0  0  0  0  0  0  0
  151.1014  140.0430  156.4496 H   0  0  0  0  0  0  0  0  0  0  0  0
  151.8818  140.3011  154.8730 H   0  0  0  0  0  0  0  0  0  0  0  0
  146.5851  135.7226  150.7780 H   0  0  0  0  0  0  0  0  0  0  0  0
  145.1183  136.4847  150.1920 H   0  0  0  0  0  0  0  0  0  0  0  0
  145.2744  134.4810  152.3230 H   0  0  0  0  0  0  0  0  0  0  0  0
  1  2  1  0  0  0  0
  1 19  1  0  0  0  0
  1 20  1  0  0  0  0
  1 21  1  0  0  0  0
  2  3  1  0  0  0  0
  2 22  1  0  0  0  0
  2 23  1  0  0  0  0
  3 18  1  0  0  0  0
  3  4  1  0  0  0  0
  3 39  1  0  0  0  0
  4  5  1  0  0  0  0
  4 24  1  0  0  0  0
  4 25  1  0  0  0  0
  5  6  1  0  0  0  0
  5 26  1  0  0  0  0
  5 27  1  0  0  0  0
  6  7  1  0  0  0  0
  7  8  1  0  0  0  0
  7 18  1  0  0  0  0
  7 28  1  0  0  0  0
  8  9  1  0  0  0  0
  8 29  1  0  0  0  0
  8 30  1  0  0  0  0
  9 10  1  0  0  0  0
  9 31  1  0  0  0  0
 10 17  1  0  0  0  0
 10 11  2  0  0  0  0
 11 12  1  0  0  0  0
 12 13  2  0  0  0  0
 12 32  1  0  0  0  0
 13 14  1  0  0  0  0
 13 33  1  0  0  0  0
 14 15  1  0  0  0  0
 14 17  2  0  0  0  0
 15 16  1  0  0  0  0
 16 34  1  0  0  0  0
 16 35  1  0  0  0  0
 16 36  1  0  0  0  0
 18 37  1  0  0  0  0
 18 38  1  0  0  0  0
M  CHG  1   3   1
M  END
> <s_m_source_file>
AV-unprocessed.smi

> <i_m_source_file_index>
3250

> <i_lp_mmshare_version>
43012

> <i_f3d_flags>
0

> <s_epik_input>
W0NIM11bQ0gyXU4xW0NIMl1bQ0gyXU9bQ0BIXShbQ0gyXTEpW0NIMl1bTkhdYzJuW2NIXVtjSF1jKG4yKU9bQ0gzXQ==

> <s_epik_cmdline>
J2VwaWtfcHl0aG9uJywgJy1waCcsICc3LjAnLCAnLXRuJywgJzgnLCAnLW1hJywgJzIwMCcsICctbWV0YWxfYmluZGluZycsICctaW1hZScsICc8aW5maWxlLm1hZT4nLCAnLW9tYWUnLCAnPG91dGZpbGUubWFlPic=

> <r_lp_tautomer_probability>
1

> <r_epik_Ionization_Penalty>
0.19684

> <r_epik_Ionization_Penalty_Charging>
0.178504

> <r_epik_Ionization_Penalty_Neutral>
0.0183356

> <r_epik_State_Penalty>
0.162939

> <r_epik_Charging_Adjusted_Penalty>
0.341443

> <i_epik_Tot_Q>
1

> <i_epik_Tot_abs_Q>
1

> <r_epik_Metal_State_Penalty>
0.1608

> <b_epik_Metal_Only>
0

> <s_lp_Force_Field>
OPLS_2005

> <r_lp_Energy>
8.82404

> <b_lp_Chiralities_Consistent>
1

> <s_lp_Variant>
AV-unprocessed.smi:3250-4

> <Gold.Version>
5.8.1

> <Gold.Id.Protein>
6NUR|6NUR_protein|mol2

> <Gold.PLP.Fitness>
38.4294

> <Gold.PLP.PLP>
-33.2658

> <Gold.PLP.part.hbond>
-1.0000

> <Gold.PLP.part.metal>
0.0000

> <Gold.PLP.part.buried>
-3.7686

> <Gold.PLP.part.nonpolar>
-30.5638

> <Gold.PLP.part.repulsive>
2.5636

> <Gold.PLP.ligand.clash>
0.0968

> <Gold.PLP.ligand.torsion>
0.3894

> <Gold.PLP.Chemscore.Hbond>
1.0000

> <Gold.PLP.Chemscore.CHOScore>
1.0000

> <Gold.PLP.Chemscore.Metal>
0.0000

> <Gold.Chemscore.Hbonds>
donor molecule, donor type, donor heavy atom, donor atom, acceptor molecule, acceptor atom, score
      L1  H     9    31       P1 10175  1.00
      L1  C    12    32       P1  8028  1.00

> <Gold.PLP.Chemscore.Internal.Correction>
0.0393

> <Gold.Rescore>
     Score         DG    S(hbond)    S(metal)    S(lipo)     H(rot)  DE(clash)    DE(int)     intcor
     11.76     -12.22       1.00        0.00      66.54       1.71       0.16       0.29       ----

> <Gold.Chemscore.Fitness>
11.7639

> <Gold.Chemscore.DG>
-12.2181

> <Gold.Chemscore.ZeroCoef>
-5.4800

> <Gold.Chemscore.Hbond>
0.9992

> <Gold.Chemscore.Metal>
0.0000

> <Gold.Chemscore.Lipo>
66.5410

> <Gold.Chemscore.Internal_Hbond>
0.0000

> <Gold.Chemscore.DEClash>
0.1610

> <Gold.Chemscore.DEInternal>
0.2932

> <Gold.Chemscore.Rot>
1.7127

> <Gold.Chemscore.Internal.Correction>
   9.000000E+99

> <Gold.Chemscore.Hbonds>
donor molecule, donor type, donor heavy atom, donor atom, acceptor molecule, acceptor atom, score
      L1  H     9    31       P1 10175  0.98

> <Gold.Chemscore.Hbond.Weighted>
-3.3374

> <Gold.Chemscore.Metal.Weighted>
-0.0000

> <Gold.Chemscore.Lipo.Weighted>
-7.7853

> <Gold.Chemscore.Internal_Hbond.Weighted>
0.0000

> <Gold.Chemscore.DEClash.Weighted>
0.1610

> <Gold.Chemscore.DEInternal.Weighted>
0.2932

> <Gold.Chemscore.Rot.Weighted>
4.3846

> <Gold.Chemscore.Internal.Correction.Weighted>
   9.000000E+99

> <Gold.Protein.RotatedTorsions>
[ 6907 6896 6895 6894 ] final  -70.71 input  -60.11 | X-H torsion
[ 7974 7965 7964 7962 ] final   10.18 input  175.53 | X-H torsion
[ 8008 7997 7996 7995 ] final   36.90 input   59.86 | X-H torsion
[ 10167 10162 10161 10158 ] final   63.36 input  -65.29 | X-H torsion
[ 10718 10713 10712 10709 ] final  152.20 input   66.30 | X-H torsion
[ 10763 10752 10751 10750 ] final -159.33 input  -60.55 | X-H torsion
[ 11005 11000 10999 10996 ] final  -90.07 input  -57.11 | X-H torsion

> <Gold.Protein.ActiveResidues>
 VAL166  LYS551  ARG553  GLY616  TRP617  ASP618  TYR619  PRO620  LYS621  CYS622 
 ASP623  PHE694  ASN695  SER759  ASP760  ASP761  ALA762  ILE779  LEU786  VAL792 
 PHE793  MET794  SER795  GLU796  ALA797  LYS798  CYS799  TRP800  GLU811  SER814 

> <Gold.Protein.RotatedAtoms>
  150.7245  134.5414  159.5748 H   0  0  0  0  0  0  0  0  0  0  0  0  # atno 6907 bound_to 6896
  152.2924  134.7703  160.0384 H   0  0  0  0  0  0  0  0  0  0  0  0  # atno 6908 bound_to 6896
  151.8312  133.3373  159.3651 H   0  0  0  0  0  0  0  0  0  0  0  0  # atno 6909 bound_to 6896
  146.2392  139.9673  142.8451 H   0  0  0  0  0  0  0  0  0  0  0  0  # atno 7974 bound_to 7965
  155.1950  140.3311  155.4352 H   0  0  0  0  0  0  0  0  0  0  0  0  # atno 8008 bound_to 7997
  156.2428  140.1903  156.6991 H   0  0  0  0  0  0  0  0  0  0  0  0  # atno 8009 bound_to 7997
  154.6180  140.0599  156.9564 H   0  0  0  0  0  0  0  0  0  0  0  0  # atno 8010 bound_to 7997
  140.1339  144.4617  150.6849 H   0  0  0  0  0  0  0  0  0  0  0  0  # atno 10167 bound_to 10162
  157.2609  131.0798  151.1666 H   0  0  0  0  0  0  0  0  0  0  0  0  # atno 10718 bound_to 10713
  154.7483  135.3086  154.8604 H   0  0  0  0  0  0  0  0  0  0  0  0  # atno 10763 bound_to 10752
  153.9398  135.6776  153.4748 H   0  0  0  0  0  0  0  0  0  0  0  0  # atno 10764 bound_to 10752
  153.1079  135.4880  154.8911 H   0  0  0  0  0  0  0  0  0  0  0  0  # atno 10765 bound_to 10752
  141.1573  133.7669  156.9686 H   0  0  0  0  0  0  0  0  0  0  0  0  # atno 11005 bound_to 11000
  145.1714  140.9722  143.4319 LP  0  0  0  0  0  0  0  0  0  0  0  0  # atno 17320 bound_to 7965
  145.0025  139.3585  143.6160 LP  0  0  0  0  0  0  0  0  0  0  0  0  # atno 17321 bound_to 7965
  140.6801  143.2322  151.5407 LP  0  0  0  0  0  0  0  0  0  0  0  0  # atno 17342 bound_to 10162
  139.5506  144.2406  152.1523 LP  0  0  0  0  0  0  0  0  0  0  0  0  # atno 17343 bound_to 10162
  157.3177  130.6921  149.6251 LP  0  0  0  0  0  0  0  0  0  0  0  0  # atno 17370 bound_to 10713
  155.9664  130.4345  150.5050 LP  0  0  0  0  0  0  0  0  0  0  0  0  # atno 17371 bound_to 10713
  140.1145  134.9456  157.2114 LP  0  0  0  0  0  0  0  0  0  0  0  0  # atno 17394 bound_to 11000
  140.3151  134.2979  155.7258 LP  0  0  0  0  0  0  0  0  0  0  0  0  # atno 17395 bound_to 11000

$$$$
