AV-unprocessed.smi:962|AV-procd|sdf|4275|dock1
  -GOLD-   22720 2183D 1   1.00000     0.00000
 Structure written by MMmdl.
 42 43  0  0  0  0  0  0  0  0  1 V2000
  146.6049  134.3590  162.6199 C   0  0  0  0  0  0  0  0  0  0  0  0
  146.9193  135.8401  162.3199 C   0  0  0  0  0  0  0  0  0  0  0  0
  145.5936  136.6258  162.3609 C   0  0  0  0  0  0  0  0  0  0  0  0
  147.8715  136.3562  163.4165 C   0  0  0  0  0  0  0  0  0  0  0  0
  147.5635  135.9974  160.9577 C   0  0  0  0  0  0  0  0  0  0  0  0
  147.8099  135.0231  160.0173 C   0  0  0  0  0  0  0  0  0  0  0  0
  148.5287  135.6683  158.5685 S   0  0  0  0  0  0  0  0  0  0  0  0
  148.4834  137.2675  159.2978 C   0  0  0  0  0  0  0  0  0  0  0  0
  148.8956  138.5112  158.5778 C   0  0  0  0  0  0  0  0  0  0  0  0
  150.4169  138.6300  158.3557 C   0  0  0  0  0  0  0  0  0  0  0  0
  150.9423  139.9212  158.7955 N   0  0  0  0  0  0  0  0  0  0  0  0
  150.8677  141.0729  158.1034 C   0  0  0  0  0  0  0  0  0  0  0  0
  150.2443  141.1836  157.0470 O   0  0  0  0  0  0  0  0  0  0  0  0
  151.5450  142.0974  158.6650 N   0  0  0  0  0  0  0  0  0  0  0  0
  152.3940  142.0339  159.8584 C   0  0  0  0  0  0  0  0  0  0  0  0
  153.1692  143.3514  159.8866 C   0  0  0  0  0  0  0  0  0  0  0  0
  152.2858  144.3200  159.1134 C   0  0  0  0  0  0  0  0  0  0  0  0
  151.5784  143.4384  158.0846 C   0  0  0  0  0  0  0  0  0  0  0  0
  147.9675  137.2683  160.5281 N   0  0  0  0  0  0  0  0  0  0  0  0
  146.1444  134.2420  163.6015 H   0  0  0  0  0  0  0  0  0  0  0  0
  147.5085  133.7479  162.6119 H   0  0  0  0  0  0  0  0  0  0  0  0
  145.9133  133.9401  161.8876 H   0  0  0  0  0  0  0  0  0  0  0  0
  144.9057  136.2798  161.5883 H   0  0  0  0  0  0  0  0  0  0  0  0
  145.7525  137.6930  162.2016 H   0  0  0  0  0  0  0  0  0  0  0  0
  145.0928  136.5133  163.3231 H   0  0  0  0  0  0  0  0  0  0  0  0
  147.4353  136.2380  164.4091 H   0  0  0  0  0  0  0  0  0  0  0  0
  148.0976  137.4152  163.2876 H   0  0  0  0  0  0  0  0  0  0  0  0
  148.8182  135.8146  163.4059 H   0  0  0  0  0  0  0  0  0  0  0  0
  147.6019  133.9654  160.0788 H   0  0  0  0  0  0  0  0  0  0  0  0
  148.3752  138.5541  157.6205 H   0  0  0  0  0  0  0  0  0  0  0  0
  148.5456  139.3673  159.1554 H   0  0  0  0  0  0  0  0  0  0  0  0
  150.9252  137.8162  158.8756 H   0  0  0  0  0  0  0  0  0  0  0  0
  150.6466  138.5008  157.2982 H   0  0  0  0  0  0  0  0  0  0  0  0
  151.4614  139.9284  159.6615 H   0  0  0  0  0  0  0  0  0  0  0  0
  151.7597  141.9434  160.7416 H   0  0  0  0  0  0  0  0  0  0  0  0
  153.0764  141.1825  159.8377 H   0  0  0  0  0  0  0  0  0  0  0  0
  153.3887  143.6929  160.8985 H   0  0  0  0  0  0  0  0  0  0  0  0
  154.1183  143.2277  159.3632 H   0  0  0  0  0  0  0  0  0  0  0  0
  151.5488  144.7587  159.7875 H   0  0  0  0  0  0  0  0  0  0  0  0
  152.8483  145.1351  158.6570 H   0  0  0  0  0  0  0  0  0  0  0  0
  152.1454  143.4070  157.1528 H   0  0  0  0  0  0  0  0  0  0  0  0
  150.5782  143.8123  157.8606 H   0  0  0  0  0  0  0  0  0  0  0  0
  1  2  1  0  0  0  0
  1 20  1  0  0  0  0
  1 21  1  0  0  0  0
  1 22  1  0  0  0  0
  2  3  1  0  0  0  0
  2  4  1  0  0  0  0
  2  5  1  0  0  0  0
  3 23  1  0  0  0  0
  3 24  1  0  0  0  0
  3 25  1  0  0  0  0
  4 26  1  0  0  0  0
  4 27  1  0  0  0  0
  4 28  1  0  0  0  0
  5 19  1  0  0  0  0
  5  6  2  0  0  0  0
  6  7  1  0  0  0  0
  6 29  1  0  0  0  0
  7  8  1  0  0  0  0
  8  9  1  0  0  0  0
  8 19  2  0  0  0  0
  9 10  1  0  0  0  0
  9 30  1  0  0  0  0
  9 31  1  0  0  0  0
 10 11  1  0  0  0  0
 10 32  1  0  0  0  0
 10 33  1  0  0  0  0
 11 12  1  0  0  0  0
 11 34  1  0  0  0  0
 12 13  2  0  0  0  0
 12 14  1  0  0  0  0
 14 18  1  0  0  0  0
 14 15  1  0  0  0  0
 15 16  1  0  0  0  0
 15 35  1  0  0  0  0
 15 36  1  0  0  0  0
 16 17  1  0  0  0  0
 16 37  1  0  0  0  0
 16 38  1  0  0  0  0
 17 18  1  0  0  0  0
 17 39  1  0  0  0  0
 17 40  1  0  0  0  0
 18 41  1  0  0  0  0
 18 42  1  0  0  0  0
M  END
> <s_m_source_file>
AV-unprocessed.smi

> <i_m_source_file_index>
962

> <i_lp_mmshare_version>
43012

> <i_f3d_flags>
0

> <s_epik_input>
W0NIM11DKFtDSDNdKShbQ0gzXSljMVtjSF1zYyhuMSlbQ0gyXVtDSDJdW05IXUMoPU8pTjJbQ0gyXVtDSDJdW0NIMl1bQ0gyXTI=

> <s_epik_cmdline>
J2VwaWtfcHl0aG9uJywgJy1waCcsICc3LjAnLCAnLXRuJywgJzgnLCAnLW1hJywgJzIwMCcsICctbWV0YWxfYmluZGluZycsICctaW1hZScsICc8aW5maWxlLm1hZT4nLCAnLW9tYWUnLCAnPG91dGZpbGUubWFlPic=

> <r_epik_Ionization_Penalty>
0.00160156

> <r_epik_Ionization_Penalty_Charging>
0

> <r_epik_Ionization_Penalty_Neutral>
0.00160156

> <r_epik_State_Penalty>
0.00103428

> <r_epik_Charging_Adjusted_Penalty>
0.00103428

> <i_epik_Tot_Q>
0

> <i_epik_Tot_abs_Q>
0

> <r_epik_Metal_State_Penalty>
-0

> <b_epik_Metal_Only>
0

> <s_lp_Force_Field>
OPLS_2005

> <r_lp_Energy>
25.7371

> <b_lp_Chiralities_Consistent>
1

> <s_lp_Variant>
AV-unprocessed.smi:962-1

> <Gold.Version>
5.8.1

> <Gold.Id.Protein>
6NUR|6NUR_protein|mol2

> <Gold.PLP.Fitness>
44.7266

> <Gold.PLP.PLP>
-41.6577

> <Gold.PLP.part.hbond>
-2.0000

> <Gold.PLP.part.metal>
0.0000

> <Gold.PLP.part.buried>
-5.6209

> <Gold.PLP.part.nonpolar>
-35.8007

> <Gold.PLP.part.repulsive>
0.2096

> <Gold.PLP.ligand.clash>
0.0000

> <Gold.PLP.ligand.torsion>
0.6144

> <Gold.PLP.Chemscore.Hbond>
1.4178

> <Gold.PLP.Chemscore.CHOScore>
0.0000

> <Gold.PLP.Chemscore.Metal>
0.0000

> <Gold.Chemscore.Hbonds>
donor molecule, donor type, donor heavy atom, donor atom, acceptor molecule, acceptor atom, score
      P1  H  6931  6943       L1    19  0.74
      P1  H  6934  6947       L1    19  0.77

> <Gold.PLP.Chemscore.Internal.Correction>
0.0443

> <Gold.Rescore>
     Score         DG    S(hbond)    S(metal)    S(lipo)     H(rot)  DE(clash)    DE(int)     intcor
     17.80     -18.43       1.10        0.00     110.11       1.41       0.09       0.54       ----

> <Gold.Chemscore.Fitness>
17.8008

> <Gold.Chemscore.DG>
-18.4297

> <Gold.Chemscore.ZeroCoef>
-5.4800

> <Gold.Chemscore.Hbond>
1.1045

> <Gold.Chemscore.Metal>
0.0000

> <Gold.Chemscore.Lipo>
110.1092

> <Gold.Chemscore.Internal_Hbond>
0.0000

> <Gold.Chemscore.DEClash>
0.0854

> <Gold.Chemscore.DEInternal>
0.5435

> <Gold.Chemscore.Rot>
1.4149

> <Gold.Chemscore.Internal.Correction>
   9.000000E+99

> <Gold.Chemscore.Hbonds>
donor molecule, donor type, donor heavy atom, donor atom, acceptor molecule, acceptor atom, score
      P1  H  6931  6943       L1    19  0.57
      P1  H  6934  6947       L1    19  0.56

> <Gold.Chemscore.Hbond.Weighted>
-3.6892

> <Gold.Chemscore.Metal.Weighted>
-0.0000

> <Gold.Chemscore.Lipo.Weighted>
-12.8828

> <Gold.Chemscore.Internal_Hbond.Weighted>
0.0000

> <Gold.Chemscore.DEClash.Weighted>
0.0854

> <Gold.Chemscore.DEInternal.Weighted>
0.5435

> <Gold.Chemscore.Rot.Weighted>
3.6222

> <Gold.Chemscore.Internal.Correction.Weighted>
   9.000000E+99

> <Gold.Protein.RotatedTorsions>
[ 6907 6896 6895 6894 ] final  129.31 input  -60.11 | X-H torsion
[ 7974 7965 7964 7962 ] final  113.72 input  175.53 | X-H torsion
[ 8008 7997 7996 7995 ] final  -40.30 input   59.86 | X-H torsion
[ 10167 10162 10161 10158 ] final -143.21 input  -65.29 | X-H torsion
[ 10718 10713 10712 10709 ] final   72.37 input   66.30 | X-H torsion
[ 10763 10752 10751 10750 ] final   87.84 input  -60.55 | X-H torsion
[ 11005 11000 10999 10996 ] final -166.76 input  -57.11 | X-H torsion

> <Gold.Protein.ActiveResidues>
 VAL166  LYS551  ARG553  GLY616  TRP617  ASP618  TYR619  PRO620  LYS621  CYS622 
 ASP623  PHE694  ASN695  SER759  ASP760  ASP761  ALA762  ILE779  LEU786  VAL792 
 PHE793  MET794  SER795  GLU796  ALA797  LYS798  CYS799  TRP800  GLU811  SER814 

> <Gold.Protein.RotatedAtoms>
  152.3636  133.6328  159.6033 H   0  0  0  0  0  0  0  0  0  0  0  0  # atno 6907 bound_to 6896
  150.7618  133.9384  159.3457 H   0  0  0  0  0  0  0  0  0  0  0  0  # atno 6908 bound_to 6896
  151.7218  135.0893  160.0336 H   0  0  0  0  0  0  0  0  0  0  0  0  # atno 6909 bound_to 6896
  145.2133  139.2896  143.4256 H   0  0  0  0  0  0  0  0  0  0  0  0  # atno 7974 bound_to 7965
  154.4013  140.1529  156.3004 H   0  0  0  0  0  0  0  0  0  0  0  0  # atno 8008 bound_to 7997
  155.8706  140.3449  155.5797 H   0  0  0  0  0  0  0  0  0  0  0  0  # atno 8009 bound_to 7997
  155.7779  140.0839  157.2065 H   0  0  0  0  0  0  0  0  0  0  0  0  # atno 8010 bound_to 7997
  139.8015  143.7827  152.2658 H   0  0  0  0  0  0  0  0  0  0  0  0  # atno 10167 bound_to 10162
  157.6497  130.9575  150.0919 H   0  0  0  0  0  0  0  0  0  0  0  0  # atno 10718 bound_to 10713
  153.1708  135.4529  154.9899 H   0  0  0  0  0  0  0  0  0  0  0  0  # atno 10763 bound_to 10752
  154.7964  135.3239  154.7658 H   0  0  0  0  0  0  0  0  0  0  0  0  # atno 10764 bound_to 10752
  153.8135  135.6953  153.4892 H   0  0  0  0  0  0  0  0  0  0  0  0  # atno 10765 bound_to 10752
  140.5608  134.5335  157.5143 H   0  0  0  0  0  0  0  0  0  0  0  0  # atno 11005 bound_to 11000
  146.3392  140.2416  142.8596 LP  0  0  0  0  0  0  0  0  0  0  0  0  # atno 17320 bound_to 7965
  144.9835  140.8481  143.5383 LP  0  0  0  0  0  0  0  0  0  0  0  0  # atno 17321 bound_to 7965
  139.7949  144.7396  150.9904 LP  0  0  0  0  0  0  0  0  0  0  0  0  # atno 17342 bound_to 10162
  140.7820  143.4404  151.0560 LP  0  0  0  0  0  0  0  0  0  0  0  0  # atno 17343 bound_to 10162
  156.1866  130.3652  149.8965 LP  0  0  0  0  0  0  0  0  0  0  0  0  # atno 17370 bound_to 10713
  156.6904  130.8893  151.3587 LP  0  0  0  0  0  0  0  0  0  0  0  0  # atno 17371 bound_to 10713
  139.9408  134.7790  156.0682 LP  0  0  0  0  0  0  0  0  0  0  0  0  # atno 17394 bound_to 11000
  141.1115  133.6641  156.2991 LP  0  0  0  0  0  0  0  0  0  0  0  0  # atno 17395 bound_to 11000

$$$$
