AV-unprocessed.smi:1274|AV-procd|sdf|5341|dock4
  -GOLD-   22720 4473D 1   1.00000     0.00000
 Structure written by MMmdl.
 36 37  0  0  0  0  0  0  0  0  2 V2000
  151.0358  138.8406  158.2867 O   0  0  0  0  0  0  0  0  0  0  0  0
  152.3679  139.3188  157.8824 S   0  0  0  0  0  0  0  0  0  0  0  0
  153.5184  138.4321  158.1235 O   0  0  0  0  0  0  0  0  0  0  0  0
  152.3624  140.0079  156.4166 N   0  5  0  0  0  0  0  0  0  0  0  0
  151.1116  140.1238  155.6876 C   0  0  0  0  0  0  0  0  0  0  0  0
  150.4506  141.4878  155.9841 C   0  0  0  0  0  0  0  0  0  0  0  0
  148.9924  141.5951  155.5475 C   0  0  0  0  0  0  0  0  0  0  0  0
  147.9778  141.9155  156.4763 C   0  0  0  0  0  0  0  0  0  0  0  0
  146.6455  141.9992  156.0290 C   0  0  0  0  0  0  0  0  0  0  0  0
  146.3799  141.7530  154.6675 C   0  0  0  0  0  0  0  0  0  0  0  0
  147.3376  141.4377  153.7692 N   0  0  0  0  0  0  0  0  0  0  0  0
  148.6133  141.3629  154.2064 C   0  0  0  0  0  0  0  0  0  0  0  0
  152.6827  140.7617  158.8015 N   0  0  0  0  0  0  0  0  0  0  0  0
  151.6976  141.8578  158.6904 C   0  0  0  0  0  0  0  0  0  0  0  0
  152.2613  143.1843  159.2282 C   0  0  0  0  0  0  0  0  0  0  0  0
  152.7713  143.0324  160.6633 C   0  0  0  0  0  0  0  0  0  0  0  0
  153.8112  141.9104  160.7106 C   0  0  0  0  0  0  0  0  0  0  0  0
  153.2317  140.5945  160.1679 C   0  0  0  0  0  0  0  0  0  0  0  0
  151.2561  140.0297  154.6107 H   0  0  0  0  0  0  0  0  0  0  0  0
  150.4192  139.3286  155.9650 H   0  0  0  0  0  0  0  0  0  0  0  0
  150.4996  141.6813  157.0561 H   0  0  0  0  0  0  0  0  0  0  0  0
  151.0229  142.2884  155.5129 H   0  0  0  0  0  0  0  0  0  0  0  0
  148.2188  142.1009  157.5130 H   0  0  0  0  0  0  0  0  0  0  0  0
  145.8476  142.2476  156.7128 H   0  0  0  0  0  0  0  0  0  0  0  0
  145.3696  141.8083  154.2902 H   0  0  0  0  0  0  0  0  0  0  0  0
  149.3548  141.1102  153.4628 H   0  0  0  0  0  0  0  0  0  0  0  0
  151.4101  141.9939  157.6484 H   0  0  0  0  0  0  0  0  0  0  0  0
  150.7949  141.5777  159.2345 H   0  0  0  0  0  0  0  0  0  0  0  0
  153.0749  143.5214  158.5845 H   0  0  0  0  0  0  0  0  0  0  0  0
  151.4936  143.9573  159.1861 H   0  0  0  0  0  0  0  0  0  0  0  0
  153.2084  143.9689  161.0107 H   0  0  0  0  0  0  0  0  0  0  0  0
  151.9415  142.8016  161.3324 H   0  0  0  0  0  0  0  0  0  0  0  0
  154.6860  142.1928  160.1234 H   0  0  0  0  0  0  0  0  0  0  0  0
  154.1587  141.7676  161.7340 H   0  0  0  0  0  0  0  0  0  0  0  0
  152.4384  140.2333  160.8233 H   0  0  0  0  0  0  0  0  0  0  0  0
  154.0101  139.8325  160.1760 H   0  0  0  0  0  0  0  0  0  0  0  0
  1  2  2  0  0  0  0
  2  3  2  0  0  0  0
  2  4  1  0  0  0  0
  2 13  1  0  0  0  0
  4  5  1  0  0  0  0
  5  6  1  0  0  0  0
  5 19  1  0  0  0  0
  5 20  1  0  0  0  0
  6  7  1  0  0  0  0
  6 21  1  0  0  0  0
  6 22  1  0  0  0  0
  7 12  1  0  0  0  0
  7  8  2  0  0  0  0
  8  9  1  0  0  0  0
  8 23  1  0  0  0  0
  9 10  2  0  0  0  0
  9 24  1  0  0  0  0
 10 11  1  0  0  0  0
 10 25  1  0  0  0  0
 11 12  2  0  0  0  0
 12 26  1  0  0  0  0
 13 18  1  0  0  0  0
 13 14  1  0  0  0  0
 14 15  1  0  0  0  0
 14 27  1  0  0  0  0
 14 28  1  0  0  0  0
 15 16  1  0  0  0  0
 15 29  1  0  0  0  0
 15 30  1  0  0  0  0
 16 17  1  0  0  0  0
 16 31  1  0  0  0  0
 16 32  1  0  0  0  0
 17 18  1  0  0  0  0
 17 33  1  0  0  0  0
 17 34  1  0  0  0  0
 18 35  1  0  0  0  0
 18 36  1  0  0  0  0
M  CHG  1   4  -1
M  END
> <s_m_source_file>
AV-unprocessed.smi

> <i_m_source_file_index>
1274

> <i_lp_mmshare_version>
43012

> <i_f3d_flags>
0

> <s_epik_input>
W0NIMl0xW0NIMl1bQ0gyXVtDSDJdW0NIMl1OMVMoPU8pKD1PKVtOSF1bQ0gyXVtDSDJdYzJbY0hdW2NIXVtjSF1uW2NIXTI=

> <s_epik_cmdline>
J2VwaWtfcHl0aG9uJywgJy1waCcsICc3LjAnLCAnLXRuJywgJzgnLCAnLW1hJywgJzIwMCcsICctbWV0YWxfYmluZGluZycsICctaW1hZScsICc8aW5maWxlLm1hZT4nLCAnLW9tYWUnLCAnPG91dGZpbGUubWFlPic=

> <r_epik_Ionization_Penalty>
1.98317

> <r_epik_Ionization_Penalty_Charging>
1.95606

> <r_epik_Ionization_Penalty_Neutral>
0.027117

> <r_epik_State_Penalty>
2.28376

> <r_epik_Charging_Adjusted_Penalty>
4.23982

> <i_epik_Tot_Q>
-1

> <i_epik_Tot_abs_Q>
1

> <r_epik_Metal_State_Penalty>
0.598332

> <b_epik_Metal_Only>
0

> <s_lp_Force_Field>
OPLS_2005

> <r_lp_Energy>
4.69546

> <b_lp_Chiralities_Consistent>
1

> <s_lp_Variant>
AV-unprocessed.smi:1274-2

> <Gold.Version>
5.8.1

> <Gold.Id.Protein>
6NUR|6NUR_protein|mol2

> <Gold.PLP.Fitness>
45.5315

> <Gold.PLP.PLP>
-34.3078

> <Gold.PLP.part.hbond>
-1.5226

> <Gold.PLP.part.metal>
0.0000

> <Gold.PLP.part.buried>
-1.9183

> <Gold.PLP.part.nonpolar>
-30.1276

> <Gold.PLP.part.repulsive>
0.1708

> <Gold.PLP.ligand.clash>
0.0000

> <Gold.PLP.ligand.torsion>
1.1756

> <Gold.PLP.Chemscore.Hbond>
2.0000

> <Gold.PLP.Chemscore.CHOScore>
2.0000

> <Gold.PLP.Chemscore.Metal>
0.0000

> <Gold.Chemscore.Hbonds>
donor molecule, donor type, donor heavy atom, donor atom, acceptor molecule, acceptor atom, score
      P1  H  7997  8010       L1     4  1.80
      L1  C    10    25       P1 10175  0.35
      L1  C    12    26       P1  7957  0.96

> <Gold.PLP.Chemscore.Internal.Correction>
1.5749

> <Gold.Rescore>
     Score         DG    S(hbond)    S(metal)    S(lipo)     H(rot)  DE(clash)    DE(int)     intcor
     13.54     -15.54       0.86        0.00      93.30       1.45       0.38       1.62       ----

> <Gold.Chemscore.Fitness>
13.5426

> <Gold.Chemscore.DG>
-15.5434

> <Gold.Chemscore.ZeroCoef>
-5.4800

> <Gold.Chemscore.Hbond>
0.8594

> <Gold.Chemscore.Metal>
0.0000

> <Gold.Chemscore.Lipo>
93.3003

> <Gold.Chemscore.Internal_Hbond>
0.0000

> <Gold.Chemscore.DEClash>
0.3769

> <Gold.Chemscore.DEInternal>
1.6239

> <Gold.Chemscore.Rot>
1.4544

> <Gold.Chemscore.Internal.Correction>
   9.000000E+99

> <Gold.Chemscore.Hbonds>
donor molecule, donor type, donor heavy atom, donor atom, acceptor molecule, acceptor atom, score
      P1  H  7997  8010       L1     4  0.16

> <Gold.Chemscore.Hbond.Weighted>
-2.8705

> <Gold.Chemscore.Metal.Weighted>
-0.0000

> <Gold.Chemscore.Lipo.Weighted>
-10.9161

> <Gold.Chemscore.Internal_Hbond.Weighted>
0.0000

> <Gold.Chemscore.DEClash.Weighted>
0.3769

> <Gold.Chemscore.DEInternal.Weighted>
1.6239

> <Gold.Chemscore.Rot.Weighted>
3.7232

> <Gold.Chemscore.Internal.Correction.Weighted>
   9.000000E+99

> <Gold.Protein.RotatedTorsions>
[ 6907 6896 6895 6894 ] final  -77.65 input  -60.11 | X-H torsion
[ 7974 7965 7964 7962 ] final   94.70 input  175.53 | X-H torsion
[ 8008 7997 7996 7995 ] final   89.17 input   59.86 | X-H torsion
[ 10167 10162 10161 10158 ] final  175.78 input  -65.29 | X-H torsion
[ 10718 10713 10712 10709 ] final -125.49 input   66.30 | X-H torsion
[ 10763 10752 10751 10750 ] final -151.87 input  -60.55 | X-H torsion
[ 11005 11000 10999 10996 ] final  107.24 input  -57.11 | X-H torsion

> <Gold.Protein.ActiveResidues>
 VAL166  LYS551  ARG553  GLY616  TRP617  ASP618  TYR619  PRO620  LYS621  CYS622 
 ASP623  PHE694  ASN695  SER759  ASP760  ASP761  ALA762  ILE779  LEU786  VAL792 
 PHE793  MET794  SER795  GLU796  ALA797  LYS798  CYS799  TRP800  GLU811  SER814 

> <Gold.Protein.RotatedAtoms>
  150.6993  134.4390  159.5283 H   0  0  0  0  0  0  0  0  0  0  0  0  # atno 6907 bound_to 6896
  152.2104  134.8504  160.0507 H   0  0  0  0  0  0  0  0  0  0  0  0  # atno 6908 bound_to 6896
  151.9392  133.3598  159.3995 H   0  0  0  0  0  0  0  0  0  0  0  0  # atno 6909 bound_to 6896
  145.4620  139.2286  143.2982 H   0  0  0  0  0  0  0  0  0  0  0  0  # atno 7974 bound_to 7965
  155.9967  140.3363  155.6805 H   0  0  0  0  0  0  0  0  0  0  0  0  # atno 8008 bound_to 7997
  155.6347  140.0689  157.2656 H   0  0  0  0  0  0  0  0  0  0  0  0  # atno 8009 bound_to 7997
  154.4236  140.1753  156.1497 H   0  0  0  0  0  0  0  0  0  0  0  0  # atno 8010 bound_to 7997
  139.5189  144.2992  152.0394 H   0  0  0  0  0  0  0  0  0  0  0  0  # atno 10167 bound_to 10162
  156.1680  130.6648  151.0141 H   0  0  0  0  0  0  0  0  0  0  0  0  # atno 10718 bound_to 10713
  154.8030  135.3249  154.7501 H   0  0  0  0  0  0  0  0  0  0  0  0  # atno 10763 bound_to 10752
  153.8165  135.6891  153.4837 H   0  0  0  0  0  0  0  0  0  0  0  0  # atno 10764 bound_to 10752
  153.1759  135.4605  154.9908 H   0  0  0  0  0  0  0  0  0  0  0  0  # atno 10765 bound_to 10752
  139.8825  134.9394  156.5788 H   0  0  0  0  0  0  0  0  0  0  0  0  # atno 11005 bound_to 11000
  146.2445  140.5390  142.8919 LP  0  0  0  0  0  0  0  0  0  0  0  0  # atno 17320 bound_to 7965
  144.7997  140.6189  143.6486 LP  0  0  0  0  0  0  0  0  0  0  0  0  # atno 17321 bound_to 7965
  140.2440  144.4239  150.6248 LP  0  0  0  0  0  0  0  0  0  0  0  0  # atno 17342 bound_to 10162
  140.6271  143.2182  151.6575 LP  0  0  0  0  0  0  0  0  0  0  0  0  # atno 17343 bound_to 10162
  157.6782  131.0845  150.7439 LP  0  0  0  0  0  0  0  0  0  0  0  0  # atno 17370 bound_to 10713
  156.7499  130.4765  149.5459 LP  0  0  0  0  0  0  0  0  0  0  0  0  # atno 17371 bound_to 10713
  140.8042  133.8481  155.8753 LP  0  0  0  0  0  0  0  0  0  0  0  0  # atno 17394 bound_to 11000
  140.9565  134.1711  157.4688 LP  0  0  0  0  0  0  0  0  0  0  0  0  # atno 17395 bound_to 11000

$$$$
