AV-unprocessed.smi:215|AV-procd|sdf|1657|dock5
  -GOLD-   2262020 53D 1   1.00000     0.00000
 Structure written by MMmdl.
 59 62  0  0  0  0  0  0  0  0  2 V2000
  144.9665  129.5135  151.5710 C   0  0  0  0  0  0  0  0  0  0  0  0
  146.1259  130.5217  151.4058 C   0  0  1  0  0  0  0  0  0  0  0  0
  145.6865  131.9983  151.4993 C   0  0  1  0  0  0  0  0  0  0  0  0
  144.4470  132.3433  150.7406 N   0  3  1  0  0  0  0  0  0  0  0  0
  143.7000  133.4727  151.3511 C   0  0  0  0  0  0  0  0  0  0  0  0
  144.7081  132.5689  149.2913 C   0  0  0  0  0  0  0  0  0  0  0  0
  143.4289  132.8527  148.4820 C   0  0  0  0  0  0  0  0  0  0  0  0
  143.3544  134.2214  148.1455 O   0  0  0  0  0  0  0  0  0  0  0  0
  145.6167  132.2184  153.0200 C   0  0  0  0  0  0  0  0  0  0  0  0
  146.7368  131.3304  153.5760 C   0  0  0  0  0  0  0  0  0  0  0  0
  147.0811  130.4070  152.4999 N   0  0  0  0  0  0  0  0  0  0  0  0
  147.8858  129.3284  152.7033 C   0  0  0  0  0  0  0  0  0  0  0  0
  148.5487  129.2391  153.8868 N   0  0  0  0  0  0  0  0  0  0  0  0
  149.3448  128.1988  154.1470 C   0  0  0  0  0  0  0  0  0  0  0  0
  149.6269  127.1522  153.3713 N   0  0  0  0  0  0  0  0  0  0  0  0
  148.9823  127.2375  152.1731 C   0  0  0  0  0  0  0  0  0  0  0  0
  148.0991  128.2778  151.7597 C   0  0  0  0  0  0  0  0  0  0  0  0
  147.6353  128.0053  150.4766 N   0  0  0  0  0  0  0  0  0  0  0  0
  148.1965  126.8717  150.1590 C   0  0  0  0  0  0  0  0  0  0  0  0
  149.0445  126.3537  151.1099 N   0  0  0  0  0  0  0  0  0  0  0  0
  149.7566  125.1115  151.0384 C   0  0  0  0  0  0  0  0  0  0  0  0
  150.6805  124.6616  152.1727 C   0  0  0  0  0  0  0  0  0  0  0  0
  151.5896  123.9551  151.1418 C   0  0  0  0  0  0  0  0  0  0  0  0
  153.0962  124.1065  151.4156 C   0  0  0  0  0  0  0  0  0  0  0  0
  153.4123  125.3770  151.9462 O   0  0  0  0  0  0  0  0  0  0  0  0
  151.2565  122.4621  150.9355 C   0  0  0  0  0  0  0  0  0  0  0  0
  151.6815  121.6630  152.0205 O   0  0  0  0  0  0  0  0  0  0  0  0
  150.9743  124.9461  150.1269 C   0  0  0  0  0  0  0  0  0  0  0  0
  146.6289  130.3610  150.4541 H   0  0  0  0  0  0  0  0  0  0  0  0
  146.4967  132.6217  151.1150 H   0  0  0  0  0  0  0  0  0  0  0  0
  144.2570  129.5841  150.7485 H   0  0  0  0  0  0  0  0  0  0  0  0
  144.4165  129.6706  152.4989 H   0  0  0  0  0  0  0  0  0  0  0  0
  145.3316  128.4868  151.5825 H   0  0  0  0  0  0  0  0  0  0  0  0
  144.3216  134.3676  151.4015 H   0  0  0  0  0  0  0  0  0  0  0  0
  143.3676  133.2319  152.3605 H   0  0  0  0  0  0  0  0  0  0  0  0
  142.8023  133.7191  150.7868 H   0  0  0  0  0  0  0  0  0  0  0  0
  145.4130  133.3941  149.1788 H   0  0  0  0  0  0  0  0  0  0  0  0
  145.1943  131.7015  148.8461 H   0  0  0  0  0  0  0  0  0  0  0  0
  143.3612  132.2484  147.5787 H   0  0  0  0  0  0  0  0  0  0  0  0
  142.5545  132.6069  149.0853 H   0  0  0  0  0  0  0  0  0  0  0  0
  144.2224  134.5270  147.9277 H   0  0  0  0  0  0  0  0  0  0  0  0
  145.7439  133.2632  153.3057 H   0  0  0  0  0  0  0  0  0  0  0  0
  144.6572  131.8787  153.4126 H   0  0  0  0  0  0  0  0  0  0  0  0
  147.6142  131.9273  153.8272 H   0  0  0  0  0  0  0  0  0  0  0  0
  146.4103  130.8052  154.4745 H   0  0  0  0  0  0  0  0  0  0  0  0
  149.8244  128.2066  155.1148 H   0  0  0  0  0  0  0  0  0  0  0  0
  148.0106  126.3841  149.2129 H   0  0  0  0  0  0  0  0  0  0  0  0
  149.0073  124.3480  150.8230 H   0  0  0  0  0  0  0  0  0  0  0  0
  151.1640  125.5048  152.6698 H   0  0  0  0  0  0  0  0  0  0  0  0
  150.2102  124.0009  152.9018 H   0  0  0  0  0  0  0  0  0  0  0  0
  153.4351  123.3620  152.1365 H   0  0  0  0  0  0  0  0  0  0  0  0
  153.6822  123.9443  150.5104 H   0  0  0  0  0  0  0  0  0  0  0  0
  152.9578  126.0353  151.4437 H   0  0  0  0  0  0  0  0  0  0  0  0
  150.1857  122.3148  150.7927 H   0  0  0  0  0  0  0  0  0  0  0  0
  151.7353  122.0725  150.0368 H   0  0  0  0  0  0  0  0  0  0  0  0
  152.1614  120.9238  151.6802 H   0  0  0  0  0  0  0  0  0  0  0  0
  150.7491  124.5259  149.1462 H   0  0  0  0  0  0  0  0  0  0  0  0
  151.5551  125.8658  150.0316 H   0  0  0  0  0  0  0  0  0  0  0  0
  143.8483  131.5313  150.7987 H   0  0  0  0  0  0  0  0  0  0  0  0
  1  2  1  0  0  0  0
  1 31  1  0  0  0  0
  1 32  1  0  0  0  0
  1 33  1  0  0  0  0
  2 29  1  0  0  0  0
  2 11  1  0  0  0  0
  2  3  1  0  0  0  0
  3 30  1  0  0  0  0
  3  4  1  0  0  0  0
  3  9  1  0  0  0  0
  4  5  1  0  0  0  0
  4  6  1  0  0  0  0
  4 59  1  0  0  0  0
  5 34  1  0  0  0  0
  5 35  1  0  0  0  0
  5 36  1  0  0  0  0
  6  7  1  0  0  0  0
  6 37  1  0  0  0  0
  6 38  1  0  0  0  0
  7  8  1  0  0  0  0
  7 39  1  0  0  0  0
  7 40  1  0  0  0  0
  8 41  1  0  0  0  0
  9 10  1  0  0  0  0
  9 42  1  0  0  0  0
  9 43  1  0  0  0  0
 10 11  1  0  0  0  0
 10 44  1  0  0  0  0
 10 45  1  0  0  0  0
 11 12  1  0  0  0  0
 12 17  1  0  0  0  0
 12 13  2  0  0  0  0
 13 14  1  0  0  0  0
 14 15  2  0  0  0  0
 14 46  1  0  0  0  0
 15 16  1  0  0  0  0
 16 20  1  0  0  0  0
 16 17  2  0  0  0  0
 17 18  1  0  0  0  0
 18 19  2  0  0  0  0
 19 20  1  0  0  0  0
 19 47  1  0  0  0  0
 20 21  1  0  0  0  0
 21 28  1  0  0  0  0
 21 22  1  0  0  0  0
 21 48  1  0  0  0  0
 22 23  1  0  0  0  0
 22 49  1  0  0  0  0
 22 50  1  0  0  0  0
 23 24  1  0  0  0  0
 23 26  1  0  0  0  0
 23 28  1  0  0  0  0
 24 25  1  0  0  0  0
 24 51  1  0  0  0  0
 24 52  1  0  0  0  0
 25 53  1  0  0  0  0
 26 27  1  0  0  0  0
 26 54  1  0  0  0  0
 26 55  1  0  0  0  0
 27 56  1  0  0  0  0
 28 57  1  0  0  0  0
 28 58  1  0  0  0  0
M  CHG  1   4   1
M  END
> <s_m_source_file>
AV-unprocessed.smi

> <i_m_source_file_index>
215

> <i_lp_mmshare_version>
43012

> <i_f3d_flags>
0

> <s_epik_input>
W09IXVtDSDJdW0NIMl1OKFtDSDNdKVtDQEBIXShbQ0BIXTFbQ0gzXSlbQ0gyXVtDSDJdTjFjKG5bY0hdbjIpYyhjMjMpbltjSF1uM1tDSF0oW0NIMl00KVtDSDJdQzQoW0NIMl1bT0hdKVtDSDJdW09IXQ==

> <s_epik_cmdline>
J2VwaWtfcHl0aG9uJywgJy1waCcsICc3LjAnLCAnLXRuJywgJzgnLCAnLW1hJywgJzIwMCcsICctbWV0YWxfYmluZGluZycsICctaW1hZScsICc8aW5maWxlLm1hZT4nLCAnLW9tYWUnLCAnPG91dGZpbGUubWFlPic=

> <r_lp_tautomer_probability>
1

> <r_epik_Ionization_Penalty>
0.0036237

> <r_epik_Ionization_Penalty_Charging>
0.0032725

> <r_epik_Ionization_Penalty_Neutral>
0.000351196

> <r_epik_State_Penalty>
-0

> <r_epik_Charging_Adjusted_Penalty>
0.0032725

> <i_epik_Tot_Q>
1

> <i_epik_Tot_abs_Q>
1

> <r_epik_Metal_State_Penalty>
-0

> <b_epik_Metal_Only>
0

> <s_lp_Force_Field>
OPLS_2005

> <r_lp_Energy>
65.1718

> <b_lp_Chiralities_Consistent>
1

> <s_lp_Variant>
AV-unprocessed.smi:215-8

> <Gold.Version>
5.8.1

> <Gold.Id.Protein>
6NUR|6NUR_protein|mol2

> <Gold.PLP.Fitness>
48.8746

> <Gold.PLP.PLP>
-41.7540

> <Gold.PLP.part.hbond>
-4.9512

> <Gold.PLP.part.metal>
0.0000

> <Gold.PLP.part.buried>
-1.6093

> <Gold.PLP.part.nonpolar>
-34.4097

> <Gold.PLP.part.repulsive>
0.3822

> <Gold.PLP.ligand.clash>
0.0000

> <Gold.PLP.ligand.torsion>
1.3283

> <Gold.PLP.Chemscore.Hbond>
2.9913

> <Gold.PLP.Chemscore.CHOScore>
0.0000

> <Gold.PLP.Chemscore.Metal>
0.0000

> <Gold.Chemscore.Hbonds>
donor molecule, donor type, donor heavy atom, donor atom, acceptor molecule, acceptor atom, score
      L1  H     8    41       P1  7921  1.00
      L1  H    25    53       P1 10737  0.80
      P1  H 10192 10197       L1     8  1.00

> <Gold.PLP.Chemscore.Internal.Correction>
0.8035

> <Gold.Rescore>
     Score         DG    S(hbond)    S(metal)    S(lipo)     H(rot)  DE(clash)    DE(int)     intcor
     11.01     -14.60       2.87        0.00      93.95       4.48       0.64       2.95       ----

> <Gold.Chemscore.Fitness>
11.0079

> <Gold.Chemscore.DG>
-14.5956

> <Gold.Chemscore.ZeroCoef>
-5.4800

> <Gold.Chemscore.Hbond>
2.8710

> <Gold.Chemscore.Metal>
0.0000

> <Gold.Chemscore.Lipo>
93.9493

> <Gold.Chemscore.Internal_Hbond>
0.0000

> <Gold.Chemscore.DEClash>
0.6418

> <Gold.Chemscore.DEInternal>
2.9460

> <Gold.Chemscore.Rot>
4.4787

> <Gold.Chemscore.Internal.Correction>
   9.000000E+99

> <Gold.Chemscore.Hbonds>
donor molecule, donor type, donor heavy atom, donor atom, acceptor molecule, acceptor atom, score
      L1  H     8    41       P1  7921  0.99
      L1  H    25    53       P1 10737  0.24
      P1  H 10192 10197       L1     8  0.78

> <Gold.Chemscore.Hbond.Weighted>
-9.5891

> <Gold.Chemscore.Metal.Weighted>
-0.0000

> <Gold.Chemscore.Lipo.Weighted>
-10.9921

> <Gold.Chemscore.Internal_Hbond.Weighted>
0.0000

> <Gold.Chemscore.DEClash.Weighted>
0.6418

> <Gold.Chemscore.DEInternal.Weighted>
2.9460

> <Gold.Chemscore.Rot.Weighted>
11.4655

> <Gold.Chemscore.Internal.Correction.Weighted>
   9.000000E+99

> <Gold.Protein.RotatedTorsions>
[ 6907 6896 6895 6894 ] final   59.57 input  -60.11 | X-H torsion
[ 7974 7965 7964 7962 ] final   69.52 input  175.53 | X-H torsion
[ 8008 7997 7996 7995 ] final  157.19 input   59.86 | X-H torsion
[ 10167 10162 10161 10158 ] final   94.21 input  -65.29 | X-H torsion
[ 10718 10713 10712 10709 ] final  157.87 input   66.30 | X-H torsion
[ 10763 10752 10751 10750 ] final  158.63 input  -60.55 | X-H torsion
[ 11005 11000 10999 10996 ] final -173.51 input  -57.11 | X-H torsion

> <Gold.Protein.ActiveResidues>
 VAL166  LYS551  ARG553  GLY616  TRP617  ASP618  TYR619  PRO620  LYS621  CYS622 
 ASP623  PHE694  ASN695  SER759  ASP760  ASP761  ALA762  ILE779  LEU786  VAL792 
 PHE793  MET794  SER795  GLU796  ALA797  LYS798  CYS799  TRP800  GLU811  SER814 

> <Gold.Protein.RotatedAtoms>
  152.3926  134.6416  160.0101 H   0  0  0  0  0  0  0  0  0  0  0  0  # atno 6907 bound_to 6896
  151.6646  133.3310  159.3190 H   0  0  0  0  0  0  0  0  0  0  0  0  # atno 6908 bound_to 6896
  150.7839  134.6852  159.6511 H   0  0  0  0  0  0  0  0  0  0  0  0  # atno 6909 bound_to 6896
  145.7894  139.2926  143.1219 H   0  0  0  0  0  0  0  0  0  0  0  0  # atno 7974 bound_to 7965
  156.2379  140.1892  156.7070 H   0  0  0  0  0  0  0  0  0  0  0  0  # atno 8008 bound_to 7997
  154.6140  140.0618  156.9557 H   0  0  0  0  0  0  0  0  0  0  0  0  # atno 8009 bound_to 7997
  155.1969  140.3289  155.4352 H   0  0  0  0  0  0  0  0  0  0  0  0  # atno 8010 bound_to 7997
  139.8105  144.6775  150.9647 H   0  0  0  0  0  0  0  0  0  0  0  0  # atno 10167 bound_to 10162
  157.1856  131.0642  151.2108 H   0  0  0  0  0  0  0  0  0  0  0  0  # atno 10718 bound_to 10713
  154.2190  135.2783  155.2931 H   0  0  0  0  0  0  0  0  0  0  0  0  # atno 10763 bound_to 10752
  154.5717  135.5616  153.7104 H   0  0  0  0  0  0  0  0  0  0  0  0  # atno 10764 bound_to 10752
  153.0046  135.6323  154.2330 H   0  0  0  0  0  0  0  0  0  0  0  0  # atno 10765 bound_to 10752
  140.4849  134.6040  157.4933 H   0  0  0  0  0  0  0  0  0  0  0  0  # atno 11005 bound_to 11000
  145.9992  140.8535  143.0027 LP  0  0  0  0  0  0  0  0  0  0  0  0  # atno 17320 bound_to 7965
  144.6784  140.2328  143.7353 LP  0  0  0  0  0  0  0  0  0  0  0  0  # atno 17321 bound_to 7965
  140.7818  143.4190  151.0871 LP  0  0  0  0  0  0  0  0  0  0  0  0  # atno 17342 bound_to 10162
  139.7857  143.8291  152.3144 LP  0  0  0  0  0  0  0  0  0  0  0  0  # atno 17343 bound_to 10162
  157.3911  130.7282  149.6698 LP  0  0  0  0  0  0  0  0  0  0  0  0  # atno 17370 bound_to 10713
  155.9718  130.4146  150.4141 LP  0  0  0  0  0  0  0  0  0  0  0  0  # atno 17371 bound_to 10713
  139.9804  134.7147  155.9871 LP  0  0  0  0  0  0  0  0  0  0  0  0  # atno 17394 bound_to 11000
  141.1513  133.6548  156.4021 LP  0  0  0  0  0  0  0  0  0  0  0  0  # atno 17395 bound_to 11000

$$$$
