AV-unprocessed.smi:3068|AV-procd|sdf|11705|dock8
  -GOLD-   2272017113D 1   1.00000     0.00000
 Structure written by MMmdl.
 40 42  0  0  0  0  0  0  0  0  2 V2000
  152.0606  137.2054  154.4672 N   0  0  0  0  0  0  0  0  0  0  0  0
  151.4708  138.1234  154.8529 C   0  0  0  0  0  0  0  0  0  0  0  0
  150.7269  139.2792  155.3373 C   0  0  0  0  0  0  0  0  0  0  0  0
  151.4047  140.4475  155.4190 N   0  0  0  0  0  0  0  0  0  0  0  0
  150.7280  141.5251  155.8695 C   0  0  0  0  0  0  0  0  0  0  0  0
  149.3724  141.4416  156.2420 C   0  0  0  0  0  0  0  0  0  0  0  0
  148.6886  140.2801  156.1649 N   0  0  0  0  0  0  0  0  0  0  0  0
  149.3564  139.1892  155.7125 C   0  0  0  0  0  0  0  0  0  0  0  0
  148.6567  137.9712  155.6230 N   0  0  0  0  0  0  0  0  0  0  0  0
  147.2351  137.9174  155.3037 C   0  0  0  0  0  0  0  0  0  0  0  0
  146.9618  137.2333  153.9535 C   0  0  1  0  0  0  0  0  0  0  0  0
  146.8178  135.7087  154.1095 C   0  0  0  0  0  0  0  0  0  0  0  0
  146.4836  135.0814  152.8103 N   0  3  1  0  0  0  0  0  0  0  0  0
  146.3776  133.6035  152.9060 C   0  0  0  0  0  0  0  0  0  0  0  0
  146.1246  132.9770  151.5257 C   0  0  0  0  0  0  0  0  0  0  0  0
  144.8730  133.5796  150.8744 C   0  0  0  0  0  0  0  0  0  0  0  0
  144.9965  135.1081  150.8127 C   0  0  0  0  0  0  0  0  0  0  0  0
  145.2736  135.7038  152.2072 C   0  0  2  0  0  0  0  0  0  0  0  0
  145.4490  137.2336  152.1384 C   0  0  0  0  0  0  0  0  0  0  0  0
  145.7399  137.7457  153.4325 O   0  0  0  0  0  0  0  0  0  0  0  0
  151.2701  142.4569  155.9338 H   0  0  0  0  0  0  0  0  0  0  0  0
  148.8364  142.3071  156.6023 H   0  0  0  0  0  0  0  0  0  0  0  0
  149.1220  137.1131  155.8840 H   0  0  0  0  0  0  0  0  0  0  0  0
  146.7028  137.4040  156.1052 H   0  0  0  0  0  0  0  0  0  0  0  0
  146.8470  138.9361  155.2878 H   0  0  0  0  0  0  0  0  0  0  0  0
  147.7767  137.4478  153.2598 H   0  0  0  0  0  0  0  0  0  0  0  0
  147.7492  135.2856  154.4879 H   0  0  0  0  0  0  0  0  0  0  0  0
  146.0398  135.4760  154.8386 H   0  0  0  0  0  0  0  0  0  0  0  0
  147.2989  133.1984  153.3264 H   0  0  0  0  0  0  0  0  0  0  0  0
  145.5714  133.3378  153.5919 H   0  0  0  0  0  0  0  0  0  0  0  0
  146.9902  133.1435  150.8832 H   0  0  0  0  0  0  0  0  0  0  0  0
  146.0125  131.8965  151.6210 H   0  0  0  0  0  0  0  0  0  0  0  0
  144.7363  133.1716  149.8724 H   0  0  0  0  0  0  0  0  0  0  0  0
  143.9878  133.3030  151.4485 H   0  0  0  0  0  0  0  0  0  0  0  0
  145.8014  135.3793  150.1277 H   0  0  0  0  0  0  0  0  0  0  0  0
  144.0822  135.5340  150.3978 H   0  0  0  0  0  0  0  0  0  0  0  0
  144.4226  135.4856  152.8553 H   0  0  0  0  0  0  0  0  0  0  0  0
  146.2419  137.5097  151.4411 H   0  0  0  0  0  0  0  0  0  0  0  0
  144.5329  137.7019  151.7777 H   0  0  0  0  0  0  0  0  0  0  0  0
  147.2529  135.2782  152.1861 H   0  0  0  0  0  0  0  0  0  0  0  0
  1  2  3  0  0  0  0
  2  3  1  0  0  0  0
  3  8  1  0  0  0  0
  3  4  2  0  0  0  0
  4  5  1  0  0  0  0
  5  6  2  0  0  0  0
  5 21  1  0  0  0  0
  6  7  1  0  0  0  0
  6 22  1  0  0  0  0
  7  8  2  0  0  0  0
  8  9  1  0  0  0  0
  9 10  1  0  0  0  0
  9 23  1  0  0  0  0
 10 11  1  0  0  0  0
 10 24  1  0  0  0  0
 10 25  1  0  0  0  0
 11 20  1  0  0  0  0
 11 12  1  0  0  0  0
 11 26  1  0  0  0  0
 12 13  1  0  0  0  0
 12 27  1  0  0  0  0
 12 28  1  0  0  0  0
 13 18  1  0  0  0  0
 13 14  1  0  0  0  0
 13 40  1  0  0  0  0
 14 15  1  0  0  0  0
 14 29  1  0  0  0  0
 14 30  1  0  0  0  0
 15 16  1  0  0  0  0
 15 31  1  0  0  0  0
 15 32  1  0  0  0  0
 16 17  1  0  0  0  0
 16 33  1  0  0  0  0
 16 34  1  0  0  0  0
 17 18  1  0  0  0  0
 17 35  1  0  0  0  0
 17 36  1  0  0  0  0
 18 19  1  0  0  0  0
 18 37  1  0  0  0  0
 19 20  1  0  0  0  0
 19 38  1  0  0  0  0
 19 39  1  0  0  0  0
M  CHG  1  13   1
M  END
> <s_m_source_file>
AV-unprocessed.smi

> <i_m_source_file_index>
3068

> <i_lp_mmshare_version>
43012

> <i_f3d_flags>
0

> <s_epik_input>
TiNDYzFuW2NIXVtjSF1uYzFbTkhdW0NIMl1bQ0BIXShbQ0gyXTIpT1tDSDJdW0NAQEhdKE4yMylbQ0gyXVtDSDJdW0NIMl1bQ0gyXTM=

> <s_epik_cmdline>
J2VwaWtfcHl0aG9uJywgJy1waCcsICc3LjAnLCAnLXRuJywgJzgnLCAnLW1hJywgJzIwMCcsICctbWV0YWxfYmluZGluZycsICctaW1hZScsICc8aW5maWxlLm1hZT4nLCAnLW9tYWUnLCAnPG91dGZpbGUubWFlPic=

> <r_epik_Ionization_Penalty>
0.0804321

> <r_epik_Ionization_Penalty_Charging>
0.0803403

> <r_epik_Ionization_Penalty_Neutral>
9.17277e-05

> <r_epik_State_Penalty>
0.0711481

> <r_epik_Charging_Adjusted_Penalty>
0.151488

> <i_epik_Tot_Q>
1

> <i_epik_Tot_abs_Q>
1

> <r_epik_Metal_State_Penalty>
0.0711481

> <b_epik_Metal_Only>
0

> <s_lp_Force_Field>
OPLS_2005

> <r_lp_Energy>
36.4506

> <b_lp_Chiralities_Consistent>
1

> <s_lp_Variant>
AV-unprocessed.smi:3068-8

> <Gold.Version>
5.8.1

> <Gold.Id.Protein>
6NUR|6NUR_protein|mol2

> <Gold.PLP.Fitness>
37.9664

> <Gold.PLP.PLP>
-24.7669

> <Gold.PLP.part.hbond>
-3.0000

> <Gold.PLP.part.metal>
0.0000

> <Gold.PLP.part.buried>
-1.4175

> <Gold.PLP.part.nonpolar>
-19.6054

> <Gold.PLP.part.repulsive>
0.3656

> <Gold.PLP.ligand.clash>
0.0000

> <Gold.PLP.ligand.torsion>
0.5571

> <Gold.PLP.Chemscore.Hbond>
3.7920

> <Gold.PLP.Chemscore.CHOScore>
0.9779

> <Gold.PLP.Chemscore.Metal>
0.0000

> <Gold.Chemscore.Hbonds>
donor molecule, donor type, donor heavy atom, donor atom, acceptor molecule, acceptor atom, score
      L1  H    13    40       P1  7948  1.98
      P1  H  7989  7998       L1     4  0.88
      P1  H 10752 10765       L1     1  0.93
      L1  C     6    22       P1  8028  0.83

> <Gold.PLP.Chemscore.Internal.Correction>
0.0040

> <Gold.Rescore>
     Score         DG    S(hbond)    S(metal)    S(lipo)     H(rot)  DE(clash)    DE(int)     intcor
     14.79     -15.52       2.04        0.00      56.34       1.32       0.15       0.58       ----

> <Gold.Chemscore.Fitness>
14.7926

> <Gold.Chemscore.DG>
-15.5233

> <Gold.Chemscore.ZeroCoef>
-5.4800

> <Gold.Chemscore.Hbond>
2.0446

> <Gold.Chemscore.Metal>
0.0000

> <Gold.Chemscore.Lipo>
56.3396

> <Gold.Chemscore.Internal_Hbond>
0.0000

> <Gold.Chemscore.DEClash>
0.1509

> <Gold.Chemscore.DEInternal>
0.5797

> <Gold.Chemscore.Rot>
1.3193

> <Gold.Chemscore.Internal.Correction>
   9.000000E+99

> <Gold.Chemscore.Hbonds>
donor molecule, donor type, donor heavy atom, donor atom, acceptor molecule, acceptor atom, score
      L1  H    13    40       P1  7948  0.94
      P1  H  7989  7998       L1     4  0.09
      P1  H 10752 10765       L1     1  0.90

> <Gold.Chemscore.Hbond.Weighted>
-6.8289

> <Gold.Chemscore.Metal.Weighted>
-0.0000

> <Gold.Chemscore.Lipo.Weighted>
-6.5917

> <Gold.Chemscore.Internal_Hbond.Weighted>
0.0000

> <Gold.Chemscore.DEClash.Weighted>
0.1509

> <Gold.Chemscore.DEInternal.Weighted>
0.5797

> <Gold.Chemscore.Rot.Weighted>
3.3774

> <Gold.Chemscore.Internal.Correction.Weighted>
   9.000000E+99

> <Gold.Protein.RotatedTorsions>
[ 6907 6896 6895 6894 ] final  152.24 input  -60.11 | X-H torsion
[ 7974 7965 7964 7962 ] final -168.71 input  175.53 | X-H torsion
[ 8008 7997 7996 7995 ] final  -55.87 input   59.86 | X-H torsion
[ 10167 10162 10161 10158 ] final  -73.30 input  -65.29 | X-H torsion
[ 10718 10713 10712 10709 ] final  -18.18 input   66.30 | X-H torsion
[ 10763 10752 10751 10750 ] final  162.06 input  -60.55 | X-H torsion
[ 11005 11000 10999 10996 ] final  -52.41 input  -57.11 | X-H torsion

> <Gold.Protein.ActiveResidues>
 VAL166  LYS551  ARG553  GLY616  TRP617  ASP618  TYR619  PRO620  LYS621  CYS622 
 ASP623  PHE694  ASN695  SER759  ASP760  ASP761  ALA762  ILE779  LEU786  VAL792 
 PHE793  MET794  SER795  GLU796  ALA797  LYS798  CYS799  TRP800  GLU811  SER814 

> <Gold.Protein.RotatedAtoms>
  152.0895  133.4193  159.4536 H   0  0  0  0  0  0  0  0  0  0  0  0  # atno 6907 bound_to 6896
  150.6862  134.2889  159.4667 H   0  0  0  0  0  0  0  0  0  0  0  0  # atno 6908 bound_to 6896
  152.0738  134.9515  160.0625 H   0  0  0  0  0  0  0  0  0  0  0  0  # atno 6909 bound_to 6896
  144.7198  140.2330  143.6301 H   0  0  0  0  0  0  0  0  0  0  0  0  # atno 7974 bound_to 7965
  154.4210  140.1143  156.5545 H   0  0  0  0  0  0  0  0  0  0  0  0  # atno 8008 bound_to 7997
  155.6375  140.3496  155.4684 H   0  0  0  0  0  0  0  0  0  0  0  0  # atno 8009 bound_to 7997
  155.9898  140.1177  157.0639 H   0  0  0  0  0  0  0  0  0  0  0  0  # atno 8010 bound_to 7997
  140.5121  143.2343  151.7575 H   0  0  0  0  0  0  0  0  0  0  0  0  # atno 10167 bound_to 10162
  156.5632  130.4731  149.6397 H   0  0  0  0  0  0  0  0  0  0  0  0  # atno 10718 bound_to 10713
  154.2726  135.2765  155.2732 H   0  0  0  0  0  0  0  0  0  0  0  0  # atno 10763 bound_to 10752
  154.5289  135.5735  153.6745 H   0  0  0  0  0  0  0  0  0  0  0  0  # atno 10764 bound_to 10752
  152.9942  135.6222  154.2881 H   0  0  0  0  0  0  0  0  0  0  0  0  # atno 10765 bound_to 10752
  141.0923  133.6630  156.4020 H   0  0  0  0  0  0  0  0  0  0  0  0  # atno 11005 bound_to 11000
  145.8393  139.2122  143.1837 LP  0  0  0  0  0  0  0  0  0  0  0  0  # atno 17320 bound_to 7965
  146.0361  140.8211  142.9852 LP  0  0  0  0  0  0  0  0  0  0  0  0  # atno 17321 bound_to 7965
  139.4899  144.4375  151.9802 LP  0  0  0  0  0  0  0  0  0  0  0  0  # atno 17342 bound_to 10162
  140.3468  144.3137  150.5956 LP  0  0  0  0  0  0  0  0  0  0  0  0  # atno 17343 bound_to 10162
  156.2780  130.7055  151.1871 LP  0  0  0  0  0  0  0  0  0  0  0  0  # atno 17370 bound_to 10713
  157.7364  131.0562  150.5415 LP  0  0  0  0  0  0  0  0  0  0  0  0  # atno 17371 bound_to 10713
  140.5223  134.6292  157.5322 LP  0  0  0  0  0  0  0  0  0  0  0  0  # atno 17394 bound_to 11000
  139.9751  134.7228  155.9965 LP  0  0  0  0  0  0  0  0  0  0  0  0  # atno 17395 bound_to 11000

$$$$
