AV-unprocessed.smi:46|AV-procd|sdf|419|dock4
  -GOLD-   2262016293D 1   1.00000     0.00000
 Structure written by MMmdl.
 35 36  0  0  0  0  0  0  0  0  2 V2000
  146.1873  132.7953  156.5220 C   0  0  0  0  0  0  0  0  0  0  0  0
  145.5521  134.1663  156.2455 C   0  0  0  0  0  0  0  0  0  0  0  0
  144.0880  134.2263  156.7058 C   0  0  0  0  0  0  0  0  0  0  0  0
  145.6658  134.5156  154.8377 N   0  0  0  0  0  0  0  0  0  0  0  0
  145.2188  133.8162  153.7352 C   0  0  0  0  0  0  0  0  0  0  0  0
  145.5503  134.5382  152.6223 C   0  0  0  0  0  0  0  0  0  0  0  0
  145.3007  134.2232  151.1699 C   0  0  2  0  0  0  0  0  0  0  0  0
  144.2773  135.1549  150.5190 C   0  0  0  0  0  0  0  0  0  0  0  0
  143.8452  134.4527  149.2986 N   0  3  0  0  0  0  0  0  0  0  0  0
  144.1106  133.0106  149.4858 C   0  0  0  0  0  0  0  0  0  0  0  0
  144.6913  132.8443  150.9022 C   0  0  1  0  0  0  0  0  0  0  0  0
  145.6871  131.6796  151.0419 C   0  0  0  0  0  0  0  0  0  0  0  0
  146.8001  131.8889  150.1998 O   0  0  0  0  0  0  0  0  0  0  0  0
  146.2064  135.6820  153.1589 C   0  0  0  0  0  0  0  0  0  0  0  0
  146.2723  135.6669  154.4792 N   0  0  0  0  0  0  0  0  0  0  0  0
  146.2324  134.3018  150.6062 H   0  0  0  0  0  0  0  0  0  0  0  0
  143.8597  132.6926  151.5933 H   0  0  0  0  0  0  0  0  0  0  0  0
  146.1561  132.5575  157.5855 H   0  0  0  0  0  0  0  0  0  0  0  0
  147.2326  132.7774  156.2115 H   0  0  0  0  0  0  0  0  0  0  0  0
  145.6678  131.9982  155.9894 H   0  0  0  0  0  0  0  0  0  0  0  0
  146.1092  134.9084  156.8206 H   0  0  0  0  0  0  0  0  0  0  0  0
  144.0060  134.0251  157.7741 H   0  0  0  0  0  0  0  0  0  0  0  0
  143.4739  133.4931  156.1821 H   0  0  0  0  0  0  0  0  0  0  0  0
  143.6597  135.2122  156.5227 H   0  0  0  0  0  0  0  0  0  0  0  0
  144.7070  132.8701  153.8334 H   0  0  0  0  0  0  0  0  0  0  0  0
  143.4035  135.2776  151.1607 H   0  0  0  0  0  0  0  0  0  0  0  0
  144.6783  136.1454  150.3027 H   0  0  0  0  0  0  0  0  0  0  0  0
  142.8641  134.6200  149.1269 H   0  0  0  0  0  0  0  0  0  0  0  0
  143.2028  132.4225  149.3470 H   0  0  0  0  0  0  0  0  0  0  0  0
  144.8293  132.6977  148.7274 H   0  0  0  0  0  0  0  0  0  0  0  0
  146.0272  131.5718  152.0723 H   0  0  0  0  0  0  0  0  0  0  0  0
  145.2129  130.7397  150.7583 H   0  0  0  0  0  0  0  0  0  0  0  0
  147.4099  131.1771  150.3236 H   0  0  0  0  0  0  0  0  0  0  0  0
  146.6354  136.5195  152.6287 H   0  0  0  0  0  0  0  0  0  0  0  0
  144.3894  134.7812  148.5137 H   0  0  0  0  0  0  0  0  0  0  0  0
  1  2  1  0  0  0  0
  1 18  1  0  0  0  0
  1 19  1  0  0  0  0
  1 20  1  0  0  0  0
  2  3  1  0  0  0  0
  2  4  1  0  0  0  0
  2 21  1  0  0  0  0
  3 22  1  0  0  0  0
  3 23  1  0  0  0  0
  3 24  1  0  0  0  0
  4 15  1  0  0  0  0
  4  5  1  0  0  0  0
  5  6  2  0  0  0  0
  5 25  1  0  0  0  0
  6  7  1  0  0  0  0
  6 14  1  0  0  0  0
  7 16  1  0  0  0  0
  7 11  1  0  0  0  0
  7  8  1  0  0  0  0
  8  9  1  0  0  0  0
  8 26  1  0  0  0  0
  8 27  1  0  0  0  0
  9 10  1  0  0  0  0
  9 28  1  0  0  0  0
  9 35  1  0  0  0  0
 10 11  1  0  0  0  0
 10 29  1  0  0  0  0
 10 30  1  0  0  0  0
 11 17  1  0  0  0  0
 11 12  1  0  0  0  0
 12 13  1  0  0  0  0
 12 31  1  0  0  0  0
 12 32  1  0  0  0  0
 13 33  1  0  0  0  0
 14 15  2  0  0  0  0
 14 34  1  0  0  0  0
M  CHG  1   9   1
M  END
> <s_m_source_file>
AV-unprocessed.smi

> <i_m_source_file_index>
46

> <i_lp_mmshare_version>
43012

> <i_f3d_flags>
0

> <s_epik_input>
W0NIM11bQ0hdKFtDSDNdKW4xW2NIXWMoW2NIXW4xKVtDQEBIXTJbQ0gyXVtOSF1bQ0gyXVtDQEhdMltDSDJdW09IXQ==

> <s_epik_cmdline>
J2VwaWtfcHl0aG9uJywgJy1waCcsICc3LjAnLCAnLXRuJywgJzgnLCAnLW1hJywgJzIwMCcsICctbWV0YWxfYmluZGluZycsICctaW1hZScsICc8aW5maWxlLm1hZT4nLCAnLW9tYWUnLCAnPG91dGZpbGUubWFlPic=

> <r_lp_tautomer_probability>
1

> <r_epik_Ionization_Penalty>
0.000236226

> <r_epik_Ionization_Penalty_Charging>
0.00021985

> <r_epik_Ionization_Penalty_Neutral>
1.63752e-05

> <r_epik_State_Penalty>
-0

> <r_epik_Charging_Adjusted_Penalty>
0.00021985

> <i_epik_Tot_Q>
1

> <i_epik_Tot_abs_Q>
1

> <r_epik_Metal_State_Penalty>
-0

> <b_epik_Metal_Only>
0

> <s_lp_Force_Field>
OPLS_2005

> <r_lp_Energy>
29.3902

> <b_lp_Chiralities_Consistent>
1

> <s_lp_Variant>
AV-unprocessed.smi:46-1

> <Gold.Version>
5.8.1

> <Gold.Id.Protein>
6NUR|6NUR_protein|mol2

> <Gold.PLP.Fitness>
37.3133

> <Gold.PLP.PLP>
-21.1117

> <Gold.PLP.part.hbond>
-2.5677

> <Gold.PLP.part.metal>
0.0000

> <Gold.PLP.part.buried>
-3.7887

> <Gold.PLP.part.nonpolar>
-14.8721

> <Gold.PLP.part.repulsive>
0.1838

> <Gold.PLP.ligand.clash>
0.0000

> <Gold.PLP.ligand.torsion>
0.1882

> <Gold.PLP.Chemscore.Hbond>
3.7920

> <Gold.PLP.Chemscore.CHOScore>
1.7206

> <Gold.PLP.Chemscore.Metal>
0.0000

> <Gold.Chemscore.Hbonds>
donor molecule, donor type, donor heavy atom, donor atom, acceptor molecule, acceptor atom, score
      L1  H     9    28       P1 10186  2.00
      L1  H     9    35       P1  7921  0.96
      L1  H    13    33       P1 10747  0.83
      L1  C     5    25       P1 10957  1.00
      L1  C    14    34       P1  7948  0.72

> <Gold.PLP.Chemscore.Internal.Correction>
0.0404

> <Gold.Rescore>
     Score         DG    S(hbond)    S(metal)    S(lipo)     H(rot)  DE(clash)    DE(int)     intcor
     15.04     -15.37       2.68        0.00      49.64       1.90       0.13       0.20       ----

> <Gold.Chemscore.Fitness>
15.0407

> <Gold.Chemscore.DG>
-15.3696

> <Gold.Chemscore.ZeroCoef>
-5.4800

> <Gold.Chemscore.Hbond>
2.6764

> <Gold.Chemscore.Metal>
0.0000

> <Gold.Chemscore.Lipo>
49.6422

> <Gold.Chemscore.Internal_Hbond>
0.0000

> <Gold.Chemscore.DEClash>
0.1276

> <Gold.Chemscore.DEInternal>
0.2012

> <Gold.Chemscore.Rot>
1.8976

> <Gold.Chemscore.Internal.Correction>
   9.000000E+99

> <Gold.Chemscore.Hbonds>
donor molecule, donor type, donor heavy atom, donor atom, acceptor molecule, acceptor atom, score
      L1  H     9    28       P1 10186  0.97
      L1  H     9    35       P1  7921  0.91
      L1  H    13    33       P1 10747  0.80

> <Gold.Chemscore.Hbond.Weighted>
-8.9393

> <Gold.Chemscore.Metal.Weighted>
-0.0000

> <Gold.Chemscore.Lipo.Weighted>
-5.8081

> <Gold.Chemscore.Internal_Hbond.Weighted>
0.0000

> <Gold.Chemscore.DEClash.Weighted>
0.1276

> <Gold.Chemscore.DEInternal.Weighted>
0.2012

> <Gold.Chemscore.Rot.Weighted>
4.8579

> <Gold.Chemscore.Internal.Correction.Weighted>
   9.000000E+99

> <Gold.Protein.RotatedTorsions>
[ 6907 6896 6895 6894 ] final  -71.68 input  -60.11 | X-H torsion
[ 7974 7965 7964 7962 ] final  134.36 input  175.53 | X-H torsion
[ 8008 7997 7996 7995 ] final   28.41 input   59.86 | X-H torsion
[ 10167 10162 10161 10158 ] final   45.68 input  -65.29 | X-H torsion
[ 10718 10713 10712 10709 ] final  152.21 input   66.30 | X-H torsion
[ 10763 10752 10751 10750 ] final -140.42 input  -60.55 | X-H torsion
[ 11005 11000 10999 10996 ] final  104.72 input  -57.11 | X-H torsion

> <Gold.Protein.ActiveResidues>
 VAL166  LYS551  ARG553  GLY616  TRP617  ASP618  TYR619  PRO620  LYS621  CYS622 
 ASP623  PHE694  ASN695  SER759  ASP760  ASP761  ALA762  ILE779  LEU786  VAL792 
 PHE793  MET794  SER795  GLU796  ALA797  LYS798  CYS799  TRP800  GLU811  SER814 

> <Gold.Protein.RotatedAtoms>
  150.7202  134.5273  159.5682 H   0  0  0  0  0  0  0  0  0  0  0  0  # atno 6907 bound_to 6896
  152.2814  134.7821  160.0405 H   0  0  0  0  0  0  0  0  0  0  0  0  # atno 6908 bound_to 6896
  151.8466  133.3397  159.3697 H   0  0  0  0  0  0  0  0  0  0  0  0  # atno 6909 bound_to 6896
  144.9771  139.4543  143.5404 H   0  0  0  0  0  0  0  0  0  0  0  0  # atno 7974 bound_to 7965
  155.0583  140.3187  155.4669 H   0  0  0  0  0  0  0  0  0  0  0  0  # atno 8008 bound_to 7997
  156.2819  140.2133  156.5654 H   0  0  0  0  0  0  0  0  0  0  0  0  # atno 8009 bound_to 7997
  154.7153  140.0494  157.0576 H   0  0  0  0  0  0  0  0  0  0  0  0  # atno 8010 bound_to 7997
  140.3217  144.2697  150.6182 H   0  0  0  0  0  0  0  0  0  0  0  0  # atno 10167 bound_to 10162
  157.2607  131.0797  151.1667 H   0  0  0  0  0  0  0  0  0  0  0  0  # atno 10718 bound_to 10713
  154.8579  135.3554  154.5704 H   0  0  0  0  0  0  0  0  0  0  0  0  # atno 10763 bound_to 10752
  153.6317  135.7002  153.5278 H   0  0  0  0  0  0  0  0  0  0  0  0  # atno 10764 bound_to 10752
  153.3044  135.4197  155.1240 H   0  0  0  0  0  0  0  0  0  0  0  0  # atno 10765 bound_to 10752
  139.8794  134.9310  156.5405 H   0  0  0  0  0  0  0  0  0  0  0  0  # atno 11005 bound_to 11000
  146.3398  139.9021  142.8793 LP  0  0  0  0  0  0  0  0  0  0  0  0  # atno 17320 bound_to 7965
  145.2474  141.0031  143.3901 LP  0  0  0  0  0  0  0  0  0  0  0  0  # atno 17321 bound_to 7965
  140.5478  143.2212  151.7978 LP  0  0  0  0  0  0  0  0  0  0  0  0  # atno 17342 bound_to 10162
  139.4873  144.4517  151.9646 LP  0  0  0  0  0  0  0  0  0  0  0  0  # atno 17343 bound_to 10162
  157.3178  130.6922  149.6252 LP  0  0  0  0  0  0  0  0  0  0  0  0  # atno 17370 bound_to 10713
  155.9664  130.4344  150.5048 LP  0  0  0  0  0  0  0  0  0  0  0  0  # atno 17371 bound_to 10713
  140.8314  133.8276  155.8987 LP  0  0  0  0  0  0  0  0  0  0  0  0  # atno 17394 bound_to 11000
  140.9325  134.2004  157.4854 LP  0  0  0  0  0  0  0  0  0  0  0  0  # atno 17395 bound_to 11000

$$$$
