AV-unprocessed.smi:1507|AV-procd|sdf|6082|dock4
  -GOLD-   22720 6203D 1   1.00000     0.00000
 Structure written by MMmdl.
 34 35  0  0  0  0  0  0  0  0  3 V2000
  151.4538  135.6535  157.8018 N   0  0  0  0  0  0  0  0  0  0  0  0
  152.0120  134.8778  156.3746 S   0  0  0  0  0  0  0  0  0  0  0  0
  151.4746  135.6614  155.2505 O   0  0  0  0  0  0  0  0  0  0  0  0
  153.4720  134.7648  156.5204 O   0  0  0  0  0  0  0  0  0  0  0  0
  151.2302  133.4820  156.6204 N   0  5  0  0  0  0  0  0  0  0  0  0
  151.3156  132.4432  155.6114 C   0  0  0  0  0  0  0  0  0  0  0  0
  150.1421  132.5153  154.6469 C   0  0  0  0  0  0  0  0  0  0  0  0
  149.3511  131.3737  154.3772 C   0  0  0  0  0  0  0  0  0  0  0  0
  148.2780  131.4727  153.4667 C   0  0  0  0  0  0  0  0  0  0  0  0
  148.0124  132.7071  152.8379 C   0  0  0  0  0  0  0  0  0  0  0  0
  146.9615  132.8399  151.9196 N   0  0  0  0  0  0  0  0  0  0  0  0
  146.3920  131.5640  151.5051 C   0  0  0  0  0  0  0  0  0  0  0  0
  145.3303  131.7923  150.4153 C   0  0  0  0  0  0  0  0  0  0  0  0
  144.3409  132.6975  150.8966 O   0  0  0  0  0  0  0  0  0  0  0  0
  144.8935  133.9681  151.2290 C   0  0  0  0  0  0  0  0  0  0  0  0
  145.9446  133.7963  152.3392 C   0  0  0  0  0  0  0  0  0  0  0  0
  148.7905  133.7779  153.1250 N   0  3  0  0  0  0  0  0  0  0  0  0
  149.8275  133.7269  153.9902 C   0  0  0  0  0  0  0  0  0  0  0  0
  151.6572  136.6524  157.8026 H   0  0  0  0  0  0  0  0  0  0  0  0
  151.7585  135.1715  158.6466 H   0  0  0  0  0  0  0  0  0  0  0  0
  152.2387  132.5147  155.0352 H   0  0  0  0  0  0  0  0  0  0  0  0
  151.3228  131.4470  156.0550 H   0  0  0  0  0  0  0  0  0  0  0  0
  149.5556  130.4227  154.8504 H   0  0  0  0  0  0  0  0  0  0  0  0
  147.6707  130.6056  153.2512 H   0  0  0  0  0  0  0  0  0  0  0  0
  147.1807  130.9112  151.1292 H   0  0  0  0  0  0  0  0  0  0  0  0
  145.9399  131.0645  152.3634 H   0  0  0  0  0  0  0  0  0  0  0  0
  145.7851  132.1851  149.5043 H   0  0  0  0  0  0  0  0  0  0  0  0
  144.8516  130.8490  150.1520 H   0  0  0  0  0  0  0  0  0  0  0  0
  145.3331  134.4287  150.3429 H   0  0  0  0  0  0  0  0  0  0  0  0
  144.0937  134.6268  151.5670 H   0  0  0  0  0  0  0  0  0  0  0  0
  145.4614  133.4465  153.2527 H   0  0  0  0  0  0  0  0  0  0  0  0
  146.4108  134.7558  152.5668 H   0  0  0  0  0  0  0  0  0  0  0  0
  150.3710  134.6532  154.1180 H   0  0  0  0  0  0  0  0  0  0  0  0
  148.5908  134.6647  152.6624 H   0  0  0  0  0  0  0  0  0  0  0  0
  1  2  1  0  0  0  0
  1 19  1  0  0  0  0
  1 20  1  0  0  0  0
  2  3  2  0  0  0  0
  2  4  2  0  0  0  0
  2  5  1  0  0  0  0
  5  6  1  0  0  0  0
  6  7  1  0  0  0  0
  6 21  1  0  0  0  0
  6 22  1  0  0  0  0
  7 18  1  0  0  0  0
  7  8  2  0  0  0  0
  8  9  1  0  0  0  0
  8 23  1  0  0  0  0
  9 10  2  0  0  0  0
  9 24  1  0  0  0  0
 10 11  1  0  0  0  0
 10 17  1  0  0  0  0
 11 16  1  0  0  0  0
 11 12  1  0  0  0  0
 12 13  1  0  0  0  0
 12 25  1  0  0  0  0
 12 26  1  0  0  0  0
 13 14  1  0  0  0  0
 13 27  1  0  0  0  0
 13 28  1  0  0  0  0
 14 15  1  0  0  0  0
 15 16  1  0  0  0  0
 15 29  1  0  0  0  0
 15 30  1  0  0  0  0
 16 31  1  0  0  0  0
 16 32  1  0  0  0  0
 17 18  2  0  0  0  0
 17 34  1  0  0  0  0
 18 33  1  0  0  0  0
M  CHG  1   5  -1
M  CHG  1  17   1
M  END
> <s_m_source_file>
AV-unprocessed.smi

> <i_m_source_file_index>
1507

> <i_lp_mmshare_version>
43012

> <i_f3d_flags>
0

> <s_epik_input>
W05IMl1TKD1PKSg9TylbTkhdW0NIMl1jMVtjSF1bY0hdYyhuW2NIXTEpTjJbQ0gyXVtDSDJdT1tDSDJdW0NIMl0y

> <s_epik_cmdline>
J2VwaWtfcHl0aG9uJywgJy1waCcsICc3LjAnLCAnLXRuJywgJzgnLCAnLW1hJywgJzIwMCcsICctbWV0YWxfYmluZGluZycsICctaW1hZScsICc8aW5maWxlLm1hZT4nLCAnLW9tYWUnLCAnPG91dGZpbGUubWFlPic=

> <r_epik_Ionization_Penalty>
1.53449

> <r_epik_Ionization_Penalty_Charging>
1.53276

> <r_epik_Ionization_Penalty_Neutral>
0.00173209

> <r_epik_State_Penalty>
2.14469

> <r_epik_Charging_Adjusted_Penalty>
3.67745

> <i_epik_Tot_Q>
0

> <i_epik_Tot_abs_Q>
2

> <r_epik_Metal_State_Penalty>
2.50812

> <b_epik_Metal_Only>
0

> <s_lp_Force_Field>
OPLS_2005

> <r_lp_Energy>
19.2824

> <b_lp_Chiralities_Consistent>
1

> <s_lp_Variant>
AV-unprocessed.smi:1507-3

> <Gold.Version>
5.8.1

> <Gold.Id.Protein>
6NUR|6NUR_protein|mol2

> <Gold.PLP.Fitness>
37.8726

> <Gold.PLP.PLP>
-27.7165

> <Gold.PLP.part.hbond>
-5.2361

> <Gold.PLP.part.metal>
0.0000

> <Gold.PLP.part.buried>
-3.2399

> <Gold.PLP.part.nonpolar>
-19.9580

> <Gold.PLP.part.repulsive>
0.3822

> <Gold.PLP.ligand.clash>
0.9860

> <Gold.PLP.ligand.torsion>
1.0232

> <Gold.PLP.Chemscore.Hbond>
4.0509

> <Gold.PLP.Chemscore.CHOScore>
0.0000

> <Gold.PLP.Chemscore.Metal>
0.0000

> <Gold.Chemscore.Hbonds>
donor molecule, donor type, donor heavy atom, donor atom, acceptor molecule, acceptor atom, score
      L1  H    17    34       P1  7948  1.60
      P1  H 10752 10763       L1     3  0.15
      P1  H 10752 10764       L1     4  0.32

> <Gold.PLP.Chemscore.Internal.Correction>
1.0358

> <Gold.Rescore>
     Score         DG    S(hbond)    S(metal)    S(lipo)     H(rot)  DE(clash)    DE(int)     intcor
     10.75     -13.43       2.17        0.00      47.88       1.91       0.02       2.65       ----

> <Gold.Chemscore.Fitness>
10.7515

> <Gold.Chemscore.DG>
-13.4264

> <Gold.Chemscore.ZeroCoef>
-5.4800

> <Gold.Chemscore.Hbond>
2.1674

> <Gold.Chemscore.Metal>
0.0000

> <Gold.Chemscore.Lipo>
47.8842

> <Gold.Chemscore.Internal_Hbond>
0.0000

> <Gold.Chemscore.DEClash>
0.0207

> <Gold.Chemscore.DEInternal>
2.6542

> <Gold.Chemscore.Rot>
1.9121

> <Gold.Chemscore.Internal.Correction>
   9.000000E+99

> <Gold.Chemscore.Hbonds>
donor molecule, donor type, donor heavy atom, donor atom, acceptor molecule, acceptor atom, score
      L1  H    17    34       P1  7948  0.12
      P1  H 10752 10763       L1     3  0.04
      P1  H 10752 10764       L1     4  0.07

> <Gold.Chemscore.Hbond.Weighted>
-7.2390

> <Gold.Chemscore.Metal.Weighted>
-0.0000

> <Gold.Chemscore.Lipo.Weighted>
-5.6025

> <Gold.Chemscore.Internal_Hbond.Weighted>
0.0000

> <Gold.Chemscore.DEClash.Weighted>
0.0207

> <Gold.Chemscore.DEInternal.Weighted>
2.6542

> <Gold.Chemscore.Rot.Weighted>
4.8950

> <Gold.Chemscore.Internal.Correction.Weighted>
   9.000000E+99

> <Gold.Protein.RotatedTorsions>
[ 6907 6896 6895 6894 ] final  -17.06 input  -60.11 | X-H torsion
[ 7974 7965 7964 7962 ] final   82.83 input  175.53 | X-H torsion
[ 8008 7997 7996 7995 ] final   49.90 input   59.86 | X-H torsion
[ 10167 10162 10161 10158 ] final  -35.68 input  -65.29 | X-H torsion
[ 10718 10713 10712 10709 ] final    4.39 input   66.30 | X-H torsion
[ 10763 10752 10751 10750 ] final   16.98 input  -60.55 | X-H torsion
[ 11005 11000 10999 10996 ] final   15.62 input  -57.11 | X-H torsion

> <Gold.Protein.ActiveResidues>
 VAL166  LYS551  ARG553  GLY616  TRP617  ASP618  TYR619  PRO620  LYS621  CYS622 
 ASP623  PHE694  ASN695  SER759  ASP760  ASP761  ALA762  ILE779  LEU786  VAL792 
 PHE793  MET794  SER795  GLU796  ALA797  LYS798  CYS799  TRP800  GLU811  SER814 

> <Gold.Protein.RotatedAtoms>
  151.2991  135.0763  159.9231 H   0  0  0  0  0  0  0  0  0  0  0  0  # atno 6907 bound_to 6896
  152.5301  133.9852  159.7835 H   0  0  0  0  0  0  0  0  0  0  0  0  # atno 6908 bound_to 6896
  151.0136  133.5891  159.2710 H   0  0  0  0  0  0  0  0  0  0  0  0  # atno 6909 bound_to 6896
  145.6199  139.2384  143.2144 H   0  0  0  0  0  0  0  0  0  0  0  0  # atno 7974 bound_to 7965
  155.4099  140.3442  155.4263 H   0  0  0  0  0  0  0  0  0  0  0  0  # atno 8008 bound_to 7997
  156.1454  140.1555  156.8886 H   0  0  0  0  0  0  0  0  0  0  0  0  # atno 8009 bound_to 7997
  154.5006  140.0815  156.7771 H   0  0  0  0  0  0  0  0  0  0  0  0  # atno 8010 bound_to 7997
  140.7160  143.3461  151.2254 H   0  0  0  0  0  0  0  0  0  0  0  0  # atno 10167 bound_to 10162
  156.8919  130.5690  149.5649 H   0  0  0  0  0  0  0  0  0  0  0  0  # atno 10718 bound_to 10713
  153.1381  135.6754  153.9071 H   0  0  0  0  0  0  0  0  0  0  0  0  # atno 10763 bound_to 10752
  153.8537  135.3090  155.3435 H   0  0  0  0  0  0  0  0  0  0  0  0  # atno 10764 bound_to 10752
  154.7764  135.4912  153.9837 H   0  0  0  0  0  0  0  0  0  0  0  0  # atno 10765 bound_to 10752
  140.4563  134.1173  155.7709 H   0  0  0  0  0  0  0  0  0  0  0  0  # atno 11005 bound_to 11000
  146.1439  140.7020  142.9354 LP  0  0  0  0  0  0  0  0  0  0  0  0  # atno 17320 bound_to 7965
  144.7235  140.4450  143.6990 LP  0  0  0  0  0  0  0  0  0  0  0  0  # atno 17321 bound_to 7965
  139.6980  143.9580  152.2892 LP  0  0  0  0  0  0  0  0  0  0  0  0  # atno 17342 bound_to 10162
  139.9264  144.6768  150.8408 LP  0  0  0  0  0  0  0  0  0  0  0  0  # atno 17343 bound_to 10162
  156.0625  130.5674  150.9221 LP  0  0  0  0  0  0  0  0  0  0  0  0  # atno 17370 bound_to 10713
  157.6078  131.0938  150.8848 LP  0  0  0  0  0  0  0  0  0  0  0  0  # atno 17371 bound_to 10713
  141.1641  133.8736  157.1764 LP  0  0  0  0  0  0  0  0  0  0  0  0  # atno 17394 bound_to 11000
  139.9974  135.0041  157.0113 LP  0  0  0  0  0  0  0  0  0  0  0  0  # atno 17395 bound_to 11000

$$$$
