AV-unprocessed.smi:2208|AV-procd|sdf|8946|dock5
  -GOLD-   2272012163D 1   1.00000     0.00000
 Structure written by MMmdl.
 35 36  0  0  0  0  0  0  0  0  1 V2000
  149.4677  141.6316  155.4849 C   0  0  0  0  0  0  0  0  0  0  0  0
  150.3381  140.4172  155.3292 C   0  0  0  0  0  0  0  0  0  0  0  0
  150.6399  139.9983  154.1120 N   0  0  0  0  0  0  0  0  0  0  0  0
  151.4608  138.8800  154.2826 O   0  0  0  0  0  0  0  0  0  0  0  0
  151.6229  138.6656  155.6123 C   0  0  0  0  0  0  0  0  0  0  0  0
  152.4899  137.5151  155.9982 C   0  0  0  0  0  0  0  0  0  0  0  0
  150.9340  139.6016  156.3353 C   0  0  0  0  0  0  0  0  0  0  0  0
  150.8414  139.7477  157.8335 C   0  0  0  0  0  0  0  0  0  0  0  0
  152.1607  140.3028  158.3674 C   0  0  0  0  0  0  0  0  0  0  0  0
  153.2019  139.6623  158.2248 O   0  0  0  0  0  0  0  0  0  0  0  0
  152.0954  141.4820  159.0038 N   0  0  0  0  0  0  0  0  0  0  0  0
  153.2078  142.1308  159.6856 C   0  0  0  0  0  0  0  0  0  0  0  0
  152.7714  143.4711  160.2988 C   0  0  1  0  0  0  0  0  0  0  0  0
  152.4335  144.5432  159.2675 C   0  0  0  0  0  0  0  0  0  0  0  0
  151.5681  145.4789  160.0819 C   0  0  0  0  0  0  0  0  0  0  0  0
  150.7947  144.5136  160.9793 C   0  0  0  0  0  0  0  0  0  0  0  0
  151.5665  143.3162  161.0419 O   0  0  0  0  0  0  0  0  0  0  0  0
  149.9780  142.5254  155.1251 H   0  0  0  0  0  0  0  0  0  0  0  0
  149.1988  141.8053  156.5263 H   0  0  0  0  0  0  0  0  0  0  0  0
  148.5414  141.5258  154.9196 H   0  0  0  0  0  0  0  0  0  0  0  0
  153.5428  137.7860  155.9221 H   0  0  0  0  0  0  0  0  0  0  0  0
  152.3125  136.6589  155.3473 H   0  0  0  0  0  0  0  0  0  0  0  0
  152.2953  137.2033  157.0244 H   0  0  0  0  0  0  0  0  0  0  0  0
  150.0332  140.4172  158.1277 H   0  0  0  0  0  0  0  0  0  0  0  0
  150.6235  138.7921  158.3126 H   0  0  0  0  0  0  0  0  0  0  0  0
  151.1951  141.9339  159.0724 H   0  0  0  0  0  0  0  0  0  0  0  0
  153.6104  141.4728  160.4575 H   0  0  0  0  0  0  0  0  0  0  0  0
  154.0092  142.2902  158.9637 H   0  0  0  0  0  0  0  0  0  0  0  0
  153.5412  143.8543  160.9711 H   0  0  0  0  0  0  0  0  0  0  0  0
  153.3171  145.0290  158.8530 H   0  0  0  0  0  0  0  0  0  0  0  0
  151.8554  144.1193  158.4451 H   0  0  0  0  0  0  0  0  0  0  0  0
  152.1974  146.1307  160.6896 H   0  0  0  0  0  0  0  0  0  0  0  0
  150.9191  146.1059  159.4701 H   0  0  0  0  0  0  0  0  0  0  0  0
  150.6311  144.9272  161.9745 H   0  0  0  0  0  0  0  0  0  0  0  0
  149.8221  144.2770  160.5473 H   0  0  0  0  0  0  0  0  0  0  0  0
  1  2  1  0  0  0  0
  1 18  1  0  0  0  0
  1 19  1  0  0  0  0
  1 20  1  0  0  0  0
  2  7  1  0  0  0  0
  2  3  2  0  0  0  0
  3  4  1  0  0  0  0
  4  5  1  0  0  0  0
  5  6  1  0  0  0  0
  5  7  2  0  0  0  0
  6 21  1  0  0  0  0
  6 22  1  0  0  0  0
  6 23  1  0  0  0  0
  7  8  1  0  0  0  0
  8  9  1  0  0  0  0
  8 24  1  0  0  0  0
  8 25  1  0  0  0  0
  9 10  2  0  0  0  0
  9 11  1  0  0  0  0
 11 12  1  0  0  0  0
 11 26  1  0  0  0  0
 12 13  1  0  0  0  0
 12 27  1  0  0  0  0
 12 28  1  0  0  0  0
 13 17  1  0  0  0  0
 13 14  1  0  0  0  0
 13 29  1  0  0  0  0
 14 15  1  0  0  0  0
 14 30  1  0  0  0  0
 14 31  1  0  0  0  0
 15 16  1  0  0  0  0
 15 32  1  0  0  0  0
 15 33  1  0  0  0  0
 16 17  1  0  0  0  0
 16 34  1  0  0  0  0
 16 35  1  0  0  0  0
M  END
> <s_m_source_file>
AV-unprocessed.smi

> <i_m_source_file_index>
2208

> <i_lp_mmshare_version>
43012

> <i_f3d_flags>
0

> <s_epik_input>
W0NIM11jMW5vYyhbQ0gzXSljMVtDSDJdQyg9TylbTkhdW0NIMl1bQ0BASF0yW0NIMl1bQ0gyXVtDSDJdTzI=

> <s_epik_cmdline>
J2VwaWtfcHl0aG9uJywgJy1waCcsICc3LjAnLCAnLXRuJywgJzgnLCAnLW1hJywgJzIwMCcsICctbWV0YWxfYmluZGluZycsICctaW1hZScsICc8aW5maWxlLm1hZT4nLCAnLW9tYWUnLCAnPG91dGZpbGUubWFlPic=

> <r_lp_tautomer_probability>
1

> <r_epik_Ionization_Penalty>
3.13901e-08

> <r_epik_Ionization_Penalty_Charging>
0

> <r_epik_Ionization_Penalty_Neutral>
3.13901e-08

> <r_epik_State_Penalty>
-0

> <r_epik_Charging_Adjusted_Penalty>
0

> <i_epik_Tot_Q>
0

> <i_epik_Tot_abs_Q>
0

> <r_epik_Metal_State_Penalty>
-0

> <b_epik_Metal_Only>
0

> <s_lp_Force_Field>
OPLS_2005

> <r_lp_Energy>
10.5641

> <b_lp_Chiralities_Consistent>
1

> <s_lp_Variant>
AV-unprocessed.smi:2208-2

> <Gold.Version>
5.8.1

> <Gold.Id.Protein>
6NUR|6NUR_protein|mol2

> <Gold.PLP.Fitness>
39.0452

> <Gold.PLP.PLP>
-33.4880

> <Gold.PLP.part.hbond>
-2.2546

> <Gold.PLP.part.metal>
0.0000

> <Gold.PLP.part.buried>
-2.1893

> <Gold.PLP.part.nonpolar>
-28.9852

> <Gold.PLP.part.repulsive>
0.5346

> <Gold.PLP.ligand.clash>
0.0000

> <Gold.PLP.ligand.torsion>
0.2253

> <Gold.PLP.Chemscore.Hbond>
2.0000

> <Gold.PLP.Chemscore.CHOScore>
0.0000

> <Gold.PLP.Chemscore.Metal>
0.0000

> <Gold.Chemscore.Hbonds>
donor molecule, donor type, donor heavy atom, donor atom, acceptor molecule, acceptor atom, score
      P1  H  7989  7998       L1     3  0.72
      P1  H  7997  8009       L1    10  0.98

> <Gold.PLP.Chemscore.Internal.Correction>
0.0078

> <Gold.Rescore>
     Score         DG    S(hbond)    S(metal)    S(lipo)     H(rot)  DE(clash)    DE(int)     intcor
     17.19     -17.69       1.52        0.00      94.90       1.56       0.03       0.47       ----

> <Gold.Chemscore.Fitness>
17.1870

> <Gold.Chemscore.DG>
-17.6864

> <Gold.Chemscore.ZeroCoef>
-5.4800

> <Gold.Chemscore.Hbond>
1.5220

> <Gold.Chemscore.Metal>
0.0000

> <Gold.Chemscore.Lipo>
94.9048

> <Gold.Chemscore.Internal_Hbond>
0.0000

> <Gold.Chemscore.DEClash>
0.0308

> <Gold.Chemscore.DEInternal>
0.4686

> <Gold.Chemscore.Rot>
1.5551

> <Gold.Chemscore.Internal.Correction>
   9.000000E+99

> <Gold.Chemscore.Hbonds>
donor molecule, donor type, donor heavy atom, donor atom, acceptor molecule, acceptor atom, score
      P1  H  7989  7998       L1     3  0.12
      P1  H  7997  8009       L1    10  0.93

> <Gold.Chemscore.Hbond.Weighted>
-5.0835

> <Gold.Chemscore.Metal.Weighted>
-0.0000

> <Gold.Chemscore.Lipo.Weighted>
-11.1039

> <Gold.Chemscore.Internal_Hbond.Weighted>
0.0000

> <Gold.Chemscore.DEClash.Weighted>
0.0308

> <Gold.Chemscore.DEInternal.Weighted>
0.4686

> <Gold.Chemscore.Rot.Weighted>
3.9809

> <Gold.Chemscore.Internal.Correction.Weighted>
   9.000000E+99

> <Gold.Protein.RotatedTorsions>
[ 6907 6896 6895 6894 ] final  -86.10 input  -60.11 | X-H torsion
[ 7974 7965 7964 7962 ] final  169.34 input  175.53 | X-H torsion
[ 8008 7997 7996 7995 ] final  136.01 input   59.86 | X-H torsion
[ 10167 10162 10161 10158 ] final   57.04 input  -65.29 | X-H torsion
[ 10718 10713 10712 10709 ] final  -83.49 input   66.30 | X-H torsion
[ 10763 10752 10751 10750 ] final   80.54 input  -60.55 | X-H torsion
[ 11005 11000 10999 10996 ] final  167.63 input  -57.11 | X-H torsion

> <Gold.Protein.ActiveResidues>
 VAL166  LYS551  ARG553  GLY616  TRP617  ASP618  TYR619  PRO620  LYS621  CYS622 
 ASP623  PHE694  ASN695  SER759  ASP760  ASP761  ALA762  ILE779  LEU786  VAL792 
 PHE793  MET794  SER795  GLU796  ALA797  LYS798  CYS799  TRP800  GLU811  SER814 

> <Gold.Protein.RotatedAtoms>
  150.6868  134.3102  159.4742 H   0  0  0  0  0  0  0  0  0  0  0  0  # atno 6907 bound_to 6896
  152.0989  134.9353  160.0579 H   0  0  0  0  0  0  0  0  0  0  0  0  # atno 6908 bound_to 6896
  152.0640  133.4040  159.4467 H   0  0  0  0  0  0  0  0  0  0  0  0  # atno 6909 bound_to 6896
  144.7358  139.9040  143.6411 H   0  0  0  0  0  0  0  0  0  0  0  0  # atno 7974 bound_to 7965
  156.3004  140.2456  156.3674 H   0  0  0  0  0  0  0  0  0  0  0  0  # atno 8008 bound_to 7997
  154.8820  140.0412  157.1807 H   0  0  0  0  0  0  0  0  0  0  0  0  # atno 8009 bound_to 7997
  154.8686  140.2931  155.5499 H   0  0  0  0  0  0  0  0  0  0  0  0  # atno 8010 bound_to 7997
  140.2023  144.3975  150.6524 H   0  0  0  0  0  0  0  0  0  0  0  0  # atno 10167 bound_to 10162
  156.0018  130.4667  150.4266 H   0  0  0  0  0  0  0  0  0  0  0  0  # atno 10718 bound_to 10713
  153.1042  135.4799  154.8921 H   0  0  0  0  0  0  0  0  0  0  0  0  # atno 10763 bound_to 10752
  154.7412  135.3082  154.8728 H   0  0  0  0  0  0  0  0  0  0  0  0  # atno 10764 bound_to 10752
  153.9335  135.6842  153.4798 H   0  0  0  0  0  0  0  0  0  0  0  0  # atno 10765 bound_to 10752
  140.2788  134.7767  157.3740 H   0  0  0  0  0  0  0  0  0  0  0  0  # atno 11005 bound_to 11000
  146.1050  139.4049  143.0323 LP  0  0  0  0  0  0  0  0  0  0  0  0  # atno 17320 bound_to 7965
  145.7524  140.9967  143.1243 LP  0  0  0  0  0  0  0  0  0  0  0  0  # atno 17321 bound_to 7965
  140.6382  143.2198  151.6349 LP  0  0  0  0  0  0  0  0  0  0  0  0  # atno 17342 bound_to 10162
  139.5212  144.3199  152.0919 LP  0  0  0  0  0  0  0  0  0  0  0  0  # atno 17343 bound_to 10162
  157.2318  131.0506  151.2488 LP  0  0  0  0  0  0  0  0  0  0  0  0  # atno 17370 bound_to 10713
  157.3704  130.7178  149.6561 LP  0  0  0  0  0  0  0  0  0  0  0  0  # atno 17371 bound_to 10713
  140.1303  134.5103  155.8111 LP  0  0  0  0  0  0  0  0  0  0  0  0  # atno 17394 bound_to 11000
  141.2166  133.6787  156.7027 LP  0  0  0  0  0  0  0  0  0  0  0  0  # atno 17395 bound_to 11000

$$$$
