AV-unprocessed.smi:1674|AV-procd|sdf|6713|dock1
  -GOLD-   22720 7453D 1   1.00000     0.00000
 Structure written by MMmdl.
 47 48  0  0  0  0  0  0  0  0  1 V2000
  150.4465  144.5810  159.3910 C   0  0  0  0  0  0  0  0  0  0  0  0
  151.3560  143.3834  159.3350 C   0  0  0  0  0  0  0  0  0  0  0  0
  151.2862  142.6523  158.2718 N   0  0  0  0  0  0  0  0  0  0  0  0
  152.0661  141.5232  158.1202 N   0  0  0  0  0  0  0  0  0  0  0  0
  151.8022  140.7992  156.8668 C   0  0  0  0  0  0  0  0  0  0  0  0
  150.4586  140.0208  156.8484 C   0  0  2  0  0  0  0  0  0  0  0  0
  150.6790  138.7291  156.3159 O   0  0  0  0  0  0  0  0  0  0  0  0
  149.2930  140.7531  156.1899 C   0  0  0  0  0  0  0  0  0  0  0  0
  149.2875  140.9376  154.7911 C   0  0  0  0  0  0  0  0  0  0  0  0
  148.2069  141.5849  154.1623 C   0  0  0  0  0  0  0  0  0  0  0  0
  147.1207  142.0574  154.9275 C   0  0  0  0  0  0  0  0  0  0  0  0
  145.9520  142.7548  154.2524 C   0  0  0  0  0  0  0  0  0  0  0  0
  144.9343  143.3540  155.2450 C   0  0  0  0  0  0  0  0  0  0  0  0
  144.1357  142.2440  155.9445 C   0  0  0  0  0  0  0  0  0  0  0  0
  143.9898  144.3688  154.5783 C   0  0  0  0  0  0  0  0  0  0  0  0
  147.1229  141.8752  156.3257 C   0  0  0  0  0  0  0  0  0  0  0  0
  148.2037  141.2284  156.9542 C   0  0  0  0  0  0  0  0  0  0  0  0
  152.9815  141.0852  159.0335 C   0  0  0  0  0  0  0  0  0  0  0  0
  153.6656  140.0756  158.8596 O   0  0  0  0  0  0  0  0  0  0  0  0
  153.0553  141.9180  160.2360 C   0  0  0  0  0  0  0  0  0  0  0  0
  153.9857  141.4822  161.2267 C   0  0  0  0  0  0  0  0  0  0  0  0
  154.7549  141.1414  162.0219 N   0  0  0  0  0  0  0  0  0  0  0  0
  152.2859  143.0229  160.4000 C   0  0  0  0  0  0  0  0  0  0  0  0
  152.3242  143.9184  161.6307 C   0  0  0  0  0  0  0  0  0  0  0  0
  151.0242  145.5052  159.3750 H   0  0  0  0  0  0  0  0  0  0  0  0
  149.8463  144.5719  160.3010 H   0  0  0  0  0  0  0  0  0  0  0  0
  149.7571  144.6078  158.5455 H   0  0  0  0  0  0  0  0  0  0  0  0
  151.8686  141.4788  156.0149 H   0  0  0  0  0  0  0  0  0  0  0  0
  152.6070  140.0838  156.6911 H   0  0  0  0  0  0  0  0  0  0  0  0
  150.1753  139.8387  157.8860 H   0  0  0  0  0  0  0  0  0  0  0  0
  151.4506  138.3660  156.7232 H   0  0  0  0  0  0  0  0  0  0  0  0
  150.1093  140.5714  154.1932 H   0  0  0  0  0  0  0  0  0  0  0  0
  148.2150  141.7168  153.0903 H   0  0  0  0  0  0  0  0  0  0  0  0
  146.3282  143.5340  153.5877 H   0  0  0  0  0  0  0  0  0  0  0  0
  145.4549  142.0268  153.6097 H   0  0  0  0  0  0  0  0  0  0  0  0
  145.4917  143.8824  156.0200 H   0  0  0  0  0  0  0  0  0  0  0  0
  143.5518  141.6644  155.2286 H   0  0  0  0  0  0  0  0  0  0  0  0
  143.4443  142.6588  156.6785 H   0  0  0  0  0  0  0  0  0  0  0  0
  144.7971  141.5549  156.4707 H   0  0  0  0  0  0  0  0  0  0  0  0
  143.4236  143.9092  153.7676 H   0  0  0  0  0  0  0  0  0  0  0  0
  144.5380  145.2151  154.1639 H   0  0  0  0  0  0  0  0  0  0  0  0
  143.2751  144.7695  155.2976 H   0  0  0  0  0  0  0  0  0  0  0  0
  146.2935  142.2298  156.9198 H   0  0  0  0  0  0  0  0  0  0  0  0
  148.1842  141.0861  158.0248 H   0  0  0  0  0  0  0  0  0  0  0  0
  153.1187  143.6365  162.3210 H   0  0  0  0  0  0  0  0  0  0  0  0
  151.3795  143.8594  162.1721 H   0  0  0  0  0  0  0  0  0  0  0  0
  152.4950  144.9576  161.3475 H   0  0  0  0  0  0  0  0  0  0  0  0
  1  2  1  0  0  0  0
  1 25  1  0  0  0  0
  1 26  1  0  0  0  0
  1 27  1  0  0  0  0
  2 23  1  0  0  0  0
  2  3  2  0  0  0  0
  3  4  1  0  0  0  0
  4  5  1  0  0  0  0
  4 18  1  0  0  0  0
  5  6  1  0  0  0  0
  5 28  1  0  0  0  0
  5 29  1  0  0  0  0
  6  7  1  0  0  0  0
  6  8  1  0  0  0  0
  6 30  1  0  0  0  0
  7 31  1  0  0  0  0
  8 17  1  0  0  0  0
  8  9  2  0  0  0  0
  9 10  1  0  0  0  0
  9 32  1  0  0  0  0
 10 11  2  0  0  0  0
 10 33  1  0  0  0  0
 11 12  1  0  0  0  0
 11 16  1  0  0  0  0
 12 13  1  0  0  0  0
 12 34  1  0  0  0  0
 12 35  1  0  0  0  0
 13 14  1  0  0  0  0
 13 15  1  0  0  0  0
 13 36  1  0  0  0  0
 14 37  1  0  0  0  0
 14 38  1  0  0  0  0
 14 39  1  0  0  0  0
 15 40  1  0  0  0  0
 15 41  1  0  0  0  0
 15 42  1  0  0  0  0
 16 17  2  0  0  0  0
 16 43  1  0  0  0  0
 17 44  1  0  0  0  0
 18 19  2  0  0  0  0
 18 20  1  0  0  0  0
 20 21  1  0  0  0  0
 20 23  2  0  0  0  0
 21 22  3  0  0  0  0
 23 24  1  0  0  0  0
 24 45  1  0  0  0  0
 24 46  1  0  0  0  0
 24 47  1  0  0  0  0
M  END
> <s_m_source_file>
AV-unprocessed.smi

> <i_m_source_file_index>
1674

> <i_lp_mmshare_version>
43012

> <i_f3d_flags>
0

> <s_epik_input>
TiNDYyhjMVtDSDNdKWMoPU8pbihuYzFbQ0gzXSlbQ0gyXVtDQEhdKFtPSF0pYzJbY0hdW2NIXWMoW2NIXVtjSF0yKVtDSDJdW0NIXShbQ0gzXSlbQ0gzXQ==

> <s_epik_cmdline>
J2VwaWtfcHl0aG9uJywgJy1waCcsICc3LjAnLCAnLXRuJywgJzgnLCAnLW1hJywgJzIwMCcsICctbWV0YWxfYmluZGluZycsICctaW1hZScsICc8aW5maWxlLm1hZT4nLCAnLW9tYWUnLCAnPG91dGZpbGUubWFlPic=

> <r_lp_tautomer_probability>
1

> <r_epik_Ionization_Penalty>
4.60566e-08

> <r_epik_Ionization_Penalty_Charging>
1.40848e-10

> <r_epik_Ionization_Penalty_Neutral>
4.59158e-08

> <r_epik_State_Penalty>
-0

> <r_epik_Charging_Adjusted_Penalty>
1.40848e-10

> <i_epik_Tot_Q>
0

> <i_epik_Tot_abs_Q>
0

> <r_epik_Metal_State_Penalty>
-0

> <b_epik_Metal_Only>
0

> <s_lp_Force_Field>
OPLS_2005

> <r_lp_Energy>
29.2193

> <b_lp_Chiralities_Consistent>
1

> <s_lp_Variant>
AV-unprocessed.smi:1674-1

> <Gold.Version>
5.8.1

> <Gold.Id.Protein>
6NUR|6NUR_protein|mol2

> <Gold.PLP.Fitness>
49.8304

> <Gold.PLP.PLP>
-48.5124

> <Gold.PLP.part.hbond>
-2.0000

> <Gold.PLP.part.metal>
0.0000

> <Gold.PLP.part.buried>
-5.7558

> <Gold.PLP.part.nonpolar>
-39.8108

> <Gold.PLP.part.repulsive>
0.0372

> <Gold.PLP.ligand.clash>
0.0000

> <Gold.PLP.ligand.torsion>
0.9829

> <Gold.PLP.Chemscore.Hbond>
1.0000

> <Gold.PLP.Chemscore.CHOScore>
0.0000

> <Gold.PLP.Chemscore.Metal>
0.0000

> <Gold.Chemscore.Hbonds>
donor molecule, donor type, donor heavy atom, donor atom, acceptor molecule, acceptor atom, score
      P1  H  7997  8010       L1    19  0.98

> <Gold.PLP.Chemscore.Internal.Correction>
0.2837

> <Gold.Rescore>
     Score         DG    S(hbond)    S(metal)    S(lipo)     H(rot)  DE(clash)    DE(int)     intcor
     14.84     -15.91       0.90        0.00     109.97       2.13       0.15       0.92       ----

> <Gold.Chemscore.Fitness>
14.8404

> <Gold.Chemscore.DG>
-15.9144

> <Gold.Chemscore.ZeroCoef>
-5.4800

> <Gold.Chemscore.Hbond>
0.9043

> <Gold.Chemscore.Metal>
0.0000

> <Gold.Chemscore.Lipo>
109.9711

> <Gold.Chemscore.Internal_Hbond>
0.0000

> <Gold.Chemscore.DEClash>
0.1512

> <Gold.Chemscore.DEInternal>
0.9228

> <Gold.Chemscore.Rot>
2.1299

> <Gold.Chemscore.Internal.Correction>
   9.000000E+99

> <Gold.Chemscore.Hbonds>
donor molecule, donor type, donor heavy atom, donor atom, acceptor molecule, acceptor atom, score
      P1  H  7997  8010       L1    19  0.84

> <Gold.Chemscore.Hbond.Weighted>
-3.0204

> <Gold.Chemscore.Metal.Weighted>
-0.0000

> <Gold.Chemscore.Lipo.Weighted>
-12.8666

> <Gold.Chemscore.Internal_Hbond.Weighted>
0.0000

> <Gold.Chemscore.DEClash.Weighted>
0.1512

> <Gold.Chemscore.DEInternal.Weighted>
0.9228

> <Gold.Chemscore.Rot.Weighted>
5.4526

> <Gold.Chemscore.Internal.Correction.Weighted>
   9.000000E+99

> <Gold.Protein.RotatedTorsions>
[ 6907 6896 6895 6894 ] final  -72.79 input  -60.11 | X-H torsion
[ 7974 7965 7964 7962 ] final  -81.71 input  175.53 | X-H torsion
[ 8008 7997 7996 7995 ] final   13.41 input   59.86 | X-H torsion
[ 10167 10162 10161 10158 ] final  143.55 input  -65.29 | X-H torsion
[ 10718 10713 10712 10709 ] final   73.14 input   66.30 | X-H torsion
[ 10763 10752 10751 10750 ] final   67.28 input  -60.55 | X-H torsion
[ 11005 11000 10999 10996 ] final -160.10 input  -57.11 | X-H torsion

> <Gold.Protein.ActiveResidues>
 VAL166  LYS551  ARG553  GLY616  TRP617  ASP618  TYR619  PRO620  LYS621  CYS622 
 ASP623  PHE694  ASN695  SER759  ASP760  ASP761  ALA762  ILE779  LEU786  VAL792 
 PHE793  MET794  SER795  GLU796  ALA797  LYS798  CYS799  TRP800  GLU811  SER814 

> <Gold.Protein.RotatedAtoms>
  150.7156  134.5111  159.5607 H   0  0  0  0  0  0  0  0  0  0  0  0  # atno 6907 bound_to 6896
  152.2688  134.7953  160.0427 H   0  0  0  0  0  0  0  0  0  0  0  0  # atno 6908 bound_to 6896
  151.8640  133.3427  159.3750 H   0  0  0  0  0  0  0  0  0  0  0  0  # atno 6909 bound_to 6896
  145.5430  140.9507  143.1541 H   0  0  0  0  0  0  0  0  0  0  0  0  # atno 7974 bound_to 7965
  154.8341  140.2904  155.5702 H   0  0  0  0  0  0  0  0  0  0  0  0  # atno 8008 bound_to 7997
  156.3007  140.2526  156.3203 H   0  0  0  0  0  0  0  0  0  0  0  0  # atno 8009 bound_to 7997
  154.9198  140.0386  157.1981 H   0  0  0  0  0  0  0  0  0  0  0  0  # atno 8010 bound_to 7997
  139.4967  144.6032  151.6435 H   0  0  0  0  0  0  0  0  0  0  0  0  # atno 10167 bound_to 10162
  157.6534  130.9614  150.1027 H   0  0  0  0  0  0  0  0  0  0  0  0  # atno 10718 bound_to 10713
  153.0179  135.5290  154.6955 H   0  0  0  0  0  0  0  0  0  0  0  0  # atno 10763 bound_to 10752
  154.6078  135.2875  155.0468 H   0  0  0  0  0  0  0  0  0  0  0  0  # atno 10764 bound_to 10752
  154.1501  135.6564  153.5014 H   0  0  0  0  0  0  0  0  0  0  0  0  # atno 10765 bound_to 10752
  140.6352  134.4609  157.5231 H   0  0  0  0  0  0  0  0  0  0  0  0  # atno 11005 bound_to 11000
  144.7567  139.7056  143.7251 LP  0  0  0  0  0  0  0  0  0  0  0  0  # atno 17320 bound_to 7965
  146.1968  139.5240  142.9769 LP  0  0  0  0  0  0  0  0  0  0  0  0  # atno 17321 bound_to 7965
  140.5687  144.0145  150.6206 LP  0  0  0  0  0  0  0  0  0  0  0  0  # atno 17342 bound_to 10162
  140.3255  143.3110  152.0740 LP  0  0  0  0  0  0  0  0  0  0  0  0  # atno 17343 bound_to 10162
  156.1945  130.3656  149.8866 LP  0  0  0  0  0  0  0  0  0  0  0  0  # atno 17370 bound_to 10713
  156.6786  130.8849  151.3572 LP  0  0  0  0  0  0  0  0  0  0  0  0  # atno 17371 bound_to 10713
  139.9101  134.8364  156.1561 LP  0  0  0  0  0  0  0  0  0  0  0  0  # atno 17394 bound_to 11000
  141.0646  133.6825  156.2020 LP  0  0  0  0  0  0  0  0  0  0  0  0  # atno 17395 bound_to 11000

$$$$
