AV-unprocessed.smi:3198|AV-procd|sdf|12228|dock4
  -GOLD-   2272018 63D 1   1.00000     0.00000
 Structure written by MMmdl.
 38 39  0  0  0  0  0  0  0  0  2 V2000
  152.6801  141.8812  160.9029 C   0  0  0  0  0  0  0  0  0  0  0  0
  152.1978  142.9264  159.9198 C   0  0  0  0  0  0  0  0  0  0  0  0
  152.2764  144.3082  160.1898 C   0  0  0  0  0  0  0  0  0  0  0  0
  151.8062  145.2210  159.2253 C   0  0  0  0  0  0  0  0  0  0  0  0
  151.2724  144.7353  158.0143 C   0  0  0  0  0  0  0  0  0  0  0  0
  151.2261  143.3386  157.7842 C   0  0  0  0  0  0  0  0  0  0  0  0
  150.7414  142.7409  156.6112 N   0  0  0  0  0  0  0  0  0  0  0  0
  150.7365  141.2892  156.4719 C   0  0  0  0  0  0  0  0  0  0  0  0
  149.8199  140.8122  155.3343 C   0  0  0  0  0  0  0  0  0  0  0  0
  150.6045  140.1466  154.3617 O   0  0  0  0  0  0  0  0  0  0  0  0
  151.1867  138.9404  154.8221 C   0  0  0  0  0  0  0  0  0  0  0  0
  150.1904  137.7918  154.6097 C   0  0  1  0  0  0  0  0  0  0  0  0
  150.6546  136.4153  155.0945 C   0  0  0  0  0  0  0  0  0  0  0  0
  149.3632  135.7197  155.5059 C   0  0  0  0  0  0  0  0  0  0  0  0
  148.2821  136.7912  155.3446 C   0  0  0  0  0  0  0  0  0  0  0  0
  148.9927  138.0195  155.3356 O   0  0  0  0  0  0  0  0  0  0  0  0
  151.6815  142.5029  158.7445 N   0  3  0  0  0  0  0  0  0  0  0  0
  152.9299  142.3322  161.8638 H   0  0  0  0  0  0  0  0  0  0  0  0
  153.5693  141.3815  160.5180 H   0  0  0  0  0  0  0  0  0  0  0  0
  151.9076  141.1303  161.0714 H   0  0  0  0  0  0  0  0  0  0  0  0
  152.6902  144.6663  161.1213 H   0  0  0  0  0  0  0  0  0  0  0  0
  151.8570  146.2838  159.4105 H   0  0  0  0  0  0  0  0  0  0  0  0
  150.9169  145.4410  157.2791 H   0  0  0  0  0  0  0  0  0  0  0  0
  150.0445  143.2484  156.0855 H   0  0  0  0  0  0  0  0  0  0  0  0
  151.7602  140.9916  156.2436 H   0  0  0  0  0  0  0  0  0  0  0  0
  150.4871  140.7991  157.4125 H   0  0  0  0  0  0  0  0  0  0  0  0
  149.0393  140.1577  155.7255 H   0  0  0  0  0  0  0  0  0  0  0  0
  149.3282  141.6676  154.8695 H   0  0  0  0  0  0  0  0  0  0  0  0
  152.1076  138.7299  154.2761 H   0  0  0  0  0  0  0  0  0  0  0  0
  151.4431  139.0316  155.8785 H   0  0  0  0  0  0  0  0  0  0  0  0
  149.9326  137.7315  153.5505 H   0  0  0  0  0  0  0  0  0  0  0  0
  151.1964  135.8722  154.3197 H   0  0  0  0  0  0  0  0  0  0  0  0
  151.3114  136.4993  155.9610 H   0  0  0  0  0  0  0  0  0  0  0  0
  149.1498  134.8462  154.8892 H   0  0  0  0  0  0  0  0  0  0  0  0
  149.4287  135.3883  156.5427 H   0  0  0  0  0  0  0  0  0  0  0  0
  147.7620  136.6710  154.3927 H   0  0  0  0  0  0  0  0  0  0  0  0
  147.5407  136.7644  156.1433 H   0  0  0  0  0  0  0  0  0  0  0  0
  151.6419  141.4982  158.5720 H   0  0  0  0  0  0  0  0  0  0  0  0
  1  2  1  0  0  0  0
  1 18  1  0  0  0  0
  1 19  1  0  0  0  0
  1 20  1  0  0  0  0
  2 17  1  0  0  0  0
  2  3  2  0  0  0  0
  3  4  1  0  0  0  0
  3 21  1  0  0  0  0
  4  5  2  0  0  0  0
  4 22  1  0  0  0  0
  5  6  1  0  0  0  0
  5 23  1  0  0  0  0
  6  7  1  0  0  0  0
  6 17  2  0  0  0  0
  7  8  1  0  0  0  0
  7 24  1  0  0  0  0
  8  9  1  0  0  0  0
  8 25  1  0  0  0  0
  8 26  1  0  0  0  0
  9 10  1  0  0  0  0
  9 27  1  0  0  0  0
  9 28  1  0  0  0  0
 10 11  1  0  0  0  0
 11 12  1  0  0  0  0
 11 29  1  0  0  0  0
 11 30  1  0  0  0  0
 12 16  1  0  0  0  0
 12 13  1  0  0  0  0
 12 31  1  0  0  0  0
 13 14  1  0  0  0  0
 13 32  1  0  0  0  0
 13 33  1  0  0  0  0
 14 15  1  0  0  0  0
 14 34  1  0  0  0  0
 14 35  1  0  0  0  0
 15 16  1  0  0  0  0
 15 36  1  0  0  0  0
 15 37  1  0  0  0  0
 17 38  1  0  0  0  0
M  CHG  1  17   1
M  END
> <s_m_source_file>
AV-unprocessed.smi

> <i_m_source_file_index>
3198

> <i_lp_mmshare_version>
43012

> <i_f3d_flags>
0

> <s_epik_input>
W0NIM11jMVtjSF1bY0hdW2NIXWMobjEpW05IXVtDSDJdW0NIMl1PW0NIMl1bQ0BASF0yW0NIMl1bQ0gyXVtDSDJdTzI=

> <s_epik_cmdline>
J2VwaWtfcHl0aG9uJywgJy1waCcsICc3LjAnLCAnLXRuJywgJzgnLCAnLW1hJywgJzIwMCcsICctbWV0YWxfYmluZGluZycsICctaW1hZScsICc8aW5maWxlLm1hZT4nLCAnLW9tYWUnLCAnPG91dGZpbGUubWFlPic=

> <r_lp_tautomer_probability>
0.999994

> <r_epik_Ionization_Penalty>
0.0710016

> <r_epik_Ionization_Penalty_Charging>
0.0710012

> <r_epik_Ionization_Penalty_Neutral>
3.47026e-07

> <r_epik_State_Penalty>
0.0622974

> <r_epik_Charging_Adjusted_Penalty>
0.133299

> <i_epik_Tot_Q>
1

> <i_epik_Tot_abs_Q>
1

> <r_epik_Metal_State_Penalty>
2.79497

> <b_epik_Metal_Only>
0

> <s_lp_Force_Field>
OPLS_2005

> <r_lp_Energy>
24.0011

> <b_lp_Chiralities_Consistent>
1

> <s_lp_Variant>
AV-unprocessed.smi:3198-2

> <Gold.Version>
5.8.1

> <Gold.Id.Protein>
6NUR|6NUR_protein|mol2

> <Gold.PLP.Fitness>
46.6279

> <Gold.PLP.PLP>
-39.1360

> <Gold.PLP.part.hbond>
-1.8790

> <Gold.PLP.part.metal>
0.0000

> <Gold.PLP.part.buried>
-5.5436

> <Gold.PLP.part.nonpolar>
-32.6450

> <Gold.PLP.part.repulsive>
0.3122

> <Gold.PLP.ligand.clash>
0.2098

> <Gold.PLP.ligand.torsion>
0.6509

> <Gold.PLP.Chemscore.Hbond>
2.9913

> <Gold.PLP.Chemscore.CHOScore>
0.0000

> <Gold.PLP.Chemscore.Metal>
0.0000

> <Gold.Chemscore.Hbonds>
donor molecule, donor type, donor heavy atom, donor atom, acceptor molecule, acceptor atom, score
      L1  H     7    24       P1  8028  2.00
      P1  H  7989  7998       L1    10  0.98

> <Gold.PLP.Chemscore.Internal.Correction>
0.0298

> <Gold.Rescore>
     Score         DG    S(hbond)    S(metal)    S(lipo)     H(rot)  DE(clash)    DE(int)     intcor
     18.19     -19.13       1.83        0.00     101.81       1.71       0.13       0.81       ----

> <Gold.Chemscore.Fitness>
18.1908

> <Gold.Chemscore.DG>
-19.1331

> <Gold.Chemscore.ZeroCoef>
-5.4800

> <Gold.Chemscore.Hbond>
1.8291

> <Gold.Chemscore.Metal>
0.0000

> <Gold.Chemscore.Lipo>
101.8127

> <Gold.Chemscore.Internal_Hbond>
0.0000

> <Gold.Chemscore.DEClash>
0.1302

> <Gold.Chemscore.DEInternal>
0.8122

> <Gold.Chemscore.Rot>
1.7063

> <Gold.Chemscore.Internal.Correction>
   9.000000E+99

> <Gold.Chemscore.Hbonds>
donor molecule, donor type, donor heavy atom, donor atom, acceptor molecule, acceptor atom, score
      L1  H     7    24       P1  8028  0.98
      P1  H  7989  7998       L1    10  0.64

> <Gold.Chemscore.Hbond.Weighted>
-6.1092

> <Gold.Chemscore.Metal.Weighted>
-0.0000

> <Gold.Chemscore.Lipo.Weighted>
-11.9121

> <Gold.Chemscore.Internal_Hbond.Weighted>
0.0000

> <Gold.Chemscore.DEClash.Weighted>
0.1302

> <Gold.Chemscore.DEInternal.Weighted>
0.8122

> <Gold.Chemscore.Rot.Weighted>
4.3681

> <Gold.Chemscore.Internal.Correction.Weighted>
   9.000000E+99

> <Gold.Protein.RotatedTorsions>
[ 6907 6896 6895 6894 ] final  106.92 input  -60.11 | X-H torsion
[ 7974 7965 7964 7962 ] final  175.48 input  175.53 | X-H torsion
[ 8008 7997 7996 7995 ] final  -71.35 input   59.86 | X-H torsion
[ 10167 10162 10161 10158 ] final  -64.60 input  -65.29 | X-H torsion
[ 10718 10713 10712 10709 ] final  -23.49 input   66.30 | X-H torsion
[ 10763 10752 10751 10750 ] final   62.54 input  -60.55 | X-H torsion
[ 11005 11000 10999 10996 ] final  156.56 input  -57.11 | X-H torsion

> <Gold.Protein.ActiveResidues>
 VAL166  LYS551  ARG553  GLY616  TRP617  ASP618  TYR619  PRO620  LYS621  CYS622 
 ASP623  PHE694  ASN695  SER759  ASP760  ASP761  ALA762  ILE779  LEU786  VAL792 
 PHE793  MET794  SER795  GLU796  ALA797  LYS798  CYS799  TRP800  GLU811  SER814 

> <Gold.Protein.RotatedAtoms>
  152.5175  133.9310  159.7580 H   0  0  0  0  0  0  0  0  0  0  0  0  # atno 6907 bound_to 6896
  150.9660  133.6386  159.2753 H   0  0  0  0  0  0  0  0  0  0  0  0  # atno 6908 bound_to 6896
  151.3614  135.0910  159.9488 H   0  0  0  0  0  0  0  0  0  0  0  0  # atno 6909 bound_to 6896
  144.7201  139.9954  143.6440 H   0  0  0  0  0  0  0  0  0  0  0  0  # atno 7974 bound_to 7965
  154.5081  140.0817  156.7935 H   0  0  0  0  0  0  0  0  0  0  0  0  # atno 8008 bound_to 7997
  155.3847  140.3429  155.4230 H   0  0  0  0  0  0  0  0  0  0  0  0  # atno 8009 bound_to 7997
  156.1540  140.1567  156.8710 H   0  0  0  0  0  0  0  0  0  0  0  0  # atno 8010 bound_to 7997
  140.5789  143.2325  151.6383 H   0  0  0  0  0  0  0  0  0  0  0  0  # atno 10167 bound_to 10162
  156.4903  130.4565  149.6759 H   0  0  0  0  0  0  0  0  0  0  0  0  # atno 10718 bound_to 10713
  152.9986  135.5461  154.6209 H   0  0  0  0  0  0  0  0  0  0  0  0  # atno 10763 bound_to 10752
  154.5508  135.2826  155.1012 H   0  0  0  0  0  0  0  0  0  0  0  0  # atno 10764 bound_to 10752
  154.2253  135.6443  153.5210 H   0  0  0  0  0  0  0  0  0  0  0  0  # atno 10765 bound_to 10752
  140.1686  134.8559  157.2663 H   0  0  0  0  0  0  0  0  0  0  0  0  # atno 11005 bound_to 11000
  146.0378  139.3394  143.0716 LP  0  0  0  0  0  0  0  0  0  0  0  0  # atno 17320 bound_to 7965
  145.8372  140.9600  143.0818 LP  0  0  0  0  0  0  0  0  0  0  0  0  # atno 17321 bound_to 7965
  139.5158  144.3365  152.0779 LP  0  0  0  0  0  0  0  0  0  0  0  0  # atno 17342 bound_to 10162
  140.2513  144.4166  150.6221 LP  0  0  0  0  0  0  0  0  0  0  0  0  # atno 17343 bound_to 10162
  156.3433  130.7393  151.2342 LP  0  0  0  0  0  0  0  0  0  0  0  0  # atno 17370 bound_to 10713
  157.7474  131.0397  150.4565 LP  0  0  0  0  0  0  0  0  0  0  0  0  # atno 17371 bound_to 10713
  140.2404  134.3803  155.7483 LP  0  0  0  0  0  0  0  0  0  0  0  0  # atno 17394 bound_to 11000
  141.2215  133.7262  156.8780 LP  0  0  0  0  0  0  0  0  0  0  0  0  # atno 17395 bound_to 11000

$$$$
