AV-unprocessed.smi:107|AV-procd|sdf|1018|dock2
  -GOLD-   2262018 23D 1   1.00000     0.00000
 Structure written by MMmdl.
 31 32  0  0  0  0  0  0  0  0  1 V2000
  150.6975  144.5793  159.5058 C   0  0  0  0  0  0  0  0  0  0  0  0
  151.2556  143.2493  159.0273 C   0  0  0  0  0  0  0  0  0  0  0  0
  150.9643  142.7357  157.8049 C   0  0  0  0  0  0  0  0  0  0  0  0
  151.4578  141.5250  157.3392 N   0  0  0  0  0  0  0  0  0  0  0  0
  151.0911  141.0078  155.9666 C   0  0  1  0  0  0  0  0  0  0  0  0
  150.5238  139.5902  156.0525 C   0  0  0  0  0  0  0  0  0  0  0  0
  149.4249  139.6465  155.0123 C   0  0  1  0  0  0  0  0  0  0  0  0
  148.4253  138.6845  155.2798 O   0  0  0  0  0  0  0  0  0  0  0  0
  148.9133  141.0810  155.1656 C   0  0  2  0  0  0  0  0  0  0  0  0
  148.2161  141.6204  153.9076 C   0  0  0  0  0  0  0  0  0  0  0  0
  147.6796  142.9007  154.1635 O   0  0  0  0  0  0  0  0  0  0  0  0
  150.1021  141.8299  155.4184 O   0  0  0  0  0  0  0  0  0  0  0  0
  152.2992  140.7565  158.1706 C   0  0  0  0  0  0  0  0  0  0  0  0
  152.7555  139.6630  157.8392 O   0  0  0  0  0  0  0  0  0  0  0  0
  152.6014  141.2847  159.4248 N   0  0  0  0  0  0  0  0  0  0  0  0
  152.1357  142.5013  159.9293 C   0  0  0  0  0  0  0  0  0  0  0  0
  152.4735  142.8605  161.0560 O   0  0  0  0  0  0  0  0  0  0  0  0
  153.2060  140.7395  160.0218 H   0  0  0  0  0  0  0  0  0  0  0  0
  150.0733  145.0527  158.7475 H   0  0  0  0  0  0  0  0  0  0  0  0
  151.5076  145.2680  159.7481 H   0  0  0  0  0  0  0  0  0  0  0  0
  150.0888  144.4376  160.3996 H   0  0  0  0  0  0  0  0  0  0  0  0
  150.3079  143.3031  157.1628 H   0  0  0  0  0  0  0  0  0  0  0  0
  151.9708  141.0850  155.3260 H   0  0  0  0  0  0  0  0  0  0  0  0
  151.2906  138.8418  155.8500 H   0  0  0  0  0  0  0  0  0  0  0  0
  150.1096  139.4176  157.0476 H   0  0  0  0  0  0  0  0  0  0  0  0
  149.8436  139.4893  154.0170 H   0  0  0  0  0  0  0  0  0  0  0  0
  148.4911  137.9949  154.6368 H   0  0  0  0  0  0  0  0  0  0  0  0
  148.2560  141.1412  156.0353 H   0  0  0  0  0  0  0  0  0  0  0  0
  148.8999  141.6557  153.0589 H   0  0  0  0  0  0  0  0  0  0  0  0
  147.3869  140.9690  153.6294 H   0  0  0  0  0  0  0  0  0  0  0  0
  148.2596  143.3568  154.7540 H   0  0  0  0  0  0  0  0  0  0  0  0
  1  2  1  0  0  0  0
  1 19  1  0  0  0  0
  1 20  1  0  0  0  0
  1 21  1  0  0  0  0
  2 16  1  0  0  0  0
  2  3  2  0  0  0  0
  3  4  1  0  0  0  0
  3 22  1  0  0  0  0
  4  5  1  0  0  0  0
  4 13  1  0  0  0  0
  5 12  1  0  0  0  0
  5  6  1  0  0  0  0
  5 23  1  0  0  0  0
  6  7  1  0  0  0  0
  6 24  1  0  0  0  0
  6 25  1  0  0  0  0
  7  8  1  0  0  0  0
  7  9  1  0  0  0  0
  7 26  1  0  0  0  0
  8 27  1  0  0  0  0
  9 10  1  0  0  0  0
  9 12  1  0  0  0  0
  9 28  1  0  0  0  0
 10 11  1  0  0  0  0
 10 29  1  0  0  0  0
 10 30  1  0  0  0  0
 11 31  1  0  0  0  0
 13 14  2  0  0  0  0
 13 15  1  0  0  0  0
 15 18  1  0  0  0  0
 15 16  1  0  0  0  0
 16 17  2  0  0  0  0
M  END
> <s_m_source_file>
AV-unprocessed.smi

> <i_m_source_file_index>
107

> <i_lp_mmshare_version>
43012

> <i_f3d_flags>
0

> <s_epik_input>
Tz1jMVtuSF1jKD1PKW4oW2NIXWMxW0NIM10pW0NAQEhdMltDSDJdW0NAQEhdKFtPSF0pW0NASF0oTzIpW0NIMl1bT0hd

> <s_epik_cmdline>
J2VwaWtfcHl0aG9uJywgJy1waCcsICc3LjAnLCAnLXRuJywgJzgnLCAnLW1hJywgJzIwMCcsICctbWV0YWxfYmluZGluZycsICctaW1hZScsICc8aW5maWxlLm1hZT4nLCAnLW9tYWUnLCAnPG91dGZpbGUubWFlPic=

> <r_lp_tautomer_probability>
0.999537

> <r_epik_Ionization_Penalty>
0.00121888

> <r_epik_Ionization_Penalty_Charging>
0.00121876

> <r_epik_Ionization_Penalty_Neutral>
1.19946e-07

> <r_epik_State_Penalty>
0.000805124

> <r_epik_Charging_Adjusted_Penalty>
0.00202389

> <i_epik_Tot_Q>
0

> <i_epik_Tot_abs_Q>
0

> <r_epik_Metal_State_Penalty>
0.662472

> <b_epik_Metal_Only>
0

> <s_epik_Chemistry_Notes>
This compound contains an acetal/aminal-like group ( X-CH(R)-Y where X, Y are N, S, or O) that may be acid/base labile, releasing an aldehyde.

> <s_lp_Force_Field>
OPLS_2005

> <r_lp_Energy>
25.0544

> <b_lp_Chiralities_Consistent>
1

> <s_lp_Variant>
AV-unprocessed.smi:107-6

> <Gold.Version>
5.8.1

> <Gold.Id.Protein>
6NUR|6NUR_protein|mol2

> <Gold.PLP.Fitness>
38.5616

> <Gold.PLP.PLP>
-29.8325

> <Gold.PLP.part.hbond>
-4.7453

> <Gold.PLP.part.metal>
0.0000

> <Gold.PLP.part.buried>
-1.8332

> <Gold.PLP.part.nonpolar>
-22.6102

> <Gold.PLP.part.repulsive>
0.2637

> <Gold.PLP.ligand.clash>
0.0000

> <Gold.PLP.ligand.torsion>
0.1403

> <Gold.PLP.Chemscore.Hbond>
2.0000

> <Gold.PLP.Chemscore.CHOScore>
1.0000

> <Gold.PLP.Chemscore.Metal>
0.0000

> <Gold.Chemscore.Hbonds>
donor molecule, donor type, donor heavy atom, donor atom, acceptor molecule, acceptor atom, score
      L1  H    11    31       P1  8028  1.00
      P1  H  7997  8008       L1    14  0.93
      L1  C     3    22       P1  8028  1.00

> <Gold.PLP.Chemscore.Internal.Correction>
0.0098

> <Gold.Rescore>
     Score         DG    S(hbond)    S(metal)    S(lipo)     H(rot)  DE(clash)    DE(int)     intcor
      9.17     -10.79       1.77        0.00      54.56       2.73       0.17       1.44       ----

> <Gold.Chemscore.Fitness>
9.1724

> <Gold.Chemscore.DG>
-10.7895

> <Gold.Chemscore.ZeroCoef>
-5.4800

> <Gold.Chemscore.Hbond>
1.7674

> <Gold.Chemscore.Metal>
0.0000

> <Gold.Chemscore.Lipo>
54.5571

> <Gold.Chemscore.Internal_Hbond>
0.0000

> <Gold.Chemscore.DEClash>
0.1748

> <Gold.Chemscore.DEInternal>
1.4424

> <Gold.Chemscore.Rot>
2.7253

> <Gold.Chemscore.Internal.Correction>
   9.000000E+99

> <Gold.Chemscore.Hbonds>
donor molecule, donor type, donor heavy atom, donor atom, acceptor molecule, acceptor atom, score
      L1  H    11    31       P1  8028  0.96
      P1  H  7997  8008       L1    14  0.47

> <Gold.Chemscore.Hbond.Weighted>
-5.9032

> <Gold.Chemscore.Metal.Weighted>
-0.0000

> <Gold.Chemscore.Lipo.Weighted>
-6.3832

> <Gold.Chemscore.Internal_Hbond.Weighted>
0.0000

> <Gold.Chemscore.DEClash.Weighted>
0.1748

> <Gold.Chemscore.DEInternal.Weighted>
1.4424

> <Gold.Chemscore.Rot.Weighted>
6.9769

> <Gold.Chemscore.Internal.Correction.Weighted>
   9.000000E+99

> <Gold.Protein.RotatedTorsions>
[ 6907 6896 6895 6894 ] final -158.94 input  -60.11 | X-H torsion
[ 7974 7965 7964 7962 ] final -159.02 input  175.53 | X-H torsion
[ 8008 7997 7996 7995 ] final  -89.73 input   59.86 | X-H torsion
[ 10167 10162 10161 10158 ] final -144.82 input  -65.29 | X-H torsion
[ 10718 10713 10712 10709 ] final  -23.82 input   66.30 | X-H torsion
[ 10763 10752 10751 10750 ] final -173.35 input  -60.55 | X-H torsion
[ 11005 11000 10999 10996 ] final   54.10 input  -57.11 | X-H torsion

> <Gold.Protein.ActiveResidues>
 VAL166  LYS551  ARG553  GLY616  TRP617  ASP618  TYR619  PRO620  LYS621  CYS622 
 ASP623  PHE694  ASN695  SER759  ASP760  ASP761  ALA762  ILE779  LEU786  VAL792 
 PHE793  MET794  SER795  GLU796  ALA797  LYS798  CYS799  TRP800  GLU811  SER814 

> <Gold.Protein.RotatedAtoms>
  151.3259  133.4020  159.2658 H   0  0  0  0  0  0  0  0  0  0  0  0  # atno 6907 bound_to 6896
  150.9996  134.9312  159.7956 H   0  0  0  0  0  0  0  0  0  0  0  0  # atno 6908 bound_to 6896
  152.5271  134.3224  159.9205 H   0  0  0  0  0  0  0  0  0  0  0  0  # atno 6909 bound_to 6896
  144.7482  140.3744  143.6069 H   0  0  0  0  0  0  0  0  0  0  0  0  # atno 7974 bound_to 7965
  154.6901  140.0538  157.0354 H   0  0  0  0  0  0  0  0  0  0  0  0  # atno 8008 bound_to 7997
  155.0829  140.3211  155.4577 H   0  0  0  0  0  0  0  0  0  0  0  0  # atno 8009 bound_to 7997
  156.2725  140.2061  156.5957 H   0  0  0  0  0  0  0  0  0  0  0  0  # atno 8010 bound_to 7997
  139.7863  143.8030  152.2645 H   0  0  0  0  0  0  0  0  0  0  0  0  # atno 10167 bound_to 10162
  156.4859  130.4555  149.6784 H   0  0  0  0  0  0  0  0  0  0  0  0  # atno 10718 bound_to 10713
  154.6088  135.2862  155.0455 H   0  0  0  0  0  0  0  0  0  0  0  0  # atno 10763 bound_to 10752
  154.1692  135.6475  153.5009 H   0  0  0  0  0  0  0  0  0  0  0  0  # atno 10764 bound_to 10752
  153.0186  135.5397  154.6834 H   0  0  0  0  0  0  0  0  0  0  0  0  # atno 10765 bound_to 10752
  140.0713  134.5465  155.9043 H   0  0  0  0  0  0  0  0  0  0  0  0  # atno 11005 bound_to 11000
  145.7044  139.1669  143.2574 LP  0  0  0  0  0  0  0  0  0  0  0  0  # atno 17320 bound_to 7965
  146.1392  140.7080  142.9375 LP  0  0  0  0  0  0  0  0  0  0  0  0  # atno 17321 bound_to 7965
  139.8107  144.7337  150.9701 LP  0  0  0  0  0  0  0  0  0  0  0  0  # atno 17342 bound_to 10162
  140.7819  143.4253  151.0777 LP  0  0  0  0  0  0  0  0  0  0  0  0  # atno 17343 bound_to 10162
  156.3475  130.7414  151.2369 LP  0  0  0  0  0  0  0  0  0  0  0  0  # atno 17370 bound_to 10713
  157.7479  131.0386  150.4513 LP  0  0  0  0  0  0  0  0  0  0  0  0  # atno 17371 bound_to 10713
  141.2013  133.6617  156.5943 LP  0  0  0  0  0  0  0  0  0  0  0  0  # atno 17394 bound_to 11000
  140.3622  134.7677  157.4542 LP  0  0  0  0  0  0  0  0  0  0  0  0  # atno 17395 bound_to 11000

$$$$
