AV-unprocessed.smi:3028|AV-procd|sdf|11524|dock6
  -GOLD-   2272016463D 1   1.00000     0.00000
 Structure written by MMmdl.
 47 48  0  0  0  0  0  0  0  0  1 V2000
  143.6377  132.6316  148.1309 C   0  0  0  0  0  0  0  0  0  0  0  0
  144.3825  132.9747  149.3889 C   0  0  0  0  0  0  0  0  0  0  0  0
  145.5723  132.3763  149.8921 C   0  0  0  0  0  0  0  0  0  0  0  0
  145.9745  132.9121  151.0323 N   0  0  0  0  0  0  0  0  0  0  0  0
  145.0602  133.8719  151.2989 N   0  0  0  0  0  0  0  0  0  0  0  0
  145.1817  134.6906  152.4991 C   0  0  1  0  0  0  0  0  0  0  0  0
  146.4484  134.2919  153.2813 C   0  0  0  0  0  0  0  0  0  0  0  0
  145.1236  136.2075  152.1715 C   0  0  1  0  0  0  0  0  0  0  0  0
  144.5130  137.0562  153.3022 C   0  0  0  0  0  0  0  0  0  0  0  0
  146.4757  136.7114  151.9476 N   0  0  0  0  0  0  0  0  0  0  0  0
  146.5027  138.1730  151.8040 C   0  0  0  0  0  0  0  0  0  0  0  0
  147.1404  138.8858  153.0064 C   0  0  0  0  0  0  0  0  0  0  0  0
  146.5116  139.7432  153.6260 O   0  0  0  0  0  0  0  0  0  0  0  0
  148.3884  138.5511  153.3762 N   0  0  0  0  0  0  0  0  0  0  0  0
  149.1689  139.1041  154.4815 C   0  0  0  0  0  0  0  0  0  0  0  0
  149.1933  140.6369  154.3850 C   0  0  0  0  0  0  0  0  0  0  0  0
  150.1292  141.2324  155.4499 C   0  0  0  0  0  0  0  0  0  0  0  0
  151.4365  140.6863  155.3100 O   0  0  0  0  0  0  0  0  0  0  0  0
  151.4738  139.2770  155.5083 C   0  0  0  0  0  0  0  0  0  0  0  0
  150.6120  138.5726  154.4480 C   0  0  0  0  0  0  0  0  0  0  0  0
  144.0880  133.9286  150.3217 C   0  0  0  0  0  0  0  0  0  0  0  0
  144.0589  131.7561  147.6364 H   0  0  0  0  0  0  0  0  0  0  0  0
  143.6651  133.4506  147.4121 H   0  0  0  0  0  0  0  0  0  0  0  0
  142.5886  132.4130  148.3313 H   0  0  0  0  0  0  0  0  0  0  0  0
  146.1523  131.5716  149.4645 H   0  0  0  0  0  0  0  0  0  0  0  0
  144.3212  134.4480  153.1253 H   0  0  0  0  0  0  0  0  0  0  0  0
  146.4878  134.7824  154.2539 H   0  0  0  0  0  0  0  0  0  0  0  0
  147.3556  134.5589  152.7382 H   0  0  0  0  0  0  0  0  0  0  0  0
  146.4737  133.2168  153.4627 H   0  0  0  0  0  0  0  0  0  0  0  0
  144.5025  136.3547  151.2855 H   0  0  0  0  0  0  0  0  0  0  0  0
  143.4680  136.8008  153.4785 H   0  0  0  0  0  0  0  0  0  0  0  0
  144.5429  138.1183  153.0559 H   0  0  0  0  0  0  0  0  0  0  0  0
  145.0516  136.9171  154.2404 H   0  0  0  0  0  0  0  0  0  0  0  0
  146.8752  136.2528  151.1412 H   0  0  0  0  0  0  0  0  0  0  0  0
  147.0635  138.4398  150.9073 H   0  0  0  0  0  0  0  0  0  0  0  0
  145.4815  138.5323  151.6746 H   0  0  0  0  0  0  0  0  0  0  0  0
  148.8439  137.8333  152.8313 H   0  0  0  0  0  0  0  0  0  0  0  0
  148.7137  138.8419  155.4376 H   0  0  0  0  0  0  0  0  0  0  0  0
  149.5372  140.9428  153.3956 H   0  0  0  0  0  0  0  0  0  0  0  0
  148.1870  141.0399  154.5049 H   0  0  0  0  0  0  0  0  0  0  0  0
  150.1861  142.3150  155.3352 H   0  0  0  0  0  0  0  0  0  0  0  0
  149.7488  141.0389  156.4540 H   0  0  0  0  0  0  0  0  0  0  0  0
  152.5076  138.9386  155.4351 H   0  0  0  0  0  0  0  0  0  0  0  0
  151.1293  139.0313  156.5141 H   0  0  0  0  0  0  0  0  0  0  0  0
  150.6304  137.4951  154.6119 H   0  0  0  0  0  0  0  0  0  0  0  0
  151.0477  138.7441  153.4625 H   0  0  0  0  0  0  0  0  0  0  0  0
  143.2746  134.6376  150.3696 H   0  0  0  0  0  0  0  0  0  0  0  0
  1  2  1  0  0  0  0
  1 22  1  0  0  0  0
  1 23  1  0  0  0  0
  1 24  1  0  0  0  0
  2 21  2  0  0  0  0
  2  3  1  0  0  0  0
  3  4  2  0  0  0  0
  3 25  1  0  0  0  0
  4  5  1  0  0  0  0
  5  6  1  0  0  0  0
  5 21  1  0  0  0  0
  6  7  1  0  0  0  0
  6  8  1  0  0  0  0
  6 26  1  0  0  0  0
  7 27  1  0  0  0  0
  7 28  1  0  0  0  0
  7 29  1  0  0  0  0
  8  9  1  0  0  0  0
  8 10  1  0  0  0  0
  8 30  1  0  0  0  0
  9 31  1  0  0  0  0
  9 32  1  0  0  0  0
  9 33  1  0  0  0  0
 10 11  1  0  0  0  0
 10 34  1  0  0  0  0
 11 12  1  0  0  0  0
 11 35  1  0  0  0  0
 11 36  1  0  0  0  0
 12 13  2  0  0  0  0
 12 14  1  0  0  0  0
 14 15  1  0  0  0  0
 14 37  1  0  0  0  0
 15 20  1  0  0  0  0
 15 16  1  0  0  0  0
 15 38  1  0  0  0  0
 16 17  1  0  0  0  0
 16 39  1  0  0  0  0
 16 40  1  0  0  0  0
 17 18  1  0  0  0  0
 17 41  1  0  0  0  0
 17 42  1  0  0  0  0
 18 19  1  0  0  0  0
 19 20  1  0  0  0  0
 19 43  1  0  0  0  0
 19 44  1  0  0  0  0
 20 45  1  0  0  0  0
 20 46  1  0  0  0  0
 21 47  1  0  0  0  0
M  END
> <s_m_source_file>
AV-unprocessed.smi

> <i_m_source_file_index>
3028

> <i_lp_mmshare_version>
43012

> <i_f3d_flags>
0

> <s_epik_input>
W0NIM11jMVtjSF1ubihbY0hdMSlbQ0BIXShbQ0gzXSlbQ0BIXShbQ0gzXSlbTkhdW0NIMl1DKD1PKVtOSF1bQ0hdMltDSDJdW0NIMl1PW0NIMl1bQ0gyXTI=

> <s_epik_cmdline>
J2VwaWtfcHl0aG9uJywgJy1waCcsICc3LjAnLCAnLXRuJywgJzgnLCAnLW1hJywgJzIwMCcsICctbWV0YWxfYmluZGluZycsICctaW1hZScsICc8aW5maWxlLm1hZT4nLCAnLW9tYWUnLCAnPG91dGZpbGUubWFlPic=

> <r_lp_tautomer_probability>
1

> <r_epik_Ionization_Penalty>
0.88617

> <r_epik_Ionization_Penalty_Charging>
0

> <r_epik_Ionization_Penalty_Neutral>
0.88617

> <r_epik_State_Penalty>
0.921066

> <r_epik_Charging_Adjusted_Penalty>
0.921066

> <i_epik_Tot_Q>
0

> <i_epik_Tot_abs_Q>
0

> <r_epik_Metal_State_Penalty>
0.917309

> <b_epik_Metal_Only>
0

> <s_lp_Force_Field>
OPLS_2005

> <r_lp_Energy>
18.7055

> <b_lp_Chiralities_Consistent>
1

> <s_lp_Variant>
AV-unprocessed.smi:3028-8

> <Gold.Version>
5.8.1

> <Gold.Id.Protein>
6NUR|6NUR_protein|mol2

> <Gold.PLP.Fitness>
46.3535

> <Gold.PLP.PLP>
-41.0559

> <Gold.PLP.part.hbond>
-3.8736

> <Gold.PLP.part.metal>
0.0000

> <Gold.PLP.part.buried>
-0.8747

> <Gold.PLP.part.nonpolar>
-36.7415

> <Gold.PLP.part.repulsive>
0.4133

> <Gold.PLP.ligand.clash>
0.7385

> <Gold.PLP.ligand.torsion>
1.2098

> <Gold.PLP.Chemscore.Hbond>
1.7680

> <Gold.PLP.Chemscore.CHOScore>
1.0000

> <Gold.PLP.Chemscore.Metal>
0.0000

> <Gold.Chemscore.Hbonds>
donor molecule, donor type, donor heavy atom, donor atom, acceptor molecule, acceptor atom, score
      L1  H    14    37       P1  7948  1.00
      P1  H  7989  7998       L1    18  0.73
      L1  C    21    47       P1 10186  1.00

> <Gold.PLP.Chemscore.Internal.Correction>
0.1518

> <Gold.Rescore>
     Score         DG    S(hbond)    S(metal)    S(lipo)     H(rot)  DE(clash)    DE(int)     intcor
     13.79     -16.43       1.11        0.00     103.92       1.92       0.31       2.33       ----

> <Gold.Chemscore.Fitness>
13.7939

> <Gold.Chemscore.DG>
-16.4320

> <Gold.Chemscore.ZeroCoef>
-5.4800

> <Gold.Chemscore.Hbond>
1.1129

> <Gold.Chemscore.Metal>
0.0000

> <Gold.Chemscore.Lipo>
103.9196

> <Gold.Chemscore.Internal_Hbond>
0.0000

> <Gold.Chemscore.DEClash>
0.3121

> <Gold.Chemscore.DEInternal>
2.3259

> <Gold.Chemscore.Rot>
1.9233

> <Gold.Chemscore.Internal.Correction>
   9.000000E+99

> <Gold.Chemscore.Hbonds>
donor molecule, donor type, donor heavy atom, donor atom, acceptor molecule, acceptor atom, score
      L1  H    10    34       P1  7948  0.03
      L1  H    14    37       P1  7948  0.99
      P1  H  7989  7998       L1    18  0.07

> <Gold.Chemscore.Hbond.Weighted>
-3.7169

> <Gold.Chemscore.Metal.Weighted>
-0.0000

> <Gold.Chemscore.Lipo.Weighted>
-12.1586

> <Gold.Chemscore.Internal_Hbond.Weighted>
0.0000

> <Gold.Chemscore.DEClash.Weighted>
0.3121

> <Gold.Chemscore.DEInternal.Weighted>
2.3259

> <Gold.Chemscore.Rot.Weighted>
4.9235

> <Gold.Chemscore.Internal.Correction.Weighted>
   9.000000E+99

> <Gold.Protein.RotatedTorsions>
[ 6907 6896 6895 6894 ] final -131.78 input  -60.11 | X-H torsion
[ 7974 7965 7964 7962 ] final  -24.95 input  175.53 | X-H torsion
[ 8008 7997 7996 7995 ] final   18.28 input   59.86 | X-H torsion
[ 10167 10162 10161 10158 ] final  122.91 input  -65.29 | X-H torsion
[ 10718 10713 10712 10709 ] final  -97.96 input   66.30 | X-H torsion
[ 10763 10752 10751 10750 ] final   -6.45 input  -60.55 | X-H torsion
[ 11005 11000 10999 10996 ] final   -3.31 input  -57.11 | X-H torsion

> <Gold.Protein.ActiveResidues>
 VAL166  LYS551  ARG553  GLY616  TRP617  ASP618  TYR619  PRO620  LYS621  CYS622 
 ASP623  PHE694  ASN695  SER759  ASP760  ASP761  ALA762  ILE779  LEU786  VAL792 
 PHE793  MET794  SER795  GLU796  ALA797  LYS798  CYS799  TRP800  GLU811  SER814 

> <Gold.Protein.RotatedAtoms>
  150.9548  133.6509  159.2764 H   0  0  0  0  0  0  0  0  0  0  0  0  # atno 6907 bound_to 6896
  151.3852  135.0945  159.9518 H   0  0  0  0  0  0  0  0  0  0  0  0  # atno 6908 bound_to 6896
  152.5124  133.9074  159.7526 H   0  0  0  0  0  0  0  0  0  0  0  0  # atno 6909 bound_to 6896
  146.1522  140.4820  142.8606 H   0  0  0  0  0  0  0  0  0  0  0  0  # atno 7974 bound_to 7965
  154.9038  140.3004  155.5303 H   0  0  0  0  0  0  0  0  0  0  0  0  # atno 8008 bound_to 7997
  156.3017  140.2402  156.4004 H   0  0  0  0  0  0  0  0  0  0  0  0  # atno 8009 bound_to 7997
  154.8495  140.0410  157.1583 H   0  0  0  0  0  0  0  0  0  0  0  0  # atno 8010 bound_to 7997
  139.5830  144.6994  151.3479 H   0  0  0  0  0  0  0  0  0  0  0  0  # atno 10167 bound_to 10162
  156.0096  130.5217  150.6452 H   0  0  0  0  0  0  0  0  0  0  0  0  # atno 10718 bound_to 10713
  153.4126  135.7008  153.6349 H   0  0  0  0  0  0  0  0  0  0  0  0  # atno 10763 bound_to 10752
  153.4837  135.3688  155.2456 H   0  0  0  0  0  0  0  0  0  0  0  0  # atno 10764 bound_to 10752
  154.8718  135.4072  154.3480 H   0  0  0  0  0  0  0  0  0  0  0  0  # atno 10765 bound_to 10752
  140.6679  133.9262  155.8476 H   0  0  0  0  0  0  0  0  0  0  0  0  # atno 11005 bound_to 11000
  144.7919  140.6048  143.6536 LP  0  0  0  0  0  0  0  0  0  0  0  0  # atno 17320 bound_to 7965
  145.4794  139.1496  143.3770 LP  0  0  0  0  0  0  0  0  0  0  0  0  # atno 17321 bound_to 7965
  140.7106  143.7400  150.7560 LP  0  0  0  0  0  0  0  0  0  0  0  0  # atno 17342 bound_to 10162
  140.0938  143.4853  152.2464 LP  0  0  0  0  0  0  0  0  0  0  0  0  # atno 17343 bound_to 10162
  157.4224  131.0838  151.1118 LP  0  0  0  0  0  0  0  0  0  0  0  0  # atno 17370 bound_to 10713
  157.1716  130.6270  149.5642 LP  0  0  0  0  0  0  0  0  0  0  0  0  # atno 17371 bound_to 10713
  141.0415  134.0615  157.3896 LP  0  0  0  0  0  0  0  0  0  0  0  0  # atno 17394 bound_to 11000
  139.8991  135.0157  156.7180 LP  0  0  0  0  0  0  0  0  0  0  0  0  # atno 17395 bound_to 11000

$$$$
