AV-unprocessed.smi:2762|AV-procd|sdf|10636|dock10
  -GOLD-   2272015 83D 1   1.00000     0.00000
 Structure written by MMmdl.
 39 40  0  0  0  0  0  0  0  0  1 V2000
  153.0720  138.8802  156.8548 O   0  0  0  0  0  0  0  0  0  0  0  0
  152.1140  139.5725  156.5092 C   0  0  0  0  0  0  0  0  0  0  0  0
  151.3469  139.2980  155.4439 N   0  0  0  0  0  0  0  0  0  0  0  0
  151.4928  138.1334  154.5760 C   0  0  0  0  0  0  0  0  0  0  0  0
  150.1419  137.4286  154.3420 C   0  0  0  0  0  0  0  0  0  0  0  0
  149.7736  136.4223  155.3379 N   0  0  0  0  0  0  0  0  0  0  0  0
  149.6676  136.9760  156.6863 C   0  0  0  0  0  0  0  0  0  0  0  0
  149.2864  135.8990  157.7164 C   0  0  0  0  0  0  0  0  0  0  0  0
  150.2383  134.8405  157.6765 O   0  0  0  0  0  0  0  0  0  0  0  0
  150.3430  134.2459  156.3869 C   0  0  0  0  0  0  0  0  0  0  0  0
  150.7274  135.3194  155.3541 C   0  0  0  0  0  0  0  0  0  0  0  0
  151.6959  140.6871  157.1343 N   0  0  0  0  0  0  0  0  0  0  0  0
  152.2015  141.2646  158.3295 C   0  0  0  0  0  0  0  0  0  0  0  0
  151.7179  142.5605  158.6183 C   0  0  0  0  0  0  0  0  0  0  0  0
  152.1500  143.2235  159.7880 C   0  0  0  0  0  0  0  0  0  0  0  0
  151.6607  144.6210  160.1345 C   0  0  0  0  0  0  0  0  0  0  0  0
  152.0996  145.4974  159.2307 F   0  0  0  0  0  0  0  0  0  0  0  0
  150.3282  144.6327  160.1326 F   0  0  0  0  0  0  0  0  0  0  0  0
  152.0904  145.0074  161.3364 F   0  0  0  0  0  0  0  0  0  0  0  0
  153.0659  142.5623  160.6304 C   0  0  0  0  0  0  0  0  0  0  0  0
  153.4974  141.2735  160.2689 C   0  0  0  0  0  0  0  0  0  0  0  0
  153.0789  140.6408  159.1538 N   0  0  0  0  0  0  0  0  0  0  0  0
  150.5845  139.9251  155.2340 H   0  0  0  0  0  0  0  0  0  0  0  0
  151.8718  138.4920  153.6188 H   0  0  0  0  0  0  0  0  0  0  0  0
  152.2517  137.4468  154.9527 H   0  0  0  0  0  0  0  0  0  0  0  0
  149.3690  138.1978  154.3096 H   0  0  0  0  0  0  0  0  0  0  0  0
  150.1442  136.9716  153.3513 H   0  0  0  0  0  0  0  0  0  0  0  0
  150.6155  137.4325  156.9750 H   0  0  0  0  0  0  0  0  0  0  0  0
  148.9196  137.7666  156.7170 H   0  0  0  0  0  0  0  0  0  0  0  0
  149.2666  136.3239  158.7201 H   0  0  0  0  0  0  0  0  0  0  0  0
  148.2879  135.5085  157.5137 H   0  0  0  0  0  0  0  0  0  0  0  0
  151.0976  133.4599  156.4165 H   0  0  0  0  0  0  0  0  0  0  0  0
  149.3969  133.7732  156.1187 H   0  0  0  0  0  0  0  0  0  0  0  0
  150.7822  134.8628  154.3653 H   0  0  0  0  0  0  0  0  0  0  0  0
  151.7261  135.6965  155.5796 H   0  0  0  0  0  0  0  0  0  0  0  0
  150.9076  141.1630  156.7218 H   0  0  0  0  0  0  0  0  0  0  0  0
  151.0217  143.0404  157.9460 H   0  0  0  0  0  0  0  0  0  0  0  0
  153.4304  143.0309  161.5325 H   0  0  0  0  0  0  0  0  0  0  0  0
  154.1976  140.7361  160.8912 H   0  0  0  0  0  0  0  0  0  0  0  0
  1  2  2  0  0  0  0
  2  3  1  0  0  0  0
  2 12  1  0  0  0  0
  3  4  1  0  0  0  0
  3 23  1  0  0  0  0
  4  5  1  0  0  0  0
  4 24  1  0  0  0  0
  4 25  1  0  0  0  0
  5  6  1  0  0  0  0
  5 26  1  0  0  0  0
  5 27  1  0  0  0  0
  6 11  1  0  0  0  0
  6  7  1  0  0  0  0
  7  8  1  0  0  0  0
  7 28  1  0  0  0  0
  7 29  1  0  0  0  0
  8  9  1  0  0  0  0
  8 30  1  0  0  0  0
  8 31  1  0  0  0  0
  9 10  1  0  0  0  0
 10 11  1  0  0  0  0
 10 32  1  0  0  0  0
 10 33  1  0  0  0  0
 11 34  1  0  0  0  0
 11 35  1  0  0  0  0
 12 13  1  0  0  0  0
 12 36  1  0  0  0  0
 13 22  1  0  0  0  0
 13 14  2  0  0  0  0
 14 15  1  0  0  0  0
 14 37  1  0  0  0  0
 15 16  1  0  0  0  0
 15 20  2  0  0  0  0
 16 17  1  0  0  0  0
 16 18  1  0  0  0  0
 16 19  1  0  0  0  0
 20 21  1  0  0  0  0
 20 38  1  0  0  0  0
 21 22  2  0  0  0  0
 21 39  1  0  0  0  0
M  END
> <s_m_source_file>
AV-unprocessed.smi

> <i_m_source_file_index>
2762

> <i_lp_mmshare_version>
43012

> <i_f3d_flags>
0

> <s_epik_input>
bjFbY0hdW2NIXWMoQyhGKShGKUYpW2NIXWMxW05IXUMoPU8pW05IXVtDSDJdW0NIMl1OMltDSDJdW0NIMl1PW0NIMl1bQ0gyXTI=

> <s_epik_cmdline>
J2VwaWtfcHl0aG9uJywgJy1waCcsICc3LjAnLCAnLXRuJywgJzgnLCAnLW1hJywgJzIwMCcsICctbWV0YWxfYmluZGluZycsICctaW1hZScsICc8aW5maWxlLm1hZT4nLCAnLW9tYWUnLCAnPG91dGZpbGUubWFlPic=

> <r_epik_Ionization_Penalty>
0.266026

> <r_epik_Ionization_Penalty_Charging>
0

> <r_epik_Ionization_Penalty_Neutral>
0.266026

> <r_epik_State_Penalty>
0.257924

> <r_epik_Charging_Adjusted_Penalty>
0.257924

> <i_epik_Tot_Q>
0

> <i_epik_Tot_abs_Q>
0

> <r_epik_Metal_State_Penalty>
0.257924

> <b_epik_Metal_Only>
0

> <s_lp_Force_Field>
OPLS_2005

> <r_lp_Energy>
26.9092

> <b_lp_Chiralities_Consistent>
1

> <s_lp_Variant>
AV-unprocessed.smi:2762-1

> <Gold.Version>
5.8.1

> <Gold.Id.Protein>
6NUR|6NUR_protein|mol2

> <Gold.PLP.Fitness>
42.6550

> <Gold.PLP.PLP>
-38.9858

> <Gold.PLP.part.hbond>
-2.0000

> <Gold.PLP.part.metal>
0.0000

> <Gold.PLP.part.buried>
-2.3380

> <Gold.PLP.part.nonpolar>
-35.0909

> <Gold.PLP.part.repulsive>
0.3448

> <Gold.PLP.ligand.clash>
0.8864

> <Gold.PLP.ligand.torsion>
0.3673

> <Gold.PLP.Chemscore.Hbond>
1.7360

> <Gold.PLP.Chemscore.CHOScore>
0.0000

> <Gold.PLP.Chemscore.Metal>
0.0000

> <Gold.Chemscore.Hbonds>
donor molecule, donor type, donor heavy atom, donor atom, acceptor molecule, acceptor atom, score
      P1  H  6896  6907       L1     9  0.72
      P1  H  7997  8009       L1     1  1.00

> <Gold.PLP.Chemscore.Internal.Correction>
0.0822

> <Gold.Rescore>
     Score         DG    S(hbond)    S(metal)    S(lipo)     H(rot)  DE(clash)    DE(int)     intcor
     14.10     -16.43       1.78        0.00      78.29       1.63       0.76       1.57       ----

> <Gold.Chemscore.Fitness>
14.1026

> <Gold.Chemscore.DG>
-16.4288

> <Gold.Chemscore.ZeroCoef>
-5.4800

> <Gold.Chemscore.Hbond>
1.7824

> <Gold.Chemscore.Metal>
0.0000

> <Gold.Chemscore.Lipo>
78.2858

> <Gold.Chemscore.Internal_Hbond>
0.0000

> <Gold.Chemscore.DEClash>
0.7605

> <Gold.Chemscore.DEInternal>
1.5658

> <Gold.Chemscore.Rot>
1.6265

> <Gold.Chemscore.Internal.Correction>
   9.000000E+99

> <Gold.Chemscore.Hbonds>
donor molecule, donor type, donor heavy atom, donor atom, acceptor molecule, acceptor atom, score
      P1  H  6896  6907       L1     9  0.59
      P1  H  7997  8009       L1     1  0.26

> <Gold.Chemscore.Hbond.Weighted>
-5.9532

> <Gold.Chemscore.Metal.Weighted>
-0.0000

> <Gold.Chemscore.Lipo.Weighted>
-9.1594

> <Gold.Chemscore.Internal_Hbond.Weighted>
0.0000

> <Gold.Chemscore.DEClash.Weighted>
0.7605

> <Gold.Chemscore.DEInternal.Weighted>
1.5658

> <Gold.Chemscore.Rot.Weighted>
4.1638

> <Gold.Chemscore.Internal.Correction.Weighted>
   9.000000E+99

> <Gold.Protein.RotatedTorsions>
[ 6907 6896 6895 6894 ] final  -92.26 input  -60.11 | X-H torsion
[ 7974 7965 7964 7962 ] final   83.37 input  175.53 | X-H torsion
[ 8008 7997 7996 7995 ] final  177.79 input   59.86 | X-H torsion
[ 10167 10162 10161 10158 ] final    3.35 input  -65.29 | X-H torsion
[ 10718 10713 10712 10709 ] final   63.30 input   66.30 | X-H torsion
[ 10763 10752 10751 10750 ] final  -48.33 input  -60.55 | X-H torsion
[ 11005 11000 10999 10996 ] final -111.71 input  -57.11 | X-H torsion

> <Gold.Protein.ActiveResidues>
 VAL166  LYS551  ARG553  GLY616  TRP617  ASP618  TYR619  PRO620  LYS621  CYS622 
 ASP623  PHE694  ASN695  SER759  ASP760  ASP761  ALA762  ILE779  LEU786  VAL792 
 PHE793  MET794  SER795  GLU796  ALA797  LYS798  CYS799  TRP800  GLU811  SER814 

> <Gold.Protein.RotatedAtoms>
  150.6903  134.2149  159.4373 H   0  0  0  0  0  0  0  0  0  0  0  0  # atno 6907 bound_to 6896
  152.0109  134.9874  160.0577 H   0  0  0  0  0  0  0  0  0  0  0  0  # atno 6908 bound_to 6896
  152.1489  133.4475  159.4841 H   0  0  0  0  0  0  0  0  0  0  0  0  # atno 6909 bound_to 6896
  145.6128  139.2371  143.2182 H   0  0  0  0  0  0  0  0  0  0  0  0  # atno 7974 bound_to 7965
  156.0618  140.1349  156.9932 H   0  0  0  0  0  0  0  0  0  0  0  0  # atno 8008 bound_to 7997
  154.4485  140.0990  156.6599 H   0  0  0  0  0  0  0  0  0  0  0  0  # atno 8009 bound_to 7997
  155.5366  140.3460  155.4440 H   0  0  0  0  0  0  0  0  0  0  0  0  # atno 8010 bound_to 7997
  140.6590  143.7353  150.7705 H   0  0  0  0  0  0  0  0  0  0  0  0  # atno 10167 bound_to 10162
  157.5962  130.9098  149.9698 H   0  0  0  0  0  0  0  0  0  0  0  0  # atno 10718 bound_to 10713
  154.0759  135.6598  153.4831 H   0  0  0  0  0  0  0  0  0  0  0  0  # atno 10763 bound_to 10752
  153.0373  135.5168  154.7521 H   0  0  0  0  0  0  0  0  0  0  0  0  # atno 10764 bound_to 10752
  154.6601  135.3014  154.9845 H   0  0  0  0  0  0  0  0  0  0  0  0  # atno 10765 bound_to 10752
  141.0718  133.9367  157.2469 H   0  0  0  0  0  0  0  0  0  0  0  0  # atno 11005 bound_to 11000
  146.1491  140.6950  142.9330 LP  0  0  0  0  0  0  0  0  0  0  0  0  # atno 17320 bound_to 7965
  144.7263  140.4534  143.6971 LP  0  0  0  0  0  0  0  0  0  0  0  0  # atno 17321 bound_to 7965
  140.1018  143.4781  152.2421 LP  0  0  0  0  0  0  0  0  0  0  0  0  # atno 17342 bound_to 10162
  139.5819  144.7514  151.3618 LP  0  0  0  0  0  0  0  0  0  0  0  0  # atno 17343 bound_to 10162
  156.1025  130.3655  150.0193 LP  0  0  0  0  0  0  0  0  0  0  0  0  # atno 17370 bound_to 10713
  156.8306  130.9391  151.3637 LP  0  0  0  0  0  0  0  0  0  0  0  0  # atno 17371 bound_to 10713
  139.9531  135.0171  156.9051 LP  0  0  0  0  0  0  0  0  0  0  0  0  # atno 17394 bound_to 11000
  140.5657  134.0492  155.7413 LP  0  0  0  0  0  0  0  0  0  0  0  0  # atno 17395 bound_to 11000

$$$$
