AV-unprocessed.smi:1100|AV-procd|sdf|4762|dock9
  -GOLD-   22720 3303D 1   1.00000     0.00000
 Structure written by MMmdl.
 44 45  0  0  0  0  0  0  0  0  2 V2000
  146.4956  142.2998  154.8455 C   0  0  0  0  0  0  0  0  0  0  0  0
  147.2242  141.3632  153.8500 C   0  0  1  0  0  0  0  0  0  0  0  0
  148.6161  140.9651  154.4156 C   0  0  0  0  0  0  0  0  0  0  0  0
  149.2006  141.9843  155.2833 N   0  0  0  0  0  0  0  0  0  0  0  0
  149.6729  141.7628  156.5184 C   0  0  0  0  0  0  0  0  0  0  0  0
  149.6423  140.6573  157.0585 O   0  0  0  0  0  0  0  0  0  0  0  0
  150.1692  142.8939  157.0539 N   0  0  0  0  0  0  0  0  0  0  0  0
  150.8122  143.0873  158.2861 C   0  0  0  0  0  0  0  0  0  0  0  0
  150.3171  144.1429  159.1441 C   0  0  0  0  0  0  0  0  0  0  0  0
  150.8884  144.3996  160.3369 C   0  0  0  0  0  0  0  0  0  0  0  0
  152.0343  143.6257  160.8199 C   0  0  0  0  0  0  0  0  0  0  0  0
  152.5629  143.8451  161.9103 O   0  0  0  0  0  0  0  0  0  0  0  0
  152.4784  142.6457  159.9811 N   0  0  0  0  0  0  0  0  0  0  0  0
  153.6259  141.8218  160.3705 C   0  0  0  0  0  0  0  0  0  0  0  0
  151.8750  142.3837  158.7357 C   0  0  0  0  0  0  0  0  0  0  0  0
  146.4231  140.1453  153.4938 N   0  3  0  0  0  0  0  0  0  0  0  0
  146.9995  139.3113  152.4017 C   0  0  0  0  0  0  0  0  0  0  0  0
  146.1083  138.0957  152.0934 C   0  0  0  0  0  0  0  0  0  0  0  0
  145.9157  137.3258  153.2699 O   0  0  0  0  0  0  0  0  0  0  0  0
  145.2582  138.0775  154.2781 C   0  0  0  0  0  0  0  0  0  0  0  0
  146.1293  139.2817  154.6714 C   0  0  0  0  0  0  0  0  0  0  0  0
  147.1118  143.1524  155.1298 H   0  0  0  0  0  0  0  0  0  0  0  0
  146.2252  141.7735  155.7614 H   0  0  0  0  0  0  0  0  0  0  0  0
  145.5902  142.7290  154.4166 H   0  0  0  0  0  0  0  0  0  0  0  0
  147.3678  141.9324  152.9301 H   0  0  0  0  0  0  0  0  0  0  0  0
  148.5277  140.0455  154.9948 H   0  0  0  0  0  0  0  0  0  0  0  0
  149.3383  140.7588  153.6271 H   0  0  0  0  0  0  0  0  0  0  0  0
  149.2581  142.9217  154.9127 H   0  0  0  0  0  0  0  0  0  0  0  0
  150.0797  143.7283  156.4927 H   0  0  0  0  0  0  0  0  0  0  0  0
  149.4738  144.7389  158.8270 H   0  0  0  0  0  0  0  0  0  0  0  0
  150.4939  145.1947  160.9525 H   0  0  0  0  0  0  0  0  0  0  0  0
  153.9180  141.1096  159.5982 H   0  0  0  0  0  0  0  0  0  0  0  0
  153.3967  141.2500  161.2708 H   0  0  0  0  0  0  0  0  0  0  0  0
  154.4961  142.4468  160.5767 H   0  0  0  0  0  0  0  0  0  0  0  0
  152.3494  141.5846  158.1895 H   0  0  0  0  0  0  0  0  0  0  0  0
  147.0919  139.8843  151.4800 H   0  0  0  0  0  0  0  0  0  0  0  0
  148.0001  138.9804  152.6846 H   0  0  0  0  0  0  0  0  0  0  0  0
  145.1457  138.4114  151.6877 H   0  0  0  0  0  0  0  0  0  0  0  0
  146.5805  137.4685  151.3368 H   0  0  0  0  0  0  0  0  0  0  0  0
  144.2755  138.4011  153.9308 H   0  0  0  0  0  0  0  0  0  0  0  0
  145.0933  137.4354  155.1437 H   0  0  0  0  0  0  0  0  0  0  0  0
  147.0656  138.9316  155.1093 H   0  0  0  0  0  0  0  0  0  0  0  0
  145.6054  139.8331  155.4491 H   0  0  0  0  0  0  0  0  0  0  0  0
  145.5358  140.4808  153.1468 H   0  0  0  0  0  0  0  0  0  0  0  0
  1  2  1  0  0  0  0
  1 22  1  0  0  0  0
  1 23  1  0  0  0  0
  1 24  1  0  0  0  0
  2  3  1  0  0  0  0
  2 16  1  0  0  0  0
  2 25  1  0  0  0  0
  3  4  1  0  0  0  0
  3 26  1  0  0  0  0
  3 27  1  0  0  0  0
  4  5  1  0  0  0  0
  4 28  1  0  0  0  0
  5  6  2  0  0  0  0
  5  7  1  0  0  0  0
  7  8  1  0  0  0  0
  7 29  1  0  0  0  0
  8 15  2  0  0  0  0
  8  9  1  0  0  0  0
  9 10  2  0  0  0  0
  9 30  1  0  0  0  0
 10 11  1  0  0  0  0
 10 31  1  0  0  0  0
 11 12  2  0  0  0  0
 11 13  1  0  0  0  0
 13 14  1  0  0  0  0
 13 15  1  0  0  0  0
 14 32  1  0  0  0  0
 14 33  1  0  0  0  0
 14 34  1  0  0  0  0
 15 35  1  0  0  0  0
 16 21  1  0  0  0  0
 16 17  1  0  0  0  0
 16 44  1  0  0  0  0
 17 18  1  0  0  0  0
 17 36  1  0  0  0  0
 17 37  1  0  0  0  0
 18 19  1  0  0  0  0
 18 38  1  0  0  0  0
 18 39  1  0  0  0  0
 19 20  1  0  0  0  0
 20 21  1  0  0  0  0
 20 40  1  0  0  0  0
 20 41  1  0  0  0  0
 21 42  1  0  0  0  0
 21 43  1  0  0  0  0
M  CHG  1  16   1
M  END
> <s_m_source_file>
AV-unprocessed.smi

> <i_m_source_file_index>
1100

> <i_lp_mmshare_version>
43012

> <i_f3d_flags>
0

> <s_epik_input>
W0NIMl0xW0NIMl1PW0NIMl1bQ0gyXU4xW0NASF0oW0NIM10pW0NIMl1bTkhdQyg9TylbTkhdYzJbY0hdW2NIXWMoPU8pbihbQ0gzXSlbY0hdMg==

> <s_epik_cmdline>
J2VwaWtfcHl0aG9uJywgJy1waCcsICc3LjAnLCAnLXRuJywgJzgnLCAnLW1hJywgJzIwMCcsICctbWV0YWxfYmluZGluZycsICctaW1hZScsICc8aW5maWxlLm1hZT4nLCAnLW9tYWUnLCAnPG91dGZpbGUubWFlPic=

> <r_lp_tautomer_probability>
1

> <r_epik_Ionization_Penalty>
0.602556

> <r_epik_Ionization_Penalty_Charging>
0.602536

> <r_epik_Ionization_Penalty_Neutral>
1.99507e-05

> <r_epik_State_Penalty>
0.617039

> <r_epik_Charging_Adjusted_Penalty>
1.21958

> <i_epik_Tot_Q>
1

> <i_epik_Tot_abs_Q>
1

> <r_epik_Metal_State_Penalty>
0.619464

> <b_epik_Metal_Only>
0

> <s_lp_Force_Field>
OPLS_2005

> <r_lp_Energy>
33.6123

> <b_lp_Chiralities_Consistent>
1

> <s_lp_Variant>
AV-unprocessed.smi:1100-4

> <Gold.Version>
5.8.1

> <Gold.Id.Protein>
6NUR|6NUR_protein|mol2

> <Gold.PLP.Fitness>
49.7983

> <Gold.PLP.PLP>
-40.9419

> <Gold.PLP.part.hbond>
-3.0000

> <Gold.PLP.part.metal>
0.0000

> <Gold.PLP.part.buried>
-3.5642

> <Gold.PLP.part.nonpolar>
-35.4770

> <Gold.PLP.part.repulsive>
0.5659

> <Gold.PLP.ligand.clash>
0.0000

> <Gold.PLP.ligand.torsion>
0.8482

> <Gold.PLP.Chemscore.Hbond>
3.5040

> <Gold.PLP.Chemscore.CHOScore>
0.0000

> <Gold.PLP.Chemscore.Metal>
0.0000

> <Gold.Chemscore.Hbonds>
donor molecule, donor type, donor heavy atom, donor atom, acceptor molecule, acceptor atom, score
      L1  H     4    28       P1  8028  0.70
      L1  H     7    29       P1  8028  0.86
      L1  H    16    44       P1 10175  2.00

> <Gold.PLP.Chemscore.Internal.Correction>
0.0407

> <Gold.Rescore>
     Score         DG    S(hbond)    S(metal)    S(lipo)     H(rot)  DE(clash)    DE(int)     intcor
     19.71     -20.75       2.84        0.00      83.13       1.54       0.05       0.99       ----

> <Gold.Chemscore.Fitness>
19.7125

> <Gold.Chemscore.DG>
-20.7504

> <Gold.Chemscore.ZeroCoef>
-5.4800

> <Gold.Chemscore.Hbond>
2.8403

> <Gold.Chemscore.Metal>
0.0000

> <Gold.Chemscore.Lipo>
83.1260

> <Gold.Chemscore.Internal_Hbond>
0.0000

> <Gold.Chemscore.DEClash>
0.0507

> <Gold.Chemscore.DEInternal>
0.9873

> <Gold.Chemscore.Rot>
1.5398

> <Gold.Chemscore.Internal.Correction>
   9.000000E+99

> <Gold.Chemscore.Hbonds>
donor molecule, donor type, donor heavy atom, donor atom, acceptor molecule, acceptor atom, score
      L1  H     4    28       P1  8028  0.69
      L1  H     7    29       P1  8028  0.85
      L1  H    16    44       P1 10175  0.91

> <Gold.Chemscore.Hbond.Weighted>
-9.4867

> <Gold.Chemscore.Metal.Weighted>
-0.0000

> <Gold.Chemscore.Lipo.Weighted>
-9.7257

> <Gold.Chemscore.Internal_Hbond.Weighted>
0.0000

> <Gold.Chemscore.DEClash.Weighted>
0.0507

> <Gold.Chemscore.DEInternal.Weighted>
0.9873

> <Gold.Chemscore.Rot.Weighted>
3.9420

> <Gold.Chemscore.Internal.Correction.Weighted>
   9.000000E+99

> <Gold.Protein.RotatedTorsions>
[ 6907 6896 6895 6894 ] final  107.23 input  -60.11 | X-H torsion
[ 7974 7965 7964 7962 ] final   71.56 input  175.53 | X-H torsion
[ 8008 7997 7996 7995 ] final -140.43 input   59.86 | X-H torsion
[ 10167 10162 10161 10158 ] final   41.07 input  -65.29 | X-H torsion
[ 10718 10713 10712 10709 ] final   50.86 input   66.30 | X-H torsion
[ 10763 10752 10751 10750 ] final  145.41 input  -60.55 | X-H torsion
[ 11005 11000 10999 10996 ] final   82.64 input  -57.11 | X-H torsion

> <Gold.Protein.ActiveResidues>
 VAL166  LYS551  ARG553  GLY616  TRP617  ASP618  TYR619  PRO620  LYS621  CYS622 
 ASP623  PHE694  ASN695  SER759  ASP760  ASP761  ALA762  ILE779  LEU786  VAL792 
 PHE793  MET794  SER795  GLU796  ALA797  LYS798  CYS799  TRP800  GLU811  SER814 

> <Gold.Protein.RotatedAtoms>
  152.5162  133.9264  159.7559 H   0  0  0  0  0  0  0  0  0  0  0  0  # atno 6907 bound_to 6896
  150.9624  133.6422  159.2759 H   0  0  0  0  0  0  0  0  0  0  0  0  # atno 6908 bound_to 6896
  151.3662  135.0919  159.9503 H   0  0  0  0  0  0  0  0  0  0  0  0  # atno 6909 bound_to 6896
  145.7643  139.2814  143.1358 H   0  0  0  0  0  0  0  0  0  0  0  0  # atno 7974 bound_to 7965
  155.4613  140.0546  157.2990 H   0  0  0  0  0  0  0  0  0  0  0  0  # atno 8008 bound_to 7997
  154.4736  140.2051  155.9888 H   0  0  0  0  0  0  0  0  0  0  0  0  # atno 8009 bound_to 7997
  156.1096  140.3206  155.8059 H   0  0  0  0  0  0  0  0  0  0  0  0  # atno 8010 bound_to 7997
  140.3679  144.2143  150.6134 H   0  0  0  0  0  0  0  0  0  0  0  0  # atno 10167 bound_to 10162
  157.4925  130.8385  149.8220 H   0  0  0  0  0  0  0  0  0  0  0  0  # atno 10718 bound_to 10713
  154.0049  135.2920  155.3398 H   0  0  0  0  0  0  0  0  0  0  0  0  # atno 10763 bound_to 10752
  154.7137  135.5138  153.8709 H   0  0  0  0  0  0  0  0  0  0  0  0  # atno 10764 bound_to 10752
  153.0749  135.6660  154.0287 H   0  0  0  0  0  0  0  0  0  0  0  0  # atno 10765 bound_to 10752
  139.9057  134.8086  156.2201 H   0  0  0  0  0  0  0  0  0  0  0  0  # atno 11005 bound_to 11000
  146.0233  140.8327  142.9912 LP  0  0  0  0  0  0  0  0  0  0  0  0  # atno 17320 bound_to 7965
  144.6824  140.2661  143.7312 LP  0  0  0  0  0  0  0  0  0  0  0  0  # atno 17321 bound_to 7965
  140.5062  143.2303  151.8604 LP  0  0  0  0  0  0  0  0  0  0  0  0  # atno 17342 bound_to 10162
  139.4807  144.5002  151.9070 LP  0  0  0  0  0  0  0  0  0  0  0  0  # atno 17343 bound_to 10162
  156.0182  130.3805  150.2045 LP  0  0  0  0  0  0  0  0  0  0  0  0  # atno 17370 bound_to 10713
  157.0233  130.9986  151.3333 LP  0  0  0  0  0  0  0  0  0  0  0  0  # atno 17371 bound_to 10713
  141.0411  133.6937  156.1599 LP  0  0  0  0  0  0  0  0  0  0  0  0  # atno 17394 bound_to 11000
  140.6954  134.4621  157.5588 LP  0  0  0  0  0  0  0  0  0  0  0  0  # atno 17395 bound_to 11000

$$$$
