AV-unprocessed.smi:109|AV-procd|sdf|1046|dock5
  -GOLD-   2262018 83D 1   1.00000     0.00000
 Structure written by MMmdl.
 58 61  0  0  0  0  0  0  0  0  1 V2000
  151.1229  143.6090  161.3113 O   0  0  0  0  0  0  0  0  0  0  0  0
  152.5265  143.4919  161.3967 C   0  0  0  0  0  0  0  0  0  0  0  0
  153.0671  142.7559  160.1602 C   0  0  0  0  0  0  0  0  0  0  0  0
  153.0654  141.2204  160.3285 C   0  0  1  0  0  0  0  0  0  0  0  0
  153.1230  140.5803  159.0147 N   0  0  0  0  0  0  0  0  0  0  0  0
  152.0650  139.9157  158.5005 C   0  0  0  0  0  0  0  0  0  0  0  0
  151.8222  138.6170  158.8165 N   0  0  0  0  0  0  0  0  0  0  0  0
  150.7599  137.9912  158.3017 C   0  0  0  0  0  0  0  0  0  0  0  0
  149.8315  138.4708  157.4718 N   0  0  0  0  0  0  0  0  0  0  0  0
  150.0716  139.7750  157.1481 C   0  0  0  0  0  0  0  0  0  0  0  0
  151.1607  140.5605  157.6180 C   0  0  0  0  0  0  0  0  0  0  0  0
  151.0836  141.8406  157.0858 N   0  0  0  0  0  0  0  0  0  0  0  0
  150.0063  141.8113  156.3482 C   0  0  0  0  0  0  0  0  0  0  0  0
  149.3322  140.6106  156.3336 N   0  0  0  0  0  0  0  0  0  0  0  0
  148.0658  140.2903  155.6018 C   0  0  1  0  0  0  0  0  0  0  0  0
  147.1167  141.2760  155.8608 O   0  0  0  0  0  0  0  0  0  0  0  0
  146.3273  141.5354  154.7002 C   0  0  1  0  0  0  0  0  0  0  0  0
  146.4482  143.0344  154.3781 C   0  0  0  0  0  0  0  0  0  0  0  0
  145.5264  143.3973  153.3718 O   0  0  0  0  0  0  0  0  0  0  0  0
  146.8758  140.6233  153.5868 C   0  0  2  0  0  0  0  0  0  0  0  0
  146.0475  139.4824  153.4676 O   0  0  0  0  0  0  0  0  0  0  0  0
  148.2548  140.2204  154.0815 C   0  0  1  0  0  0  0  0  0  0  0  0
  149.2501  141.1010  153.5913 O   0  0  0  0  0  0  0  0  0  0  0  0
  154.1905  140.6792  161.2530 C   0  0  0  0  0  0  0  0  0  0  0  0
  154.1922  139.1385  161.3554 C   0  0  0  0  0  0  0  0  0  0  0  0
  155.3800  138.6333  162.1907 C   0  0  0  0  0  0  0  0  0  0  0  0
  155.3845  139.2683  163.5899 C   0  0  0  0  0  0  0  0  0  0  0  0
  155.3800  140.8023  163.5020 C   0  0  0  0  0  0  0  0  0  0  0  0
  154.1948  141.3096  162.6643 C   0  0  0  0  0  0  0  0  0  0  0  0
  147.7227  139.3451  156.0247 H   0  0  0  0  0  0  0  0  0  0  0  0
  145.2865  141.3022  154.9313 H   0  0  0  0  0  0  0  0  0  0  0  0
  146.9091  141.1133  152.6127 H   0  0  0  0  0  0  0  0  0  0  0  0
  148.5308  139.2058  153.7911 H   0  0  0  0  0  0  0  0  0  0  0  0
  150.7931  142.8894  160.7948 H   0  0  0  0  0  0  0  0  0  0  0  0
  152.9611  144.4891  161.4712 H   0  0  0  0  0  0  0  0  0  0  0  0
  152.7783  142.9567  162.3127 H   0  0  0  0  0  0  0  0  0  0  0  0
  152.4821  143.0380  159.2839 H   0  0  0  0  0  0  0  0  0  0  0  0
  154.0808  143.1096  159.9763 H   0  0  0  0  0  0  0  0  0  0  0  0
  152.1120  140.9657  160.7924 H   0  0  0  0  0  0  0  0  0  0  0  0
  154.0139  140.6354  158.5423 H   0  0  0  0  0  0  0  0  0  0  0  0
  150.6340  136.9607  158.5993 H   0  0  0  0  0  0  0  0  0  0  0  0
  149.6654  142.6752  155.7962 H   0  0  0  0  0  0  0  0  0  0  0  0
  146.2308  143.6276  155.2668 H   0  0  0  0  0  0  0  0  0  0  0  0
  147.4592  143.2904  154.0605 H   0  0  0  0  0  0  0  0  0  0  0  0
  144.8152  143.8723  153.7740 H   0  0  0  0  0  0  0  0  0  0  0  0
  145.3573  139.6783  152.8523 H   0  0  0  0  0  0  0  0  0  0  0  0
  149.6168  141.5733  154.3231 H   0  0  0  0  0  0  0  0  0  0  0  0
  155.1395  140.9461  160.7854 H   0  0  0  0  0  0  0  0  0  0  0  0
  153.2681  138.7831  161.8104 H   0  0  0  0  0  0  0  0  0  0  0  0
  154.2350  138.6982  160.3587 H   0  0  0  0  0  0  0  0  0  0  0  0
  155.3389  137.5470  162.2758 H   0  0  0  0  0  0  0  0  0  0  0  0
  156.3143  138.8679  161.6791 H   0  0  0  0  0  0  0  0  0  0  0  0
  154.5089  138.9314  164.1464 H   0  0  0  0  0  0  0  0  0  0  0  0
  156.2564  138.9295  164.1500 H   0  0  0  0  0  0  0  0  0  0  0  0
  155.3379  141.2318  164.5033 H   0  0  0  0  0  0  0  0  0  0  0  0
  156.3149  141.1458  163.0573 H   0  0  0  0  0  0  0  0  0  0  0  0
  154.2438  142.3966  162.5939 H   0  0  0  0  0  0  0  0  0  0  0  0
  153.2665  141.0744  163.1852 H   0  0  0  0  0  0  0  0  0  0  0  0
  1  2  1  0  0  0  0
  1 34  1  0  0  0  0
  2  3  1  0  0  0  0
  2 35  1  0  0  0  0
  2 36  1  0  0  0  0
  3  4  1  0  0  0  0
  3 37  1  0  0  0  0
  3 38  1  0  0  0  0
  4  5  1  0  0  0  0
  4 24  1  0  0  0  0
  4 39  1  0  0  0  0
  5  6  1  0  0  0  0
  5 40  1  0  0  0  0
  6 11  1  0  0  0  0
  6  7  2  0  0  0  0
  7  8  1  0  0  0  0
  8  9  2  0  0  0  0
  8 41  1  0  0  0  0
  9 10  1  0  0  0  0
 10 14  1  0  0  0  0
 10 11  2  0  0  0  0
 11 12  1  0  0  0  0
 12 13  2  0  0  0  0
 13 14  1  0  0  0  0
 13 42  1  0  0  0  0
 14 15  1  0  0  0  0
 15 30  1  0  0  0  0
 15 22  1  0  0  0  0
 15 16  1  0  0  0  0
 16 17  1  0  0  0  0
 17 31  1  0  0  0  0
 17 18  1  0  0  0  0
 17 20  1  0  0  0  0
 18 19  1  0  0  0  0
 18 43  1  0  0  0  0
 18 44  1  0  0  0  0
 19 45  1  0  0  0  0
 20 32  1  0  0  0  0
 20 21  1  0  0  0  0
 20 22  1  0  0  0  0
 21 46  1  0  0  0  0
 22 33  1  0  0  0  0
 22 23  1  0  0  0  0
 23 47  1  0  0  0  0
 24 29  1  0  0  0  0
 24 25  1  0  0  0  0
 24 48  1  0  0  0  0
 25 26  1  0  0  0  0
 25 49  1  0  0  0  0
 25 50  1  0  0  0  0
 26 27  1  0  0  0  0
 26 51  1  0  0  0  0
 26 52  1  0  0  0  0
 27 28  1  0  0  0  0
 27 53  1  0  0  0  0
 27 54  1  0  0  0  0
 28 29  1  0  0  0  0
 28 55  1  0  0  0  0
 28 56  1  0  0  0  0
 29 57  1  0  0  0  0
 29 58  1  0  0  0  0
M  END
> <s_m_source_file>
AV-unprocessed.smi

> <i_m_source_file_index>
109

> <i_lp_mmshare_version>
43012

> <i_f3d_flags>
0

> <s_epik_input>
W0NIMl0xW0NIMl1bQ0gyXVtDSDJdW0NIMl1bQ0hdMVtDQEhdKFtDSDJdW0NIMl1bT0hdKVtOSF1jKG5bY0hdbjIpYyhjMjMpbltjSF1uM1tDQEBIXTRPW0NASF0oW0NIMl1bT0hdKVtDQEBIXShbT0hdKVtDQEhdNFtPSF0=

> <s_epik_cmdline>
J2VwaWtfcHl0aG9uJywgJy1waCcsICc3LjAnLCAnLXRuJywgJzgnLCAnLW1hJywgJzIwMCcsICctbWV0YWxfYmluZGluZycsICctaW1hZScsICc8aW5maWxlLm1hZT4nLCAnLW9tYWUnLCAnPG91dGZpbGUubWFlPic=

> <r_lp_tautomer_probability>
1

> <r_epik_Ionization_Penalty>
0.000793976

> <r_epik_Ionization_Penalty_Charging>
0

> <r_epik_Ionization_Penalty_Neutral>
0.000793976

> <r_epik_State_Penalty>
-0

> <r_epik_Charging_Adjusted_Penalty>
0

> <i_epik_Tot_Q>
0

> <i_epik_Tot_abs_Q>
0

> <r_epik_Metal_State_Penalty>
-0

> <b_epik_Metal_Only>
0

> <s_epik_Chemistry_Notes>
This compound contains an acetal/aminal-like group ( X-CH(R)-Y where X, Y are N, S, or O) that may be acid/base labile, releasing an aldehyde.

> <s_lp_Force_Field>
OPLS_2005

> <r_lp_Energy>
52.4563

> <b_lp_Chiralities_Consistent>
1

> <s_lp_Variant>
AV-unprocessed.smi:109-16

> <Gold.Version>
5.8.1

> <Gold.Id.Protein>
6NUR|6NUR_protein|mol2

> <Gold.PLP.Fitness>
50.5119

> <Gold.PLP.PLP>
-46.1287

> <Gold.PLP.part.hbond>
-5.9732

> <Gold.PLP.part.metal>
0.0000

> <Gold.PLP.part.buried>
-5.3456

> <Gold.PLP.part.nonpolar>
-35.1810

> <Gold.PLP.part.repulsive>
0.1986

> <Gold.PLP.ligand.clash>
1.7926

> <Gold.PLP.ligand.torsion>
1.3705

> <Gold.PLP.Chemscore.Hbond>
1.9192

> <Gold.PLP.Chemscore.CHOScore>
1.0000

> <Gold.PLP.Chemscore.Metal>
0.0000

> <Gold.Chemscore.Hbonds>
donor molecule, donor type, donor heavy atom, donor atom, acceptor molecule, acceptor atom, score
      L1  H    21    46       P1 10175  1.00
      P1  H  8011  8017       L1    23  0.65
      L1  C    13    42       P1  8028  1.00

> <Gold.PLP.Chemscore.Internal.Correction>
0.1591

> <Gold.Rescore>
     Score         DG    S(hbond)    S(metal)    S(lipo)     H(rot)  DE(clash)    DE(int)     intcor
      5.96      -8.70       1.51        0.00     104.01       5.47       0.06       2.68       ----

> <Gold.Chemscore.Fitness>
5.9642

> <Gold.Chemscore.DG>
-8.6980

> <Gold.Chemscore.ZeroCoef>
-5.4800

> <Gold.Chemscore.Hbond>
1.5098

> <Gold.Chemscore.Metal>
0.0000

> <Gold.Chemscore.Lipo>
104.0068

> <Gold.Chemscore.Internal_Hbond>
0.0000

> <Gold.Chemscore.DEClash>
0.0584

> <Gold.Chemscore.DEInternal>
2.6754

> <Gold.Chemscore.Rot>
5.4662

> <Gold.Chemscore.Internal.Correction>
   9.000000E+99

> <Gold.Chemscore.Hbonds>
donor molecule, donor type, donor heavy atom, donor atom, acceptor molecule, acceptor atom, score
      L1  H    21    46       P1 10175  0.94
      P1  H  8011  8017       L1    23  0.05

> <Gold.Chemscore.Hbond.Weighted>
-5.0427

> <Gold.Chemscore.Metal.Weighted>
-0.0000

> <Gold.Chemscore.Lipo.Weighted>
-12.1688

> <Gold.Chemscore.Internal_Hbond.Weighted>
0.0000

> <Gold.Chemscore.DEClash.Weighted>
0.0584

> <Gold.Chemscore.DEInternal.Weighted>
2.6754

> <Gold.Chemscore.Rot.Weighted>
13.9935

> <Gold.Chemscore.Internal.Correction.Weighted>
   9.000000E+99

> <Gold.Protein.RotatedTorsions>
[ 6907 6896 6895 6894 ] final -167.34 input  -60.11 | X-H torsion
[ 7974 7965 7964 7962 ] final   90.55 input  175.53 | X-H torsion
[ 8008 7997 7996 7995 ] final -179.67 input   59.86 | X-H torsion
[ 10167 10162 10161 10158 ] final  124.34 input  -65.29 | X-H torsion
[ 10718 10713 10712 10709 ] final  -96.98 input   66.30 | X-H torsion
[ 10763 10752 10751 10750 ] final   38.13 input  -60.55 | X-H torsion
[ 11005 11000 10999 10996 ] final  -17.58 input  -57.11 | X-H torsion

> <Gold.Protein.ActiveResidues>
 VAL166  LYS551  ARG553  GLY616  TRP617  ASP618  TYR619  PRO620  LYS621  CYS622 
 ASP623  PHE694  ASN695  SER759  ASP760  ASP761  ALA762  ILE779  LEU786  VAL792 
 PHE793  MET794  SER795  GLU796  ALA797  LYS798  CYS799  TRP800  GLU811  SER814 

> <Gold.Protein.RotatedAtoms>
  151.4579  133.3600  159.2804 H   0  0  0  0  0  0  0  0  0  0  0  0  # atno 6907 bound_to 6896
  150.9045  134.8461  159.7394 H   0  0  0  0  0  0  0  0  0  0  0  0  # atno 6908 bound_to 6896
  152.4898  134.4503  159.9624 H   0  0  0  0  0  0  0  0  0  0  0  0  # atno 6909 bound_to 6896
  145.5175  139.2278  143.2690 H   0  0  0  0  0  0  0  0  0  0  0  0  # atno 7974 bound_to 7965
  156.0332  140.1287  157.0235 H   0  0  0  0  0  0  0  0  0  0  0  0  # atno 8008 bound_to 7997
  154.4359  140.1045  156.6200 H   0  0  0  0  0  0  0  0  0  0  0  0  # atno 8009 bound_to 7997
  155.5776  140.3467  155.4534 H   0  0  0  0  0  0  0  0  0  0  0  0  # atno 8010 bound_to 7997
  139.5747  144.6957  151.3684 H   0  0  0  0  0  0  0  0  0  0  0  0  # atno 10167 bound_to 10162
  156.0073  130.5175  150.6307 H   0  0  0  0  0  0  0  0  0  0  0  0  # atno 10718 bound_to 10713
  153.0012  135.6258  154.2255 H   0  0  0  0  0  0  0  0  0  0  0  0  # atno 10763 bound_to 10752
  154.1998  135.2804  155.2996 H   0  0  0  0  0  0  0  0  0  0  0  0  # atno 10764 bound_to 10752
  154.5693  135.5681  153.7139 H   0  0  0  0  0  0  0  0  0  0  0  0  # atno 10765 bound_to 10752
  140.8182  133.8088  155.9632 H   0  0  0  0  0  0  0  0  0  0  0  0  # atno 11005 bound_to 11000
  146.2127  140.5985  142.9052 LP  0  0  0  0  0  0  0  0  0  0  0  0  # atno 17320 bound_to 7965
  144.7694  140.5604  143.6680 LP  0  0  0  0  0  0  0  0  0  0  0  0  # atno 17321 bound_to 7965
  140.7030  143.7583  150.7435 LP  0  0  0  0  0  0  0  0  0  0  0  0  # atno 17342 bound_to 10162
  140.1099  143.4709  152.2376 LP  0  0  0  0  0  0  0  0  0  0  0  0  # atno 17343 bound_to 10162
  157.4106  131.0823  151.1225 LP  0  0  0  0  0  0  0  0  0  0  0  0  # atno 17370 bound_to 10713
  157.1858  130.6329  149.5687 LP  0  0  0  0  0  0  0  0  0  0  0  0  # atno 17371 bound_to 10713
  140.9127  134.2241  157.4976 LP  0  0  0  0  0  0  0  0  0  0  0  0  # atno 17394 bound_to 11000
  139.8710  134.9757  156.4893 LP  0  0  0  0  0  0  0  0  0  0  0  0  # atno 17395 bound_to 11000

$$$$
