AV-unprocessed.smi:3313|AV-procd|sdf|12729|dock10
  -GOLD-   2272019 73D 1   1.00000     0.00000
 Structure written by MMmdl.
 43 43  0  0  0  0  0  0  0  0  2 V2000
  143.1598  138.0896  154.4416 C   0  0  0  0  0  0  0  0  0  0  0  0
  143.3119  137.2406  153.1681 C   0  0  2  0  0  0  0  0  0  0  0  0
  143.5364  135.7429  153.4825 C   0  0  0  0  0  0  0  0  0  0  0  0
  143.8859  134.9659  152.3070 N   0  0  0  0  0  0  0  0  0  0  0  0
  143.9726  133.5957  152.1744 C   0  0  0  0  0  0  0  0  0  0  0  0
  144.3429  133.3357  150.8861 C   0  0  0  0  0  0  0  0  0  0  0  0
  144.4660  134.6273  150.3018 C   0  0  0  0  0  0  0  0  0  0  0  0
  144.1940  135.6011  151.1557 N   0  0  0  0  0  0  0  0  0  0  0  0
  144.4122  137.7895  152.3433 N   0  3  0  0  0  0  0  0  0  0  0  0
  145.7726  137.5926  152.8880 C   0  0  0  0  0  0  0  0  0  0  0  0
  146.7009  138.7495  152.4809 C   0  0  0  0  0  0  0  0  0  0  0  0
  147.6309  139.1872  153.6165 C   0  0  0  0  0  0  0  0  0  0  0  0
  147.2322  139.9831  154.4664 O   0  0  0  0  0  0  0  0  0  0  0  0
  148.8675  138.6574  153.6064 N   0  0  0  0  0  0  0  0  0  0  0  0
  149.9663  138.8860  154.5530 C   0  0  0  0  0  0  0  0  0  0  0  0
  150.1734  140.4086  154.6385 C   0  0  0  0  0  0  0  0  0  0  0  0
  151.2693  138.2315  154.0462 C   0  0  0  0  0  0  0  0  0  0  0  0
  149.5976  138.3508  155.9526 C   0  0  0  0  0  0  0  0  0  0  0  0
  142.2948  137.7814  155.0295 H   0  0  0  0  0  0  0  0  0  0  0  0
  143.0211  139.1430  154.1963 H   0  0  0  0  0  0  0  0  0  0  0  0
  144.0408  138.0096  155.0796 H   0  0  0  0  0  0  0  0  0  0  0  0
  142.3877  137.3470  152.5980 H   0  0  0  0  0  0  0  0  0  0  0  0
  144.3349  135.6108  154.2127 H   0  0  0  0  0  0  0  0  0  0  0  0
  142.6369  135.3118  153.9246 H   0  0  0  0  0  0  0  0  0  0  0  0
  143.7638  132.9271  152.9966 H   0  0  0  0  0  0  0  0  0  0  0  0
  144.5034  132.3698  150.4303 H   0  0  0  0  0  0  0  0  0  0  0  0
  144.7440  134.8851  149.2904 H   0  0  0  0  0  0  0  0  0  0  0  0
  144.3799  137.3206  151.4493 H   0  0  0  0  0  0  0  0  0  0  0  0
  145.7205  137.5191  153.9745 H   0  0  0  0  0  0  0  0  0  0  0  0
  146.1752  136.6485  152.5179 H   0  0  0  0  0  0  0  0  0  0  0  0
  147.2988  138.4524  151.6178 H   0  0  0  0  0  0  0  0  0  0  0  0
  146.1105  139.6127  152.1715 H   0  0  0  0  0  0  0  0  0  0  0  0
  149.0770  138.0185  152.8530 H   0  0  0  0  0  0  0  0  0  0  0  0
  150.9812  140.6618  155.3262 H   0  0  0  0  0  0  0  0  0  0  0  0
  149.2738  140.9149  154.9912 H   0  0  0  0  0  0  0  0  0  0  0  0
  150.4282  140.8312  153.6656 H   0  0  0  0  0  0  0  0  0  0  0  0
  151.5211  138.5724  153.0412 H   0  0  0  0  0  0  0  0  0  0  0  0
  151.1994  137.1441  154.0181 H   0  0  0  0  0  0  0  0  0  0  0  0
  152.1101  138.4787  154.6954 H   0  0  0  0  0  0  0  0  0  0  0  0
  150.3676  138.6008  156.6834 H   0  0  0  0  0  0  0  0  0  0  0  0
  149.4896  137.2663  155.9622 H   0  0  0  0  0  0  0  0  0  0  0  0
  148.6594  138.7788  156.3075 H   0  0  0  0  0  0  0  0  0  0  0  0
  144.2516  138.7752  152.1929 H   0  0  0  0  0  0  0  0  0  0  0  0
  1  2  1  0  0  0  0
  1 19  1  0  0  0  0
  1 20  1  0  0  0  0
  1 21  1  0  0  0  0
  2  3  1  0  0  0  0
  2  9  1  0  0  0  0
  2 22  1  0  0  0  0
  3  4  1  0  0  0  0
  3 23  1  0  0  0  0
  3 24  1  0  0  0  0
  4  8  1  0  0  0  0
  4  5  1  0  0  0  0
  5  6  2  0  0  0  0
  5 25  1  0  0  0  0
  6  7  1  0  0  0  0
  6 26  1  0  0  0  0
  7  8  2  0  0  0  0
  7 27  1  0  0  0  0
  9 10  1  0  0  0  0
  9 28  1  0  0  0  0
  9 43  1  0  0  0  0
 10 11  1  0  0  0  0
 10 29  1  0  0  0  0
 10 30  1  0  0  0  0
 11 12  1  0  0  0  0
 11 31  1  0  0  0  0
 11 32  1  0  0  0  0
 12 13  2  0  0  0  0
 12 14  1  0  0  0  0
 14 15  1  0  0  0  0
 14 33  1  0  0  0  0
 15 16  1  0  0  0  0
 15 17  1  0  0  0  0
 15 18  1  0  0  0  0
 16 34  1  0  0  0  0
 16 35  1  0  0  0  0
 16 36  1  0  0  0  0
 17 37  1  0  0  0  0
 17 38  1  0  0  0  0
 17 39  1  0  0  0  0
 18 40  1  0  0  0  0
 18 41  1  0  0  0  0
 18 42  1  0  0  0  0
M  CHG  1   9   1
M  END
> <s_m_source_file>
AV-unprocessed.smi

> <i_m_source_file_index>
3313

> <i_lp_mmshare_version>
43012

> <i_f3d_flags>
0

> <s_epik_input>
bjFbY0hdW2NIXVtjSF1uMVtDSDJdW0NAQEhdKFtDSDNdKVtOSF1bQ0gyXVtDSDJdQyg9TylbTkhdQyhbQ0gzXSkoW0NIM10pW0NIM10=

> <s_epik_cmdline>
J2VwaWtfcHl0aG9uJywgJy1waCcsICc3LjAnLCAnLXRuJywgJzgnLCAnLW1hJywgJzIwMCcsICctbWV0YWxfYmluZGluZycsICctaW1hZScsICc8aW5maWxlLm1hZT4nLCAnLW9tYWUnLCAnPG91dGZpbGUubWFlPic=

> <r_lp_tautomer_probability>
1

> <r_epik_Ionization_Penalty>
0.0056766

> <r_epik_Ionization_Penalty_Charging>
0.00567288

> <r_epik_Ionization_Penalty_Neutral>
3.71277e-06

> <r_epik_State_Penalty>
0.0041598

> <r_epik_Charging_Adjusted_Penalty>
0.00983268

> <i_epik_Tot_Q>
1

> <i_epik_Tot_abs_Q>
1

> <r_epik_Metal_State_Penalty>
-0

> <b_epik_Metal_Only>
0

> <s_lp_Force_Field>
OPLS_2005

> <r_lp_Energy>
7.49453

> <b_lp_Chiralities_Consistent>
1

> <s_lp_Variant>
AV-unprocessed.smi:3313-1

> <Gold.Version>
5.8.1

> <Gold.Id.Protein>
6NUR|6NUR_protein|mol2

> <Gold.PLP.Fitness>
44.6127

> <Gold.PLP.PLP>
-30.7898

> <Gold.PLP.part.hbond>
-4.0000

> <Gold.PLP.part.metal>
0.0000

> <Gold.PLP.part.buried>
-2.4744

> <Gold.PLP.part.nonpolar>
-24.5201

> <Gold.PLP.part.repulsive>
0.3895

> <Gold.PLP.ligand.clash>
0.0231

> <Gold.PLP.ligand.torsion>
1.0815

> <Gold.PLP.Chemscore.Hbond>
3.3112

> <Gold.PLP.Chemscore.CHOScore>
2.0000

> <Gold.PLP.Chemscore.Metal>
0.0000

> <Gold.Chemscore.Hbonds>
donor molecule, donor type, donor heavy atom, donor atom, acceptor molecule, acceptor atom, score
      L1  H     9    28       P1 10171  0.22
      L1  H     9    43       P1 10175  2.00
      L1  H    14    33       P1  7948  1.00
      L1  C     5    25       P1 10957  1.00
      L1  C     7    27       P1  7921  1.00

> <Gold.PLP.Chemscore.Internal.Correction>
0.0753

> <Gold.Rescore>
     Score         DG    S(hbond)    S(metal)    S(lipo)     H(rot)  DE(clash)    DE(int)     intcor
     12.95     -15.31       2.38        0.00      64.31       2.20       0.03       2.33       ----

> <Gold.Chemscore.Fitness>
12.9477

> <Gold.Chemscore.DG>
-15.3139

> <Gold.Chemscore.ZeroCoef>
-5.4800

> <Gold.Chemscore.Hbond>
2.3798

> <Gold.Chemscore.Metal>
0.0000

> <Gold.Chemscore.Lipo>
64.3123

> <Gold.Chemscore.Internal_Hbond>
0.0000

> <Gold.Chemscore.DEClash>
0.0333

> <Gold.Chemscore.DEInternal>
2.3329

> <Gold.Chemscore.Rot>
2.2027

> <Gold.Chemscore.Internal.Correction>
   9.000000E+99

> <Gold.Chemscore.Hbonds>
donor molecule, donor type, donor heavy atom, donor atom, acceptor molecule, acceptor atom, score
      L1  H     9    28       P1 10171  0.21
      L1  H     9    43       P1 10175  1.00
      L1  H    14    33       P1  7948  0.92

> <Gold.Chemscore.Hbond.Weighted>
-7.9484

> <Gold.Chemscore.Metal.Weighted>
-0.0000

> <Gold.Chemscore.Lipo.Weighted>
-7.5245

> <Gold.Chemscore.Internal_Hbond.Weighted>
0.0000

> <Gold.Chemscore.DEClash.Weighted>
0.0333

> <Gold.Chemscore.DEInternal.Weighted>
2.3329

> <Gold.Chemscore.Rot.Weighted>
5.6390

> <Gold.Chemscore.Internal.Correction.Weighted>
   9.000000E+99

> <Gold.Protein.RotatedTorsions>
[ 6907 6896 6895 6894 ] final  -56.28 input  -60.11 | X-H torsion
[ 7974 7965 7964 7962 ] final  -99.92 input  175.53 | X-H torsion
[ 8008 7997 7996 7995 ] final  -67.59 input   59.86 | X-H torsion
[ 10167 10162 10161 10158 ] final  149.48 input  -65.29 | X-H torsion
[ 10718 10713 10712 10709 ] final   17.54 input   66.30 | X-H torsion
[ 10763 10752 10751 10750 ] final  -20.31 input  -60.55 | X-H torsion
[ 11005 11000 10999 10996 ] final  -98.72 input  -57.11 | X-H torsion

> <Gold.Protein.ActiveResidues>
 VAL166  LYS551  ARG553  GLY616  TRP617  ASP618  TYR619  PRO620  LYS621  CYS622 
 ASP623  PHE694  ASN695  SER759  ASP760  ASP761  ALA762  ILE779  LEU786  VAL792 
 PHE793  MET794  SER795  GLU796  ALA797  LYS798  CYS799  TRP800  GLU811  SER814 

> <Gold.Protein.RotatedAtoms>
  150.8181  134.7374  159.6747 H   0  0  0  0  0  0  0  0  0  0  0  0  # atno 6907 bound_to 6896
  152.4298  134.5795  159.9953 H   0  0  0  0  0  0  0  0  0  0  0  0  # atno 6908 bound_to 6896
  151.5986  133.3321  159.3078 H   0  0  0  0  0  0  0  0  0  0  0  0  # atno 6909 bound_to 6896
  145.3013  140.9378  143.2822 H   0  0  0  0  0  0  0  0  0  0  0  0  # atno 7974 bound_to 7965
  154.4810  140.0889  156.7377 H   0  0  0  0  0  0  0  0  0  0  0  0  # atno 8008 bound_to 7997
  155.4470  140.3456  155.4278 H   0  0  0  0  0  0  0  0  0  0  0  0  # atno 8009 bound_to 7997
  156.1191  140.1469  156.9218 H   0  0  0  0  0  0  0  0  0  0  0  0  # atno 8010 bound_to 7997
  139.4861  144.5599  151.7251 H   0  0  0  0  0  0  0  0  0  0  0  0  # atno 10167 bound_to 10162
  157.0836  130.6398  149.5832 H   0  0  0  0  0  0  0  0  0  0  0  0  # atno 10718 bound_to 10713
  153.6184  135.6993  153.5320 H   0  0  0  0  0  0  0  0  0  0  0  0  # atno 10763 bound_to 10752
  153.2958  135.4143  155.1208 H   0  0  0  0  0  0  0  0  0  0  0  0  # atno 10764 bound_to 10752
  154.8548  135.3636  154.5724 H   0  0  0  0  0  0  0  0  0  0  0  0  # atno 10765 bound_to 10752
  141.1335  133.8266  157.0876 H   0  0  0  0  0  0  0  0  0  0  0  0  # atno 11005 bound_to 11000
  144.9091  139.4551  143.6595 LP  0  0  0  0  0  0  0  0  0  0  0  0  # atno 17320 bound_to 7965
  146.3151  139.7889  142.8990 LP  0  0  0  0  0  0  0  0  0  0  0  0  # atno 17321 bound_to 7965
  140.5166  144.0943  150.6010 LP  0  0  0  0  0  0  0  0  0  0  0  0  # atno 17342 bound_to 10162
  140.3887  143.2764  152.0086 LP  0  0  0  0  0  0  0  0  0  0  0  0  # atno 17343 bound_to 10162
  155.9917  130.4972  150.7309 LP  0  0  0  0  0  0  0  0  0  0  0  0  # atno 17370 bound_to 10713
  157.4780  131.0899  151.0569 LP  0  0  0  0  0  0  0  0  0  0  0  0  # atno 17371 bound_to 10713
  140.0412  134.9853  157.0965 LP  0  0  0  0  0  0  0  0  0  0  0  0  # atno 17394 bound_to 11000
  140.4132  134.1959  155.7163 LP  0  0  0  0  0  0  0  0  0  0  0  0  # atno 17395 bound_to 11000

$$$$
