AV-unprocessed.smi:211|AV-procd|sdf|1616|dock4
  -GOLD-   2262019543D 1   1.00000     0.00000
 Structure written by MMmdl.
 59 62  0  0  0  0  0  0  0  0  1 V2000
  149.0535  144.8738  160.5813 C   0  0  0  0  0  0  0  0  0  0  0  0
  150.2753  144.6579  159.6951 C   0  0  0  0  0  0  0  0  0  0  0  0
  151.0882  145.5672  159.5322 O   0  0  0  0  0  0  0  0  0  0  0  0
  150.3879  143.4469  159.1283 N   0  0  0  0  0  0  0  0  0  0  0  0
  151.4570  143.0240  158.2241 C   0  0  1  0  0  0  0  0  0  0  0  0
  152.8126  143.4028  158.8502 C   0  0  0  0  0  0  0  0  0  0  0  0
  151.3234  141.5093  157.9139 C   0  0  0  0  0  0  0  0  0  0  0  0
  149.9249  141.1328  157.3746 C   0  0  0  0  0  0  0  0  0  0  0  0
  149.8072  139.6255  157.0960 C   0  0  0  0  0  0  0  0  0  0  0  0
  150.1536  138.8416  158.2814 N   0  0  0  0  0  0  0  0  0  0  0  0
  149.8258  137.5240  158.2796 C   0  0  0  0  0  0  0  0  0  0  0  0
  150.2950  136.7088  157.2967 N   0  0  0  0  0  0  0  0  0  0  0  0
  149.9941  135.4069  157.2969 C   0  0  0  0  0  0  0  0  0  0  0  0
  149.2490  134.7234  158.1670 N   0  0  0  0  0  0  0  0  0  0  0  0
  148.7645  135.5363  159.1491 C   0  0  0  0  0  0  0  0  0  0  0  0
  149.0049  136.9333  159.2819 C   0  0  0  0  0  0  0  0  0  0  0  0
  148.3508  137.4191  160.4083 N   0  0  0  0  0  0  0  0  0  0  0  0
  147.7734  136.3670  160.9210 C   0  0  0  0  0  0  0  0  0  0  0  0
  147.9474  135.1989  160.2137 N   0  0  0  0  0  0  0  0  0  0  0  0
  147.4648  133.8970  160.5690 C   0  0  0  0  0  0  0  0  0  0  0  0
  147.7806  133.2808  161.9340 C   0  0  0  0  0  0  0  0  0  0  0  0
  147.7739  131.8762  161.2912 C   0  0  0  0  0  0  0  0  0  0  0  0
  148.8770  130.9245  161.7830 C   0  0  0  0  0  0  0  0  0  0  0  0
  148.9902  129.7926  160.9443 O   0  0  0  0  0  0  0  0  0  0  0  0
  146.4170  131.1440  161.3330 C   0  0  0  0  0  0  0  0  0  0  0  0
  146.4439  129.9630  160.5573 O   0  0  0  0  0  0  0  0  0  0  0  0
  148.0788  132.6272  159.9747 C   0  0  0  0  0  0  0  0  0  0  0  0
  151.4735  139.1319  158.8359 C   0  0  0  0  0  0  0  0  0  0  0  0
  151.6214  140.6285  159.1507 C   0  0  0  0  0  0  0  0  0  0  0  0
  149.0142  144.1214  161.3694 H   0  0  0  0  0  0  0  0  0  0  0  0
  148.1397  144.8047  159.9904 H   0  0  0  0  0  0  0  0  0  0  0  0
  149.0831  145.8580  161.0503 H   0  0  0  0  0  0  0  0  0  0  0  0
  149.6698  142.7661  159.3290 H   0  0  0  0  0  0  0  0  0  0  0  0
  151.3555  143.5660  157.2819 H   0  0  0  0  0  0  0  0  0  0  0  0
  153.6375  143.2430  158.1567 H   0  0  0  0  0  0  0  0  0  0  0  0
  153.0118  142.8195  159.7500 H   0  0  0  0  0  0  0  0  0  0  0  0
  152.8379  144.4574  159.1273 H   0  0  0  0  0  0  0  0  0  0  0  0
  152.0555  141.2594  157.1441 H   0  0  0  0  0  0  0  0  0  0  0  0
  149.1603  141.4305  158.0933 H   0  0  0  0  0  0  0  0  0  0  0  0
  149.7085  141.6684  156.4509 H   0  0  0  0  0  0  0  0  0  0  0  0
  148.7881  139.3952  156.7815 H   0  0  0  0  0  0  0  0  0  0  0  0
  150.4690  139.3484  156.2740 H   0  0  0  0  0  0  0  0  0  0  0  0
  150.4103  134.8306  156.4837 H   0  0  0  0  0  0  0  0  0  0  0  0
  147.1967  136.4176  161.8333 H   0  0  0  0  0  0  0  0  0  0  0  0
  146.3875  133.9211  160.3965 H   0  0  0  0  0  0  0  0  0  0  0  0
  148.7638  133.5752  162.3065 H   0  0  0  0  0  0  0  0  0  0  0  0
  147.0129  133.4423  162.6912 H   0  0  0  0  0  0  0  0  0  0  0  0
  149.8445  131.4240  161.8368 H   0  0  0  0  0  0  0  0  0  0  0  0
  148.6608  130.5702  162.7914 H   0  0  0  0  0  0  0  0  0  0  0  0
  149.5741  129.1726  161.3539 H   0  0  0  0  0  0  0  0  0  0  0  0
  146.1328  130.8876  162.3538 H   0  0  0  0  0  0  0  0  0  0  0  0
  145.6156  131.7748  160.9484 H   0  0  0  0  0  0  0  0  0  0  0  0
  147.2457  129.9512  160.0571 H   0  0  0  0  0  0  0  0  0  0  0  0
  147.5611  132.2477  159.0933 H   0  0  0  0  0  0  0  0  0  0  0  0
  149.1485  132.7310  159.7824 H   0  0  0  0  0  0  0  0  0  0  0  0
  151.6612  138.5563  159.7418 H   0  0  0  0  0  0  0  0  0  0  0  0
  152.2317  138.8286  158.1123 H   0  0  0  0  0  0  0  0  0  0  0  0
  152.6312  140.8048  159.5211 H   0  0  0  0  0  0  0  0  0  0  0  0
  150.9447  140.8957  159.9638 H   0  0  0  0  0  0  0  0  0  0  0  0
  1  2  1  0  0  0  0
  1 30  1  0  0  0  0
  1 31  1  0  0  0  0
  1 32  1  0  0  0  0
  2  3  2  0  0  0  0
  2  4  1  0  0  0  0
  4  5  1  0  0  0  0
  4 33  1  0  0  0  0
  5  6  1  0  0  0  0
  5  7  1  0  0  0  0
  5 34  1  0  0  0  0
  6 35  1  0  0  0  0
  6 36  1  0  0  0  0
  6 37  1  0  0  0  0
  7 29  1  0  0  0  0
  7  8  1  0  0  0  0
  7 38  1  0  0  0  0
  8  9  1  0  0  0  0
  8 39  1  0  0  0  0
  8 40  1  0  0  0  0
  9 10  1  0  0  0  0
  9 41  1  0  0  0  0
  9 42  1  0  0  0  0
 10 11  1  0  0  0  0
 10 28  1  0  0  0  0
 11 16  1  0  0  0  0
 11 12  2  0  0  0  0
 12 13  1  0  0  0  0
 13 14  2  0  0  0  0
 13 43  1  0  0  0  0
 14 15  1  0  0  0  0
 15 19  1  0  0  0  0
 15 16  2  0  0  0  0
 16 17  1  0  0  0  0
 17 18  2  0  0  0  0
 18 19  1  0  0  0  0
 18 44  1  0  0  0  0
 19 20  1  0  0  0  0
 20 27  1  0  0  0  0
 20 21  1  0  0  0  0
 20 45  1  0  0  0  0
 21 22  1  0  0  0  0
 21 46  1  0  0  0  0
 21 47  1  0  0  0  0
 22 23  1  0  0  0  0
 22 25  1  0  0  0  0
 22 27  1  0  0  0  0
 23 24  1  0  0  0  0
 23 48  1  0  0  0  0
 23 49  1  0  0  0  0
 24 50  1  0  0  0  0
 25 26  1  0  0  0  0
 25 51  1  0  0  0  0
 25 52  1  0  0  0  0
 26 53  1  0  0  0  0
 27 54  1  0  0  0  0
 27 55  1  0  0  0  0
 28 29  1  0  0  0  0
 28 56  1  0  0  0  0
 28 57  1  0  0  0  0
 29 58  1  0  0  0  0
 29 59  1  0  0  0  0
M  END
> <s_m_source_file>
AV-unprocessed.smi

> <i_m_source_file_index>
211

> <i_lp_mmshare_version>
43012

> <i_f3d_flags>
0

> <s_epik_input>
W0NIM11DKD1PKVtOSF1bQ0BIXShbQ0gzXSlbQ0hdMVtDSDJdW0NIMl1OKFtDSDJdW0NIMl0xKWMobltjSF1uMiljKGMyMyluW2NIXW4zW0NIXShbQ0gyXTQpW0NIMl1DNChbQ0gyXVtPSF0pW0NIMl1bT0hd

> <s_epik_cmdline>
J2VwaWtfcHl0aG9uJywgJy1waCcsICc3LjAnLCAnLXRuJywgJzgnLCAnLW1hJywgJzIwMCcsICctbWV0YWxfYmluZGluZycsICctaW1hZScsICc8aW5maWxlLm1hZT4nLCAnLW9tYWUnLCAnPG91dGZpbGUubWFlPic=

> <r_lp_tautomer_probability>
1

> <r_epik_Ionization_Penalty>
0.00335435

> <r_epik_Ionization_Penalty_Charging>
0

> <r_epik_Ionization_Penalty_Neutral>
0.00335435

> <r_epik_State_Penalty>
0.00231338

> <r_epik_Charging_Adjusted_Penalty>
0.00231338

> <i_epik_Tot_Q>
0

> <i_epik_Tot_abs_Q>
0

> <r_epik_Metal_State_Penalty>
-0

> <b_epik_Metal_Only>
0

> <s_lp_Force_Field>
OPLS_2005

> <r_lp_Energy>
40.8238

> <b_lp_Chiralities_Consistent>
1

> <s_lp_Variant>
AV-unprocessed.smi:211-2

> <Gold.Version>
5.8.1

> <Gold.Id.Protein>
6NUR|6NUR_protein|mol2

> <Gold.PLP.Fitness>
46.4435

> <Gold.PLP.PLP>
-41.6346

> <Gold.PLP.part.hbond>
-4.1310

> <Gold.PLP.part.metal>
0.0000

> <Gold.PLP.part.buried>
-5.4487

> <Gold.PLP.part.nonpolar>
-33.5783

> <Gold.PLP.part.repulsive>
0.2791

> <Gold.PLP.ligand.clash>
0.0000

> <Gold.PLP.ligand.torsion>
0.8185

> <Gold.PLP.Chemscore.Hbond>
1.8502

> <Gold.PLP.Chemscore.CHOScore>
0.0000

> <Gold.PLP.Chemscore.Metal>
0.0000

> <Gold.Chemscore.Hbonds>
donor molecule, donor type, donor heavy atom, donor atom, acceptor molecule, acceptor atom, score
      P1  H  6896  6907       L1    14  0.67
      P1  H  6931  6943       L1    17  0.61
      P1  H  6934  6947       L1    17  0.51

> <Gold.PLP.Chemscore.Internal.Correction>
0.8951

> <Gold.Rescore>
     Score         DG    S(hbond)    S(metal)    S(lipo)     H(rot)  DE(clash)    DE(int)     intcor
      7.40     -10.07       1.27        0.00      88.78       3.92       0.10       2.57       ----

> <Gold.Chemscore.Fitness>
7.3990

> <Gold.Chemscore.DG>
-10.0697

> <Gold.Chemscore.ZeroCoef>
-5.4800

> <Gold.Chemscore.Hbond>
1.2653

> <Gold.Chemscore.Metal>
0.0000

> <Gold.Chemscore.Lipo>
88.7802

> <Gold.Chemscore.Internal_Hbond>
0.0000

> <Gold.Chemscore.DEClash>
0.1031

> <Gold.Chemscore.DEInternal>
2.5676

> <Gold.Chemscore.Rot>
3.9155

> <Gold.Chemscore.Internal.Correction>
   9.000000E+99

> <Gold.Chemscore.Hbonds>
donor molecule, donor type, donor heavy atom, donor atom, acceptor molecule, acceptor atom, score
      P1  H  6896  6907       L1    14  0.01
      P1  H  6931  6943       L1    17  0.24
      P1  H  6934  6947       L1    17  0.30

> <Gold.Chemscore.Hbond.Weighted>
-4.2260

> <Gold.Chemscore.Metal.Weighted>
-0.0000

> <Gold.Chemscore.Lipo.Weighted>
-10.3873

> <Gold.Chemscore.Internal_Hbond.Weighted>
0.0000

> <Gold.Chemscore.DEClash.Weighted>
0.1031

> <Gold.Chemscore.DEInternal.Weighted>
2.5676

> <Gold.Chemscore.Rot.Weighted>
10.0236

> <Gold.Chemscore.Internal.Correction.Weighted>
   9.000000E+99

> <Gold.Protein.RotatedTorsions>
[ 6907 6896 6895 6894 ] final -108.59 input  -60.11 | X-H torsion
[ 7974 7965 7964 7962 ] final  -98.73 input  175.53 | X-H torsion
[ 8008 7997 7996 7995 ] final  140.34 input   59.86 | X-H torsion
[ 10167 10162 10161 10158 ] final   61.01 input  -65.29 | X-H torsion
[ 10718 10713 10712 10709 ] final   11.14 input   66.30 | X-H torsion
[ 10763 10752 10751 10750 ] final -162.27 input  -60.55 | X-H torsion
[ 11005 11000 10999 10996 ] final -177.09 input  -57.11 | X-H torsion

> <Gold.Protein.ActiveResidues>
 VAL166  LYS551  ARG553  GLY616  TRP617  ASP618  TYR619  PRO620  LYS621  CYS622 
 ASP623  PHE694  ASN695  SER759  ASP760  ASP761  ALA762  ILE779  LEU786  VAL792 
 PHE793  MET794  SER795  GLU796  ALA797  LYS798  CYS799  TRP800  GLU811  SER814 

> <Gold.Protein.RotatedAtoms>
  150.7511  133.9655  159.3528 H   0  0  0  0  0  0  0  0  0  0  0  0  # atno 6907 bound_to 6896
  151.7584  135.0814  160.0351 H   0  0  0  0  0  0  0  0  0  0  0  0  # atno 6908 bound_to 6896
  152.3419  133.6040  159.5919 H   0  0  0  0  0  0  0  0  0  0  0  0  # atno 6909 bound_to 6896
  145.3168  140.9413  143.2738 H   0  0  0  0  0  0  0  0  0  0  0  0  # atno 7974 bound_to 7965
  156.2980  140.2344  156.4386 H   0  0  0  0  0  0  0  0  0  0  0  0  # atno 8008 bound_to 7997
  154.8206  140.0438  157.1428 H   0  0  0  0  0  0  0  0  0  0  0  0  # atno 8009 bound_to 7997
  154.9319  140.3018  155.5167 H   0  0  0  0  0  0  0  0  0  0  0  0  # atno 8010 bound_to 7997
  140.1593  144.4386  150.6717 H   0  0  0  0  0  0  0  0  0  0  0  0  # atno 10167 bound_to 10162
  156.9912  130.6043  149.5686 H   0  0  0  0  0  0  0  0  0  0  0  0  # atno 10718 bound_to 10713
  154.7229  135.3029  154.9017 H   0  0  0  0  0  0  0  0  0  0  0  0  # atno 10763 bound_to 10752
  153.9883  135.6722  153.4757 H   0  0  0  0  0  0  0  0  0  0  0  0  # atno 10764 bound_to 10752
  153.0850  135.4989  154.8497 H   0  0  0  0  0  0  0  0  0  0  0  0  # atno 10765 bound_to 10752
  140.4448  134.6398  157.4774 H   0  0  0  0  0  0  0  0  0  0  0  0  # atno 11005 bound_to 11000
  144.8971  139.4698  143.6650 LP  0  0  0  0  0  0  0  0  0  0  0  0  # atno 17320 bound_to 7965
  146.3097  139.7704  142.9029 LP  0  0  0  0  0  0  0  0  0  0  0  0  # atno 17321 bound_to 7965
  140.6653  143.2266  151.5758 LP  0  0  0  0  0  0  0  0  0  0  0  0  # atno 17342 bound_to 10162
  139.5388  144.2704  152.1308 LP  0  0  0  0  0  0  0  0  0  0  0  0  # atno 17343 bound_to 10162
  156.0206  130.5301  150.8265 LP  0  0  0  0  0  0  0  0  0  0  0  0  # atno 17370 bound_to 10713
  157.5457  131.0942  150.9765 LP  0  0  0  0  0  0  0  0  0  0  0  0  # atno 17371 bound_to 10713
  140.0046  134.6784  155.9476 LP  0  0  0  0  0  0  0  0  0  0  0  0  # atno 17394 bound_to 11000
  141.1690  133.6537  156.4583 LP  0  0  0  0  0  0  0  0  0  0  0  0  # atno 17395 bound_to 11000

$$$$
