AV-unprocessed.smi:147|AV-procd|sdf|1201|dock9
  -GOLD-   2262018363D 1   1.00000     0.00000
 Structure written by MMmdl.
 55 57  0  0  0  0  0  0  0  0  1 V2000
  152.0904  141.2215  158.4824 C   0  0  0  0  0  0  0  0  0  0  0  0
  151.2630  142.1474  157.5755 C   0  0  0  0  0  0  0  0  0  0  0  0
  150.0760  142.7583  158.3378 C   0  0  0  0  0  0  0  0  0  0  0  0
  150.7750  141.3969  156.3298 C   0  0  0  0  0  0  0  0  0  0  0  0
  151.2069  140.2722  156.0742 O   0  0  0  0  0  0  0  0  0  0  0  0
  149.8715  142.0284  155.5645 N   0  0  0  0  0  0  0  0  0  0  0  0
  149.2722  141.4814  154.3540 C   0  0  0  0  0  0  0  0  0  0  0  0
  148.8026  140.0308  154.5692 C   0  0  0  0  0  0  0  0  0  0  0  0
  147.3969  139.8387  154.2107 N   0  0  0  0  0  0  0  0  0  0  0  0
  146.5146  140.9981  154.2699 C   0  0  0  0  0  0  0  0  0  0  0  0
  146.8557  138.5865  154.1666 C   0  0  0  0  0  0  0  0  0  0  0  0
  146.7698  137.8707  155.3209 N   0  0  0  0  0  0  0  0  0  0  0  0
  146.2427  136.6444  155.3326 C   0  0  0  0  0  0  0  0  0  0  0  0
  145.7516  135.9407  154.3138 N   0  0  0  0  0  0  0  0  0  0  0  0
  145.8426  136.6364  153.1453 C   0  0  0  0  0  0  0  0  0  0  0  0
  146.3685  137.9522  152.9814 C   0  0  0  0  0  0  0  0  0  0  0  0
  146.2800  138.3170  151.6410 N   0  0  0  0  0  0  0  0  0  0  0  0
  145.7287  137.2901  151.0559 C   0  0  0  0  0  0  0  0  0  0  0  0
  145.4613  136.2230  151.8806 N   0  0  0  0  0  0  0  0  0  0  0  0
  144.8324  134.9887  151.5112 C   0  0  0  0  0  0  0  0  0  0  0  0
  145.4686  133.6423  151.8633 C   0  0  0  0  0  0  0  0  0  0  0  0
  144.8894  133.0356  150.5656 C   0  0  0  0  0  0  0  0  0  0  0  0
  145.8368  132.1045  149.7919 C   0  0  0  0  0  0  0  0  0  0  0  0
  147.1880  132.4615  149.9990 O   0  0  0  0  0  0  0  0  0  0  0  0
  143.5162  132.3506  150.7157 C   0  0  0  0  0  0  0  0  0  0  0  0
  142.9258  132.0958  149.4571 O   0  0  0  0  0  0  0  0  0  0  0  0
  144.8442  134.4953  150.0619 C   0  0  0  0  0  0  0  0  0  0  0  0
  152.9318  140.7855  157.9426 H   0  0  0  0  0  0  0  0  0  0  0  0
  151.4878  140.4029  158.8782 H   0  0  0  0  0  0  0  0  0  0  0  0
  152.4972  141.7711  159.3315 H   0  0  0  0  0  0  0  0  0  0  0  0
  151.9105  142.9644  157.2529 H   0  0  0  0  0  0  0  0  0  0  0  0
  149.4896  143.4176  157.6966 H   0  0  0  0  0  0  0  0  0  0  0  0
  150.4215  143.3508  159.1852 H   0  0  0  0  0  0  0  0  0  0  0  0
  149.4072  141.9882  158.7244 H   0  0  0  0  0  0  0  0  0  0  0  0
  149.5707  142.9502  155.8462 H   0  0  0  0  0  0  0  0  0  0  0  0
  148.4276  142.1159  154.0845 H   0  0  0  0  0  0  0  0  0  0  0  0
  149.9804  141.5409  153.5261 H   0  0  0  0  0  0  0  0  0  0  0  0
  149.4019  139.3580  153.9548 H   0  0  0  0  0  0  0  0  0  0  0  0
  148.9832  139.7184  155.5986 H   0  0  0  0  0  0  0  0  0  0  0  0
  146.0850  141.2026  153.2891 H   0  0  0  0  0  0  0  0  0  0  0  0
  147.0596  141.8890  154.5831 H   0  0  0  0  0  0  0  0  0  0  0  0
  145.7059  140.8387  154.9839 H   0  0  0  0  0  0  0  0  0  0  0  0
  146.2128  136.1564  156.2956 H   0  0  0  0  0  0  0  0  0  0  0  0
  145.5103  137.2810  149.9978 H   0  0  0  0  0  0  0  0  0  0  0  0
  143.8118  135.0441  151.8933 H   0  0  0  0  0  0  0  0  0  0  0  0
  146.5593  133.6873  151.8644 H   0  0  0  0  0  0  0  0  0  0  0  0
  145.0984  133.2003  152.7887 H   0  0  0  0  0  0  0  0  0  0  0  0
  145.7135  131.0709  150.1166 H   0  0  0  0  0  0  0  0  0  0  0  0
  145.6263  132.1149  148.7222 H   0  0  0  0  0  0  0  0  0  0  0  0
  147.7165  131.6804  149.9395 H   0  0  0  0  0  0  0  0  0  0  0  0
  143.6061  131.3988  151.2391 H   0  0  0  0  0  0  0  0  0  0  0  0
  142.8304  132.9564  151.3083 H   0  0  0  0  0  0  0  0  0  0  0  0
  142.2412  132.7310  149.3127 H   0  0  0  0  0  0  0  0  0  0  0  0
  143.9539  134.7551  149.4886 H   0  0  0  0  0  0  0  0  0  0  0  0
  145.7507  134.7868  149.5278 H   0  0  0  0  0  0  0  0  0  0  0  0
  1  2  1  0  0  0  0
  1 28  1  0  0  0  0
  1 29  1  0  0  0  0
  1 30  1  0  0  0  0
  2  3  1  0  0  0  0
  2  4  1  0  0  0  0
  2 31  1  0  0  0  0
  3 32  1  0  0  0  0
  3 33  1  0  0  0  0
  3 34  1  0  0  0  0
  4  5  2  0  0  0  0
  4  6  1  0  0  0  0
  6  7  1  0  0  0  0
  6 35  1  0  0  0  0
  7  8  1  0  0  0  0
  7 36  1  0  0  0  0
  7 37  1  0  0  0  0
  8  9  1  0  0  0  0
  8 38  1  0  0  0  0
  8 39  1  0  0  0  0
  9 10  1  0  0  0  0
  9 11  1  0  0  0  0
 10 40  1  0  0  0  0
 10 41  1  0  0  0  0
 10 42  1  0  0  0  0
 11 16  1  0  0  0  0
 11 12  2  0  0  0  0
 12 13  1  0  0  0  0
 13 14  2  0  0  0  0
 13 43  1  0  0  0  0
 14 15  1  0  0  0  0
 15 19  1  0  0  0  0
 15 16  2  0  0  0  0
 16 17  1  0  0  0  0
 17 18  2  0  0  0  0
 18 19  1  0  0  0  0
 18 44  1  0  0  0  0
 19 20  1  0  0  0  0
 20 27  1  0  0  0  0
 20 21  1  0  0  0  0
 20 45  1  0  0  0  0
 21 22  1  0  0  0  0
 21 46  1  0  0  0  0
 21 47  1  0  0  0  0
 22 23  1  0  0  0  0
 22 25  1  0  0  0  0
 22 27  1  0  0  0  0
 23 24  1  0  0  0  0
 23 48  1  0  0  0  0
 23 49  1  0  0  0  0
 24 50  1  0  0  0  0
 25 26  1  0  0  0  0
 25 51  1  0  0  0  0
 25 52  1  0  0  0  0
 26 53  1  0  0  0  0
 27 54  1  0  0  0  0
 27 55  1  0  0  0  0
M  END
> <s_m_source_file>
AV-unprocessed.smi

> <i_m_source_file_index>
147

> <i_lp_mmshare_version>
43012

> <i_f3d_flags>
0

> <s_epik_input>
W0NIM11bQ0hdKFtDSDNdKUMoPU8pW05IXVtDSDJdW0NIMl1OKFtDSDNdKWMobltjSF1uMSljKGMxMiluW2NIXW4yW0NIXShbQ0gyXTMpW0NIMl1DMyhbQ0gyXVtPSF0pW0NIMl1bT0hd

> <s_epik_cmdline>
J2VwaWtfcHl0aG9uJywgJy1waCcsICc3LjAnLCAnLXRuJywgJzgnLCAnLW1hJywgJzIwMCcsICctbWV0YWxfYmluZGluZycsICctaW1hZScsICc8aW5maWxlLm1hZT4nLCAnLW9tYWUnLCAnPG91dGZpbGUubWFlPic=

> <r_lp_tautomer_probability>
1

> <r_epik_Ionization_Penalty>
0.00124047

> <r_epik_Ionization_Penalty_Charging>
0

> <r_epik_Ionization_Penalty_Neutral>
0.00124047

> <r_epik_State_Penalty>
0.000682986

> <r_epik_Charging_Adjusted_Penalty>
0.000682986

> <i_epik_Tot_Q>
0

> <i_epik_Tot_abs_Q>
0

> <r_epik_Metal_State_Penalty>
-0

> <b_epik_Metal_Only>
0

> <s_lp_Force_Field>
OPLS_2005

> <r_lp_Energy>
28.5646

> <b_lp_Chiralities_Consistent>
1

> <s_lp_Variant>
AV-unprocessed.smi:147-1

> <Gold.Version>
5.8.1

> <Gold.Id.Protein>
6NUR|6NUR_protein|mol2

> <Gold.PLP.Fitness>
49.4133

> <Gold.PLP.PLP>
-41.7725

> <Gold.PLP.part.hbond>
-5.5796

> <Gold.PLP.part.metal>
0.0000

> <Gold.PLP.part.buried>
-1.1247

> <Gold.PLP.part.nonpolar>
-36.9372

> <Gold.PLP.part.repulsive>
1.2675

> <Gold.PLP.ligand.clash>
0.0000

> <Gold.PLP.ligand.torsion>
2.9705

> <Gold.PLP.Chemscore.Hbond>
3.7225

> <Gold.PLP.Chemscore.CHOScore>
0.5431

> <Gold.PLP.Chemscore.Metal>
0.0000

> <Gold.Chemscore.Hbonds>
donor molecule, donor type, donor heavy atom, donor atom, acceptor molecule, acceptor atom, score
      L1  H     6    35       P1  8028  1.00
      L1  H    24    50       P1 10747  0.99
      L1  H    26    53       P1 10186  0.84
      P1  H 10785 10796       L1    26  0.83
      L1  C    18    44       P1 10171  0.50

> <Gold.PLP.Chemscore.Internal.Correction>
0.7850

> <Gold.Rescore>
     Score         DG    S(hbond)    S(metal)    S(lipo)     H(rot)  DE(clash)    DE(int)     intcor
      9.79     -15.79       3.22        0.00      87.02       4.15       1.56       4.43       ----

> <Gold.Chemscore.Fitness>
9.7910

> <Gold.Chemscore.DG>
-15.7857

> <Gold.Chemscore.ZeroCoef>
-5.4800

> <Gold.Chemscore.Hbond>
3.2160

> <Gold.Chemscore.Metal>
0.0000

> <Gold.Chemscore.Lipo>
87.0174

> <Gold.Chemscore.Internal_Hbond>
0.0000

> <Gold.Chemscore.DEClash>
1.5608

> <Gold.Chemscore.DEInternal>
4.4339

> <Gold.Chemscore.Rot>
4.1472

> <Gold.Chemscore.Internal.Correction>
   9.000000E+99

> <Gold.Chemscore.Hbonds>
donor molecule, donor type, donor heavy atom, donor atom, acceptor molecule, acceptor atom, score
      L1  H     6    35       P1  8028  0.99
      L1  H    24    50       P1 10747  0.90
      L1  H    26    53       P1 10186  0.82
      P1  H 10785 10796       L1    26  0.74

> <Gold.Chemscore.Hbond.Weighted>
-10.7414

> <Gold.Chemscore.Metal.Weighted>
-0.0000

> <Gold.Chemscore.Lipo.Weighted>
-10.1810

> <Gold.Chemscore.Internal_Hbond.Weighted>
0.0000

> <Gold.Chemscore.DEClash.Weighted>
1.5608

> <Gold.Chemscore.DEInternal.Weighted>
4.4339

> <Gold.Chemscore.Rot.Weighted>
10.6167

> <Gold.Chemscore.Internal.Correction.Weighted>
   9.000000E+99

> <Gold.Protein.RotatedTorsions>
[ 6907 6896 6895 6894 ] final  -17.83 input  -60.11 | X-H torsion
[ 7974 7965 7964 7962 ] final  -76.25 input  175.53 | X-H torsion
[ 8008 7997 7996 7995 ] final  171.30 input   59.86 | X-H torsion
[ 10167 10162 10161 10158 ] final  -78.82 input  -65.29 | X-H torsion
[ 10718 10713 10712 10709 ] final  -90.46 input   66.30 | X-H torsion
[ 10763 10752 10751 10750 ] final -128.85 input  -60.55 | X-H torsion
[ 11005 11000 10999 10996 ] final  106.68 input  -57.11 | X-H torsion

> <Gold.Protein.ActiveResidues>
 VAL166  LYS551  ARG553  GLY616  TRP617  ASP618  TYR619  PRO620  LYS621  CYS622 
 ASP623  PHE694  ASN695  SER759  ASP760  ASP761  ALA762  ILE779  LEU786  VAL792 
 PHE793  MET794  SER795  GLU796  ALA797  LYS798  CYS799  TRP800  GLU811  SER814 

> <Gold.Protein.RotatedAtoms>
  151.2874  135.0732  159.9191 H   0  0  0  0  0  0  0  0  0  0  0  0  # atno 6907 bound_to 6896
  152.5323  133.9968  159.7886 H   0  0  0  0  0  0  0  0  0  0  0  0  # atno 6908 bound_to 6896
  151.0232  133.5807  159.2699 H   0  0  0  0  0  0  0  0  0  0  0  0  # atno 6909 bound_to 6896
  145.6153  140.9376  143.1167 H   0  0  0  0  0  0  0  0  0  0  0  0  # atno 7974 bound_to 7965
  156.1284  140.1515  156.9102 H   0  0  0  0  0  0  0  0  0  0  0  0  # atno 8008 bound_to 7997
  154.4890  140.0857  156.7591 H   0  0  0  0  0  0  0  0  0  0  0  0  # atno 8009 bound_to 7997
  155.4301  140.3427  155.4281 H   0  0  0  0  0  0  0  0  0  0  0  0  # atno 8010 bound_to 7997
  140.4648  143.2443  151.8294 H   0  0  0  0  0  0  0  0  0  0  0  0  # atno 10167 bound_to 10162
  155.9988  130.4910  150.5326 H   0  0  0  0  0  0  0  0  0  0  0  0  # atno 10718 bound_to 10713
  154.8757  135.3915  154.3824 H   0  0  0  0  0  0  0  0  0  0  0  0  # atno 10763 bound_to 10752
  153.4570  135.7029  153.6079 H   0  0  0  0  0  0  0  0  0  0  0  0  # atno 10764 bound_to 10752
  153.4594  135.3815  155.2298 H   0  0  0  0  0  0  0  0  0  0  0  0  # atno 10765 bound_to 10752
  139.8817  134.9377  156.5703 H   0  0  0  0  0  0  0  0  0  0  0  0  # atno 11005 bound_to 11000
  144.7253  139.7896  143.7367 LP  0  0  0  0  0  0  0  0  0  0  0  0  # atno 17320 bound_to 7965
  146.1473  139.4546  143.0071 LP  0  0  0  0  0  0  0  0  0  0  0  0  # atno 17321 bound_to 7965
  139.4810  144.4964  151.9118 LP  0  0  0  0  0  0  0  0  0  0  0  0  # atno 17342 bound_to 10162
  140.4049  144.2444  150.5891 LP  0  0  0  0  0  0  0  0  0  0  0  0  # atno 17343 bound_to 10162
  157.3273  131.0693  151.1887 LP  0  0  0  0  0  0  0  0  0  0  0  0  # atno 17370 bound_to 10713
  157.2780  130.6736  149.6052 LP  0  0  0  0  0  0  0  0  0  0  0  0  # atno 17371 bound_to 10713
  140.8103  133.8434  155.8804 LP  0  0  0  0  0  0  0  0  0  0  0  0  # atno 17394 bound_to 11000
  140.9512  134.1776  157.4726 LP  0  0  0  0  0  0  0  0  0  0  0  0  # atno 17395 bound_to 11000

$$$$
