AV-unprocessed.smi:54|AV-procd|sdf|552|dock9
  -GOLD-   2262016453D 1   1.00000     0.00000
 Structure written by MMmdl.
 43 45  0  0  0  0  0  0  0  0  2 V2000
  146.6648  135.0949  162.1200 C   0  0  0  0  0  0  0  0  0  0  0  0
  147.0299  135.1046  160.6264 C   0  0  0  0  0  0  0  0  0  0  0  0
  147.4332  133.7025  160.1398 C   0  0  0  0  0  0  0  0  0  0  0  0
  148.1477  136.1189  160.3466 C   0  0  0  0  0  0  0  0  0  0  0  0
  148.5932  136.7938  161.2779 O   0  0  0  0  0  0  0  0  0  0  0  0
  148.5582  136.1871  159.0604 N   0  0  0  0  0  0  0  0  0  0  0  0
  149.5484  136.9965  158.4921 C   0  0  0  0  0  0  0  0  0  0  0  0
  149.3275  137.6170  157.3544 N   0  0  0  0  0  0  0  0  0  0  0  0
  150.4086  138.3750  156.9511 C   0  0  0  0  0  0  0  0  0  0  0  0
  151.6102  138.5290  157.5856 C   0  0  0  0  0  0  0  0  0  0  0  0
  152.4572  139.3693  156.8720 N   0  0  0  0  0  0  0  0  0  0  0  0
  151.7080  139.6892  155.8173 C   0  0  0  0  0  0  0  0  0  0  0  0
  150.4769  139.1387  155.7941 N   0  0  0  0  0  0  0  0  0  0  0  0
  149.4115  139.3011  154.7593 C   0  0  1  0  0  0  0  0  0  0  0  0
  148.2155  138.7862  155.2450 O   0  0  0  0  0  0  0  0  0  0  0  0
  147.1245  139.4156  154.5773 C   0  0  1  0  0  0  0  0  0  0  0  0
  146.0388  139.7072  155.6244 C   0  0  0  0  0  0  0  0  0  0  0  0
  145.0048  140.4845  155.0581 O   0  0  0  0  0  0  0  0  0  0  0  0
  147.7003  140.6822  153.9067 C   0  0  2  0  0  0  0  0  0  0  0  0
  147.7003  140.5086  152.5026 O   0  0  0  0  0  0  0  0  0  0  0  0
  149.1325  140.7655  154.4176 C   0  0  1  0  0  0  0  0  0  0  0  0
  149.2179  141.6229  155.5419 O   0  0  0  0  0  0  0  0  0  0  0  0
  151.7867  137.8025  158.8656 C   0  0  0  0  0  0  0  0  0  0  0  0
  152.8500  137.9101  159.4737 O   0  0  0  0  0  0  0  0  0  0  0  0
  150.7158  137.0543  159.2698 N   0  5  0  0  0  0  0  0  0  0  0  0
  149.7473  138.7175  153.9005 H   0  0  0  0  0  0  0  0  0  0  0  0
  146.7387  138.7156  153.8336 H   0  0  0  0  0  0  0  0  0  0  0  0
  147.1281  141.5826  154.1353 H   0  0  0  0  0  0  0  0  0  0  0  0
  149.8396  141.1140  153.6630 H   0  0  0  0  0  0  0  0  0  0  0  0
  146.3826  136.0904  162.4654 H   0  0  0  0  0  0  0  0  0  0  0  0
  147.4975  134.7518  162.7355 H   0  0  0  0  0  0  0  0  0  0  0  0
  145.8199  134.4325  162.3094 H   0  0  0  0  0  0  0  0  0  0  0  0
  146.1427  135.4079  160.0679 H   0  0  0  0  0  0  0  0  0  0  0  0
  147.7122  133.7142  159.0853 H   0  0  0  0  0  0  0  0  0  0  0  0
  146.6073  132.9995  160.2514 H   0  0  0  0  0  0  0  0  0  0  0  0
  148.2798  133.3091  160.7039 H   0  0  0  0  0  0  0  0  0  0  0  0
  148.0631  135.5827  158.4215 H   0  0  0  0  0  0  0  0  0  0  0  0
  152.0679  140.3434  155.0370 H   0  0  0  0  0  0  0  0  0  0  0  0
  145.6048  138.7738  155.9837 H   0  0  0  0  0  0  0  0  0  0  0  0
  146.4577  140.2226  156.4894 H   0  0  0  0  0  0  0  0  0  0  0  0
  144.8282  140.1616  154.1876 H   0  0  0  0  0  0  0  0  0  0  0  0
  148.5506  140.1902  152.2408 H   0  0  0  0  0  0  0  0  0  0  0  0
  149.0764  142.5108  155.2520 H   0  0  0  0  0  0  0  0  0  0  0  0
  1  2  1  0  0  0  0
  1 30  1  0  0  0  0
  1 31  1  0  0  0  0
  1 32  1  0  0  0  0
  2  3  1  0  0  0  0
  2  4  1  0  0  0  0
  2 33  1  0  0  0  0
  3 34  1  0  0  0  0
  3 35  1  0  0  0  0
  3 36  1  0  0  0  0
  4  5  2  0  0  0  0
  4  6  1  0  0  0  0
  6 37  1  0  0  0  0
  6  7  1  0  0  0  0
  7 25  1  0  0  0  0
  7  8  2  0  0  0  0
  8  9  1  0  0  0  0
  9 13  1  0  0  0  0
  9 10  2  0  0  0  0
 10 11  1  0  0  0  0
 10 23  1  0  0  0  0
 11 12  2  0  0  0  0
 12 13  1  0  0  0  0
 12 38  1  0  0  0  0
 13 14  1  0  0  0  0
 14 26  1  0  0  0  0
 14 21  1  0  0  0  0
 14 15  1  0  0  0  0
 15 16  1  0  0  0  0
 16 27  1  0  0  0  0
 16 17  1  0  0  0  0
 16 19  1  0  0  0  0
 17 18  1  0  0  0  0
 17 39  1  0  0  0  0
 17 40  1  0  0  0  0
 18 41  1  0  0  0  0
 19 28  1  0  0  0  0
 19 20  1  0  0  0  0
 19 21  1  0  0  0  0
 20 42  1  0  0  0  0
 21 29  1  0  0  0  0
 21 22  1  0  0  0  0
 22 43  1  0  0  0  0
 23 24  2  0  0  0  0
 23 25  1  0  0  0  0
M  CHG  1  25  -1
M  END
> <s_m_source_file>
AV-unprocessed.smi

> <i_m_source_file_index>
54

> <i_lp_mmshare_version>
43012

> <i_f3d_flags>
0

> <s_epik_input>
W0NIM11bQ0hdKFtDSDNdKUMoPU8pW05IXWMobjEpW25IXWMoPU8pYyhjMTIpbltjSF1uMltDQEBIXTNPW0NASF0oW0NIMl1bT0hdKVtDQEBIXShbT0hdKVtDQEhdM1tPSF0=

> <s_epik_cmdline>
J2VwaWtfcHl0aG9uJywgJy1waCcsICc3LjAnLCAnLXRuJywgJzgnLCAnLW1hJywgJzIwMCcsICctbWV0YWxfYmluZGluZycsICctaW1hZScsICc8aW5maWxlLm1hZT4nLCAnLW9tYWUnLCAnPG91dGZpbGUubWFlPic=

> <r_lp_tautomer_probability>
0.85571

> <r_epik_Ionization_Penalty>
1.75936

> <r_epik_Ionization_Penalty_Charging>
4.55893e-11

> <r_epik_Ionization_Penalty_Neutral>
1.75936

> <r_epik_State_Penalty>
1.72072

> <r_epik_Charging_Adjusted_Penalty>
1.72072

> <i_epik_Tot_Q>
-1

> <i_epik_Tot_abs_Q>
1

> <r_epik_Metal_State_Penalty>
0.400338

> <b_epik_Metal_Only>
1

> <s_epik_Chemistry_Notes>
This compound contains an acetal/aminal-like group ( X-CH(R)-Y where X, Y are N, S, or O) that may be acid/base labile, releasing an aldehyde.

> <s_lp_Force_Field>
OPLS_2005

> <r_lp_Energy>
59.2625

> <b_lp_Chiralities_Consistent>
1

> <s_lp_Variant>
AV-unprocessed.smi:54-24

> <Gold.Version>
5.8.1

> <Gold.Id.Protein>
6NUR|6NUR_protein|mol2

> <Gold.PLP.Fitness>
46.9586

> <Gold.PLP.PLP>
-29.9315

> <Gold.PLP.part.hbond>
-5.4105

> <Gold.PLP.part.metal>
0.0000

> <Gold.PLP.part.buried>
-5.1235

> <Gold.PLP.part.nonpolar>
-21.1570

> <Gold.PLP.part.repulsive>
0.1920

> <Gold.PLP.ligand.clash>
0.0000

> <Gold.PLP.ligand.torsion>
0.6261

> <Gold.PLP.Chemscore.Hbond>
6.0824

> <Gold.PLP.Chemscore.CHOScore>
0.0000

> <Gold.PLP.Chemscore.Metal>
0.0000

> <Gold.Chemscore.Hbonds>
donor molecule, donor type, donor heavy atom, donor atom, acceptor molecule, acceptor atom, score
      L1  H    18    41       P1 10175  0.76
      L1  H    20    42       P1  7957  0.90
      L1  H    22    43       P1  8028  0.46
      P1  H  6896  6907       L1    25  1.72
      P1  H  6931  6943       L1     5  1.00
      P1  H  7997  8010       L1    11  0.93

> <Gold.PLP.Chemscore.Internal.Correction>
0.0323

> <Gold.Rescore>
     Score         DG    S(hbond)    S(metal)    S(lipo)     H(rot)  DE(clash)    DE(int)     intcor
     12.24     -16.05       4.82        0.00      40.80       4.02       0.43       3.38       ----

> <Gold.Chemscore.Fitness>
12.2446

> <Gold.Chemscore.DG>
-16.0496

> <Gold.Chemscore.ZeroCoef>
-5.4800

> <Gold.Chemscore.Hbond>
4.8160

> <Gold.Chemscore.Metal>
0.0000

> <Gold.Chemscore.Lipo>
40.7973

> <Gold.Chemscore.Internal_Hbond>
0.0000

> <Gold.Chemscore.DEClash>
0.4272

> <Gold.Chemscore.DEInternal>
3.3778

> <Gold.Chemscore.Rot>
4.0192

> <Gold.Chemscore.Internal.Correction>
   9.000000E+99

> <Gold.Chemscore.Hbonds>
donor molecule, donor type, donor heavy atom, donor atom, acceptor molecule, acceptor atom, score
      L1  H    18    41       P1 10175  0.73
      L1  H    20    42       P1  7957  0.83
      L1  H    22    43       P1  8028  0.44
      P1  H  6896  6907       L1    25  0.52
      P1  H  6931  6943       L1     5  1.00
      P1  H  7997  8010       L1    11  0.66

> <Gold.Chemscore.Hbond.Weighted>
-16.0855

> <Gold.Chemscore.Metal.Weighted>
-0.0000

> <Gold.Chemscore.Lipo.Weighted>
-4.7733

> <Gold.Chemscore.Internal_Hbond.Weighted>
0.0000

> <Gold.Chemscore.DEClash.Weighted>
0.4272

> <Gold.Chemscore.DEInternal.Weighted>
3.3778

> <Gold.Chemscore.Rot.Weighted>
10.2893

> <Gold.Chemscore.Internal.Correction.Weighted>
   9.000000E+99

> <Gold.Protein.RotatedTorsions>
[ 6907 6896 6895 6894 ] final  -21.65 input  -60.11 | X-H torsion
[ 7974 7965 7964 7962 ] final   87.09 input  175.53 | X-H torsion
[ 8008 7997 7996 7995 ] final   60.30 input   59.86 | X-H torsion
[ 10167 10162 10161 10158 ] final   19.26 input  -65.29 | X-H torsion
[ 10718 10713 10712 10709 ] final   10.56 input   66.30 | X-H torsion
[ 10763 10752 10751 10750 ] final  157.63 input  -60.55 | X-H torsion
[ 11005 11000 10999 10996 ] final  -75.82 input  -57.11 | X-H torsion

> <Gold.Protein.ActiveResidues>
 VAL166  LYS551  ARG553  GLY616  TRP617  ASP618  TYR619  PRO620  LYS621  CYS622 
 ASP623  PHE694  ASN695  SER759  ASP760  ASP761  ALA762  ILE779  LEU786  VAL792 
 PHE793  MET794  SER795  GLU796  ALA797  LYS798  CYS799  TRP800  GLU811  SER814 

> <Gold.Protein.RotatedAtoms>
  151.2301  135.0551  159.8984 H   0  0  0  0  0  0  0  0  0  0  0  0  # atno 6907 bound_to 6896
  152.5406  134.0546  159.8135 H   0  0  0  0  0  0  0  0  0  0  0  0  # atno 6908 bound_to 6896
  151.0724  133.5406  159.2657 H   0  0  0  0  0  0  0  0  0  0  0  0  # atno 6909 bound_to 6896
  145.5636  139.2306  143.2446 H   0  0  0  0  0  0  0  0  0  0  0  0  # atno 7974 bound_to 7965
  155.5801  140.3491  155.4538 H   0  0  0  0  0  0  0  0  0  0  0  0  # atno 8008 bound_to 7997
  156.0380  140.1289  157.0212 H   0  0  0  0  0  0  0  0  0  0  0  0  # atno 8009 bound_to 7997
  154.4379  140.1030  156.6180 H   0  0  0  0  0  0  0  0  0  0  0  0  # atno 8010 bound_to 7997
  140.5592  143.9368  150.6631 H   0  0  0  0  0  0  0  0  0  0  0  0  # atno 10167 bound_to 10162
  156.9828  130.6012  149.5678 H   0  0  0  0  0  0  0  0  0  0  0  0  # atno 10718 bound_to 10713
  154.2033  135.2789  155.2983 H   0  0  0  0  0  0  0  0  0  0  0  0  # atno 10763 bound_to 10752
  154.5837  135.5581  153.7213 H   0  0  0  0  0  0  0  0  0  0  0  0  # atno 10764 bound_to 10752
  153.0082  135.6351  154.2172 H   0  0  0  0  0  0  0  0  0  0  0  0  # atno 10765 bound_to 10752
  141.1649  133.6961  156.7576 H   0  0  0  0  0  0  0  0  0  0  0  0  # atno 11005 bound_to 11000
  146.1834  140.6461  142.9179 LP  0  0  0  0  0  0  0  0  0  0  0  0  # atno 17320 bound_to 7965
  144.7471  140.5096  143.6828 LP  0  0  0  0  0  0  0  0  0  0  0  0  # atno 17321 bound_to 7965
  140.2814  143.3387  152.1147 LP  0  0  0  0  0  0  0  0  0  0  0  0  # atno 17342 bound_to 10162
  139.5062  144.6809  151.6010 LP  0  0  0  0  0  0  0  0  0  0  0  0  # atno 17343 bound_to 10162
  156.0238  130.5332  150.8349 LP  0  0  0  0  0  0  0  0  0  0  0  0  # atno 17370 bound_to 10713
  157.5514  131.0944  150.9690 LP  0  0  0  0  0  0  0  0  0  0  0  0  # atno 17371 bound_to 10713
  140.2558  134.8505  157.3711 LP  0  0  0  0  0  0  0  0  0  0  0  0  # atno 17394 bound_to 11000
  140.1659  134.4670  155.7864 LP  0  0  0  0  0  0  0  0  0  0  0  0  # atno 17395 bound_to 11000

$$$$
