AV-unprocessed.smi:1856|AV-procd|sdf|7535|dock7
  -GOLD-   22720 9253D 1   1.00000     0.00000
 Structure written by MMmdl.
 44 45  0  0  0  0  0  0  0  0  1 V2000
  149.5296  133.9781  154.7415 C   0  0  0  0  0  0  0  0  0  0  0  0
  150.4184  134.1700  155.9797 C   0  0  0  0  0  0  0  0  0  0  0  0
  150.3680  135.5810  156.5981 C   0  0  0  0  0  0  0  0  0  0  0  0
  151.0558  136.6494  155.7430 C   0  0  0  0  0  0  0  0  0  0  0  0
  151.5090  136.3593  154.6358 O   0  0  0  0  0  0  0  0  0  0  0  0
  151.1070  137.8858  156.2620 N   0  0  0  0  0  0  0  0  0  0  0  0
  151.6848  139.0603  155.6133 C   0  0  2  0  0  0  0  0  0  0  0  0
  152.9996  138.7020  154.9061 C   0  0  0  0  0  0  0  0  0  0  0  0
  151.8719  140.1162  156.6719 C   0  0  0  0  0  0  0  0  0  0  0  0
  152.5739  139.8824  157.7843 N   0  0  0  0  0  0  0  0  0  0  0  0
  152.4944  141.0840  158.4585 C   0  0  0  0  0  0  0  0  0  0  0  0
  153.0365  141.4749  159.7037 C   0  0  0  0  0  0  0  0  0  0  0  0
  152.8180  142.7767  160.2001 C   0  0  0  0  0  0  0  0  0  0  0  0
  152.0557  143.7035  159.4603 C   0  0  0  0  0  0  0  0  0  0  0  0
  151.5066  143.3337  158.2175 C   0  0  0  0  0  0  0  0  0  0  0  0
  151.7288  142.0331  157.7251 C   0  0  0  0  0  0  0  0  0  0  0  0
  151.3387  141.3622  156.5691 N   0  0  0  0  0  0  0  0  0  0  0  0
  150.5269  141.9153  155.4929 C   0  0  0  0  0  0  0  0  0  0  0  0
  149.4294  140.9446  155.0106 C   0  0  1  0  0  0  0  0  0  0  0  0
  148.0774  141.1332  155.7157 C   0  0  0  0  0  0  0  0  0  0  0  0
  149.2457  141.1357  153.6242 O   0  0  0  0  0  0  0  0  0  0  0  0
  149.5444  132.9380  154.4155 H   0  0  0  0  0  0  0  0  0  0  0  0
  149.8673  134.5857  153.9019 H   0  0  0  0  0  0  0  0  0  0  0  0
  148.4940  134.2436  154.9555 H   0  0  0  0  0  0  0  0  0  0  0  0
  150.1099  133.4513  156.7397 H   0  0  0  0  0  0  0  0  0  0  0  0
  151.4487  133.9128  155.7297 H   0  0  0  0  0  0  0  0  0  0  0  0
  149.3318  135.8780  156.7635 H   0  0  0  0  0  0  0  0  0  0  0  0
  150.8346  135.5570  157.5840 H   0  0  0  0  0  0  0  0  0  0  0  0
  150.6999  138.0333  157.1745 H   0  0  0  0  0  0  0  0  0  0  0  0
  150.9926  139.4223  154.8555 H   0  0  0  0  0  0  0  0  0  0  0  0
  153.4327  139.5784  154.4234 H   0  0  0  0  0  0  0  0  0  0  0  0
  152.8379  137.9473  154.1359 H   0  0  0  0  0  0  0  0  0  0  0  0
  153.7370  138.3096  155.6075 H   0  0  0  0  0  0  0  0  0  0  0  0
  153.6212  140.7718  160.2782 H   0  0  0  0  0  0  0  0  0  0  0  0
  153.2365  143.0653  161.1531 H   0  0  0  0  0  0  0  0  0  0  0  0
  151.8920  144.6986  159.8476 H   0  0  0  0  0  0  0  0  0  0  0  0
  150.9202  144.0420  157.6515 H   0  0  0  0  0  0  0  0  0  0  0  0
  150.0726  142.8418  155.8457 H   0  0  0  0  0  0  0  0  0  0  0  0
  151.1809  142.2046  154.6697 H   0  0  0  0  0  0  0  0  0  0  0  0
  149.7578  139.9156  155.1580 H   0  0  0  0  0  0  0  0  0  0  0  0
  148.1544  140.9306  156.7840 H   0  0  0  0  0  0  0  0  0  0  0  0
  147.3262  140.4542  155.3116 H   0  0  0  0  0  0  0  0  0  0  0  0
  147.7061  142.1516  155.5953 H   0  0  0  0  0  0  0  0  0  0  0  0
  149.2951  140.2947  153.1958 H   0  0  0  0  0  0  0  0  0  0  0  0
  1  2  1  0  0  0  0
  1 22  1  0  0  0  0
  1 23  1  0  0  0  0
  1 24  1  0  0  0  0
  2  3  1  0  0  0  0
  2 25  1  0  0  0  0
  2 26  1  0  0  0  0
  3  4  1  0  0  0  0
  3 27  1  0  0  0  0
  3 28  1  0  0  0  0
  4  5  2  0  0  0  0
  4  6  1  0  0  0  0
  6  7  1  0  0  0  0
  6 29  1  0  0  0  0
  7  8  1  0  0  0  0
  7  9  1  0  0  0  0
  7 30  1  0  0  0  0
  8 31  1  0  0  0  0
  8 32  1  0  0  0  0
  8 33  1  0  0  0  0
  9 17  1  0  0  0  0
  9 10  2  0  0  0  0
 10 11  1  0  0  0  0
 11 16  2  0  0  0  0
 11 12  1  0  0  0  0
 12 13  2  0  0  0  0
 12 34  1  0  0  0  0
 13 14  1  0  0  0  0
 13 35  1  0  0  0  0
 14 15  2  0  0  0  0
 14 36  1  0  0  0  0
 15 16  1  0  0  0  0
 15 37  1  0  0  0  0
 16 17  1  0  0  0  0
 17 18  1  0  0  0  0
 18 19  1  0  0  0  0
 18 38  1  0  0  0  0
 18 39  1  0  0  0  0
 19 20  1  0  0  0  0
 19 21  1  0  0  0  0
 19 40  1  0  0  0  0
 20 41  1  0  0  0  0
 20 42  1  0  0  0  0
 20 43  1  0  0  0  0
 21 44  1  0  0  0  0
M  END
> <s_m_source_file>
AV-unprocessed.smi

> <i_m_source_file_index>
1856

> <i_lp_mmshare_version>
43012

> <i_f3d_flags>
0

> <s_epik_input>
W0NIM11bQ0gyXVtDSDJdQyg9TylbTkhdW0NASF0oW0NIM10pYyhuMSluKFtDSDJdW0NASF0oW0NIM10pW09IXSljKGMxMilbY0hdW2NIXVtjSF1bY0hdMg==

> <s_epik_cmdline>
J2VwaWtfcHl0aG9uJywgJy1waCcsICc3LjAnLCAnLXRuJywgJzgnLCAnLW1hJywgJzIwMCcsICctbWV0YWxfYmluZGluZycsICctaW1hZScsICc8aW5maWxlLm1hZT4nLCAnLW9tYWUnLCAnPG91dGZpbGUubWFlPic=

> <r_epik_Ionization_Penalty>
0.134222

> <r_epik_Ionization_Penalty_Charging>
0

> <r_epik_Ionization_Penalty_Neutral>
0.134222

> <r_epik_State_Penalty>
0.123585

> <r_epik_Charging_Adjusted_Penalty>
0.123585

> <i_epik_Tot_Q>
0

> <i_epik_Tot_abs_Q>
0

> <r_epik_Metal_State_Penalty>
0.100548

> <b_epik_Metal_Only>
0

> <s_lp_Force_Field>
OPLS_2005

> <r_lp_Energy>
3.90486

> <b_lp_Chiralities_Consistent>
1

> <s_lp_Variant>
AV-unprocessed.smi:1856-3

> <Gold.Version>
5.8.1

> <Gold.Id.Protein>
6NUR|6NUR_protein|mol2

> <Gold.PLP.Fitness>
50.6942

> <Gold.PLP.PLP>
-42.3599

> <Gold.PLP.part.hbond>
-5.0000

> <Gold.PLP.part.metal>
0.0000

> <Gold.PLP.part.buried>
-4.3542

> <Gold.PLP.part.nonpolar>
-32.7559

> <Gold.PLP.part.repulsive>
1.3604

> <Gold.PLP.ligand.clash>
0.0000

> <Gold.PLP.ligand.torsion>
0.9750

> <Gold.PLP.Chemscore.Hbond>
3.4083

> <Gold.PLP.Chemscore.CHOScore>
0.0000

> <Gold.PLP.Chemscore.Metal>
0.0000

> <Gold.Chemscore.Hbonds>
donor molecule, donor type, donor heavy atom, donor atom, acceptor molecule, acceptor atom, score
      L1  H    21    44       P1  7957  0.43
      P1  H  7997  8008       L1    10  0.51
      P1  H  8011  8017       L1    21  0.98
      P1  H 10752 10765       L1     5  1.00

> <Gold.PLP.Chemscore.Internal.Correction>
0.0594

> <Gold.Rescore>
     Score         DG    S(hbond)    S(metal)    S(lipo)     H(rot)  DE(clash)    DE(int)     intcor
     14.80     -18.78       2.13        0.00     106.36       2.45       0.34       3.64       ----

> <Gold.Chemscore.Fitness>
14.7980

> <Gold.Chemscore.DG>
-18.7782

> <Gold.Chemscore.ZeroCoef>
-5.4800

> <Gold.Chemscore.Hbond>
2.1306

> <Gold.Chemscore.Metal>
0.0000

> <Gold.Chemscore.Lipo>
106.3550

> <Gold.Chemscore.Internal_Hbond>
0.0000

> <Gold.Chemscore.DEClash>
0.3423

> <Gold.Chemscore.DEInternal>
3.6379

> <Gold.Chemscore.Rot>
2.4459

> <Gold.Chemscore.Internal.Correction>
   9.000000E+99

> <Gold.Chemscore.Hbonds>
donor molecule, donor type, donor heavy atom, donor atom, acceptor molecule, acceptor atom, score
      L1  H    21    44       P1  7957  0.41
      P1  H  7997  8008       L1    10  0.02
      P1  H  8011  8017       L1    21  0.51
      P1  H 10752 10765       L1     5  0.90

> <Gold.Chemscore.Hbond.Weighted>
-7.1161

> <Gold.Chemscore.Metal.Weighted>
-0.0000

> <Gold.Chemscore.Lipo.Weighted>
-12.4435

> <Gold.Chemscore.Internal_Hbond.Weighted>
0.0000

> <Gold.Chemscore.DEClash.Weighted>
0.3423

> <Gold.Chemscore.DEInternal.Weighted>
3.6379

> <Gold.Chemscore.Rot.Weighted>
6.2614

> <Gold.Chemscore.Internal.Correction.Weighted>
   9.000000E+99

> <Gold.Protein.RotatedTorsions>
[ 6907 6896 6895 6894 ] final  -76.09 input  -60.11 | X-H torsion
[ 7974 7965 7964 7962 ] final   86.91 input  175.53 | X-H torsion
[ 8008 7997 7996 7995 ] final  -67.81 input   59.86 | X-H torsion
[ 10167 10162 10161 10158 ] final   10.59 input  -65.29 | X-H torsion
[ 10718 10713 10712 10709 ] final  168.01 input   66.30 | X-H torsion
[ 10763 10752 10751 10750 ] final -174.21 input  -60.55 | X-H torsion
[ 11005 11000 10999 10996 ] final  -87.50 input  -57.11 | X-H torsion

> <Gold.Protein.ActiveResidues>
 VAL166  LYS551  ARG553  GLY616  TRP617  ASP618  TYR619  PRO620  LYS621  CYS622 
 ASP623  PHE694  ASN695  SER759  ASP760  ASP761  ALA762  ILE779  LEU786  VAL792 
 PHE793  MET794  SER795  GLU796  ALA797  LYS798  CYS799  TRP800  GLU811  SER814 

> <Gold.Protein.RotatedAtoms>
  150.7038  134.4623  159.5386 H   0  0  0  0  0  0  0  0  0  0  0  0  # atno 6907 bound_to 6896
  152.2296  134.8332  160.0484 H   0  0  0  0  0  0  0  0  0  0  0  0  # atno 6908 bound_to 6896
  151.9153  133.3536  159.3915 H   0  0  0  0  0  0  0  0  0  0  0  0  # atno 6909 bound_to 6896
  145.5660  139.2308  143.2433 H   0  0  0  0  0  0  0  0  0  0  0  0  # atno 7974 bound_to 7965
  154.4825  140.0885  156.7410 H   0  0  0  0  0  0  0  0  0  0  0  0  # atno 8008 bound_to 7997
  155.4434  140.3454  155.4274 H   0  0  0  0  0  0  0  0  0  0  0  0  # atno 8009 bound_to 7997
  156.1212  140.1475  156.9189 H   0  0  0  0  0  0  0  0  0  0  0  0  # atno 8010 bound_to 7997
  140.6185  143.8257  150.7146 H   0  0  0  0  0  0  0  0  0  0  0  0  # atno 10167 bound_to 10162
  157.0433  131.0293  151.2706 H   0  0  0  0  0  0  0  0  0  0  0  0  # atno 10718 bound_to 10713
  154.5989  135.2852  155.0557 H   0  0  0  0  0  0  0  0  0  0  0  0  # atno 10763 bound_to 10752
  154.1829  135.6453  153.5043 H   0  0  0  0  0  0  0  0  0  0  0  0  # atno 10764 bound_to 10752
  153.0149  135.5428  154.6700 H   0  0  0  0  0  0  0  0  0  0  0  0  # atno 10765 bound_to 10752
  141.1616  133.7515  156.9316 H   0  0  0  0  0  0  0  0  0  0  0  0  # atno 11005 bound_to 11000
  146.1818  140.6486  142.9186 LP  0  0  0  0  0  0  0  0  0  0  0  0  # atno 17320 bound_to 7965
  144.7460  140.5069  143.6835 LP  0  0  0  0  0  0  0  0  0  0  0  0  # atno 17321 bound_to 7965
  140.1841  143.4090  152.1911 LP  0  0  0  0  0  0  0  0  0  0  0  0  # atno 17342 bound_to 10162
  139.5418  144.7263  151.4709 LP  0  0  0  0  0  0  0  0  0  0  0  0  # atno 17343 bound_to 10162
  157.5087  130.7925  149.7682 LP  0  0  0  0  0  0  0  0  0  0  0  0  # atno 17370 bound_to 10713
  156.0031  130.3869  150.2531 LP  0  0  0  0  0  0  0  0  0  0  0  0  # atno 17371 bound_to 10713
  140.1382  134.9311  157.2431 LP  0  0  0  0  0  0  0  0  0  0  0  0  # atno 17394 bound_to 11000
  140.2869  134.3286  155.7326 LP  0  0  0  0  0  0  0  0  0  0  0  0  # atno 17395 bound_to 11000

$$$$
