AV-unprocessed.smi:38|AV-procd|sdf|346|dock1
  -GOLD-   2262016183D 1   1.00000     0.00000
 Structure written by MMmdl.
 27 28  0  0  0  0  0  0  0  0  2 V2000
  151.7223  134.2246  157.1693 O   0  0  0  0  0  0  0  0  0  0  0  0
  151.7269  135.4248  156.8992 C   0  0  0  0  0  0  0  0  0  0  0  0
  152.8575  136.0957  156.5344 N   0  5  0  0  0  0  0  0  0  0  0  0
  152.8608  137.4285  156.2374 C   0  0  0  0  0  0  0  0  0  0  0  0
  153.8763  138.0406  155.9053 O   0  0  0  0  0  0  0  0  0  0  0  0
  151.6406  138.1551  156.3139 N   0  0  0  0  0  0  0  0  0  0  0  0
  151.6521  139.6350  155.9823 C   0  0  2  0  0  0  0  0  0  0  0  0
  151.2906  140.4739  157.2221 C   0  0  0  0  0  0  0  0  0  0  0  0
  150.1685  141.3692  156.7269 C   0  0  1  0  0  0  0  0  0  0  0  0
  150.6790  142.6108  156.2779 O   0  0  0  0  0  0  0  0  0  0  0  0
  149.5639  140.5437  155.5853 C   0  0  1  0  0  0  0  0  0  0  0  0
  148.7492  141.3080  154.5270 C   0  0  0  0  0  0  0  0  0  0  0  0
  148.0778  140.4048  153.6738 O   0  0  0  0  0  0  0  0  0  0  0  0
  150.6956  139.9113  154.9990 O   0  0  0  0  0  0  0  0  0  0  0  0
  150.4754  137.4967  156.6746 C   0  0  0  0  0  0  0  0  0  0  0  0
  150.4771  136.1798  156.9657 C   0  0  0  0  0  0  0  0  0  0  0  0
  149.3304  135.5699  157.3128 F   0  0  0  0  0  0  0  0  0  0  0  0
  152.6459  139.8399  155.5806 H   0  0  0  0  0  0  0  0  0  0  0  0
  149.4361  141.5663  157.5102 H   0  0  0  0  0  0  0  0  0  0  0  0
  148.9388  139.7606  156.0179 H   0  0  0  0  0  0  0  0  0  0  0  0
  150.9229  139.8210  158.0153 H   0  0  0  0  0  0  0  0  0  0  0  0
  152.1591  141.0171  157.5967 H   0  0  0  0  0  0  0  0  0  0  0  0
  150.0217  143.2740  156.4238 H   0  0  0  0  0  0  0  0  0  0  0  0
  148.0285  141.9839  154.9871 H   0  0  0  0  0  0  0  0  0  0  0  0
  149.4154  141.9219  153.9204 H   0  0  0  0  0  0  0  0  0  0  0  0
  148.4576  140.4687  152.8108 H   0  0  0  0  0  0  0  0  0  0  0  0
  149.5381  138.0285  156.7279 H   0  0  0  0  0  0  0  0  0  0  0  0
  1  2  2  0  0  0  0
  2 16  1  0  0  0  0
  2  3  1  0  0  0  0
  3  4  1  0  0  0  0
  4  5  2  0  0  0  0
  4  6  1  0  0  0  0
  6  7  1  0  0  0  0
  6 15  1  0  0  0  0
  7 18  1  0  0  0  0
  7 14  1  0  0  0  0
  7  8  1  0  0  0  0
  8  9  1  0  0  0  0
  8 21  1  0  0  0  0
  8 22  1  0  0  0  0
  9 19  1  0  0  0  0
  9 10  1  0  0  0  0
  9 11  1  0  0  0  0
 10 23  1  0  0  0  0
 11 20  1  0  0  0  0
 11 12  1  0  0  0  0
 11 14  1  0  0  0  0
 12 13  1  0  0  0  0
 12 24  1  0  0  0  0
 12 25  1  0  0  0  0
 13 26  1  0  0  0  0
 15 16  2  0  0  0  0
 15 27  1  0  0  0  0
 16 17  1  0  0  0  0
M  CHG  1   3  -1
M  END
> <s_m_source_file>
AV-unprocessed.smi

> <i_m_source_file_index>
38

> <i_lp_mmshare_version>
43012

> <i_f3d_flags>
0

> <s_epik_input>
Tz1jMVtuSF1jKD1PKW4oW2NIXWMxRilbQ0BIXTJbQ0gyXVtDQEhdKFtPSF0pW0NASF0oTzIpW0NIMl1bT0hd

> <s_epik_cmdline>
J2VwaWtfcHl0aG9uJywgJy1waCcsICc3LjAnLCAnLXRuJywgJzgnLCAnLW1hJywgJzIwMCcsICctbWV0YWxfYmluZGluZycsICctaW1hZScsICc8aW5maWxlLm1hZT4nLCAnLW9tYWUnLCAnPG91dGZpbGUubWFlPic=

> <r_epik_Ionization_Penalty>
1.68146

> <r_epik_Ionization_Penalty_Charging>
3.4211e-08

> <r_epik_Ionization_Penalty_Neutral>
1.68146

> <r_epik_State_Penalty>
1.78593

> <r_epik_Charging_Adjusted_Penalty>
1.78593

> <i_epik_Tot_Q>
-1

> <i_epik_Tot_abs_Q>
1

> <r_epik_Metal_State_Penalty>
0.0113696

> <b_epik_Metal_Only>
0

> <s_epik_Chemistry_Notes>
This compound contains an acetal/aminal-like group ( X-CH(R)-Y where X, Y are N, S, or O) that may be acid/base labile, releasing an aldehyde.

> <s_lp_Force_Field>
OPLS_2005

> <r_lp_Energy>
41.2481

> <b_lp_Chiralities_Consistent>
1

> <s_lp_Variant>
AV-unprocessed.smi:38-12

> <Gold.Version>
5.8.1

> <Gold.Id.Protein>
6NUR|6NUR_protein|mol2

> <Gold.PLP.Fitness>
39.2437

> <Gold.PLP.PLP>
-22.5827

> <Gold.PLP.part.hbond>
-6.0000

> <Gold.PLP.part.metal>
0.0000

> <Gold.PLP.part.buried>
-3.8009

> <Gold.PLP.part.nonpolar>
-13.9984

> <Gold.PLP.part.repulsive>
0.0634

> <Gold.PLP.ligand.clash>
0.0000

> <Gold.PLP.ligand.torsion>
0.1195

> <Gold.PLP.Chemscore.Hbond>
5.6320

> <Gold.PLP.Chemscore.CHOScore>
0.0000

> <Gold.PLP.Chemscore.Metal>
0.0000

> <Gold.Chemscore.Hbonds>
donor molecule, donor type, donor heavy atom, donor atom, acceptor molecule, acceptor atom, score
      L1  H    10    23       P1  8028  0.96
      L1  H    13    26       P1  7957  0.94
      P1  H  6896  6907       L1     1  0.11
      P1  H  7989  7998       L1    14  1.00
      P1  H  7997  8008       L1     5  0.33
      P1  H 10752 10763       L1     3  2.00

> <Gold.PLP.Chemscore.Internal.Correction>
0.0039

> <Gold.Rescore>
     Score         DG    S(hbond)    S(metal)    S(lipo)     H(rot)  DE(clash)    DE(int)     intcor
     13.96     -14.27       3.74        0.00      31.37       2.88       0.08       0.22       ----

> <Gold.Chemscore.Fitness>
13.9622

> <Gold.Chemscore.DG>
-14.2656

> <Gold.Chemscore.ZeroCoef>
-5.4800

> <Gold.Chemscore.Hbond>
3.7399

> <Gold.Chemscore.Metal>
0.0000

> <Gold.Chemscore.Lipo>
31.3747

> <Gold.Chemscore.Internal_Hbond>
0.0000

> <Gold.Chemscore.DEClash>
0.0811

> <Gold.Chemscore.DEInternal>
0.2224

> <Gold.Chemscore.Rot>
2.8815

> <Gold.Chemscore.Internal.Correction>
   9.000000E+99

> <Gold.Chemscore.Hbonds>
donor molecule, donor type, donor heavy atom, donor atom, acceptor molecule, acceptor atom, score
      L1  H    10    23       P1  8028  0.90
      L1  H    13    26       P1  7957  0.90
      P1  H  6896  6907       L1     1  0.10
      P1  H  7989  7998       L1    14  0.55
      P1  H  7997  8008       L1     5  0.32
      P1  H 10752 10763       L1     3  0.36

> <Gold.Chemscore.Hbond.Weighted>
-12.4913

> <Gold.Chemscore.Metal.Weighted>
-0.0000

> <Gold.Chemscore.Lipo.Weighted>
-3.6708

> <Gold.Chemscore.Internal_Hbond.Weighted>
0.0000

> <Gold.Chemscore.DEClash.Weighted>
0.0811

> <Gold.Chemscore.DEInternal.Weighted>
0.2224

> <Gold.Chemscore.Rot.Weighted>
7.3765

> <Gold.Chemscore.Internal.Correction.Weighted>
   9.000000E+99

> <Gold.Protein.RotatedTorsions>
[ 6907 6896 6895 6894 ] final -144.05 input  -60.11 | X-H torsion
[ 7974 7965 7964 7962 ] final  -91.10 input  175.53 | X-H torsion
[ 8008 7997 7996 7995 ] final  -53.77 input   59.86 | X-H torsion
[ 10167 10162 10161 10158 ] final  158.80 input  -65.29 | X-H torsion
[ 10718 10713 10712 10709 ] final  103.35 input   66.30 | X-H torsion
[ 10763 10752 10751 10750 ] final  113.83 input  -60.55 | X-H torsion
[ 11005 11000 10999 10996 ] final  177.55 input  -57.11 | X-H torsion

> <Gold.Protein.ActiveResidues>
 VAL166  LYS551  ARG553  GLY616  TRP617  ASP618  TYR619  PRO620  LYS621  CYS622 
 ASP623  PHE694  ASN695  SER759  ASP760  ASP761  ALA762  ILE779  LEU786  VAL792 
 PHE793  MET794  SER795  GLU796  ALA797  LYS798  CYS799  TRP800  GLU811  SER814 

> <Gold.Protein.RotatedAtoms>
  151.1087  133.5189  159.2606 H   0  0  0  0  0  0  0  0  0  0  0  0  # atno 6907 bound_to 6896
  151.1991  135.0434  159.8875 H   0  0  0  0  0  0  0  0  0  0  0  0  # atno 6908 bound_to 6896
  152.5448  134.0918  159.8333 H   0  0  0  0  0  0  0  0  0  0  0  0  # atno 6909 bound_to 6896
  145.4177  140.9549  143.2199 H   0  0  0  0  0  0  0  0  0  0  0  0  # atno 7974 bound_to 7965
  154.4143  140.1192  156.5207 H   0  0  0  0  0  0  0  0  0  0  0  0  # atno 8008 bound_to 7997
  155.6705  140.3496  155.4797 H   0  0  0  0  0  0  0  0  0  0  0  0  # atno 8009 bound_to 7997
  155.9637  140.1128  157.0863 H   0  0  0  0  0  0  0  0  0  0  0  0  # atno 8010 bound_to 7997
  139.4828  144.4790  151.8471 H   0  0  0  0  0  0  0  0  0  0  0  0  # atno 10167 bound_to 10162
  157.6775  131.0776  150.5542 H   0  0  0  0  0  0  0  0  0  0  0  0  # atno 10718 bound_to 10713
  153.4983  135.3644  155.2527 H   0  0  0  0  0  0  0  0  0  0  0  0  # atno 10763 bound_to 10752
  154.8749  135.3993  154.3509 H   0  0  0  0  0  0  0  0  0  0  0  0  # atno 10764 bound_to 10752
  153.4140  135.7078  153.6405 H   0  0  0  0  0  0  0  0  0  0  0  0  # atno 10765 bound_to 10752
  140.3853  134.6910  157.4475 H   0  0  0  0  0  0  0  0  0  0  0  0  # atno 11005 bound_to 11000
  144.8266  139.5699  143.6962 LP  0  0  0  0  0  0  0  0  0  0  0  0  # atno 17320 bound_to 7965
  146.2673  139.6550  142.9321 LP  0  0  0  0  0  0  0  0  0  0  0  0  # atno 17321 bound_to 7965
  140.4264  144.2174  150.5887 LP  0  0  0  0  0  0  0  0  0  0  0  0  # atno 17342 bound_to 10162
  140.4822  143.2375  151.8938 LP  0  0  0  0  0  0  0  0  0  0  0  0  # atno 17343 bound_to 10162
  156.5846  130.4313  149.5963 LP  0  0  0  0  0  0  0  0  0  0  0  0  # atno 17370 bound_to 10713
  156.2633  130.6975  151.1750 LP  0  0  0  0  0  0  0  0  0  0  0  0  # atno 17371 bound_to 10713
  140.0447  134.6216  155.8936 LP  0  0  0  0  0  0  0  0  0  0  0  0  # atno 17394 bound_to 11000
  141.1909  133.6570  156.5434 LP  0  0  0  0  0  0  0  0  0  0  0  0  # atno 17395 bound_to 11000

$$$$
