AV-unprocessed.smi:804|AV-procd|sdf|3794|dock9
  -GOLD-   22720 1233D 1   1.00000     0.00000
 Structure written by MMmdl.
 39 40  0  0  0  0  0  0  0  0  1 V2000
  147.9750  144.8019  161.1811 C   0  0  0  0  0  0  0  0  0  0  0  0
  146.6444  145.0394  160.4452 C   0  0  0  0  0  0  0  0  0  0  0  0
  145.4963  144.4299  161.2770 C   0  0  0  0  0  0  0  0  0  0  0  0
  146.4362  146.5569  160.2598 C   0  0  0  0  0  0  0  0  0  0  0  0
  146.7522  144.3692  159.1448 N   0  0  0  0  0  0  0  0  0  0  0  0
  146.7321  143.0507  158.8761 C   0  0  0  0  0  0  0  0  0  0  0  0
  146.5717  142.1720  159.7234 O   0  0  0  0  0  0  0  0  0  0  0  0
  146.8425  142.6947  157.4220 C   0  0  0  0  0  0  0  0  0  0  0  0
  147.9505  142.0120  157.0532 N   0  0  0  0  0  0  0  0  0  0  0  0
  148.0959  141.6703  155.7669 C   0  0  0  0  0  0  0  0  0  0  0  0
  149.2463  140.9529  155.4127 N   0  0  0  0  0  0  0  0  0  0  0  0
  149.2862  140.1096  154.2147 C   0  0  0  0  0  0  0  0  0  0  0  0
  150.2792  138.9480  154.3894 C   0  0  0  0  0  0  0  0  0  0  0  0
  151.5593  139.4551  154.7436 O   0  0  0  0  0  0  0  0  0  0  0  0
  151.5176  140.1508  155.9827 C   0  0  0  0  0  0  0  0  0  0  0  0
  150.5776  141.3623  155.8678 C   0  0  0  0  0  0  0  0  0  0  0  0
  147.2206  141.9618  154.7969 N   0  0  0  0  0  0  0  0  0  0  0  0
  146.1139  142.6546  155.1360 C   0  0  0  0  0  0  0  0  0  0  0  0
  145.8647  143.0613  156.4609 C   0  0  0  0  0  0  0  0  0  0  0  0
  144.4458  143.9835  156.8259 Cl  0  0  0  0  0  0  0  0  0  0  0  0
  147.9746  145.2726  162.1649 H   0  0  0  0  0  0  0  0  0  0  0  0
  148.8179  145.2118  160.6229 H   0  0  0  0  0  0  0  0  0  0  0  0
  148.1648  143.7378  161.3277 H   0  0  0  0  0  0  0  0  0  0  0  0
  145.6135  143.3509  161.3847 H   0  0  0  0  0  0  0  0  0  0  0  0
  144.5208  144.6120  160.8260 H   0  0  0  0  0  0  0  0  0  0  0  0
  145.4685  144.8583  162.2794 H   0  0  0  0  0  0  0  0  0  0  0  0
  146.4494  147.0743  161.2195 H   0  0  0  0  0  0  0  0  0  0  0  0
  145.4808  146.7861  159.7879 H   0  0  0  0  0  0  0  0  0  0  0  0
  147.2222  146.9931  159.6420 H   0  0  0  0  0  0  0  0  0  0  0  0
  146.8673  144.9819  158.3506 H   0  0  0  0  0  0  0  0  0  0  0  0
  148.3097  139.6860  153.9806 H   0  0  0  0  0  0  0  0  0  0  0  0
  149.5762  140.7265  153.3637 H   0  0  0  0  0  0  0  0  0  0  0  0
  149.9288  138.2474  155.1491 H   0  0  0  0  0  0  0  0  0  0  0  0
  150.3662  138.3883  153.4582 H   0  0  0  0  0  0  0  0  0  0  0  0
  151.1924  139.4806  156.7802 H   0  0  0  0  0  0  0  0  0  0  0  0
  152.5247  140.4814  156.2369 H   0  0  0  0  0  0  0  0  0  0  0  0
  150.9829  142.0845  155.1582 H   0  0  0  0  0  0  0  0  0  0  0  0
  150.5429  141.8563  156.8384 H   0  0  0  0  0  0  0  0  0  0  0  0
  145.4245  142.8927  154.3396 H   0  0  0  0  0  0  0  0  0  0  0  0
  1  2  1  0  0  0  0
  1 21  1  0  0  0  0
  1 22  1  0  0  0  0
  1 23  1  0  0  0  0
  2  3  1  0  0  0  0
  2  4  1  0  0  0  0
  2  5  1  0  0  0  0
  3 24  1  0  0  0  0
  3 25  1  0  0  0  0
  3 26  1  0  0  0  0
  4 27  1  0  0  0  0
  4 28  1  0  0  0  0
  4 29  1  0  0  0  0
  5  6  1  0  0  0  0
  5 30  1  0  0  0  0
  6  7  2  0  0  0  0
  6  8  1  0  0  0  0
  8 19  1  0  0  0  0
  8  9  2  0  0  0  0
  9 10  1  0  0  0  0
 10 11  1  0  0  0  0
 10 17  2  0  0  0  0
 11 16  1  0  0  0  0
 11 12  1  0  0  0  0
 12 13  1  0  0  0  0
 12 31  1  0  0  0  0
 12 32  1  0  0  0  0
 13 14  1  0  0  0  0
 13 33  1  0  0  0  0
 13 34  1  0  0  0  0
 14 15  1  0  0  0  0
 15 16  1  0  0  0  0
 15 35  1  0  0  0  0
 15 36  1  0  0  0  0
 16 37  1  0  0  0  0
 16 38  1  0  0  0  0
 17 18  1  0  0  0  0
 18 19  2  0  0  0  0
 18 39  1  0  0  0  0
 19 20  1  0  0  0  0
M  END
> <s_m_source_file>
AV-unprocessed.smi

> <i_m_source_file_index>
804

> <i_lp_mmshare_version>
43012

> <i_f3d_flags>
0

> <s_epik_input>
W0NIM11DKFtDSDNdKShbQ0gzXSlbTkhdQyg9TyljMW5jKG5bY0hdYzFDbClOMltDSDJdW0NIMl1PW0NIMl1bQ0gyXTI=

> <s_epik_cmdline>
J2VwaWtfcHl0aG9uJywgJy1waCcsICc3LjAnLCAnLXRuJywgJzgnLCAnLW1hJywgJzIwMCcsICctbWV0YWxfYmluZGluZycsICctaW1hZScsICc8aW5maWxlLm1hZT4nLCAnLW9tYWUnLCAnPG91dGZpbGUubWFlPic=

> <r_lp_tautomer_probability>
1

> <r_epik_Ionization_Penalty>
1.02082e-05

> <r_epik_Ionization_Penalty_Charging>
0

> <r_epik_Ionization_Penalty_Neutral>
1.02082e-05

> <r_epik_State_Penalty>
-0

> <r_epik_Charging_Adjusted_Penalty>
0

> <i_epik_Tot_Q>
0

> <i_epik_Tot_abs_Q>
0

> <r_epik_Metal_State_Penalty>
0.00994437

> <b_epik_Metal_Only>
0

> <s_lp_Force_Field>
OPLS_2005

> <r_lp_Energy>
15.0003

> <b_lp_Chiralities_Consistent>
1

> <s_lp_Variant>
AV-unprocessed.smi:804-1

> <Gold.Version>
5.8.1

> <Gold.Id.Protein>
6NUR|6NUR_protein|mol2

> <Gold.PLP.Fitness>
39.9823

> <Gold.PLP.PLP>
-34.8085

> <Gold.PLP.part.hbond>
-3.5120

> <Gold.PLP.part.metal>
0.0000

> <Gold.PLP.part.buried>
-4.9720

> <Gold.PLP.part.nonpolar>
-28.1459

> <Gold.PLP.part.repulsive>
0.4151

> <Gold.PLP.ligand.clash>
0.0000

> <Gold.PLP.ligand.torsion>
1.9802

> <Gold.PLP.Chemscore.Hbond>
3.0000

> <Gold.PLP.Chemscore.CHOScore>
0.0000

> <Gold.PLP.Chemscore.Metal>
0.0000

> <Gold.Chemscore.Hbonds>
donor molecule, donor type, donor heavy atom, donor atom, acceptor molecule, acceptor atom, score
      L1  H     5    30       P1  8029  1.00
      P1  H  6934  6946       L1     7  1.00
      P1  H  7989  7998       L1    14  0.95

> <Gold.PLP.Chemscore.Internal.Correction>
0.1342

> <Gold.Rescore>
     Score         DG    S(hbond)    S(metal)    S(lipo)     H(rot)  DE(clash)    DE(int)     intcor
     15.47     -17.33       2.12        0.00      62.76       1.00       0.26       1.60       ----

> <Gold.Chemscore.Fitness>
15.4676

> <Gold.Chemscore.DG>
-17.3293

> <Gold.Chemscore.ZeroCoef>
-5.4800

> <Gold.Chemscore.Hbond>
2.1158

> <Gold.Chemscore.Metal>
0.0000

> <Gold.Chemscore.Lipo>
62.7572

> <Gold.Chemscore.Internal_Hbond>
0.0000

> <Gold.Chemscore.DEClash>
0.2603

> <Gold.Chemscore.DEInternal>
1.6014

> <Gold.Chemscore.Rot>
1.0000

> <Gold.Chemscore.Internal.Correction>
   9.000000E+99

> <Gold.Chemscore.Hbonds>
donor molecule, donor type, donor heavy atom, donor atom, acceptor molecule, acceptor atom, score
      L1  H     5    30       P1  8029  0.96
      P1  H  6934  6946       L1     7  0.97
      P1  H  7989  7998       L1    14  0.08

> <Gold.Chemscore.Hbond.Weighted>
-7.0668

> <Gold.Chemscore.Metal.Weighted>
-0.0000

> <Gold.Chemscore.Lipo.Weighted>
-7.3426

> <Gold.Chemscore.Internal_Hbond.Weighted>
0.0000

> <Gold.Chemscore.DEClash.Weighted>
0.2603

> <Gold.Chemscore.DEInternal.Weighted>
1.6014

> <Gold.Chemscore.Rot.Weighted>
2.5600

> <Gold.Chemscore.Internal.Correction.Weighted>
   9.000000E+99

> <Gold.Protein.RotatedTorsions>
[ 6907 6896 6895 6894 ] final  -52.11 input  -60.11 | X-H torsion
[ 7974 7965 7964 7962 ] final   89.82 input  175.53 | X-H torsion
[ 8008 7997 7996 7995 ] final  155.22 input   59.86 | X-H torsion
[ 10167 10162 10161 10158 ] final   62.74 input  -65.29 | X-H torsion
[ 10718 10713 10712 10709 ] final   93.62 input   66.30 | X-H torsion
[ 10763 10752 10751 10750 ] final  101.27 input  -60.55 | X-H torsion
[ 11005 11000 10999 10996 ] final   -4.19 input  -57.11 | X-H torsion

> <Gold.Protein.ActiveResidues>
 VAL166  LYS551  ARG553  GLY616  TRP617  ASP618  TYR619  PRO620  LYS621  CYS622 
 ASP623  PHE694  ASN695  SER759  ASP760  ASP761  ALA762  ILE779  LEU786  VAL792 
 PHE793  MET794  SER795  GLU796  ALA797  LYS798  CYS799  TRP800  GLU811  SER814 

> <Gold.Protein.RotatedAtoms>
  150.8548  134.7884  159.7036 H   0  0  0  0  0  0  0  0  0  0  0  0  # atno 6907 bound_to 6896
  152.4603  134.5196  159.9788 H   0  0  0  0  0  0  0  0  0  0  0  0  # atno 6908 bound_to 6896
  151.5311  133.3411  159.2954 H   0  0  0  0  0  0  0  0  0  0  0  0  # atno 6909 bound_to 6896
  145.5272  139.2281  143.2639 H   0  0  0  0  0  0  0  0  0  0  0  0  # atno 7974 bound_to 7965
  156.2490  140.1945  156.6767 H   0  0  0  0  0  0  0  0  0  0  0  0  # atno 8008 bound_to 7997
  154.6352  140.0590  156.9806 H   0  0  0  0  0  0  0  0  0  0  0  0  # atno 8009 bound_to 7997
  155.1648  140.3263  155.4407 H   0  0  0  0  0  0  0  0  0  0  0  0  # atno 8010 bound_to 7997
  140.1407  144.4556  150.6813 H   0  0  0  0  0  0  0  0  0  0  0  0  # atno 10167 bound_to 10162
  157.6953  131.0484  150.4061 H   0  0  0  0  0  0  0  0  0  0  0  0  # atno 10718 bound_to 10713
  153.3245  135.4050  155.1445 H   0  0  0  0  0  0  0  0  0  0  0  0  # atno 10763 bound_to 10752
  154.8608  135.3595  154.5552 H   0  0  0  0  0  0  0  0  0  0  0  0  # atno 10764 bound_to 10752
  153.5987  135.7071  153.5452 H   0  0  0  0  0  0  0  0  0  0  0  0  # atno 10765 bound_to 10752
  140.6776  133.9182  155.8534 H   0  0  0  0  0  0  0  0  0  0  0  0  # atno 11005 bound_to 11000
  146.2067  140.6087  142.9078 LP  0  0  0  0  0  0  0  0  0  0  0  0  # atno 17320 bound_to 7965
  144.7645  140.5498  143.6713 LP  0  0  0  0  0  0  0  0  0  0  0  0  # atno 17321 bound_to 7965
  140.6762  143.2306  151.5501 LP  0  0  0  0  0  0  0  0  0  0  0  0  # atno 17342 bound_to 10162
  139.5473  144.2486  152.1467 LP  0  0  0  0  0  0  0  0  0  0  0  0  # atno 17343 bound_to 10162
  156.4450  130.3999  149.6673 LP  0  0  0  0  0  0  0  0  0  0  0  0  # atno 17370 bound_to 10713
  156.3843  130.7595  151.2590 LP  0  0  0  0  0  0  0  0  0  0  0  0  # atno 17371 bound_to 10713
  141.0343  134.0712  157.3978 LP  0  0  0  0  0  0  0  0  0  0  0  0  # atno 17394 bound_to 11000
  139.8962  135.0144  156.7038 LP  0  0  0  0  0  0  0  0  0  0  0  0  # atno 17395 bound_to 11000

$$$$
