AV-unprocessed.smi:1013|AV-procd|sdf|4428|dock2
  -GOLD-   22720 2383D 1   1.00000     0.00000
 Structure written by MMmdl.
 29 30  0  0  0  0  0  0  0  0  2 V2000
  153.4783  139.0904  154.7044 O   0  0  0  0  0  0  0  0  0  0  0  0
  152.3058  138.6633  154.7857 C   0  0  0  0  0  0  0  0  0  0  0  0
  151.9206  137.5279  154.4277 O   0  5  0  0  0  0  0  0  0  0  0  0
  151.2593  139.6174  155.3902 C   0  0  2  0  0  0  0  0  0  0  0  0
  150.6625  139.0420  156.6930 C   0  0  0  0  0  0  0  0  0  0  0  0
  151.1893  139.6877  157.8840 N   0  0  0  0  0  0  0  0  0  0  0  0
  151.9508  139.1344  158.8905 C   0  0  0  0  0  0  0  0  0  0  0  0
  152.2082  140.1237  159.7951 C   0  0  0  0  0  0  0  0  0  0  0  0
  151.5577  141.2690  159.2501 C   0  0  0  0  0  0  0  0  0  0  0  0
  151.4934  142.6637  159.8142 C   0  0  0  0  0  0  0  0  0  0  0  0
  152.1528  142.7251  160.9714 F   0  0  0  0  0  0  0  0  0  0  0  0
  152.0467  143.5256  158.9608 F   0  0  0  0  0  0  0  0  0  0  0  0
  150.2248  143.0142  160.0252 F   0  0  0  0  0  0  0  0  0  0  0  0
  150.9577  141.0002  158.0986 N   0  0  0  0  0  0  0  0  0  0  0  0
  150.1711  139.9668  154.4577 N   0  0  0  0  0  0  0  0  0  0  0  0
  149.4518  141.1623  154.8702 C   0  0  0  0  0  0  0  0  0  0  0  0
  148.1154  140.9519  155.5452 C   0  0  0  0  0  0  0  0  0  0  0  0
  148.1687  141.5072  154.1457 C   0  0  0  0  0  0  0  0  0  0  0  0
  151.7730  140.5459  155.6440 H   0  0  0  0  0  0  0  0  0  0  0  0
  149.5808  139.1810  156.7011 H   0  0  0  0  0  0  0  0  0  0  0  0
  150.8339  137.9655  156.7563 H   0  0  0  0  0  0  0  0  0  0  0  0
  152.2375  138.0932  158.8809 H   0  0  0  0  0  0  0  0  0  0  0  0
  152.7739  140.0415  160.7111 H   0  0  0  0  0  0  0  0  0  0  0  0
  149.5232  139.1986  154.3651 H   0  0  0  0  0  0  0  0  0  0  0  0
  150.0232  142.0031  155.2601 H   0  0  0  0  0  0  0  0  0  0  0  0
  147.7571  139.9312  155.6641 H   0  0  0  0  0  0  0  0  0  0  0  0
  147.8443  141.6366  156.3462 H   0  0  0  0  0  0  0  0  0  0  0  0
  147.9403  142.5623  154.0108 H   0  0  0  0  0  0  0  0  0  0  0  0
  147.8493  140.8549  153.3350 H   0  0  0  0  0  0  0  0  0  0  0  0
  1  2  2  0  0  0  0
  2  3  1  0  0  0  0
  2  4  1  0  0  0  0
  4  5  1  0  0  0  0
  4 15  1  0  0  0  0
  4 19  1  0  0  0  0
  5  6  1  0  0  0  0
  5 20  1  0  0  0  0
  5 21  1  0  0  0  0
  6 14  1  0  0  0  0
  6  7  1  0  0  0  0
  7  8  2  0  0  0  0
  7 22  1  0  0  0  0
  8  9  1  0  0  0  0
  8 23  1  0  0  0  0
  9 10  1  0  0  0  0
  9 14  2  0  0  0  0
 10 11  1  0  0  0  0
 10 12  1  0  0  0  0
 10 13  1  0  0  0  0
 15 16  1  0  0  0  0
 15 24  1  0  0  0  0
 16 18  1  0  0  0  0
 16 17  1  0  0  0  0
 16 25  1  0  0  0  0
 17 18  1  0  0  0  0
 17 26  1  0  0  0  0
 17 27  1  0  0  0  0
 18 28  1  0  0  0  0
 18 29  1  0  0  0  0
M  CHG  1   3  -1
M  END
> <s_m_source_file>
AV-unprocessed.smi

> <i_m_source_file_index>
1013

> <i_lp_mmshare_version>
43012

> <i_f3d_flags>
0

> <s_epik_input>
W0NIMl0xW0NIMl1bQ0hdMVtOSF1bQ0BIXShDKD1PKVtPSF0pW0NIMl1uMltjSF1bY0hdYyhuMilDKEYpKEYpRg==

> <s_epik_cmdline>
J2VwaWtfcHl0aG9uJywgJy1waCcsICc3LjAnLCAnLXRuJywgJzgnLCAnLW1hJywgJzIwMCcsICctbWV0YWxfYmluZGluZycsICctaW1hZScsICc8aW5maWxlLm1hZT4nLCAnLW9tYWUnLCAnPG91dGZpbGUubWFlPic=

> <r_lp_tautomer_probability>
1

> <r_epik_Ionization_Penalty>
0.786284

> <r_epik_Ionization_Penalty_Charging>
0.00153368

> <r_epik_Ionization_Penalty_Neutral>
0.78475

> <r_epik_State_Penalty>
0.814638

> <r_epik_Charging_Adjusted_Penalty>
0.816172

> <i_epik_Tot_Q>
-1

> <i_epik_Tot_abs_Q>
1

> <r_epik_Metal_State_Penalty>
0.814638

> <b_epik_Metal_Only>
0

> <s_lp_Force_Field>
OPLS_2005

> <r_lp_Energy>
15.2289

> <b_lp_Chiralities_Consistent>
1

> <s_lp_Variant>
AV-unprocessed.smi:1013-3

> <Gold.Version>
5.8.1

> <Gold.Id.Protein>
6NUR|6NUR_protein|mol2

> <Gold.PLP.Fitness>
50.2160

> <Gold.PLP.PLP>
-40.8345

> <Gold.PLP.part.hbond>
-3.0000

> <Gold.PLP.part.metal>
0.0000

> <Gold.PLP.part.buried>
-5.4836

> <Gold.PLP.part.nonpolar>
-33.8185

> <Gold.PLP.part.repulsive>
0.1239

> <Gold.PLP.ligand.clash>
0.0000

> <Gold.PLP.ligand.torsion>
1.1364

> <Gold.PLP.Chemscore.Hbond>
3.6177

> <Gold.PLP.Chemscore.CHOScore>
0.0000

> <Gold.PLP.Chemscore.Metal>
0.0000

> <Gold.Chemscore.Hbonds>
donor molecule, donor type, donor heavy atom, donor atom, acceptor molecule, acceptor atom, score
      P1  H  7989  7998       L1    15  0.13
      P1  H  7997  8009       L1     1  2.00
      P1  H 10752 10763       L1     3  1.14

> <Gold.PLP.Chemscore.Internal.Correction>
0.8010

> <Gold.Rescore>
     Score         DG    S(hbond)    S(metal)    S(lipo)     H(rot)  DE(clash)    DE(int)     intcor
     11.59     -12.83       1.81        0.00      66.16       2.52       0.00       1.24       ----

> <Gold.Chemscore.Fitness>
11.5866

> <Gold.Chemscore.DG>
-12.8280

> <Gold.Chemscore.ZeroCoef>
-5.4800

> <Gold.Chemscore.Hbond>
1.8106

> <Gold.Chemscore.Metal>
0.0000

> <Gold.Chemscore.Lipo>
66.1613

> <Gold.Chemscore.Internal_Hbond>
0.0000

> <Gold.Chemscore.DEClash>
0.0000

> <Gold.Chemscore.DEInternal>
1.2414

> <Gold.Chemscore.Rot>
2.5157

> <Gold.Chemscore.Internal.Correction>
   9.000000E+99

> <Gold.Chemscore.Hbonds>
donor molecule, donor type, donor heavy atom, donor atom, acceptor molecule, acceptor atom, score
      P1  H  7997  8009       L1     1  0.99
      P1  H 10752 10763       L1     3  0.56

> <Gold.Chemscore.Hbond.Weighted>
-6.0473

> <Gold.Chemscore.Metal.Weighted>
-0.0000

> <Gold.Chemscore.Lipo.Weighted>
-7.7409

> <Gold.Chemscore.Internal_Hbond.Weighted>
0.0000

> <Gold.Chemscore.DEClash.Weighted>
0.0000

> <Gold.Chemscore.DEInternal.Weighted>
1.2414

> <Gold.Chemscore.Rot.Weighted>
6.4402

> <Gold.Chemscore.Internal.Correction.Weighted>
   9.000000E+99

> <Gold.Protein.RotatedTorsions>
[ 6907 6896 6895 6894 ] final  -30.11 input  -60.11 | X-H torsion
[ 7974 7965 7964 7962 ] final -160.71 input  175.53 | X-H torsion
[ 8008 7997 7996 7995 ] final -131.29 input   59.86 | X-H torsion
[ 10167 10162 10161 10158 ] final  -98.25 input  -65.29 | X-H torsion
[ 10718 10713 10712 10709 ] final  161.33 input   66.30 | X-H torsion
[ 10763 10752 10751 10750 ] final   54.89 input  -60.55 | X-H torsion
[ 11005 11000 10999 10996 ] final   12.06 input  -57.11 | X-H torsion

> <Gold.Protein.ActiveResidues>
 VAL166  LYS551  ARG553  GLY616  TRP617  ASP618  TYR619  PRO620  LYS621  CYS622 
 ASP623  PHE694  ASN695  SER759  ASP760  ASP761  ALA762  ILE779  LEU786  VAL792 
 PHE793  MET794  SER795  GLU796  ALA797  LYS798  CYS799  TRP800  GLU811  SER814 

> <Gold.Protein.RotatedAtoms>
  151.1100  135.0021  159.8489 H   0  0  0  0  0  0  0  0  0  0  0  0  # atno 6907 bound_to 6896
  152.5442  134.1847  159.8660 H   0  0  0  0  0  0  0  0  0  0  0  0  # atno 6908 bound_to 6896
  151.1897  133.4630  159.2628 H   0  0  0  0  0  0  0  0  0  0  0  0  # atno 6909 bound_to 6896
  144.7417  140.3503  143.6117 H   0  0  0  0  0  0  0  0  0  0  0  0  # atno 7974 bound_to 7965
  155.3098  140.0457  157.3034 H   0  0  0  0  0  0  0  0  0  0  0  0  # atno 8008 bound_to 7997
  154.5439  140.2296  155.8562 H   0  0  0  0  0  0  0  0  0  0  0  0  # atno 8009 bound_to 7997
  156.1906  140.3051  155.9332 H   0  0  0  0  0  0  0  0  0  0  0  0  # atno 8010 bound_to 7997
  140.2750  143.3319  152.0498 H   0  0  0  0  0  0  0  0  0  0  0  0  # atno 10167 bound_to 10162
  157.1380  131.0533  151.2340 H   0  0  0  0  0  0  0  0  0  0  0  0  # atno 10718 bound_to 10713
  152.9810  135.5729  154.4978 H   0  0  0  0  0  0  0  0  0  0  0  0  # atno 10763 bound_to 10752
  154.4502  135.2778  155.1788 H   0  0  0  0  0  0  0  0  0  0  0  0  # atno 10764 bound_to 10752
  154.3419  135.6227  153.5654 H   0  0  0  0  0  0  0  0  0  0  0  0  # atno 10765 bound_to 10752
  140.4963  134.0791  155.7783 H   0  0  0  0  0  0  0  0  0  0  0  0  # atno 11005 bound_to 11000
  145.7283  139.1729  143.2445 LP  0  0  0  0  0  0  0  0  0  0  0  0  # atno 17320 bound_to 7965
  146.1225  140.7290  142.9451 LP  0  0  0  0  0  0  0  0  0  0  0  0  # atno 17321 bound_to 7965
  139.4978  144.6631  151.6419 LP  0  0  0  0  0  0  0  0  0  0  0  0  # atno 17342 bound_to 10162
  140.5859  143.9865  150.6295 LP  0  0  0  0  0  0  0  0  0  0  0  0  # atno 17343 bound_to 10162
  157.4332  130.7502  149.7007 LP  0  0  0  0  0  0  0  0  0  0  0  0  # atno 17370 bound_to 10713
  155.9794  130.4040  150.3589 LP  0  0  0  0  0  0  0  0  0  0  0  0  # atno 17371 bound_to 10713
  141.1459  133.9056  157.2217 LP  0  0  0  0  0  0  0  0  0  0  0  0  # atno 17394 bound_to 11000
  139.9740  135.0120  156.9583 LP  0  0  0  0  0  0  0  0  0  0  0  0  # atno 17395 bound_to 11000

$$$$
