AV-unprocessed.smi:697|AV-procd|sdf|3389|dock6
  -GOLD-   22720 0373D 1   1.00000     0.00000
 Structure written by MMmdl.
 44 45  0  0  0  0  0  0  0  0  1 V2000
  139.2778  145.9391  153.9240 C   0  0  0  0  0  0  0  0  0  0  0  0
  140.6547  146.0581  154.2570 O   0  0  0  0  0  0  0  0  0  0  0  0
  141.1256  145.2190  155.3129 C   0  0  1  0  0  0  0  0  0  0  0  0
  140.3553  145.5228  156.6076 C   0  0  0  0  0  0  0  0  0  0  0  0
  141.2512  143.7472  154.8782 C   0  0  0  0  0  0  0  0  0  0  0  0
  142.5920  143.7389  155.6090 C   0  0  1  0  0  0  0  0  0  0  0  0
  143.5976  142.9274  154.9319 N   0  0  0  0  0  0  0  0  0  0  0  0
  144.8557  142.7677  155.3633 C   0  0  0  0  0  0  0  0  0  0  0  0
  145.2872  143.2930  156.3893 O   0  0  0  0  0  0  0  0  0  0  0  0
  145.5463  141.9587  154.5392 N   0  0  0  0  0  0  0  0  0  0  0  0
  146.8873  141.5453  154.6137 C   0  0  0  0  0  0  0  0  0  0  0  0
  147.7037  141.7391  155.6826 C   0  0  0  0  0  0  0  0  0  0  0  0
  149.0873  141.2934  155.6878 C   0  0  0  0  0  0  0  0  0  0  0  0
  149.9699  141.4469  156.9166 C   0  0  0  0  0  0  0  0  0  0  0  0
  150.4066  140.2634  157.3494 F   0  0  0  0  0  0  0  0  0  0  0  0
  151.0303  142.1970  156.6207 F   0  0  0  0  0  0  0  0  0  0  0  0
  149.3079  142.0380  157.9113 F   0  0  0  0  0  0  0  0  0  0  0  0
  149.5194  140.6645  154.5794 C   0  0  0  0  0  0  0  0  0  0  0  0
  148.6932  140.4798  153.4687 N   0  0  0  0  0  0  0  0  0  0  0  0
  147.4042  140.8820  153.4050 C   0  0  0  0  0  0  0  0  0  0  0  0
  146.7425  140.6863  152.3861 O   0  0  0  0  0  0  0  0  0  0  0  0
  142.6885  145.2616  155.3347 C   0  0  0  0  0  0  0  0  0  0  0  0
  143.3756  145.6887  154.0216 C   0  0  0  0  0  0  0  0  0  0  0  0
  143.3420  146.0981  156.4391 C   0  0  0  0  0  0  0  0  0  0  0  0
  149.0975  140.0148  152.6686 H   0  0  0  0  0  0  0  0  0  0  0  0
  139.0678  146.5607  153.0537 H   0  0  0  0  0  0  0  0  0  0  0  0
  138.6323  146.2843  154.7310 H   0  0  0  0  0  0  0  0  0  0  0  0
  139.0057  144.9145  153.6699 H   0  0  0  0  0  0  0  0  0  0  0  0
  140.7800  145.0005  157.4647 H   0  0  0  0  0  0  0  0  0  0  0  0
  139.3138  145.2091  156.5450 H   0  0  0  0  0  0  0  0  0  0  0  0
  140.3680  146.5887  156.8360 H   0  0  0  0  0  0  0  0  0  0  0  0
  140.5013  143.0793  155.3032 H   0  0  0  0  0  0  0  0  0  0  0  0
  141.3384  143.6133  153.7982 H   0  0  0  0  0  0  0  0  0  0  0  0
  142.4737  143.5015  156.6687 H   0  0  0  0  0  0  0  0  0  0  0  0
  143.3161  142.4595  154.0828 H   0  0  0  0  0  0  0  0  0  0  0  0
  145.0278  141.5551  153.7725 H   0  0  0  0  0  0  0  0  0  0  0  0
  147.3539  142.2529  156.5627 H   0  0  0  0  0  0  0  0  0  0  0  0
  150.5125  140.2575  154.4591 H   0  0  0  0  0  0  0  0  0  0  0  0
  144.4512  145.5120  154.0532 H   0  0  0  0  0  0  0  0  0  0  0  0
  143.2305  146.7513  153.8234 H   0  0  0  0  0  0  0  0  0  0  0  0
  142.9897  145.1486  153.1571 H   0  0  0  0  0  0  0  0  0  0  0  0
  144.4278  145.9986  156.4273 H   0  0  0  0  0  0  0  0  0  0  0  0
  143.0129  145.7931  157.4321 H   0  0  0  0  0  0  0  0  0  0  0  0
  143.1071  147.1571  156.3285 H   0  0  0  0  0  0  0  0  0  0  0  0
  1  2  1  0  0  0  0
  1 26  1  0  0  0  0
  1 27  1  0  0  0  0
  1 28  1  0  0  0  0
  2  3  1  0  0  0  0
  3 22  1  0  0  0  0
  3  4  1  0  0  0  0
  3  5  1  0  0  0  0
  4 29  1  0  0  0  0
  4 30  1  0  0  0  0
  4 31  1  0  0  0  0
  5  6  1  0  0  0  0
  5 32  1  0  0  0  0
  5 33  1  0  0  0  0
  6  7  1  0  0  0  0
  6 22  1  0  0  0  0
  6 34  1  0  0  0  0
  7  8  1  0  0  0  0
  7 35  1  0  0  0  0
  8  9  2  0  0  0  0
  8 10  1  0  0  0  0
 10 11  1  0  0  0  0
 10 36  1  0  0  0  0
 11 20  1  0  0  0  0
 11 12  2  0  0  0  0
 12 13  1  0  0  0  0
 12 37  1  0  0  0  0
 13 14  1  0  0  0  0
 13 18  2  0  0  0  0
 14 15  1  0  0  0  0
 14 16  1  0  0  0  0
 14 17  1  0  0  0  0
 18 19  1  0  0  0  0
 18 38  1  0  0  0  0
 19 25  1  0  0  0  0
 19 20  1  0  0  0  0
 20 21  2  0  0  0  0
 22 23  1  0  0  0  0
 22 24  1  0  0  0  0
 23 39  1  0  0  0  0
 23 40  1  0  0  0  0
 23 41  1  0  0  0  0
 24 42  1  0  0  0  0
 24 43  1  0  0  0  0
 24 44  1  0  0  0  0
M  END
> <s_m_source_file>
AV-unprocessed.smi

> <i_m_source_file_index>
697

> <i_lp_mmshare_version>
43012

> <i_f3d_flags>
0

> <s_epik_input>
W0NIM11PW0NAQF0xKFtDSDNdKVtDSDJdW0NASF0oQzEoW0NIM10pW0NIM10pW05IXUMoPU8pW05IXWMyW2NIXWMoQyhGKShGKUYpW2NIXVtuSF1jMj1P

> <s_epik_cmdline>
J2VwaWtfcHl0aG9uJywgJy1waCcsICc3LjAnLCAnLXRuJywgJzgnLCAnLW1hJywgJzIwMCcsICctbWV0YWxfYmluZGluZycsICctaW1hZScsICc8aW5maWxlLm1hZT4nLCAnLW9tYWUnLCAnPG91dGZpbGUubWFlPic=

> <r_lp_tautomer_probability>
1

> <r_epik_Ionization_Penalty>
0.0036482

> <r_epik_Ionization_Penalty_Charging>
0.00362828

> <r_epik_Ionization_Penalty_Neutral>
1.99208e-05

> <r_epik_State_Penalty>
-0

> <r_epik_Charging_Adjusted_Penalty>
0.00362828

> <i_epik_Tot_Q>
0

> <i_epik_Tot_abs_Q>
0

> <r_epik_Metal_State_Penalty>
0.369362

> <b_epik_Metal_Only>
0

> <s_lp_Force_Field>
OPLS_2005

> <r_lp_Energy>
34.4926

> <b_lp_Chiralities_Consistent>
1

> <s_lp_Variant>
AV-unprocessed.smi:697-1

> <Gold.Version>
5.8.1

> <Gold.Id.Protein>
6NUR|6NUR_protein|mol2

> <Gold.PLP.Fitness>
40.2286

> <Gold.PLP.PLP>
-32.9979

> <Gold.PLP.part.hbond>
-2.6949

> <Gold.PLP.part.metal>
0.0000

> <Gold.PLP.part.buried>
-4.2903

> <Gold.PLP.part.nonpolar>
-27.8440

> <Gold.PLP.part.repulsive>
1.0944

> <Gold.PLP.ligand.clash>
0.0000

> <Gold.PLP.ligand.torsion>
0.2750

> <Gold.PLP.Chemscore.Hbond>
2.4594

> <Gold.PLP.Chemscore.CHOScore>
0.0000

> <Gold.PLP.Chemscore.Metal>
0.0000

> <Gold.Chemscore.Hbonds>
donor molecule, donor type, donor heavy atom, donor atom, acceptor molecule, acceptor atom, score
      L1  H     7    35       P1 10174  0.72
      L1  H    10    36       P1 10175  0.64
      L1  H    19    25       P1  7957  1.00

> <Gold.PLP.Chemscore.Internal.Correction>
0.4025

> <Gold.Rescore>
     Score         DG    S(hbond)    S(metal)    S(lipo)     H(rot)  DE(clash)    DE(int)     intcor
     12.10     -14.24       1.20        0.00      69.21       1.31       0.68       1.46       ----

> <Gold.Chemscore.Fitness>
12.0994

> <Gold.Chemscore.DG>
-14.2367

> <Gold.Chemscore.ZeroCoef>
-5.4800

> <Gold.Chemscore.Hbond>
1.1985

> <Gold.Chemscore.Metal>
0.0000

> <Gold.Chemscore.Lipo>
69.2121

> <Gold.Chemscore.Internal_Hbond>
0.0000

> <Gold.Chemscore.DEClash>
0.6808

> <Gold.Chemscore.DEInternal>
1.4566

> <Gold.Chemscore.Rot>
1.3062

> <Gold.Chemscore.Internal.Correction>
   9.000000E+99

> <Gold.Chemscore.Hbonds>
donor molecule, donor type, donor heavy atom, donor atom, acceptor molecule, acceptor atom, score
      L1  H     7    35       P1 10174  0.08
      L1  H    10    36       P1 10175  0.11
      L1  H    19    25       P1  7957  0.94

> <Gold.Chemscore.Hbond.Weighted>
-4.0029

> <Gold.Chemscore.Metal.Weighted>
-0.0000

> <Gold.Chemscore.Lipo.Weighted>
-8.0978

> <Gold.Chemscore.Internal_Hbond.Weighted>
0.0000

> <Gold.Chemscore.DEClash.Weighted>
0.6808

> <Gold.Chemscore.DEInternal.Weighted>
1.4566

> <Gold.Chemscore.Rot.Weighted>
3.3440

> <Gold.Chemscore.Internal.Correction.Weighted>
   9.000000E+99

> <Gold.Protein.RotatedTorsions>
[ 6907 6896 6895 6894 ] final  167.01 input  -60.11 | X-H torsion
[ 7974 7965 7964 7962 ] final   -4.49 input  175.53 | X-H torsion
[ 8008 7997 7996 7995 ] final  147.08 input   59.86 | X-H torsion
[ 10167 10162 10161 10158 ] final -127.43 input  -65.29 | X-H torsion
[ 10718 10713 10712 10709 ] final -122.48 input   66.30 | X-H torsion
[ 10763 10752 10751 10750 ] final  113.39 input  -60.55 | X-H torsion
[ 11005 11000 10999 10996 ] final   68.50 input  -57.11 | X-H torsion

> <Gold.Protein.ActiveResidues>
 VAL166  LYS551  ARG553  GLY616  TRP617  ASP618  TYR619  PRO620  LYS621  CYS622 
 ASP623  PHE694  ASN695  SER759  ASP760  ASP761  ALA762  ILE779  LEU786  VAL792 
 PHE793  MET794  SER795  GLU796  ALA797  LYS798  CYS799  TRP800  GLU811  SER814 

> <Gold.Protein.RotatedAtoms>
  151.8699  133.3473  159.3731 H   0  0  0  0  0  0  0  0  0  0  0  0  # atno 6907 bound_to 6896
  150.7155  134.5123  159.5622 H   0  0  0  0  0  0  0  0  0  0  0  0  # atno 6908 bound_to 6896
  152.2653  134.7991  160.0474 H   0  0  0  0  0  0  0  0  0  0  0  0  # atno 6909 bound_to 6896
  146.2371  140.1879  142.8332 H   0  0  0  0  0  0  0  0  0  0  0  0  # atno 7974 bound_to 7965
  156.2836  140.2165  156.5480 H   0  0  0  0  0  0  0  0  0  0  0  0  # atno 8008 bound_to 7997
  154.7315  140.0495  157.0753 H   0  0  0  0  0  0  0  0  0  0  0  0  # atno 8009 bound_to 7997
  155.0348  140.3139  155.4748 H   0  0  0  0  0  0  0  0  0  0  0  0  # atno 8010 bound_to 7997
  139.9609  143.5951  152.2445 H   0  0  0  0  0  0  0  0  0  0  0  0  # atno 10167 bound_to 10162
  156.1422  130.6474  150.9788 H   0  0  0  0  0  0  0  0  0  0  0  0  # atno 10718 bound_to 10713
  153.4919  135.3657  155.2496 H   0  0  0  0  0  0  0  0  0  0  0  0  # atno 10763 bound_to 10752
  154.8752  135.3979  154.3579 H   0  0  0  0  0  0  0  0  0  0  0  0  # atno 10764 bound_to 10752
  153.4200  135.7080  153.6366 H   0  0  0  0  0  0  0  0  0  0  0  0  # atno 10765 bound_to 10752
  139.9708  134.6903  156.0451 H   0  0  0  0  0  0  0  0  0  0  0  0  # atno 11005 bound_to 11000
  144.9882  140.8522  143.5356 LP  0  0  0  0  0  0  0  0  0  0  0  0  # atno 17320 bound_to 7965
  145.1881  139.2315  143.5257 LP  0  0  0  0  0  0  0  0  0  0  0  0  # atno 17321 bound_to 7965
  139.6555  144.7662  151.2065 LP  0  0  0  0  0  0  0  0  0  0  0  0  # atno 17342 bound_to 10162
  140.7553  143.6093  150.8621 LP  0  0  0  0  0  0  0  0  0  0  0  0  # atno 17343 bound_to 10162
  157.6585  131.0885  150.7892 LP  0  0  0  0  0  0  0  0  0  0  0  0  # atno 17370 bound_to 10713
  156.7966  130.4907  149.5376 LP  0  0  0  0  0  0  0  0  0  0  0  0  # atno 17371 bound_to 10713
  141.1387  133.6569  156.3669 LP  0  0  0  0  0  0  0  0  0  0  0  0  # atno 17394 bound_to 11000
  140.5298  134.6224  157.5346 LP  0  0  0  0  0  0  0  0  0  0  0  0  # atno 17395 bound_to 11000

$$$$
