AV-unprocessed.smi:3030|AV-procd|sdf|11537|dock8
  -GOLD-   2272016483D 1   1.00000     0.00000
 Structure written by MMmdl.
 52 53  0  0  0  0  0  0  0  0  1 V2000
  151.2275  139.4452  158.0606 C   0  0  0  0  0  0  0  0  0  0  0  0
  152.4170  140.2832  158.5423 C   0  0  0  0  0  0  0  0  0  0  0  0
  152.0542  141.6816  158.7226 N   0  0  0  0  0  0  0  0  0  0  0  0
  152.9781  142.6161  159.1791 C   0  0  0  0  0  0  0  0  0  0  0  0
  152.6868  143.9087  159.4227 C   0  0  0  0  0  0  0  0  0  0  0  0
  151.3088  144.3937  159.2044 C   0  0  0  0  0  0  0  0  0  0  0  0
  151.0062  145.5671  159.4207 O   0  0  0  0  0  0  0  0  0  0  0  0
  150.3220  143.3951  158.7151 C   0  0  0  0  0  0  0  0  0  0  0  0
  149.0102  143.8571  158.5207 N   0  0  0  0  0  0  0  0  0  0  0  0
  147.8462  143.2639  158.8426 C   0  0  0  0  0  0  0  0  0  0  0  0
  147.7214  142.1473  159.3449 O   0  0  0  0  0  0  0  0  0  0  0  0
  146.8080  144.0512  158.5283 N   0  0  0  0  0  0  0  0  0  0  0  0
  145.3949  143.7238  158.7276 C   0  0  2  0  0  0  0  0  0  0  0  0
  144.6050  143.9119  157.4156 C   0  0  0  0  0  0  0  0  0  0  0  0
  144.4607  145.3920  157.0186 C   0  0  1  0  0  0  0  0  0  0  0  0
  143.6605  145.5497  155.7179 C   0  0  0  0  0  0  0  0  0  0  0  0
  143.8236  146.1811  158.1728 C   0  0  0  0  0  0  0  0  0  0  0  0
  144.6217  146.0262  159.4769 C   0  0  0  0  0  0  0  0  0  0  0  0
  144.7859  144.5445  159.9006 C   0  0  2  0  0  0  0  0  0  0  0  0
  145.5640  144.3864  161.2441 C   0  0  0  0  0  0  0  0  0  0  0  0
  146.8468  145.2396  161.2898 C   0  0  0  0  0  0  0  0  0  0  0  0
  145.9327  142.9218  161.5489 C   0  0  0  0  0  0  0  0  0  0  0  0
  150.7483  142.1216  158.5172 C   0  0  0  0  0  0  0  0  0  0  0  0
  151.5161  138.4023  157.9299 H   0  0  0  0  0  0  0  0  0  0  0  0
  150.8507  139.8092  157.1045 H   0  0  0  0  0  0  0  0  0  0  0  0
  150.4077  139.4760  158.7790 H   0  0  0  0  0  0  0  0  0  0  0  0
  152.7963  139.8821  159.4830 H   0  0  0  0  0  0  0  0  0  0  0  0
  153.2365  140.2083  157.8265 H   0  0  0  0  0  0  0  0  0  0  0  0
  153.9743  142.2236  159.3238 H   0  0  0  0  0  0  0  0  0  0  0  0
  153.4387  144.5999  159.7748 H   0  0  0  0  0  0  0  0  0  0  0  0
  148.9457  144.7505  158.0545 H   0  0  0  0  0  0  0  0  0  0  0  0
  147.0064  144.9512  158.1163 H   0  0  0  0  0  0  0  0  0  0  0  0
  145.3145  142.6664  158.9815 H   0  0  0  0  0  0  0  0  0  0  0  0
  145.0836  143.3533  156.6100 H   0  0  0  0  0  0  0  0  0  0  0  0
  143.6129  143.4741  157.5354 H   0  0  0  0  0  0  0  0  0  0  0  0
  145.4566  145.7996  156.8391 H   0  0  0  0  0  0  0  0  0  0  0  0
  142.6482  145.1583  155.8246 H   0  0  0  0  0  0  0  0  0  0  0  0
  144.1394  145.0159  154.8966 H   0  0  0  0  0  0  0  0  0  0  0  0
  143.5835  146.5979  155.4281 H   0  0  0  0  0  0  0  0  0  0  0  0
  143.7588  147.2375  157.9098 H   0  0  0  0  0  0  0  0  0  0  0  0
  142.7994  145.8410  158.3322 H   0  0  0  0  0  0  0  0  0  0  0  0
  145.6016  146.4917  159.3633 H   0  0  0  0  0  0  0  0  0  0  0  0
  144.1013  146.5922  160.2481 H   0  0  0  0  0  0  0  0  0  0  0  0
  143.7814  144.1515  160.0681 H   0  0  0  0  0  0  0  0  0  0  0  0
  144.9224  144.7257  162.0582 H   0  0  0  0  0  0  0  0  0  0  0  0
  147.5065  145.0086  160.4529 H   0  0  0  0  0  0  0  0  0  0  0  0
  147.4054  145.0626  162.2093 H   0  0  0  0  0  0  0  0  0  0  0  0
  146.6292  146.3071  161.2631 H   0  0  0  0  0  0  0  0  0  0  0  0
  146.4956  142.4747  160.7291 H   0  0  0  0  0  0  0  0  0  0  0  0
  145.0519  142.3071  161.7300 H   0  0  0  0  0  0  0  0  0  0  0  0
  146.5464  142.8500  162.4474 H   0  0  0  0  0  0  0  0  0  0  0  0
  150.0954  141.3299  158.1859 H   0  0  0  0  0  0  0  0  0  0  0  0
  1  2  1  0  0  0  0
  1 24  1  0  0  0  0
  1 25  1  0  0  0  0
  1 26  1  0  0  0  0
  2  3  1  0  0  0  0
  2 27  1  0  0  0  0
  2 28  1  0  0  0  0
  3 23  1  0  0  0  0
  3  4  1  0  0  0  0
  4  5  2  0  0  0  0
  4 29  1  0  0  0  0
  5  6  1  0  0  0  0
  5 30  1  0  0  0  0
  6  7  2  0  0  0  0
  6  8  1  0  0  0  0
  8  9  1  0  0  0  0
  8 23  2  0  0  0  0
  9 10  1  0  0  0  0
  9 31  1  0  0  0  0
 10 11  2  0  0  0  0
 10 12  1  0  0  0  0
 12 13  1  0  0  0  0
 12 32  1  0  0  0  0
 13 19  1  0  0  0  0
 13 14  1  0  0  0  0
 13 33  1  0  0  0  0
 14 15  1  0  0  0  0
 14 34  1  0  0  0  0
 14 35  1  0  0  0  0
 15 16  1  0  0  0  0
 15 17  1  0  0  0  0
 15 36  1  0  0  0  0
 16 37  1  0  0  0  0
 16 38  1  0  0  0  0
 16 39  1  0  0  0  0
 17 18  1  0  0  0  0
 17 40  1  0  0  0  0
 17 41  1  0  0  0  0
 18 19  1  0  0  0  0
 18 42  1  0  0  0  0
 18 43  1  0  0  0  0
 19 20  1  0  0  0  0
 19 44  1  0  0  0  0
 20 21  1  0  0  0  0
 20 22  1  0  0  0  0
 20 45  1  0  0  0  0
 21 46  1  0  0  0  0
 21 47  1  0  0  0  0
 21 48  1  0  0  0  0
 22 49  1  0  0  0  0
 22 50  1  0  0  0  0
 22 51  1  0  0  0  0
 23 52  1  0  0  0  0
M  END
> <s_m_source_file>
AV-unprocessed.smi

> <i_m_source_file_index>
3030

> <i_lp_mmshare_version>
43012

> <i_f3d_flags>
0

> <s_epik_input>
W0NIM11bQ0gyXW4xW2NIXVtjSF1jKD1PKWMoW2NIXTEpW05IXUMoPU8pW05IXVtDQEBIXTJbQ0gyXVtDQEBIXShbQ0gzXSlbQ0gyXVtDSDJdW0NASF0yW0NIXShbQ0gzXSlbQ0gzXQ==

> <s_epik_cmdline>
J2VwaWtfcHl0aG9uJywgJy1waCcsICc3LjAnLCAnLXRuJywgJzgnLCAnLW1hJywgJzIwMCcsICctbWV0YWxfYmluZGluZycsICctaW1hZScsICc8aW5maWxlLm1hZT4nLCAnLW9tYWUnLCAnPG91dGZpbGUubWFlPic=

> <r_lp_tautomer_probability>
1

> <r_epik_Ionization_Penalty>
0.00147933

> <r_epik_Ionization_Penalty_Charging>
0.00145753

> <r_epik_Ionization_Penalty_Neutral>
2.17987e-05

> <r_epik_State_Penalty>
0.00097457

> <r_epik_Charging_Adjusted_Penalty>
0.0024321

> <i_epik_Tot_Q>
0

> <i_epik_Tot_abs_Q>
0

> <r_epik_Metal_State_Penalty>
-0

> <b_epik_Metal_Only>
0

> <s_lp_Force_Field>
OPLS_2005

> <r_lp_Energy>
9.06052

> <b_lp_Chiralities_Consistent>
1

> <s_lp_Variant>
AV-unprocessed.smi:3030-5

> <Gold.Version>
5.8.1

> <Gold.Id.Protein>
6NUR|6NUR_protein|mol2

> <Gold.PLP.Fitness>
46.1545

> <Gold.PLP.PLP>
-39.5983

> <Gold.PLP.part.hbond>
-6.1491

> <Gold.PLP.part.metal>
0.0000

> <Gold.PLP.part.buried>
-2.2493

> <Gold.PLP.part.nonpolar>
-32.8356

> <Gold.PLP.part.repulsive>
0.3469

> <Gold.PLP.ligand.clash>
0.0000

> <Gold.PLP.ligand.torsion>
0.6411

> <Gold.PLP.Chemscore.Hbond>
2.5893

> <Gold.PLP.Chemscore.CHOScore>
0.0000

> <Gold.PLP.Chemscore.Metal>
0.0000

> <Gold.Chemscore.Hbonds>
donor molecule, donor type, donor heavy atom, donor atom, acceptor molecule, acceptor atom, score
      L1  H     9    31       P1  8029  0.94
      L1  H    12    32       P1  8029  1.00
      P1  H  6933  6944       L1    11  0.17
      P1  H  6934  6946       L1    11  0.38

> <Gold.PLP.Chemscore.Internal.Correction>
0.0704

> <Gold.Rescore>
     Score         DG    S(hbond)    S(metal)    S(lipo)     H(rot)  DE(clash)    DE(int)     intcor
     17.07     -19.77       2.11        0.00      89.61       1.27       0.51       2.19       ----

> <Gold.Chemscore.Fitness>
17.0748

> <Gold.Chemscore.DG>
-19.7748

> <Gold.Chemscore.ZeroCoef>
-5.4800

> <Gold.Chemscore.Hbond>
2.1131

> <Gold.Chemscore.Metal>
0.0000

> <Gold.Chemscore.Lipo>
89.6119

> <Gold.Chemscore.Internal_Hbond>
0.0000

> <Gold.Chemscore.DEClash>
0.5079

> <Gold.Chemscore.DEInternal>
2.1921

> <Gold.Chemscore.Rot>
1.2685

> <Gold.Chemscore.Internal.Correction>
   9.000000E+99

> <Gold.Chemscore.Hbonds>
donor molecule, donor type, donor heavy atom, donor atom, acceptor molecule, acceptor atom, score
      L1  H     9    31       P1  8029  0.23
      L1  H    12    32       P1  8029  0.86
      P1  H  6933  6944       L1    11  0.10
      P1  H  6934  6946       L1    11  0.36

> <Gold.Chemscore.Hbond.Weighted>
-7.0576

> <Gold.Chemscore.Metal.Weighted>
-0.0000

> <Gold.Chemscore.Lipo.Weighted>
-10.4846

> <Gold.Chemscore.Internal_Hbond.Weighted>
0.0000

> <Gold.Chemscore.DEClash.Weighted>
0.5079

> <Gold.Chemscore.DEInternal.Weighted>
2.1921

> <Gold.Chemscore.Rot.Weighted>
3.2474

> <Gold.Chemscore.Internal.Correction.Weighted>
   9.000000E+99

> <Gold.Protein.RotatedTorsions>
[ 6907 6896 6895 6894 ] final  -33.18 input  -60.11 | X-H torsion
[ 7974 7965 7964 7962 ] final  142.17 input  175.53 | X-H torsion
[ 8008 7997 7996 7995 ] final  146.53 input   59.86 | X-H torsion
[ 10167 10162 10161 10158 ] final   19.51 input  -65.29 | X-H torsion
[ 10718 10713 10712 10709 ] final   -5.56 input   66.30 | X-H torsion
[ 10763 10752 10751 10750 ] final   17.72 input  -60.55 | X-H torsion
[ 11005 11000 10999 10996 ] final  124.83 input  -57.11 | X-H torsion

> <Gold.Protein.ActiveResidues>
 VAL166  LYS551  ARG553  GLY616  TRP617  ASP618  TYR619  PRO620  LYS621  CYS622 
 ASP623  PHE694  ASN695  SER759  ASP760  ASP761  ALA762  ILE779  LEU786  VAL792 
 PHE793  MET794  SER795  GLU796  ALA797  LYS798  CYS799  TRP800  GLU811  SER814 

> <Gold.Protein.RotatedAtoms>
  151.0689  134.9785  159.8298 H   0  0  0  0  0  0  0  0  0  0  0  0  # atno 6907 bound_to 6896
  152.5406  134.2324  159.8840 H   0  0  0  0  0  0  0  0  0  0  0  0  # atno 6908 bound_to 6896
  151.2347  133.4388  159.2638 H   0  0  0  0  0  0  0  0  0  0  0  0  # atno 6909 bound_to 6896
  144.9031  139.5396  143.5744 H   0  0  0  0  0  0  0  0  0  0  0  0  # atno 7974 bound_to 7965
  156.2852  140.2180  156.5391 H   0  0  0  0  0  0  0  0  0  0  0  0  # atno 8008 bound_to 7997
  154.7385  140.0489  157.0812 H   0  0  0  0  0  0  0  0  0  0  0  0  # atno 8009 bound_to 7997
  155.0262  140.3129  155.4778 H   0  0  0  0  0  0  0  0  0  0  0  0  # atno 8010 bound_to 7997
  140.5573  143.9401  150.6618 H   0  0  0  0  0  0  0  0  0  0  0  0  # atno 10167 bound_to 10162
  156.7448  130.5221  149.5816 H   0  0  0  0  0  0  0  0  0  0  0  0  # atno 10718 bound_to 10713
  153.1313  135.6741  153.9173 H   0  0  0  0  0  0  0  0  0  0  0  0  # atno 10763 bound_to 10752
  153.8658  135.3075  155.3441 H   0  0  0  0  0  0  0  0  0  0  0  0  # atno 10764 bound_to 10752
  154.7710  135.4939  153.9730 H   0  0  0  0  0  0  0  0  0  0  0  0  # atno 10765 bound_to 10752
  139.9377  134.9638  156.8468 H   0  0  0  0  0  0  0  0  0  0  0  0  # atno 11005 bound_to 11000
  146.3119  139.7777  142.9013 LP  0  0  0  0  0  0  0  0  0  0  0  0  # atno 17320 bound_to 7965
  145.3582  141.0321  143.3300 LP  0  0  0  0  0  0  0  0  0  0  0  0  # atno 17321 bound_to 7965
  140.2842  143.3368  152.1123 LP  0  0  0  0  0  0  0  0  0  0  0  0  # atno 17342 bound_to 10162
  139.5054  144.6794  151.6047 LP  0  0  0  0  0  0  0  0  0  0  0  0  # atno 17343 bound_to 10162
  156.1440  130.6264  151.0506 LP  0  0  0  0  0  0  0  0  0  0  0  0  # atno 17370 bound_to 10713
  157.6803  131.0840  150.7388 LP  0  0  0  0  0  0  0  0  0  0  0  0  # atno 17371 bound_to 10713
  140.6032  134.0152  155.7546 LP  0  0  0  0  0  0  0  0  0  0  0  0  # atno 17394 bound_to 11000
  141.0998  133.9785  157.3097 LP  0  0  0  0  0  0  0  0  0  0  0  0  # atno 17395 bound_to 11000

$$$$
