AV-unprocessed.smi:2950|AV-procd|sdf|11288|dock5
  -GOLD-   2272016183D 1   1.00000     0.00000
 Structure written by MMmdl.
 29 30  0  0  0  0  0  0  0  0  1 V2000
  149.3760  140.6504  154.6854 C   0  0  0  0  0  0  0  0  0  0  0  0
  150.7049  140.2755  155.0028 O   0  0  0  0  0  0  0  0  0  0  0  0
  151.2835  141.1122  155.9895 C   0  0  0  0  0  0  0  0  0  0  0  0
  150.9192  140.5676  157.3761 C   0  0  0  0  0  0  0  0  0  0  0  0
  151.6417  141.2609  158.4309 N   0  0  0  0  0  0  0  0  0  0  0  0
  152.5835  140.7613  159.2698 C   0  0  0  0  0  0  0  0  0  0  0  0
  153.0125  139.3235  159.1951 C   0  0  0  0  0  0  0  0  0  0  0  0
  154.3797  139.1478  158.8829 O   0  0  0  0  0  0  0  0  0  0  0  0
  153.0845  141.6272  160.1543 N   0  0  0  0  0  0  0  0  0  0  0  0
  152.4113  142.7953  159.8551 C   0  0  0  0  0  0  0  0  0  0  0  0
  152.4980  144.0806  160.4366 C   0  0  0  0  0  0  0  0  0  0  0  0
  151.6992  145.1378  159.9536 C   0  0  0  0  0  0  0  0  0  0  0  0
  150.8048  144.9258  158.8844 C   0  0  0  0  0  0  0  0  0  0  0  0
  150.7026  143.6527  158.2911 C   0  0  0  0  0  0  0  0  0  0  0  0
  151.5012  142.6007  158.7783 C   0  0  0  0  0  0  0  0  0  0  0  0
  148.9766  139.9769  153.9272 H   0  0  0  0  0  0  0  0  0  0  0  0
  149.3359  141.6657  154.2885 H   0  0  0  0  0  0  0  0  0  0  0  0
  148.7296  140.5912  155.5620 H   0  0  0  0  0  0  0  0  0  0  0  0
  152.3672  141.1399  155.8659 H   0  0  0  0  0  0  0  0  0  0  0  0
  150.9123  142.1323  155.8778 H   0  0  0  0  0  0  0  0  0  0  0  0
  149.8497  140.6842  157.5548 H   0  0  0  0  0  0  0  0  0  0  0  0
  151.1245  139.4987  157.4353 H   0  0  0  0  0  0  0  0  0  0  0  0
  152.8069  138.8435  160.1522 H   0  0  0  0  0  0  0  0  0  0  0  0
  152.4225  138.8083  158.4372 H   0  0  0  0  0  0  0  0  0  0  0  0
  154.7316  138.4727  159.4425 H   0  0  0  0  0  0  0  0  0  0  0  0
  153.1810  144.2527  161.2552 H   0  0  0  0  0  0  0  0  0  0  0  0
  151.7735  146.1162  160.4053 H   0  0  0  0  0  0  0  0  0  0  0  0
  150.1974  145.7415  158.5203 H   0  0  0  0  0  0  0  0  0  0  0  0
  150.0189  143.4873  157.4717 H   0  0  0  0  0  0  0  0  0  0  0  0
  1  2  1  0  0  0  0
  1 16  1  0  0  0  0
  1 17  1  0  0  0  0
  1 18  1  0  0  0  0
  2  3  1  0  0  0  0
  3  4  1  0  0  0  0
  3 19  1  0  0  0  0
  3 20  1  0  0  0  0
  4  5  1  0  0  0  0
  4 21  1  0  0  0  0
  4 22  1  0  0  0  0
  5 15  1  0  0  0  0
  5  6  1  0  0  0  0
  6  7  1  0  0  0  0
  6  9  2  0  0  0  0
  7  8  1  0  0  0  0
  7 23  1  0  0  0  0
  7 24  1  0  0  0  0
  8 25  1  0  0  0  0
  9 10  1  0  0  0  0
 10 15  2  0  0  0  0
 10 11  1  0  0  0  0
 11 12  2  0  0  0  0
 11 26  1  0  0  0  0
 12 13  1  0  0  0  0
 12 27  1  0  0  0  0
 13 14  2  0  0  0  0
 13 28  1  0  0  0  0
 14 15  1  0  0  0  0
 14 29  1  0  0  0  0
M  END
> <s_m_source_file>
AV-unprocessed.smi

> <i_m_source_file_index>
2950

> <i_lp_mmshare_version>
43012

> <i_f3d_flags>
0

> <s_epik_input>
W0NIM11PW0NIMl1bQ0gyXW4oYyhuMSlbQ0gyXVtPSF0pYyhjMTIpW2NIXVtjSF1bY0hdW2NIXTI=

> <s_epik_cmdline>
J2VwaWtfcHl0aG9uJywgJy1waCcsICc3LjAnLCAnLXRuJywgJzgnLCAnLW1hJywgJzIwMCcsICctbWV0YWxfYmluZGluZycsICctaW1hZScsICc8aW5maWxlLm1hZT4nLCAnLW9tYWUnLCAnPG91dGZpbGUubWFlPic=

> <r_epik_Ionization_Penalty>
0.0637339

> <r_epik_Ionization_Penalty_Charging>
0

> <r_epik_Ionization_Penalty_Neutral>
0.0637339

> <r_epik_State_Penalty>
0.0554025

> <r_epik_Charging_Adjusted_Penalty>
0.0554025

> <i_epik_Tot_Q>
0

> <i_epik_Tot_abs_Q>
0

> <r_epik_Metal_State_Penalty>
5.80726e-05

> <b_epik_Metal_Only>
0

> <s_lp_Force_Field>
OPLS_2005

> <r_lp_Energy>
9.41749

> <b_lp_Chiralities_Consistent>
1

> <s_lp_Variant>
AV-unprocessed.smi:2950-1

> <Gold.Version>
5.8.1

> <Gold.Id.Protein>
6NUR|6NUR_protein|mol2

> <Gold.PLP.Fitness>
40.2485

> <Gold.PLP.PLP>
-34.6613

> <Gold.PLP.part.hbond>
-2.0000

> <Gold.PLP.part.metal>
0.0000

> <Gold.PLP.part.buried>
-6.0030

> <Gold.PLP.part.nonpolar>
-26.1707

> <Gold.PLP.part.repulsive>
0.0567

> <Gold.PLP.ligand.clash>
0.0000

> <Gold.PLP.ligand.torsion>
0.2118

> <Gold.PLP.Chemscore.Hbond>
2.0000

> <Gold.PLP.Chemscore.CHOScore>
0.0000

> <Gold.PLP.Chemscore.Metal>
0.0000

> <Gold.Chemscore.Hbonds>
donor molecule, donor type, donor heavy atom, donor atom, acceptor molecule, acceptor atom, score
      P1  H  7989  7998       L1     2  1.00
      P1  H  7997  8008       L1     8  1.00

> <Gold.PLP.Chemscore.Internal.Correction>
0.0108

> <Gold.Rescore>
     Score         DG    S(hbond)    S(metal)    S(lipo)     H(rot)  DE(clash)    DE(int)     intcor
     16.14     -16.35       1.79        0.00      88.71       2.14       0.06       0.15       ----

> <Gold.Chemscore.Fitness>
16.1400

> <Gold.Chemscore.DG>
-16.3485

> <Gold.Chemscore.ZeroCoef>
-5.4800

> <Gold.Chemscore.Hbond>
1.7882

> <Gold.Chemscore.Metal>
0.0000

> <Gold.Chemscore.Lipo>
88.7136

> <Gold.Chemscore.Internal_Hbond>
0.0000

> <Gold.Chemscore.DEClash>
0.0589

> <Gold.Chemscore.DEInternal>
0.1497

> <Gold.Chemscore.Rot>
2.1420

> <Gold.Chemscore.Internal.Correction>
   9.000000E+99

> <Gold.Chemscore.Hbonds>
donor molecule, donor type, donor heavy atom, donor atom, acceptor molecule, acceptor atom, score
      P1  H  7989  7998       L1     2  0.08
      P1  H  7997  8008       L1     8  0.88

> <Gold.Chemscore.Hbond.Weighted>
-5.9725

> <Gold.Chemscore.Metal.Weighted>
-0.0000

> <Gold.Chemscore.Lipo.Weighted>
-10.3795

> <Gold.Chemscore.Internal_Hbond.Weighted>
0.0000

> <Gold.Chemscore.DEClash.Weighted>
0.0589

> <Gold.Chemscore.DEInternal.Weighted>
0.1497

> <Gold.Chemscore.Rot.Weighted>
5.4834

> <Gold.Chemscore.Internal.Correction.Weighted>
   9.000000E+99

> <Gold.Protein.RotatedTorsions>
[ 6907 6896 6895 6894 ] final -172.77 input  -60.11 | X-H torsion
[ 7974 7965 7964 7962 ] final   25.16 input  175.53 | X-H torsion
[ 8008 7997 7996 7995 ] final -107.47 input   59.86 | X-H torsion
[ 10167 10162 10161 10158 ] final -135.78 input  -65.29 | X-H torsion
[ 10718 10713 10712 10709 ] final   77.19 input   66.30 | X-H torsion
[ 10763 10752 10751 10750 ] final -135.14 input  -60.55 | X-H torsion
[ 11005 11000 10999 10996 ] final  -86.83 input  -57.11 | X-H torsion

> <Gold.Protein.ActiveResidues>
 VAL166  LYS551  ARG553  GLY616  TRP617  ASP618  TYR619  PRO620  LYS621  CYS622 
 ASP623  PHE694  ASN695  SER759  ASP760  ASP761  ALA762  ILE779  LEU786  VAL792 
 PHE793  MET794  SER795  GLU796  ALA797  LYS798  CYS799  TRP800  GLU811  SER814 

> <Gold.Protein.RotatedAtoms>
  151.5454  133.3426  159.2942 H   0  0  0  0  0  0  0  0  0  0  0  0  # atno 6907 bound_to 6896
  150.8510  134.7837  159.7020 H   0  0  0  0  0  0  0  0  0  0  0  0  # atno 6908 bound_to 6896
  152.4556  134.5306  159.9861 H   0  0  0  0  0  0  0  0  0  0  0  0  # atno 6909 bound_to 6896
  146.1902  139.7504  142.8837 H   0  0  0  0  0  0  0  0  0  0  0  0  # atno 7974 bound_to 7965
  154.9298  140.0405  157.2042 H   0  0  0  0  0  0  0  0  0  0  0  0  # atno 8008 bound_to 7997
  154.8172  140.2877  155.5790 H   0  0  0  0  0  0  0  0  0  0  0  0  # atno 8009 bound_to 7997
  156.2977  140.2526  156.3071 H   0  0  0  0  0  0  0  0  0  0  0  0  # atno 8010 bound_to 7997
  139.8744  143.6917  152.2636 H   0  0  0  0  0  0  0  0  0  0  0  0  # atno 10167 bound_to 10162
  157.6701  130.9810  150.1606 H   0  0  0  0  0  0  0  0  0  0  0  0  # atno 10718 bound_to 10713
  154.8708  135.3713  154.4849 H   0  0  0  0  0  0  0  0  0  0  0  0  # atno 10763 bound_to 10752
  153.5500  135.7025  153.5601 H   0  0  0  0  0  0  0  0  0  0  0  0  # atno 10764 bound_to 10752
  153.3724  135.4018  155.1762 H   0  0  0  0  0  0  0  0  0  0  0  0  # atno 10765 bound_to 10752
  141.1625  133.7476  156.9218 H   0  0  0  0  0  0  0  0  0  0  0  0  # atno 11005 bound_to 11000
  145.3815  141.0359  143.3174 LP  0  0  0  0  0  0  0  0  0  0  0  0  # atno 17320 bound_to 7965
  144.8472  139.5377  143.6873 LP  0  0  0  0  0  0  0  0  0  0  0  0  # atno 17321 bound_to 7965
  139.7254  144.7594  151.0887 LP  0  0  0  0  0  0  0  0  0  0  0  0  # atno 17342 bound_to 10162
  140.7755  143.5155  150.9600 LP  0  0  0  0  0  0  0  0  0  0  0  0  # atno 17343 bound_to 10162
  156.2383  130.3688  149.8366 LP  0  0  0  0  0  0  0  0  0  0  0  0  # atno 17370 bound_to 10713
  156.6173  130.8611  151.3467 LP  0  0  0  0  0  0  0  0  0  0  0  0  # atno 17371 bound_to 10713
  140.1446  134.9271  157.2512 LP  0  0  0  0  0  0  0  0  0  0  0  0  # atno 17394 bound_to 11000
  140.2795  134.3366  155.7347 LP  0  0  0  0  0  0  0  0  0  0  0  0  # atno 17395 bound_to 11000

$$$$
