AV-unprocessed.smi:2089|AV-procd|sdf|8530|dock8
  -GOLD-   2272011253D 1   1.00000     0.00000
 Structure written by MMmdl.
 40 41  0  0  0  0  0  0  0  0  2 V2000
  157.4817  136.3834  164.8860 C   0  0  0  0  0  0  0  0  0  0  0  0
  156.8369  138.0998  165.0286 S   0  0  0  0  0  0  0  0  0  0  0  0
  156.4167  138.3204  166.4211 O   0  0  0  0  0  0  0  0  0  0  0  0
  157.7863  139.0265  164.3939 O   0  0  0  0  0  0  0  0  0  0  0  0
  155.4077  138.0577  164.0538 N   0  0  0  0  0  0  0  0  0  0  0  0
  154.3102  137.1634  164.4468 C   0  0  0  0  0  0  0  0  0  0  0  0
  153.5296  136.8810  163.1656 C   0  0  0  0  0  0  0  0  0  0  0  0
  154.6026  136.9566  162.0888 C   0  0  0  0  0  0  0  0  0  0  0  0
  155.5564  138.0561  162.5889 C   0  0  1  0  0  0  0  0  0  0  0  0
  155.2871  139.4340  161.9674 C   0  0  0  0  0  0  0  0  0  0  0  0
  155.8647  140.4395  162.3819 O   0  0  0  0  0  0  0  0  0  0  0  0
  154.4105  139.4618  160.9535 N   0  0  0  0  0  0  0  0  0  0  0  0
  154.0434  140.6605  160.2145 C   0  0  0  0  0  0  0  0  0  0  0  0
  153.4293  141.7073  161.1539 C   0  0  0  0  0  0  0  0  0  0  0  0
  152.8764  142.9004  160.3985 C   0  0  0  0  0  0  0  0  0  0  0  0
  152.9248  142.9871  158.9900 C   0  0  0  0  0  0  0  0  0  0  0  0
  152.3839  144.1223  158.3508 C   0  0  0  0  0  0  0  0  0  0  0  0
  151.8055  145.1445  159.1317 C   0  0  0  0  0  0  0  0  0  0  0  0
  151.7829  145.0058  160.5345 C   0  0  0  0  0  0  0  0  0  0  0  0
  152.3123  143.9035  161.1097 N   0  3  0  0  0  0  0  0  0  0  0  0
  158.3739  136.2804  165.5031 H   0  0  0  0  0  0  0  0  0  0  0  0
  157.7364  136.1711  163.8481 H   0  0  0  0  0  0  0  0  0  0  0  0
  156.7227  135.6794  165.2260 H   0  0  0  0  0  0  0  0  0  0  0  0
  154.7226  136.2355  164.8449 H   0  0  0  0  0  0  0  0  0  0  0  0
  153.6919  137.6220  165.2186 H   0  0  0  0  0  0  0  0  0  0  0  0
  153.0158  135.9197  163.1860 H   0  0  0  0  0  0  0  0  0  0  0  0
  152.7827  137.6597  163.0046 H   0  0  0  0  0  0  0  0  0  0  0  0
  155.1370  136.0071  162.0340 H   0  0  0  0  0  0  0  0  0  0  0  0
  154.1843  137.1484  161.0996 H   0  0  0  0  0  0  0  0  0  0  0  0
  156.5758  137.7632  162.3307 H   0  0  0  0  0  0  0  0  0  0  0  0
  153.9880  138.5907  160.6649 H   0  0  0  0  0  0  0  0  0  0  0  0
  154.9296  141.0672  159.7248 H   0  0  0  0  0  0  0  0  0  0  0  0
  153.3316  140.3975  159.4302 H   0  0  0  0  0  0  0  0  0  0  0  0
  152.6264  141.2588  161.7413 H   0  0  0  0  0  0  0  0  0  0  0  0
  154.1777  142.0526  161.8687 H   0  0  0  0  0  0  0  0  0  0  0  0
  153.3682  142.1946  158.4046 H   0  0  0  0  0  0  0  0  0  0  0  0
  152.4112  144.2072  157.2743 H   0  0  0  0  0  0  0  0  0  0  0  0
  151.3853  146.0216  158.6614 H   0  0  0  0  0  0  0  0  0  0  0  0
  151.3606  145.7365  161.2087 H   0  0  0  0  0  0  0  0  0  0  0  0
  152.2840  143.8239  162.1265 H   0  0  0  0  0  0  0  0  0  0  0  0
  1  2  1  0  0  0  0
  1 21  1  0  0  0  0
  1 22  1  0  0  0  0
  1 23  1  0  0  0  0
  2  3  2  0  0  0  0
  2  4  2  0  0  0  0
  2  5  1  0  0  0  0
  5  9  1  0  0  0  0
  5  6  1  0  0  0  0
  6  7  1  0  0  0  0
  6 24  1  0  0  0  0
  6 25  1  0  0  0  0
  7  8  1  0  0  0  0
  7 26  1  0  0  0  0
  7 27  1  0  0  0  0
  8  9  1  0  0  0  0
  8 28  1  0  0  0  0
  8 29  1  0  0  0  0
  9 10  1  0  0  0  0
  9 30  1  0  0  0  0
 10 11  2  0  0  0  0
 10 12  1  0  0  0  0
 12 13  1  0  0  0  0
 12 31  1  0  0  0  0
 13 14  1  0  0  0  0
 13 32  1  0  0  0  0
 13 33  1  0  0  0  0
 14 15  1  0  0  0  0
 14 34  1  0  0  0  0
 14 35  1  0  0  0  0
 15 20  1  0  0  0  0
 15 16  2  0  0  0  0
 16 17  1  0  0  0  0
 16 36  1  0  0  0  0
 17 18  2  0  0  0  0
 17 37  1  0  0  0  0
 18 19  1  0  0  0  0
 18 38  1  0  0  0  0
 19 20  2  0  0  0  0
 19 39  1  0  0  0  0
 20 40  1  0  0  0  0
M  CHG  1  20   1
M  END
> <s_m_source_file>
AV-unprocessed.smi

> <i_m_source_file_index>
2089

> <i_lp_mmshare_version>
43012

> <i_f3d_flags>
0

> <s_epik_input>
W0NIM11TKD1PKSg9TylOMVtDSDJdW0NIMl1bQ0gyXVtDQEhdMUMoPU8pW05IXVtDSDJdW0NIMl1jMltjSF1bY0hdW2NIXVtjSF1uMg==

> <s_epik_cmdline>
J2VwaWtfcHl0aG9uJywgJy1waCcsICc3LjAnLCAnLXRuJywgJzgnLCAnLW1hJywgJzIwMCcsICctbWV0YWxfYmluZGluZycsICctaW1hZScsICc8aW5maWxlLm1hZT4nLCAnLW9tYWUnLCAnPG91dGZpbGUubWFlPic=

> <r_epik_Ionization_Penalty>
1.90116

> <r_epik_Ionization_Penalty_Charging>
1.90116

> <r_epik_Ionization_Penalty_Neutral>
1.4017e-07

> <r_epik_State_Penalty>
2.02245

> <r_epik_Charging_Adjusted_Penalty>
3.9236

> <i_epik_Tot_Q>
1

> <i_epik_Tot_abs_Q>
1

> <r_epik_Metal_State_Penalty>
2.04621

> <b_epik_Metal_Only>
0

> <s_lp_Force_Field>
OPLS_2005

> <r_lp_Energy>
11.7086

> <b_lp_Chiralities_Consistent>
1

> <s_lp_Variant>
AV-unprocessed.smi:2089-3

> <Gold.Version>
5.8.1

> <Gold.Id.Protein>
6NUR|6NUR_protein|mol2

> <Gold.PLP.Fitness>
44.4217

> <Gold.PLP.PLP>
-44.8130

> <Gold.PLP.part.hbond>
-1.8514

> <Gold.PLP.part.metal>
0.0000

> <Gold.PLP.part.buried>
-6.3166

> <Gold.PLP.part.nonpolar>
-37.5280

> <Gold.PLP.part.repulsive>
0.1739

> <Gold.PLP.ligand.clash>
0.0000

> <Gold.PLP.ligand.torsion>
0.4646

> <Gold.PLP.Chemscore.Hbond>
0.0000

> <Gold.PLP.Chemscore.CHOScore>
0.0000

> <Gold.PLP.Chemscore.Metal>
0.0000

> <Gold.PLP.Chemscore.Internal.Correction>
0.5378

> <Gold.Rescore>
     Score         DG    S(hbond)    S(metal)    S(lipo)     H(rot)  DE(clash)    DE(int)     intcor
     13.13     -13.66       0.00        0.00     113.80       2.00       0.07       0.47       ----

> <Gold.Chemscore.Fitness>
13.1332

> <Gold.Chemscore.DG>
-13.6635

> <Gold.Chemscore.ZeroCoef>
-5.4800

> <Gold.Chemscore.Hbond>
0.0000

> <Gold.Chemscore.Metal>
0.0000

> <Gold.Chemscore.Lipo>
113.7980

> <Gold.Chemscore.Internal_Hbond>
0.0000

> <Gold.Chemscore.DEClash>
0.0650

> <Gold.Chemscore.DEInternal>
0.4652

> <Gold.Chemscore.Rot>
2.0043

> <Gold.Chemscore.Internal.Correction>
   9.000000E+99

> <Gold.Chemscore.Hbond.Weighted>
-0.0000

> <Gold.Chemscore.Metal.Weighted>
-0.0000

> <Gold.Chemscore.Lipo.Weighted>
-13.3144

> <Gold.Chemscore.Internal_Hbond.Weighted>
0.0000

> <Gold.Chemscore.DEClash.Weighted>
0.0650

> <Gold.Chemscore.DEInternal.Weighted>
0.4652

> <Gold.Chemscore.Rot.Weighted>
5.1309

> <Gold.Chemscore.Internal.Correction.Weighted>
   9.000000E+99

> <Gold.Protein.RotatedTorsions>
[ 6907 6896 6895 6894 ] final  -24.60 input  -60.11 | X-H torsion
[ 7974 7965 7964 7962 ] final   31.28 input  175.53 | X-H torsion
[ 8008 7997 7996 7995 ] final  -69.52 input   59.86 | X-H torsion
[ 10167 10162 10161 10158 ] final -155.96 input  -65.29 | X-H torsion
[ 10718 10713 10712 10709 ] final   34.23 input   66.30 | X-H torsion
[ 10763 10752 10751 10750 ] final -160.60 input  -60.55 | X-H torsion
[ 11005 11000 10999 10996 ] final -150.66 input  -57.11 | X-H torsion

> <Gold.Protein.ActiveResidues>
 VAL166  LYS551  ARG553  GLY616  TRP617  ASP618  TYR619  PRO620  LYS621  CYS622 
 ASP623  PHE694  ASN695  SER759  ASP760  ASP761  ALA762  ILE779  LEU786  VAL792 
 PHE793  MET794  SER795  GLU796  ALA797  LYS798  CYS799  TRP800  GLU811  SER814 

> <Gold.Protein.RotatedAtoms>
  151.1872  135.0387  159.8816 H   0  0  0  0  0  0  0  0  0  0  0  0  # atno 6907 bound_to 6896
  152.5441  134.0997  159.8322 H   0  0  0  0  0  0  0  0  0  0  0  0  # atno 6908 bound_to 6896
  151.1121  133.5118  159.2637 H   0  0  0  0  0  0  0  0  0  0  0  0  # atno 6909 bound_to 6896
  146.1560  139.6677  142.9066 H   0  0  0  0  0  0  0  0  0  0  0  0  # atno 7974 bound_to 7965
  154.4944  140.0852  156.7665 H   0  0  0  0  0  0  0  0  0  0  0  0  # atno 8008 bound_to 7997
  155.4151  140.3443  155.4248 H   0  0  0  0  0  0  0  0  0  0  0  0  # atno 8009 bound_to 7997
  156.1374  140.1519  156.8961 H   0  0  0  0  0  0  0  0  0  0  0  0  # atno 8010 bound_to 7997
  139.6889  143.9454  152.2375 H   0  0  0  0  0  0  0  0  0  0  0  0  # atno 10167 bound_to 10162
  157.3077  130.7383  149.6706 H   0  0  0  0  0  0  0  0  0  0  0  0  # atno 10718 bound_to 10713
  154.7376  135.3061  154.8784 H   0  0  0  0  0  0  0  0  0  0  0  0  # atno 10763 bound_to 10752
  153.9608  135.6753  153.4749 H   0  0  0  0  0  0  0  0  0  0  0  0  # atno 10764 bound_to 10752
  153.0977  135.4927  154.8733 H   0  0  0  0  0  0  0  0  0  0  0  0  # atno 10765 bound_to 10752
  140.7378  134.3548  157.5154 H   0  0  0  0  0  0  0  0  0  0  0  0  # atno 11005 bound_to 11000
  145.4708  141.0436  143.2700 LP  0  0  0  0  0  0  0  0  0  0  0  0  # atno 17320 bound_to 7965
  144.7964  139.6227  143.7091 LP  0  0  0  0  0  0  0  0  0  0  0  0  # atno 17321 bound_to 7965
  139.9265  144.6768  150.8407 LP  0  0  0  0  0  0  0  0  0  0  0  0  # atno 17342 bound_to 10162
  140.7676  143.3338  151.2352 LP  0  0  0  0  0  0  0  0  0  0  0  0  # atno 17343 bound_to 10162
  155.9675  130.4260  150.4682 LP  0  0  0  0  0  0  0  0  0  0  0  0  # atno 17370 bound_to 10713
  157.2674  131.0580  151.2281 LP  0  0  0  0  0  0  0  0  0  0  0  0  # atno 17371 bound_to 10713
  139.8812  134.9061  156.2914 LP  0  0  0  0  0  0  0  0  0  0  0  0  # atno 17394 bound_to 11000
  140.9864  133.7236  156.0748 LP  0  0  0  0  0  0  0  0  0  0  0  0  # atno 17395 bound_to 11000

$$$$
