AV-unprocessed.smi:267|AV-procd|sdf|2039|dock7
  -GOLD-   2262021253D 1   1.00000     0.00000
 Structure written by MMmdl.
 51 54  0  0  0  0  0  0  0  0  1 V2000
  156.0109  132.0573  153.6875 C   0  0  0  0  0  0  0  0  0  0  0  0
  155.1507  131.5596  154.6969 O   0  0  0  0  0  0  0  0  0  0  0  0
  155.0551  130.1448  154.6824 C   0  0  0  0  0  0  0  0  0  0  0  0
  154.0051  129.6696  155.7008 C   0  0  0  0  0  0  0  0  0  0  0  0
  152.6411  129.7332  155.1598 N   0  0  0  0  0  0  0  0  0  0  0  0
  152.0432  131.0758  155.1675 C   0  0  0  0  0  0  0  0  0  0  0  0
  150.5131  131.0553  155.0692 C   0  0  0  0  0  0  0  0  0  0  0  0
  150.1095  130.1602  153.9943 N   0  0  0  0  0  0  0  0  0  0  0  0
  148.9117  130.3988  153.4011 C   0  0  0  0  0  0  0  0  0  0  0  0
  148.2639  129.3859  152.7659 N   0  0  0  0  0  0  0  0  0  0  0  0
  147.0819  129.6001  152.1804 C   0  0  0  0  0  0  0  0  0  0  0  0
  146.3817  130.7332  152.1037 N   0  0  0  0  0  0  0  0  0  0  0  0
  147.0324  131.7570  152.7257 C   0  0  0  0  0  0  0  0  0  0  0  0
  148.2876  131.6793  153.3930 C   0  0  0  0  0  0  0  0  0  0  0  0
  148.6339  132.9318  153.8888 N   0  0  0  0  0  0  0  0  0  0  0  0
  147.6366  133.7007  153.5464 C   0  0  0  0  0  0  0  0  0  0  0  0
  146.6296  133.0746  152.8479 N   0  0  0  0  0  0  0  0  0  0  0  0
  145.4119  133.6814  152.3409 C   0  0  0  0  0  0  0  0  0  0  0  0
  145.1757  133.4669  150.8238 C   0  0  0  0  0  0  0  0  0  0  0  0
  144.3735  134.6608  150.2818 C   0  0  0  0  0  0  0  0  0  0  0  0
  143.9669  134.4493  148.9439 O   0  0  0  0  0  0  0  0  0  0  0  0
  146.3614  133.0563  149.9259 C   0  0  0  0  0  0  0  0  0  0  0  0
  145.5928  132.0008  149.3133 O   0  0  0  0  0  0  0  0  0  0  0  0
  144.6495  132.0857  150.4020 C   0  0  0  0  0  0  0  0  0  0  0  0
  150.5954  128.7787  154.0748 C   0  0  0  0  0  0  0  0  0  0  0  0
  152.0222  128.6435  154.6396 C   0  0  0  0  0  0  0  0  0  0  0  0
  152.5541  127.5338  154.5985 O   0  0  0  0  0  0  0  0  0  0  0  0
  156.0457  133.1453  153.7392 H   0  0  0  0  0  0  0  0  0  0  0  0
  155.6559  131.7786  152.6945 H   0  0  0  0  0  0  0  0  0  0  0  0
  157.0270  131.6816  153.8152 H   0  0  0  0  0  0  0  0  0  0  0  0
  154.8031  129.7885  153.6820 H   0  0  0  0  0  0  0  0  0  0  0  0
  156.0252  129.7181  154.9415 H   0  0  0  0  0  0  0  0  0  0  0  0
  154.2268  128.6394  155.9831 H   0  0  0  0  0  0  0  0  0  0  0  0
  154.0900  130.2428  156.6255 H   0  0  0  0  0  0  0  0  0  0  0  0
  152.3383  131.6161  156.0681 H   0  0  0  0  0  0  0  0  0  0  0  0
  152.4532  131.6298  154.3219 H   0  0  0  0  0  0  0  0  0  0  0  0
  150.0875  130.6841  156.0028 H   0  0  0  0  0  0  0  0  0  0  0  0
  150.1383  132.0702  154.9449 H   0  0  0  0  0  0  0  0  0  0  0  0
  146.6339  128.7401  151.7052 H   0  0  0  0  0  0  0  0  0  0  0  0
  147.6074  134.7511  153.7971 H   0  0  0  0  0  0  0  0  0  0  0  0
  144.5741  133.2844  152.9153 H   0  0  0  0  0  0  0  0  0  0  0  0
  145.4548  134.7393  152.6034 H   0  0  0  0  0  0  0  0  0  0  0  0
  143.4919  134.8519  150.8949 H   0  0  0  0  0  0  0  0  0  0  0  0
  144.9709  135.5730  150.3080 H   0  0  0  0  0  0  0  0  0  0  0  0
  144.7086  134.5973  148.3774 H   0  0  0  0  0  0  0  0  0  0  0  0
  146.6636  133.8245  149.2132 H   0  0  0  0  0  0  0  0  0  0  0  0
  147.2322  132.6494  150.4405 H   0  0  0  0  0  0  0  0  0  0  0  0
  144.8182  131.3000  151.1405 H   0  0  0  0  0  0  0  0  0  0  0  0
  143.6131  132.0841  150.0628 H   0  0  0  0  0  0  0  0  0  0  0  0
  149.9309  128.1917  154.7105 H   0  0  0  0  0  0  0  0  0  0  0  0
  150.5738  128.3296  153.0805 H   0  0  0  0  0  0  0  0  0  0  0  0
  1  2  1  0  0  0  0
  1 28  1  0  0  0  0
  1 29  1  0  0  0  0
  1 30  1  0  0  0  0
  2  3  1  0  0  0  0
  3  4  1  0  0  0  0
  3 31  1  0  0  0  0
  3 32  1  0  0  0  0
  4  5  1  0  0  0  0
  4 33  1  0  0  0  0
  4 34  1  0  0  0  0
  5 26  1  0  0  0  0
  5  6  1  0  0  0  0
  6  7  1  0  0  0  0
  6 35  1  0  0  0  0
  6 36  1  0  0  0  0
  7  8  1  0  0  0  0
  7 37  1  0  0  0  0
  7 38  1  0  0  0  0
  8  9  1  0  0  0  0
  8 25  1  0  0  0  0
  9 14  1  0  0  0  0
  9 10  2  0  0  0  0
 10 11  1  0  0  0  0
 11 12  2  0  0  0  0
 11 39  1  0  0  0  0
 12 13  1  0  0  0  0
 13 17  1  0  0  0  0
 13 14  2  0  0  0  0
 14 15  1  0  0  0  0
 15 16  2  0  0  0  0
 16 17  1  0  0  0  0
 16 40  1  0  0  0  0
 17 18  1  0  0  0  0
 18 19  1  0  0  0  0
 18 41  1  0  0  0  0
 18 42  1  0  0  0  0
 19 24  1  0  0  0  0
 19 20  1  0  0  0  0
 19 22  1  0  0  0  0
 20 21  1  0  0  0  0
 20 43  1  0  0  0  0
 20 44  1  0  0  0  0
 21 45  1  0  0  0  0
 22 23  1  0  0  0  0
 22 46  1  0  0  0  0
 22 47  1  0  0  0  0
 23 24  1  0  0  0  0
 24 48  1  0  0  0  0
 24 49  1  0  0  0  0
 25 26  1  0  0  0  0
 25 50  1  0  0  0  0
 25 51  1  0  0  0  0
 26 27  2  0  0  0  0
M  END
> <s_m_source_file>
AV-unprocessed.smi

> <i_m_source_file_index>
267

> <i_lp_mmshare_version>
43012

> <i_f3d_flags>
0

> <s_epik_input>
W0NIM11PW0NIMl1bQ0gyXU4xW0NIMl1bQ0gyXU4oW0NIMl1DMT1PKWMobltjSF1uMiljKGMyMyluW2NIXW4zW0NIMl1DNChbQ0gyXVtPSF0pW0NIMl1PW0NIMl00

> <s_epik_cmdline>
J2VwaWtfcHl0aG9uJywgJy1waCcsICc3LjAnLCAnLXRuJywgJzgnLCAnLW1hJywgJzIwMCcsICctbWV0YWxfYmluZGluZycsICctaW1hZScsICc8aW5maWxlLm1hZT4nLCAnLW9tYWUnLCAnPG91dGZpbGUubWFlPic=

> <r_lp_tautomer_probability>
1

> <r_epik_Ionization_Penalty>
0.000432285

> <r_epik_Ionization_Penalty_Charging>
0

> <r_epik_Ionization_Penalty_Neutral>
0.000432285

> <r_epik_State_Penalty>
0.000191954

> <r_epik_Charging_Adjusted_Penalty>
0.000191954

> <i_epik_Tot_Q>
0

> <i_epik_Tot_abs_Q>
0

> <r_epik_Metal_State_Penalty>
-0

> <b_epik_Metal_Only>
0

> <s_lp_Force_Field>
OPLS_2005

> <r_lp_Energy>
43.2758

> <b_lp_Chiralities_Consistent>
1

> <s_lp_Variant>
AV-unprocessed.smi:267-1

> <Gold.Version>
5.8.1

> <Gold.Id.Protein>
6NUR|6NUR_protein|mol2

> <Gold.PLP.Fitness>
46.1096

> <Gold.PLP.PLP>
-43.1232

> <Gold.PLP.part.hbond>
-2.5527

> <Gold.PLP.part.metal>
0.0000

> <Gold.PLP.part.buried>
-4.3656

> <Gold.PLP.part.nonpolar>
-35.8988

> <Gold.PLP.part.repulsive>
0.6265

> <Gold.PLP.ligand.clash>
0.0000

> <Gold.PLP.ligand.torsion>
1.2575

> <Gold.PLP.Chemscore.Hbond>
1.0000

> <Gold.PLP.Chemscore.CHOScore>
0.6440

> <Gold.PLP.Chemscore.Metal>
0.0000

> <Gold.Chemscore.Hbonds>
donor molecule, donor type, donor heavy atom, donor atom, acceptor molecule, acceptor atom, score
      L1  H    21    45       P1  7921  1.00
      L1  C    16    40       P1  7948  0.24

> <Gold.PLP.Chemscore.Internal.Correction>
0.5695

> <Gold.Rescore>
     Score         DG    S(hbond)    S(metal)    S(lipo)     H(rot)  DE(clash)    DE(int)     intcor
      4.62      -9.71       0.94        0.00      77.22       3.11       0.22       4.86       ----

> <Gold.Chemscore.Fitness>
4.6249

> <Gold.Chemscore.DG>
-9.7063

> <Gold.Chemscore.ZeroCoef>
-5.4800

> <Gold.Chemscore.Hbond>
0.9436

> <Gold.Chemscore.Metal>
0.0000

> <Gold.Chemscore.Lipo>
77.2189

> <Gold.Chemscore.Internal_Hbond>
0.0000

> <Gold.Chemscore.DEClash>
0.2240

> <Gold.Chemscore.DEInternal>
4.8574

> <Gold.Chemscore.Rot>
3.1093

> <Gold.Chemscore.Internal.Correction>
   9.000000E+99

> <Gold.Chemscore.Hbonds>
donor molecule, donor type, donor heavy atom, donor atom, acceptor molecule, acceptor atom, score
      L1  H    21    45       P1  7921  0.99

> <Gold.Chemscore.Hbond.Weighted>
-3.1516

> <Gold.Chemscore.Metal.Weighted>
-0.0000

> <Gold.Chemscore.Lipo.Weighted>
-9.0346

> <Gold.Chemscore.Internal_Hbond.Weighted>
0.0000

> <Gold.Chemscore.DEClash.Weighted>
0.2240

> <Gold.Chemscore.DEInternal.Weighted>
4.8574

> <Gold.Chemscore.Rot.Weighted>
7.9599

> <Gold.Chemscore.Internal.Correction.Weighted>
   9.000000E+99

> <Gold.Protein.RotatedTorsions>
[ 6907 6896 6895 6894 ] final  -46.79 input  -60.11 | X-H torsion
[ 7974 7965 7964 7962 ] final -159.20 input  175.53 | X-H torsion
[ 8008 7997 7996 7995 ] final   79.26 input   59.86 | X-H torsion
[ 10167 10162 10161 10158 ] final -138.13 input  -65.29 | X-H torsion
[ 10718 10713 10712 10709 ] final  -48.86 input   66.30 | X-H torsion
[ 10763 10752 10751 10750 ] final -158.86 input  -60.55 | X-H torsion
[ 11005 11000 10999 10996 ] final  161.96 input  -57.11 | X-H torsion

> <Gold.Protein.ActiveResidues>
 VAL166  LYS551  ARG553  GLY616  TRP617  ASP618  TYR619  PRO620  LYS621  CYS622 
 ASP623  PHE694  ASN695  SER759  ASP760  ASP761  ALA762  ILE779  LEU786  VAL792 
 PHE793  MET794  SER795  GLU796  ALA797  LYS798  CYS799  TRP800  GLU811  SER814 

> <Gold.Protein.RotatedAtoms>
  150.9075  134.8491  159.7402 H   0  0  0  0  0  0  0  0  0  0  0  0  # atno 6907 bound_to 6896
  152.4926  134.4409  159.9553 H   0  0  0  0  0  0  0  0  0  0  0  0  # atno 6908 bound_to 6896
  151.4455  133.3592  159.2823 H   0  0  0  0  0  0  0  0  0  0  0  0  # atno 6909 bound_to 6896
  144.7475  140.3719  143.6074 H   0  0  0  0  0  0  0  0  0  0  0  0  # atno 7974 bound_to 7965
  155.8671  140.3451  155.5796 H   0  0  0  0  0  0  0  0  0  0  0  0  # atno 8008 bound_to 7997
  155.7868  140.0866  157.2049 H   0  0  0  0  0  0  0  0  0  0  0  0  # atno 8009 bound_to 7997
  154.4015  140.1490  156.3104 H   0  0  0  0  0  0  0  0  0  0  0  0  # atno 8010 bound_to 7997
  139.8509  143.7200  152.2658 H   0  0  0  0  0  0  0  0  0  0  0  0  # atno 10167 bound_to 10162
  156.1948  130.4154  149.9321 H   0  0  0  0  0  0  0  0  0  0  0  0  # atno 10718 bound_to 10713
  154.7522  135.3095  154.8535 H   0  0  0  0  0  0  0  0  0  0  0  0  # atno 10763 bound_to 10752
  153.9319  135.6784  153.4749 H   0  0  0  0  0  0  0  0  0  0  0  0  # atno 10764 bound_to 10752
  153.1119  135.4862  154.8978 H   0  0  0  0  0  0  0  0  0  0  0  0  # atno 10765 bound_to 10752
  140.2209  134.8196  157.3220 H   0  0  0  0  0  0  0  0  0  0  0  0  # atno 11005 bound_to 11000
  145.7068  139.1675  143.2561 LP  0  0  0  0  0  0  0  0  0  0  0  0  # atno 17320 bound_to 7965
  146.1376  140.7102  142.9382 LP  0  0  0  0  0  0  0  0  0  0  0  0  # atno 17321 bound_to 7965
  139.7466  144.7545  151.0570 LP  0  0  0  0  0  0  0  0  0  0  0  0  # atno 17342 bound_to 10162
  140.7787  143.4909  150.9895 LP  0  0  0  0  0  0  0  0  0  0  0  0  # atno 17343 bound_to 10162
  156.7050  130.8948  151.3603 LP  0  0  0  0  0  0  0  0  0  0  0  0  # atno 17370 bound_to 10713
  157.6951  130.9273  150.0621 LP  0  0  0  0  0  0  0  0  0  0  0  0  # atno 17371 bound_to 10713
  140.1850  134.4442  155.7749 LP  0  0  0  0  0  0  0  0  0  0  0  0  # atno 17394 bound_to 11000
  141.2223  133.7001  156.7932 LP  0  0  0  0  0  0  0  0  0  0  0  0  # atno 17395 bound_to 11000

$$$$
