AV-unprocessed.smi:2445|AV-procd|sdf|9639|dock7
  -GOLD-   2272013273D 1   1.00000     0.00000
 Structure written by MMmdl.
 40 41  0  0  0  0  0  0  0  0  1 V2000
  151.3723  136.7000  156.1873 C   0  0  0  0  0  0  0  0  0  0  0  0
  150.7401  137.8102  155.4182 C   0  0  0  0  0  0  0  0  0  0  0  0
  151.3506  138.9197  154.8883 C   0  0  0  0  0  0  0  0  0  0  0  0
  150.4771  139.7777  154.2171 N   0  0  0  0  0  0  0  0  0  0  0  0
  149.2160  139.3374  154.2311 C   0  0  0  0  0  0  0  0  0  0  0  0
  148.0713  140.0704  153.5991 C   0  0  2  0  0  0  0  0  0  0  0  0
  147.9230  141.4944  154.1534 C   0  0  0  0  0  0  0  0  0  0  0  0
  146.7551  139.2694  153.6338 C   0  0  0  0  0  0  0  0  0  0  0  0
  146.9018  137.9752  152.9737 N   0  0  0  0  0  0  0  0  0  0  0  0
  145.8992  137.1328  152.6933 C   0  0  0  0  0  0  0  0  0  0  0  0
  144.7132  137.3624  152.9302 O   0  0  0  0  0  0  0  0  0  0  0  0
  146.3458  136.0051  152.1251 N   0  0  0  0  0  0  0  0  0  0  0  0
  145.4990  134.8896  151.7168 C   0  0  1  0  0  0  0  0  0  0  0  0
  144.6320  135.2178  150.5168 C   0  0  0  0  0  0  0  0  0  0  0  0
  144.3573  133.8359  149.9302 C   0  0  0  0  0  0  0  0  0  0  0  0
  145.4676  133.0192  150.2918 O   0  0  0  0  0  0  0  0  0  0  0  0
  146.3313  133.7235  151.1782 C   0  0  2  0  0  0  0  0  0  0  0  0
  146.8675  132.7837  152.2642 C   0  0  0  0  0  0  0  0  0  0  0  0
  149.0276  137.8115  155.0881 S   0  0  0  0  0  0  0  0  0  0  0  0
  152.4469  136.8544  156.2894 H   0  0  0  0  0  0  0  0  0  0  0  0
  151.2159  135.7450  155.6857 H   0  0  0  0  0  0  0  0  0  0  0  0
  150.9452  136.6308  157.1879 H   0  0  0  0  0  0  0  0  0  0  0  0
  152.3983  139.1774  154.9402 H   0  0  0  0  0  0  0  0  0  0  0  0
  148.3319  140.1838  152.5459 H   0  0  0  0  0  0  0  0  0  0  0  0
  148.8449  142.0625  154.0251 H   0  0  0  0  0  0  0  0  0  0  0  0
  147.6837  141.4833  155.2172 H   0  0  0  0  0  0  0  0  0  0  0  0
  147.1278  142.0352  153.6398 H   0  0  0  0  0  0  0  0  0  0  0  0
  146.4472  139.1329  154.6721 H   0  0  0  0  0  0  0  0  0  0  0  0
  145.9582  139.8270  153.1410 H   0  0  0  0  0  0  0  0  0  0  0  0
  147.8407  137.6910  152.7353 H   0  0  0  0  0  0  0  0  0  0  0  0
  147.3385  135.9055  151.9719 H   0  0  0  0  0  0  0  0  0  0  0  0
  144.8726  134.5507  152.5447 H   0  0  0  0  0  0  0  0  0  0  0  0
  143.7210  135.7570  150.7788 H   0  0  0  0  0  0  0  0  0  0  0  0
  145.1885  135.8198  149.7965 H   0  0  0  0  0  0  0  0  0  0  0  0
  143.4579  133.4072  150.3735 H   0  0  0  0  0  0  0  0  0  0  0  0
  144.2198  133.8650  148.8490 H   0  0  0  0  0  0  0  0  0  0  0  0
  147.1603  134.1073  150.5805 H   0  0  0  0  0  0  0  0  0  0  0  0
  147.5207  133.3162  152.9559 H   0  0  0  0  0  0  0  0  0  0  0  0
  147.4419  131.9685  151.8243 H   0  0  0  0  0  0  0  0  0  0  0  0
  146.0537  132.3447  152.8421 H   0  0  0  0  0  0  0  0  0  0  0  0
  1  2  1  0  0  0  0
  1 20  1  0  0  0  0
  1 21  1  0  0  0  0
  1 22  1  0  0  0  0
  2 19  1  0  0  0  0
  2  3  2  0  0  0  0
  3  4  1  0  0  0  0
  3 23  1  0  0  0  0
  4  5  2  0  0  0  0
  5  6  1  0  0  0  0
  5 19  1  0  0  0  0
  6  7  1  0  0  0  0
  6  8  1  0  0  0  0
  6 24  1  0  0  0  0
  7 25  1  0  0  0  0
  7 26  1  0  0  0  0
  7 27  1  0  0  0  0
  8  9  1  0  0  0  0
  8 28  1  0  0  0  0
  8 29  1  0  0  0  0
  9 10  1  0  0  0  0
  9 30  1  0  0  0  0
 10 11  2  0  0  0  0
 10 12  1  0  0  0  0
 12 13  1  0  0  0  0
 12 31  1  0  0  0  0
 13 17  1  0  0  0  0
 13 14  1  0  0  0  0
 13 32  1  0  0  0  0
 14 15  1  0  0  0  0
 14 33  1  0  0  0  0
 14 34  1  0  0  0  0
 15 16  1  0  0  0  0
 15 35  1  0  0  0  0
 15 36  1  0  0  0  0
 16 17  1  0  0  0  0
 17 18  1  0  0  0  0
 17 37  1  0  0  0  0
 18 38  1  0  0  0  0
 18 39  1  0  0  0  0
 18 40  1  0  0  0  0
M  END
> <s_m_source_file>
AV-unprocessed.smi

> <i_m_source_file_index>
2445

> <i_lp_mmshare_version>
43012

> <i_f3d_flags>
0

> <s_epik_input>
W0NIM11jMVtjSF1uYyhzMSlbQ0BIXShbQ0gzXSlbQ0gyXVtOSF1DKD1PKVtOSF1bQ0BASF0yW0NIMl1bQ0gyXU9bQ0BIXTJbQ0gzXQ==

> <s_epik_cmdline>
J2VwaWtfcHl0aG9uJywgJy1waCcsICc3LjAnLCAnLXRuJywgJzgnLCAnLW1hJywgJzIwMCcsICctbWV0YWxfYmluZGluZycsICctaW1hZScsICc8aW5maWxlLm1hZT4nLCAnLW9tYWUnLCAnPG91dGZpbGUubWFlPic=

> <r_epik_Ionization_Penalty>
0.000649483

> <r_epik_Ionization_Penalty_Charging>
0

> <r_epik_Ionization_Penalty_Neutral>
0.000649483

> <r_epik_State_Penalty>
0.000379895

> <r_epik_Charging_Adjusted_Penalty>
0.000379895

> <i_epik_Tot_Q>
0

> <i_epik_Tot_abs_Q>
0

> <r_epik_Metal_State_Penalty>
-0

> <b_epik_Metal_Only>
0

> <s_lp_Force_Field>
OPLS_2005

> <r_lp_Energy>
6.75485

> <b_lp_Chiralities_Consistent>
1

> <s_lp_Variant>
AV-unprocessed.smi:2445-7

> <Gold.Version>
5.8.1

> <Gold.Id.Protein>
6NUR|6NUR_protein|mol2

> <Gold.PLP.Fitness>
38.8991

> <Gold.PLP.PLP>
-30.3814

> <Gold.PLP.part.hbond>
-3.0000

> <Gold.PLP.part.metal>
0.0000

> <Gold.PLP.part.buried>
-1.3467

> <Gold.PLP.part.nonpolar>
-26.9153

> <Gold.PLP.part.repulsive>
0.5755

> <Gold.PLP.ligand.clash>
0.0000

> <Gold.PLP.ligand.torsion>
0.1492

> <Gold.PLP.Chemscore.Hbond>
2.8960

> <Gold.PLP.Chemscore.CHOScore>
0.0000

> <Gold.PLP.Chemscore.Metal>
0.0000

> <Gold.Chemscore.Hbonds>
donor molecule, donor type, donor heavy atom, donor atom, acceptor molecule, acceptor atom, score
      L1  H     9    30       P1  7948  0.90
      L1  H    12    31       P1  7948  1.00
      P1  H  7989  7998       L1     4  1.00

> <Gold.PLP.Chemscore.Internal.Correction>
0.1281

> <Gold.Rescore>
     Score         DG    S(hbond)    S(metal)    S(lipo)     H(rot)  DE(clash)    DE(int)     intcor
     18.34     -19.90       2.85        0.00      75.30       1.53       1.42       0.14       ----

> <Gold.Chemscore.Fitness>
18.3429

> <Gold.Chemscore.DG>
-19.8997

> <Gold.Chemscore.ZeroCoef>
-5.4800

> <Gold.Chemscore.Hbond>
2.8540

> <Gold.Chemscore.Metal>
0.0000

> <Gold.Chemscore.Lipo>
75.3043

> <Gold.Chemscore.Internal_Hbond>
0.0000

> <Gold.Chemscore.DEClash>
1.4151

> <Gold.Chemscore.DEInternal>
0.1417

> <Gold.Chemscore.Rot>
1.5325

> <Gold.Chemscore.Internal.Correction>
   9.000000E+99

> <Gold.Chemscore.Hbonds>
donor molecule, donor type, donor heavy atom, donor atom, acceptor molecule, acceptor atom, score
      L1  H     9    30       P1  7948  0.83
      L1  H    12    31       P1  7948  0.99
      P1  H  7989  7998       L1     4  0.26

> <Gold.Chemscore.Hbond.Weighted>
-9.5324

> <Gold.Chemscore.Metal.Weighted>
-0.0000

> <Gold.Chemscore.Lipo.Weighted>
-8.8106

> <Gold.Chemscore.Internal_Hbond.Weighted>
0.0000

> <Gold.Chemscore.DEClash.Weighted>
1.4151

> <Gold.Chemscore.DEInternal.Weighted>
0.1417

> <Gold.Chemscore.Rot.Weighted>
3.9233

> <Gold.Chemscore.Internal.Correction.Weighted>
   9.000000E+99

> <Gold.Protein.RotatedTorsions>
[ 6907 6896 6895 6894 ] final  103.09 input  -60.11 | X-H torsion
[ 7974 7965 7964 7962 ] final -159.77 input  175.53 | X-H torsion
[ 8008 7997 7996 7995 ] final   39.03 input   59.86 | X-H torsion
[ 10167 10162 10161 10158 ] final  161.14 input  -65.29 | X-H torsion
[ 10718 10713 10712 10709 ] final   79.94 input   66.30 | X-H torsion
[ 10763 10752 10751 10750 ] final   65.22 input  -60.55 | X-H torsion
[ 11005 11000 10999 10996 ] final  109.84 input  -57.11 | X-H torsion

> <Gold.Protein.ActiveResidues>
 VAL166  LYS551  ARG553  GLY616  TRP617  ASP618  TYR619  PRO620  LYS621  CYS622 
 ASP623  PHE694  ASN695  SER759  ASP760  ASP761  ALA762  ILE779  LEU786  VAL792 
 PHE793  MET794  SER795  GLU796  ALA797  LYS798  CYS799  TRP800  GLU811  SER814 

> <Gold.Protein.RotatedAtoms>
  152.5305  133.9878  159.7836 H   0  0  0  0  0  0  0  0  0  0  0  0  # atno 6907 bound_to 6896
  151.0120  133.5949  159.2688 H   0  0  0  0  0  0  0  0  0  0  0  0  # atno 6908 bound_to 6896
  151.3020  135.0778  159.9295 H   0  0  0  0  0  0  0  0  0  0  0  0  # atno 6909 bound_to 6896
  144.7452  140.3637  143.6091 H   0  0  0  0  0  0  0  0  0  0  0  0  # atno 7974 bound_to 7965
  155.2300  140.3337  155.4304 H   0  0  0  0  0  0  0  0  0  0  0  0  # atno 8008 bound_to 7997
  156.2299  140.1846  156.7315 H   0  0  0  0  0  0  0  0  0  0  0  0  # atno 8009 bound_to 7997
  154.5960  140.0630  156.9289 H   0  0  0  0  0  0  0  0  0  0  0  0  # atno 8010 bound_to 7997
  139.4846  144.4565  151.8761 H   0  0  0  0  0  0  0  0  0  0  0  0  # atno 10167 bound_to 10162
  157.6791  130.9937  150.2006 H   0  0  0  0  0  0  0  0  0  0  0  0  # atno 10718 bound_to 10713
  153.0087  135.5365  154.6632 H   0  0  0  0  0  0  0  0  0  0  0  0  # atno 10763 bound_to 10752
  154.5836  135.2852  155.0710 H   0  0  0  0  0  0  0  0  0  0  0  0  # atno 10764 bound_to 10752
  154.1830  135.6513  153.5092 H   0  0  0  0  0  0  0  0  0  0  0  0  # atno 10765 bound_to 10752
  139.8870  134.9468  156.6187 H   0  0  0  0  0  0  0  0  0  0  0  0  # atno 11005 bound_to 11000
  145.7150  139.1695  143.2517 LP  0  0  0  0  0  0  0  0  0  0  0  0  # atno 17320 bound_to 7965
  146.1319  140.7174  142.9408 LP  0  0  0  0  0  0  0  0  0  0  0  0  # atno 17321 bound_to 7965
  140.4025  144.2475  150.5892 LP  0  0  0  0  0  0  0  0  0  0  0  0  # atno 17342 bound_to 10162
  140.5044  143.2308  151.8631 LP  0  0  0  0  0  0  0  0  0  0  0  0  # atno 17343 bound_to 10162
  156.2697  130.3720  149.8044 LP  0  0  0  0  0  0  0  0  0  0  0  0  # atno 17370 bound_to 10713
  156.5764  130.8447  151.3371 LP  0  0  0  0  0  0  0  0  0  0  0  0  # atno 17371 bound_to 10713
  140.7756  133.8702  155.8526 LP  0  0  0  0  0  0  0  0  0  0  0  0  # atno 17394 bound_to 11000
  140.9804  134.1412  157.4499 LP  0  0  0  0  0  0  0  0  0  0  0  0  # atno 17395 bound_to 11000

$$$$
