AV-unprocessed.smi:915|AV-procd|sdf|4156|dock9
  -GOLD-   22720 2 63D 1   1.00000     0.00000
 Structure written by MMmdl.
 33 34  0  0  0  0  0  0  0  0  2 V2000
  147.9968  140.7900  153.9236 C   0  0  0  0  0  0  0  0  0  0  0  0
  149.0026  141.1901  155.0091 C   0  0  0  0  0  0  0  0  0  0  0  0
  150.2176  140.3130  155.0116 C   0  0  0  0  0  0  0  0  0  0  0  0
  150.5531  139.3673  154.0777 C   0  0  0  0  0  0  0  0  0  0  0  0
  152.0506  138.5743  154.4747 S   0  0  0  0  0  0  0  0  0  0  0  0
  152.1847  139.5764  155.9215 C   0  0  0  0  0  0  0  0  0  0  0  0
  153.1897  139.5129  156.8100 N   0  5  0  0  0  0  0  0  0  0  0  0
  152.9192  139.5098  158.1352 C   0  0  0  0  0  0  0  0  0  0  0  0
  152.1007  138.7900  158.7121 O   0  0  0  0  0  0  0  0  0  0  0  0
  153.6374  140.3992  158.8353 N   0  0  0  0  0  0  0  0  0  0  0  0
  153.5432  140.6296  160.2736 C   0  0  0  0  0  0  0  0  0  0  0  0
  153.5095  142.1294  160.6228 C   0  0  2  0  0  0  0  0  0  0  0  0
  152.7650  142.4500  161.9271 C   0  0  0  0  0  0  0  0  0  0  0  0
  152.3729  143.9262  161.8589 C   0  0  0  0  0  0  0  0  0  0  0  0
  151.7960  144.1565  160.4612 C   0  0  0  0  0  0  0  0  0  0  0  0
  152.7239  143.1078  159.3119 S   0  0  0  0  0  0  0  0  0  0  0  0
  151.1479  140.4117  156.0496 N   0  0  0  0  0  0  0  0  0  0  0  0
  147.1253  141.4444  153.9409 H   0  0  0  0  0  0  0  0  0  0  0  0
  147.6482  139.7667  154.0676 H   0  0  0  0  0  0  0  0  0  0  0  0
  148.4441  140.8552  152.9313 H   0  0  0  0  0  0  0  0  0  0  0  0
  149.2936  142.2306  154.8619 H   0  0  0  0  0  0  0  0  0  0  0  0
  148.5143  141.1518  155.9836 H   0  0  0  0  0  0  0  0  0  0  0  0
  150.0132  139.0886  153.1856 H   0  0  0  0  0  0  0  0  0  0  0  0
  154.2979  140.9657  158.3239 H   0  0  0  0  0  0  0  0  0  0  0  0
  152.6598  140.1271  160.6703 H   0  0  0  0  0  0  0  0  0  0  0  0
  154.4039  140.1565  160.7472 H   0  0  0  0  0  0  0  0  0  0  0  0
  154.5294  142.5060  160.7111 H   0  0  0  0  0  0  0  0  0  0  0  0
  151.8633  141.8404  162.0023 H   0  0  0  0  0  0  0  0  0  0  0  0
  153.3758  142.2343  162.8044 H   0  0  0  0  0  0  0  0  0  0  0  0
  151.6628  144.1969  162.6407 H   0  0  0  0  0  0  0  0  0  0  0  0
  153.2608  144.5446  161.9967 H   0  0  0  0  0  0  0  0  0  0  0  0
  150.7502  143.8494  160.4328 H   0  0  0  0  0  0  0  0  0  0  0  0
  151.8444  145.2041  160.1630 H   0  0  0  0  0  0  0  0  0  0  0  0
  1  2  1  0  0  0  0
  1 18  1  0  0  0  0
  1 19  1  0  0  0  0
  1 20  1  0  0  0  0
  2  3  1  0  0  0  0
  2 21  1  0  0  0  0
  2 22  1  0  0  0  0
  3 17  1  0  0  0  0
  3  4  2  0  0  0  0
  4  5  1  0  0  0  0
  4 23  1  0  0  0  0
  5  6  1  0  0  0  0
  6  7  1  0  0  0  0
  6 17  2  0  0  0  0
  7  8  1  0  0  0  0
  8  9  2  0  0  0  0
  8 10  1  0  0  0  0
 10 11  1  0  0  0  0
 10 24  1  0  0  0  0
 11 12  1  0  0  0  0
 11 25  1  0  0  0  0
 11 26  1  0  0  0  0
 12 16  1  0  0  0  0
 12 13  1  0  0  0  0
 12 27  1  0  0  0  0
 13 14  1  0  0  0  0
 13 28  1  0  0  0  0
 13 29  1  0  0  0  0
 14 15  1  0  0  0  0
 14 30  1  0  0  0  0
 14 31  1  0  0  0  0
 15 16  1  0  0  0  0
 15 32  1  0  0  0  0
 15 33  1  0  0  0  0
M  CHG  1   7  -1
M  END
> <s_m_source_file>
AV-unprocessed.smi

> <i_m_source_file_index>
915

> <i_lp_mmshare_version>
43012

> <i_f3d_flags>
0

> <s_epik_input>
W0NIM11bQ0gyXWMxW2NIXXNjKG4xKVtOSF1DKD1PKVtOSF1bQ0gyXVtDQEBIXTJbQ0gyXVtDSDJdW0NIMl1TMg==

> <s_epik_cmdline>
J2VwaWtfcHl0aG9uJywgJy1waCcsICc3LjAnLCAnLXRuJywgJzgnLCAnLW1hJywgJzIwMCcsICctbWV0YWxfYmluZGluZycsICctaW1hZScsICc8aW5maWxlLm1hZT4nLCAnLW9tYWUnLCAnPG91dGZpbGUubWFlPic=

> <r_lp_tautomer_probability>
0.999

> <r_epik_Ionization_Penalty>
8.73043

> <r_epik_Ionization_Penalty_Charging>
6.79141

> <r_epik_Ionization_Penalty_Neutral>
1.93902

> <r_epik_State_Penalty>
6.79158

> <r_epik_Charging_Adjusted_Penalty>
13.583

> <i_epik_Tot_Q>
-1

> <i_epik_Tot_abs_Q>
1

> <r_epik_Metal_State_Penalty>
2.71141

> <b_epik_Metal_Only>
1

> <s_lp_Force_Field>
OPLS_2005

> <r_lp_Energy>
4.53782

> <b_lp_Chiralities_Consistent>
1

> <s_lp_Variant>
AV-unprocessed.smi:915-3

> <Gold.Version>
5.8.1

> <Gold.Id.Protein>
6NUR|6NUR_protein|mol2

> <Gold.PLP.Fitness>
47.5893

> <Gold.PLP.PLP>
-40.7702

> <Gold.PLP.part.hbond>
-1.0000

> <Gold.PLP.part.metal>
0.0000

> <Gold.PLP.part.buried>
-3.6116

> <Gold.PLP.part.nonpolar>
-36.7803

> <Gold.PLP.part.repulsive>
0.6290

> <Gold.PLP.ligand.clash>
0.0000

> <Gold.PLP.ligand.torsion>
1.3253

> <Gold.PLP.Chemscore.Hbond>
2.0000

> <Gold.PLP.Chemscore.CHOScore>
1.1471

> <Gold.PLP.Chemscore.Metal>
0.0000

> <Gold.Chemscore.Hbonds>
donor molecule, donor type, donor heavy atom, donor atom, acceptor molecule, acceptor atom, score
      P1  H  7997  8008       L1     7  0.98
      L1  C     4    23       P1  7957  1.00

> <Gold.PLP.Chemscore.Internal.Correction>
0.0284

> <Gold.Rescore>
     Score         DG    S(hbond)    S(metal)    S(lipo)     H(rot)  DE(clash)    DE(int)     intcor
     15.46     -16.60       0.77        0.00     102.15       1.33       0.24       0.91       ----

> <Gold.Chemscore.Fitness>
15.4559

> <Gold.Chemscore.DG>
-16.6022

> <Gold.Chemscore.ZeroCoef>
-5.4800

> <Gold.Chemscore.Hbond>
0.7713

> <Gold.Chemscore.Metal>
0.0000

> <Gold.Chemscore.Lipo>
102.1539

> <Gold.Chemscore.Internal_Hbond>
0.0000

> <Gold.Chemscore.DEClash>
0.2352

> <Gold.Chemscore.DEInternal>
0.9111

> <Gold.Chemscore.Rot>
1.3305

> <Gold.Chemscore.Internal.Correction>
   9.000000E+99

> <Gold.Chemscore.Hbonds>
donor molecule, donor type, donor heavy atom, donor atom, acceptor molecule, acceptor atom, score
      P1  H  7997  8008       L1     7  0.35

> <Gold.Chemscore.Hbond.Weighted>
-2.5762

> <Gold.Chemscore.Metal.Weighted>
-0.0000

> <Gold.Chemscore.Lipo.Weighted>
-11.9520

> <Gold.Chemscore.Internal_Hbond.Weighted>
0.0000

> <Gold.Chemscore.DEClash.Weighted>
0.2352

> <Gold.Chemscore.DEInternal.Weighted>
0.9111

> <Gold.Chemscore.Rot.Weighted>
3.4060

> <Gold.Chemscore.Internal.Correction.Weighted>
   9.000000E+99

> <Gold.Protein.RotatedTorsions>
[ 6907 6896 6895 6894 ] final -121.58 input  -60.11 | X-H torsion
[ 7974 7965 7964 7962 ] final  -22.49 input  175.53 | X-H torsion
[ 8008 7997 7996 7995 ] final  -57.54 input   59.86 | X-H torsion
[ 10167 10162 10161 10158 ] final   69.89 input  -65.29 | X-H torsion
[ 10718 10713 10712 10709 ] final  156.42 input   66.30 | X-H torsion
[ 10763 10752 10751 10750 ] final   52.88 input  -60.55 | X-H torsion
[ 11005 11000 10999 10996 ] final  -71.06 input  -57.11 | X-H torsion

> <Gold.Protein.ActiveResidues>
 VAL166  LYS551  ARG553  GLY616  TRP617  ASP618  TYR619  PRO620  LYS621  CYS622 
 ASP623  PHE694  ASN695  SER759  ASP760  ASP761  ALA762  ILE779  LEU786  VAL792 
 PHE793  MET794  SER795  GLU796  ALA797  LYS798  CYS799  TRP800  GLU811  SER814 

> <Gold.Protein.RotatedAtoms>
  150.8496  133.7807  159.3029 H   0  0  0  0  0  0  0  0  0  0  0  0  # atno 6907 bound_to 6896
  151.5483  135.1066  159.9953 H   0  0  0  0  0  0  0  0  0  0  0  0  # atno 6908 bound_to 6896
  152.4542  133.7647  159.6822 H   0  0  0  0  0  0  0  0  0  0  0  0  # atno 6909 bound_to 6896
  146.1673  140.4486  142.8547 H   0  0  0  0  0  0  0  0  0  0  0  0  # atno 7974 bound_to 7965
  154.4272  140.1104  156.5814 H   0  0  0  0  0  0  0  0  0  0  0  0  # atno 8008 bound_to 7997
  155.6108  140.3494  155.4603 H   0  0  0  0  0  0  0  0  0  0  0  0  # atno 8009 bound_to 7997
  156.0100  140.1217  157.0452 H   0  0  0  0  0  0  0  0  0  0  0  0  # atno 8010 bound_to 7997
  140.0629  144.5217  150.7281 H   0  0  0  0  0  0  0  0  0  0  0  0  # atno 10167 bound_to 10162
  157.2051  131.0685  151.2002 H   0  0  0  0  0  0  0  0  0  0  0  0  # atno 10718 bound_to 10713
  152.9791  135.5798  154.4650 H   0  0  0  0  0  0  0  0  0  0  0  0  # atno 10763 bound_to 10752
  154.4221  135.2772  155.1971 H   0  0  0  0  0  0  0  0  0  0  0  0  # atno 10764 bound_to 10752
  154.3715  135.6167  153.5796 H   0  0  0  0  0  0  0  0  0  0  0  0  # atno 10765 bound_to 10752
  141.1585  133.6807  156.6848 H   0  0  0  0  0  0  0  0  0  0  0  0  # atno 11005 bound_to 11000
  144.8110  140.6386  143.6415 LP  0  0  0  0  0  0  0  0  0  0  0  0  # atno 17320 bound_to 7965
  145.4435  139.1532  143.3957 LP  0  0  0  0  0  0  0  0  0  0  0  0  # atno 17321 bound_to 7965
  140.7163  143.2547  151.4424 LP  0  0  0  0  0  0  0  0  0  0  0  0  # atno 17342 bound_to 10162
  139.5882  144.1556  152.2056 LP  0  0  0  0  0  0  0  0  0  0  0  0  # atno 17343 bound_to 10162
  157.3728  130.7190  149.6576 LP  0  0  0  0  0  0  0  0  0  0  0  0  # atno 17370 bound_to 10713
  155.9696  130.4194  150.4374 LP  0  0  0  0  0  0  0  0  0  0  0  0  # atno 17371 bound_to 10713
  140.3075  134.8113  157.4149 LP  0  0  0  0  0  0  0  0  0  0  0  0  # atno 17394 bound_to 11000
  140.1208  134.5222  155.8185 LP  0  0  0  0  0  0  0  0  0  0  0  0  # atno 17395 bound_to 11000

$$$$
