AV-unprocessed.smi:1278|AV-procd|sdf|5351|dock1
  -GOLD-   22720 4483D 1   1.00000     0.00000
 Structure written by MMmdl.
 38 39  0  0  0  0  0  0  0  0  3 V2000
  153.5090  141.6704  161.0897 C   0  0  0  0  0  0  0  0  0  0  0  0
  153.1499  142.9803  160.3743 C   0  0  2  0  0  0  0  0  0  0  0  0
  152.3219  143.9065  161.2809 C   0  0  0  0  0  0  0  0  0  0  0  0
  151.9554  145.1939  160.5321 C   0  0  0  0  0  0  0  0  0  0  0  0
  151.2369  144.8759  159.2111 C   0  0  0  0  0  0  0  0  0  0  0  0
  152.0609  143.9847  158.3545 N   0  3  2  0  0  0  0  0  0  0  0  0
  151.4484  143.7691  157.0203 C   0  0  0  0  0  0  0  0  0  0  0  0
  150.5761  142.5003  156.9740 C   0  0  0  0  0  0  0  0  0  0  0  0
  149.5602  142.5965  155.9329 N   0  0  0  0  0  0  0  0  0  0  0  0
  148.8976  141.5644  155.3918 C   0  0  0  0  0  0  0  0  0  0  0  0
  149.1443  140.4143  155.7630 O   0  0  0  0  0  0  0  0  0  0  0  0
  147.9891  141.9301  154.4604 N   0  5  0  0  0  0  0  0  0  0  0  0
  147.5554  141.0352  153.5578 C   0  0  0  0  0  0  0  0  0  0  0  0
  146.6391  141.3245  152.6265 N   0  0  0  0  0  0  0  0  0  0  0  0
  146.3395  140.2481  151.7894 C   0  0  0  0  0  0  0  0  0  0  0  0
  147.0491  139.1147  152.0862 C   0  0  0  0  0  0  0  0  0  0  0  0
  148.1246  139.3683  153.4312 S   0  0  0  0  0  0  0  0  0  0  0  0
  152.3987  142.7152  159.0537 C   0  0  0  0  0  0  0  0  0  0  0  0
  152.6149  141.1054  161.3557 H   0  0  0  0  0  0  0  0  0  0  0  0
  154.0660  141.8634  162.0070 H   0  0  0  0  0  0  0  0  0  0  0  0
  154.1283  141.0342  160.4567 H   0  0  0  0  0  0  0  0  0  0  0  0
  154.0844  143.4895  160.1334 H   0  0  0  0  0  0  0  0  0  0  0  0
  151.4119  143.3978  161.6022 H   0  0  0  0  0  0  0  0  0  0  0  0
  152.8798  144.1496  162.1861 H   0  0  0  0  0  0  0  0  0  0  0  0
  151.3219  145.8216  161.1592 H   0  0  0  0  0  0  0  0  0  0  0  0
  152.8587  145.7708  160.3291 H   0  0  0  0  0  0  0  0  0  0  0  0
  150.2733  144.4037  159.4089 H   0  0  0  0  0  0  0  0  0  0  0  0
  151.0312  145.8087  158.6847 H   0  0  0  0  0  0  0  0  0  0  0  0
  150.8779  144.6540  156.7339 H   0  0  0  0  0  0  0  0  0  0  0  0
  152.2363  143.6594  156.2737 H   0  0  0  0  0  0  0  0  0  0  0  0
  151.1972  141.6298  156.7607 H   0  0  0  0  0  0  0  0  0  0  0  0
  150.0902  142.3071  157.9306 H   0  0  0  0  0  0  0  0  0  0  0  0
  149.3307  143.5207  155.5973 H   0  0  0  0  0  0  0  0  0  0  0  0
  145.6066  140.3779  151.0071 H   0  0  0  0  0  0  0  0  0  0  0  0
  147.0077  138.1528  151.5983 H   0  0  0  0  0  0  0  0  0  0  0  0
  153.0198  142.0895  158.4137 H   0  0  0  0  0  0  0  0  0  0  0  0
  151.4832  142.1528  159.2461 H   0  0  0  0  0  0  0  0  0  0  0  0
  152.9294  144.4739  158.1923 H   0  0  0  0  0  0  0  0  0  0  0  0
  1  2  1  0  0  0  0
  1 19  1  0  0  0  0
  1 20  1  0  0  0  0
  1 21  1  0  0  0  0
  2 18  1  0  0  0  0
  2  3  1  0  0  0  0
  2 22  1  0  0  0  0
  3  4  1  0  0  0  0
  3 23  1  0  0  0  0
  3 24  1  0  0  0  0
  4  5  1  0  0  0  0
  4 25  1  0  0  0  0
  4 26  1  0  0  0  0
  5  6  1  0  0  0  0
  5 27  1  0  0  0  0
  5 28  1  0  0  0  0
  6  7  1  0  0  0  0
  6 18  1  0  0  0  0
  6 38  1  0  0  0  0
  7  8  1  0  0  0  0
  7 29  1  0  0  0  0
  7 30  1  0  0  0  0
  8  9  1  0  0  0  0
  8 31  1  0  0  0  0
  8 32  1  0  0  0  0
  9 10  1  0  0  0  0
  9 33  1  0  0  0  0
 10 11  2  0  0  0  0
 10 12  1  0  0  0  0
 12 13  1  0  0  0  0
 13 17  1  0  0  0  0
 13 14  2  0  0  0  0
 14 15  1  0  0  0  0
 15 16  2  0  0  0  0
 15 34  1  0  0  0  0
 16 17  1  0  0  0  0
 16 35  1  0  0  0  0
 18 36  1  0  0  0  0
 18 37  1  0  0  0  0
M  CHG  1   6   1
M  CHG  1  12  -1
M  END
> <s_m_source_file>
AV-unprocessed.smi

> <i_m_source_file_index>
1278

> <i_lp_mmshare_version>
43012

> <i_f3d_flags>
0

> <s_epik_input>
W0NIM11bQ0BASF0xW0NIMl1bQ0gyXVtDSDJdTihbQ0gyXTEpW0NIMl1bQ0gyXVtOSF1DKD1PKVtOSF1jMm5bY0hdW2NIXXMy

> <s_epik_cmdline>
J2VwaWtfcHl0aG9uJywgJy1waCcsICc3LjAnLCAnLXRuJywgJzgnLCAnLW1hJywgJzIwMCcsICctbWV0YWxfYmluZGluZycsICctaW1hZScsICc8aW5maWxlLm1hZT4nLCAnLW9tYWUnLCAnPG91dGZpbGUubWFlPic=

> <r_lp_tautomer_probability>
0.999

> <r_epik_Ionization_Penalty>
6.22019

> <r_epik_Ionization_Penalty_Charging>
5.38911

> <r_epik_Ionization_Penalty_Neutral>
0.831074

> <r_epik_State_Penalty>
5.38904

> <r_epik_Charging_Adjusted_Penalty>
10.7782

> <i_epik_Tot_Q>
0

> <i_epik_Tot_abs_Q>
2

> <r_epik_Metal_State_Penalty>
1.41502

> <b_epik_Metal_Only>
1

> <s_lp_Force_Field>
OPLS_2005

> <r_lp_Energy>
5.98005

> <b_lp_Chiralities_Consistent>
1

> <s_lp_Variant>
AV-unprocessed.smi:1278-5

> <Gold.Version>
5.8.1

> <Gold.Id.Protein>
6NUR|6NUR_protein|mol2

> <Gold.PLP.Fitness>
44.4287

> <Gold.PLP.PLP>
-36.1018

> <Gold.PLP.part.hbond>
-1.0000

> <Gold.PLP.part.metal>
0.0000

> <Gold.PLP.part.buried>
1.0315

> <Gold.PLP.part.nonpolar>
-36.8042

> <Gold.PLP.part.repulsive>
0.7127

> <Gold.PLP.ligand.clash>
0.0000

> <Gold.PLP.ligand.torsion>
0.7406

> <Gold.PLP.Chemscore.Hbond>
1.0000

> <Gold.PLP.Chemscore.CHOScore>
2.1916

> <Gold.PLP.Chemscore.Metal>
0.0000

> <Gold.Chemscore.Hbonds>
donor molecule, donor type, donor heavy atom, donor atom, acceptor molecule, acceptor atom, score
      L1  H     9    33       P1  8028  0.37
      L1  C    15    34       P1 10171  0.54
      L1  C    15    34       P1 10175  0.07
      L1  C    16    35       P1  7948  0.48

> <Gold.PLP.Chemscore.Internal.Correction>
0.2333

> <Gold.Rescore>
     Score         DG    S(hbond)    S(metal)    S(lipo)     H(rot)  DE(clash)    DE(int)     intcor
     14.66     -17.44       0.98        0.00     108.71       1.57       0.49       2.29       ----

> <Gold.Chemscore.Fitness>
14.6648

> <Gold.Chemscore.DG>
-17.4439

> <Gold.Chemscore.ZeroCoef>
-5.4800

> <Gold.Chemscore.Hbond>
0.9755

> <Gold.Chemscore.Metal>
0.0000

> <Gold.Chemscore.Lipo>
108.7082

> <Gold.Chemscore.Internal_Hbond>
0.0000

> <Gold.Chemscore.DEClash>
0.4928

> <Gold.Chemscore.DEInternal>
2.2863

> <Gold.Chemscore.Rot>
1.5676

> <Gold.Chemscore.Internal.Correction>
   9.000000E+99

> <Gold.Chemscore.Hbonds>
donor molecule, donor type, donor heavy atom, donor atom, acceptor molecule, acceptor atom, score
      L1  H     9    33       P1  8028  0.37

> <Gold.Chemscore.Hbond.Weighted>
-3.2581

> <Gold.Chemscore.Metal.Weighted>
-0.0000

> <Gold.Chemscore.Lipo.Weighted>
-12.7189

> <Gold.Chemscore.Internal_Hbond.Weighted>
0.0000

> <Gold.Chemscore.DEClash.Weighted>
0.4928

> <Gold.Chemscore.DEInternal.Weighted>
2.2863

> <Gold.Chemscore.Rot.Weighted>
4.0130

> <Gold.Chemscore.Internal.Correction.Weighted>
   9.000000E+99

> <Gold.Protein.RotatedTorsions>
[ 6907 6896 6895 6894 ] final  158.48 input  -60.11 | X-H torsion
[ 7974 7965 7964 7962 ] final  157.14 input  175.53 | X-H torsion
[ 8008 7997 7996 7995 ] final  -19.74 input   59.86 | X-H torsion
[ 10167 10162 10161 10158 ] final  166.28 input  -65.29 | X-H torsion
[ 10718 10713 10712 10709 ] final  143.95 input   66.30 | X-H torsion
[ 10763 10752 10751 10750 ] final   88.86 input  -60.55 | X-H torsion
[ 11005 11000 10999 10996 ] final   42.69 input  -57.11 | X-H torsion

> <Gold.Protein.ActiveResidues>
 VAL166  LYS551  ARG553  GLY616  TRP617  ASP618  TYR619  PRO620  LYS621  CYS622 
 ASP623  PHE694  ASN695  SER759  ASP760  ASP761  ALA762  ILE779  LEU786  VAL792 
 PHE793  MET794  SER795  GLU796  ALA797  LYS798  CYS799  TRP800  GLU811  SER814 

> <Gold.Protein.RotatedAtoms>
  151.9997  133.3821  159.4176 H   0  0  0  0  0  0  0  0  0  0  0  0  # atno 6907 bound_to 6896
  150.6911  134.3847  159.5059 H   0  0  0  0  0  0  0  0  0  0  0  0  # atno 6908 bound_to 6896
  152.1593  134.8925  160.0593 H   0  0  0  0  0  0  0  0  0  0  0  0  # atno 6909 bound_to 6896
  144.7921  139.7300  143.6217 H   0  0  0  0  0  0  0  0  0  0  0  0  # atno 7974 bound_to 7965
  154.4816  140.2081  155.9750 H   0  0  0  0  0  0  0  0  0  0  0  0  # atno 8008 bound_to 7997
  156.1174  140.3219  155.8128 H   0  0  0  0  0  0  0  0  0  0  0  0  # atno 8009 bound_to 7997
  155.4529  140.0518  157.2990 H   0  0  0  0  0  0  0  0  0  0  0  0  # atno 8010 bound_to 7997
  139.4921  144.4044  151.9372 H   0  0  0  0  0  0  0  0  0  0  0  0  # atno 10167 bound_to 10162
  157.3630  131.0968  151.0898 H   0  0  0  0  0  0  0  0  0  0  0  0  # atno 10718 bound_to 10713
  153.1812  135.4491  155.0030 H   0  0  0  0  0  0  0  0  0  0  0  0  # atno 10763 bound_to 10752
  154.8031  135.3263  154.7503 H   0  0  0  0  0  0  0  0  0  0  0  0  # atno 10764 bound_to 10752
  153.7967  135.6966  153.4917 H   0  0  0  0  0  0  0  0  0  0  0  0  # atno 10765 bound_to 10752
  140.1715  134.4216  155.8254 H   0  0  0  0  0  0  0  0  0  0  0  0  # atno 11005 bound_to 11000
  146.2176  139.5578  142.9639 LP  0  0  0  0  0  0  0  0  0  0  0  0  # atno 17320 bound_to 7965
  145.5768  141.0387  143.2144 LP  0  0  0  0  0  0  0  0  0  0  0  0  # atno 17321 bound_to 7965
  140.3484  144.3119  150.5954 LP  0  0  0  0  0  0  0  0  0  0  0  0  # atno 17342 bound_to 10162
  140.5506  143.2207  151.7933 LP  0  0  0  0  0  0  0  0  0  0  0  0  # atno 17343 bound_to 10162
  157.2031  130.6404  149.5746 LP  0  0  0  0  0  0  0  0  0  0  0  0  # atno 17370 bound_to 10713
  155.9741  130.4684  150.6360 LP  0  0  0  0  0  0  0  0  0  0  0  0  # atno 17371 bound_to 10713
  141.2217  133.6958  156.7771 LP  0  0  0  0  0  0  0  0  0  0  0  0  # atno 17394 bound_to 11000
  140.2372  134.8641  157.3537 LP  0  0  0  0  0  0  0  0  0  0  0  0  # atno 17395 bound_to 11000

$$$$
