AV-unprocessed.smi:2750|AV-procd|sdf|10592|dock2
  -GOLD-   2272015 43D 1   1.00000     0.00000
 Structure written by MMmdl.
 24 25  0  0  0  0  0  0  0  0  3 V2000
  148.2558  136.6851  162.2455 O   0  0  0  0  0  0  0  0  0  0  0  0
  147.5228  136.5725  161.2382 C   0  0  0  0  0  0  0  0  0  0  0  0
  146.5132  137.2676  160.9904 O   0  5  0  0  0  0  0  0  0  0  0  0
  147.8957  135.4950  160.2198 C   0  0  0  0  0  0  0  0  0  0  0  0
  148.8837  135.9655  159.2666 N   0  0  0  0  0  0  0  0  0  0  0  0
  149.3158  137.2565  159.0433 C   0  0  0  0  0  0  0  0  0  0  0  0
  150.2403  137.1137  158.0485 C   0  0  0  0  0  0  0  0  0  0  0  0
  151.0617  138.1628  157.3612 C   0  0  0  0  0  0  0  0  0  0  0  0
  150.8750  138.1541  155.8310 C   0  0  1  0  0  0  0  0  0  0  0  0
  149.5321  138.5519  155.4648 N   0  0  0  0  0  0  0  0  0  0  0  0
  149.5412  139.6213  154.6720 C   0  0  0  0  0  0  0  0  0  0  0  0
  148.5022  140.1100  154.2342 O   0  0  0  0  0  0  0  0  0  0  0  0
  150.8066  140.0338  154.4638 N   0  5  0  0  0  0  0  0  0  0  0  0
  151.6815  139.2363  155.1143 C   0  0  0  0  0  0  0  0  0  0  0  0
  152.9089  139.2851  155.1737 O   0  0  0  0  0  0  0  0  0  0  0  0
  150.3326  135.7634  157.7128 N   0  0  0  0  0  0  0  0  0  0  0  0
  149.5143  135.0837  158.4534 N   0  0  0  0  0  0  0  0  0  0  0  0
  148.2792  134.6105  160.7310 H   0  0  0  0  0  0  0  0  0  0  0  0
  147.0039  135.1836  159.6744 H   0  0  0  0  0  0  0  0  0  0  0  0
  148.9463  138.1148  159.5846 H   0  0  0  0  0  0  0  0  0  0  0  0
  150.8196  139.1486  157.7617 H   0  0  0  0  0  0  0  0  0  0  0  0
  152.1149  138.0017  157.5947 H   0  0  0  0  0  0  0  0  0  0  0  0
  151.1079  137.1768  155.4055 H   0  0  0  0  0  0  0  0  0  0  0  0
  148.7039  138.0592  155.7647 H   0  0  0  0  0  0  0  0  0  0  0  0
  1  2  2  0  0  0  0
  2  3  1  0  0  0  0
  2  4  1  0  0  0  0
  4  5  1  0  0  0  0
  4 18  1  0  0  0  0
  4 19  1  0  0  0  0
  5 17  1  0  0  0  0
  5  6  1  0  0  0  0
  6  7  2  0  0  0  0
  6 20  1  0  0  0  0
  7  8  1  0  0  0  0
  7 16  1  0  0  0  0
  8  9  1  0  0  0  0
  8 21  1  0  0  0  0
  8 22  1  0  0  0  0
  9 14  1  0  0  0  0
  9 10  1  0  0  0  0
  9 23  1  0  0  0  0
 10 11  1  0  0  0  0
 10 24  1  0  0  0  0
 11 12  2  0  0  0  0
 11 13  1  0  0  0  0
 13 14  1  0  0  0  0
 14 15  2  0  0  0  0
 16 17  2  0  0  0  0
M  CHG  1   3  -1
M  CHG  1  13  -1
M  END
> <s_m_source_file>
AV-unprocessed.smi

> <i_m_source_file_index>
2750

> <i_lp_mmshare_version>
43012

> <i_f3d_flags>
0

> <s_epik_input>
Tz1DKFtPSF0pW0NIMl1uMVtjSF1jKG5uMSlbQ0gyXVtDQEBIXTJbTkhdQyg9TylbTkhdQzI9Tw==

> <s_epik_cmdline>
J2VwaWtfcHl0aG9uJywgJy1waCcsICc3LjAnLCAnLXRuJywgJzgnLCAnLW1hJywgJzIwMCcsICctbWV0YWxfYmluZGluZycsICctaW1hZScsICc8aW5maWxlLm1hZT4nLCAnLW9tYWUnLCAnPG91dGZpbGUubWFlPic=

> <r_lp_tautomer_probability>
1

> <r_epik_Ionization_Penalty>
2.03209

> <r_epik_Ionization_Penalty_Charging>
2.03208

> <r_epik_Ionization_Penalty_Neutral>
1.30912e-05

> <r_epik_State_Penalty>
2.16313

> <r_epik_Charging_Adjusted_Penalty>
4.19521

> <i_epik_Tot_Q>
-2

> <i_epik_Tot_abs_Q>
2

> <r_epik_Metal_State_Penalty>
0.529162

> <b_epik_Metal_Only>
0

> <s_lp_Force_Field>
OPLS_2005

> <r_lp_Energy>
6.41301

> <b_lp_Chiralities_Consistent>
1

> <s_lp_Variant>
AV-unprocessed.smi:2750-4

> <Gold.Version>
5.8.1

> <Gold.Id.Protein>
6NUR|6NUR_protein|mol2

> <Gold.PLP.Fitness>
43.6213

> <Gold.PLP.PLP>
-23.6477

> <Gold.PLP.part.hbond>
-6.1617

> <Gold.PLP.part.metal>
0.0000

> <Gold.PLP.part.buried>
-4.8337

> <Gold.PLP.part.nonpolar>
-13.5212

> <Gold.PLP.part.repulsive>
0.2287

> <Gold.PLP.ligand.clash>
0.0000

> <Gold.PLP.ligand.torsion>
0.5134

> <Gold.PLP.Chemscore.Hbond>
6.9913

> <Gold.PLP.Chemscore.CHOScore>
0.0000

> <Gold.PLP.Chemscore.Metal>
0.0000

> <Gold.Chemscore.Hbonds>
donor molecule, donor type, donor heavy atom, donor atom, acceptor molecule, acceptor atom, score
      P1  H  6896  6909       L1    17  0.95
      P1  H  6931  6943       L1     1  2.00
      P1  H  6934  6947       L1     3  2.00
      P1  H  7989  7998       L1    13  0.98
      P1  H  7997  8010       L1    15  1.00

> <Gold.PLP.Chemscore.Internal.Correction>
0.0266

> <Gold.Rescore>
     Score         DG    S(hbond)    S(metal)    S(lipo)     H(rot)  DE(clash)    DE(int)     intcor
     10.25     -10.87       3.02        0.00      21.09       2.80       0.13       0.49       ----

> <Gold.Chemscore.Fitness>
10.2536

> <Gold.Chemscore.DG>
-10.8705

> <Gold.Chemscore.ZeroCoef>
-5.4800

> <Gold.Chemscore.Hbond>
3.0191

> <Gold.Chemscore.Metal>
0.0000

> <Gold.Chemscore.Lipo>
21.0923

> <Gold.Chemscore.Internal_Hbond>
0.0000

> <Gold.Chemscore.DEClash>
0.1281

> <Gold.Chemscore.DEInternal>
0.4888

> <Gold.Chemscore.Rot>
2.7973

> <Gold.Chemscore.Internal.Correction>
   9.000000E+99

> <Gold.Chemscore.Hbonds>
donor molecule, donor type, donor heavy atom, donor atom, acceptor molecule, acceptor atom, score
      P1  H  6896  6909       L1    17  0.14
      P1  H  6931  6943       L1     1  0.35
      P1  H  6934  6947       L1     3  0.45
      P1  H  7989  7998       L1    13  0.50
      P1  H  7997  8010       L1    15  0.99

> <Gold.Chemscore.Hbond.Weighted>
-10.0838

> <Gold.Chemscore.Metal.Weighted>
-0.0000

> <Gold.Chemscore.Lipo.Weighted>
-2.4678

> <Gold.Chemscore.Internal_Hbond.Weighted>
0.0000

> <Gold.Chemscore.DEClash.Weighted>
0.1281

> <Gold.Chemscore.DEInternal.Weighted>
0.4888

> <Gold.Chemscore.Rot.Weighted>
7.1611

> <Gold.Chemscore.Internal.Correction.Weighted>
   9.000000E+99

> <Gold.Protein.RotatedTorsions>
[ 6907 6896 6895 6894 ] final   23.90 input  -60.11 | X-H torsion
[ 7974 7965 7964 7962 ] final   -6.47 input  175.53 | X-H torsion
[ 8008 7997 7996 7995 ] final   88.53 input   59.86 | X-H torsion
[ 10167 10162 10161 10158 ] final -141.05 input  -65.29 | X-H torsion
[ 10718 10713 10712 10709 ] final  -60.78 input   66.30 | X-H torsion
[ 10763 10752 10751 10750 ] final   32.91 input  -60.55 | X-H torsion
[ 11005 11000 10999 10996 ] final  -69.83 input  -57.11 | X-H torsion

> <Gold.Protein.ActiveResidues>
 VAL166  LYS551  ARG553  GLY616  TRP617  ASP618  TYR619  PRO620  LYS621  CYS622 
 ASP623  PHE694  ASN695  SER759  ASP760  ASP761  ALA762  ILE779  LEU786  VAL792 
 PHE793  MET794  SER795  GLU796  ALA797  LYS798  CYS799  TRP800  GLU811  SER814 

> <Gold.Protein.RotatedAtoms>
  151.9493  135.0177  160.0540 H   0  0  0  0  0  0  0  0  0  0  0  0  # atno 6907 bound_to 6896
  152.1967  133.4807  159.5045 H   0  0  0  0  0  0  0  0  0  0  0  0  # atno 6908 bound_to 6896
  150.6946  134.1560  159.4201 H   0  0  0  0  0  0  0  0  0  0  0  0  # atno 6909 bound_to 6896
  146.2330  140.2175  142.8336 H   0  0  0  0  0  0  0  0  0  0  0  0  # atno 7974 bound_to 7965
  155.9888  140.3370  155.6733 H   0  0  0  0  0  0  0  0  0  0  0  0  # atno 8008 bound_to 7997
  155.6448  140.0699  157.2624 H   0  0  0  0  0  0  0  0  0  0  0  0  # atno 8009 bound_to 7997
  154.4213  140.1736  156.1599 H   0  0  0  0  0  0  0  0  0  0  0  0  # atno 8010 bound_to 7997
  139.8222  143.7559  152.2666 H   0  0  0  0  0  0  0  0  0  0  0  0  # atno 10167 bound_to 10162
  156.0967  130.4192  150.0902 H   0  0  0  0  0  0  0  0  0  0  0  0  # atno 10718 bound_to 10713
  153.0238  135.6401  154.1429 H   0  0  0  0  0  0  0  0  0  0  0  0  # atno 10763 bound_to 10752
  154.1161  135.2850  155.3221 H   0  0  0  0  0  0  0  0  0  0  0  0  # atno 10764 bound_to 10752
  154.6297  135.5497  153.7729 H   0  0  0  0  0  0  0  0  0  0  0  0  # atno 10765 bound_to 10752
  141.1562  133.6774  156.6660 H   0  0  0  0  0  0  0  0  0  0  0  0  # atno 11005 bound_to 11000
  144.9658  140.8320  143.5485 LP  0  0  0  0  0  0  0  0  0  0  0  0  # atno 17320 bound_to 7965
  145.2150  139.2186  143.5123 LP  0  0  0  0  0  0  0  0  0  0  0  0  # atno 17321 bound_to 7965
  139.7741  144.7467  151.0183 LP  0  0  0  0  0  0  0  0  0  0  0  0  # atno 17342 bound_to 10162
  140.7812  143.4613  151.0274 LP  0  0  0  0  0  0  0  0  0  0  0  0  # atno 17343 bound_to 10162
  156.8899  130.9585  151.3589 LP  0  0  0  0  0  0  0  0  0  0  0  0  # atno 17370 bound_to 10713
  157.6129  130.8596  149.8981 LP  0  0  0  0  0  0  0  0  0  0  0  0  # atno 17371 bound_to 10713
  140.3211  134.8007  157.4253 LP  0  0  0  0  0  0  0  0  0  0  0  0  # atno 17394 bound_to 11000
  140.1096  134.5363  155.8278 LP  0  0  0  0  0  0  0  0  0  0  0  0  # atno 17395 bound_to 11000

$$$$
