AV-unprocessed.smi:1215|AV-procd|sdf|5095|dock7
  -GOLD-   22720 4143D 1   1.00000     0.00000
 Structure written by MMmdl.
 46 47  0  0  0  0  0  0  0  0  2 V2000
  146.5445  129.7451  151.3969 C   0  0  0  0  0  0  0  0  0  0  0  0
  145.1053  130.1984  151.1244 C   0  0  0  0  0  0  0  0  0  0  0  0
  145.0088  131.6413  151.0221 N   0  0  0  0  0  0  0  0  0  0  0  0
  146.0324  132.5681  151.0295 C   0  0  0  0  0  0  0  0  0  0  0  0
  145.4283  133.7863  150.8955 C   0  0  0  0  0  0  0  0  0  0  0  0
  146.0101  135.0778  150.8346 N   0  0  0  0  0  0  0  0  0  0  0  0
  145.6230  136.1784  151.4994 C   0  0  0  0  0  0  0  0  0  0  0  0
  144.6635  136.2424  152.2686 O   0  0  0  0  0  0  0  0  0  0  0  0
  146.4136  137.2238  151.2170 N   0  0  0  0  0  0  0  0  0  0  0  0
  146.2523  138.5625  151.7725 C   0  0  0  0  0  0  0  0  0  0  0  0
  146.4226  138.5582  153.3048 C   0  0  0  0  0  0  0  0  0  0  0  0
  145.8537  139.7618  153.9693 N   0  3  1  0  0  0  0  0  0  0  0  0
  145.3731  139.4586  155.3448 C   0  0  0  0  0  0  0  0  0  0  0  0
  144.5954  140.6410  155.9431 C   0  0  0  0  0  0  0  0  0  0  0  0
  145.4443  141.9163  155.9353 C   0  0  0  0  0  0  0  0  0  0  0  0
  145.9428  142.2000  154.5120 C   0  0  0  0  0  0  0  0  0  0  0  0
  146.6971  140.9979  153.9044 C   0  0  1  0  0  0  0  0  0  0  0  0
  148.1042  140.8221  154.5156 C   0  0  0  0  0  0  0  0  0  0  0  0
  144.0366  133.5213  150.8125 C   0  0  0  0  0  0  0  0  0  0  0  0
  143.7907  132.2225  150.8903 N   0  0  0  0  0  0  0  0  0  0  0  0
  146.5996  128.6598  151.4808 H   0  0  0  0  0  0  0  0  0  0  0  0
  146.9216  130.1709  152.3273 H   0  0  0  0  0  0  0  0  0  0  0  0
  147.2141  130.0509  150.5924 H   0  0  0  0  0  0  0  0  0  0  0  0
  144.7346  129.7534  150.1998 H   0  0  0  0  0  0  0  0  0  0  0  0
  144.4463  129.8604  151.9251 H   0  0  0  0  0  0  0  0  0  0  0  0
  147.0684  132.2771  151.1224 H   0  0  0  0  0  0  0  0  0  0  0  0
  146.8077  135.1708  150.2227 H   0  0  0  0  0  0  0  0  0  0  0  0
  147.1817  137.0822  150.5768 H   0  0  0  0  0  0  0  0  0  0  0  0
  146.9690  139.2273  151.2896 H   0  0  0  0  0  0  0  0  0  0  0  0
  145.2589  138.9253  151.5074 H   0  0  0  0  0  0  0  0  0  0  0  0
  145.9099  137.6774  153.6939 H   0  0  0  0  0  0  0  0  0  0  0  0
  147.4697  138.4379  153.5833 H   0  0  0  0  0  0  0  0  0  0  0  0
  144.7180  138.5869  155.3194 H   0  0  0  0  0  0  0  0  0  0  0  0
  146.2146  139.1933  155.9857 H   0  0  0  0  0  0  0  0  0  0  0  0
  143.6809  140.8052  155.3715 H   0  0  0  0  0  0  0  0  0  0  0  0
  144.2852  140.4064  156.9618 H   0  0  0  0  0  0  0  0  0  0  0  0
  144.8583  142.7594  156.3026 H   0  0  0  0  0  0  0  0  0  0  0  0
  146.2892  141.8060  156.6158 H   0  0  0  0  0  0  0  0  0  0  0  0
  145.0871  142.4405  153.8795 H   0  0  0  0  0  0  0  0  0  0  0  0
  146.5774  143.0872  154.5088 H   0  0  0  0  0  0  0  0  0  0  0  0
  146.8397  141.2476  152.8539 H   0  0  0  0  0  0  0  0  0  0  0  0
  148.6628  141.7573  154.4689 H   0  0  0  0  0  0  0  0  0  0  0  0
  148.6920  140.0820  153.9731 H   0  0  0  0  0  0  0  0  0  0  0  0
  148.0677  140.5194  155.5617 H   0  0  0  0  0  0  0  0  0  0  0  0
  143.2140  134.2121  150.6994 H   0  0  0  0  0  0  0  0  0  0  0  0
  145.0190  139.9832  153.4454 H   0  0  0  0  0  0  0  0  0  0  0  0
  1  2  1  0  0  0  0
  1 21  1  0  0  0  0
  1 22  1  0  0  0  0
  1 23  1  0  0  0  0
  2  3  1  0  0  0  0
  2 24  1  0  0  0  0
  2 25  1  0  0  0  0
  3 20  1  0  0  0  0
  3  4  1  0  0  0  0
  4  5  2  0  0  0  0
  4 26  1  0  0  0  0
  5  6  1  0  0  0  0
  5 19  1  0  0  0  0
  6  7  1  0  0  0  0
  6 27  1  0  0  0  0
  7  8  2  0  0  0  0
  7  9  1  0  0  0  0
  9 10  1  0  0  0  0
  9 28  1  0  0  0  0
 10 11  1  0  0  0  0
 10 29  1  0  0  0  0
 10 30  1  0  0  0  0
 11 12  1  0  0  0  0
 11 31  1  0  0  0  0
 11 32  1  0  0  0  0
 12 17  1  0  0  0  0
 12 13  1  0  0  0  0
 12 46  1  0  0  0  0
 13 14  1  0  0  0  0
 13 33  1  0  0  0  0
 13 34  1  0  0  0  0
 14 15  1  0  0  0  0
 14 35  1  0  0  0  0
 14 36  1  0  0  0  0
 15 16  1  0  0  0  0
 15 37  1  0  0  0  0
 15 38  1  0  0  0  0
 16 17  1  0  0  0  0
 16 39  1  0  0  0  0
 16 40  1  0  0  0  0
 17 18  1  0  0  0  0
 17 41  1  0  0  0  0
 18 42  1  0  0  0  0
 18 43  1  0  0  0  0
 18 44  1  0  0  0  0
 19 20  2  0  0  0  0
 19 45  1  0  0  0  0
M  CHG  1  12   1
M  END
> <s_m_source_file>
AV-unprocessed.smi

> <i_m_source_file_index>
1215

> <i_lp_mmshare_version>
43012

> <i_f3d_flags>
0

> <s_epik_input>
W0NIM11bQ0gyXW4xW2NIXWMoW2NIXW4xKVtOSF1DKD1PKVtOSF1bQ0gyXVtDSDJdTjJbQ0gyXVtDSDJdW0NIMl1bQ0gyXVtDQEhdMltDSDNd

> <s_epik_cmdline>
J2VwaWtfcHl0aG9uJywgJy1waCcsICc3LjAnLCAnLXRuJywgJzgnLCAnLW1hJywgJzIwMCcsICctbWV0YWxfYmluZGluZycsICctaW1hZScsICc8aW5maWxlLm1hZT4nLCAnLW9tYWUnLCAnPG91dGZpbGUubWFlPic=

> <r_lp_tautomer_probability>
1

> <r_epik_Ionization_Penalty>
0.00247187

> <r_epik_Ionization_Penalty_Charging>
0.00232067

> <r_epik_Ionization_Penalty_Neutral>
0.000151201

> <r_epik_State_Penalty>
0.00160128

> <r_epik_Charging_Adjusted_Penalty>
0.00392194

> <i_epik_Tot_Q>
1

> <i_epik_Tot_abs_Q>
1

> <r_epik_Metal_State_Penalty>
-0

> <b_epik_Metal_Only>
0

> <s_lp_Force_Field>
OPLS_2005

> <r_lp_Energy>
23.8911

> <b_lp_Chiralities_Consistent>
1

> <s_lp_Variant>
AV-unprocessed.smi:1215-2

> <Gold.Version>
5.8.1

> <Gold.Id.Protein>
6NUR|6NUR_protein|mol2

> <Gold.PLP.Fitness>
47.4794

> <Gold.PLP.PLP>
-37.9258

> <Gold.PLP.part.hbond>
-3.2774

> <Gold.PLP.part.metal>
0.0000

> <Gold.PLP.part.buried>
-3.7414

> <Gold.PLP.part.nonpolar>
-32.4738

> <Gold.PLP.part.repulsive>
1.3872

> <Gold.PLP.ligand.clash>
0.0000

> <Gold.PLP.ligand.torsion>
0.7883

> <Gold.PLP.Chemscore.Hbond>
2.0179

> <Gold.PLP.Chemscore.CHOScore>
1.6776

> <Gold.PLP.Chemscore.Metal>
0.0000

> <Gold.Chemscore.Hbonds>
donor molecule, donor type, donor heavy atom, donor atom, acceptor molecule, acceptor atom, score
      L1  H     9    28       P1  7948  0.06
      L1  H    12    46       P1 10175  2.00
      L1  C     4    26       P1 10747  1.00
      L1  C    19    45       P1 10186  1.00

> <Gold.PLP.Chemscore.Internal.Correction>
0.0434

> <Gold.Rescore>
     Score         DG    S(hbond)    S(metal)    S(lipo)     H(rot)  DE(clash)    DE(int)     intcor
     13.90     -14.67       1.18        0.00      79.76       1.59       0.10       0.68       ----

> <Gold.Chemscore.Fitness>
13.9014

> <Gold.Chemscore.DG>
-14.6728

> <Gold.Chemscore.ZeroCoef>
-5.4800

> <Gold.Chemscore.Hbond>
1.1777

> <Gold.Chemscore.Metal>
0.0000

> <Gold.Chemscore.Lipo>
79.7602

> <Gold.Chemscore.Internal_Hbond>
0.0000

> <Gold.Chemscore.DEClash>
0.0956

> <Gold.Chemscore.DEInternal>
0.6759

> <Gold.Chemscore.Rot>
1.5909

> <Gold.Chemscore.Internal.Correction>
   9.000000E+99

> <Gold.Chemscore.Hbonds>
donor molecule, donor type, donor heavy atom, donor atom, acceptor molecule, acceptor atom, score
      L1  H     9    28       P1  7948  0.06
      L1  H    12    46       P1 10175  1.00

> <Gold.Chemscore.Hbond.Weighted>
-3.9337

> <Gold.Chemscore.Metal.Weighted>
-0.0000

> <Gold.Chemscore.Lipo.Weighted>
-9.3319

> <Gold.Chemscore.Internal_Hbond.Weighted>
0.0000

> <Gold.Chemscore.DEClash.Weighted>
0.0956

> <Gold.Chemscore.DEInternal.Weighted>
0.6759

> <Gold.Chemscore.Rot.Weighted>
4.0728

> <Gold.Chemscore.Internal.Correction.Weighted>
   9.000000E+99

> <Gold.Protein.RotatedTorsions>
[ 6907 6896 6895 6894 ] final   85.47 input  -60.11 | X-H torsion
[ 7974 7965 7964 7962 ] final  -93.20 input  175.53 | X-H torsion
[ 8008 7997 7996 7995 ] final  -14.09 input   59.86 | X-H torsion
[ 10167 10162 10161 10158 ] final  -67.55 input  -65.29 | X-H torsion
[ 10718 10713 10712 10709 ] final   74.14 input   66.30 | X-H torsion
[ 10763 10752 10751 10750 ] final   66.70 input  -60.55 | X-H torsion
[ 11005 11000 10999 10996 ] final  -85.72 input  -57.11 | X-H torsion

> <Gold.Protein.ActiveResidues>
 VAL166  LYS551  ARG553  GLY616  TRP617  ASP618  TYR619  PRO620  LYS621  CYS622 
 ASP623  PHE694  ASN695  SER759  ASP760  ASP761  ALA762  ILE779  LEU786  VAL792 
 PHE793  MET794  SER795  GLU796  ALA797  LYS798  CYS799  TRP800  GLU811  SER814 

> <Gold.Protein.RotatedAtoms>
  152.5375  134.2581  159.8924 H   0  0  0  0  0  0  0  0  0  0  0  0  # atno 6907 bound_to 6896
  151.2541  133.4328  159.2620 H   0  0  0  0  0  0  0  0  0  0  0  0  # atno 6908 bound_to 6896
  151.0512  134.9688  159.8269 H   0  0  0  0  0  0  0  0  0  0  0  0  # atno 6909 bound_to 6896
  145.3897  140.9527  143.2347 H   0  0  0  0  0  0  0  0  0  0  0  0  # atno 7974 bound_to 7965
  154.5239  140.2232  155.8926 H   0  0  0  0  0  0  0  0  0  0  0  0  # atno 8008 bound_to 7997
  156.1691  140.3125  155.8907 H   0  0  0  0  0  0  0  0  0  0  0  0  # atno 8009 bound_to 7997
  155.3594  140.0460  157.3037 H   0  0  0  0  0  0  0  0  0  0  0  0  # atno 8010 bound_to 7997
  140.5574  143.2312  151.6794 H   0  0  0  0  0  0  0  0  0  0  0  0  # atno 10167 bound_to 10162
  157.6579  130.9663  150.1169 H   0  0  0  0  0  0  0  0  0  0  0  0  # atno 10718 bound_to 10713
  153.0152  135.5311  154.6865 H   0  0  0  0  0  0  0  0  0  0  0  0  # atno 10763 bound_to 10752
  154.6011  135.2868  155.0537 H   0  0  0  0  0  0  0  0  0  0  0  0  # atno 10764 bound_to 10752
  154.1593  135.6550  153.5034 H   0  0  0  0  0  0  0  0  0  0  0  0  # atno 10765 bound_to 10752
  141.1638  133.7415  156.9056 H   0  0  0  0  0  0  0  0  0  0  0  0  # atno 11005 bound_to 11000
  144.8449  139.5413  143.6883 LP  0  0  0  0  0  0  0  0  0  0  0  0  # atno 17320 bound_to 7965
  146.2803  139.6860  142.9233 LP  0  0  0  0  0  0  0  0  0  0  0  0  # atno 17321 bound_to 7965
  139.5054  144.3718  152.0463 LP  0  0  0  0  0  0  0  0  0  0  0  0  # atno 17342 bound_to 10162
  140.2841  144.3827  150.6109 LP  0  0  0  0  0  0  0  0  0  0  0  0  # atno 17343 bound_to 10162
  156.2051  130.3663  149.8740 LP  0  0  0  0  0  0  0  0  0  0  0  0  # atno 17370 bound_to 10713
  156.6633  130.8791  151.3551 LP  0  0  0  0  0  0  0  0  0  0  0  0  # atno 17371 bound_to 10713
  140.1552  134.9203  157.2644 LP  0  0  0  0  0  0  0  0  0  0  0  0  # atno 17394 bound_to 11000
  140.2675  134.3498  155.7385 LP  0  0  0  0  0  0  0  0  0  0  0  0  # atno 17395 bound_to 11000

$$$$
