AV-unprocessed.smi:3112|AV-procd|sdf|11850|dock9
  -GOLD-   2272017233D 1   1.00000     0.00000
 Structure written by MMmdl.
 36 36  0  0  0  0  0  0  0  0  1 V2000
  144.7620  137.0900  153.4776 C   0  0  0  0  0  0  0  0  0  0  0  0
  145.7427  137.2451  152.3074 C   0  0  0  0  0  0  0  0  0  0  0  0
  146.5173  138.5778  152.3357 C   0  0  2  0  0  0  0  0  0  0  0  0
  147.3780  138.6869  151.2196 O   0  0  0  0  0  0  0  0  0  0  0  0
  147.3313  138.8135  153.6220 C   0  0  0  0  0  0  0  0  0  0  0  0
  148.7740  138.6797  153.4013 N   0  0  0  0  0  0  0  0  0  0  0  0
  149.6102  138.9812  154.5671 C   0  0  1  0  0  0  0  0  0  0  0  0
  150.9306  138.2004  154.4260 C   0  0  0  0  0  0  0  0  0  0  0  0
  149.8450  140.5135  154.7284 C   0  0  1  0  0  0  0  0  0  0  0  0
  148.5693  141.3698  154.6239 C   0  0  0  0  0  0  0  0  0  0  0  0
  150.5411  140.8282  155.9705 N   0  0  0  0  0  0  0  0  0  0  0  0
  150.8328  142.0712  156.4943 C   0  0  0  0  0  0  0  0  0  0  0  0
  151.4935  141.8738  157.6729 C   0  0  0  0  0  0  0  0  0  0  0  0
  151.5596  140.4577  157.7896 C   0  0  0  0  0  0  0  0  0  0  0  0
  150.9897  139.8346  156.7714 N   0  0  0  0  0  0  0  0  0  0  0  0
  144.2608  136.1228  153.4365 H   0  0  0  0  0  0  0  0  0  0  0  0
  143.9918  137.8614  153.4560 H   0  0  0  0  0  0  0  0  0  0  0  0
  145.2771  137.1564  154.4361 H   0  0  0  0  0  0  0  0  0  0  0  0
  146.4540  136.4188  152.3414 H   0  0  0  0  0  0  0  0  0  0  0  0
  145.1995  137.1421  151.3671 H   0  0  0  0  0  0  0  0  0  0  0  0
  145.7989  139.3944  152.2534 H   0  0  0  0  0  0  0  0  0  0  0  0
  148.0619  139.3050  151.4273 H   0  0  0  0  0  0  0  0  0  0  0  0
  147.0782  139.7856  154.0406 H   0  0  0  0  0  0  0  0  0  0  0  0
  147.0195  138.0803  154.3666 H   0  0  0  0  0  0  0  0  0  0  0  0
  148.9708  137.7380  153.0781 H   0  0  0  0  0  0  0  0  0  0  0  0
  149.1218  138.6051  155.4674 H   0  0  0  0  0  0  0  0  0  0  0  0
  151.5459  138.2765  155.3225 H   0  0  0  0  0  0  0  0  0  0  0  0
  151.5203  138.5656  153.5845 H   0  0  0  0  0  0  0  0  0  0  0  0
  150.7424  137.1387  154.2632 H   0  0  0  0  0  0  0  0  0  0  0  0
  150.5067  140.8303  153.9204 H   0  0  0  0  0  0  0  0  0  0  0  0
  148.1607  141.3530  153.6140 H   0  0  0  0  0  0  0  0  0  0  0  0
  148.7797  142.4142  154.8574 H   0  0  0  0  0  0  0  0  0  0  0  0
  147.7969  141.0251  155.3119 H   0  0  0  0  0  0  0  0  0  0  0  0
  150.5503  142.9833  155.9897 H   0  0  0  0  0  0  0  0  0  0  0  0
  151.8717  142.6264  158.3483 H   0  0  0  0  0  0  0  0  0  0  0  0
  152.0020  139.8678  158.5788 H   0  0  0  0  0  0  0  0  0  0  0  0
  1  2  1  0  0  0  0
  1 16  1  0  0  0  0
  1 17  1  0  0  0  0
  1 18  1  0  0  0  0
  2  3  1  0  0  0  0
  2 19  1  0  0  0  0
  2 20  1  0  0  0  0
  3  4  1  0  0  0  0
  3  5  1  0  0  0  0
  3 21  1  0  0  0  0
  4 22  1  0  0  0  0
  5  6  1  0  0  0  0
  5 23  1  0  0  0  0
  5 24  1  0  0  0  0
  6  7  1  0  0  0  0
  6 25  1  0  0  0  0
  7  8  1  0  0  0  0
  7  9  1  0  0  0  0
  7 26  1  0  0  0  0
  8 27  1  0  0  0  0
  8 28  1  0  0  0  0
  8 29  1  0  0  0  0
  9 10  1  0  0  0  0
  9 11  1  0  0  0  0
  9 30  1  0  0  0  0
 10 31  1  0  0  0  0
 10 32  1  0  0  0  0
 10 33  1  0  0  0  0
 11 15  1  0  0  0  0
 11 12  1  0  0  0  0
 12 13  2  0  0  0  0
 12 34  1  0  0  0  0
 13 14  1  0  0  0  0
 13 35  1  0  0  0  0
 14 15  2  0  0  0  0
 14 36  1  0  0  0  0
M  END
> <s_m_source_file>
AV-unprocessed.smi

> <i_m_source_file_index>
3112

> <i_lp_mmshare_version>
43012

> <i_f3d_flags>
0

> <s_epik_input>
W0NIM11bQ0gyXVtDQEhdKFtPSF0pW0NIMl1bTkhdW0NASF0oW0NIM10pW0NASF0oW0NIM10pbjFbY0hdW2NIXVtjSF1uMQ==

> <s_epik_cmdline>
J2VwaWtfcHl0aG9uJywgJy1waCcsICc3LjAnLCAnLXRuJywgJzgnLCAnLW1hJywgJzIwMCcsICctbWV0YWxfYmluZGluZycsICctaW1hZScsICc8aW5maWxlLm1hZT4nLCAnLW9tYWUnLCAnPG91dGZpbGUubWFlPic=

> <r_lp_tautomer_probability>
1

> <r_epik_Ionization_Penalty>
2.16876

> <r_epik_Ionization_Penalty_Charging>
0

> <r_epik_Ionization_Penalty_Neutral>
2.16876

> <r_epik_State_Penalty>
2.30854

> <r_epik_Charging_Adjusted_Penalty>
2.30854

> <i_epik_Tot_Q>
0

> <i_epik_Tot_abs_Q>
0

> <r_epik_Metal_State_Penalty>
2.3073

> <b_epik_Metal_Only>
0

> <s_lp_Force_Field>
OPLS_2005

> <r_lp_Energy>
23.3331

> <b_lp_Chiralities_Consistent>
1

> <s_lp_Variant>
AV-unprocessed.smi:3112-15

> <Gold.Version>
5.8.1

> <Gold.Id.Protein>
6NUR|6NUR_protein|mol2

> <Gold.PLP.Fitness>
41.6803

> <Gold.PLP.PLP>
-32.3134

> <Gold.PLP.part.hbond>
-5.0000

> <Gold.PLP.part.metal>
0.0000

> <Gold.PLP.part.buried>
-2.0177

> <Gold.PLP.part.nonpolar>
-25.1710

> <Gold.PLP.part.repulsive>
0.0000

> <Gold.PLP.ligand.clash>
0.0000

> <Gold.PLP.ligand.torsion>
1.1644

> <Gold.PLP.Chemscore.Hbond>
2.8496

> <Gold.PLP.Chemscore.CHOScore>
1.0000

> <Gold.PLP.Chemscore.Metal>
0.0000

> <Gold.Chemscore.Hbonds>
donor molecule, donor type, donor heavy atom, donor atom, acceptor molecule, acceptor atom, score
      L1  H     4    22       P1  7957  1.00
      L1  H     6    25       P1  7948  1.00
      P1  H  7954  7966       L1     4  0.80
      L1  C    12    34       P1  8028  1.00

> <Gold.PLP.Chemscore.Internal.Correction>
0.1470

> <Gold.Rescore>
     Score         DG    S(hbond)    S(metal)    S(lipo)     H(rot)  DE(clash)    DE(int)     intcor
     12.47     -15.09       2.17        0.00      70.85       2.31       0.10       2.53       ----

> <Gold.Chemscore.Fitness>
12.4658

> <Gold.Chemscore.DG>
-15.0934

> <Gold.Chemscore.ZeroCoef>
-5.4800

> <Gold.Chemscore.Hbond>
2.1677

> <Gold.Chemscore.Metal>
0.0000

> <Gold.Chemscore.Lipo>
70.8462

> <Gold.Chemscore.Internal_Hbond>
0.0000

> <Gold.Chemscore.DEClash>
0.0985

> <Gold.Chemscore.DEInternal>
2.5291

> <Gold.Chemscore.Rot>
2.3108

> <Gold.Chemscore.Internal.Correction>
   9.000000E+99

> <Gold.Chemscore.Hbonds>
donor molecule, donor type, donor heavy atom, donor atom, acceptor molecule, acceptor atom, score
      L1  H     4    22       P1  7957  0.86
      L1  H     6    25       P1  7948  0.98
      P1  H  7954  7966       L1     4  0.13

> <Gold.Chemscore.Hbond.Weighted>
-7.2400

> <Gold.Chemscore.Metal.Weighted>
-0.0000

> <Gold.Chemscore.Lipo.Weighted>
-8.2890

> <Gold.Chemscore.Internal_Hbond.Weighted>
0.0000

> <Gold.Chemscore.DEClash.Weighted>
0.0985

> <Gold.Chemscore.DEInternal.Weighted>
2.5291

> <Gold.Chemscore.Rot.Weighted>
5.9157

> <Gold.Chemscore.Internal.Correction.Weighted>
   9.000000E+99

> <Gold.Protein.RotatedTorsions>
[ 6907 6896 6895 6894 ] final  -58.30 input  -60.11 | X-H torsion
[ 7974 7965 7964 7962 ] final   57.59 input  175.53 | X-H torsion
[ 8008 7997 7996 7995 ] final  176.78 input   59.86 | X-H torsion
[ 10167 10162 10161 10158 ] final  121.88 input  -65.29 | X-H torsion
[ 10718 10713 10712 10709 ] final   46.57 input   66.30 | X-H torsion
[ 10763 10752 10751 10750 ] final   -0.15 input  -60.55 | X-H torsion
[ 11005 11000 10999 10996 ] final   61.07 input  -57.11 | X-H torsion

> <Gold.Protein.ActiveResidues>
 VAL166  LYS551  ARG553  GLY616  TRP617  ASP618  TYR619  PRO620  LYS621  CYS622 
 ASP623  PHE694  ASN695  SER759  ASP760  ASP761  ALA762  ILE779  LEU786  VAL792 
 PHE793  MET794  SER795  GLU796  ALA797  LYS798  CYS799  TRP800  GLU811  SER814 

> <Gold.Protein.RotatedAtoms>
  150.8017  134.7116  159.6606 H   0  0  0  0  0  0  0  0  0  0  0  0  # atno 6907 bound_to 6896
  152.4135  134.6080  160.0027 H   0  0  0  0  0  0  0  0  0  0  0  0  # atno 6908 bound_to 6896
  151.6316  133.3294  159.3146 H   0  0  0  0  0  0  0  0  0  0  0  0  # atno 6909 bound_to 6896
  145.9274  139.3779  143.0441 H   0  0  0  0  0  0  0  0  0  0  0  0  # atno 7974 bound_to 7965
  156.0728  140.1375  156.9808 H   0  0  0  0  0  0  0  0  0  0  0  0  # atno 8008 bound_to 7997
  154.4541  140.0968  156.6756 H   0  0  0  0  0  0  0  0  0  0  0  0  # atno 8009 bound_to 7997
  155.5201  140.3456  155.4407 H   0  0  0  0  0  0  0  0  0  0  0  0  # atno 8010 bound_to 7997
  139.5892  144.7018  151.3332 H   0  0  0  0  0  0  0  0  0  0  0  0  # atno 10167 bound_to 10162
  157.4495  130.8129  149.7774 H   0  0  0  0  0  0  0  0  0  0  0  0  # atno 10718 bound_to 10713
  153.3281  135.6973  153.6971 H   0  0  0  0  0  0  0  0  0  0  0  0  # atno 10763 bound_to 10752
  153.5785  135.3502  155.2866 H   0  0  0  0  0  0  0  0  0  0  0  0  # atno 10764 bound_to 10752
  154.8612  135.4289  154.2463 H   0  0  0  0  0  0  0  0  0  0  0  0  # atno 10765 bound_to 10752
  140.0187  134.6186  155.9672 H   0  0  0  0  0  0  0  0  0  0  0  0  # atno 11005 bound_to 11000
  145.8470  140.9549  143.0769 LP  0  0  0  0  0  0  0  0  0  0  0  0  # atno 17320 bound_to 7965
  144.6760  140.0358  143.7482 LP  0  0  0  0  0  0  0  0  0  0  0  0  # atno 17321 bound_to 7965
  140.7158  143.7269  150.7653 LP  0  0  0  0  0  0  0  0  0  0  0  0  # atno 17342 bound_to 10162
  140.0821  143.4959  152.2524 LP  0  0  0  0  0  0  0  0  0  0  0  0  # atno 17343 bound_to 10162
  155.9981  130.3896  150.2714 LP  0  0  0  0  0  0  0  0  0  0  0  0  # atno 17370 bound_to 10713
  157.0885  131.0163  151.3130 LP  0  0  0  0  0  0  0  0  0  0  0  0  # atno 17371 bound_to 10713
  141.1759  133.6540  156.4829 LP  0  0  0  0  0  0  0  0  0  0  0  0  # atno 17394 bound_to 11000
  140.4426  134.7002  157.4999 LP  0  0  0  0  0  0  0  0  0  0  0  0  # atno 17395 bound_to 11000

$$$$
