AV-unprocessed.smi:2795|AV-procd|sdf|10778|dock2
  -GOLD-   2272015213D 1   1.00000     0.00000
 Structure written by MMmdl.
 37 38  0  0  0  0  0  0  0  0  2 V2000
  147.6569  141.9267  154.4336 C   0  0  0  0  0  0  0  0  0  0  0  0
  148.3666  140.6795  154.1396 N   0  0  0  0  0  0  0  0  0  0  0  0
  147.8793  139.7670  153.2896 C   0  0  0  0  0  0  0  0  0  0  0  0
  148.7619  138.7667  153.2487 N   0  3  0  0  0  0  0  0  0  0  0  0
  149.8176  139.0394  154.0743 C   0  0  0  0  0  0  0  0  0  0  0  0
  149.5749  140.2638  154.6512 C   0  0  0  0  0  0  0  0  0  0  0  0
  150.3614  141.0805  155.6305 C   0  0  0  0  0  0  0  0  0  0  0  0
  150.6583  140.3253  156.9387 C   0  0  0  0  0  0  0  0  0  0  0  0
  151.2255  141.2088  157.9503 N   0  0  0  0  0  0  0  0  0  0  0  0
  152.4578  141.0972  158.4724 C   0  0  0  0  0  0  0  0  0  0  0  0
  153.2511  140.2210  158.1261 O   0  0  0  0  0  0  0  0  0  0  0  0
  152.8608  142.1436  159.5231 C   0  0  2  0  0  0  0  0  0  0  0  0
  153.1345  141.5181  160.9101 C   0  0  0  0  0  0  0  0  0  0  0  0
  153.4636  142.6063  161.9386 C   0  0  0  0  0  0  0  0  0  0  0  0
  152.3660  143.6749  161.9333 C   0  0  0  0  0  0  0  0  0  0  0  0
  152.1356  144.1948  160.5061 C   0  0  0  0  0  0  0  0  0  0  0  0
  151.8152  143.1106  159.6401 O   0  0  0  0  0  0  0  0  0  0  0  0
  146.6977  141.9466  153.9143 H   0  0  0  0  0  0  0  0  0  0  0  0
  148.2648  142.7694  154.1033 H   0  0  0  0  0  0  0  0  0  0  0  0
  147.4861  141.9971  155.5081 H   0  0  0  0  0  0  0  0  0  0  0  0
  146.9551  139.8249  152.7424 H   0  0  0  0  0  0  0  0  0  0  0  0
  150.6472  138.3568  154.1877 H   0  0  0  0  0  0  0  0  0  0  0  0
  151.2938  141.3856  155.1541 H   0  0  0  0  0  0  0  0  0  0  0  0
  149.8057  141.9932  155.8494 H   0  0  0  0  0  0  0  0  0  0  0  0
  149.7386  139.9018  157.3437 H   0  0  0  0  0  0  0  0  0  0  0  0
  151.3359  139.4891  156.7567 H   0  0  0  0  0  0  0  0  0  0  0  0
  150.6375  141.9567  158.2903 H   0  0  0  0  0  0  0  0  0  0  0  0
  153.7627  142.6380  159.1579 H   0  0  0  0  0  0  0  0  0  0  0  0
  152.2602  140.9567  161.2434 H   0  0  0  0  0  0  0  0  0  0  0  0
  153.9609  140.8081  160.8565 H   0  0  0  0  0  0  0  0  0  0  0  0
  153.5670  142.1717  162.9332 H   0  0  0  0  0  0  0  0  0  0  0  0
  154.4231  143.0642  161.6942 H   0  0  0  0  0  0  0  0  0  0  0  0
  151.4386  143.2511  162.3209 H   0  0  0  0  0  0  0  0  0  0  0  0
  152.6365  144.4971  162.5961 H   0  0  0  0  0  0  0  0  0  0  0  0
  151.3114  144.9082  160.4961 H   0  0  0  0  0  0  0  0  0  0  0  0
  153.0167  144.7212  160.1362 H   0  0  0  0  0  0  0  0  0  0  0  0
  148.6618  137.9300  152.6875 H   0  0  0  0  0  0  0  0  0  0  0  0
  1  2  1  0  0  0  0
  1 18  1  0  0  0  0
  1 19  1  0  0  0  0
  1 20  1  0  0  0  0
  2  6  1  0  0  0  0
  2  3  1  0  0  0  0
  3  4  2  0  0  0  0
  3 21  1  0  0  0  0
  4  5  1  0  0  0  0
  4 37  1  0  0  0  0
  5  6  2  0  0  0  0
  5 22  1  0  0  0  0
  6  7  1  0  0  0  0
  7  8  1  0  0  0  0
  7 23  1  0  0  0  0
  7 24  1  0  0  0  0
  8  9  1  0  0  0  0
  8 25  1  0  0  0  0
  8 26  1  0  0  0  0
  9 10  1  0  0  0  0
  9 27  1  0  0  0  0
 10 11  2  0  0  0  0
 10 12  1  0  0  0  0
 12 17  1  0  0  0  0
 12 13  1  0  0  0  0
 12 28  1  0  0  0  0
 13 14  1  0  0  0  0
 13 29  1  0  0  0  0
 13 30  1  0  0  0  0
 14 15  1  0  0  0  0
 14 31  1  0  0  0  0
 14 32  1  0  0  0  0
 15 16  1  0  0  0  0
 15 33  1  0  0  0  0
 15 34  1  0  0  0  0
 16 17  1  0  0  0  0
 16 35  1  0  0  0  0
 16 36  1  0  0  0  0
M  CHG  1   4   1
M  END
> <s_m_source_file>
AV-unprocessed.smi

> <i_m_source_file_index>
2795

> <i_lp_mmshare_version>
43012

> <i_f3d_flags>
0

> <s_epik_input>
W0NIM11uMVtjSF1uW2NIXWMxW0NIMl1bQ0gyXVtOSF1DKD1PKVtDQEBIXTJbQ0gyXVtDSDJdW0NIMl1bQ0gyXU8y

> <s_epik_cmdline>
J2VwaWtfcHl0aG9uJywgJy1waCcsICc3LjAnLCAnLXRuJywgJzgnLCAnLW1hJywgJzIwMCcsICctbWV0YWxfYmluZGluZycsICctaW1hZScsICc8aW5maWxlLm1hZT4nLCAnLW9tYWUnLCAnPG91dGZpbGUubWFlPic=

> <r_lp_tautomer_probability>
1

> <r_epik_Ionization_Penalty>
0.154825

> <r_epik_Ionization_Penalty_Charging>
0

> <r_epik_Ionization_Penalty_Neutral>
0.154825

> <r_epik_State_Penalty>
0.144119

> <r_epik_Charging_Adjusted_Penalty>
0.144119

> <i_epik_Tot_Q>
1

> <i_epik_Tot_abs_Q>
1

> <r_epik_Metal_State_Penalty>
0.465431

> <b_epik_Metal_Only>
0

> <s_lp_Force_Field>
OPLS_2005

> <r_lp_Energy>
10.1075

> <b_lp_Chiralities_Consistent>
1

> <s_lp_Variant>
AV-unprocessed.smi:2795-1

> <Gold.Version>
5.8.1

> <Gold.Id.Protein>
6NUR|6NUR_protein|mol2

> <Gold.PLP.Fitness>
48.1250

> <Gold.PLP.PLP>
-39.2457

> <Gold.PLP.part.hbond>
-3.0000

> <Gold.PLP.part.metal>
0.0000

> <Gold.PLP.part.buried>
-1.3672

> <Gold.PLP.part.nonpolar>
-34.4137

> <Gold.PLP.part.repulsive>
0.1434

> <Gold.PLP.ligand.clash>
0.0000

> <Gold.PLP.ligand.torsion>
0.0822

> <Gold.PLP.Chemscore.Hbond>
3.0000

> <Gold.PLP.Chemscore.CHOScore>
0.0000

> <Gold.PLP.Chemscore.Metal>
0.0000

> <Gold.Chemscore.Hbonds>
donor molecule, donor type, donor heavy atom, donor atom, acceptor molecule, acceptor atom, score
      L1  H     4    37       P1  7948  2.00
      P1  H  7997  8008       L1    11  0.93

> <Gold.PLP.Chemscore.Internal.Correction>
0.0437

> <Gold.Rescore>
     Score         DG    S(hbond)    S(metal)    S(lipo)     H(rot)  DE(clash)    DE(int)     intcor
     17.31     -17.43       1.95        0.00      86.38       1.82       0.03       0.09       ----

> <Gold.Chemscore.Fitness>
17.3127

> <Gold.Chemscore.DG>
-17.4324

> <Gold.Chemscore.ZeroCoef>
-5.4800

> <Gold.Chemscore.Hbond>
1.9497

> <Gold.Chemscore.Metal>
0.0000

> <Gold.Chemscore.Lipo>
86.3821

> <Gold.Chemscore.Internal_Hbond>
0.0000

> <Gold.Chemscore.DEClash>
0.0331

> <Gold.Chemscore.DEInternal>
0.0866

> <Gold.Chemscore.Rot>
1.8227

> <Gold.Chemscore.Internal.Correction>
   9.000000E+99

> <Gold.Chemscore.Hbonds>
donor molecule, donor type, donor heavy atom, donor atom, acceptor molecule, acceptor atom, score
      L1  H     4    37       P1  7948  1.00
      P1  H  7997  8008       L1    11  0.91

> <Gold.Chemscore.Hbond.Weighted>
-6.5119

> <Gold.Chemscore.Metal.Weighted>
-0.0000

> <Gold.Chemscore.Lipo.Weighted>
-10.1067

> <Gold.Chemscore.Internal_Hbond.Weighted>
0.0000

> <Gold.Chemscore.DEClash.Weighted>
0.0331

> <Gold.Chemscore.DEInternal.Weighted>
0.0866

> <Gold.Chemscore.Rot.Weighted>
4.6662

> <Gold.Chemscore.Internal.Correction.Weighted>
   9.000000E+99

> <Gold.Protein.RotatedTorsions>
[ 6907 6896 6895 6894 ] final  -44.21 input  -60.11 | X-H torsion
[ 7974 7965 7964 7962 ] final   42.72 input  175.53 | X-H torsion
[ 8008 7997 7996 7995 ] final  -88.47 input   59.86 | X-H torsion
[ 10167 10162 10161 10158 ] final  158.54 input  -65.29 | X-H torsion
[ 10718 10713 10712 10709 ] final   56.73 input   66.30 | X-H torsion
[ 10763 10752 10751 10750 ] final  -31.97 input  -60.55 | X-H torsion
[ 11005 11000 10999 10996 ] final   39.56 input  -57.11 | X-H torsion

> <Gold.Protein.ActiveResidues>
 VAL166  LYS551  ARG553  GLY616  TRP617  ASP618  TYR619  PRO620  LYS621  CYS622 
 ASP623  PHE694  ASN695  SER759  ASP760  ASP761  ALA762  ILE779  LEU786  VAL792 
 PHE793  MET794  SER795  GLU796  ALA797  LYS798  CYS799  TRP800  GLU811  SER814 

> <Gold.Protein.RotatedAtoms>
  150.9353  134.8766  159.7577 H   0  0  0  0  0  0  0  0  0  0  0  0  # atno 6907 bound_to 6896
  152.5056  134.4020  159.9429 H   0  0  0  0  0  0  0  0  0  0  0  0  # atno 6908 bound_to 6896
  151.4044  133.3707  159.2771 H   0  0  0  0  0  0  0  0  0  0  0  0  # atno 6909 bound_to 6896
  146.0716  139.5268  142.9594 H   0  0  0  0  0  0  0  0  0  0  0  0  # atno 7974 bound_to 7965
  154.6752  140.0553  157.0208 H   0  0  0  0  0  0  0  0  0  0  0  0  # atno 8008 bound_to 7997
  155.1031  140.3231  155.4523 H   0  0  0  0  0  0  0  0  0  0  0  0  # atno 8009 bound_to 7997
  156.2673  140.2027  156.6156 H   0  0  0  0  0  0  0  0  0  0  0  0  # atno 8010 bound_to 7997
  139.4827  144.4814  151.8438 H   0  0  0  0  0  0  0  0  0  0  0  0  # atno 10167 bound_to 10162
  157.5456  130.8728  149.8886 H   0  0  0  0  0  0  0  0  0  0  0  0  # atno 10718 bound_to 10713
  153.8061  135.6886  153.4848 H   0  0  0  0  0  0  0  0  0  0  0  0  # atno 10763 bound_to 10752
  153.1658  135.4562  154.9833 H   0  0  0  0  0  0  0  0  0  0  0  0  # atno 10764 bound_to 10752
  154.7986  135.3329  154.7546 H   0  0  0  0  0  0  0  0  0  0  0  0  # atno 10765 bound_to 10752
  140.2016  134.3864  155.8093 H   0  0  0  0  0  0  0  0  0  0  0  0  # atno 11005 bound_to 11000
  145.6380  141.0290  143.1827 LP  0  0  0  0  0  0  0  0  0  0  0  0  # atno 17320 bound_to 7965
  144.7235  139.7950  143.7373 LP  0  0  0  0  0  0  0  0  0  0  0  0  # atno 17321 bound_to 7965
  140.4291  144.2140  150.5887 LP  0  0  0  0  0  0  0  0  0  0  0  0  # atno 17342 bound_to 10162
  140.4798  143.2383  151.8972 LP  0  0  0  0  0  0  0  0  0  0  0  0  # atno 17343 bound_to 10162
  156.0532  130.3713  150.1151 LP  0  0  0  0  0  0  0  0  0  0  0  0  # atno 17370 bound_to 10713
  156.9328  130.9719  151.3530 LP  0  0  0  0  0  0  0  0  0  0  0  0  # atno 17371 bound_to 10713
  141.2227  133.7097  156.8267 LP  0  0  0  0  0  0  0  0  0  0  0  0  # atno 17394 bound_to 11000
  140.2048  134.8870  157.3209 LP  0  0  0  0  0  0  0  0  0  0  0  0  # atno 17395 bound_to 11000

$$$$
