AV-unprocessed.smi:2504|AV-procd|sdf|9851|dock1
  -GOLD-   2272013483D 1   1.00000     0.00000
 Structure written by MMmdl.
 45 47  0  0  0  0  0  0  0  0  2 V2000
  150.1792  143.0121  158.1616 O   0  0  0  0  0  0  0  0  0  0  0  0
  151.1921  142.3171  158.2549 C   0  0  0  0  0  0  0  0  0  0  0  0
  152.5284  142.9132  158.7546 C   0  0  0  0  0  0  0  0  0  0  0  0
  152.9019  142.4890  160.1854 C   0  0  0  0  0  0  0  0  0  0  0  0
  152.1920  143.4812  161.1164 C   0  0  0  0  0  0  0  0  0  0  0  0
  151.9005  144.7298  160.2701 C   0  0  0  0  0  0  0  0  0  0  0  0
  152.4661  144.4439  158.8727 C   0  0  0  0  0  0  0  0  0  0  0  0
  151.1567  140.9452  157.9867 N   0  0  0  0  0  0  0  0  0  0  0  0
  150.3855  140.3959  156.8809 C   0  0  0  0  0  0  0  0  0  0  0  0
  151.4301  139.2747  156.8567 C   0  0  0  0  0  0  0  0  0  0  0  0
  151.9949  138.8573  155.1464 S   0  0  0  0  0  0  0  0  0  0  0  0
  151.0046  139.4542  154.2359 O   0  0  0  0  0  0  0  0  0  0  0  0
  153.3785  139.3483  155.0302 O   0  0  0  0  0  0  0  0  0  0  0  0
  151.8856  137.2389  155.1904 N   0  5  0  0  0  0  0  0  0  0  0  0
  150.8739  136.6054  156.0219 C   0  0  0  0  0  0  0  0  0  0  0  0
  149.8003  135.9190  155.1453 C   0  0  0  0  0  0  0  0  0  0  0  0
  149.8764  134.3964  155.0991 C   0  0  0  0  0  0  0  0  0  0  0  0
  149.1804  133.6562  154.1182 C   0  0  0  0  0  0  0  0  0  0  0  0
  149.2946  132.2528  154.1163 C   0  0  0  0  0  0  0  0  0  0  0  0
  150.0982  131.6444  155.1009 C   0  0  0  0  0  0  0  0  0  0  0  0
  150.7589  132.3373  156.0526 N   0  0  0  0  0  0  0  0  0  0  0  0
  150.6463  133.6828  156.0452 C   0  0  0  0  0  0  0  0  0  0  0  0
  152.3647  140.2144  157.6336 C   0  0  0  0  0  0  0  0  0  0  0  0
  153.3197  142.6094  158.0691 H   0  0  0  0  0  0  0  0  0  0  0  0
  152.6544  141.4521  160.4175 H   0  0  0  0  0  0  0  0  0  0  0  0
  153.9811  142.5861  160.3116 H   0  0  0  0  0  0  0  0  0  0  0  0
  151.2561  143.0542  161.4795 H   0  0  0  0  0  0  0  0  0  0  0  0
  152.8039  143.7131  161.9886 H   0  0  0  0  0  0  0  0  0  0  0  0
  150.8230  144.8900  160.2117 H   0  0  0  0  0  0  0  0  0  0  0  0
  152.3407  145.6291  160.7018 H   0  0  0  0  0  0  0  0  0  0  0  0
  153.4759  144.8491  158.7974 H   0  0  0  0  0  0  0  0  0  0  0  0
  151.8750  144.9214  158.0899 H   0  0  0  0  0  0  0  0  0  0  0  0
  149.3804  140.0730  157.1529 H   0  0  0  0  0  0  0  0  0  0  0  0
  150.4010  141.0190  155.9844 H   0  0  0  0  0  0  0  0  0  0  0  0
  151.1206  138.3870  157.4105 H   0  0  0  0  0  0  0  0  0  0  0  0
  151.3229  135.8499  156.6674 H   0  0  0  0  0  0  0  0  0  0  0  0
  150.3882  137.3105  156.6976 H   0  0  0  0  0  0  0  0  0  0  0  0
  148.8063  136.2120  155.4864 H   0  0  0  0  0  0  0  0  0  0  0  0
  149.8833  136.2929  154.1242 H   0  0  0  0  0  0  0  0  0  0  0  0
  148.5771  134.1559  153.3745 H   0  0  0  0  0  0  0  0  0  0  0  0
  148.7825  131.6572  153.3754 H   0  0  0  0  0  0  0  0  0  0  0  0
  150.2094  130.5705  155.1276 H   0  0  0  0  0  0  0  0  0  0  0  0
  151.1958  134.2078  156.8130 H   0  0  0  0  0  0  0  0  0  0  0  0
  153.0515  140.7929  157.0139 H   0  0  0  0  0  0  0  0  0  0  0  0
  152.8647  139.7504  158.4839 H   0  0  0  0  0  0  0  0  0  0  0  0
  1  2  2  0  0  0  0
  2  3  1  0  0  0  0
  2  8  1  0  0  0  0
  3  7  1  0  0  0  0
  3  4  1  0  0  0  0
  3 24  1  0  0  0  0
  4  5  1  0  0  0  0
  4 25  1  0  0  0  0
  4 26  1  0  0  0  0
  5  6  1  0  0  0  0
  5 27  1  0  0  0  0
  5 28  1  0  0  0  0
  6  7  1  0  0  0  0
  6 29  1  0  0  0  0
  6 30  1  0  0  0  0
  7 31  1  0  0  0  0
  7 32  1  0  0  0  0
  8 23  1  0  0  0  0
  8  9  1  0  0  0  0
  9 10  1  0  0  0  0
  9 33  1  0  0  0  0
  9 34  1  0  0  0  0
 10 11  1  0  0  0  0
 10 23  1  0  0  0  0
 10 35  1  0  0  0  0
 11 12  2  0  0  0  0
 11 13  2  0  0  0  0
 11 14  1  0  0  0  0
 14 15  1  0  0  0  0
 15 16  1  0  0  0  0
 15 36  1  0  0  0  0
 15 37  1  0  0  0  0
 16 17  1  0  0  0  0
 16 38  1  0  0  0  0
 16 39  1  0  0  0  0
 17 22  1  0  0  0  0
 17 18  2  0  0  0  0
 18 19  1  0  0  0  0
 18 40  1  0  0  0  0
 19 20  2  0  0  0  0
 19 41  1  0  0  0  0
 20 21  1  0  0  0  0
 20 42  1  0  0  0  0
 21 22  2  0  0  0  0
 22 43  1  0  0  0  0
 23 44  1  0  0  0  0
 23 45  1  0  0  0  0
M  CHG  1  14  -1
M  END
> <s_m_source_file>
AV-unprocessed.smi

> <i_m_source_file_index>
2504

> <i_lp_mmshare_version>
43012

> <i_f3d_flags>
0

> <s_epik_input>
W0NIMl0xW0NIMl1bQ0gyXVtDSDJdW0NIXTFDKD1PKU4yW0NIMl1bQ0hdKFtDSDJdMilTKD1PKSg9TylbTkhdW0NIMl1bQ0gyXWMzW2NIXVtjSF1bY0hdbltjSF0z

> <s_epik_cmdline>
J2VwaWtfcHl0aG9uJywgJy1waCcsICc3LjAnLCAnLXRuJywgJzgnLCAnLW1hJywgJzIwMCcsICctbWV0YWxfYmluZGluZycsICctaW1hZScsICc8aW5maWxlLm1hZT4nLCAnLW9tYWUnLCAnPG91dGZpbGUubWFlPic=

> <r_epik_Ionization_Penalty>
5.82897

> <r_epik_Ionization_Penalty_Charging>
5.8024

> <r_epik_Ionization_Penalty_Neutral>
0.0265674

> <r_epik_State_Penalty>
5.81059

> <r_epik_Charging_Adjusted_Penalty>
11.613

> <i_epik_Tot_Q>
-1

> <i_epik_Tot_abs_Q>
1

> <r_epik_Metal_State_Penalty>
1.79017

> <b_epik_Metal_Only>
1

> <s_lp_Force_Field>
OPLS_2005

> <r_lp_Energy>
30.9789

> <b_lp_Chiralities_Consistent>
1

> <s_lp_Variant>
AV-unprocessed.smi:2504-3

> <Gold.Version>
5.8.1

> <Gold.Id.Protein>
6NUR|6NUR_protein|mol2

> <Gold.PLP.Fitness>
59.3976

> <Gold.PLP.PLP>
-49.2432

> <Gold.PLP.part.hbond>
-3.0580

> <Gold.PLP.part.metal>
0.0000

> <Gold.PLP.part.buried>
-5.5224

> <Gold.PLP.part.nonpolar>
-41.2966

> <Gold.PLP.part.repulsive>
0.3938

> <Gold.PLP.ligand.clash>
0.0000

> <Gold.PLP.ligand.torsion>
2.0781

> <Gold.PLP.Chemscore.Hbond>
3.8880

> <Gold.PLP.Chemscore.CHOScore>
0.0000

> <Gold.PLP.Chemscore.Metal>
0.0000

> <Gold.Chemscore.Hbonds>
donor molecule, donor type, donor heavy atom, donor atom, acceptor molecule, acceptor atom, score
      P1  H  7989  7998       L1    12  1.00
      P1  H  7997  8008       L1    13  1.00
      P1  H 10752 10763       L1    14  1.84

> <Gold.PLP.Chemscore.Internal.Correction>
2.6466

> <Gold.Rescore>
     Score         DG    S(hbond)    S(metal)    S(lipo)     H(rot)  DE(clash)    DE(int)     intcor
     21.52     -23.65       2.76        0.00     111.85       1.61       0.05       2.08       ----

> <Gold.Chemscore.Fitness>
21.5221

> <Gold.Chemscore.DG>
-23.6515

> <Gold.Chemscore.ZeroCoef>
-5.4800

> <Gold.Chemscore.Hbond>
2.7573

> <Gold.Chemscore.Metal>
0.0000

> <Gold.Chemscore.Lipo>
111.8507

> <Gold.Chemscore.Internal_Hbond>
0.0000

> <Gold.Chemscore.DEClash>
0.0518

> <Gold.Chemscore.DEInternal>
2.0776

> <Gold.Chemscore.Rot>
1.6110

> <Gold.Chemscore.Internal.Correction>
   9.000000E+99

> <Gold.Chemscore.Hbonds>
donor molecule, donor type, donor heavy atom, donor atom, acceptor molecule, acceptor atom, score
      P1  H  7989  7998       L1    12  0.78
      P1  H  7997  8008       L1    13  0.96
      P1  H 10752 10763       L1    14  0.25

> <Gold.Chemscore.Hbond.Weighted>
-9.2093

> <Gold.Chemscore.Metal.Weighted>
-0.0000

> <Gold.Chemscore.Lipo.Weighted>
-13.0865

> <Gold.Chemscore.Internal_Hbond.Weighted>
0.0000

> <Gold.Chemscore.DEClash.Weighted>
0.0518

> <Gold.Chemscore.DEInternal.Weighted>
2.0776

> <Gold.Chemscore.Rot.Weighted>
4.1243

> <Gold.Chemscore.Internal.Correction.Weighted>
   9.000000E+99

> <Gold.Protein.RotatedTorsions>
[ 6907 6896 6895 6894 ] final  -78.51 input  -60.11 | X-H torsion
[ 7974 7965 7964 7962 ] final   92.56 input  175.53 | X-H torsion
[ 8008 7997 7996 7995 ] final  -29.73 input   59.86 | X-H torsion
[ 10167 10162 10161 10158 ] final  -79.50 input  -65.29 | X-H torsion
[ 10718 10713 10712 10709 ] final  -24.16 input   66.30 | X-H torsion
[ 10763 10752 10751 10750 ] final   57.18 input  -60.55 | X-H torsion
[ 11005 11000 10999 10996 ] final    5.51 input  -57.11 | X-H torsion

> <Gold.Protein.ActiveResidues>
 VAL166  LYS551  ARG553  GLY616  TRP617  ASP618  TYR619  PRO620  LYS621  CYS622 
 ASP623  PHE694  ASN695  SER759  ASP760  ASP761  ALA762  ILE779  LEU786  VAL792 
 PHE793  MET794  SER795  GLU796  ALA797  LYS798  CYS799  TRP800  GLU811  SER814 

> <Gold.Protein.RotatedAtoms>
  150.6971  134.4262  159.5227 H   0  0  0  0  0  0  0  0  0  0  0  0  # atno 6907 bound_to 6896
  152.1996  134.8597  160.0518 H   0  0  0  0  0  0  0  0  0  0  0  0  # atno 6908 bound_to 6896
  151.9522  133.3634  159.4041 H   0  0  0  0  0  0  0  0  0  0  0  0  # atno 6909 bound_to 6896
  145.4906  139.2276  143.2832 H   0  0  0  0  0  0  0  0  0  0  0  0  # atno 7974 bound_to 7965
  154.4278  140.1810  156.1295 H   0  0  0  0  0  0  0  0  0  0  0  0  # atno 8008 bound_to 7997
  156.0079  140.3353  155.6886 H   0  0  0  0  0  0  0  0  0  0  0  0  # atno 8009 bound_to 7997
  155.6152  140.0654  157.2685 H   0  0  0  0  0  0  0  0  0  0  0  0  # atno 8010 bound_to 7997
  140.4587  143.2460  151.8381 H   0  0  0  0  0  0  0  0  0  0  0  0  # atno 10167 bound_to 10162
  156.4813  130.4546  149.6810 H   0  0  0  0  0  0  0  0  0  0  0  0  # atno 10718 bound_to 10713
  152.9845  135.5650  154.5349 H   0  0  0  0  0  0  0  0  0  0  0  0  # atno 10763 bound_to 10752
  154.4814  135.2789  155.1570 H   0  0  0  0  0  0  0  0  0  0  0  0  # atno 10764 bound_to 10752
  154.3077  135.6294  153.5505 H   0  0  0  0  0  0  0  0  0  0  0  0  # atno 10765 bound_to 10752
  140.5699  134.0112  155.8004 H   0  0  0  0  0  0  0  0  0  0  0  0  # atno 11005 bound_to 11000
  146.2286  140.5700  142.8985 LP  0  0  0  0  0  0  0  0  0  0  0  0  # atno 17320 bound_to 7965
  144.7836  140.5890  143.6589 LP  0  0  0  0  0  0  0  0  0  0  0  0  # atno 17321 bound_to 7965
  139.4804  144.5033  151.9031 LP  0  0  0  0  0  0  0  0  0  0  0  0  # atno 17342 bound_to 10162
  140.4119  144.2357  150.5888 LP  0  0  0  0  0  0  0  0  0  0  0  0  # atno 17343 bound_to 10162
  156.3519  130.7436  151.2397 LP  0  0  0  0  0  0  0  0  0  0  0  0  # atno 17370 bound_to 10713
  157.7483  131.0375  150.4457 LP  0  0  0  0  0  0  0  0  0  0  0  0  # atno 17371 bound_to 10713
  141.1062  133.9689  157.2992 LP  0  0  0  0  0  0  0  0  0  0  0  0  # atno 17394 bound_to 11000
  139.9367  135.0196  156.8577 LP  0  0  0  0  0  0  0  0  0  0  0  0  # atno 17395 bound_to 11000

$$$$
