AV-unprocessed.smi:2448|AV-procd|sdf|9656|dock9
  -GOLD-   2272013293D 1   1.00000     0.00000
 Structure written by MMmdl.
 38 39  0  0  0  0  0  0  0  0  2 V2000
  143.8876  138.0608  152.4383 O   0  0  0  0  0  0  0  0  0  0  0  0
  144.9717  137.2226  152.8000 C   0  0  2  0  0  0  0  0  0  0  0  0
  146.2481  138.0842  152.8651 C   0  0  0  0  0  0  0  0  0  0  0  0
  146.0771  139.2539  153.7559 N   0  3  0  0  0  0  0  0  0  0  0  0
  147.3278  139.9596  154.1228 C   0  0  2  0  0  0  0  0  0  0  0  0
  148.0906  139.1951  155.2286 C   0  0  0  0  0  0  0  0  0  0  0  0
  149.5949  139.3909  155.1757 C   0  0  0  0  0  0  0  0  0  0  0  0
  150.2344  140.3030  156.0408 C   0  0  0  0  0  0  0  0  0  0  0  0
  151.6364  140.4275  155.9681 C   0  0  0  0  0  0  0  0  0  0  0  0
  152.3996  139.7158  155.1116 N   0  0  0  0  0  0  0  0  0  0  0  0
  151.7802  138.8503  154.2806 C   0  0  0  0  0  0  0  0  0  0  0  0
  150.3851  138.6499  154.2732 C   0  0  0  0  0  0  0  0  0  0  0  0
  147.0021  141.4028  154.5532 C   0  0  0  0  0  0  0  0  0  0  0  0
  148.1330  142.0588  154.8144 F   0  0  0  0  0  0  0  0  0  0  0  0
  146.3455  142.0453  153.5869 F   0  0  0  0  0  0  0  0  0  0  0  0
  146.2558  141.3978  155.6573 F   0  0  0  0  0  0  0  0  0  0  0  0
  145.0797  136.1080  151.7463 C   0  0  0  0  0  0  0  0  0  0  0  0
  143.9252  135.1277  151.9788 C   0  0  0  0  0  0  0  0  0  0  0  0
  143.6065  135.0712  153.7597 S   0  0  0  0  0  0  0  0  0  0  0  0
  144.6523  136.5053  154.1241 C   0  0  0  0  0  0  0  0  0  0  0  0
  143.9832  138.3072  151.5306 H   0  0  0  0  0  0  0  0  0  0  0  0
  147.0802  137.4756  153.2186 H   0  0  0  0  0  0  0  0  0  0  0  0
  146.5182  138.4330  151.8672 H   0  0  0  0  0  0  0  0  0  0  0  0
  145.4788  139.9105  153.2741 H   0  0  0  0  0  0  0  0  0  0  0  0
  147.9668  140.0264  153.2402 H   0  0  0  0  0  0  0  0  0  0  0  0
  147.7474  139.5231  156.2104 H   0  0  0  0  0  0  0  0  0  0  0  0
  147.8652  138.1294  155.1725 H   0  0  0  0  0  0  0  0  0  0  0  0
  149.6706  140.8921  156.7493 H   0  0  0  0  0  0  0  0  0  0  0  0
  152.1585  141.1126  156.6195 H   0  0  0  0  0  0  0  0  0  0  0  0
  152.4150  138.2972  153.6045 H   0  0  0  0  0  0  0  0  0  0  0  0
  149.9372  137.9408  153.5922 H   0  0  0  0  0  0  0  0  0  0  0  0
  145.0805  136.4964  150.7270 H   0  0  0  0  0  0  0  0  0  0  0  0
  146.0219  135.5744  151.8808 H   0  0  0  0  0  0  0  0  0  0  0  0
  143.0223  135.4858  151.4836 H   0  0  0  0  0  0  0  0  0  0  0  0
  144.1449  134.1339  151.5882 H   0  0  0  0  0  0  0  0  0  0  0  0
  145.5697  136.1235  154.5725 H   0  0  0  0  0  0  0  0  0  0  0  0
  144.1792  137.1592  154.8574 H   0  0  0  0  0  0  0  0  0  0  0  0
  145.6096  138.9637  154.6028 H   0  0  0  0  0  0  0  0  0  0  0  0
  1  2  1  0  0  0  0
  1 21  1  0  0  0  0
  2 20  1  0  0  0  0
  2  3  1  0  0  0  0
  2 17  1  0  0  0  0
  3  4  1  0  0  0  0
  3 22  1  0  0  0  0
  3 23  1  0  0  0  0
  4  5  1  0  0  0  0
  4 24  1  0  0  0  0
  4 38  1  0  0  0  0
  5  6  1  0  0  0  0
  5 13  1  0  0  0  0
  5 25  1  0  0  0  0
  6  7  1  0  0  0  0
  6 26  1  0  0  0  0
  6 27  1  0  0  0  0
  7 12  1  0  0  0  0
  7  8  2  0  0  0  0
  8  9  1  0  0  0  0
  8 28  1  0  0  0  0
  9 10  2  0  0  0  0
  9 29  1  0  0  0  0
 10 11  1  0  0  0  0
 11 12  2  0  0  0  0
 11 30  1  0  0  0  0
 12 31  1  0  0  0  0
 13 14  1  0  0  0  0
 13 15  1  0  0  0  0
 13 16  1  0  0  0  0
 17 18  1  0  0  0  0
 17 32  1  0  0  0  0
 17 33  1  0  0  0  0
 18 19  1  0  0  0  0
 18 34  1  0  0  0  0
 18 35  1  0  0  0  0
 19 20  1  0  0  0  0
 20 36  1  0  0  0  0
 20 37  1  0  0  0  0
M  CHG  1   4   1
M  END
> <s_m_source_file>
AV-unprocessed.smi

> <i_m_source_file_index>
2448

> <i_lp_mmshare_version>
43012

> <i_f3d_flags>
0

> <s_epik_input>
W0NIMl0xU1tDSDJdW0NIMl1bQ0BAXTEoW09IXSlbQ0gyXVtOSF1bQ0BASF0oQyhGKShGKUYpW0NIMl1jMltjSF1bY0hdbltjSF1bY0hdMg==

> <s_epik_cmdline>
J2VwaWtfcHl0aG9uJywgJy1waCcsICc3LjAnLCAnLXRuJywgJzgnLCAnLW1hJywgJzIwMCcsICctbWV0YWxfYmluZGluZycsICctaW1hZScsICc8aW5maWxlLm1hZT4nLCAnLW9tYWUnLCAnPG91dGZpbGUubWFlPic=

> <r_epik_Ionization_Penalty>
1.19945

> <r_epik_Ionization_Penalty_Charging>
1.19892

> <r_epik_Ionization_Penalty_Neutral>
0.000532129

> <r_epik_State_Penalty>
0.752927

> <r_epik_Charging_Adjusted_Penalty>
1.95185

> <i_epik_Tot_Q>
1

> <i_epik_Tot_abs_Q>
1

> <r_epik_Metal_State_Penalty>
0.804507

> <b_epik_Metal_Only>
0

> <s_lp_Force_Field>
OPLS_2005

> <r_lp_Energy>
23.2993

> <b_lp_Chiralities_Consistent>
1

> <s_lp_Variant>
AV-unprocessed.smi:2448-6

> <Gold.Version>
5.8.1

> <Gold.Id.Protein>
6NUR|6NUR_protein|mol2

> <Gold.PLP.Fitness>
40.9881

> <Gold.PLP.PLP>
-31.7447

> <Gold.PLP.part.hbond>
-3.7632

> <Gold.PLP.part.metal>
0.0000

> <Gold.PLP.part.buried>
-3.7882

> <Gold.PLP.part.nonpolar>
-25.3294

> <Gold.PLP.part.repulsive>
0.0022

> <Gold.PLP.ligand.clash>
0.0000

> <Gold.PLP.ligand.torsion>
0.9092

> <Gold.PLP.Chemscore.Hbond>
3.5040

> <Gold.PLP.Chemscore.CHOScore>
0.0000

> <Gold.PLP.Chemscore.Metal>
0.0000

> <Gold.Chemscore.Hbonds>
donor molecule, donor type, donor heavy atom, donor atom, acceptor molecule, acceptor atom, score
      L1  H     1    21       P1 10171  1.00
      L1  H     4    24       P1 10175  1.92
      P1  H  7997  8010       L1    10  0.44

> <Gold.PLP.Chemscore.Internal.Correction>
0.5499

> <Gold.Rescore>
     Score         DG    S(hbond)    S(metal)    S(lipo)     H(rot)  DE(clash)    DE(int)     intcor
     14.04     -15.88       2.48        0.00      70.20       2.39       0.66       1.17       ----

> <Gold.Chemscore.Fitness>
14.0434

> <Gold.Chemscore.DG>
-15.8795

> <Gold.Chemscore.ZeroCoef>
-5.4800

> <Gold.Chemscore.Hbond>
2.4839

> <Gold.Chemscore.Metal>
0.0000

> <Gold.Chemscore.Lipo>
70.1965

> <Gold.Chemscore.Internal_Hbond>
0.0000

> <Gold.Chemscore.DEClash>
0.6644

> <Gold.Chemscore.DEInternal>
1.1717

> <Gold.Chemscore.Rot>
2.3866

> <Gold.Chemscore.Internal.Correction>
   9.000000E+99

> <Gold.Chemscore.Hbonds>
donor molecule, donor type, donor heavy atom, donor atom, acceptor molecule, acceptor atom, score
      L1  H     1    21       P1 10171  0.99
      L1  H     4    24       P1 10175  0.88
      P1  H  7997  8010       L1    10  0.09

> <Gold.Chemscore.Hbond.Weighted>
-8.2962

> <Gold.Chemscore.Metal.Weighted>
-0.0000

> <Gold.Chemscore.Lipo.Weighted>
-8.2130

> <Gold.Chemscore.Internal_Hbond.Weighted>
0.0000

> <Gold.Chemscore.DEClash.Weighted>
0.6644

> <Gold.Chemscore.DEInternal.Weighted>
1.1717

> <Gold.Chemscore.Rot.Weighted>
6.1096

> <Gold.Chemscore.Internal.Correction.Weighted>
   9.000000E+99

> <Gold.Protein.RotatedTorsions>
[ 6907 6896 6895 6894 ] final -147.01 input  -60.11 | X-H torsion
[ 7974 7965 7964 7962 ] final   -8.14 input  175.53 | X-H torsion
[ 8008 7997 7996 7995 ] final   94.51 input   59.86 | X-H torsion
[ 10167 10162 10161 10158 ] final -138.91 input  -65.29 | X-H torsion
[ 10718 10713 10712 10709 ] final -102.48 input   66.30 | X-H torsion
[ 10763 10752 10751 10750 ] final  -54.94 input  -60.55 | X-H torsion
[ 11005 11000 10999 10996 ] final -154.37 input  -57.11 | X-H torsion

> <Gold.Protein.ActiveResidues>
 VAL166  LYS551  ARG553  GLY616  TRP617  ASP618  TYR619  PRO620  LYS621  CYS622 
 ASP623  PHE694  ASN695  SER759  ASP760  ASP761  ALA762  ILE779  LEU786  VAL792 
 PHE793  MET794  SER795  GLU796  ALA797  LYS798  CYS799  TRP800  GLU811  SER814 

> <Gold.Protein.RotatedAtoms>
  151.1497  133.4916  159.2595 H   0  0  0  0  0  0  0  0  0  0  0  0  # atno 6907 bound_to 6896
  151.1567  135.0253  159.8702 H   0  0  0  0  0  0  0  0  0  0  0  0  # atno 6908 bound_to 6896
  152.5463  134.1375  159.8518 H   0  0  0  0  0  0  0  0  0  0  0  0  # atno 6909 bound_to 6896
  146.2288  140.2424  142.8344 H   0  0  0  0  0  0  0  0  0  0  0  0  # atno 7974 bound_to 7965
  156.0587  140.3299  155.7436 H   0  0  0  0  0  0  0  0  0  0  0  0  # atno 8008 bound_to 7997
  155.5488  140.0608  157.2872 H   0  0  0  0  0  0  0  0  0  0  0  0  # atno 8009 bound_to 7997
  154.4471  140.1898  156.0654 H   0  0  0  0  0  0  0  0  0  0  0  0  # atno 8010 bound_to 7997
  139.8432  143.7295  152.2662 H   0  0  0  0  0  0  0  0  0  0  0  0  # atno 10167 bound_to 10162
  156.0230  130.5422  150.7114 H   0  0  0  0  0  0  0  0  0  0  0  0  # atno 10718 bound_to 10713
  154.1828  135.6440  153.5039 H   0  0  0  0  0  0  0  0  0  0  0  0  # atno 10763 bound_to 10752
  153.0054  135.5410  154.6496 H   0  0  0  0  0  0  0  0  0  0  0  0  # atno 10764 bound_to 10752
  154.5865  135.2930  155.0652 H   0  0  0  0  0  0  0  0  0  0  0  0  # atno 10765 bound_to 10752
  140.6980  134.3968  157.5212 H   0  0  0  0  0  0  0  0  0  0  0  0  # atno 11005 bound_to 11000
  144.9474  140.8142  143.5593 LP  0  0  0  0  0  0  0  0  0  0  0  0  # atno 17320 bound_to 7965
  145.2382  139.2084  143.5007 LP  0  0  0  0  0  0  0  0  0  0  0  0  # atno 17321 bound_to 7965
  139.7538  144.7526  151.0466 LP  0  0  0  0  0  0  0  0  0  0  0  0  # atno 17342 bound_to 10162
  140.7796  143.4829  150.9995 LP  0  0  0  0  0  0  0  0  0  0  0  0  # atno 17343 bound_to 10162
  157.4751  131.0897  151.0599 LP  0  0  0  0  0  0  0  0  0  0  0  0  # atno 17370 bound_to 10713
  157.1048  130.5997  149.5468 LP  0  0  0  0  0  0  0  0  0  0  0  0  # atno 17371 bound_to 10713
  139.8904  134.8804  156.2369 LP  0  0  0  0  0  0  0  0  0  0  0  0  # atno 17394 bound_to 11000
  141.0187  133.7054  156.1231 LP  0  0  0  0  0  0  0  0  0  0  0  0  # atno 17395 bound_to 11000

$$$$
