AV-unprocessed.smi:843|AV-procd|sdf|3922|dock9
  -GOLD-   22720 1383D 1   1.00000     0.00000
 Structure written by MMmdl.
 46 47  0  0  0  0  0  0  0  0  2 V2000
  144.7888  131.3072  150.7264 C   0  0  0  0  0  0  0  0  0  0  0  0
  143.6416  132.1443  150.1414 C   0  0  0  0  0  0  0  0  0  0  0  0
  143.5629  133.5042  150.7328 N   0  3  2  0  0  0  0  0  0  0  0  0
  144.8189  134.2727  150.5308 C   0  0  0  0  0  0  0  0  0  0  0  0
  144.6851  135.7189  151.0441 C   0  0  0  0  0  0  0  0  0  0  0  0
  144.2531  135.7772  152.5213 C   0  0  2  0  0  0  0  0  0  0  0  0
  145.4036  135.3888  153.4806 C   0  0  0  0  0  0  0  0  0  0  0  0
  146.5483  136.2889  153.3693 N   0  0  0  0  0  0  0  0  0  0  0  0
  146.7240  137.4160  154.0745 C   0  0  0  0  0  0  0  0  0  0  0  0
  145.9249  137.8170  154.9199 O   0  0  0  0  0  0  0  0  0  0  0  0
  147.8724  138.0253  153.7333 N   0  0  0  0  0  0  0  0  0  0  0  0
  148.4143  139.2541  154.2054 C   0  0  0  0  0  0  0  0  0  0  0  0
  147.6445  140.4159  154.4600 C   0  0  0  0  0  0  0  0  0  0  0  0
  148.2930  141.5808  154.9093 C   0  0  0  0  0  0  0  0  0  0  0  0
  149.6883  141.5477  155.0821 C   0  0  0  0  0  0  0  0  0  0  0  0
  150.4367  140.4540  154.8323 N   0  0  0  0  0  0  0  0  0  0  0  0
  149.8140  139.3294  154.3986 C   0  0  0  0  0  0  0  0  0  0  0  0
  150.5851  138.2131  154.1350 O   0  0  0  0  0  0  0  0  0  0  0  0
  151.9815  138.2720  154.4053 C   0  0  0  0  0  0  0  0  0  0  0  0
  142.9699  134.9371  152.6867 C   0  0  0  0  0  0  0  0  0  0  0  0
  143.1450  133.5023  152.1597 C   0  0  0  0  0  0  0  0  0  0  0  0
  144.7444  130.2843  150.3520 H   0  0  0  0  0  0  0  0  0  0  0  0
  144.7302  131.2623  151.8142 H   0  0  0  0  0  0  0  0  0  0  0  0
  145.7668  131.7042  150.4561 H   0  0  0  0  0  0  0  0  0  0  0  0
  143.7293  132.2121  149.0560 H   0  0  0  0  0  0  0  0  0  0  0  0
  142.7099  131.6143  150.3437 H   0  0  0  0  0  0  0  0  0  0  0  0
  145.6442  133.7628  151.0295 H   0  0  0  0  0  0  0  0  0  0  0  0
  145.0647  134.2969  149.4686 H   0  0  0  0  0  0  0  0  0  0  0  0
  145.6246  136.2542  150.9028 H   0  0  0  0  0  0  0  0  0  0  0  0
  143.9469  136.2428  150.4353 H   0  0  0  0  0  0  0  0  0  0  0  0
  143.9972  136.8141  152.7448 H   0  0  0  0  0  0  0  0  0  0  0  0
  145.0562  135.3311  154.5126 H   0  0  0  0  0  0  0  0  0  0  0  0
  145.7582  134.3879  153.2328 H   0  0  0  0  0  0  0  0  0  0  0  0
  147.2608  136.0346  152.7007 H   0  0  0  0  0  0  0  0  0  0  0  0
  148.4543  137.5314  153.0723 H   0  0  0  0  0  0  0  0  0  0  0  0
  146.5774  140.4474  154.3095 H   0  0  0  0  0  0  0  0  0  0  0  0
  147.7324  142.4814  155.1122 H   0  0  0  0  0  0  0  0  0  0  0  0
  150.2186  142.4241  155.4239 H   0  0  0  0  0  0  0  0  0  0  0  0
  152.4422  137.3227  154.1328 H   0  0  0  0  0  0  0  0  0  0  0  0
  152.1760  138.4418  155.4654 H   0  0  0  0  0  0  0  0  0  0  0  0
  152.4687  139.0544  153.8214 H   0  0  0  0  0  0  0  0  0  0  0  0
  142.6424  134.9197  153.7256 H   0  0  0  0  0  0  0  0  0  0  0  0
  142.1595  135.4156  152.1351 H   0  0  0  0  0  0  0  0  0  0  0  0
  142.1992  132.9750  152.2759 H   0  0  0  0  0  0  0  0  0  0  0  0
  143.8793  132.9606  152.7568 H   0  0  0  0  0  0  0  0  0  0  0  0
  142.8468  133.9977  150.2192 H   0  0  0  0  0  0  0  0  0  0  0  0
  1  2  1  0  0  0  0
  1 22  1  0  0  0  0
  1 23  1  0  0  0  0
  1 24  1  0  0  0  0
  2  3  1  0  0  0  0
  2 25  1  0  0  0  0
  2 26  1  0  0  0  0
  3 21  1  0  0  0  0
  3  4  1  0  0  0  0
  3 46  1  0  0  0  0
  4  5  1  0  0  0  0
  4 27  1  0  0  0  0
  4 28  1  0  0  0  0
  5  6  1  0  0  0  0
  5 29  1  0  0  0  0
  5 30  1  0  0  0  0
  6  7  1  0  0  0  0
  6 20  1  0  0  0  0
  6 31  1  0  0  0  0
  7  8  1  0  0  0  0
  7 32  1  0  0  0  0
  7 33  1  0  0  0  0
  8  9  1  0  0  0  0
  8 34  1  0  0  0  0
  9 10  2  0  0  0  0
  9 11  1  0  0  0  0
 11 12  1  0  0  0  0
 11 35  1  0  0  0  0
 12 17  1  0  0  0  0
 12 13  2  0  0  0  0
 13 14  1  0  0  0  0
 13 36  1  0  0  0  0
 14 15  2  0  0  0  0
 14 37  1  0  0  0  0
 15 16  1  0  0  0  0
 15 38  1  0  0  0  0
 16 17  2  0  0  0  0
 17 18  1  0  0  0  0
 18 19  1  0  0  0  0
 19 39  1  0  0  0  0
 19 40  1  0  0  0  0
 19 41  1  0  0  0  0
 20 21  1  0  0  0  0
 20 42  1  0  0  0  0
 20 43  1  0  0  0  0
 21 44  1  0  0  0  0
 21 45  1  0  0  0  0
M  CHG  1   3   1
M  END
> <s_m_source_file>
AV-unprocessed.smi

> <i_m_source_file_index>
843

> <i_lp_mmshare_version>
43012

> <i_f3d_flags>
0

> <s_epik_input>
W0NIM11bQ0gyXU4xW0NIMl1bQ0gyXVtDSF0oW0NIMl1bQ0gyXTEpW0NIMl1bTkhdQyg9TylbTkhdYzJbY0hdW2NIXVtjSF1uYzJPW0NIM10=

> <s_epik_cmdline>
J2VwaWtfcHl0aG9uJywgJy1waCcsICc3LjAnLCAnLXRuJywgJzgnLCAnLW1hJywgJzIwMCcsICctbWV0YWxfYmluZGluZycsICctaW1hZScsICc8aW5maWxlLm1hZT4nLCAnLW9tYWUnLCAnPG91dGZpbGUubWFlPic=

> <r_lp_tautomer_probability>
1

> <r_epik_Ionization_Penalty>
0.00115026

> <r_epik_Ionization_Penalty_Charging>
0.00106265

> <r_epik_Ionization_Penalty_Neutral>
8.76119e-05

> <r_epik_State_Penalty>
0.000695551

> <r_epik_Charging_Adjusted_Penalty>
0.0017582

> <i_epik_Tot_Q>
1

> <i_epik_Tot_abs_Q>
1

> <r_epik_Metal_State_Penalty>
-0

> <b_epik_Metal_Only>
0

> <s_lp_Force_Field>
OPLS_2005

> <r_lp_Energy>
22.0854

> <b_lp_Chiralities_Consistent>
1

> <s_lp_Variant>
AV-unprocessed.smi:843-2

> <Gold.Version>
5.8.1

> <Gold.Id.Protein>
6NUR|6NUR_protein|mol2

> <Gold.PLP.Fitness>
53.5959

> <Gold.PLP.PLP>
-37.2919

> <Gold.PLP.part.hbond>
-4.0000

> <Gold.PLP.part.metal>
0.0000

> <Gold.PLP.part.buried>
-4.1160

> <Gold.PLP.part.nonpolar>
-30.4063

> <Gold.PLP.part.repulsive>
0.4076

> <Gold.PLP.ligand.clash>
0.0000

> <Gold.PLP.ligand.torsion>
0.5245

> <Gold.PLP.Chemscore.Hbond>
4.9600

> <Gold.PLP.Chemscore.CHOScore>
0.8125

> <Gold.PLP.Chemscore.Metal>
0.0000

> <Gold.Chemscore.Hbonds>
donor molecule, donor type, donor heavy atom, donor atom, acceptor molecule, acceptor atom, score
      L1  H     3    46       P1 10186  2.00
      L1  H     8    34       P1  7948  1.00
      L1  H    11    35       P1  7948  1.00
      P1  H  7989  7998       L1    16  1.00
      L1  C    15    38       P1  8028  0.52

> <Gold.PLP.Chemscore.Internal.Correction>
0.0356

> <Gold.Rescore>
     Score         DG    S(hbond)    S(metal)    S(lipo)     H(rot)  DE(clash)    DE(int)     intcor
     21.25     -22.32       3.26        0.00      86.88       1.65       0.50       0.57       ----

> <Gold.Chemscore.Fitness>
21.2455

> <Gold.Chemscore.DG>
-22.3208

> <Gold.Chemscore.ZeroCoef>
-5.4800

> <Gold.Chemscore.Hbond>
3.2627

> <Gold.Chemscore.Metal>
0.0000

> <Gold.Chemscore.Lipo>
86.8835

> <Gold.Chemscore.Internal_Hbond>
0.0000

> <Gold.Chemscore.DEClash>
0.5038

> <Gold.Chemscore.DEInternal>
0.5716

> <Gold.Chemscore.Rot>
1.6492

> <Gold.Chemscore.Internal.Correction>
   9.000000E+99

> <Gold.Chemscore.Hbonds>
donor molecule, donor type, donor heavy atom, donor atom, acceptor molecule, acceptor atom, score
      L1  H     3    46       P1 10186  0.93
      L1  H     8    34       P1  7948  0.98
      L1  H    11    35       P1  7948  1.00
      P1  H  7989  7998       L1    16  0.31

> <Gold.Chemscore.Hbond.Weighted>
-10.8973

> <Gold.Chemscore.Metal.Weighted>
-0.0000

> <Gold.Chemscore.Lipo.Weighted>
-10.1654

> <Gold.Chemscore.Internal_Hbond.Weighted>
0.0000

> <Gold.Chemscore.DEClash.Weighted>
0.5038

> <Gold.Chemscore.DEInternal.Weighted>
0.5716

> <Gold.Chemscore.Rot.Weighted>
4.2219

> <Gold.Chemscore.Internal.Correction.Weighted>
   9.000000E+99

> <Gold.Protein.RotatedTorsions>
[ 6907 6896 6895 6894 ] final  102.94 input  -60.11 | X-H torsion
[ 7974 7965 7964 7962 ] final -177.69 input  175.53 | X-H torsion
[ 8008 7997 7996 7995 ] final   65.15 input   59.86 | X-H torsion
[ 10167 10162 10161 10158 ] final   81.64 input  -65.29 | X-H torsion
[ 10718 10713 10712 10709 ] final -134.20 input   66.30 | X-H torsion
[ 10763 10752 10751 10750 ] final   -5.44 input  -60.55 | X-H torsion
[ 11005 11000 10999 10996 ] final  -47.68 input  -57.11 | X-H torsion

> <Gold.Protein.ActiveResidues>
 VAL166  LYS551  ARG553  GLY616  TRP617  ASP618  TYR619  PRO620  LYS621  CYS622 
 ASP623  PHE694  ASN695  SER759  ASP760  ASP761  ALA762  ILE779  LEU786  VAL792 
 PHE793  MET794  SER795  GLU796  ALA797  LYS798  CYS799  TRP800  GLU811  SER814 

> <Gold.Protein.RotatedAtoms>
  152.5309  133.9899  159.7845 H   0  0  0  0  0  0  0  0  0  0  0  0  # atno 6907 bound_to 6896
  151.0137  133.5933  159.2686 H   0  0  0  0  0  0  0  0  0  0  0  0  # atno 6908 bound_to 6896
  151.2998  135.0772  159.9288 H   0  0  0  0  0  0  0  0  0  0  0  0  # atno 6909 bound_to 6896
  144.7128  140.0981  143.6418 H   0  0  0  0  0  0  0  0  0  0  0  0  # atno 7974 bound_to 7965
  155.6572  140.3497  155.4769 H   0  0  0  0  0  0  0  0  0  0  0  0  # atno 8008 bound_to 7997
  155.9798  140.1172  157.0759 H   0  0  0  0  0  0  0  0  0  0  0  0  # atno 8009 bound_to 7997
  154.4188  140.1140  156.5407 H   0  0  0  0  0  0  0  0  0  0  0  0  # atno 8010 bound_to 7997
  139.9371  144.6114  150.8288 H   0  0  0  0  0  0  0  0  0  0  0  0  # atno 10167 bound_to 10162
  156.2529  130.7164  151.1070 H   0  0  0  0  0  0  0  0  0  0  0  0  # atno 10718 bound_to 10713
  153.3986  135.7004  153.6442 H   0  0  0  0  0  0  0  0  0  0  0  0  # atno 10763 bound_to 10752
  153.4985  135.3657  155.2528 H   0  0  0  0  0  0  0  0  0  0  0  0  # atno 10764 bound_to 10752
  154.8708  135.4106  154.3317 H   0  0  0  0  0  0  0  0  0  0  0  0  # atno 10765 bound_to 10752
  141.0655  133.6695  156.3332 H   0  0  0  0  0  0  0  0  0  0  0  0  # atno 11005 bound_to 11000
  145.9561  139.2768  143.1183 LP  0  0  0  0  0  0  0  0  0  0  0  0  # atno 17320 bound_to 7965
  145.9270  140.9075  143.0375 LP  0  0  0  0  0  0  0  0  0  0  0  0  # atno 17321 bound_to 7965
  140.7621  143.3191  151.2664 LP  0  0  0  0  0  0  0  0  0  0  0  0  # atno 17342 bound_to 10162
  139.6735  143.9979  152.2767 LP  0  0  0  0  0  0  0  0  0  0  0  0  # atno 17343 bound_to 10162
  157.7221  131.0674  150.6089 LP  0  0  0  0  0  0  0  0  0  0  0  0  # atno 17370 bound_to 10713
  156.6171  130.4395  149.5836 LP  0  0  0  0  0  0  0  0  0  0  0  0  # atno 17371 bound_to 10713
  140.5781  134.5773  157.5473 LP  0  0  0  0  0  0  0  0  0  0  0  0  # atno 17394 bound_to 11000
  139.9472  134.7680  156.0533 LP  0  0  0  0  0  0  0  0  0  0  0  0  # atno 17395 bound_to 11000

$$$$
