AV-unprocessed.smi:2886|AV-procd|sdf|11096|dock5
  -GOLD-   2272015563D 1   1.00000     0.00000
 Structure written by MMmdl.
 27 29  0  0  0  0  0  0  0  0  2 V2000
  151.6871  136.9358  159.8300 O   0  0  0  0  0  0  0  0  0  0  0  0
  151.8179  137.6656  158.8487 C   0  0  0  0  0  0  0  0  0  0  0  0
  152.9678  138.3668  158.6112 N   0  5  0  0  0  0  0  0  0  0  0  0
  153.0704  139.2209  157.4489 N   0  0  0  0  0  0  0  0  0  0  0  0
  152.1039  139.3283  156.6252 C   0  0  0  0  0  0  0  0  0  0  0  0
  150.8276  138.5916  156.7970 C   0  0  0  0  0  0  0  0  0  0  0  0
  149.7735  138.7091  155.9000 N   0  0  0  0  0  0  0  0  0  0  0  0
  149.6941  139.5162  154.6901 C   0  0  1  0  0  0  0  0  0  0  0  0
  148.3253  139.4462  154.0113 C   0  0  0  0  0  0  0  0  0  0  0  0
  147.9605  140.9335  153.8975 C   0  0  1  0  0  0  0  0  0  0  0  0
  147.5420  141.5156  155.2536 C   0  0  0  0  0  0  0  0  0  0  0  0
  148.8800  141.5877  155.9872 C   0  0  0  0  0  0  0  0  0  0  0  0
  149.8511  141.0268  154.9346 C   0  0  2  0  0  0  0  0  0  0  0  0
  149.2440  141.5201  153.7518 O   0  0  0  0  0  0  0  0  0  0  0  0
  150.7129  137.7969  157.8912 C   0  0  0  0  0  0  0  0  0  0  0  0
  149.2551  136.9060  158.1867 Cl  0  0  0  0  0  0  0  0  0  0  0  0
  152.1756  139.9802  155.7516 H   0  0  0  0  0  0  0  0  0  0  0  0
  149.0103  138.0593  156.0230 H   0  0  0  0  0  0  0  0  0  0  0  0
  150.4429  139.1867  153.9699 H   0  0  0  0  0  0  0  0  0  0  0  0
  148.4150  138.9888  153.0255 H   0  0  0  0  0  0  0  0  0  0  0  0
  147.5812  138.8850  154.5785 H   0  0  0  0  0  0  0  0  0  0  0  0
  147.2668  141.1586  153.0870 H   0  0  0  0  0  0  0  0  0  0  0  0
  147.1175  142.5129  155.1347 H   0  0  0  0  0  0  0  0  0  0  0  0
  146.8100  140.8909  155.7668 H   0  0  0  0  0  0  0  0  0  0  0  0
  149.1270  142.6237  156.2216 H   0  0  0  0  0  0  0  0  0  0  0  0
  148.8865  141.0227  156.9196 H   0  0  0  0  0  0  0  0  0  0  0  0
  150.8849  141.3444  155.0740 H   0  0  0  0  0  0  0  0  0  0  0  0
  1  2  2  0  0  0  0
  2 15  1  0  0  0  0
  2  3  1  0  0  0  0
  3  4  1  0  0  0  0
  4  5  2  0  0  0  0
  5  6  1  0  0  0  0
  5 17  1  0  0  0  0
  6  7  1  0  0  0  0
  6 15  2  0  0  0  0
  7  8  1  0  0  0  0
  7 18  1  0  0  0  0
  8 13  1  0  0  0  0
  8  9  1  0  0  0  0
  8 19  1  0  0  0  0
  9 10  1  0  0  0  0
  9 20  1  0  0  0  0
  9 21  1  0  0  0  0
 10 14  1  0  0  0  0
 10 11  1  0  0  0  0
 10 22  1  0  0  0  0
 11 12  1  0  0  0  0
 11 23  1  0  0  0  0
 11 24  1  0  0  0  0
 12 13  1  0  0  0  0
 12 25  1  0  0  0  0
 12 26  1  0  0  0  0
 13 14  1  0  0  0  0
 13 27  1  0  0  0  0
 15 16  1  0  0  0  0
M  CHG  1   3  -1
M  END
> <s_m_source_file>
AV-unprocessed.smi

> <i_m_source_file_index>
2886

> <i_lp_mmshare_version>
43012

> <i_f3d_flags>
0

> <s_epik_input>
Tz1jMVtuSF1uW2NIXWMoYzFDbClbTkhdW0NASF0oW0NIMl1bQ0BASF0yMylbQ0BASF0oTzMpW0NIMl1bQ0gyXTI=

> <s_epik_cmdline>
J2VwaWtfcHl0aG9uJywgJy1waCcsICc3LjAnLCAnLXRuJywgJzgnLCAnLW1hJywgJzIwMCcsICctbWV0YWxfYmluZGluZycsICctaW1hZScsICc8aW5maWxlLm1hZT4nLCAnLW9tYWUnLCAnPG91dGZpbGUubWFlPic=

> <r_lp_tautomer_probability>
0.986175

> <r_epik_Ionization_Penalty>
3.84253

> <r_epik_Ionization_Penalty_Charging>
0.0129711

> <r_epik_Ionization_Penalty_Neutral>
3.82956

> <r_epik_State_Penalty>
3.8249

> <r_epik_Charging_Adjusted_Penalty>
3.83787

> <i_epik_Tot_Q>
-1

> <i_epik_Tot_abs_Q>
1

> <r_epik_Metal_State_Penalty>
0.57612

> <b_epik_Metal_Only>
1

> <s_lp_Force_Field>
OPLS_2005

> <r_lp_Energy>
60.9826

> <b_lp_Chiralities_Consistent>
1

> <s_lp_Variant>
AV-unprocessed.smi:2886-10

> <Gold.Version>
5.8.1

> <Gold.Id.Protein>
6NUR|6NUR_protein|mol2

> <Gold.PLP.Fitness>
29.6121

> <Gold.PLP.PLP>
-21.4834

> <Gold.PLP.part.hbond>
-3.9748

> <Gold.PLP.part.metal>
0.0000

> <Gold.PLP.part.buried>
-0.7352

> <Gold.PLP.part.nonpolar>
-16.2257

> <Gold.PLP.part.repulsive>
0.6107

> <Gold.PLP.ligand.clash>
0.0000

> <Gold.PLP.ligand.torsion>
0.0071

> <Gold.PLP.Chemscore.Hbond>
2.7113

> <Gold.PLP.Chemscore.CHOScore>
0.0000

> <Gold.PLP.Chemscore.Metal>
0.0000

> <Gold.Chemscore.Hbonds>
donor molecule, donor type, donor heavy atom, donor atom, acceptor molecule, acceptor atom, score
      P1  H  6896  6907       L1     1  1.00
      P1  H  7997  8009       L1     4  1.00
      P1  H  8011  8017       L1    14  0.75

> <Gold.PLP.Chemscore.Internal.Correction>
0.0091

> <Gold.Rescore>
     Score         DG    S(hbond)    S(metal)    S(lipo)     H(rot)  DE(clash)    DE(int)     intcor
     17.77     -17.96       2.68        0.00      51.91       1.00       0.18       0.01       ----

> <Gold.Chemscore.Fitness>
17.7710

> <Gold.Chemscore.DG>
-17.9556

> <Gold.Chemscore.ZeroCoef>
-5.4800

> <Gold.Chemscore.Hbond>
2.6834

> <Gold.Chemscore.Metal>
0.0000

> <Gold.Chemscore.Lipo>
51.9069

> <Gold.Chemscore.Internal_Hbond>
0.0000

> <Gold.Chemscore.DEClash>
0.1764

> <Gold.Chemscore.DEInternal>
0.0082

> <Gold.Chemscore.Rot>
1.0000

> <Gold.Chemscore.Internal.Correction>
   9.000000E+99

> <Gold.Chemscore.Hbonds>
donor molecule, donor type, donor heavy atom, donor atom, acceptor molecule, acceptor atom, score
      P1  H  6896  6907       L1     1  1.00
      P1  H  7997  8009       L1     4  0.55
      P1  H  8011  8017       L1    14  0.76

> <Gold.Chemscore.Hbond.Weighted>
-8.9625

> <Gold.Chemscore.Metal.Weighted>
-0.0000

> <Gold.Chemscore.Lipo.Weighted>
-6.0731

> <Gold.Chemscore.Internal_Hbond.Weighted>
0.0000

> <Gold.Chemscore.DEClash.Weighted>
0.1764

> <Gold.Chemscore.DEInternal.Weighted>
0.0082

> <Gold.Chemscore.Rot.Weighted>
2.5600

> <Gold.Chemscore.Internal.Correction.Weighted>
   9.000000E+99

> <Gold.Protein.RotatedTorsions>
[ 6907 6896 6895 6894 ] final   -2.02 input  -60.11 | X-H torsion
[ 7974 7965 7964 7962 ] final   99.30 input  175.53 | X-H torsion
[ 8008 7997 7996 7995 ] final  176.05 input   59.86 | X-H torsion
[ 10167 10162 10161 10158 ] final   34.28 input  -65.29 | X-H torsion
[ 10718 10713 10712 10709 ] final   79.92 input   66.30 | X-H torsion
[ 10763 10752 10751 10750 ] final  170.88 input  -60.55 | X-H torsion
[ 11005 11000 10999 10996 ] final  138.26 input  -57.11 | X-H torsion

> <Gold.Protein.ActiveResidues>
 VAL166  LYS551  ARG553  GLY616  TRP617  ASP618  TYR619  PRO620  LYS621  CYS622 
 ASP623  PHE694  ASN695  SER759  ASP760  ASP761  ALA762  ILE779  LEU786  VAL792 
 PHE793  MET794  SER795  GLU796  ALA797  LYS798  CYS799  TRP800  GLU811  SER814 

> <Gold.Protein.RotatedAtoms>
  151.5367  135.1068  159.9915 H   0  0  0  0  0  0  0  0  0  0  0  0  # atno 6907 bound_to 6896
  152.4554  133.7708  159.6808 H   0  0  0  0  0  0  0  0  0  0  0  0  # atno 6908 bound_to 6896
  150.8496  133.7742  159.3055 H   0  0  0  0  0  0  0  0  0  0  0  0  # atno 6909 bound_to 6896
  145.4007  139.2348  143.3301 H   0  0  0  0  0  0  0  0  0  0  0  0  # atno 7974 bound_to 7965
  156.0806  140.1393  156.9717 H   0  0  0  0  0  0  0  0  0  0  0  0  # atno 8008 bound_to 7997
  154.4583  140.0953  156.6870 H   0  0  0  0  0  0  0  0  0  0  0  0  # atno 8009 bound_to 7997
  155.5081  140.3453  155.4385 H   0  0  0  0  0  0  0  0  0  0  0  0  # atno 8010 bound_to 7997
  140.4330  144.1297  150.6162 H   0  0  0  0  0  0  0  0  0  0  0  0  # atno 10167 bound_to 10162
  157.6791  130.9936  150.2003 H   0  0  0  0  0  0  0  0  0  0  0  0  # atno 10718 bound_to 10713
  154.4039  135.2755  155.2079 H   0  0  0  0  0  0  0  0  0  0  0  0  # atno 10763 bound_to 10752
  154.4093  135.6026  153.5947 H   0  0  0  0  0  0  0  0  0  0  0  0  # atno 10764 bound_to 10752
  152.9831  135.5945  154.4311 H   0  0  0  0  0  0  0  0  0  0  0  0  # atno 10765 bound_to 10752
  140.0171  134.9413  157.0399 H   0  0  0  0  0  0  0  0  0  0  0  0  # atno 11005 bound_to 11000
  146.2753  140.4704  142.8798 LP  0  0  0  0  0  0  0  0  0  0  0  0  # atno 17320 bound_to 7965
  144.8376  140.6806  143.6250 LP  0  0  0  0  0  0  0  0  0  0  0  0  # atno 17321 bound_to 7965
  140.4405  143.2528  151.9478 LP  0  0  0  0  0  0  0  0  0  0  0  0  # atno 17342 bound_to 10162
  139.4785  144.5658  151.8167 LP  0  0  0  0  0  0  0  0  0  0  0  0  # atno 17343 bound_to 10162
  156.2695  130.3720  149.8046 LP  0  0  0  0  0  0  0  0  0  0  0  0  # atno 17370 bound_to 10713
  156.5767  130.8448  151.3371 LP  0  0  0  0  0  0  0  0  0  0  0  0  # atno 17371 bound_to 10713
  140.4451  134.1640  155.7177 LP  0  0  0  0  0  0  0  0  0  0  0  0  # atno 17394 bound_to 11000
  141.1750  133.8532  157.1450 LP  0  0  0  0  0  0  0  0  0  0  0  0  # atno 17395 bound_to 11000

$$$$
