AV-unprocessed.smi:2243|AV-procd|sdf|9069|dock1
  -GOLD-   2272012273D 1   1.00000     0.00000
 Structure written by MMmdl.
 34 35  0  0  0  0  0  0  0  0  1 V2000
  152.1135  139.9913  158.1707 C   0  0  0  0  0  0  0  0  0  0  0  0
  151.9079  141.5111  158.0511 C   0  0  1  0  0  0  0  0  0  0  0  0
  150.7708  141.7428  157.1589 N   0  0  0  0  0  0  0  0  0  0  0  0
  150.5827  141.2022  155.9446 C   0  0  0  0  0  0  0  0  0  0  0  0
  151.3998  140.4214  155.4466 O   0  0  0  0  0  0  0  0  0  0  0  0
  149.3911  141.6641  155.4035 N   0  0  0  0  0  0  0  0  0  0  0  0
  148.7415  140.9415  154.5427 C   0  0  0  0  0  0  0  0  0  0  0  0
  148.9787  139.6897  153.9810 N   0  0  0  0  0  0  0  0  0  0  0  0
  147.9556  139.4077  153.1198 C   0  0  0  0  0  0  0  0  0  0  0  0
  147.1100  140.4335  153.1351 C   0  0  0  0  0  0  0  0  0  0  0  0
  147.5640  141.3866  153.9966 O   0  0  0  0  0  0  0  0  0  0  0  0
  151.6761  142.2098  159.4174 C   0  0  0  0  0  0  0  0  0  0  0  0
  151.6199  143.7479  159.2955 C   0  0  0  0  0  0  0  0  0  0  0  0
  151.4630  144.4129  160.6721 C   0  0  0  0  0  0  0  0  0  0  0  0
  152.5288  144.0189  161.5271 O   0  0  0  0  0  0  0  0  0  0  0  0
  152.5430  142.6186  161.7736 C   0  0  0  0  0  0  0  0  0  0  0  0
  152.7573  141.8528  160.4578 C   0  0  0  0  0  0  0  0  0  0  0  0
  153.0278  139.7476  158.7107 H   0  0  0  0  0  0  0  0  0  0  0  0
  152.1970  139.5299  157.1860 H   0  0  0  0  0  0  0  0  0  0  0  0
  151.2798  139.5167  158.6892 H   0  0  0  0  0  0  0  0  0  0  0  0
  152.8159  141.9265  157.6110 H   0  0  0  0  0  0  0  0  0  0  0  0
  150.0601  142.3754  157.4971 H   0  0  0  0  0  0  0  0  0  0  0  0
  149.7543  139.0654  154.1511 H   0  0  0  0  0  0  0  0  0  0  0  0
  147.9415  138.4767  152.5725 H   0  0  0  0  0  0  0  0  0  0  0  0
  146.1836  140.6283  152.6152 H   0  0  0  0  0  0  0  0  0  0  0  0
  150.7140  141.8740  159.8079 H   0  0  0  0  0  0  0  0  0  0  0  0
  152.5305  144.1131  158.8187 H   0  0  0  0  0  0  0  0  0  0  0  0
  150.7908  144.0575  158.6591 H   0  0  0  0  0  0  0  0  0  0  0  0
  151.4800  145.4978  160.5671 H   0  0  0  0  0  0  0  0  0  0  0  0
  150.5040  144.1524  161.1230 H   0  0  0  0  0  0  0  0  0  0  0  0
  153.3497  142.3940  162.4715 H   0  0  0  0  0  0  0  0  0  0  0  0
  151.6127  142.3129  162.2549 H   0  0  0  0  0  0  0  0  0  0  0  0
  152.7515  140.7845  160.6714 H   0  0  0  0  0  0  0  0  0  0  0  0
  153.7454  142.0874  160.0599 H   0  0  0  0  0  0  0  0  0  0  0  0
  1  2  1  0  0  0  0
  1 18  1  0  0  0  0
  1 19  1  0  0  0  0
  1 20  1  0  0  0  0
  2  3  1  0  0  0  0
  2 12  1  0  0  0  0
  2 21  1  0  0  0  0
  3 22  1  0  0  0  0
  3  4  1  0  0  0  0
  4  6  1  0  0  0  0
  4  5  2  0  0  0  0
  6  7  2  0  0  0  0
  7 11  1  0  0  0  0
  7  8  1  0  0  0  0
  8 23  1  0  0  0  0
  8  9  1  0  0  0  0
  9 24  1  0  0  0  0
  9 10  2  0  0  0  0
 10 25  1  0  0  0  0
 10 11  1  0  0  0  0
 12 17  1  0  0  0  0
 12 13  1  0  0  0  0
 12 26  1  0  0  0  0
 13 14  1  0  0  0  0
 13 27  1  0  0  0  0
 13 28  1  0  0  0  0
 14 15  1  0  0  0  0
 14 29  1  0  0  0  0
 14 30  1  0  0  0  0
 15 16  1  0  0  0  0
 16 17  1  0  0  0  0
 16 31  1  0  0  0  0
 16 32  1  0  0  0  0
 17 33  1  0  0  0  0
 17 34  1  0  0  0  0
M  END
> <s_m_source_file>
AV-unprocessed.smi

> <i_m_source_file_index>
2243

> <i_lp_mmshare_version>
43012

> <i_f3d_flags>
0

> <s_epik_input>
W0NIMl0xW0NIMl1PW0NIMl1bQ0gyXVtDSF0xW0NASF0oW0NIM10pW05IXUMoPU8pW05IXWMybltjSF1bY0hdbzI=

> <s_epik_cmdline>
J2VwaWtfcHl0aG9uJywgJy1waCcsICc3LjAnLCAnLXRuJywgJzgnLCAnLW1hJywgJzIwMCcsICctbWV0YWxfYmluZGluZycsICctaW1hZScsICc8aW5maWxlLm1hZT4nLCAnLW9tYWUnLCAnPG91dGZpbGUubWFlPic=

> <r_lp_tautomer_probability>
0.107061

> <r_epik_Ionization_Penalty>
1.44639

> <r_epik_Ionization_Penalty_Charging>
1.44602

> <r_epik_Ionization_Penalty_Neutral>
0.000368208

> <r_epik_State_Penalty>
2.61815

> <r_epik_Charging_Adjusted_Penalty>
4.06418

> <i_epik_Tot_Q>
0

> <i_epik_Tot_abs_Q>
0

> <r_epik_Metal_State_Penalty>
3.54171

> <b_epik_Metal_Only>
0

> <s_lp_Force_Field>
OPLS_2005

> <r_lp_Energy>
34.9147

> <b_lp_Chiralities_Consistent>
1

> <s_lp_Variant>
AV-unprocessed.smi:2243-8

> <Gold.Version>
5.8.1

> <Gold.Id.Protein>
6NUR|6NUR_protein|mol2

> <Gold.PLP.Fitness>
40.2311

> <Gold.PLP.PLP>
-32.1782

> <Gold.PLP.part.hbond>
-2.0000

> <Gold.PLP.part.metal>
0.0000

> <Gold.PLP.part.buried>
-1.2741

> <Gold.PLP.part.nonpolar>
-29.1008

> <Gold.PLP.part.repulsive>
0.9175

> <Gold.PLP.ligand.clash>
0.0000

> <Gold.PLP.ligand.torsion>
0.2678

> <Gold.PLP.Chemscore.Hbond>
0.8640

> <Gold.PLP.Chemscore.CHOScore>
1.9926

> <Gold.PLP.Chemscore.Metal>
0.0000

> <Gold.Chemscore.Hbonds>
donor molecule, donor type, donor heavy atom, donor atom, acceptor molecule, acceptor atom, score
      P1  H  7989  7998       L1     5  0.90
      L1  C     9    24       P1  7948  0.98
      L1  C    10    25       P1 10175  1.00

> <Gold.PLP.Chemscore.Internal.Correction>
0.0187

> <Gold.Rescore>
     Score         DG    S(hbond)    S(metal)    S(lipo)     H(rot)  DE(clash)    DE(int)     intcor
     12.73     -14.29       0.89        0.00      78.68       1.32       0.04       1.52       ----

> <Gold.Chemscore.Fitness>
12.7287

> <Gold.Chemscore.DG>
-14.2888

> <Gold.Chemscore.ZeroCoef>
-5.4800

> <Gold.Chemscore.Hbond>
0.8932

> <Gold.Chemscore.Metal>
0.0000

> <Gold.Chemscore.Lipo>
78.6755

> <Gold.Chemscore.Internal_Hbond>
0.0000

> <Gold.Chemscore.DEClash>
0.0426

> <Gold.Chemscore.DEInternal>
1.5176

> <Gold.Chemscore.Rot>
1.3201

> <Gold.Chemscore.Internal.Correction>
   9.000000E+99

> <Gold.Chemscore.Hbonds>
donor molecule, donor type, donor heavy atom, donor atom, acceptor molecule, acceptor atom, score
      P1  H  7989  7998       L1     5  0.59

> <Gold.Chemscore.Hbond.Weighted>
-2.9832

> <Gold.Chemscore.Metal.Weighted>
-0.0000

> <Gold.Chemscore.Lipo.Weighted>
-9.2050

> <Gold.Chemscore.Internal_Hbond.Weighted>
0.0000

> <Gold.Chemscore.DEClash.Weighted>
0.0426

> <Gold.Chemscore.DEInternal.Weighted>
1.5176

> <Gold.Chemscore.Rot.Weighted>
3.3794

> <Gold.Chemscore.Internal.Correction.Weighted>
   9.000000E+99

> <Gold.Protein.RotatedTorsions>
[ 6907 6896 6895 6894 ] final -106.34 input  -60.11 | X-H torsion
[ 7974 7965 7964 7962 ] final  152.05 input  175.53 | X-H torsion
[ 8008 7997 7996 7995 ] final  -50.58 input   59.86 | X-H torsion
[ 10167 10162 10161 10158 ] final  158.90 input  -65.29 | X-H torsion
[ 10718 10713 10712 10709 ] final   18.45 input   66.30 | X-H torsion
[ 10763 10752 10751 10750 ] final -167.19 input  -60.55 | X-H torsion
[ 11005 11000 10999 10996 ] final -141.87 input  -57.11 | X-H torsion

> <Gold.Protein.ActiveResidues>
 VAL166  LYS551  ARG553  GLY616  TRP617  ASP618  TYR619  PRO620  LYS621  CYS622 
 ASP623  PHE694  ASN695  SER759  ASP760  ASP761  ALA762  ILE779  LEU786  VAL792 
 PHE793  MET794  SER795  GLU796  ALA797  LYS798  CYS799  TRP800  GLU811  SER814 

> <Gold.Protein.RotatedAtoms>
  150.7384  133.9990  159.3631 H   0  0  0  0  0  0  0  0  0  0  0  0  # atno 6907 bound_to 6896
  151.7943  135.0725  160.0401 H   0  0  0  0  0  0  0  0  0  0  0  0  # atno 6908 bound_to 6896
  152.3186  133.5792  159.5765 H   0  0  0  0  0  0  0  0  0  0  0  0  # atno 6909 bound_to 6896
  144.8249  139.6617  143.6084 H   0  0  0  0  0  0  0  0  0  0  0  0  # atno 7974 bound_to 7965
  154.4065  140.1269  156.4689 H   0  0  0  0  0  0  0  0  0  0  0  0  # atno 8008 bound_to 7997
  155.7199  140.3493  155.4991 H   0  0  0  0  0  0  0  0  0  0  0  0  # atno 8009 bound_to 7997
  155.9224  140.1055  157.1187 H   0  0  0  0  0  0  0  0  0  0  0  0  # atno 8010 bound_to 7997
  139.4829  144.4781  151.8482 H   0  0  0  0  0  0  0  0  0  0  0  0  # atno 10167 bound_to 10162
  157.0965  130.6450  149.5861 H   0  0  0  0  0  0  0  0  0  0  0  0  # atno 10718 bound_to 10713
  154.6757  135.2946  154.9682 H   0  0  0  0  0  0  0  0  0  0  0  0  # atno 10763 bound_to 10752
  154.0694  135.6620  153.4826 H   0  0  0  0  0  0  0  0  0  0  0  0  # atno 10764 bound_to 10752
  153.0514  135.5171  154.7774 H   0  0  0  0  0  0  0  0  0  0  0  0  # atno 10765 bound_to 10752
  140.8281  134.2550  157.4869 H   0  0  0  0  0  0  0  0  0  0  0  0  # atno 11005 bound_to 11000
  146.2555  139.6292  142.9398 LP  0  0  0  0  0  0  0  0  0  0  0  0  # atno 17320 bound_to 7965
  145.5022  141.0437  143.2534 LP  0  0  0  0  0  0  0  0  0  0  0  0  # atno 17321 bound_to 7965
  140.4255  144.2186  150.5887 LP  0  0  0  0  0  0  0  0  0  0  0  0  # atno 17342 bound_to 10162
  140.4831  143.2372  151.8926 LP  0  0  0  0  0  0  0  0  0  0  0  0  # atno 17343 bound_to 10162
  155.9884  130.4928  150.7170 LP  0  0  0  0  0  0  0  0  0  0  0  0  # atno 17370 bound_to 10713
  157.4677  131.0890  151.0677 LP  0  0  0  0  0  0  0  0  0  0  0  0  # atno 17371 bound_to 10713
  139.8706  134.9571  156.4259 LP  0  0  0  0  0  0  0  0  0  0  0  0  # atno 17394 bound_to 11000
  140.9027  133.7768  155.9699 LP  0  0  0  0  0  0  0  0  0  0  0  0  # atno 17395 bound_to 11000

$$$$
