AV-unprocessed.smi:958|AV-procd|sdf|4267|dock4
  -GOLD-   22720 2173D 1   1.00000     0.00000
 Structure written by MMmdl.
 31 33  0  0  0  0  0  0  0  0  2 V2000
  152.5028  140.8956  158.0123 C   0  0  0  0  0  0  0  0  0  0  0  0
  152.9328  139.6501  157.8185 N   0  0  0  0  0  0  0  0  0  0  0  0
  152.2333  139.2105  156.7141 N   0  0  0  0  0  0  0  0  0  0  0  0
  151.4465  140.2321  156.3510 C   0  0  0  0  0  0  0  0  0  0  0  0
  150.4890  140.1635  155.1943 C   0  0  2  0  0  0  0  0  0  0  0  0
  149.0757  140.6360  155.5862 C   0  0  0  0  0  0  0  0  0  0  0  0
  148.1196  140.5304  154.3881 C   0  0  0  0  0  0  0  0  0  0  0  0
  148.1275  139.1085  153.8031 C   0  0  0  0  0  0  0  0  0  0  0  0
  149.5011  138.7051  153.4319 N   0  3  0  0  0  0  0  0  0  0  0  0
  150.4443  138.7531  154.5709 C   0  0  0  0  0  0  0  0  0  0  0  0
  151.5972  141.3310  157.1220 N   0  0  0  0  0  0  0  0  0  0  0  0
  150.9149  142.6138  157.0802 C   0  0  0  0  0  0  0  0  0  0  0  0
  151.5290  143.6781  157.9607 C   0  0  0  0  0  0  0  0  0  0  0  0
  150.2325  143.0147  158.3691 C   0  0  0  0  0  0  0  0  0  0  0  0
  152.8617  141.5082  158.8264 H   0  0  0  0  0  0  0  0  0  0  0  0
  150.8422  140.8445  154.4201 H   0  0  0  0  0  0  0  0  0  0  0  0
  148.6924  140.0296  156.4081 H   0  0  0  0  0  0  0  0  0  0  0  0
  149.1083  141.6647  155.9470 H   0  0  0  0  0  0  0  0  0  0  0  0
  147.1087  140.8030  154.6927 H   0  0  0  0  0  0  0  0  0  0  0  0
  148.4150  141.2456  153.6192 H   0  0  0  0  0  0  0  0  0  0  0  0
  147.7271  138.3971  154.5269 H   0  0  0  0  0  0  0  0  0  0  0  0
  147.4902  139.0581  152.9200 H   0  0  0  0  0  0  0  0  0  0  0  0
  149.4784  137.7644  153.0645 H   0  0  0  0  0  0  0  0  0  0  0  0
  151.4345  138.4619  154.2194 H   0  0  0  0  0  0  0  0  0  0  0  0
  150.1393  138.0135  155.3127 H   0  0  0  0  0  0  0  0  0  0  0  0
  150.4858  142.8583  156.1106 H   0  0  0  0  0  0  0  0  0  0  0  0
  152.4228  143.4247  158.5280 H   0  0  0  0  0  0  0  0  0  0  0  0
  151.4752  144.7077  157.6129 H   0  0  0  0  0  0  0  0  0  0  0  0
  149.3221  143.6052  158.2898 H   0  0  0  0  0  0  0  0  0  0  0  0
  150.2697  142.3331  159.2168 H   0  0  0  0  0  0  0  0  0  0  0  0
  149.8351  139.3283  152.7107 H   0  0  0  0  0  0  0  0  0  0  0  0
  1 11  1  0  0  0  0
  1  2  2  0  0  0  0
  1 15  1  0  0  0  0
  2  3  1  0  0  0  0
  3  4  2  0  0  0  0
  4  5  1  0  0  0  0
  4 11  1  0  0  0  0
  5 10  1  0  0  0  0
  5  6  1  0  0  0  0
  5 16  1  0  0  0  0
  6  7  1  0  0  0  0
  6 17  1  0  0  0  0
  6 18  1  0  0  0  0
  7  8  1  0  0  0  0
  7 19  1  0  0  0  0
  7 20  1  0  0  0  0
  8  9  1  0  0  0  0
  8 21  1  0  0  0  0
  8 22  1  0  0  0  0
  9 10  1  0  0  0  0
  9 23  1  0  0  0  0
  9 31  1  0  0  0  0
 10 24  1  0  0  0  0
 10 25  1  0  0  0  0
 11 12  1  0  0  0  0
 12 14  1  0  0  0  0
 12 13  1  0  0  0  0
 12 26  1  0  0  0  0
 13 14  1  0  0  0  0
 13 27  1  0  0  0  0
 13 28  1  0  0  0  0
 14 29  1  0  0  0  0
 14 30  1  0  0  0  0
M  CHG  1   9   1
M  END
> <s_m_source_file>
AV-unprocessed.smi

> <i_m_source_file_index>
958

> <i_lp_mmshare_version>
43012

> <i_f3d_flags>
0

> <s_epik_input>
W0NIMl0xW0NIMl1bQ0hdMW4yW2NIXW5uYzJbQ0BASF0zW0NIMl1bQ0gyXVtDSDJdW05IXVtDSDJdMw==

> <s_epik_cmdline>
J2VwaWtfcHl0aG9uJywgJy1waCcsICc3LjAnLCAnLXRuJywgJzgnLCAnLW1hJywgJzIwMCcsICctbWV0YWxfYmluZGluZycsICctaW1hZScsICc8aW5maWxlLm1hZT4nLCAnLW9tYWUnLCAnPG91dGZpbGUubWFlPic=

> <r_lp_tautomer_probability>
1

> <r_epik_Ionization_Penalty>
0.000442722

> <r_epik_Ionization_Penalty_Charging>
0.000426856

> <r_epik_Ionization_Penalty_Neutral>
1.58656e-05

> <r_epik_State_Penalty>
-0

> <r_epik_Charging_Adjusted_Penalty>
0.000426856

> <i_epik_Tot_Q>
1

> <i_epik_Tot_abs_Q>
1

> <r_epik_Metal_State_Penalty>
-0

> <b_epik_Metal_Only>
0

> <s_lp_Force_Field>
OPLS_2005

> <r_lp_Energy>
27.25

> <b_lp_Chiralities_Consistent>
1

> <s_lp_Variant>
AV-unprocessed.smi:958-1

> <Gold.Version>
5.8.1

> <Gold.Id.Protein>
6NUR|6NUR_protein|mol2

> <Gold.PLP.Fitness>
36.7726

> <Gold.PLP.PLP>
-25.2815

> <Gold.PLP.part.hbond>
-3.0497

> <Gold.PLP.part.metal>
0.0000

> <Gold.PLP.part.buried>
-1.7606

> <Gold.PLP.part.nonpolar>
-19.3052

> <Gold.PLP.part.repulsive>
0.0913

> <Gold.PLP.ligand.clash>
0.0000

> <Gold.PLP.ligand.torsion>
0.2900

> <Gold.PLP.Chemscore.Hbond>
3.9920

> <Gold.PLP.Chemscore.CHOScore>
0.0000

> <Gold.PLP.Chemscore.Metal>
0.0000

> <Gold.Chemscore.Hbonds>
donor molecule, donor type, donor heavy atom, donor atom, acceptor molecule, acceptor atom, score
      L1  H     9    23       P1  7948  2.00
      L1  H     9    31       P1  7957  0.98
      P1  H  7997  8009       L1     2  0.95

> <Gold.PLP.Chemscore.Internal.Correction>
0.0951

> <Gold.Rescore>
     Score         DG    S(hbond)    S(metal)    S(lipo)     H(rot)  DE(clash)    DE(int)     intcor
     15.44     -15.60       1.97        0.00      57.49       1.25       0.04       0.12       ----

> <Gold.Chemscore.Fitness>
15.4415

> <Gold.Chemscore.DG>
-15.6038

> <Gold.Chemscore.ZeroCoef>
-5.4800

> <Gold.Chemscore.Hbond>
1.9746

> <Gold.Chemscore.Metal>
0.0000

> <Gold.Chemscore.Lipo>
57.4902

> <Gold.Chemscore.Internal_Hbond>
0.0000

> <Gold.Chemscore.DEClash>
0.0414

> <Gold.Chemscore.DEInternal>
0.1209

> <Gold.Chemscore.Rot>
1.2491

> <Gold.Chemscore.Internal.Correction>
   9.000000E+99

> <Gold.Chemscore.Hbonds>
donor molecule, donor type, donor heavy atom, donor atom, acceptor molecule, acceptor atom, score
      L1  H     9    23       P1  7948  0.85
      L1  H     9    31       P1  7957  0.90
      P1  H  7997  8009       L1     2  0.07

> <Gold.Chemscore.Hbond.Weighted>
-6.5951

> <Gold.Chemscore.Metal.Weighted>
-0.0000

> <Gold.Chemscore.Lipo.Weighted>
-6.7264

> <Gold.Chemscore.Internal_Hbond.Weighted>
0.0000

> <Gold.Chemscore.DEClash.Weighted>
0.0414

> <Gold.Chemscore.DEInternal.Weighted>
0.1209

> <Gold.Chemscore.Rot.Weighted>
3.1977

> <Gold.Chemscore.Internal.Correction.Weighted>
   9.000000E+99

> <Gold.Protein.RotatedTorsions>
[ 6907 6896 6895 6894 ] final   34.32 input  -60.11 | X-H torsion
[ 7974 7965 7964 7962 ] final   90.54 input  175.53 | X-H torsion
[ 8008 7997 7996 7995 ] final  150.60 input   59.86 | X-H torsion
[ 10167 10162 10161 10158 ] final   97.42 input  -65.29 | X-H torsion
[ 10718 10713 10712 10709 ] final  -70.51 input   66.30 | X-H torsion
[ 10763 10752 10751 10750 ] final  -52.32 input  -60.55 | X-H torsion
[ 11005 11000 10999 10996 ] final  133.15 input  -57.11 | X-H torsion

> <Gold.Protein.ActiveResidues>
 VAL166  LYS551  ARG553  GLY616  TRP617  ASP618  TYR619  PRO620  LYS621  CYS622 
 ASP623  PHE694  ASN695  SER759  ASP760  ASP761  ALA762  ILE779  LEU786  VAL792 
 PHE793  MET794  SER795  GLU796  ALA797  LYS798  CYS799  TRP800  GLU811  SER814 

> <Gold.Protein.RotatedAtoms>
  152.1008  134.9343  160.0569 H   0  0  0  0  0  0  0  0  0  0  0  0  # atno 6907 bound_to 6896
  152.0558  133.4034  159.4405 H   0  0  0  0  0  0  0  0  0  0  0  0  # atno 6908 bound_to 6896
  150.6839  134.3177  159.4816 H   0  0  0  0  0  0  0  0  0  0  0  0  # atno 6909 bound_to 6896
  145.5176  139.2278  143.2689 H   0  0  0  0  0  0  0  0  0  0  0  0  # atno 7974 bound_to 7965
  156.2709  140.2070  156.6043 H   0  0  0  0  0  0  0  0  0  0  0  0  # atno 8008 bound_to 7997
  154.6882  140.0533  157.0360 H   0  0  0  0  0  0  0  0  0  0  0  0  # atno 8009 bound_to 7997
  155.0904  140.3196  155.4578 H   0  0  0  0  0  0  0  0  0  0  0  0  # atno 8010 bound_to 7997
  139.7803  144.6891  151.0032 H   0  0  0  0  0  0  0  0  0  0  0  0  # atno 10167 bound_to 10162
  156.0404  130.4333  150.2306 H   0  0  0  0  0  0  0  0  0  0  0  0  # atno 10718 bound_to 10713
  154.1409  135.6505  153.4942 H   0  0  0  0  0  0  0  0  0  0  0  0  # atno 10763 bound_to 10752
  153.0166  135.5315  154.6906 H   0  0  0  0  0  0  0  0  0  0  0  0  # atno 10764 bound_to 10752
  154.6167  135.2960  155.0343 H   0  0  0  0  0  0  0  0  0  0  0  0  # atno 10765 bound_to 10752
  139.9834  134.9540  156.9683 H   0  0  0  0  0  0  0  0  0  0  0  0  # atno 11005 bound_to 11000
  146.2127  140.5986  142.9052 LP  0  0  0  0  0  0  0  0  0  0  0  0  # atno 17320 bound_to 7965
  144.7693  140.5602  143.6681 LP  0  0  0  0  0  0  0  0  0  0  0  0  # atno 17321 bound_to 7965
  140.7818  143.4490  151.0440 LP  0  0  0  0  0  0  0  0  0  0  0  0  # atno 17342 bound_to 10162
  139.8171  143.7871  152.3175 LP  0  0  0  0  0  0  0  0  0  0  0  0  # atno 17343 bound_to 10162
  157.0402  131.0033  151.3286 LP  0  0  0  0  0  0  0  0  0  0  0  0  # atno 17370 bound_to 10713
  157.5215  130.8001  149.7814 LP  0  0  0  0  0  0  0  0  0  0  0  0  # atno 17371 bound_to 10713
  140.5052  134.1058  155.7258 LP  0  0  0  0  0  0  0  0  0  0  0  0  # atno 17394 bound_to 11000
  141.1502  133.8982  157.2116 LP  0  0  0  0  0  0  0  0  0  0  0  0  # atno 17395 bound_to 11000

$$$$
