AV-unprocessed.smi:3042|AV-procd|sdf|11601|dock1
  -GOLD-   2272016583D 1   1.00000     0.00000
 Structure written by MMmdl.
 32 33  0  0  0  0  0  0  0  0  1 V2000
  147.5211  138.5757  151.6576 N   0  0  0  0  0  0  0  0  0  0  0  0
  146.8038  139.0672  152.8458 C   0  0  0  0  0  0  0  0  0  0  0  0
  147.3143  140.4445  153.3404 C   0  0  2  0  0  0  0  0  0  0  0  0
  148.6477  140.2459  154.0596 C   0  0  0  0  0  0  0  0  0  0  0  0
  149.2677  138.9784  154.1209 C   0  0  0  0  0  0  0  0  0  0  0  0
  150.5001  138.8550  154.7904 C   0  0  0  0  0  0  0  0  0  0  0  0
  151.0652  140.0070  155.3722 C   0  0  0  0  0  0  0  0  0  0  0  0
  150.4841  141.2248  155.3208 N   0  0  0  0  0  0  0  0  0  0  0  0
  149.3027  141.3346  154.6757 C   0  0  0  0  0  0  0  0  0  0  0  0
  146.3508  141.1857  154.1810 N   0  0  0  0  0  0  0  0  0  0  0  0
  146.3594  140.7115  155.5698 C   0  0  0  0  0  0  0  0  0  0  0  0
  145.3662  141.4761  156.4612 C   0  0  0  0  0  0  0  0  0  0  0  0
  145.6603  142.8664  156.4170 O   0  0  0  0  0  0  0  0  0  0  0  0
  145.6040  143.3871  155.0954 C   0  0  0  0  0  0  0  0  0  0  0  0
  146.5961  142.6303  154.1949 C   0  0  0  0  0  0  0  0  0  0  0  0
  148.2870  139.2038  151.4185 H   0  0  0  0  0  0  0  0  0  0  0  0
  147.9309  137.6613  151.8418 H   0  0  0  0  0  0  0  0  0  0  0  0
  145.7466  139.1237  152.5928 H   0  0  0  0  0  0  0  0  0  0  0  0
  146.8855  138.3347  153.6495 H   0  0  0  0  0  0  0  0  0  0  0  0
  147.5145  141.0470  152.4525 H   0  0  0  0  0  0  0  0  0  0  0  0
  148.8070  138.1156  153.6627 H   0  0  0  0  0  0  0  0  0  0  0  0
  151.0010  137.9004  154.8550 H   0  0  0  0  0  0  0  0  0  0  0  0
  152.0101  139.9490  155.8920 H   0  0  0  0  0  0  0  0  0  0  0  0
  148.8672  142.3229  154.6522 H   0  0  0  0  0  0  0  0  0  0  0  0
  146.1071  139.6524  155.6169 H   0  0  0  0  0  0  0  0  0  0  0  0
  147.3631  140.8096  155.9861 H   0  0  0  0  0  0  0  0  0  0  0  0
  144.3393  141.3013  156.1365 H   0  0  0  0  0  0  0  0  0  0  0  0
  145.4397  141.1307  157.4925 H   0  0  0  0  0  0  0  0  0  0  0  0
  144.5882  143.3030  154.7061 H   0  0  0  0  0  0  0  0  0  0  0  0
  145.8496  144.4488  155.1207 H   0  0  0  0  0  0  0  0  0  0  0  0
  147.6148  142.8301  154.5301 H   0  0  0  0  0  0  0  0  0  0  0  0
  146.5044  143.0453  153.1928 H   0  0  0  0  0  0  0  0  0  0  0  0
  1  2  1  0  0  0  0
  1 16  1  0  0  0  0
  1 17  1  0  0  0  0
  2  3  1  0  0  0  0
  2 18  1  0  0  0  0
  2 19  1  0  0  0  0
  3  4  1  0  0  0  0
  3 10  1  0  0  0  0
  3 20  1  0  0  0  0
  4  9  1  0  0  0  0
  4  5  2  0  0  0  0
  5  6  1  0  0  0  0
  5 21  1  0  0  0  0
  6  7  2  0  0  0  0
  6 22  1  0  0  0  0
  7  8  1  0  0  0  0
  7 23  1  0  0  0  0
  8  9  2  0  0  0  0
  9 24  1  0  0  0  0
 10 15  1  0  0  0  0
 10 11  1  0  0  0  0
 11 12  1  0  0  0  0
 11 25  1  0  0  0  0
 11 26  1  0  0  0  0
 12 13  1  0  0  0  0
 12 27  1  0  0  0  0
 12 28  1  0  0  0  0
 13 14  1  0  0  0  0
 14 15  1  0  0  0  0
 14 29  1  0  0  0  0
 14 30  1  0  0  0  0
 15 31  1  0  0  0  0
 15 32  1  0  0  0  0
M  END
> <s_m_source_file>
AV-unprocessed.smi

> <i_m_source_file_index>
3042

> <i_lp_mmshare_version>
43012

> <i_f3d_flags>
0

> <s_epik_input>
W0NIMl0xW0NIMl1PW0NIMl1bQ0gyXU4xW0NASF0oW0NIMl1bTkgyXSljMltjSF1bY0hdW2NIXW5bY0hdMg==

> <s_epik_cmdline>
J2VwaWtfcHl0aG9uJywgJy1waCcsICc3LjAnLCAnLXRuJywgJzgnLCAnLW1hJywgJzIwMCcsICctbWV0YWxfYmluZGluZycsICctaW1hZScsICc8aW5maWxlLm1hZT4nLCAnLW9tYWUnLCAnPG91dGZpbGUubWFlPic=

> <r_epik_Ionization_Penalty>
2.62143

> <r_epik_Ionization_Penalty_Charging>
0

> <r_epik_Ionization_Penalty_Neutral>
2.62143

> <r_epik_State_Penalty>
2.72742

> <r_epik_Charging_Adjusted_Penalty>
2.72742

> <i_epik_Tot_Q>
0

> <i_epik_Tot_abs_Q>
0

> <r_epik_Metal_State_Penalty>
2.72081

> <b_epik_Metal_Only>
0

> <s_lp_Force_Field>
OPLS_2005

> <r_lp_Energy>
27.3222

> <b_lp_Chiralities_Consistent>
1

> <s_lp_Variant>
AV-unprocessed.smi:3042-3

> <Gold.Version>
5.8.1

> <Gold.Id.Protein>
6NUR|6NUR_protein|mol2

> <Gold.PLP.Fitness>
36.5414

> <Gold.PLP.PLP>
-28.7548

> <Gold.PLP.part.hbond>
-3.9882

> <Gold.PLP.part.metal>
0.0000

> <Gold.PLP.part.buried>
-1.1654

> <Gold.PLP.part.nonpolar>
-24.2937

> <Gold.PLP.part.repulsive>
0.3922

> <Gold.PLP.ligand.clash>
0.0000

> <Gold.PLP.ligand.torsion>
0.6476

> <Gold.PLP.Chemscore.Hbond>
2.0000

> <Gold.PLP.Chemscore.CHOScore>
1.0000

> <Gold.PLP.Chemscore.Metal>
0.0000

> <Gold.Chemscore.Hbonds>
donor molecule, donor type, donor heavy atom, donor atom, acceptor molecule, acceptor atom, score
      L1  H     1    16       P1  7957  1.00
      L1  H     1    17       P1  7948  1.00
      L1  C     9    24       P1  8028  0.87

> <Gold.PLP.Chemscore.Internal.Correction>
0.0818

> <Gold.Rescore>
     Score         DG    S(hbond)    S(metal)    S(lipo)     H(rot)  DE(clash)    DE(int)     intcor
     14.62     -15.41       1.90        0.00      61.99       1.44       0.05       0.74       ----

> <Gold.Chemscore.Fitness>
14.6179

> <Gold.Chemscore.DG>
-15.4098

> <Gold.Chemscore.ZeroCoef>
-5.4800

> <Gold.Chemscore.Hbond>
1.9021

> <Gold.Chemscore.Metal>
0.0000

> <Gold.Chemscore.Lipo>
61.9880

> <Gold.Chemscore.Internal_Hbond>
0.0000

> <Gold.Chemscore.DEClash>
0.0529

> <Gold.Chemscore.DEInternal>
0.7390

> <Gold.Chemscore.Rot>
1.4359

> <Gold.Chemscore.Internal.Correction>
   9.000000E+99

> <Gold.Chemscore.Hbonds>
donor molecule, donor type, donor heavy atom, donor atom, acceptor molecule, acceptor atom, score
      L1  H     1    16       P1  7957  0.74
      L1  H     1    17       P1  7948  1.00

> <Gold.Chemscore.Hbond.Weighted>
-6.3532

> <Gold.Chemscore.Metal.Weighted>
-0.0000

> <Gold.Chemscore.Lipo.Weighted>
-7.2526

> <Gold.Chemscore.Internal_Hbond.Weighted>
0.0000

> <Gold.Chemscore.DEClash.Weighted>
0.0529

> <Gold.Chemscore.DEInternal.Weighted>
0.7390

> <Gold.Chemscore.Rot.Weighted>
3.6759

> <Gold.Chemscore.Internal.Correction.Weighted>
   9.000000E+99

> <Gold.Protein.RotatedTorsions>
[ 6907 6896 6895 6894 ] final  -83.83 input  -60.11 | X-H torsion
[ 7974 7965 7964 7962 ] final   26.15 input  175.53 | X-H torsion
[ 8008 7997 7996 7995 ] final   96.67 input   59.86 | X-H torsion
[ 10167 10162 10161 10158 ] final   -2.73 input  -65.29 | X-H torsion
[ 10718 10713 10712 10709 ] final  -31.98 input   66.30 | X-H torsion
[ 10763 10752 10751 10750 ] final -164.50 input  -60.55 | X-H torsion
[ 11005 11000 10999 10996 ] final -153.20 input  -57.11 | X-H torsion

> <Gold.Protein.ActiveResidues>
 VAL166  LYS551  ARG553  GLY616  TRP617  ASP618  TYR619  PRO620  LYS621  CYS622 
 ASP623  PHE694  ASN695  SER759  ASP760  ASP761  ALA762  ILE779  LEU786  VAL792 
 PHE793  MET794  SER795  GLU796  ALA797  LYS798  CYS799  TRP800  GLU811  SER814 

> <Gold.Protein.RotatedAtoms>
  150.6882  134.3452  159.4884 H   0  0  0  0  0  0  0  0  0  0  0  0  # atno 6907 bound_to 6896
  152.1300  134.9139  160.0568 H   0  0  0  0  0  0  0  0  0  0  0  0  # atno 6908 bound_to 6896
  152.0313  133.3904  159.4335 H   0  0  0  0  0  0  0  0  0  0  0  0  # atno 6909 bound_to 6896
  146.1852  139.7367  142.8872 H   0  0  0  0  0  0  0  0  0  0  0  0  # atno 7974 bound_to 7965
  156.0820  140.3269  155.7706 H   0  0  0  0  0  0  0  0  0  0  0  0  # atno 8008 bound_to 7997
  155.5136  140.0579  157.2936 H   0  0  0  0  0  0  0  0  0  0  0  0  # atno 8009 bound_to 7997
  154.4588  140.1956  156.0321 H   0  0  0  0  0  0  0  0  0  0  0  0  # atno 8010 bound_to 7997
  140.6863  143.6622  150.8256 H   0  0  0  0  0  0  0  0  0  0  0  0  # atno 10167 bound_to 10162
  156.3805  130.4355  149.7472 H   0  0  0  0  0  0  0  0  0  0  0  0  # atno 10718 bound_to 10713
  154.7022  135.2990  154.9324 H   0  0  0  0  0  0  0  0  0  0  0  0  # atno 10763 bound_to 10752
  154.0252  135.6677  153.4780 H   0  0  0  0  0  0  0  0  0  0  0  0  # atno 10764 bound_to 10752
  153.0690  135.5072  154.8173 H   0  0  0  0  0  0  0  0  0  0  0  0  # atno 10765 bound_to 10752
  140.7107  134.3836  157.5198 H   0  0  0  0  0  0  0  0  0  0  0  0  # atno 11005 bound_to 11000
  145.3959  141.0379  143.3097 LP  0  0  0  0  0  0  0  0  0  0  0  0  # atno 17320 bound_to 7965
  144.8385  139.5511  143.6911 LP  0  0  0  0  0  0  0  0  0  0  0  0  # atno 17321 bound_to 7965
  140.0330  143.5424  152.2752 LP  0  0  0  0  0  0  0  0  0  0  0  0  # atno 17342 bound_to 10162
  139.6224  144.7631  151.2712 LP  0  0  0  0  0  0  0  0  0  0  0  0  # atno 17343 bound_to 10162
  156.4565  130.7931  151.2952 LP  0  0  0  0  0  0  0  0  0  0  0  0  # atno 17370 bound_to 10713
  157.7492  131.0079  150.3208 LP  0  0  0  0  0  0  0  0  0  0  0  0  # atno 17371 bound_to 10713
  139.8872  134.8888  156.2539 LP  0  0  0  0  0  0  0  0  0  0  0  0  # atno 17394 bound_to 11000
  141.0087  133.7108  156.1076 LP  0  0  0  0  0  0  0  0  0  0  0  0  # atno 17395 bound_to 11000

$$$$
