AV-unprocessed.smi:515|AV-procd|sdf|2780|dock5
  -GOLD-   2262023253D 1   1.00000     0.00000
 Structure written by MMmdl.
 47 49  0  0  0  0  0  0  0  0  1 V2000
  149.2626  134.5214  154.8000 C   0  0  0  0  0  0  0  0  0  0  0  0
  150.5441  134.6730  155.6198 C   0  0  0  0  0  0  0  0  0  0  0  0
  151.2835  135.7808  155.1332 O   0  0  0  0  0  0  0  0  0  0  0  0
  150.7742  137.0150  155.6107 C   0  0  0  0  0  0  0  0  0  0  0  0
  151.7584  138.1571  155.3139 C   0  0  0  0  0  0  0  0  0  0  0  0
  152.0320  138.9900  156.4821 N   0  0  0  0  0  0  0  0  0  0  0  0
  152.7443  138.6717  157.5967 C   0  0  0  0  0  0  0  0  0  0  0  0
  153.3810  137.3311  157.8224 C   0  0  0  0  0  0  0  0  0  0  0  0
  154.0673  137.2004  159.1068 N   0  0  0  0  0  0  0  0  0  0  0  0
  153.1814  137.4900  160.2341 C   0  0  0  0  0  0  0  0  0  0  0  0
  153.8711  137.2784  161.5936 C   0  0  0  0  0  0  0  0  0  0  0  0
  154.4048  135.9609  161.6687 O   0  0  0  0  0  0  0  0  0  0  0  0
  155.3245  135.6825  160.6189 C   0  0  0  0  0  0  0  0  0  0  0  0
  154.6186  135.8597  159.2646 C   0  0  0  0  0  0  0  0  0  0  0  0
  152.8135  139.6545  158.5012 N   0  0  0  0  0  0  0  0  0  0  0  0
  152.0824  140.6780  157.9186 C   0  0  0  0  0  0  0  0  0  0  0  0
  151.5908  140.2927  156.7148 C   0  0  0  0  0  0  0  0  0  0  0  0
  150.7454  141.1673  155.8917 C   0  0  0  0  0  0  0  0  0  0  0  0
  150.2707  140.8293  154.8096 O   0  0  0  0  0  0  0  0  0  0  0  0
  150.5319  142.3816  156.4541 N   0  0  0  0  0  0  0  0  0  0  0  0
  150.9998  142.8347  157.6574 C   0  0  0  0  0  0  0  0  0  0  0  0
  150.7096  143.9672  158.0426 O   0  0  0  0  0  0  0  0  0  0  0  0
  151.7838  141.9859  158.3968 N   0  0  0  0  0  0  0  0  0  0  0  0
  152.3068  142.4125  159.6958 C   0  0  0  0  0  0  0  0  0  0  0  0
  149.9555  143.0228  155.9288 H   0  0  0  0  0  0  0  0  0  0  0  0
  148.6761  133.6707  155.1471 H   0  0  0  0  0  0  0  0  0  0  0  0
  149.4905  134.3624  153.7461 H   0  0  0  0  0  0  0  0  0  0  0  0
  148.6399  135.4122  154.8837 H   0  0  0  0  0  0  0  0  0  0  0  0
  150.2934  134.8195  156.6716 H   0  0  0  0  0  0  0  0  0  0  0  0
  151.1401  133.7621  155.5462 H   0  0  0  0  0  0  0  0  0  0  0  0
  149.8083  137.2138  155.1466 H   0  0  0  0  0  0  0  0  0  0  0  0
  150.6057  136.9550  156.6867 H   0  0  0  0  0  0  0  0  0  0  0  0
  152.7023  137.7539  154.9467 H   0  0  0  0  0  0  0  0  0  0  0  0
  151.3650  138.7675  154.5038 H   0  0  0  0  0  0  0  0  0  0  0  0
  152.6090  136.5645  157.7382 H   0  0  0  0  0  0  0  0  0  0  0  0
  154.0715  137.1303  157.0043 H   0  0  0  0  0  0  0  0  0  0  0  0
  152.8241  138.5181  160.1772 H   0  0  0  0  0  0  0  0  0  0  0  0
  152.2992  136.8500  160.1823 H   0  0  0  0  0  0  0  0  0  0  0  0
  154.6675  138.0060  161.7418 H   0  0  0  0  0  0  0  0  0  0  0  0
  153.1574  137.4199  162.4051 H   0  0  0  0  0  0  0  0  0  0  0  0
  156.1897  136.3428  160.6949 H   0  0  0  0  0  0  0  0  0  0  0  0
  155.6894  134.6610  160.7262 H   0  0  0  0  0  0  0  0  0  0  0  0
  153.8224  135.1186  159.1757 H   0  0  0  0  0  0  0  0  0  0  0  0
  155.3266  135.6549  158.4608 H   0  0  0  0  0  0  0  0  0  0  0  0
  152.7670  143.3996  159.6295 H   0  0  0  0  0  0  0  0  0  0  0  0
  153.0667  141.7327  160.0813 H   0  0  0  0  0  0  0  0  0  0  0  0
  151.5005  142.4608  160.4288 H   0  0  0  0  0  0  0  0  0  0  0  0
  1  2  1  0  0  0  0
  1 26  1  0  0  0  0
  1 27  1  0  0  0  0
  1 28  1  0  0  0  0
  2  3  1  0  0  0  0
  2 29  1  0  0  0  0
  2 30  1  0  0  0  0
  3  4  1  0  0  0  0
  4  5  1  0  0  0  0
  4 31  1  0  0  0  0
  4 32  1  0  0  0  0
  5  6  1  0  0  0  0
  5 33  1  0  0  0  0
  5 34  1  0  0  0  0
  6 17  1  0  0  0  0
  6  7  1  0  0  0  0
  7  8  1  0  0  0  0
  7 15  2  0  0  0  0
  8  9  1  0  0  0  0
  8 35  1  0  0  0  0
  8 36  1  0  0  0  0
  9 14  1  0  0  0  0
  9 10  1  0  0  0  0
 10 11  1  0  0  0  0
 10 37  1  0  0  0  0
 10 38  1  0  0  0  0
 11 12  1  0  0  0  0
 11 39  1  0  0  0  0
 11 40  1  0  0  0  0
 12 13  1  0  0  0  0
 13 14  1  0  0  0  0
 13 41  1  0  0  0  0
 13 42  1  0  0  0  0
 14 43  1  0  0  0  0
 14 44  1  0  0  0  0
 15 16  1  0  0  0  0
 16 23  1  0  0  0  0
 16 17  2  0  0  0  0
 17 18  1  0  0  0  0
 18 19  2  0  0  0  0
 18 20  1  0  0  0  0
 20 25  1  0  0  0  0
 20 21  1  0  0  0  0
 21 22  2  0  0  0  0
 21 23  1  0  0  0  0
 23 24  1  0  0  0  0
 24 45  1  0  0  0  0
 24 46  1  0  0  0  0
 24 47  1  0  0  0  0
M  END
> <s_m_source_file>
AV-unprocessed.smi

> <i_m_source_file_index>
515

> <i_lp_mmshare_version>
43012

> <i_f3d_flags>
0

> <s_epik_input>
W0NIM11uMWMoPU8pW25IXWMoPU8pYyhjMTIpbihbQ0gyXVtDSDJdT1tDSDJdW0NIM10pYyhuMilbQ0gyXU4zW0NIMl1bQ0gyXU9bQ0gyXVtDSDJdMw==

> <s_epik_cmdline>
J2VwaWtfcHl0aG9uJywgJy1waCcsICc3LjAnLCAnLXRuJywgJzgnLCAnLW1hJywgJzIwMCcsICctbWV0YWxfYmluZGluZycsICctaW1hZScsICc8aW5maWxlLm1hZT4nLCAnLW9tYWUnLCAnPG91dGZpbGUubWFlPic=

> <r_epik_Ionization_Penalty>
0.0971954

> <r_epik_Ionization_Penalty_Charging>
0.000195337

> <r_epik_Ionization_Penalty_Neutral>
0.0970001

> <r_epik_State_Penalty>
0.0871068

> <r_epik_Charging_Adjusted_Penalty>
0.0873021

> <i_epik_Tot_Q>
0

> <i_epik_Tot_abs_Q>
0

> <r_epik_Metal_State_Penalty>
0.234549

> <b_epik_Metal_Only>
0

> <s_lp_Force_Field>
OPLS_2005

> <r_lp_Energy>
38.6843

> <b_lp_Chiralities_Consistent>
1

> <s_lp_Variant>
AV-unprocessed.smi:515-1

> <Gold.Version>
5.8.1

> <Gold.Id.Protein>
6NUR|6NUR_protein|mol2

> <Gold.PLP.Fitness>
42.5230

> <Gold.PLP.PLP>
-35.2852

> <Gold.PLP.part.hbond>
-3.0514

> <Gold.PLP.part.metal>
0.0000

> <Gold.PLP.part.buried>
-6.2230

> <Gold.PLP.part.nonpolar>
-27.6311

> <Gold.PLP.part.repulsive>
0.8813

> <Gold.PLP.ligand.clash>
0.0000

> <Gold.PLP.ligand.torsion>
0.6012

> <Gold.PLP.Chemscore.Hbond>
2.8000

> <Gold.PLP.Chemscore.CHOScore>
0.0000

> <Gold.PLP.Chemscore.Metal>
0.0000

> <Gold.Chemscore.Hbonds>
donor molecule, donor type, donor heavy atom, donor atom, acceptor molecule, acceptor atom, score
      L1  H    20    25       P1  8028  1.00
      P1  H  7989  7998       L1    19  0.78
      P1  H 10752 10765       L1     3  1.00

> <Gold.PLP.Chemscore.Internal.Correction>
0.0402

> <Gold.Rescore>
     Score         DG    S(hbond)    S(metal)    S(lipo)     H(rot)  DE(clash)    DE(int)     intcor
     13.88     -15.92       2.60        0.00      62.03       2.15       0.02       2.03       ----

> <Gold.Chemscore.Fitness>
13.8751

> <Gold.Chemscore.DG>
-15.9236

> <Gold.Chemscore.ZeroCoef>
-5.4800

> <Gold.Chemscore.Hbond>
2.5986

> <Gold.Chemscore.Metal>
0.0000

> <Gold.Chemscore.Lipo>
62.0288

> <Gold.Chemscore.Internal_Hbond>
0.0000

> <Gold.Chemscore.DEClash>
0.0204

> <Gold.Chemscore.DEInternal>
2.0281

> <Gold.Chemscore.Rot>
2.1458

> <Gold.Chemscore.Internal.Correction>
   9.000000E+99

> <Gold.Chemscore.Hbonds>
donor molecule, donor type, donor heavy atom, donor atom, acceptor molecule, acceptor atom, score
      L1  H    20    25       P1  8028  0.93
      P1  H  7989  7998       L1    19  0.54
      P1  H 10752 10765       L1     3  0.97

> <Gold.Chemscore.Hbond.Weighted>
-8.6794

> <Gold.Chemscore.Metal.Weighted>
-0.0000

> <Gold.Chemscore.Lipo.Weighted>
-7.2574

> <Gold.Chemscore.Internal_Hbond.Weighted>
0.0000

> <Gold.Chemscore.DEClash.Weighted>
0.0204

> <Gold.Chemscore.DEInternal.Weighted>
2.0281

> <Gold.Chemscore.Rot.Weighted>
5.4932

> <Gold.Chemscore.Internal.Correction.Weighted>
   9.000000E+99

> <Gold.Protein.RotatedTorsions>
[ 6907 6896 6895 6894 ] final -177.75 input  -60.11 | X-H torsion
[ 7974 7965 7964 7962 ] final  146.01 input  175.53 | X-H torsion
[ 8008 7997 7996 7995 ] final  -16.39 input   59.86 | X-H torsion
[ 10167 10162 10161 10158 ] final   81.80 input  -65.29 | X-H torsion
[ 10718 10713 10712 10709 ] final -100.49 input   66.30 | X-H torsion
[ 10763 10752 10751 10750 ] final  176.69 input  -60.55 | X-H torsion
[ 11005 11000 10999 10996 ] final  128.95 input  -57.11 | X-H torsion

> <Gold.Protein.ActiveResidues>
 VAL166  LYS551  ARG553  GLY616  TRP617  ASP618  TYR619  PRO620  LYS621  CYS622 
 ASP623  PHE694  ASN695  SER759  ASP760  ASP761  ALA762  ILE779  LEU786  VAL792 
 PHE793  MET794  SER795  GLU796  ALA797  LYS798  CYS799  TRP800  GLU811  SER814 

> <Gold.Protein.RotatedAtoms>
  151.6261  133.3335  159.3098 H   0  0  0  0  0  0  0  0  0  0  0  0  # atno 6907 bound_to 6896
  150.8081  134.7222  159.6674 H   0  0  0  0  0  0  0  0  0  0  0  0  # atno 6908 bound_to 6896
  152.4177  134.6017  160.0053 H   0  0  0  0  0  0  0  0  0  0  0  0  # atno 6909 bound_to 6896
  144.8706  139.5853  143.5889 H   0  0  0  0  0  0  0  0  0  0  0  0  # atno 7974 bound_to 7965
  154.5057  140.2171  155.9256 H   0  0  0  0  0  0  0  0  0  0  0  0  # atno 8008 bound_to 7997
  156.1490  140.3165  155.8584 H   0  0  0  0  0  0  0  0  0  0  0  0  # atno 8009 bound_to 7997
  155.3975  140.0482  157.3029 H   0  0  0  0  0  0  0  0  0  0  0  0  # atno 8010 bound_to 7997
  139.9354  144.6124  150.8303 H   0  0  0  0  0  0  0  0  0  0  0  0  # atno 10167 bound_to 10162
  156.0165  130.5330  150.6825 H   0  0  0  0  0  0  0  0  0  0  0  0  # atno 10718 bound_to 10713
  154.4845  135.2776  155.1545 H   0  0  0  0  0  0  0  0  0  0  0  0  # atno 10763 bound_to 10752
  154.3241  135.6203  153.5525 H   0  0  0  0  0  0  0  0  0  0  0  0  # atno 10764 bound_to 10752
  152.9879  135.5750  154.5253 H   0  0  0  0  0  0  0  0  0  0  0  0  # atno 10765 bound_to 10752
  139.9588  134.9607  156.9077 H   0  0  0  0  0  0  0  0  0  0  0  0  # atno 11005 bound_to 11000
  146.2927  139.7186  142.9149 LP  0  0  0  0  0  0  0  0  0  0  0  0  # atno 17320 bound_to 7965
  145.4139  141.0399  143.3002 LP  0  0  0  0  0  0  0  0  0  0  0  0  # atno 17321 bound_to 7965
  140.7626  143.3202  151.2640 LP  0  0  0  0  0  0  0  0  0  0  0  0  # atno 17342 bound_to 10162
  139.6748  143.9957  152.2774 LP  0  0  0  0  0  0  0  0  0  0  0  0  # atno 17343 bound_to 10162
  157.4524  131.0874  151.0832 LP  0  0  0  0  0  0  0  0  0  0  0  0  # atno 17370 bound_to 10713
  157.1344  130.6116  149.5538 LP  0  0  0  0  0  0  0  0  0  0  0  0  # atno 17371 bound_to 10713
  140.5546  134.0593  155.7380 LP  0  0  0  0  0  0  0  0  0  0  0  0  # atno 17394 bound_to 11000
  141.1263  133.9377  157.2627 LP  0  0  0  0  0  0  0  0  0  0  0  0  # atno 17395 bound_to 11000

$$$$
