AV-unprocessed.smi:1262|AV-procd|sdf|5309|dock9
  -GOLD-   22720 4433D 1   1.00000     0.00000
 Structure written by MMmdl.
 34 35  0  0  0  0  0  0  0  0  1 V2000
  146.8113  138.7007  152.4124 C   0  0  0  0  0  0  0  0  0  0  0  0
  147.1748  139.9320  153.1886 C   0  0  0  0  0  0  0  0  0  0  0  0
  148.3152  140.1424  154.0172 C   0  0  0  0  0  0  0  0  0  0  0  0
  148.1323  141.4233  154.4617 C   0  0  0  0  0  0  0  0  0  0  0  0
  148.9160  142.1610  155.2925 N   0  0  0  0  0  0  0  0  0  0  0  0
  149.8402  141.7376  156.1725 C   0  0  0  0  0  0  0  0  0  0  0  0
  150.1419  140.5624  156.3822 O   0  0  0  0  0  0  0  0  0  0  0  0
  150.4077  142.7704  156.8117 N   0  0  0  0  0  0  0  0  0  0  0  0
  151.4401  142.6571  157.8355 C   0  0  0  0  0  0  0  0  0  0  0  0
  151.8732  144.0292  158.3462 C   0  0  0  0  0  0  0  0  0  0  0  0
  152.5662  144.1547  159.7118 C   0  0  0  0  0  0  0  0  0  0  0  0
  151.8467  145.4927  159.9022 C   0  0  0  0  0  0  0  0  0  0  0  0
  150.8164  145.0080  158.8784 C   0  0  0  0  0  0  0  0  0  0  0  0
  146.9644  141.9180  153.9250 N   0  0  0  0  0  0  0  0  0  0  0  0
  146.3485  143.2187  154.1006 C   0  0  0  0  0  0  0  0  0  0  0  0
  146.3755  140.9917  153.1380 N   0  0  0  0  0  0  0  0  0  0  0  0
  147.5248  137.8965  152.5928 H   0  0  0  0  0  0  0  0  0  0  0  0
  146.8018  138.9015  151.3409 H   0  0  0  0  0  0  0  0  0  0  0  0
  145.8232  138.3357  152.6934 H   0  0  0  0  0  0  0  0  0  0  0  0
  149.1189  139.4552  154.2347 H   0  0  0  0  0  0  0  0  0  0  0  0
  148.7822  143.1598  155.2349 H   0  0  0  0  0  0  0  0  0  0  0  0
  150.1004  143.7032  156.5786 H   0  0  0  0  0  0  0  0  0  0  0  0
  151.0849  142.0337  158.6575 H   0  0  0  0  0  0  0  0  0  0  0  0
  152.2884  142.1294  157.3991 H   0  0  0  0  0  0  0  0  0  0  0  0
  152.4766  144.5494  157.5990 H   0  0  0  0  0  0  0  0  0  0  0  0
  152.2397  143.3958  160.4249 H   0  0  0  0  0  0  0  0  0  0  0  0
  153.6536  144.2216  159.6659 H   0  0  0  0  0  0  0  0  0  0  0  0
  151.4517  145.6616  160.9044 H   0  0  0  0  0  0  0  0  0  0  0  0
  152.4312  146.3424  159.5457 H   0  0  0  0  0  0  0  0  0  0  0  0
  150.4934  145.7639  158.1618 H   0  0  0  0  0  0  0  0  0  0  0  0
  149.9665  144.5053  159.3431 H   0  0  0  0  0  0  0  0  0  0  0  0
  147.0529  143.9993  153.8124 H   0  0  0  0  0  0  0  0  0  0  0  0
  146.0729  143.3539  155.1467 H   0  0  0  0  0  0  0  0  0  0  0  0
  145.4528  143.3069  153.4844 H   0  0  0  0  0  0  0  0  0  0  0  0
  1  2  1  0  0  0  0
  1 17  1  0  0  0  0
  1 18  1  0  0  0  0
  1 19  1  0  0  0  0
  2 16  2  0  0  0  0
  2  3  1  0  0  0  0
  3  4  2  0  0  0  0
  3 20  1  0  0  0  0
  4  5  1  0  0  0  0
  4 14  1  0  0  0  0
  5  6  1  0  0  0  0
  5 21  1  0  0  0  0
  6  7  2  0  0  0  0
  6  8  1  0  0  0  0
  8  9  1  0  0  0  0
  8 22  1  0  0  0  0
  9 10  1  0  0  0  0
  9 23  1  0  0  0  0
  9 24  1  0  0  0  0
 10 13  1  0  0  0  0
 10 11  1  0  0  0  0
 10 25  1  0  0  0  0
 11 12  1  0  0  0  0
 11 26  1  0  0  0  0
 11 27  1  0  0  0  0
 12 13  1  0  0  0  0
 12 28  1  0  0  0  0
 12 29  1  0  0  0  0
 13 30  1  0  0  0  0
 13 31  1  0  0  0  0
 14 15  1  0  0  0  0
 14 16  1  0  0  0  0
 15 32  1  0  0  0  0
 15 33  1  0  0  0  0
 15 34  1  0  0  0  0
M  END
> <s_m_source_file>
AV-unprocessed.smi

> <i_m_source_file_index>
1262

> <i_lp_mmshare_version>
43012

> <i_f3d_flags>
0

> <s_epik_input>
W0NIM11jMVtjSF1jKG4objEpW0NIM10pW05IXUMoPU8pW05IXVtDSDJdW0NIXTJbQ0gyXVtDSDJdW0NIMl0y

> <s_epik_cmdline>
J2VwaWtfcHl0aG9uJywgJy1waCcsICc3LjAnLCAnLXRuJywgJzgnLCAnLW1hJywgJzIwMCcsICctbWV0YWxfYmluZGluZycsICctaW1hZScsICc8aW5maWxlLm1hZT4nLCAnLW9tYWUnLCAnPG91dGZpbGUubWFlPic=

> <r_lp_tautomer_probability>
1

> <r_epik_Ionization_Penalty>
9.92667e-05

> <r_epik_Ionization_Penalty_Charging>
0

> <r_epik_Ionization_Penalty_Neutral>
9.92667e-05

> <r_epik_State_Penalty>
-0

> <r_epik_Charging_Adjusted_Penalty>
0

> <i_epik_Tot_Q>
0

> <i_epik_Tot_abs_Q>
0

> <r_epik_Metal_State_Penalty>
-0

> <b_epik_Metal_Only>
0

> <s_lp_Force_Field>
OPLS_2005

> <r_lp_Energy>
13.5599

> <b_lp_Chiralities_Consistent>
1

> <s_lp_Variant>
AV-unprocessed.smi:1262-1

> <Gold.Version>
5.8.1

> <Gold.Id.Protein>
6NUR|6NUR_protein|mol2

> <Gold.PLP.Fitness>
42.6983

> <Gold.PLP.PLP>
-37.2134

> <Gold.PLP.part.hbond>
-2.0000

> <Gold.PLP.part.metal>
0.0000

> <Gold.PLP.part.buried>
-3.9117

> <Gold.PLP.part.nonpolar>
-34.9919

> <Gold.PLP.part.repulsive>
2.4846

> <Gold.PLP.ligand.clash>
0.0000

> <Gold.PLP.ligand.torsion>
0.2021

> <Gold.PLP.Chemscore.Hbond>
1.9440

> <Gold.PLP.Chemscore.CHOScore>
0.0000

> <Gold.PLP.Chemscore.Metal>
0.0000

> <Gold.Chemscore.Hbonds>
donor molecule, donor type, donor heavy atom, donor atom, acceptor molecule, acceptor atom, score
      L1  H     5    21       P1  8028  1.00
      L1  H     8    22       P1  8028  0.94

> <Gold.PLP.Chemscore.Internal.Correction>
0.0571

> <Gold.Rescore>
     Score         DG    S(hbond)    S(metal)    S(lipo)     H(rot)  DE(clash)    DE(int)     intcor
     16.88     -19.53       1.95        0.00      91.00       1.21       1.52       1.13       ----

> <Gold.Chemscore.Fitness>
16.8829

> <Gold.Chemscore.DG>
-19.5251

> <Gold.Chemscore.ZeroCoef>
-5.4800

> <Gold.Chemscore.Hbond>
1.9451

> <Gold.Chemscore.Metal>
0.0000

> <Gold.Chemscore.Lipo>
90.9982

> <Gold.Chemscore.Internal_Hbond>
0.0000

> <Gold.Chemscore.DEClash>
1.5164

> <Gold.Chemscore.DEInternal>
1.1258

> <Gold.Chemscore.Rot>
1.2103

> <Gold.Chemscore.Internal.Correction>
   9.000000E+99

> <Gold.Chemscore.Hbonds>
donor molecule, donor type, donor heavy atom, donor atom, acceptor molecule, acceptor atom, score
      L1  H     5    21       P1  8028  0.98
      L1  H     8    22       P1  8028  0.91

> <Gold.Chemscore.Hbond.Weighted>
-6.4967

> <Gold.Chemscore.Metal.Weighted>
-0.0000

> <Gold.Chemscore.Lipo.Weighted>
-10.6468

> <Gold.Chemscore.Internal_Hbond.Weighted>
0.0000

> <Gold.Chemscore.DEClash.Weighted>
1.5164

> <Gold.Chemscore.DEInternal.Weighted>
1.1258

> <Gold.Chemscore.Rot.Weighted>
3.0984

> <Gold.Chemscore.Internal.Correction.Weighted>
   9.000000E+99

> <Gold.Protein.RotatedTorsions>
[ 6907 6896 6895 6894 ] final  -94.81 input  -60.11 | X-H torsion
[ 7974 7965 7964 7962 ] final  159.44 input  175.53 | X-H torsion
[ 8008 7997 7996 7995 ] final -136.27 input   59.86 | X-H torsion
[ 10167 10162 10161 10158 ] final -175.52 input  -65.29 | X-H torsion
[ 10718 10713 10712 10709 ] final   -6.43 input   66.30 | X-H torsion
[ 10763 10752 10751 10750 ] final  -56.00 input  -60.55 | X-H torsion
[ 11005 11000 10999 10996 ] final  -29.57 input  -57.11 | X-H torsion

> <Gold.Protein.ActiveResidues>
 VAL166  LYS551  ARG553  GLY616  TRP617  ASP618  TYR619  PRO620  LYS621  CYS622 
 ASP623  PHE694  ASN695  SER759  ASP760  ASP761  ALA762  ILE779  LEU786  VAL792 
 PHE793  MET794  SER795  GLU796  ALA797  LYS798  CYS799  TRP800  GLU811  SER814 

> <Gold.Protein.RotatedAtoms>
  150.6950  134.1754  159.4227 H   0  0  0  0  0  0  0  0  0  0  0  0  # atno 6907 bound_to 6896
  151.9730  135.0064  160.0563 H   0  0  0  0  0  0  0  0  0  0  0  0  # atno 6908 bound_to 6896
  152.1824  133.4681  159.5002 H   0  0  0  0  0  0  0  0  0  0  0  0  # atno 6909 bound_to 6896
  144.7790  139.7617  143.6267 H   0  0  0  0  0  0  0  0  0  0  0  0  # atno 7974 bound_to 7965
  155.3924  140.0501  157.3040 H   0  0  0  0  0  0  0  0  0  0  0  0  # atno 8008 bound_to 7997
  154.5030  140.2163  155.9270 H   0  0  0  0  0  0  0  0  0  0  0  0  # atno 8009 bound_to 7997
  156.1490  140.3139  155.8623 H   0  0  0  0  0  0  0  0  0  0  0  0  # atno 8010 bound_to 7997
  139.5576  144.1949  152.1186 H   0  0  0  0  0  0  0  0  0  0  0  0  # atno 10167 bound_to 10162
  156.7321  130.5183  149.5843 H   0  0  0  0  0  0  0  0  0  0  0  0  # atno 10718 bound_to 10713
  154.1998  135.6413  153.5083 H   0  0  0  0  0  0  0  0  0  0  0  0  # atno 10763 bound_to 10752
  153.0015  135.5448  154.6328 H   0  0  0  0  0  0  0  0  0  0  0  0  # atno 10764 bound_to 10752
  154.5738  135.2919  155.0774 H   0  0  0  0  0  0  0  0  0  0  0  0  # atno 10765 bound_to 10752
  140.9308  133.7340  156.0933 H   0  0  0  0  0  0  0  0  0  0  0  0  # atno 11005 bound_to 11000
  146.1987  139.5269  142.9757 LP  0  0  0  0  0  0  0  0  0  0  0  0  # atno 17320 bound_to 7965
  145.6103  141.0340  143.1970 LP  0  0  0  0  0  0  0  0  0  0  0  0  # atno 17321 bound_to 7965
  140.1456  144.5162  150.6718 LP  0  0  0  0  0  0  0  0  0  0  0  0  # atno 17342 bound_to 10162
  140.6852  143.2346  151.5280 LP  0  0  0  0  0  0  0  0  0  0  0  0  # atno 17343 bound_to 10162
  156.1522  130.6318  151.0610 LP  0  0  0  0  0  0  0  0  0  0  0  0  # atno 17370 bound_to 10713
  157.6854  131.0826  150.7256 LP  0  0  0  0  0  0  0  0  0  0  0  0  # atno 17371 bound_to 10713
  140.7865  134.3666  157.5475 LP  0  0  0  0  0  0  0  0  0  0  0  0  # atno 17394 bound_to 11000
  139.8796  134.9114  156.3036 LP  0  0  0  0  0  0  0  0  0  0  0  0  # atno 17395 bound_to 11000

$$$$
