AV-unprocessed.smi:2902|AV-procd|sdf|11153|dock10
  -GOLD-   2272016 33D 1   1.00000     0.00000
 Structure written by MMmdl.
 47 48  0  0  0  0  0  0  0  0  1 V2000
  146.5586  138.4025  152.2918 C   0  0  0  0  0  0  0  0  0  0  0  0
  145.5183  137.2911  152.4780 C   0  0  0  0  0  0  0  0  0  0  0  0
  146.1583  135.9078  152.6985 C   0  0  2  0  0  0  0  0  0  0  0  0
  145.1460  134.9187  152.5098 O   0  0  0  0  0  0  0  0  0  0  0  0
  145.0584  134.3253  151.2160 C   0  0  0  0  0  0  0  0  0  0  0  0
  143.8592  133.3859  151.0552 C   0  0  0  0  0  0  0  0  0  0  0  0
  144.2690  132.3929  149.9603 C   0  0  0  0  0  0  0  0  0  0  0  0
  145.8010  132.4614  149.8637 C   0  0  0  0  0  0  0  0  0  0  0  0
  146.2548  133.4056  150.9803 C   0  0  0  0  0  0  0  0  0  0  0  0
  146.7581  135.7956  154.1083 C   0  0  0  0  0  0  0  0  0  0  0  0
  146.0237  135.7878  155.0963 O   0  0  0  0  0  0  0  0  0  0  0  0
  148.0966  135.7120  154.1766 N   0  0  0  0  0  0  0  0  0  0  0  0
  148.8945  135.6340  155.4007 C   0  0  1  0  0  0  0  0  0  0  0  0
  148.8552  134.1779  155.8931 C   0  0  0  0  0  0  0  0  0  0  0  0
  150.3358  136.1535  155.1410 C   0  0  2  0  0  0  0  0  0  0  0  0
  151.3379  135.7372  156.2355 C   0  0  0  0  0  0  0  0  0  0  0  0
  150.3560  137.6023  154.9689 N   0  0  0  0  0  0  0  0  0  0  0  0
  150.6917  138.3389  153.9077 C   0  0  0  0  0  0  0  0  0  0  0  0
  150.5412  139.6434  154.0888 N   0  0  0  0  0  0  0  0  0  0  0  0
  150.0729  139.6425  155.3721 C   0  0  0  0  0  0  0  0  0  0  0  0
  149.9408  138.4465  155.9451 N   0  0  0  0  0  0  0  0  0  0  0  0
  146.0731  139.3678  152.1477 H   0  0  0  0  0  0  0  0  0  0  0  0
  147.1872  138.2139  151.4213 H   0  0  0  0  0  0  0  0  0  0  0  0
  147.2083  138.4839  153.1634 H   0  0  0  0  0  0  0  0  0  0  0  0
  144.8868  137.5457  153.3309 H   0  0  0  0  0  0  0  0  0  0  0  0
  144.8606  137.2643  151.6079 H   0  0  0  0  0  0  0  0  0  0  0  0
  146.9505  135.7776  151.9595 H   0  0  0  0  0  0  0  0  0  0  0  0
  145.0467  135.0789  150.4274 H   0  0  0  0  0  0  0  0  0  0  0  0
  143.6898  132.8459  151.9880 H   0  0  0  0  0  0  0  0  0  0  0  0
  142.9397  133.9180  150.8096 H   0  0  0  0  0  0  0  0  0  0  0  0
  143.9243  131.3858  150.1979 H   0  0  0  0  0  0  0  0  0  0  0  0
  143.8238  132.6726  149.0046 H   0  0  0  0  0  0  0  0  0  0  0  0
  146.2641  131.4784  149.9545 H   0  0  0  0  0  0  0  0  0  0  0  0
  146.0886  132.8697  148.8940 H   0  0  0  0  0  0  0  0  0  0  0  0
  147.1626  133.9533  150.7263 H   0  0  0  0  0  0  0  0  0  0  0  0
  146.4585  132.8277  151.8832 H   0  0  0  0  0  0  0  0  0  0  0  0
  148.6080  135.7179  153.3060 H   0  0  0  0  0  0  0  0  0  0  0  0
  148.4370  136.2486  156.1781 H   0  0  0  0  0  0  0  0  0  0  0  0
  149.3270  134.0696  156.8695 H   0  0  0  0  0  0  0  0  0  0  0  0
  149.3632  133.5084  155.1982 H   0  0  0  0  0  0  0  0  0  0  0  0
  147.8269  133.8295  155.9976 H   0  0  0  0  0  0  0  0  0  0  0  0
  150.6866  135.7220  154.2020 H   0  0  0  0  0  0  0  0  0  0  0  0
  151.4814  134.6572  156.2596 H   0  0  0  0  0  0  0  0  0  0  0  0
  151.0045  136.0514  157.2252 H   0  0  0  0  0  0  0  0  0  0  0  0
  152.3169  136.1834  156.0580 H   0  0  0  0  0  0  0  0  0  0  0  0
  151.0411  137.9119  152.9793 H   0  0  0  0  0  0  0  0  0  0  0  0
  149.8196  140.5506  155.8993 H   0  0  0  0  0  0  0  0  0  0  0  0
  1  2  1  0  0  0  0
  1 22  1  0  0  0  0
  1 23  1  0  0  0  0
  1 24  1  0  0  0  0
  2  3  1  0  0  0  0
  2 25  1  0  0  0  0
  2 26  1  0  0  0  0
  3  4  1  0  0  0  0
  3 10  1  0  0  0  0
  3 27  1  0  0  0  0
  4  5  1  0  0  0  0
  5  9  1  0  0  0  0
  5  6  1  0  0  0  0
  5 28  1  0  0  0  0
  6  7  1  0  0  0  0
  6 29  1  0  0  0  0
  6 30  1  0  0  0  0
  7  8  1  0  0  0  0
  7 31  1  0  0  0  0
  7 32  1  0  0  0  0
  8  9  1  0  0  0  0
  8 33  1  0  0  0  0
  8 34  1  0  0  0  0
  9 35  1  0  0  0  0
  9 36  1  0  0  0  0
 10 11  2  0  0  0  0
 10 12  1  0  0  0  0
 12 13  1  0  0  0  0
 12 37  1  0  0  0  0
 13 14  1  0  0  0  0
 13 15  1  0  0  0  0
 13 38  1  0  0  0  0
 14 39  1  0  0  0  0
 14 40  1  0  0  0  0
 14 41  1  0  0  0  0
 15 16  1  0  0  0  0
 15 17  1  0  0  0  0
 15 42  1  0  0  0  0
 16 43  1  0  0  0  0
 16 44  1  0  0  0  0
 16 45  1  0  0  0  0
 17 21  1  0  0  0  0
 17 18  1  0  0  0  0
 18 19  2  0  0  0  0
 18 46  1  0  0  0  0
 19 20  1  0  0  0  0
 20 21  2  0  0  0  0
 20 47  1  0  0  0  0
M  END
> <s_m_source_file>
AV-unprocessed.smi

> <i_m_source_file_index>
2902

> <i_lp_mmshare_version>
43012

> <i_f3d_flags>
0

> <s_epik_input>
W0NIMl0xW0NIMl1bQ0gyXVtDSDJdW0NIXTFPW0NAQEhdKFtDSDJdW0NIM10pQyg9TylbTkhdW0NASF0oW0NIM10pW0NASF0oW0NIM10pbjJbY0hdbltjSF1uMg==

> <s_epik_cmdline>
J2VwaWtfcHl0aG9uJywgJy1waCcsICc3LjAnLCAnLXRuJywgJzgnLCAnLW1hJywgJzIwMCcsICctbWV0YWxfYmluZGluZycsICctaW1hZScsICc8aW5maWxlLm1hZT4nLCAnLW9tYWUnLCAnPG91dGZpbGUubWFlPic=

> <r_lp_tautomer_probability>
1

> <r_epik_Ionization_Penalty>
6.95617e-05

> <r_epik_Ionization_Penalty_Charging>
0

> <r_epik_Ionization_Penalty_Neutral>
6.95617e-05

> <r_epik_State_Penalty>
-0

> <r_epik_Charging_Adjusted_Penalty>
0

> <i_epik_Tot_Q>
0

> <i_epik_Tot_abs_Q>
0

> <r_epik_Metal_State_Penalty>
-0

> <b_epik_Metal_Only>
0

> <s_lp_Force_Field>
OPLS_2005

> <r_lp_Energy>
29.2018

> <b_lp_Chiralities_Consistent>
1

> <s_lp_Variant>
AV-unprocessed.smi:2902-3

> <Gold.Version>
5.8.1

> <Gold.Id.Protein>
6NUR|6NUR_protein|mol2

> <Gold.PLP.Fitness>
37.6137

> <Gold.PLP.PLP>
-30.9201

> <Gold.PLP.part.hbond>
-2.0000

> <Gold.PLP.part.metal>
0.0000

> <Gold.PLP.part.buried>
-2.6474

> <Gold.PLP.part.nonpolar>
-26.6932

> <Gold.PLP.part.repulsive>
0.7139

> <Gold.PLP.ligand.clash>
0.0000

> <Gold.PLP.ligand.torsion>
1.3060

> <Gold.PLP.Chemscore.Hbond>
2.0000

> <Gold.PLP.Chemscore.CHOScore>
1.0361

> <Gold.PLP.Chemscore.Metal>
0.0000

> <Gold.Chemscore.Hbonds>
donor molecule, donor type, donor heavy atom, donor atom, acceptor molecule, acceptor atom, score
      L1  H    12    37       P1  7948  1.00
      P1  H  7989  7998       L1    19  1.00
      L1  C    18    46       P1  7948  0.02
      L1  C    18    46       P1  7949  1.00

> <Gold.PLP.Chemscore.Internal.Correction>
0.1973

> <Gold.Rescore>
     Score         DG    S(hbond)    S(metal)    S(lipo)     H(rot)  DE(clash)    DE(int)     intcor
     11.85     -12.98       1.97        0.00      66.85       2.69       0.03       1.10       ----

> <Gold.Chemscore.Fitness>
11.8545

> <Gold.Chemscore.DG>
-12.9830

> <Gold.Chemscore.ZeroCoef>
-5.4800

> <Gold.Chemscore.Hbond>
1.9693

> <Gold.Chemscore.Metal>
0.0000

> <Gold.Chemscore.Lipo>
66.8459

> <Gold.Chemscore.Internal_Hbond>
0.0000

> <Gold.Chemscore.DEClash>
0.0289

> <Gold.Chemscore.DEInternal>
1.0997

> <Gold.Chemscore.Rot>
2.6935

> <Gold.Chemscore.Internal.Correction>
   9.000000E+99

> <Gold.Chemscore.Hbonds>
donor molecule, donor type, donor heavy atom, donor atom, acceptor molecule, acceptor atom, score
      L1  H    12    37       P1  7948  0.94
      P1  H  7989  7998       L1    19  0.99

> <Gold.Chemscore.Hbond.Weighted>
-6.5774

> <Gold.Chemscore.Metal.Weighted>
-0.0000

> <Gold.Chemscore.Lipo.Weighted>
-7.8210

> <Gold.Chemscore.Internal_Hbond.Weighted>
0.0000

> <Gold.Chemscore.DEClash.Weighted>
0.0289

> <Gold.Chemscore.DEInternal.Weighted>
1.0997

> <Gold.Chemscore.Rot.Weighted>
6.8954

> <Gold.Chemscore.Internal.Correction.Weighted>
   9.000000E+99

> <Gold.Protein.RotatedTorsions>
[ 6907 6896 6895 6894 ] final  107.35 input  -60.11 | X-H torsion
[ 7974 7965 7964 7962 ] final  129.58 input  175.53 | X-H torsion
[ 8008 7997 7996 7995 ] final  -44.92 input   59.86 | X-H torsion
[ 10167 10162 10161 10158 ] final -171.57 input  -65.29 | X-H torsion
[ 10718 10713 10712 10709 ] final  -71.29 input   66.30 | X-H torsion
[ 10763 10752 10751 10750 ] final  124.55 input  -60.55 | X-H torsion
[ 11005 11000 10999 10996 ] final -142.23 input  -57.11 | X-H torsion

> <Gold.Protein.ActiveResidues>
 VAL166  LYS551  ARG553  GLY616  TRP617  ASP618  TYR619  PRO620  LYS621  CYS622 
 ASP623  PHE694  ASN695  SER759  ASP760  ASP761  ALA762  ILE779  LEU786  VAL792 
 PHE793  MET794  SER795  GLU796  ALA797  LYS798  CYS799  TRP800  GLU811  SER814 

> <Gold.Protein.RotatedAtoms>
  152.5158  133.9247  159.7551 H   0  0  0  0  0  0  0  0  0  0  0  0  # atno 6907 bound_to 6896
  150.9611  133.6436  159.2761 H   0  0  0  0  0  0  0  0  0  0  0  0  # atno 6908 bound_to 6896
  151.3680  135.0922  159.9509 H   0  0  0  0  0  0  0  0  0  0  0  0  # atno 6909 bound_to 6896
  145.0271  139.4079  143.5168 H   0  0  0  0  0  0  0  0  0  0  0  0  # atno 7974 bound_to 7965
  154.3999  140.1410  156.3762 H   0  0  0  0  0  0  0  0  0  0  0  0  # atno 8008 bound_to 7997
  155.8047  140.3475  155.5402 H   0  0  0  0  0  0  0  0  0  0  0  0  # atno 8009 bound_to 7997
  155.8448  140.0932  157.1702 H   0  0  0  0  0  0  0  0  0  0  0  0  # atno 8010 bound_to 7997
  139.5795  144.1456  152.1495 H   0  0  0  0  0  0  0  0  0  0  0  0  # atno 10167 bound_to 10162
  156.0369  130.4348  150.2422 H   0  0  0  0  0  0  0  0  0  0  0  0  # atno 10718 bound_to 10713
  153.6631  135.3343  155.3133 H   0  0  0  0  0  0  0  0  0  0  0  0  # atno 10763 bound_to 10752
  154.8510  135.4368  154.1783 H   0  0  0  0  0  0  0  0  0  0  0  0  # atno 10764 bound_to 10752
  153.2755  135.7004  153.7513 H   0  0  0  0  0  0  0  0  0  0  0  0  # atno 10765 bound_to 10752
  140.8246  134.2590  157.4885 H   0  0  0  0  0  0  0  0  0  0  0  0  # atno 11005 bound_to 11000
  146.3493  139.9801  142.8696 LP  0  0  0  0  0  0  0  0  0  0  0  0  # atno 17320 bound_to 7965
  145.1819  140.9771  143.4261 LP  0  0  0  0  0  0  0  0  0  0  0  0  # atno 17321 bound_to 7965
  140.1006  144.5542  150.6991 LP  0  0  0  0  0  0  0  0  0  0  0  0  # atno 17342 bound_to 10162
  140.7074  143.2479  151.4684 LP  0  0  0  0  0  0  0  0  0  0  0  0  # atno 17343 bound_to 10162
  157.0521  131.0065  151.3250 LP  0  0  0  0  0  0  0  0  0  0  0  0  # atno 17370 bound_to 10713
  157.5133  130.7952  149.7728 LP  0  0  0  0  0  0  0  0  0  0  0  0  # atno 17371 bound_to 10713
  139.8707  134.9553  156.4203 LP  0  0  0  0  0  0  0  0  0  0  0  0  # atno 17394 bound_to 11000
  140.9063  133.7743  155.9739 LP  0  0  0  0  0  0  0  0  0  0  0  0  # atno 17395 bound_to 11000

$$$$
