AV-unprocessed.smi:3089|AV-procd|sdf|11770|dock6
  -GOLD-   2272017153D 1   1.00000     0.00000
 Structure written by MMmdl.
 25 25  0  0  0  0  0  0  0  0  2 V2000
  144.6689  136.8855  152.2364 C   0  0  0  0  0  0  0  0  0  0  0  0
  144.3402  135.5285  151.8551 N   0  0  0  0  0  0  0  0  0  0  0  0
  144.6560  134.8601  150.6925 C   0  0  0  0  0  0  0  0  0  0  0  0
  144.1326  133.5990  150.7823 C   0  0  0  0  0  0  0  0  0  0  0  0
  144.1953  132.4765  149.7676 C   0  0  1  0  0  0  0  0  0  0  0  0
  145.6565  132.0498  149.5452 C   0  0  0  0  0  0  0  0  0  0  0  0
  143.5186  131.3178  150.2190 O   0  0  0  0  0  0  0  0  0  0  0  0
  143.5456  132.8962  148.4303 C   0  0  0  0  0  0  0  0  0  0  0  0
  142.1592  132.4083  148.3053 N   0  3  0  0  0  0  0  0  0  0  0  0
  143.5106  133.5997  152.0662 C   0  0  0  0  0  0  0  0  0  0  0  0
  143.6319  134.7540  152.7004 N   0  0  0  0  0  0  0  0  0  0  0  0
  145.2395  137.3699  151.4437 H   0  0  0  0  0  0  0  0  0  0  0  0
  145.2660  136.8787  153.1486 H   0  0  0  0  0  0  0  0  0  0  0  0
  143.7539  137.4526  152.4111 H   0  0  0  0  0  0  0  0  0  0  0  0
  145.2216  135.3323  149.9025 H   0  0  0  0  0  0  0  0  0  0  0  0
  146.2577  132.8739  149.1592 H   0  0  0  0  0  0  0  0  0  0  0  0
  145.7300  131.2307  148.8287 H   0  0  0  0  0  0  0  0  0  0  0  0
  146.1180  131.7153  150.4753 H   0  0  0  0  0  0  0  0  0  0  0  0
  142.6805  131.2664  149.7846 H   0  0  0  0  0  0  0  0  0  0  0  0
  143.5277  133.9834  148.3442 H   0  0  0  0  0  0  0  0  0  0  0  0
  144.1256  132.5249  147.5844 H   0  0  0  0  0  0  0  0  0  0  0  0
  141.9139  132.3226  147.3295 H   0  0  0  0  0  0  0  0  0  0  0  0
  141.5337  133.0607  148.7561 H   0  0  0  0  0  0  0  0  0  0  0  0
  142.9722  132.7993  152.5523 H   0  0  0  0  0  0  0  0  0  0  0  0
  142.0818  131.5072  148.7553 H   0  0  0  0  0  0  0  0  0  0  0  0
  1  2  1  0  0  0  0
  1 12  1  0  0  0  0
  1 13  1  0  0  0  0
  1 14  1  0  0  0  0
  2 11  1  0  0  0  0
  2  3  1  0  0  0  0
  3  4  2  0  0  0  0
  3 15  1  0  0  0  0
  4  5  1  0  0  0  0
  4 10  1  0  0  0  0
  5  6  1  0  0  0  0
  5  7  1  0  0  0  0
  5  8  1  0  0  0  0
  6 16  1  0  0  0  0
  6 17  1  0  0  0  0
  6 18  1  0  0  0  0
  7 19  1  0  0  0  0
  8  9  1  0  0  0  0
  8 20  1  0  0  0  0
  8 21  1  0  0  0  0
  9 22  1  0  0  0  0
  9 23  1  0  0  0  0
  9 25  1  0  0  0  0
 10 11  2  0  0  0  0
 10 24  1  0  0  0  0
M  CHG  1   9   1
M  END
> <s_m_source_file>
AV-unprocessed.smi

> <i_m_source_file_index>
3089

> <i_lp_mmshare_version>
43012

> <i_f3d_flags>
0

> <s_epik_input>
W0NIM11uMVtjSF1jKFtjSF1uMSlbQ0BAXShbQ0gzXSkoW09IXSlbQ0gyXVtOSDJd

> <s_epik_cmdline>
J2VwaWtfcHl0aG9uJywgJy1waCcsICc3LjAnLCAnLXRuJywgJzgnLCAnLW1hJywgJzIwMCcsICctbWV0YWxfYmluZGluZycsICctaW1hZScsICc8aW5maWxlLm1hZT4nLCAnLW9tYWUnLCAnPG91dGZpbGUubWFlPic=

> <r_lp_tautomer_probability>
1

> <r_epik_Ionization_Penalty>
0.0140512

> <r_epik_Ionization_Penalty_Charging>
0.0140431

> <r_epik_Ionization_Penalty_Neutral>
8.10489e-06

> <r_epik_State_Penalty>
0.0109628

> <r_epik_Charging_Adjusted_Penalty>
0.0250059

> <i_epik_Tot_Q>
1

> <i_epik_Tot_abs_Q>
1

> <r_epik_Metal_State_Penalty>
0.0109638

> <b_epik_Metal_Only>
0

> <s_lp_Force_Field>
OPLS_2005

> <r_lp_Energy>
3.27267

> <b_lp_Chiralities_Consistent>
1

> <s_lp_Variant>
AV-unprocessed.smi:3089-1

> <Gold.Version>
5.8.1

> <Gold.Id.Protein>
6NUR|6NUR_protein|mol2

> <Gold.PLP.Fitness>
46.2338

> <Gold.PLP.PLP>
-27.8175

> <Gold.PLP.part.hbond>
-4.9877

> <Gold.PLP.part.metal>
0.0000

> <Gold.PLP.part.buried>
-3.4634

> <Gold.PLP.part.nonpolar>
-21.2030

> <Gold.PLP.part.repulsive>
0.3406

> <Gold.PLP.ligand.clash>
0.0000

> <Gold.PLP.ligand.torsion>
0.8104

> <Gold.PLP.Chemscore.Hbond>
4.7903

> <Gold.PLP.Chemscore.CHOScore>
1.8832

> <Gold.PLP.Chemscore.Metal>
0.0000

> <Gold.Chemscore.Hbonds>
donor molecule, donor type, donor heavy atom, donor atom, acceptor molecule, acceptor atom, score
      L1  H     7    19       P1 10952  0.85
      L1  H     9    22       P1 10195  0.98
      L1  H     9    23       P1 10186  2.00
      L1  H     9    25       P1 10952  0.82
      L1  C     3    15       P1  7921  1.00
      L1  C    10    24       P1 10957  0.80

> <Gold.PLP.Chemscore.Internal.Correction>
0.0166

> <Gold.Rescore>
     Score         DG    S(hbond)    S(metal)    S(lipo)     H(rot)  DE(clash)    DE(int)     intcor
     19.49     -20.43       3.67        0.00      64.22       1.89       0.10       0.84       ----

> <Gold.Chemscore.Fitness>
19.4861

> <Gold.Chemscore.DG>
-20.4280

> <Gold.Chemscore.ZeroCoef>
-5.4800

> <Gold.Chemscore.Hbond>
3.6732

> <Gold.Chemscore.Metal>
0.0000

> <Gold.Chemscore.Lipo>
64.2196

> <Gold.Chemscore.Internal_Hbond>
0.0000

> <Gold.Chemscore.DEClash>
0.1011

> <Gold.Chemscore.DEInternal>
0.8408

> <Gold.Chemscore.Rot>
1.8883

> <Gold.Chemscore.Internal.Correction>
   9.000000E+99

> <Gold.Chemscore.Hbonds>
donor molecule, donor type, donor heavy atom, donor atom, acceptor molecule, acceptor atom, score
      L1  H     7    19       P1 10952  0.78
      L1  H     9    22       P1 10195  0.89
      L1  H     9    23       P1 10186  0.99
      L1  H     9    25       P1 10952  0.81

> <Gold.Chemscore.Hbond.Weighted>
-12.2684

> <Gold.Chemscore.Metal.Weighted>
-0.0000

> <Gold.Chemscore.Lipo.Weighted>
-7.5137

> <Gold.Chemscore.Internal_Hbond.Weighted>
0.0000

> <Gold.Chemscore.DEClash.Weighted>
0.1011

> <Gold.Chemscore.DEInternal.Weighted>
0.8408

> <Gold.Chemscore.Rot.Weighted>
4.8341

> <Gold.Chemscore.Internal.Correction.Weighted>
   9.000000E+99

> <Gold.Protein.RotatedTorsions>
[ 6907 6896 6895 6894 ] final  146.33 input  -60.11 | X-H torsion
[ 7974 7965 7964 7962 ] final   11.89 input  175.53 | X-H torsion
[ 8008 7997 7996 7995 ] final  132.73 input   59.86 | X-H torsion
[ 10167 10162 10161 10158 ] final  100.18 input  -65.29 | X-H torsion
[ 10718 10713 10712 10709 ] final  -74.18 input   66.30 | X-H torsion
[ 10763 10752 10751 10750 ] final  -16.35 input  -60.55 | X-H torsion
[ 11005 11000 10999 10996 ] final  114.52 input  -57.11 | X-H torsion

> <Gold.Protein.ActiveResidues>
 VAL166  LYS551  ARG553  GLY616  TRP617  ASP618  TYR619  PRO620  LYS621  CYS622 
 ASP623  PHE694  ASN695  SER759  ASP760  ASP761  ALA762  ILE779  LEU786  VAL792 
 PHE793  MET794  SER795  GLU796  ALA797  LYS798  CYS799  TRP800  GLU811  SER814 

> <Gold.Protein.RotatedAtoms>
  152.1693  133.4633  159.4900 H   0  0  0  0  0  0  0  0  0  0  0  0  # atno 6907 bound_to 6896
  150.6917  134.1974  159.4318 H   0  0  0  0  0  0  0  0  0  0  0  0  # atno 6908 bound_to 6896
  151.9880  134.9994  160.0611 H   0  0  0  0  0  0  0  0  0  0  0  0  # atno 6909 bound_to 6896
  146.2362  139.9418  142.8482 H   0  0  0  0  0  0  0  0  0  0  0  0  # atno 7974 bound_to 7965
  156.2985  140.2539  156.3137 H   0  0  0  0  0  0  0  0  0  0  0  0  # atno 8008 bound_to 7997
  154.9301  140.0398  157.2062 H   0  0  0  0  0  0  0  0  0  0  0  0  # atno 8009 bound_to 7997
  154.8226  140.2862  155.5781 H   0  0  0  0  0  0  0  0  0  0  0  0  # atno 8010 bound_to 7997
  139.7550  144.6972  151.0375 H   0  0  0  0  0  0  0  0  0  0  0  0  # atno 10167 bound_to 10162
  156.0252  130.4411  150.2853 H   0  0  0  0  0  0  0  0  0  0  0  0  # atno 10718 bound_to 10713
  153.5572  135.7010  153.5564 H   0  0  0  0  0  0  0  0  0  0  0  0  # atno 10763 bound_to 10752
  153.3461  135.4008  155.1610 H   0  0  0  0  0  0  0  0  0  0  0  0  # atno 10764 bound_to 10752
  154.8653  135.3754  154.5087 H   0  0  0  0  0  0  0  0  0  0  0  0  # atno 10765 bound_to 10752
  139.8983  134.9569  156.6904 H   0  0  0  0  0  0  0  0  0  0  0  0  # atno 11005 bound_to 11000
  145.1945  140.9827  143.4191 LP  0  0  0  0  0  0  0  0  0  0  0  0  # atno 17320 bound_to 7965
  144.9828  139.3766  143.6253 LP  0  0  0  0  0  0  0  0  0  0  0  0  # atno 17321 bound_to 7965
  140.7802  143.4763  151.0077 LP  0  0  0  0  0  0  0  0  0  0  0  0  # atno 17342 bound_to 10162
  139.8450  143.7513  152.3179 LP  0  0  0  0  0  0  0  0  0  0  0  0  # atno 17343 bound_to 10162
  157.0956  131.0182  151.3105 LP  0  0  0  0  0  0  0  0  0  0  0  0  # atno 17370 bound_to 10713
  157.4820  130.7770  149.7423 LP  0  0  0  0  0  0  0  0  0  0  0  0  # atno 17371 bound_to 10713
  140.7229  133.9125  155.8159 LP  0  0  0  0  0  0  0  0  0  0  0  0  # atno 17394 bound_to 11000
  141.0213  134.0885  157.4117 LP  0  0  0  0  0  0  0  0  0  0  0  0  # atno 17395 bound_to 11000

$$$$
