AV-unprocessed.smi:1413|AV-procd|sdf|5748|dock2
  -GOLD-   22720 5383D 1   1.00000     0.00000
 Structure written by MMmdl.
 53 55  0  0  0  0  0  0  0  0  1 V2000
  153.3688  141.5725  160.4043 C   0  0  0  0  0  0  0  0  0  0  0  0
  152.3156  142.1748  159.4684 C   0  0  2  0  0  0  0  0  0  0  0  0
  151.9336  141.2045  158.3365 C   0  0  0  0  0  0  0  0  0  0  0  0
  151.0252  141.8526  157.3962 N   0  0  0  0  0  0  0  0  0  0  0  0
  150.3486  140.9893  156.5071 C   0  0  0  0  0  0  0  0  0  0  0  0
  151.0785  140.1990  155.5891 C   0  0  0  0  0  0  0  0  0  0  0  0
  150.3814  139.3533  154.7063 C   0  0  0  0  0  0  0  0  0  0  0  0
  148.9745  139.3089  154.7549 C   0  0  0  0  0  0  0  0  0  0  0  0
  148.3141  138.4407  153.8415 N   0  0  0  0  0  0  0  0  0  0  0  0
  147.0154  138.3851  153.4980 C   0  0  0  0  0  0  0  0  0  0  0  0
  146.1217  139.1001  153.9486 O   0  0  0  0  0  0  0  0  0  0  0  0
  146.8049  137.4323  152.5790 N   0  0  0  0  0  0  0  0  0  0  0  0
  145.5147  137.1052  151.9757 C   0  0  2  0  0  0  0  0  0  0  0  0
  144.4293  137.0679  153.0637 C   0  0  0  0  0  0  0  0  0  0  0  0
  145.6168  135.7680  151.2168 C   0  0  2  0  0  0  0  0  0  0  0  0
  144.3553  135.3765  150.4423 C   0  0  0  0  0  0  0  0  0  0  0  0
  144.4920  133.8735  150.3712 C   0  0  0  0  0  0  0  0  0  0  0  0
  145.0642  133.5522  151.7474 C   0  0  0  0  0  0  0  0  0  0  0  0
  145.8334  134.6906  152.1264 O   0  0  0  0  0  0  0  0  0  0  0  0
  148.3301  140.1255  155.7155 C   0  0  0  0  0  0  0  0  0  0  0  0
  148.9956  140.9379  156.5638 N   0  0  0  0  0  0  0  0  0  0  0  0
  151.5495  143.1105  156.8673 C   0  0  0  0  0  0  0  0  0  0  0  0
  151.9814  144.0553  158.0062 C   0  0  1  0  0  0  0  0  0  0  0  0
  150.7990  144.7239  158.7304 C   0  0  0  0  0  0  0  0  0  0  0  0
  152.8531  143.3735  158.9110 O   0  0  0  0  0  0  0  0  0  0  0  0
  153.0035  140.6551  160.8668 H   0  0  0  0  0  0  0  0  0  0  0  0
  153.6235  142.2691  161.2034 H   0  0  0  0  0  0  0  0  0  0  0  0
  154.2862  141.3334  159.8653 H   0  0  0  0  0  0  0  0  0  0  0  0
  151.4321  142.4091  160.0626 H   0  0  0  0  0  0  0  0  0  0  0  0
  152.8265  140.8876  157.7953 H   0  0  0  0  0  0  0  0  0  0  0  0
  151.4943  140.3075  158.7703 H   0  0  0  0  0  0  0  0  0  0  0  0
  152.1577  140.2217  155.5607 H   0  0  0  0  0  0  0  0  0  0  0  0
  150.9270  138.7443  153.9999 H   0  0  0  0  0  0  0  0  0  0  0  0
  148.9170  137.7843  153.3679 H   0  0  0  0  0  0  0  0  0  0  0  0
  147.5984  136.8924  152.2661 H   0  0  0  0  0  0  0  0  0  0  0  0
  145.2502  137.8783  151.2518 H   0  0  0  0  0  0  0  0  0  0  0  0
  143.4510  136.8465  152.6368 H   0  0  0  0  0  0  0  0  0  0  0  0
  144.3513  138.0275  153.5760 H   0  0  0  0  0  0  0  0  0  0  0  0
  144.6445  136.3059  153.8135 H   0  0  0  0  0  0  0  0  0  0  0  0
  146.4613  135.7907  150.5258 H   0  0  0  0  0  0  0  0  0  0  0  0
  143.4591  135.6420  151.0055 H   0  0  0  0  0  0  0  0  0  0  0  0
  144.2935  135.8458  149.4602 H   0  0  0  0  0  0  0  0  0  0  0  0
  143.5492  133.3638  150.1709 H   0  0  0  0  0  0  0  0  0  0  0  0
  145.2043  133.5981  149.5921 H   0  0  0  0  0  0  0  0  0  0  0  0
  144.2602  133.4224  152.4728 H   0  0  0  0  0  0  0  0  0  0  0  0
  145.6684  132.6449  151.7450 H   0  0  0  0  0  0  0  0  0  0  0  0
  147.2597  140.1484  155.8358 H   0  0  0  0  0  0  0  0  0  0  0  0
  152.4075  142.8908  156.2302 H   0  0  0  0  0  0  0  0  0  0  0  0
  150.8046  143.6062  156.2435 H   0  0  0  0  0  0  0  0  0  0  0  0
  152.5714  144.8581  157.5632 H   0  0  0  0  0  0  0  0  0  0  0  0
  150.2276  145.3463  158.0416 H   0  0  0  0  0  0  0  0  0  0  0  0
  151.1509  145.3649  159.5389 H   0  0  0  0  0  0  0  0  0  0  0  0
  150.1083  143.9962  159.1553 H   0  0  0  0  0  0  0  0  0  0  0  0
  1  2  1  0  0  0  0
  1 26  1  0  0  0  0
  1 27  1  0  0  0  0
  1 28  1  0  0  0  0
  2 25  1  0  0  0  0
  2  3  1  0  0  0  0
  2 29  1  0  0  0  0
  3  4  1  0  0  0  0
  3 30  1  0  0  0  0
  3 31  1  0  0  0  0
  4  5  1  0  0  0  0
  4 22  1  0  0  0  0
  5 21  1  0  0  0  0
  5  6  2  0  0  0  0
  6  7  1  0  0  0  0
  6 32  1  0  0  0  0
  7  8  2  0  0  0  0
  7 33  1  0  0  0  0
  8  9  1  0  0  0  0
  8 20  1  0  0  0  0
  9 10  1  0  0  0  0
  9 34  1  0  0  0  0
 10 11  2  0  0  0  0
 10 12  1  0  0  0  0
 12 13  1  0  0  0  0
 12 35  1  0  0  0  0
 13 14  1  0  0  0  0
 13 15  1  0  0  0  0
 13 36  1  0  0  0  0
 14 37  1  0  0  0  0
 14 38  1  0  0  0  0
 14 39  1  0  0  0  0
 15 19  1  0  0  0  0
 15 16  1  0  0  0  0
 15 40  1  0  0  0  0
 16 17  1  0  0  0  0
 16 41  1  0  0  0  0
 16 42  1  0  0  0  0
 17 18  1  0  0  0  0
 17 43  1  0  0  0  0
 17 44  1  0  0  0  0
 18 19  1  0  0  0  0
 18 45  1  0  0  0  0
 18 46  1  0  0  0  0
 20 21  2  0  0  0  0
 20 47  1  0  0  0  0
 22 23  1  0  0  0  0
 22 48  1  0  0  0  0
 22 49  1  0  0  0  0
 23 24  1  0  0  0  0
 23 25  1  0  0  0  0
 23 50  1  0  0  0  0
 24 51  1  0  0  0  0
 24 52  1  0  0  0  0
 24 53  1  0  0  0  0
M  END
> <s_m_source_file>
AV-unprocessed.smi

> <i_m_source_file_index>
1413

> <i_lp_mmshare_version>
43012

> <i_f3d_flags>
0

> <s_epik_input>
W0NIM11bQ0BASF0xW0NIMl1OKFtDSDJdW0NASF0oTzEpW0NIM10pYzJbY0hdW2NIXWMoW2NIXW4yKVtOSF1DKD1PKVtOSF1bQ0BIXShbQ0gzXSlbQ0BASF0zW0NIMl1bQ0gyXVtDSDJdTzM=

> <s_epik_cmdline>
J2VwaWtfcHl0aG9uJywgJy1waCcsICc3LjAnLCAnLXRuJywgJzgnLCAnLW1hJywgJzIwMCcsICctbWV0YWxfYmluZGluZycsICctaW1hZScsICc8aW5maWxlLm1hZT4nLCAnLW9tYWUnLCAnPG91dGZpbGUubWFlPic=

> <r_lp_tautomer_probability>
1

> <r_epik_Ionization_Penalty>
0.00271172

> <r_epik_Ionization_Penalty_Charging>
0

> <r_epik_Ionization_Penalty_Neutral>
0.00271172

> <r_epik_State_Penalty>
0.00186503

> <r_epik_Charging_Adjusted_Penalty>
0.00186503

> <i_epik_Tot_Q>
0

> <i_epik_Tot_abs_Q>
0

> <r_epik_Metal_State_Penalty>
-0

> <b_epik_Metal_Only>
0

> <s_lp_Force_Field>
OPLS_2005

> <r_lp_Energy>
36.1069

> <b_lp_Chiralities_Consistent>
1

> <s_lp_Variant>
AV-unprocessed.smi:1413-1

> <Gold.Version>
5.8.1

> <Gold.Id.Protein>
6NUR|6NUR_protein|mol2

> <Gold.PLP.Fitness>
47.9739

> <Gold.PLP.PLP>
-43.5858

> <Gold.PLP.part.hbond>
-1.9983

> <Gold.PLP.part.metal>
0.0000

> <Gold.PLP.part.buried>
-5.8238

> <Gold.PLP.part.nonpolar>
-37.3267

> <Gold.PLP.part.repulsive>
0.4384

> <Gold.PLP.ligand.clash>
0.0000

> <Gold.PLP.ligand.torsion>
0.4660

> <Gold.PLP.Chemscore.Hbond>
1.6491

> <Gold.PLP.Chemscore.CHOScore>
0.0000

> <Gold.PLP.Chemscore.Metal>
0.0000

> <Gold.Chemscore.Hbonds>
donor molecule, donor type, donor heavy atom, donor atom, acceptor molecule, acceptor atom, score
      L1  H     9    34       P1  7948  0.63
      L1  H    12    35       P1  7948  1.00

> <Gold.PLP.Chemscore.Internal.Correction>
0.3729

> <Gold.Rescore>
     Score         DG    S(hbond)    S(metal)    S(lipo)     H(rot)  DE(clash)    DE(int)     intcor
     17.77     -21.14       1.62        0.00     117.08       1.35       0.43       2.94       ----

> <Gold.Chemscore.Fitness>
17.7707

> <Gold.Chemscore.DG>
-21.1380

> <Gold.Chemscore.ZeroCoef>
-5.4800

> <Gold.Chemscore.Hbond>
1.6193

> <Gold.Chemscore.Metal>
0.0000

> <Gold.Chemscore.Lipo>
117.0770

> <Gold.Chemscore.Internal_Hbond>
0.0000

> <Gold.Chemscore.DEClash>
0.4309

> <Gold.Chemscore.DEInternal>
2.9365

> <Gold.Chemscore.Rot>
1.3471

> <Gold.Chemscore.Internal.Correction>
   9.000000E+99

> <Gold.Chemscore.Hbonds>
donor molecule, donor type, donor heavy atom, donor atom, acceptor molecule, acceptor atom, score
      L1  H     9    34       P1  7948  0.61
      L1  H    12    35       P1  7948  0.95

> <Gold.Chemscore.Hbond.Weighted>
-5.4085

> <Gold.Chemscore.Metal.Weighted>
-0.0000

> <Gold.Chemscore.Lipo.Weighted>
-13.6980

> <Gold.Chemscore.Internal_Hbond.Weighted>
0.0000

> <Gold.Chemscore.DEClash.Weighted>
0.4309

> <Gold.Chemscore.DEInternal.Weighted>
2.9365

> <Gold.Chemscore.Rot.Weighted>
3.4485

> <Gold.Chemscore.Internal.Correction.Weighted>
   9.000000E+99

> <Gold.Protein.RotatedTorsions>
[ 6907 6896 6895 6894 ] final  166.78 input  -60.11 | X-H torsion
[ 7974 7965 7964 7962 ] final   50.41 input  175.53 | X-H torsion
[ 8008 7997 7996 7995 ] final  179.50 input   59.86 | X-H torsion
[ 10167 10162 10161 10158 ] final  156.78 input  -65.29 | X-H torsion
[ 10718 10713 10712 10709 ] final   34.46 input   66.30 | X-H torsion
[ 10763 10752 10751 10750 ] final   50.41 input  -60.55 | X-H torsion
[ 11005 11000 10999 10996 ] final  -72.20 input  -57.11 | X-H torsion

> <Gold.Protein.ActiveResidues>
 VAL166  LYS551  ARG553  GLY616  TRP617  ASP618  TYR619  PRO620  LYS621  CYS622 
 ASP623  PHE694  ASN695  SER759  ASP760  ASP761  ALA762  ILE779  LEU786  VAL792 
 PHE793  MET794  SER795  GLU796  ALA797  LYS798  CYS799  TRP800  GLU811  SER814 

> <Gold.Protein.RotatedAtoms>
  151.8736  133.3480  159.3742 H   0  0  0  0  0  0  0  0  0  0  0  0  # atno 6907 bound_to 6896
  150.7146  134.5089  159.5607 H   0  0  0  0  0  0  0  0  0  0  0  0  # atno 6908 bound_to 6896
  152.2626  134.8018  160.0479 H   0  0  0  0  0  0  0  0  0  0  0  0  # atno 6909 bound_to 6896
  146.0014  139.4444  143.0012 H   0  0  0  0  0  0  0  0  0  0  0  0  # atno 7974 bound_to 7965
  156.0427  140.1307  157.0138 H   0  0  0  0  0  0  0  0  0  0  0  0  # atno 8008 bound_to 7997
  154.4398  140.1027  156.6331 H   0  0  0  0  0  0  0  0  0  0  0  0  # atno 8009 bound_to 7997
  155.5642  140.3465  155.4501 H   0  0  0  0  0  0  0  0  0  0  0  0  # atno 8010 bound_to 7997
  139.4822  144.4978  151.8214 H   0  0  0  0  0  0  0  0  0  0  0  0  # atno 10167 bound_to 10162
  157.3106  130.7397  149.6722 H   0  0  0  0  0  0  0  0  0  0  0  0  # atno 10718 bound_to 10713
  152.9785  135.5880  154.4248 H   0  0  0  0  0  0  0  0  0  0  0  0  # atno 10763 bound_to 10752
  154.3868  135.2767  155.2180 H   0  0  0  0  0  0  0  0  0  0  0  0  # atno 10764 bound_to 10752
  154.4070  135.6090  153.5984 H   0  0  0  0  0  0  0  0  0  0  0  0  # atno 10765 bound_to 10752
  141.1605  133.6840  156.7022 H   0  0  0  0  0  0  0  0  0  0  0  0  # atno 11005 bound_to 11000
  145.7481  140.9983  143.1265 LP  0  0  0  0  0  0  0  0  0  0  0  0  # atno 17320 bound_to 7965
  144.6921  139.9181  143.7466 LP  0  0  0  0  0  0  0  0  0  0  0  0  # atno 17321 bound_to 7965
  140.4468  144.1910  150.5894 LP  0  0  0  0  0  0  0  0  0  0  0  0  # atno 17342 bound_to 10162
  140.4626  143.2443  151.9199 LP  0  0  0  0  0  0  0  0  0  0  0  0  # atno 17343 bound_to 10162
  155.9677  130.4252  150.4645 LP  0  0  0  0  0  0  0  0  0  0  0  0  # atno 17370 bound_to 10713
  157.2642  131.0573  151.2301 LP  0  0  0  0  0  0  0  0  0  0  0  0  # atno 17371 bound_to 10713
  140.2950  134.8210  157.4049 LP  0  0  0  0  0  0  0  0  0  0  0  0  # atno 17394 bound_to 11000
  140.1313  134.5092  155.8103 LP  0  0  0  0  0  0  0  0  0  0  0  0  # atno 17395 bound_to 11000

$$$$
