AV-unprocessed.smi:2881|AV-procd|sdf|11068|dock10
  -GOLD-   2272015543D 1   1.00000     0.00000
 Structure written by MMmdl.
 40 42  0  0  0  0  0  0  0  0  1 V2000
  151.7128  130.6146  157.3735 C   0  0  0  0  0  0  0  0  0  0  0  0
  151.0892  131.7729  156.6522 C   0  0  0  0  0  0  0  0  0  0  0  0
  150.5872  131.8126  155.3181 C   0  0  0  0  0  0  0  0  0  0  0  0
  150.1348  133.0935  155.1648 C   0  0  0  0  0  0  0  0  0  0  0  0
  149.4966  133.7833  154.0023 C   0  0  0  0  0  0  0  0  0  0  0  0
  148.1328  133.1712  153.6854 C   0  0  0  0  0  0  0  0  0  0  0  0
  147.7990  132.1072  154.2064 O   0  0  0  0  0  0  0  0  0  0  0  0
  147.3544  133.8535  152.8321 N   0  0  0  0  0  0  0  0  0  0  0  0
  146.0205  133.4393  152.4038 C   0  0  1  0  0  0  0  0  0  0  0  0
  144.9225  134.4924  152.7002 C   0  0  1  0  0  0  0  0  0  0  0  0
  145.3151  135.8864  152.1647 C   0  0  0  0  0  0  0  0  0  0  0  0
  145.2271  135.6969  150.6389 C   0  0  0  0  0  0  0  0  0  0  0  0
  144.7672  134.2321  150.5027 C   0  0  2  0  0  0  0  0  0  0  0  0
  143.8408  134.0924  151.7054 C   0  0  0  0  0  0  0  0  0  0  0  0
  145.9423  133.2905  150.8622 C   0  0  2  0  0  0  0  0  0  0  0  0
  145.7268  131.8308  150.4169 C   0  0  0  0  0  0  0  0  0  0  0  0
  146.5657  130.9635  151.1502 O   0  0  0  0  0  0  0  0  0  0  0  0
  150.3788  133.7314  156.3601 N   0  0  0  0  0  0  0  0  0  0  0  0
  150.9606  132.9347  157.2757 N   0  0  0  0  0  0  0  0  0  0  0  0
  150.1534  134.6952  156.5626 H   0  0  0  0  0  0  0  0  0  0  0  0
  151.6088  129.6923  156.8015 H   0  0  0  0  0  0  0  0  0  0  0  0
  151.2441  130.4557  158.3450 H   0  0  0  0  0  0  0  0  0  0  0  0
  152.7770  130.7839  157.5396 H   0  0  0  0  0  0  0  0  0  0  0  0
  150.5629  131.0194  154.5855 H   0  0  0  0  0  0  0  0  0  0  0  0
  150.1409  133.7135  153.1248 H   0  0  0  0  0  0  0  0  0  0  0  0
  149.3766  134.8466  154.2145 H   0  0  0  0  0  0  0  0  0  0  0  0
  147.7091  134.7185  152.4508 H   0  0  0  0  0  0  0  0  0  0  0  0
  145.7600  132.4952  152.8871 H   0  0  0  0  0  0  0  0  0  0  0  0
  144.6004  134.5034  153.7420 H   0  0  0  0  0  0  0  0  0  0  0  0
  144.5953  136.6369  152.4938 H   0  0  0  0  0  0  0  0  0  0  0  0
  146.3005  136.2185  152.4914 H   0  0  0  0  0  0  0  0  0  0  0  0
  144.4895  136.3774  150.2117 H   0  0  0  0  0  0  0  0  0  0  0  0
  146.1790  135.8826  150.1403 H   0  0  0  0  0  0  0  0  0  0  0  0
  144.3036  134.0177  149.5395 H   0  0  0  0  0  0  0  0  0  0  0  0
  143.4662  133.0794  151.8576 H   0  0  0  0  0  0  0  0  0  0  0  0
  142.9954  134.7825  151.6827 H   0  0  0  0  0  0  0  0  0  0  0  0
  146.8588  133.6528  150.3922 H   0  0  0  0  0  0  0  0  0  0  0  0
  144.6925  131.5340  150.5932 H   0  0  0  0  0  0  0  0  0  0  0  0
  145.9201  131.7036  149.3518 H   0  0  0  0  0  0  0  0  0  0  0  0
  147.3181  130.7521  150.6188 H   0  0  0  0  0  0  0  0  0  0  0  0
  1 21  1  0  0  0  0
  1 22  1  0  0  0  0
  1 23  1  0  0  0  0
  1  2  1  0  0  0  0
  2 19  2  0  0  0  0
  2  3  1  0  0  0  0
  3  4  2  0  0  0  0
  3 24  1  0  0  0  0
  4 18  1  0  0  0  0
  4  5  1  0  0  0  0
  5  6  1  0  0  0  0
  5 25  1  0  0  0  0
  5 26  1  0  0  0  0
  6  7  2  0  0  0  0
  6  8  1  0  0  0  0
  8  9  1  0  0  0  0
  8 27  1  0  0  0  0
  9 15  1  0  0  0  0
  9 10  1  0  0  0  0
  9 28  1  0  0  0  0
 10 14  1  0  0  0  0
 10 11  1  0  0  0  0
 10 29  1  0  0  0  0
 11 12  1  0  0  0  0
 11 30  1  0  0  0  0
 11 31  1  0  0  0  0
 12 13  1  0  0  0  0
 12 32  1  0  0  0  0
 12 33  1  0  0  0  0
 13 14  1  0  0  0  0
 13 15  1  0  0  0  0
 13 34  1  0  0  0  0
 14 35  1  0  0  0  0
 14 36  1  0  0  0  0
 15 16  1  0  0  0  0
 15 37  1  0  0  0  0
 16 17  1  0  0  0  0
 16 38  1  0  0  0  0
 16 39  1  0  0  0  0
 17 40  1  0  0  0  0
 18 19  1  0  0  0  0
 18 20  1  0  0  0  0
M  END
> <s_m_source_file>
AV-unprocessed.smi

> <i_m_source_file_index>
2881

> <i_lp_mmshare_version>
43012

> <i_f3d_flags>
0

> <s_epik_input>
W0NIM11jMVtjSF1jKG5bbkhdMSlbQ0gyXUMoPU8pW05IXVtDQEhdKFtDQEBIXTIzKVtDQEhdKFtDSDJdW09IXSlbQ0BASF0oW0NIMl0zKVtDSDJdW0NIMl0y

> <s_epik_cmdline>
J2VwaWtfcHl0aG9uJywgJy1waCcsICc3LjAnLCAnLXRuJywgJzgnLCAnLW1hJywgJzIwMCcsICctbWV0YWxfYmluZGluZycsICctaW1hZScsICc8aW5maWxlLm1hZT4nLCAnLW9tYWUnLCAnPG91dGZpbGUubWFlPic=

> <r_lp_tautomer_probability>
0.5

> <r_epik_Ionization_Penalty>
0.00013396

> <r_epik_Ionization_Penalty_Charging>
0

> <r_epik_Ionization_Penalty_Neutral>
0.00013396

> <r_epik_State_Penalty>
0.41068

> <r_epik_Charging_Adjusted_Penalty>
0.41068

> <i_epik_Tot_Q>
0

> <i_epik_Tot_abs_Q>
0

> <r_epik_Metal_State_Penalty>
0.41066

> <b_epik_Metal_Only>
0

> <s_lp_Force_Field>
OPLS_2005

> <r_lp_Energy>
46.8949

> <b_lp_Chiralities_Consistent>
1

> <s_lp_Variant>
AV-unprocessed.smi:2881-14

> <Gold.Version>
5.8.1

> <Gold.Id.Protein>
6NUR|6NUR_protein|mol2

> <Gold.PLP.Fitness>
40.6485

> <Gold.PLP.PLP>
-32.2901

> <Gold.PLP.part.hbond>
-3.0000

> <Gold.PLP.part.metal>
0.0000

> <Gold.PLP.part.buried>
-4.6665

> <Gold.PLP.part.nonpolar>
-25.1353

> <Gold.PLP.part.repulsive>
0.1438

> <Gold.PLP.ligand.clash>
0.0000

> <Gold.PLP.ligand.torsion>
0.3183

> <Gold.PLP.Chemscore.Hbond>
2.9920

> <Gold.PLP.Chemscore.CHOScore>
0.0000

> <Gold.PLP.Chemscore.Metal>
0.0000

> <Gold.Chemscore.Hbonds>
donor molecule, donor type, donor heavy atom, donor atom, acceptor molecule, acceptor atom, score
      L1  H     8    27       P1  7948  1.00
      L1  H    17    40       P1 10747  1.00
      P1  H  6896  6907       L1    19  0.96

> <Gold.PLP.Chemscore.Internal.Correction>
0.0189

> <Gold.Rescore>
     Score         DG    S(hbond)    S(metal)    S(lipo)     H(rot)  DE(clash)    DE(int)     intcor
     16.99     -17.63       2.85        0.00      72.33       2.28       0.02       0.62       ----

> <Gold.Chemscore.Fitness>
16.9878

> <Gold.Chemscore.DG>
-17.6275

> <Gold.Chemscore.ZeroCoef>
-5.4800

> <Gold.Chemscore.Hbond>
2.8472

> <Gold.Chemscore.Metal>
0.0000

> <Gold.Chemscore.Lipo>
72.3344

> <Gold.Chemscore.Internal_Hbond>
0.0000

> <Gold.Chemscore.DEClash>
0.0189

> <Gold.Chemscore.DEInternal>
0.6209

> <Gold.Chemscore.Rot>
2.2755

> <Gold.Chemscore.Internal.Correction>
   9.000000E+99

> <Gold.Chemscore.Hbonds>
donor molecule, donor type, donor heavy atom, donor atom, acceptor molecule, acceptor atom, score
      L1  H     8    27       P1  7948  0.78
      L1  H    17    40       P1 10747  0.97
      P1  H  6896  6907       L1    19  0.86

> <Gold.Chemscore.Hbond.Weighted>
-9.5096

> <Gold.Chemscore.Metal.Weighted>
-0.0000

> <Gold.Chemscore.Lipo.Weighted>
-8.4631

> <Gold.Chemscore.Internal_Hbond.Weighted>
0.0000

> <Gold.Chemscore.DEClash.Weighted>
0.0189

> <Gold.Chemscore.DEInternal.Weighted>
0.6209

> <Gold.Chemscore.Rot.Weighted>
5.8252

> <Gold.Chemscore.Internal.Correction.Weighted>
   9.000000E+99

> <Gold.Protein.RotatedTorsions>
[ 6907 6896 6895 6894 ] final -141.33 input  -60.11 | X-H torsion
[ 7974 7965 7964 7962 ] final  108.42 input  175.53 | X-H torsion
[ 8008 7997 7996 7995 ] final -116.57 input   59.86 | X-H torsion
[ 10167 10162 10161 10158 ] final -163.14 input  -65.29 | X-H torsion
[ 10718 10713 10712 10709 ] final  -22.66 input   66.30 | X-H torsion
[ 10763 10752 10751 10750 ] final  132.88 input  -60.55 | X-H torsion
[ 11005 11000 10999 10996 ] final -106.14 input  -57.11 | X-H torsion

> <Gold.Protein.ActiveResidues>
 VAL166  LYS551  ARG553  GLY616  TRP617  ASP618  TYR619  PRO620  LYS621  CYS622 
 ASP623  PHE694  ASN695  SER759  ASP760  ASP761  ALA762  ILE779  LEU786  VAL792 
 PHE793  MET794  SER795  GLU796  ALA797  LYS798  CYS799  TRP800  GLU811  SER814 

> <Gold.Protein.RotatedAtoms>
  151.0724  133.5456  159.2625 H   0  0  0  0  0  0  0  0  0  0  0  0  # atno 6907 bound_to 6896
  151.2390  135.0581  159.9027 H   0  0  0  0  0  0  0  0  0  0  0  0  # atno 6908 bound_to 6896
  152.5413  134.0501  159.8160 H   0  0  0  0  0  0  0  0  0  0  0  0  # atno 6909 bound_to 6896
  145.2809  139.2633  143.3916 H   0  0  0  0  0  0  0  0  0  0  0  0  # atno 7974 bound_to 7965
  155.0699  140.0393  157.2605 H   0  0  0  0  0  0  0  0  0  0  0  0  # atno 8008 bound_to 7997
  154.6991  140.2669  155.6713 H   0  0  0  0  0  0  0  0  0  0  0  0  # atno 8009 bound_to 7997
  156.2754  140.2744  156.1595 H   0  0  0  0  0  0  0  0  0  0  0  0  # atno 8010 bound_to 7997
  139.6342  144.0381  152.2041 H   0  0  0  0  0  0  0  0  0  0  0  0  # atno 10167 bound_to 10162
  156.5015  130.4589  149.6698 H   0  0  0  0  0  0  0  0  0  0  0  0  # atno 10718 bound_to 10713
  153.7980  135.3146  155.3387 H   0  0  0  0  0  0  0  0  0  0  0  0  # atno 10763 bound_to 10752
  154.8100  135.4673  154.0494 H   0  0  0  0  0  0  0  0  0  0  0  0  # atno 10764 bound_to 10752
  153.1833  135.6897  153.8536 H   0  0  0  0  0  0  0  0  0  0  0  0  # atno 10765 bound_to 10752
  141.1019  133.8868  157.1819 H   0  0  0  0  0  0  0  0  0  0  0  0  # atno 11005 bound_to 11000
  146.3217  140.3276  142.8638 LP  0  0  0  0  0  0  0  0  0  0  0  0  # atno 17320 bound_to 7965
  144.9254  140.7915  143.5722 LP  0  0  0  0  0  0  0  0  0  0  0  0  # atno 17321 bound_to 7965
  140.0054  144.6262  150.7693 LP  0  0  0  0  0  0  0  0  0  0  0  0  # atno 17342 bound_to 10162
  140.7456  143.2878  151.3414 LP  0  0  0  0  0  0  0  0  0  0  0  0  # atno 17343 bound_to 10162
  156.3328  130.7340  151.2273 LP  0  0  0  0  0  0  0  0  0  0  0  0  # atno 17370 bound_to 10713
  157.7462  131.0425  150.4698 LP  0  0  0  0  0  0  0  0  0  0  0  0  # atno 17371 bound_to 10713
  139.9874  135.0077  156.9895 LP  0  0  0  0  0  0  0  0  0  0  0  0  # atno 17394 bound_to 11000
  140.4999  134.1107  155.7248 LP  0  0  0  0  0  0  0  0  0  0  0  0  # atno 17395 bound_to 11000

$$$$
