AV-unprocessed.smi:1482|AV-procd|sdf|5988|dock3
  -GOLD-   22720 6 83D 1   1.00000     0.00000
 Structure written by MMmdl.
 36 37  0  0  0  0  0  0  0  0  1 V2000
  156.0164  138.7746  159.1791 C   0  0  0  0  0  0  0  0  0  0  0  0
  154.9201  139.6678  159.0896 O   0  0  0  0  0  0  0  0  0  0  0  0
  155.0096  140.7308  160.0233 C   0  0  0  0  0  0  0  0  0  0  0  0
  153.6031  141.0908  160.5091 C   0  0  0  0  0  0  0  0  0  0  0  0
  152.7759  141.3140  159.3719 O   0  0  0  0  0  0  0  0  0  0  0  0
  152.3366  142.5967  159.1096 C   0  0  0  0  0  0  0  0  0  0  0  0
  152.6464  143.5772  159.9955 N   0  0  0  0  0  0  0  0  0  0  0  0
  152.2295  144.8343  159.7383 C   0  0  0  0  0  0  0  0  0  0  0  0
  151.4860  145.1814  158.5949 C   0  0  0  0  0  0  0  0  0  0  0  0
  151.1624  144.1658  157.6767 C   0  0  0  0  0  0  0  0  0  0  0  0
  151.5903  142.8459  157.9324 C   0  0  0  0  0  0  0  0  0  0  0  0
  151.2543  141.7344  156.9477 C   0  0  0  0  0  0  0  0  0  0  0  0
  150.0984  142.0437  156.1140 N   0  0  0  0  0  0  0  0  0  0  0  0
  149.6750  141.2977  155.0822 C   0  0  0  0  0  0  0  0  0  0  0  0
  150.2313  140.2544  154.7359 O   0  0  0  0  0  0  0  0  0  0  0  0
  148.4694  141.8471  154.3922 C   0  0  0  0  0  0  0  0  0  0  0  0
  147.1783  141.9162  155.1824 C   0  0  0  0  0  0  0  0  0  0  0  0
  147.3347  140.8897  154.0888 C   0  0  0  0  0  0  0  0  0  0  0  0
  155.9004  137.9773  158.4451 H   0  0  0  0  0  0  0  0  0  0  0  0
  156.0729  138.3164  160.1674 H   0  0  0  0  0  0  0  0  0  0  0  0
  156.9584  139.2850  158.9755 H   0  0  0  0  0  0  0  0  0  0  0  0
  155.6321  140.4365  160.8698 H   0  0  0  0  0  0  0  0  0  0  0  0
  155.4756  141.6000  159.5568 H   0  0  0  0  0  0  0  0  0  0  0  0
  153.2022  140.2756  161.1138 H   0  0  0  0  0  0  0  0  0  0  0  0
  153.6480  141.9860  161.1315 H   0  0  0  0  0  0  0  0  0  0  0  0
  152.4975  145.5863  160.4657 H   0  0  0  0  0  0  0  0  0  0  0  0
  151.1732  146.2011  158.4263 H   0  0  0  0  0  0  0  0  0  0  0  0
  150.5939  144.3976  156.7881 H   0  0  0  0  0  0  0  0  0  0  0  0
  152.1067  141.4825  156.3159 H   0  0  0  0  0  0  0  0  0  0  0  0
  151.0273  140.8329  157.5170 H   0  0  0  0  0  0  0  0  0  0  0  0
  149.5848  142.8842  156.3358 H   0  0  0  0  0  0  0  0  0  0  0  0
  148.6432  142.6418  153.6680 H   0  0  0  0  0  0  0  0  0  0  0  0
  147.1761  141.5556  156.2097 H   0  0  0  0  0  0  0  0  0  0  0  0
  146.5297  142.7692  154.9942 H   0  0  0  0  0  0  0  0  0  0  0  0
  146.7925  141.0469  153.1587 H   0  0  0  0  0  0  0  0  0  0  0  0
  147.4355  139.8489  154.3914 H   0  0  0  0  0  0  0  0  0  0  0  0
  1  2  1  0  0  0  0
  1 19  1  0  0  0  0
  1 20  1  0  0  0  0
  1 21  1  0  0  0  0
  2  3  1  0  0  0  0
  3  4  1  0  0  0  0
  3 22  1  0  0  0  0
  3 23  1  0  0  0  0
  4  5  1  0  0  0  0
  4 24  1  0  0  0  0
  4 25  1  0  0  0  0
  5  6  1  0  0  0  0
  6 11  1  0  0  0  0
  6  7  2  0  0  0  0
  7  8  1  0  0  0  0
  8  9  2  0  0  0  0
  8 26  1  0  0  0  0
  9 10  1  0  0  0  0
  9 27  1  0  0  0  0
 10 11  2  0  0  0  0
 10 28  1  0  0  0  0
 11 12  1  0  0  0  0
 12 13  1  0  0  0  0
 12 29  1  0  0  0  0
 12 30  1  0  0  0  0
 13 14  1  0  0  0  0
 13 31  1  0  0  0  0
 14 15  2  0  0  0  0
 14 16  1  0  0  0  0
 16 18  1  0  0  0  0
 16 17  1  0  0  0  0
 16 32  1  0  0  0  0
 17 18  1  0  0  0  0
 17 33  1  0  0  0  0
 17 34  1  0  0  0  0
 18 35  1  0  0  0  0
 18 36  1  0  0  0  0
M  END
> <s_m_source_file>
AV-unprocessed.smi

> <i_m_source_file_index>
1482

> <i_lp_mmshare_version>
43012

> <i_f3d_flags>
0

> <s_epik_input>
W0NIM11PW0NIMl1bQ0gyXU9jMW5bY0hdW2NIXVtjSF1jMVtDSDJdW05IXUMoPU8pW0NIXTJbQ0gyXVtDSDJdMg==

> <s_epik_cmdline>
J2VwaWtfcHl0aG9uJywgJy1waCcsICc3LjAnLCAnLXRuJywgJzgnLCAnLW1hJywgJzIwMCcsICctbWV0YWxfYmluZGluZycsICctaW1hZScsICc8aW5maWxlLm1hZT4nLCAnLW9tYWUnLCAnPG91dGZpbGUubWFlPic=

> <r_lp_tautomer_probability>
1

> <r_epik_Ionization_Penalty>
6.12052e-05

> <r_epik_Ionization_Penalty_Charging>
0

> <r_epik_Ionization_Penalty_Neutral>
6.12052e-05

> <r_epik_State_Penalty>
-0

> <r_epik_Charging_Adjusted_Penalty>
0

> <i_epik_Tot_Q>
0

> <i_epik_Tot_abs_Q>
0

> <r_epik_Metal_State_Penalty>
-0

> <b_epik_Metal_Only>
0

> <s_lp_Force_Field>
OPLS_2005

> <r_lp_Energy>
6.94905

> <b_lp_Chiralities_Consistent>
1

> <s_lp_Variant>
AV-unprocessed.smi:1482-1

> <Gold.Version>
5.8.1

> <Gold.Id.Protein>
6NUR|6NUR_protein|mol2

> <Gold.PLP.Fitness>
45.2994

> <Gold.PLP.PLP>
-38.4170

> <Gold.PLP.part.hbond>
-3.0000

> <Gold.PLP.part.metal>
0.0000

> <Gold.PLP.part.buried>
-1.3587

> <Gold.PLP.part.nonpolar>
-32.7652

> <Gold.PLP.part.repulsive>
0.1999

> <Gold.PLP.ligand.clash>
0.0000

> <Gold.PLP.ligand.torsion>
1.1433

> <Gold.PLP.Chemscore.Hbond>
2.9833

> <Gold.PLP.Chemscore.CHOScore>
0.0000

> <Gold.PLP.Chemscore.Metal>
0.0000

> <Gold.Chemscore.Hbonds>
donor molecule, donor type, donor heavy atom, donor atom, acceptor molecule, acceptor atom, score
      L1  H    13    31       P1  8028  0.81
      P1  H  7989  7998       L1    15  1.00
      P1  H  7997  8008       L1     2  1.00

> <Gold.PLP.Chemscore.Internal.Correction>
0.2191

> <Gold.Rescore>
     Score         DG    S(hbond)    S(metal)    S(lipo)     H(rot)  DE(clash)    DE(int)     intcor
     17.08     -19.10       2.39        0.00      96.51       2.21       0.74       1.29       ----

> <Gold.Chemscore.Fitness>
17.0764

> <Gold.Chemscore.DG>
-19.1041

> <Gold.Chemscore.ZeroCoef>
-5.4800

> <Gold.Chemscore.Hbond>
2.3949

> <Gold.Chemscore.Metal>
0.0000

> <Gold.Chemscore.Lipo>
96.5075

> <Gold.Chemscore.Internal_Hbond>
0.0000

> <Gold.Chemscore.DEClash>
0.7381

> <Gold.Chemscore.DEInternal>
1.2895

> <Gold.Chemscore.Rot>
2.2134

> <Gold.Chemscore.Internal.Correction>
   9.000000E+99

> <Gold.Chemscore.Hbonds>
donor molecule, donor type, donor heavy atom, donor atom, acceptor molecule, acceptor atom, score
      L1  H    13    31       P1  8028  0.78
      P1  H  7989  7998       L1    15  0.38
      P1  H  7997  8008       L1     2  0.24

> <Gold.Chemscore.Hbond.Weighted>
-7.9990

> <Gold.Chemscore.Metal.Weighted>
-0.0000

> <Gold.Chemscore.Lipo.Weighted>
-11.2914

> <Gold.Chemscore.Internal_Hbond.Weighted>
0.0000

> <Gold.Chemscore.DEClash.Weighted>
0.7381

> <Gold.Chemscore.DEInternal.Weighted>
1.2895

> <Gold.Chemscore.Rot.Weighted>
5.6663

> <Gold.Chemscore.Internal.Correction.Weighted>
   9.000000E+99

> <Gold.Protein.RotatedTorsions>
[ 6907 6896 6895 6894 ] final -100.16 input  -60.11 | X-H torsion
[ 7974 7965 7964 7962 ] final -152.36 input  175.53 | X-H torsion
[ 8008 7997 7996 7995 ] final -109.37 input   59.86 | X-H torsion
[ 10167 10162 10161 10158 ] final  107.84 input  -65.29 | X-H torsion
[ 10718 10713 10712 10709 ] final   13.00 input   66.30 | X-H torsion
[ 10763 10752 10751 10750 ] final  162.31 input  -60.55 | X-H torsion
[ 11005 11000 10999 10996 ] final   85.60 input  -57.11 | X-H torsion

> <Gold.Protein.ActiveResidues>
 VAL166  LYS551  ARG553  GLY616  TRP617  ASP618  TYR619  PRO620  LYS621  CYS622 
 ASP623  PHE694  ASN695  SER759  ASP760  ASP761  ALA762  ILE779  LEU786  VAL792 
 PHE793  MET794  SER795  GLU796  ALA797  LYS798  CYS799  TRP800  GLU811  SER814 

> <Gold.Protein.RotatedAtoms>
  150.7106  134.0929  159.3937 H   0  0  0  0  0  0  0  0  0  0  0  0  # atno 6907 bound_to 6896
  151.8915  135.0412  160.0507 H   0  0  0  0  0  0  0  0  0  0  0  0  # atno 6908 bound_to 6896
  152.2488  133.5162  159.5349 H   0  0  0  0  0  0  0  0  0  0  0  0  # atno 6909 bound_to 6896
  144.7798  140.4672  143.5847 H   0  0  0  0  0  0  0  0  0  0  0  0  # atno 7974 bound_to 7965
  154.9583  140.0399  157.2177 H   0  0  0  0  0  0  0  0  0  0  0  0  # atno 8008 bound_to 7997
  154.7913  140.2836  155.5967 H   0  0  0  0  0  0  0  0  0  0  0  0  # atno 8009 bound_to 7997
  156.2950  140.2573  156.2761 H   0  0  0  0  0  0  0  0  0  0  0  0  # atno 8010 bound_to 7997
  139.6894  144.7109  151.1374 H   0  0  0  0  0  0  0  0  0  0  0  0  # atno 10167 bound_to 10162
  157.0183  130.6144  149.5717 H   0  0  0  0  0  0  0  0  0  0  0  0  # atno 10718 bound_to 10713
  154.2764  135.2764  155.2716 H   0  0  0  0  0  0  0  0  0  0  0  0  # atno 10763 bound_to 10752
  154.5257  135.5744  153.6720 H   0  0  0  0  0  0  0  0  0  0  0  0  # atno 10764 bound_to 10752
  152.9936  135.6215  154.2921 H   0  0  0  0  0  0  0  0  0  0  0  0  # atno 10765 bound_to 10752
  139.8967  134.8297  156.2604 H   0  0  0  0  0  0  0  0  0  0  0  0  # atno 11005 bound_to 11000
  145.6082  139.1510  143.3091 LP  0  0  0  0  0  0  0  0  0  0  0  0  # atno 17320 bound_to 7965
  146.2000  140.6199  142.9107 LP  0  0  0  0  0  0  0  0  0  0  0  0  # atno 17321 bound_to 7965
  140.7678  143.5581  150.9129 LP  0  0  0  0  0  0  0  0  0  0  0  0  # atno 17342 bound_to 10162
  139.9258  143.6552  152.3087 LP  0  0  0  0  0  0  0  0  0  0  0  0  # atno 17343 bound_to 10162
  156.0111  130.5203  150.7991 LP  0  0  0  0  0  0  0  0  0  0  0  0  # atno 17370 bound_to 10713
  157.5269  131.0934  151.0006 LP  0  0  0  0  0  0  0  0  0  0  0  0  # atno 17371 bound_to 10713
  141.0166  133.7065  156.1199 LP  0  0  0  0  0  0  0  0  0  0  0  0  # atno 17394 bound_to 11000
  140.7293  134.4273  157.5567 LP  0  0  0  0  0  0  0  0  0  0  0  0  # atno 17395 bound_to 11000

$$$$
