AV-unprocessed.smi:1761|AV-procd|sdf|7097|dock4
  -GOLD-   22720 8313D 1   1.00000     0.00000
 Structure written by MMmdl.
 34 35  0  0  0  0  0  0  0  0  1 V2000
  150.7897  140.9350  156.6671 O   0  0  0  0  0  0  0  0  0  0  0  0
  150.2545  141.9873  156.3173 C   0  0  0  0  0  0  0  0  0  0  0  0
  149.3370  142.1075  155.3415 N   0  0  0  0  0  0  0  0  0  0  0  0
  148.8106  141.0912  154.4997 C   0  0  0  0  0  0  0  0  0  0  0  0
  147.6868  141.4727  153.7322 C   0  0  0  0  0  0  0  0  0  0  0  0
  147.0928  140.5389  152.8612 C   0  0  0  0  0  0  0  0  0  0  0  0
  147.6389  139.2456  152.7792 C   0  0  0  0  0  0  0  0  0  0  0  0
  148.7579  138.9470  153.5779 C   0  0  0  0  0  0  0  0  0  0  0  0
  149.3286  139.8404  154.4137 N   0  0  0  0  0  0  0  0  0  0  0  0
  150.5265  143.1758  156.8759 N   0  0  0  0  0  0  0  0  0  0  0  0
  151.4826  143.4026  157.9580 C   0  0  2  0  0  0  0  0  0  0  0  0
  151.3981  142.2677  158.9973 C   0  0  0  0  0  0  0  0  0  0  0  0
  152.4027  142.4838  160.1409 C   0  0  0  0  0  0  0  0  0  0  0  0
  152.2064  143.8546  160.8078 C   0  0  0  0  0  0  0  0  0  0  0  0
  152.2765  144.9981  159.7793 C   0  0  0  0  0  0  0  0  0  0  0  0
  151.2916  144.7938  158.6117 C   0  0  2  0  0  0  0  0  0  0  0  0
  149.9684  144.9486  159.0921 O   0  0  0  0  0  0  0  0  0  0  0  0
  148.9807  143.0366  155.1741 H   0  0  0  0  0  0  0  0  0  0  0  0
  147.2808  142.4711  153.8058 H   0  0  0  0  0  0  0  0  0  0  0  0
  146.2340  140.8115  152.2658 H   0  0  0  0  0  0  0  0  0  0  0  0
  147.2116  138.5027  152.1220 H   0  0  0  0  0  0  0  0  0  0  0  0
  149.2076  137.9656  153.5451 H   0  0  0  0  0  0  0  0  0  0  0  0
  150.0402  143.9883  156.5261 H   0  0  0  0  0  0  0  0  0  0  0  0
  152.4860  143.3683  157.5286 H   0  0  0  0  0  0  0  0  0  0  0  0
  150.3884  142.2076  159.4057 H   0  0  0  0  0  0  0  0  0  0  0  0
  151.5939  141.3077  158.5184 H   0  0  0  0  0  0  0  0  0  0  0  0
  152.2963  141.6921  160.8829 H   0  0  0  0  0  0  0  0  0  0  0  0
  153.4193  142.4093  159.7529 H   0  0  0  0  0  0  0  0  0  0  0  0
  151.2424  143.8770  161.3174 H   0  0  0  0  0  0  0  0  0  0  0  0
  152.9633  144.0035  161.5783 H   0  0  0  0  0  0  0  0  0  0  0  0
  152.0884  145.9544  160.2693 H   0  0  0  0  0  0  0  0  0  0  0  0
  153.2907  145.0553  159.3820 H   0  0  0  0  0  0  0  0  0  0  0  0
  151.4603  145.5752  157.8699 H   0  0  0  0  0  0  0  0  0  0  0  0
  149.3968  145.0795  158.3513 H   0  0  0  0  0  0  0  0  0  0  0  0
  1  2  2  0  0  0  0
  2  3  1  0  0  0  0
  2 10  1  0  0  0  0
  3  4  1  0  0  0  0
  3 18  1  0  0  0  0
  4  9  1  0  0  0  0
  4  5  2  0  0  0  0
  5  6  1  0  0  0  0
  5 19  1  0  0  0  0
  6  7  2  0  0  0  0
  6 20  1  0  0  0  0
  7  8  1  0  0  0  0
  7 21  1  0  0  0  0
  8  9  2  0  0  0  0
  8 22  1  0  0  0  0
 10 11  1  0  0  0  0
 10 23  1  0  0  0  0
 11 16  1  0  0  0  0
 11 12  1  0  0  0  0
 11 24  1  0  0  0  0
 12 13  1  0  0  0  0
 12 25  1  0  0  0  0
 12 26  1  0  0  0  0
 13 14  1  0  0  0  0
 13 27  1  0  0  0  0
 13 28  1  0  0  0  0
 14 15  1  0  0  0  0
 14 29  1  0  0  0  0
 14 30  1  0  0  0  0
 15 16  1  0  0  0  0
 15 31  1  0  0  0  0
 15 32  1  0  0  0  0
 16 17  1  0  0  0  0
 16 33  1  0  0  0  0
 17 34  1  0  0  0  0
M  END
> <s_m_source_file>
AV-unprocessed.smi

> <i_m_source_file_index>
1761

> <i_lp_mmshare_version>
43012

> <i_f3d_flags>
0

> <s_epik_input>
bjFbY0hdW2NIXVtjSF1bY0hdYzFbTkhdQyg9TylbTkhdW0NAQEhdMltDSDJdW0NIMl1bQ0gyXVtDSDJdW0NASF0yW09IXQ==

> <s_epik_cmdline>
J2VwaWtfcHl0aG9uJywgJy1waCcsICc3LjAnLCAnLXRuJywgJzgnLCAnLW1hJywgJzIwMCcsICctbWV0YWxfYmluZGluZycsICctaW1hZScsICc8aW5maWxlLm1hZT4nLCAnLW9tYWUnLCAnPG91dGZpbGUubWFlPic=

> <r_lp_tautomer_probability>
1

> <r_epik_Ionization_Penalty>
4.92589e-05

> <r_epik_Ionization_Penalty_Charging>
0

> <r_epik_Ionization_Penalty_Neutral>
4.92589e-05

> <r_epik_State_Penalty>
-0

> <r_epik_Charging_Adjusted_Penalty>
0

> <i_epik_Tot_Q>
0

> <i_epik_Tot_abs_Q>
0

> <r_epik_Metal_State_Penalty>
-0

> <b_epik_Metal_Only>
0

> <s_lp_Force_Field>
OPLS_2005

> <r_lp_Energy>
15.389

> <b_lp_Chiralities_Consistent>
1

> <s_lp_Variant>
AV-unprocessed.smi:1761-3

> <Gold.Version>
5.8.1

> <Gold.Id.Protein>
6NUR|6NUR_protein|mol2

> <Gold.PLP.Fitness>
46.8860

> <Gold.PLP.PLP>
-35.6359

> <Gold.PLP.part.hbond>
-3.0000

> <Gold.PLP.part.metal>
0.0000

> <Gold.PLP.part.buried>
-2.0354

> <Gold.PLP.part.nonpolar>
-31.3507

> <Gold.PLP.part.repulsive>
0.3385

> <Gold.PLP.ligand.clash>
0.0000

> <Gold.PLP.ligand.torsion>
0.2615

> <Gold.PLP.Chemscore.Hbond>
2.9920

> <Gold.PLP.Chemscore.CHOScore>
0.9280

> <Gold.PLP.Chemscore.Metal>
0.0000

> <Gold.Chemscore.Hbonds>
donor molecule, donor type, donor heavy atom, donor atom, acceptor molecule, acceptor atom, score
      L1  H     3    18       P1  8028  1.00
      L1  H    10    23       P1  8028  1.00
      L1  H    17    34       P1  8029  0.99
      L1  C     8    22       P1  7948  0.98

> <Gold.PLP.Chemscore.Internal.Correction>
0.0133

> <Gold.Rescore>
     Score         DG    S(hbond)    S(metal)    S(lipo)     H(rot)  DE(clash)    DE(int)     intcor
     18.76     -21.86       2.69        0.00      95.20       1.47       0.35       2.76       ----

> <Gold.Chemscore.Fitness>
18.7621

> <Gold.Chemscore.DG>
-21.8648

> <Gold.Chemscore.ZeroCoef>
-5.4800

> <Gold.Chemscore.Hbond>
2.6938

> <Gold.Chemscore.Metal>
0.0000

> <Gold.Chemscore.Lipo>
95.2015

> <Gold.Chemscore.Internal_Hbond>
0.0000

> <Gold.Chemscore.DEClash>
0.3468

> <Gold.Chemscore.DEInternal>
2.7560

> <Gold.Chemscore.Rot>
1.4653

> <Gold.Chemscore.Internal.Correction>
   9.000000E+99

> <Gold.Chemscore.Hbonds>
donor molecule, donor type, donor heavy atom, donor atom, acceptor molecule, acceptor atom, score
      L1  H     3    18       P1  8028  0.94
      L1  H    10    23       P1  8028  0.97
      L1  H    17    34       P1  8029  0.55

> <Gold.Chemscore.Hbond.Weighted>
-8.9974

> <Gold.Chemscore.Metal.Weighted>
-0.0000

> <Gold.Chemscore.Lipo.Weighted>
-11.1386

> <Gold.Chemscore.Internal_Hbond.Weighted>
0.0000

> <Gold.Chemscore.DEClash.Weighted>
0.3468

> <Gold.Chemscore.DEInternal.Weighted>
2.7560

> <Gold.Chemscore.Rot.Weighted>
3.7511

> <Gold.Chemscore.Internal.Correction.Weighted>
   9.000000E+99

> <Gold.Protein.RotatedTorsions>
[ 6907 6896 6895 6894 ] final  167.66 input  -60.11 | X-H torsion
[ 7974 7965 7964 7962 ] final  126.07 input  175.53 | X-H torsion
[ 8008 7997 7996 7995 ] final -159.63 input   59.86 | X-H torsion
[ 10167 10162 10161 10158 ] final -125.81 input  -65.29 | X-H torsion
[ 10718 10713 10712 10709 ] final -107.80 input   66.30 | X-H torsion
[ 10763 10752 10751 10750 ] final  -41.06 input  -60.55 | X-H torsion
[ 11005 11000 10999 10996 ] final  -47.86 input  -57.11 | X-H torsion

> <Gold.Protein.ActiveResidues>
 VAL166  LYS551  ARG553  GLY616  TRP617  ASP618  TYR619  PRO620  LYS621  CYS622 
 ASP623  PHE694  ASN695  SER759  ASP760  ASP761  ALA762  ILE779  LEU786  VAL792 
 PHE793  MET794  SER795  GLU796  ALA797  LYS798  CYS799  TRP800  GLU811  SER814 

> <Gold.Protein.RotatedAtoms>
  151.8598  133.3455  159.3699 H   0  0  0  0  0  0  0  0  0  0  0  0  # atno 6907 bound_to 6896
  150.7182  134.5218  159.5666 H   0  0  0  0  0  0  0  0  0  0  0  0  # atno 6908 bound_to 6896
  152.2728  134.7914  160.0462 H   0  0  0  0  0  0  0  0  0  0  0  0  # atno 6909 bound_to 6896
  145.0658  139.3769  143.4982 H   0  0  0  0  0  0  0  0  0  0  0  0  # atno 7974 bound_to 7965
  155.7654  140.0845  157.2134 H   0  0  0  0  0  0  0  0  0  0  0  0  # atno 8008 bound_to 7997
  154.4000  140.1535  156.2937 H   0  0  0  0  0  0  0  0  0  0  0  0  # atno 8009 bound_to 7997
  155.8799  140.3421  155.5883 H   0  0  0  0  0  0  0  0  0  0  0  0  # atno 8010 bound_to 7997
  139.9782  143.5772  152.2388 H   0  0  0  0  0  0  0  0  0  0  0  0  # atno 10167 bound_to 10162
  156.0454  130.5680  150.7871 H   0  0  0  0  0  0  0  0  0  0  0  0  # atno 10718 bound_to 10713
  153.9563  135.6745  153.4744 H   0  0  0  0  0  0  0  0  0  0  0  0  # atno 10763 bound_to 10752
  153.0860  135.4899  154.8594 H   0  0  0  0  0  0  0  0  0  0  0  0  # atno 10764 bound_to 10752
  154.7297  135.3135  154.8871 H   0  0  0  0  0  0  0  0  0  0  0  0  # atno 10765 bound_to 10752
  141.0666  133.6692  156.3358 H   0  0  0  0  0  0  0  0  0  0  0  0  # atno 11005 bound_to 11000
  146.3526  140.0379  142.8645 LP  0  0  0  0  0  0  0  0  0  0  0  0  # atno 17320 bound_to 7965
  145.1353  140.9541  143.4520 LP  0  0  0  0  0  0  0  0  0  0  0  0  # atno 17321 bound_to 7965
  139.6430  144.7656  151.2301 LP  0  0  0  0  0  0  0  0  0  0  0  0  # atno 17342 bound_to 10162
  140.7498  143.6286  150.8445 LP  0  0  0  0  0  0  0  0  0  0  0  0  # atno 17343 bound_to 10162
  157.5322  131.0937  150.9939 LP  0  0  0  0  0  0  0  0  0  0  0  0  # atno 17370 bound_to 10713
  157.0242  130.5686  149.5335 LP  0  0  0  0  0  0  0  0  0  0  0  0  # atno 17371 bound_to 10713
  140.5760  134.5793  157.5469 LP  0  0  0  0  0  0  0  0  0  0  0  0  # atno 17394 bound_to 11000
  139.9482  134.7663  156.0510 LP  0  0  0  0  0  0  0  0  0  0  0  0  # atno 17395 bound_to 11000

$$$$
