AV-unprocessed.smi:2895|AV-procd|sdf|11130|dock8
  -GOLD-   2272016 03D 1   1.00000     0.00000
 Structure written by MMmdl.
 53 56  0  0  0  0  0  0  0  0  2 V2000
  149.4443  133.5275  157.9300 O   0  0  0  0  0  0  0  0  0  0  0  0
  148.6169  134.2803  157.4149 C   0  0  0  0  0  0  0  0  0  0  0  0
  148.3435  135.4926  157.9269 N   0  0  0  0  0  0  0  0  0  0  0  0
  148.9661  136.0658  159.1148 C   0  0  0  0  0  0  0  0  0  0  0  0
  147.9251  136.6725  160.0711 C   0  0  0  0  0  0  0  0  0  0  0  0
  147.3440  135.6377  161.0150 C   0  0  0  0  0  0  0  0  0  0  0  0
  147.7784  134.2971  160.9658 C   0  0  0  0  0  0  0  0  0  0  0  0
  147.2118  133.3733  161.8670 C   0  0  0  0  0  0  0  0  0  0  0  0
  146.2705  133.7065  162.7764 N   0  0  0  0  0  0  0  0  0  0  0  0
  145.8585  134.9920  162.8166 C   0  0  0  0  0  0  0  0  0  0  0  0
  146.3617  135.9936  161.9622 C   0  0  0  0  0  0  0  0  0  0  0  0
  147.9235  133.9632  156.2912 N   0  0  0  0  0  0  0  0  0  0  0  0
  148.3195  132.9857  155.2643 C   0  0  0  0  0  0  0  0  0  0  0  0
  148.5950  133.7196  153.9350 C   0  0  0  0  0  0  0  0  0  0  0  0
  147.4284  134.5377  153.4859 N   0  3  0  0  0  0  0  0  0  0  0  0
  146.3323  133.7291  152.8606 C   0  0  2  0  0  0  0  0  0  0  0  0
  146.8057  132.9303  151.6150 C   0  0  0  0  0  0  0  0  0  0  0  0
  145.7913  133.3128  150.5263 C   0  0  1  0  0  0  0  0  0  0  0  0
  144.4096  132.7310  150.8705 C   0  0  0  0  0  0  0  0  0  0  0  0
  143.9560  133.6198  152.0415 C   0  0  0  0  0  0  0  0  0  0  0  0
  145.1623  134.5559  152.2512 C   0  0  2  0  0  0  0  0  0  0  0  0
  145.6044  134.7952  150.8119 C   0  0  0  0  0  0  0  0  0  0  0  0
  146.9881  135.4520  154.5803 C   0  0  0  0  0  0  0  0  0  0  0  0
  146.7140  134.6930  155.8936 C   0  0  0  0  0  0  0  0  0  0  0  0
  147.6611  136.0652  157.4518 H   0  0  0  0  0  0  0  0  0  0  0  0
  149.5603  135.3056  159.6247 H   0  0  0  0  0  0  0  0  0  0  0  0
  149.6633  136.8385  158.7896 H   0  0  0  0  0  0  0  0  0  0  0  0
  148.3763  137.4780  160.6519 H   0  0  0  0  0  0  0  0  0  0  0  0
  147.1064  137.1214  159.5075 H   0  0  0  0  0  0  0  0  0  0  0  0
  148.5303  133.9818  160.2569 H   0  0  0  0  0  0  0  0  0  0  0  0
  147.5235  132.3393  161.8570 H   0  0  0  0  0  0  0  0  0  0  0  0
  145.1056  135.2303  163.5531 H   0  0  0  0  0  0  0  0  0  0  0  0
  145.9998  137.0086  162.0360 H   0  0  0  0  0  0  0  0  0  0  0  0
  149.1955  132.3939  155.5284 H   0  0  0  0  0  0  0  0  0  0  0  0
  147.5149  132.2602  155.1399 H   0  0  0  0  0  0  0  0  0  0  0  0
  149.4410  134.3941  154.0738 H   0  0  0  0  0  0  0  0  0  0  0  0
  148.9167  133.0059  153.1790 H   0  0  0  0  0  0  0  0  0  0  0  0
  145.9393  133.0434  153.6117 H   0  0  0  0  0  0  0  0  0  0  0  0
  147.7964  133.2388  151.2794 H   0  0  0  0  0  0  0  0  0  0  0  0
  146.8368  131.8556  151.7982 H   0  0  0  0  0  0  0  0  0  0  0  0
  146.1262  133.0773  149.5157 H   0  0  0  0  0  0  0  0  0  0  0  0
  143.7234  132.8265  150.0278 H   0  0  0  0  0  0  0  0  0  0  0  0
  144.4625  131.6762  151.1432 H   0  0  0  0  0  0  0  0  0  0  0  0
  143.0697  134.1914  151.7630 H   0  0  0  0  0  0  0  0  0  0  0  0
  143.7102  133.0436  152.9342 H   0  0  0  0  0  0  0  0  0  0  0  0
  144.8734  135.4588  152.7827 H   0  0  0  0  0  0  0  0  0  0  0  0
  146.5261  135.3745  150.7315 H   0  0  0  0  0  0  0  0  0  0  0  0
  144.8345  135.2599  150.1932 H   0  0  0  0  0  0  0  0  0  0  0  0
  147.7921  136.1691  154.7535 H   0  0  0  0  0  0  0  0  0  0  0  0
  146.1302  136.0593  154.3065 H   0  0  0  0  0  0  0  0  0  0  0  0
  145.8919  133.9878  155.7679 H   0  0  0  0  0  0  0  0  0  0  0  0
  146.3764  135.3995  156.6531 H   0  0  0  0  0  0  0  0  0  0  0  0
  147.7694  135.1321  152.7438 H   0  0  0  0  0  0  0  0  0  0  0  0
  1  2  2  0  0  0  0
  2  3  1  0  0  0  0
  2 12  1  0  0  0  0
  3  4  1  0  0  0  0
  3 25  1  0  0  0  0
  4  5  1  0  0  0  0
  4 26  1  0  0  0  0
  4 27  1  0  0  0  0
  5  6  1  0  0  0  0
  5 28  1  0  0  0  0
  5 29  1  0  0  0  0
  6 11  1  0  0  0  0
  6  7  2  0  0  0  0
  7  8  1  0  0  0  0
  7 30  1  0  0  0  0
  8  9  2  0  0  0  0
  8 31  1  0  0  0  0
  9 10  1  0  0  0  0
 10 11  2  0  0  0  0
 10 32  1  0  0  0  0
 11 33  1  0  0  0  0
 12 24  1  0  0  0  0
 12 13  1  0  0  0  0
 13 14  1  0  0  0  0
 13 34  1  0  0  0  0
 13 35  1  0  0  0  0
 14 15  1  0  0  0  0
 14 36  1  0  0  0  0
 14 37  1  0  0  0  0
 15 16  1  0  0  0  0
 15 23  1  0  0  0  0
 15 53  1  0  0  0  0
 16 21  1  0  0  0  0
 16 17  1  0  0  0  0
 16 38  1  0  0  0  0
 17 18  1  0  0  0  0
 17 39  1  0  0  0  0
 17 40  1  0  0  0  0
 18 22  1  0  0  0  0
 18 19  1  0  0  0  0
 18 41  1  0  0  0  0
 19 20  1  0  0  0  0
 19 42  1  0  0  0  0
 19 43  1  0  0  0  0
 20 21  1  0  0  0  0
 20 44  1  0  0  0  0
 20 45  1  0  0  0  0
 21 22  1  0  0  0  0
 21 46  1  0  0  0  0
 22 47  1  0  0  0  0
 22 48  1  0  0  0  0
 23 24  1  0  0  0  0
 23 49  1  0  0  0  0
 23 50  1  0  0  0  0
 24 51  1  0  0  0  0
 24 52  1  0  0  0  0
M  CHG  1  15   1
M  END
> <s_m_source_file>
AV-unprocessed.smi

> <i_m_source_file_index>
2895

> <i_lp_mmshare_version>
43012

> <i_f3d_flags>
0

> <s_epik_input>
W0NIMl0xW0NIMl1bQ0BASF0oW0NIMl0yKVtDQEBIXShbQ0gyXVtDQEhdMTIpTihbQ0gyXVtDSDJdMylbQ0gyXVtDSDJdTjNDKD1PKVtOSF1bQ0gyXVtDSDJdYzRbY0hdW2NIXW5bY0hdW2NIXTQ=

> <s_epik_cmdline>
J2VwaWtfcHl0aG9uJywgJy1waCcsICc3LjAnLCAnLXRuJywgJzgnLCAnLW1hJywgJzIwMCcsICctbWV0YWxfYmluZGluZycsICctaW1hZScsICc8aW5maWxlLm1hZT4nLCAnLW9tYWUnLCAnPG91dGZpbGUubWFlPic=

> <r_epik_Ionization_Penalty>
0.0566172

> <r_epik_Ionization_Penalty_Charging>
0.00262064

> <r_epik_Ionization_Penalty_Neutral>
0.0539965

> <r_epik_State_Penalty>
0.0463959

> <r_epik_Charging_Adjusted_Penalty>
0.0490165

> <i_epik_Tot_Q>
1

> <i_epik_Tot_abs_Q>
1

> <r_epik_Metal_State_Penalty>
0.0424856

> <b_epik_Metal_Only>
0

> <s_lp_Force_Field>
OPLS_2005

> <r_lp_Energy>
100.404

> <b_lp_Chiralities_Consistent>
1

> <s_lp_Variant>
AV-unprocessed.smi:2895-3

> <Gold.Version>
5.8.1

> <Gold.Id.Protein>
6NUR|6NUR_protein|mol2

> <Gold.PLP.Fitness>
43.5210

> <Gold.PLP.PLP>
-36.1710

> <Gold.PLP.part.hbond>
-2.6394

> <Gold.PLP.part.metal>
0.0000

> <Gold.PLP.part.buried>
-4.8164

> <Gold.PLP.part.nonpolar>
-28.5989

> <Gold.PLP.part.repulsive>
0.0742

> <Gold.PLP.ligand.clash>
0.8844

> <Gold.PLP.ligand.torsion>
0.4183

> <Gold.PLP.Chemscore.Hbond>
3.0000

> <Gold.PLP.Chemscore.CHOScore>
0.0000

> <Gold.PLP.Chemscore.Metal>
0.0000

> <Gold.Chemscore.Hbonds>
donor molecule, donor type, donor heavy atom, donor atom, acceptor molecule, acceptor atom, score
      L1  H    15    53       P1  7948  2.00
      P1  H  6896  6909       L1     1  1.00

> <Gold.PLP.Chemscore.Internal.Correction>
0.0710

> <Gold.Rescore>
     Score         DG    S(hbond)    S(metal)    S(lipo)     H(rot)  DE(clash)    DE(int)     intcor
     19.57     -19.92       1.95        0.00      97.84       1.37       0.02       0.33       ----

> <Gold.Chemscore.Fitness>
19.5650

> <Gold.Chemscore.DG>
-19.9189

> <Gold.Chemscore.ZeroCoef>
-5.4800

> <Gold.Chemscore.Hbond>
1.9480

> <Gold.Chemscore.Metal>
0.0000

> <Gold.Chemscore.Lipo>
97.8448

> <Gold.Chemscore.Internal_Hbond>
0.0000

> <Gold.Chemscore.DEClash>
0.0206

> <Gold.Chemscore.DEInternal>
0.3333

> <Gold.Chemscore.Rot>
1.3731

> <Gold.Chemscore.Internal.Correction>
   9.000000E+99

> <Gold.Chemscore.Hbonds>
donor molecule, donor type, donor heavy atom, donor atom, acceptor molecule, acceptor atom, score
      L1  H    15    53       P1  7948  0.98
      P1  H  6896  6909       L1     1  0.96

> <Gold.Chemscore.Hbond.Weighted>
-6.5062

> <Gold.Chemscore.Metal.Weighted>
-0.0000

> <Gold.Chemscore.Lipo.Weighted>
-11.4478

> <Gold.Chemscore.Internal_Hbond.Weighted>
0.0000

> <Gold.Chemscore.DEClash.Weighted>
0.0206

> <Gold.Chemscore.DEInternal.Weighted>
0.3333

> <Gold.Chemscore.Rot.Weighted>
3.5152

> <Gold.Chemscore.Internal.Correction.Weighted>
   9.000000E+99

> <Gold.Protein.RotatedTorsions>
[ 6907 6896 6895 6894 ] final  -13.59 input  -60.11 | X-H torsion
[ 7974 7965 7964 7962 ] final  -53.91 input  175.53 | X-H torsion
[ 8008 7997 7996 7995 ] final -152.55 input   59.86 | X-H torsion
[ 10167 10162 10161 10158 ] final -106.08 input  -65.29 | X-H torsion
[ 10718 10713 10712 10709 ] final  113.88 input   66.30 | X-H torsion
[ 10763 10752 10751 10750 ] final  -55.92 input  -60.55 | X-H torsion
[ 11005 11000 10999 10996 ] final  117.75 input  -57.11 | X-H torsion

> <Gold.Protein.ActiveResidues>
 VAL166  LYS551  ARG553  GLY616  TRP617  ASP618  TYR619  PRO620  LYS621  CYS622 
 ASP623  PHE694  ASN695  SER759  ASP760  ASP761  ALA762  ILE779  LEU786  VAL792 
 PHE793  MET794  SER795  GLU796  ALA797  LYS798  CYS799  TRP800  GLU811  SER814 

> <Gold.Protein.RotatedAtoms>
  151.3525  135.0887  159.9407 H   0  0  0  0  0  0  0  0  0  0  0  0  # atno 6907 bound_to 6896
  152.5183  133.9338  159.7604 H   0  0  0  0  0  0  0  0  0  0  0  0  # atno 6908 bound_to 6896
  150.9717  133.6283  159.2766 H   0  0  0  0  0  0  0  0  0  0  0  0  # atno 6909 bound_to 6896
  145.8915  140.8067  142.9789 H   0  0  0  0  0  0  0  0  0  0  0  0  # atno 7974 bound_to 7965
  155.6569  140.0718  157.2567 H   0  0  0  0  0  0  0  0  0  0  0  0  # atno 8008 bound_to 7997
  154.4150  140.1723  156.1785 H   0  0  0  0  0  0  0  0  0  0  0  0  # atno 8009 bound_to 7997
  155.9730  140.3360  155.6596 H   0  0  0  0  0  0  0  0  0  0  0  0  # atno 8010 bound_to 7997
  140.1916  143.3888  152.1202 H   0  0  0  0  0  0  0  0  0  0  0  0  # atno 10167 bound_to 10162
  157.6313  131.0990  150.7105 H   0  0  0  0  0  0  0  0  0  0  0  0  # atno 10718 bound_to 10713
  154.1984  135.6415  153.5080 H   0  0  0  0  0  0  0  0  0  0  0  0  # atno 10763 bound_to 10752
  153.0018  135.5445  154.6341 H   0  0  0  0  0  0  0  0  0  0  0  0  # atno 10764 bound_to 10752
  154.5748  135.2920  155.0765 H   0  0  0  0  0  0  0  0  0  0  0  0  # atno 10765 bound_to 10752
  139.9085  134.9613  156.7399 H   0  0  0  0  0  0  0  0  0  0  0  0  # atno 11005 bound_to 11000
  144.6731  140.1537  143.7428 LP  0  0  0  0  0  0  0  0  0  0  0  0  # atno 17320 bound_to 7965
  145.8902  139.2372  143.1554 LP  0  0  0  0  0  0  0  0  0  0  0  0  # atno 17321 bound_to 7965
  139.5254  144.7095  151.5251 LP  0  0  0  0  0  0  0  0  0  0  0  0  # atno 17342 bound_to 10162
  140.6452  143.8809  150.6730 LP  0  0  0  0  0  0  0  0  0  0  0  0  # atno 17343 bound_to 10162
  156.7444  130.4749  149.5470 LP  0  0  0  0  0  0  0  0  0  0  0  0  # atno 17370 bound_to 10713
  156.1519  130.6315  151.0606 LP  0  0  0  0  0  0  0  0  0  0  0  0  # atno 17371 bound_to 10713
  140.6858  133.9434  155.7937 LP  0  0  0  0  0  0  0  0  0  0  0  0  # atno 17394 bound_to 11000
  141.0477  134.0530  157.3823 LP  0  0  0  0  0  0  0  0  0  0  0  0  # atno 17395 bound_to 11000

$$$$
