AV-unprocessed.smi:695|AV-procd|sdf|3385|dock2
  -GOLD-   22720 0363D 1   1.00000     0.00000
 Structure written by MMmdl.
 39 40  0  0  0  0  0  0  0  0  2 V2000
  142.6188  142.7604  155.9515 C   0  0  0  0  0  0  0  0  0  0  0  0
  143.3573  141.4703  156.3362 C   0  0  0  0  0  0  0  0  0  0  0  0
  144.2050  140.9936  155.2495 N   0  0  0  0  0  0  0  0  0  0  0  0
  145.5348  140.8481  155.3251 C   0  0  0  0  0  0  0  0  0  0  0  0
  146.1939  141.0638  156.3428 O   0  0  0  0  0  0  0  0  0  0  0  0
  146.0661  140.4849  154.1479 N   0  0  0  0  0  0  0  0  0  0  0  0
  147.4959  140.3475  153.8729 C   0  0  0  0  0  0  0  0  0  0  0  0
  148.2816  141.6487  154.1400 C   0  0  0  0  0  0  0  0  0  0  0  0
  149.4665  141.4577  155.0419 C   0  0  0  0  0  0  0  0  0  0  0  0
  150.2596  140.3366  155.0295 C   0  0  0  0  0  0  0  0  0  0  0  0
  151.4889  140.3806  156.2587 S   0  0  0  0  0  0  0  0  0  0  0  0
  150.9251  141.9426  156.7726 C   0  0  0  0  0  0  0  0  0  0  0  0
  151.4017  142.6736  157.7937 N   0  0  0  0  0  0  0  0  0  0  0  0
  152.4065  142.1334  158.6912 C   0  0  0  0  0  0  0  0  0  0  0  0
  152.7942  143.3129  159.5821 C   0  0  0  0  0  0  0  0  0  0  0  0
  152.6317  144.5187  158.6548 C   0  0  0  0  0  0  0  0  0  0  0  0
  151.4736  144.1269  157.7295 C   0  0  0  0  0  0  0  0  0  0  0  0
  149.8852  142.3465  156.0284 N   0  3  0  0  0  0  0  0  0  0  0  0
  141.9575  143.0817  156.7564 H   0  0  0  0  0  0  0  0  0  0  0  0
  142.0090  142.6153  155.0594 H   0  0  0  0  0  0  0  0  0  0  0  0
  143.3159  143.5750  155.7525 H   0  0  0  0  0  0  0  0  0  0  0  0
  143.9514  141.6269  157.2381 H   0  0  0  0  0  0  0  0  0  0  0  0
  142.6346  140.6891  156.5717 H   0  0  0  0  0  0  0  0  0  0  0  0
  143.7502  140.7914  154.3712 H   0  0  0  0  0  0  0  0  0  0  0  0
  145.4384  140.3281  153.3728 H   0  0  0  0  0  0  0  0  0  0  0  0
  147.9168  139.5304  154.4612 H   0  0  0  0  0  0  0  0  0  0  0  0
  147.6142  140.0588  152.8284 H   0  0  0  0  0  0  0  0  0  0  0  0
  148.6023  142.0723  153.1876 H   0  0  0  0  0  0  0  0  0  0  0  0
  147.6072  142.3865  154.5762 H   0  0  0  0  0  0  0  0  0  0  0  0
  150.1761  139.4729  154.3863 H   0  0  0  0  0  0  0  0  0  0  0  0
  152.0201  141.2971  159.2747 H   0  0  0  0  0  0  0  0  0  0  0  0
  153.2651  141.7875  158.1139 H   0  0  0  0  0  0  0  0  0  0  0  0
  152.0939  143.3926  160.4151 H   0  0  0  0  0  0  0  0  0  0  0  0
  153.7997  143.2216  159.9939 H   0  0  0  0  0  0  0  0  0  0  0  0
  152.4467  145.4485  159.1933 H   0  0  0  0  0  0  0  0  0  0  0  0
  153.5410  144.6488  158.0664 H   0  0  0  0  0  0  0  0  0  0  0  0
  151.6399  144.4920  156.7152 H   0  0  0  0  0  0  0  0  0  0  0  0
  150.5324  144.5408  158.0922 H   0  0  0  0  0  0  0  0  0  0  0  0
  149.4163  143.2280  156.1939 H   0  0  0  0  0  0  0  0  0  0  0  0
  1  2  1  0  0  0  0
  1 19  1  0  0  0  0
  1 20  1  0  0  0  0
  1 21  1  0  0  0  0
  2  3  1  0  0  0  0
  2 22  1  0  0  0  0
  2 23  1  0  0  0  0
  3  4  1  0  0  0  0
  3 24  1  0  0  0  0
  4  5  2  0  0  0  0
  4  6  1  0  0  0  0
  6  7  1  0  0  0  0
  6 25  1  0  0  0  0
  7  8  1  0  0  0  0
  7 26  1  0  0  0  0
  7 27  1  0  0  0  0
  8  9  1  0  0  0  0
  8 28  1  0  0  0  0
  8 29  1  0  0  0  0
  9 18  1  0  0  0  0
  9 10  2  0  0  0  0
 10 11  1  0  0  0  0
 10 30  1  0  0  0  0
 11 12  1  0  0  0  0
 12 13  1  0  0  0  0
 12 18  2  0  0  0  0
 13 17  1  0  0  0  0
 13 14  1  0  0  0  0
 14 15  1  0  0  0  0
 14 31  1  0  0  0  0
 14 32  1  0  0  0  0
 15 16  1  0  0  0  0
 15 33  1  0  0  0  0
 15 34  1  0  0  0  0
 16 17  1  0  0  0  0
 16 35  1  0  0  0  0
 16 36  1  0  0  0  0
 17 37  1  0  0  0  0
 17 38  1  0  0  0  0
 18 39  1  0  0  0  0
M  CHG  1  18   1
M  END
> <s_m_source_file>
AV-unprocessed.smi

> <i_m_source_file_index>
695

> <i_lp_mmshare_version>
43012

> <i_f3d_flags>
0

> <s_epik_input>
W0NIM11bQ0gyXVtOSF1DKD1PKVtOSF1bQ0gyXVtDSDJdYzFbY0hdc2MobjEpTjJbQ0gyXVtDSDJdW0NIMl1bQ0gyXTI=

> <s_epik_cmdline>
J2VwaWtfcHl0aG9uJywgJy1waCcsICc3LjAnLCAnLXRuJywgJzgnLCAnLW1hJywgJzIwMCcsICctbWV0YWxfYmluZGluZycsICctaW1hZScsICc8aW5maWxlLm1hZT4nLCAnLW9tYWUnLCAnPG91dGZpbGUubWFlPic=

> <r_lp_tautomer_probability>
1

> <r_epik_Ionization_Penalty>
0.834564

> <r_epik_Ionization_Penalty_Charging>
0.834509

> <r_epik_Ionization_Penalty_Neutral>
5.51529e-05

> <r_epik_State_Penalty>
0.86869

> <r_epik_Charging_Adjusted_Penalty>
1.7032

> <i_epik_Tot_Q>
1

> <i_epik_Tot_abs_Q>
1

> <r_epik_Metal_State_Penalty>
1.00025

> <b_epik_Metal_Only>
0

> <s_lp_Force_Field>
OPLS_2005

> <r_lp_Energy>
27.3067

> <b_lp_Chiralities_Consistent>
1

> <s_lp_Variant>
AV-unprocessed.smi:695-2

> <Gold.Version>
5.8.1

> <Gold.Id.Protein>
6NUR|6NUR_protein|mol2

> <Gold.PLP.Fitness>
48.4197

> <Gold.PLP.PLP>
-38.1196

> <Gold.PLP.part.hbond>
-3.0000

> <Gold.PLP.part.metal>
0.0000

> <Gold.PLP.part.buried>
-3.0602

> <Gold.PLP.part.nonpolar>
-32.5133

> <Gold.PLP.part.repulsive>
0.1791

> <Gold.PLP.ligand.clash>
0.0000

> <Gold.PLP.ligand.torsion>
0.9661

> <Gold.PLP.Chemscore.Hbond>
4.0000

> <Gold.PLP.Chemscore.CHOScore>
0.0000

> <Gold.PLP.Chemscore.Metal>
0.0000

> <Gold.Chemscore.Hbonds>
donor molecule, donor type, donor heavy atom, donor atom, acceptor molecule, acceptor atom, score
      L1  H     3    24       P1 10175  1.00
      L1  H     6    25       P1 10175  1.00
      L1  H    18    39       P1  8028  2.00

> <Gold.PLP.Chemscore.Internal.Correction>
0.2324

> <Gold.Rescore>
     Score         DG    S(hbond)    S(metal)    S(lipo)     H(rot)  DE(clash)    DE(int)     intcor
     19.83     -20.74       2.84        0.00      87.55       1.75       0.00       0.91       ----

> <Gold.Chemscore.Fitness>
19.8334

> <Gold.Chemscore.DG>
-20.7422

> <Gold.Chemscore.ZeroCoef>
-5.4800

> <Gold.Chemscore.Hbond>
2.8418

> <Gold.Chemscore.Metal>
0.0000

> <Gold.Chemscore.Lipo>
87.5506

> <Gold.Chemscore.Internal_Hbond>
0.0000

> <Gold.Chemscore.DEClash>
0.0004

> <Gold.Chemscore.DEInternal>
0.9084

> <Gold.Chemscore.Rot>
1.7472

> <Gold.Chemscore.Internal.Correction>
   9.000000E+99

> <Gold.Chemscore.Hbonds>
donor molecule, donor type, donor heavy atom, donor atom, acceptor molecule, acceptor atom, score
      L1  H     3    24       P1 10175  0.95
      L1  H     6    25       P1 10175  0.94
      L1  H    18    39       P1  8028  0.95

> <Gold.Chemscore.Hbond.Weighted>
-9.4917

> <Gold.Chemscore.Metal.Weighted>
-0.0000

> <Gold.Chemscore.Lipo.Weighted>
-10.2434

> <Gold.Chemscore.Internal_Hbond.Weighted>
0.0000

> <Gold.Chemscore.DEClash.Weighted>
0.0004

> <Gold.Chemscore.DEInternal.Weighted>
0.9084

> <Gold.Chemscore.Rot.Weighted>
4.4729

> <Gold.Chemscore.Internal.Correction.Weighted>
   9.000000E+99

> <Gold.Protein.RotatedTorsions>
[ 6907 6896 6895 6894 ] final -160.35 input  -60.11 | X-H torsion
[ 7974 7965 7964 7962 ] final   -9.14 input  175.53 | X-H torsion
[ 8008 7997 7996 7995 ] final -126.96 input   59.86 | X-H torsion
[ 10167 10162 10161 10158 ] final  -50.41 input  -65.29 | X-H torsion
[ 10718 10713 10712 10709 ] final  111.54 input   66.30 | X-H torsion
[ 10763 10752 10751 10750 ] final -156.66 input  -60.55 | X-H torsion
[ 11005 11000 10999 10996 ] final  -67.63 input  -57.11 | X-H torsion

> <Gold.Protein.ActiveResidues>
 VAL166  LYS551  ARG553  GLY616  TRP617  ASP618  TYR619  PRO620  LYS621  CYS622 
 ASP623  PHE694  ASN695  SER759  ASP760  ASP761  ALA762  ILE779  LEU786  VAL792 
 PHE793  MET794  SER795  GLU796  ALA797  LYS798  CYS799  TRP800  GLU811  SER814 

> <Gold.Protein.RotatedAtoms>
  151.3476  133.3938  159.2676 H   0  0  0  0  0  0  0  0  0  0  0  0  # atno 6907 bound_to 6896
  150.9827  134.9179  159.7864 H   0  0  0  0  0  0  0  0  0  0  0  0  # atno 6908 bound_to 6896
  152.5222  134.3440  159.9280 H   0  0  0  0  0  0  0  0  0  0  0  0  # atno 6909 bound_to 6896
  146.2260  140.2572  142.8350 H   0  0  0  0  0  0  0  0  0  0  0  0  # atno 7974 bound_to 7965
  155.2383  140.0428  157.2971 H   0  0  0  0  0  0  0  0  0  0  0  0  # atno 8008 bound_to 7997
  154.5844  140.2409  155.7978 H   0  0  0  0  0  0  0  0  0  0  0  0  # atno 8009 bound_to 7997
  156.2216  140.2968  155.9974 H   0  0  0  0  0  0  0  0  0  0  0  0  # atno 8010 bound_to 7997
  140.6639  143.2659  151.4355 H   0  0  0  0  0  0  0  0  0  0  0  0  # atno 10167 bound_to 10162
  157.6439  131.0952  150.6764 H   0  0  0  0  0  0  0  0  0  0  0  0  # atno 10718 bound_to 10713
  154.7696  135.3141  154.8217 H   0  0  0  0  0  0  0  0  0  0  0  0  # atno 10763 bound_to 10752
  153.8956  135.6821  153.4762 H   0  0  0  0  0  0  0  0  0  0  0  0  # atno 10764 bound_to 10752
  153.1307  135.4781  154.9278 H   0  0  0  0  0  0  0  0  0  0  0  0  # atno 10765 bound_to 10752
  141.1513  133.6723  156.6322 H   0  0  0  0  0  0  0  0  0  0  0  0  # atno 11005 bound_to 11000
  144.9367  140.8034  143.5656 LP  0  0  0  0  0  0  0  0  0  0  0  0  # atno 17320 bound_to 7965
  145.2520  139.2028  143.4937 LP  0  0  0  0  0  0  0  0  0  0  0  0  # atno 17321 bound_to 7965
  139.5881  144.1559  152.2054 LP  0  0  0  0  0  0  0  0  0  0  0  0  # atno 17342 bound_to 10162
  140.0905  144.5624  150.7058 LP  0  0  0  0  0  0  0  0  0  0  0  0  # atno 17343 bound_to 10162
  156.7084  130.4644  149.5554 LP  0  0  0  0  0  0  0  0  0  0  0  0  # atno 17370 bound_to 10713
  156.1747  130.6460  151.0879 LP  0  0  0  0  0  0  0  0  0  0  0  0  # atno 17371 bound_to 10713
  140.3458  134.7811  157.4431 LP  0  0  0  0  0  0  0  0  0  0  0  0  # atno 17394 bound_to 11000
  140.0901  134.5613  155.8453 LP  0  0  0  0  0  0  0  0  0  0  0  0  # atno 17395 bound_to 11000

$$$$
