AV-unprocessed.smi:3151|AV-procd|sdf|12016|dock3
  -GOLD-   2272017423D 1   1.00000     0.00000
 Structure written by MMmdl.
 35 36  0  0  0  0  0  0  0  0  1 V2000
  150.5312  141.3223  158.3612 O   0  0  0  0  0  0  0  0  0  0  0  0
  150.3058  142.4001  157.8102 C   0  0  0  0  0  0  0  0  0  0  0  0
  151.4061  143.4616  157.7057 C   0  0  0  0  0  0  0  0  0  0  0  0
  152.2087  143.6439  159.0111 C   0  0  0  0  0  0  0  0  0  0  0  0
  152.8516  142.3622  159.5549 C   0  0  0  0  0  0  0  0  0  0  0  0
  153.1099  142.6383  161.0410 C   0  0  0  0  0  0  0  0  0  0  0  0
  152.1854  143.8008  161.4332 C   0  0  0  0  0  0  0  0  0  0  0  0
  151.3570  144.1274  160.1867 C   0  0  0  0  0  0  0  0  0  0  0  0
  149.1184  142.7151  157.2706 N   0  0  0  0  0  0  0  0  0  0  0  0
  147.9453  141.8492  157.2698 C   0  0  0  0  0  0  0  0  0  0  0  0
  147.0198  142.1518  156.0798 C   0  0  0  0  0  0  0  0  0  0  0  0
  147.5945  141.6912  154.8324 N   0  0  0  0  0  0  0  0  0  0  0  0
  146.9597  140.9648  153.8335 C   0  0  0  0  0  0  0  0  0  0  0  0
  147.8963  140.7524  152.8472 C   0  0  0  0  0  0  0  0  0  0  0  0
  149.1068  141.3348  153.2166 N   0  0  0  0  0  0  0  0  0  0  0  0
  148.8509  141.8716  154.4028 C   0  0  0  0  0  0  0  0  0  0  0  0
  152.0802  143.1659  156.9011 H   0  0  0  0  0  0  0  0  0  0  0  0
  150.9682  144.4150  157.4057 H   0  0  0  0  0  0  0  0  0  0  0  0
  152.9980  144.3806  158.8500 H   0  0  0  0  0  0  0  0  0  0  0  0
  152.1547  141.5283  159.4579 H   0  0  0  0  0  0  0  0  0  0  0  0
  153.7633  142.0919  159.0211 H   0  0  0  0  0  0  0  0  0  0  0  0
  152.9221  141.7497  161.6444 H   0  0  0  0  0  0  0  0  0  0  0  0
  154.1506  142.9241  161.1981 H   0  0  0  0  0  0  0  0  0  0  0  0
  151.5498  143.5517  162.2834 H   0  0  0  0  0  0  0  0  0  0  0  0
  152.7858  144.6658  161.7177 H   0  0  0  0  0  0  0  0  0  0  0  0
  151.1109  145.1874  160.1169 H   0  0  0  0  0  0  0  0  0  0  0  0
  150.4186  143.5720  160.2201 H   0  0  0  0  0  0  0  0  0  0  0  0
  149.0187  143.6210  156.8359 H   0  0  0  0  0  0  0  0  0  0  0  0
  148.2546  140.8024  157.2590 H   0  0  0  0  0  0  0  0  0  0  0  0
  147.4091  142.0041  158.2064 H   0  0  0  0  0  0  0  0  0  0  0  0
  146.0512  141.6690  156.2157 H   0  0  0  0  0  0  0  0  0  0  0  0
  146.8321  143.2233  155.9969 H   0  0  0  0  0  0  0  0  0  0  0  0
  145.9240  140.6669  153.9052 H   0  0  0  0  0  0  0  0  0  0  0  0
  147.7935  140.2287  151.9082 H   0  0  0  0  0  0  0  0  0  0  0  0
  149.5954  142.4070  154.9737 H   0  0  0  0  0  0  0  0  0  0  0  0
  1  2  2  0  0  0  0
  2  3  1  0  0  0  0
  2  9  1  0  0  0  0
  3  4  1  0  0  0  0
  3 17  1  0  0  0  0
  3 18  1  0  0  0  0
  4  8  1  0  0  0  0
  4  5  1  0  0  0  0
  4 19  1  0  0  0  0
  5  6  1  0  0  0  0
  5 20  1  0  0  0  0
  5 21  1  0  0  0  0
  6  7  1  0  0  0  0
  6 22  1  0  0  0  0
  6 23  1  0  0  0  0
  7  8  1  0  0  0  0
  7 24  1  0  0  0  0
  7 25  1  0  0  0  0
  8 26  1  0  0  0  0
  8 27  1  0  0  0  0
  9 10  1  0  0  0  0
  9 28  1  0  0  0  0
 10 11  1  0  0  0  0
 10 29  1  0  0  0  0
 10 30  1  0  0  0  0
 11 12  1  0  0  0  0
 11 31  1  0  0  0  0
 11 32  1  0  0  0  0
 12 16  1  0  0  0  0
 12 13  1  0  0  0  0
 13 14  2  0  0  0  0
 13 33  1  0  0  0  0
 14 15  1  0  0  0  0
 14 34  1  0  0  0  0
 15 16  2  0  0  0  0
 16 35  1  0  0  0  0
M  END
> <s_m_source_file>
AV-unprocessed.smi

> <i_m_source_file_index>
3151

> <i_lp_mmshare_version>
43012

> <i_f3d_flags>
0

> <s_epik_input>
W0NIMl0xW0NIMl1bQ0gyXVtDSDJdW0NIXTFbQ0gyXUMoPU8pW05IXVtDSDJdW0NIMl1uMltjSF1bY0hdbltjSF0y

> <s_epik_cmdline>
J2VwaWtfcHl0aG9uJywgJy1waCcsICc3LjAnLCAnLXRuJywgJzgnLCAnLW1hJywgJzIwMCcsICctbWV0YWxfYmluZGluZycsICctaW1hZScsICc8aW5maWxlLm1hZT4nLCAnLW9tYWUnLCAnPG91dGZpbGUubWFlPic=

> <r_lp_tautomer_probability>
1

> <r_epik_Ionization_Penalty>
0.596413

> <r_epik_Ionization_Penalty_Charging>
0.596413

> <r_epik_Ionization_Penalty_Neutral>
2.16921e-08

> <r_epik_State_Penalty>
0.610423

> <r_epik_Charging_Adjusted_Penalty>
1.20684

> <i_epik_Tot_Q>
0

> <i_epik_Tot_abs_Q>
0

> <r_epik_Metal_State_Penalty>
0.300145

> <b_epik_Metal_Only>
0

> <s_lp_Force_Field>
OPLS_2005

> <r_lp_Energy>
20.9474

> <b_lp_Chiralities_Consistent>
1

> <s_lp_Variant>
AV-unprocessed.smi:3151-2

> <Gold.Version>
5.8.1

> <Gold.Id.Protein>
6NUR|6NUR_protein|mol2

> <Gold.PLP.Fitness>
44.5112

> <Gold.PLP.PLP>
-33.7559

> <Gold.PLP.part.hbond>
-2.0791

> <Gold.PLP.part.metal>
0.0000

> <Gold.PLP.part.buried>
-2.0216

> <Gold.PLP.part.nonpolar>
-32.0605

> <Gold.PLP.part.repulsive>
2.8304

> <Gold.PLP.ligand.clash>
0.0000

> <Gold.PLP.ligand.torsion>
0.5938

> <Gold.PLP.Chemscore.Hbond>
1.9600

> <Gold.PLP.Chemscore.CHOScore>
1.9922

> <Gold.PLP.Chemscore.Metal>
0.0000

> <Gold.Chemscore.Hbonds>
donor molecule, donor type, donor heavy atom, donor atom, acceptor molecule, acceptor atom, score
      L1  H     9    28       P1  8028  1.00
      P1  H  8011  8017       L1    15  1.00
      L1  C    13    33       P1 10175  0.67
      L1  C    14    34       P1  7957  0.44
      L1  C    16    35       P1  8028  0.67

> <Gold.PLP.Chemscore.Internal.Correction>
0.0863

> <Gold.Rescore>
     Score         DG    S(hbond)    S(metal)    S(lipo)     H(rot)  DE(clash)    DE(int)     intcor
     10.26     -14.51       1.14        0.00      88.20       1.99       1.52       2.73       ----

> <Gold.Chemscore.Fitness>
10.2605

> <Gold.Chemscore.DG>
-14.5082

> <Gold.Chemscore.ZeroCoef>
-5.4800

> <Gold.Chemscore.Hbond>
1.1404

> <Gold.Chemscore.Metal>
0.0000

> <Gold.Chemscore.Lipo>
88.1956

> <Gold.Chemscore.Internal_Hbond>
0.0000

> <Gold.Chemscore.DEClash>
1.5203

> <Gold.Chemscore.DEInternal>
2.7273

> <Gold.Chemscore.Rot>
1.9920

> <Gold.Chemscore.Internal.Correction>
   9.000000E+99

> <Gold.Chemscore.Hbonds>
donor molecule, donor type, donor heavy atom, donor atom, acceptor molecule, acceptor atom, score
      L1  H     9    28       P1  8028  0.69
      P1  H  8011  8017       L1    15  0.59

> <Gold.Chemscore.Hbond.Weighted>
-3.8089

> <Gold.Chemscore.Metal.Weighted>
-0.0000

> <Gold.Chemscore.Lipo.Weighted>
-10.3189

> <Gold.Chemscore.Internal_Hbond.Weighted>
0.0000

> <Gold.Chemscore.DEClash.Weighted>
1.5203

> <Gold.Chemscore.DEInternal.Weighted>
2.7273

> <Gold.Chemscore.Rot.Weighted>
5.0996

> <Gold.Chemscore.Internal.Correction.Weighted>
   9.000000E+99

> <Gold.Protein.RotatedTorsions>
[ 6907 6896 6895 6894 ] final -142.44 input  -60.11 | X-H torsion
[ 7974 7965 7964 7962 ] final -157.76 input  175.53 | X-H torsion
[ 8008 7997 7996 7995 ] final  -78.20 input   59.86 | X-H torsion
[ 10167 10162 10161 10158 ] final  141.06 input  -65.29 | X-H torsion
[ 10718 10713 10712 10709 ] final -131.57 input   66.30 | X-H torsion
[ 10763 10752 10751 10750 ] final  141.19 input  -60.55 | X-H torsion
[ 11005 11000 10999 10996 ] final  -97.01 input  -57.11 | X-H torsion

> <Gold.Protein.ActiveResidues>
 VAL166  LYS551  ARG553  GLY616  TRP617  ASP618  TYR619  PRO620  LYS621  CYS622 
 ASP623  PHE694  ASN695  SER759  ASP760  ASP761  ALA762  ILE779  LEU786  VAL792 
 PHE793  MET794  SER795  GLU796  ALA797  LYS798  CYS799  TRP800  GLU811  SER814 

> <Gold.Protein.RotatedAtoms>
  151.0871  133.5344  159.2616 H   0  0  0  0  0  0  0  0  0  0  0  0  # atno 6907 bound_to 6896
  151.2226  135.0523  159.8965 H   0  0  0  0  0  0  0  0  0  0  0  0  # atno 6908 bound_to 6896
  152.5430  134.0672  159.8231 H   0  0  0  0  0  0  0  0  0  0  0  0  # atno 6909 bound_to 6896
  144.7534  140.3923  143.6030 H   0  0  0  0  0  0  0  0  0  0  0  0  # atno 7974 bound_to 7965
  154.5667  140.0698  156.8902 H   0  0  0  0  0  0  0  0  0  0  0  0  # atno 8008 bound_to 7997
  155.2710  140.3365  155.4247 H   0  0  0  0  0  0  0  0  0  0  0  0  # atno 8009 bound_to 7997
  156.2086  140.1750  156.7731 H   0  0  0  0  0  0  0  0  0  0  0  0  # atno 8010 bound_to 7997
  139.5031  144.6195  151.6084 H   0  0  0  0  0  0  0  0  0  0  0  0  # atno 10167 bound_to 10162
  156.2257  130.7006  151.0804 H   0  0  0  0  0  0  0  0  0  0  0  0  # atno 10718 bound_to 10713
  153.9351  135.2986  155.3444 H   0  0  0  0  0  0  0  0  0  0  0  0  # atno 10763 bound_to 10752
  154.7506  135.4982  153.9286 H   0  0  0  0  0  0  0  0  0  0  0  0  # atno 10764 bound_to 10752
  153.1071  135.6749  153.9672 H   0  0  0  0  0  0  0  0  0  0  0  0  # atno 10765 bound_to 10752
  141.1393  133.8140  157.0649 H   0  0  0  0  0  0  0  0  0  0  0  0  # atno 11005 bound_to 11000
  145.6863  139.1629  143.2672 LP  0  0  0  0  0  0  0  0  0  0  0  0  # atno 17320 bound_to 7965
  146.1514  140.6919  142.9320 LP  0  0  0  0  0  0  0  0  0  0  0  0  # atno 17321 bound_to 7965
  140.5893  143.9808  150.6315 LP  0  0  0  0  0  0  0  0  0  0  0  0  # atno 17342 bound_to 10162
  140.2983  143.3278  152.0996 LP  0  0  0  0  0  0  0  0  0  0  0  0  # atno 17343 bound_to 10162
  157.7109  131.0734  150.6503 LP  0  0  0  0  0  0  0  0  0  0  0  0  # atno 17370 bound_to 10713
  156.6568  130.4501  149.5701 LP  0  0  0  0  0  0  0  0  0  0  0  0  # atno 17371 bound_to 10713
  140.0548  134.9786  157.1201 LP  0  0  0  0  0  0  0  0  0  0  0  0  # atno 17394 bound_to 11000
  140.3936  134.2158  155.7165 LP  0  0  0  0  0  0  0  0  0  0  0  0  # atno 17395 bound_to 11000

$$$$
