AV-unprocessed.smi:2563|AV-procd|sdf|10057|dock4
  -GOLD-   2272014 93D 1   1.00000     0.00000
 Structure written by MMmdl.
 35 36  0  0  0  0  0  0  0  0  2 V2000
  142.1841  136.2530  153.4902 C   0  0  0  0  0  0  0  0  0  0  0  0
  142.6988  134.9538  152.8568 C   0  0  0  0  0  0  0  0  0  0  0  0
  143.8420  135.1850  151.9728 N   0  0  0  0  0  0  0  0  0  0  0  0
  144.2185  136.5636  151.6658 C   0  0  0  0  0  0  0  0  0  0  0  0
  145.5908  136.9401  152.2515 C   0  0  1  0  0  0  0  0  0  0  0  0
  146.2003  138.1591  151.5317 C   0  0  0  0  0  0  0  0  0  0  0  0
  147.4738  138.5459  152.1705 N   0  3  0  0  0  0  0  0  0  0  0  0
  147.3059  138.7841  153.6171 C   0  0  0  0  0  0  0  0  0  0  0  0
  146.6529  137.5599  154.2798 C   0  0  0  0  0  0  0  0  0  0  0  0
  145.4209  137.2710  153.6281 O   0  0  0  0  0  0  0  0  0  0  0  0
  144.4863  134.0979  151.3325 C   0  0  0  0  0  0  0  0  0  0  0  0
  143.8047  132.8908  151.0392 C   0  0  0  0  0  0  0  0  0  0  0  0
  144.5199  131.8619  150.4030 C   0  0  0  0  0  0  0  0  0  0  0  0
  145.8698  132.1046  150.0994 C   0  0  0  0  0  0  0  0  0  0  0  0
  146.4793  133.2725  150.3944 N   0  0  0  0  0  0  0  0  0  0  0  0
  145.7950  134.2485  150.9999 N   0  0  0  0  0  0  0  0  0  0  0  0
  141.3460  136.0507  154.1572 H   0  0  0  0  0  0  0  0  0  0  0  0
  141.8399  136.9555  152.7310 H   0  0  0  0  0  0  0  0  0  0  0  0
  142.9618  136.7454  154.0745 H   0  0  0  0  0  0  0  0  0  0  0  0
  143.0049  134.2710  153.6497 H   0  0  0  0  0  0  0  0  0  0  0  0
  141.8934  134.4421  152.3294 H   0  0  0  0  0  0  0  0  0  0  0  0
  144.2029  136.7202  150.5873 H   0  0  0  0  0  0  0  0  0  0  0  0
  143.4592  137.2394  152.0618 H   0  0  0  0  0  0  0  0  0  0  0  0
  146.2716  136.0916  152.1617 H   0  0  0  0  0  0  0  0  0  0  0  0
  146.3831  137.9334  150.4808 H   0  0  0  0  0  0  0  0  0  0  0  0
  145.5124  139.0051  151.5643 H   0  0  0  0  0  0  0  0  0  0  0  0
  148.1397  137.7972  152.0424 H   0  0  0  0  0  0  0  0  0  0  0  0
  148.2772  138.9925  154.0656 H   0  0  0  0  0  0  0  0  0  0  0  0
  146.6852  139.6688  153.7653 H   0  0  0  0  0  0  0  0  0  0  0  0
  147.3131  136.6921  154.2375 H   0  0  0  0  0  0  0  0  0  0  0  0
  146.4581  137.7608  155.3333 H   0  0  0  0  0  0  0  0  0  0  0  0
  142.7640  132.7362  151.2780 H   0  0  0  0  0  0  0  0  0  0  0  0
  144.0511  130.9212  150.1552 H   0  0  0  0  0  0  0  0  0  0  0  0
  146.4710  131.3523  149.6107 H   0  0  0  0  0  0  0  0  0  0  0  0
  147.8304  139.3828  151.7313 H   0  0  0  0  0  0  0  0  0  0  0  0
  1  2  1  0  0  0  0
  1 17  1  0  0  0  0
  1 18  1  0  0  0  0
  1 19  1  0  0  0  0
  2  3  1  0  0  0  0
  2 20  1  0  0  0  0
  2 21  1  0  0  0  0
  3  4  1  0  0  0  0
  3 11  1  0  0  0  0
  4  5  1  0  0  0  0
  4 22  1  0  0  0  0
  4 23  1  0  0  0  0
  5 10  1  0  0  0  0
  5  6  1  0  0  0  0
  5 24  1  0  0  0  0
  6  7  1  0  0  0  0
  6 25  1  0  0  0  0
  6 26  1  0  0  0  0
  7  8  1  0  0  0  0
  7 27  1  0  0  0  0
  7 35  1  0  0  0  0
  8  9  1  0  0  0  0
  8 28  1  0  0  0  0
  8 29  1  0  0  0  0
  9 10  1  0  0  0  0
  9 30  1  0  0  0  0
  9 31  1  0  0  0  0
 11 16  1  0  0  0  0
 11 12  2  0  0  0  0
 12 13  1  0  0  0  0
 12 32  1  0  0  0  0
 13 14  2  0  0  0  0
 13 33  1  0  0  0  0
 14 15  1  0  0  0  0
 14 34  1  0  0  0  0
 15 16  2  0  0  0  0
M  CHG  1   7   1
M  END
> <s_m_source_file>
AV-unprocessed.smi

> <i_m_source_file_index>
2563

> <i_lp_mmshare_version>
43012

> <i_f3d_flags>
0

> <s_epik_input>
bjFuW2NIXVtjSF1bY0hdYzFOKFtDSDJdW0NIM10pW0NIMl1bQ0BASF0yW0NIMl1bTkhdW0NIMl1bQ0gyXU8y

> <s_epik_cmdline>
J2VwaWtfcHl0aG9uJywgJy1waCcsICc3LjAnLCAnLXRuJywgJzgnLCAnLW1hJywgJzIwMCcsICctbWV0YWxfYmluZGluZycsICctaW1hZScsICc8aW5maWxlLm1hZT4nLCAnLW9tYWUnLCAnPG91dGZpbGUubWFlPic=

> <r_lp_tautomer_probability>
1

> <r_epik_Ionization_Penalty>
0.0472862

> <r_epik_Ionization_Penalty_Charging>
0.0127794

> <r_epik_Ionization_Penalty_Neutral>
0.0345068

> <r_epik_State_Penalty>
0.0614045

> <r_epik_Charging_Adjusted_Penalty>
0.0741839

> <i_epik_Tot_Q>
1

> <i_epik_Tot_abs_Q>
1

> <r_epik_Metal_State_Penalty>
0.0547208

> <b_epik_Metal_Only>
0

> <s_lp_Force_Field>
OPLS_2005

> <r_lp_Energy>
26.038

> <b_lp_Chiralities_Consistent>
1

> <s_lp_Variant>
AV-unprocessed.smi:2563-2

> <Gold.Version>
5.8.1

> <Gold.Id.Protein>
6NUR|6NUR_protein|mol2

> <Gold.PLP.Fitness>
36.3861

> <Gold.PLP.PLP>
-26.5051

> <Gold.PLP.part.hbond>
-2.0000

> <Gold.PLP.part.metal>
0.0000

> <Gold.PLP.part.buried>
-1.2675

> <Gold.PLP.part.nonpolar>
-24.2203

> <Gold.PLP.part.repulsive>
0.6205

> <Gold.PLP.ligand.clash>
0.0000

> <Gold.PLP.ligand.torsion>
0.6906

> <Gold.PLP.Chemscore.Hbond>
2.8160

> <Gold.PLP.Chemscore.CHOScore>
0.9182

> <Gold.PLP.Chemscore.Metal>
0.0000

> <Gold.Chemscore.Hbonds>
donor molecule, donor type, donor heavy atom, donor atom, acceptor molecule, acceptor atom, score
      L1  H     7    27       P1  7948  2.00
      L1  H     7    35       P1  7957  0.72
      L1  C    14    34       P1 10747  0.69

> <Gold.PLP.Chemscore.Internal.Correction>
0.0595

> <Gold.Rescore>
     Score         DG    S(hbond)    S(metal)    S(lipo)     H(rot)  DE(clash)    DE(int)     intcor
     12.70     -15.68       1.82        0.00      65.88       1.40       1.35       1.64       ----

> <Gold.Chemscore.Fitness>
12.6961

> <Gold.Chemscore.DG>
-15.6841

> <Gold.Chemscore.ZeroCoef>
-5.4800

> <Gold.Chemscore.Hbond>
1.8228

> <Gold.Chemscore.Metal>
0.0000

> <Gold.Chemscore.Lipo>
65.8822

> <Gold.Chemscore.Internal_Hbond>
0.0000

> <Gold.Chemscore.DEClash>
1.3526

> <Gold.Chemscore.DEInternal>
1.6354

> <Gold.Chemscore.Rot>
1.4033

> <Gold.Chemscore.Internal.Correction>
   9.000000E+99

> <Gold.Chemscore.Hbonds>
donor molecule, donor type, donor heavy atom, donor atom, acceptor molecule, acceptor atom, score
      L1  H     7    27       P1  7948  1.00
      L1  H     7    35       P1  7957  0.71

> <Gold.Chemscore.Hbond.Weighted>
-6.0883

> <Gold.Chemscore.Metal.Weighted>
-0.0000

> <Gold.Chemscore.Lipo.Weighted>
-7.7082

> <Gold.Chemscore.Internal_Hbond.Weighted>
0.0000

> <Gold.Chemscore.DEClash.Weighted>
1.3526

> <Gold.Chemscore.DEInternal.Weighted>
1.6354

> <Gold.Chemscore.Rot.Weighted>
3.5924

> <Gold.Chemscore.Internal.Correction.Weighted>
   9.000000E+99

> <Gold.Protein.RotatedTorsions>
[ 6907 6896 6895 6894 ] final   -9.07 input  -60.11 | X-H torsion
[ 7974 7965 7964 7962 ] final  -38.12 input  175.53 | X-H torsion
[ 8008 7997 7996 7995 ] final  103.87 input   59.86 | X-H torsion
[ 10167 10162 10161 10158 ] final   76.08 input  -65.29 | X-H torsion
[ 10718 10713 10712 10709 ] final   94.88 input   66.30 | X-H torsion
[ 10763 10752 10751 10750 ] final -104.68 input  -60.55 | X-H torsion
[ 11005 11000 10999 10996 ] final   33.62 input  -57.11 | X-H torsion

> <Gold.Protein.ActiveResidues>
 VAL166  LYS551  ARG553  GLY616  TRP617  ASP618  TYR619  PRO620  LYS621  CYS622 
 ASP623  PHE694  ASN695  SER759  ASP760  ASP761  ALA762  ILE779  LEU786  VAL792 
 PHE793  MET794  SER795  GLU796  ALA797  LYS798  CYS799  TRP800  GLU811  SER814 

> <Gold.Protein.RotatedAtoms>
  151.4237  135.1001  159.9621 H   0  0  0  0  0  0  0  0  0  0  0  0  # atno 6907 bound_to 6896
  152.4980  133.8683  159.7296 H   0  0  0  0  0  0  0  0  0  0  0  0  # atno 6908 bound_to 6896
  150.9205  133.6829  159.2861 H   0  0  0  0  0  0  0  0  0  0  0  0  # atno 6909 bound_to 6896
  146.0514  140.6475  142.9040 H   0  0  0  0  0  0  0  0  0  0  0  0  # atno 7974 bound_to 7965
  156.1522  140.3157  155.8667 H   0  0  0  0  0  0  0  0  0  0  0  0  # atno 8008 bound_to 7997
  155.3948  140.0496  157.3056 H   0  0  0  0  0  0  0  0  0  0  0  0  # atno 8009 bound_to 7997
  154.5069  140.2150  155.9245 H   0  0  0  0  0  0  0  0  0  0  0  0  # atno 8010 bound_to 7997
  139.9961  144.5721  150.7777 H   0  0  0  0  0  0  0  0  0  0  0  0  # atno 10167 bound_to 10162
  157.6944  131.0527  150.4254 H   0  0  0  0  0  0  0  0  0  0  0  0  # atno 10718 bound_to 10713
  154.7895  135.4777  154.0020 H   0  0  0  0  0  0  0  0  0  0  0  0  # atno 10763 bound_to 10752
  153.1609  135.6808  153.8751 H   0  0  0  0  0  0  0  0  0  0  0  0  # atno 10764 bound_to 10752
  153.8365  135.3185  155.3401 H   0  0  0  0  0  0  0  0  0  0  0  0  # atno 10765 bound_to 10752
  140.2613  134.3189  155.7857 H   0  0  0  0  0  0  0  0  0  0  0  0  # atno 11005 bound_to 11000
  144.7125  140.4090  143.7070 LP  0  0  0  0  0  0  0  0  0  0  0  0  # atno 17320 bound_to 7965
  145.6717  139.1600  143.2751 LP  0  0  0  0  0  0  0  0  0  0  0  0  # atno 17321 bound_to 7965
  140.7437  143.2849  151.3491 LP  0  0  0  0  0  0  0  0  0  0  0  0  # atno 17342 bound_to 10162
  139.6305  144.0730  152.2472 LP  0  0  0  0  0  0  0  0  0  0  0  0  # atno 17343 bound_to 10162
  156.4625  130.4035  149.6567 LP  0  0  0  0  0  0  0  0  0  0  0  0  # atno 17370 bound_to 10713
  156.3677  130.7514  151.2494 LP  0  0  0  0  0  0  0  0  0  0  0  0  # atno 17371 bound_to 10713
  141.2190  133.7411  156.9191 LP  0  0  0  0  0  0  0  0  0  0  0  0  # atno 17394 bound_to 11000
  140.1462  134.9261  157.2532 LP  0  0  0  0  0  0  0  0  0  0  0  0  # atno 17395 bound_to 11000

$$$$
