AV-unprocessed.smi:2164|AV-procd|sdf|8809|dock7
  -GOLD-   2272011593D 1   1.00000     0.00000
 Structure written by MMmdl.
 40 42  0  0  0  0  0  0  0  0  2 V2000
  148.9279  132.9520  155.1237 O   0  0  0  0  0  0  0  0  0  0  0  0
  148.8430  134.1477  154.8387 C   0  0  0  0  0  0  0  0  0  0  0  0
  148.1805  134.5713  153.7471 N   0  0  0  0  0  0  0  0  0  0  0  0
  147.4985  133.7206  152.7740 C   0  0  0  0  0  0  0  0  0  0  0  0
  146.0915  134.2398  152.4182 C   0  0  0  0  0  0  0  0  0  0  0  0
  145.5089  133.6158  151.1618 C   0  0  0  0  0  0  0  0  0  0  0  0
  146.2456  132.6583  150.4298 C   0  0  0  0  0  0  0  0  0  0  0  0
  145.6718  132.0738  149.2816 C   0  0  0  0  0  0  0  0  0  0  0  0
  144.3741  132.4611  148.8899 C   0  0  0  0  0  0  0  0  0  0  0  0
  143.7009  133.3835  149.6124 N   0  3  0  0  0  0  0  0  0  0  0  0
  144.2155  133.9669  150.7170 C   0  0  0  0  0  0  0  0  0  0  0  0
  149.4220  135.2317  155.6354 C   0  0  0  0  0  0  0  0  0  0  0  0
  150.3275  136.0592  155.0796 C   0  0  0  0  0  0  0  0  0  0  0  0
  150.9293  137.1179  155.7630 N   0  0  0  0  0  0  0  0  0  0  0  0
  151.9644  137.8787  155.0724 C   0  0  0  0  0  0  0  0  0  0  0  0
  151.8213  139.3618  155.3738 C   0  0  0  0  0  0  0  0  0  0  0  0
  152.0832  139.5477  157.1786 S   0  0  0  0  0  0  0  0  0  0  0  0
  153.4353  139.0613  157.4948 O   0  0  0  0  0  0  0  0  0  0  0  0
  151.7019  140.9167  157.5571 O   0  0  0  0  0  0  0  0  0  0  0  0
  150.9550  138.4576  157.7695 N   0  0  0  0  0  0  0  0  0  0  0  0
  150.5487  137.4253  157.0945 C   0  0  0  0  0  0  0  0  0  0  0  0
  149.6020  136.5094  157.7108 C   0  0  0  0  0  0  0  0  0  0  0  0
  149.0682  135.4760  157.0276 C   0  0  0  0  0  0  0  0  0  0  0  0
  148.1533  135.5658  153.5738 H   0  0  0  0  0  0  0  0  0  0  0  0
  148.1103  133.6913  151.8719 H   0  0  0  0  0  0  0  0  0  0  0  0
  147.4440  132.6915  153.1333 H   0  0  0  0  0  0  0  0  0  0  0  0
  145.4135  134.0627  153.2541 H   0  0  0  0  0  0  0  0  0  0  0  0
  146.1265  135.3214  152.2824 H   0  0  0  0  0  0  0  0  0  0  0  0
  147.2353  132.3662  150.7497 H   0  0  0  0  0  0  0  0  0  0  0  0
  146.2186  131.3363  148.7122 H   0  0  0  0  0  0  0  0  0  0  0  0
  143.8581  132.0640  148.0279 H   0  0  0  0  0  0  0  0  0  0  0  0
  143.5767  134.6834  151.2127 H   0  0  0  0  0  0  0  0  0  0  0  0
  150.6510  135.9542  154.0532 H   0  0  0  0  0  0  0  0  0  0  0  0
  152.9451  137.5132  155.3787 H   0  0  0  0  0  0  0  0  0  0  0  0
  151.8969  137.7282  153.9944 H   0  0  0  0  0  0  0  0  0  0  0  0
  152.5698  139.9547  154.8484 H   0  0  0  0  0  0  0  0  0  0  0  0
  150.8330  139.7402  155.1098 H   0  0  0  0  0  0  0  0  0  0  0  0
  149.2903  136.6393  158.7374 H   0  0  0  0  0  0  0  0  0  0  0  0
  148.3685  134.8378  157.5466 H   0  0  0  0  0  0  0  0  0  0  0  0
  142.7628  133.6498  149.3114 H   0  0  0  0  0  0  0  0  0  0  0  0
  1  2  2  0  0  0  0
  2  3  1  0  0  0  0
  2 12  1  0  0  0  0
  3  4  1  0  0  0  0
  3 24  1  0  0  0  0
  4  5  1  0  0  0  0
  4 25  1  0  0  0  0
  4 26  1  0  0  0  0
  5  6  1  0  0  0  0
  5 27  1  0  0  0  0
  5 28  1  0  0  0  0
  6 11  1  0  0  0  0
  6  7  2  0  0  0  0
  7  8  1  0  0  0  0
  7 29  1  0  0  0  0
  8  9  2  0  0  0  0
  8 30  1  0  0  0  0
  9 10  1  0  0  0  0
  9 31  1  0  0  0  0
 10 11  2  0  0  0  0
 10 40  1  0  0  0  0
 11 32  1  0  0  0  0
 12 23  1  0  0  0  0
 12 13  2  0  0  0  0
 13 14  1  0  0  0  0
 13 33  1  0  0  0  0
 14 21  1  0  0  0  0
 14 15  1  0  0  0  0
 15 16  1  0  0  0  0
 15 34  1  0  0  0  0
 15 35  1  0  0  0  0
 16 17  1  0  0  0  0
 16 36  1  0  0  0  0
 16 37  1  0  0  0  0
 17 18  2  0  0  0  0
 17 19  2  0  0  0  0
 17 20  1  0  0  0  0
 20 21  2  0  0  0  0
 21 22  1  0  0  0  0
 22 23  2  0  0  0  0
 22 38  1  0  0  0  0
 23 39  1  0  0  0  0
M  CHG  1  10   1
M  END
> <s_m_source_file>
AV-unprocessed.smi

> <i_m_source_file_index>
2164

> <i_lp_mmshare_version>
43012

> <i_f3d_flags>
0

> <s_epik_input>
W0NIMl0xW0NIMl1TKD1PKSg9TylOPUMoTjEyKVtDSF09W0NIXUMoPVtDSF0yKUMoPU8pW05IXVtDSDJdW0NIMl1jM1tjSF1bY0hdW2NIXW5bY0hdMw==

> <s_epik_cmdline>
J2VwaWtfcHl0aG9uJywgJy1waCcsICc3LjAnLCAnLXRuJywgJzgnLCAnLW1hJywgJzIwMCcsICctbWV0YWxfYmluZGluZycsICctaW1hZScsICc8aW5maWxlLm1hZT4nLCAnLW9tYWUnLCAnPG91dGZpbGUubWFlPic=

> <r_epik_Ionization_Penalty>
2.45963

> <r_epik_Ionization_Penalty_Charging>
2.45946

> <r_epik_Ionization_Penalty_Neutral>
0.000170278

> <r_epik_State_Penalty>
2.62155

> <r_epik_Charging_Adjusted_Penalty>
5.08101

> <i_epik_Tot_Q>
1

> <i_epik_Tot_abs_Q>
1

> <r_epik_Metal_State_Penalty>
2.85721

> <b_epik_Metal_Only>
0

> <s_lp_Force_Field>
OPLS_2005

> <r_lp_Energy>
29.3092

> <b_lp_Chiralities_Consistent>
1

> <s_lp_Variant>
AV-unprocessed.smi:2164-2

> <Gold.Version>
5.8.1

> <Gold.Id.Protein>
6NUR|6NUR_protein|mol2

> <Gold.PLP.Fitness>
45.9946

> <Gold.PLP.PLP>
-36.7213

> <Gold.PLP.part.hbond>
-2.8145

> <Gold.PLP.part.metal>
0.0000

> <Gold.PLP.part.buried>
-4.4337

> <Gold.PLP.part.nonpolar>
-29.5620

> <Gold.PLP.part.repulsive>
0.0857

> <Gold.PLP.ligand.clash>
0.0000

> <Gold.PLP.ligand.torsion>
1.2604

> <Gold.PLP.Chemscore.Hbond>
3.2205

> <Gold.PLP.Chemscore.CHOScore>
0.7046

> <Gold.PLP.Chemscore.Metal>
0.0000

> <Gold.Chemscore.Hbonds>
donor molecule, donor type, donor heavy atom, donor atom, acceptor molecule, acceptor atom, score
      L1  H     3    24       P1  7948  0.34
      L1  H    10    40       P1 10186  2.00
      P1  H  7997  8010       L1    18  1.00
      L1  C    13    33       P1  7948  0.13
      L1  C    13    33       P1  7949  0.46

> <Gold.PLP.Chemscore.Internal.Correction>
0.0190

> <Gold.Rescore>
     Score         DG    S(hbond)    S(metal)    S(lipo)     H(rot)  DE(clash)    DE(int)     intcor
     18.87     -19.97       2.26        0.00      93.01       1.54       0.07       1.03       ----

> <Gold.Chemscore.Fitness>
18.8654

> <Gold.Chemscore.DG>
-19.9717

> <Gold.Chemscore.ZeroCoef>
-5.4800

> <Gold.Chemscore.Hbond>
2.2575

> <Gold.Chemscore.Metal>
0.0000

> <Gold.Chemscore.Lipo>
93.0131

> <Gold.Chemscore.Internal_Hbond>
0.0000

> <Gold.Chemscore.DEClash>
0.0735

> <Gold.Chemscore.DEInternal>
1.0328

> <Gold.Chemscore.Rot>
1.5355

> <Gold.Chemscore.Internal.Correction>
   9.000000E+99

> <Gold.Chemscore.Hbonds>
donor molecule, donor type, donor heavy atom, donor atom, acceptor molecule, acceptor atom, score
      L1  H     3    24       P1  7948  0.33
      L1  H    10    40       P1 10186  0.98
      P1  H  7997  8010       L1    18  0.43

> <Gold.Chemscore.Hbond.Weighted>
-7.5401

> <Gold.Chemscore.Metal.Weighted>
-0.0000

> <Gold.Chemscore.Lipo.Weighted>
-10.8825

> <Gold.Chemscore.Internal_Hbond.Weighted>
0.0000

> <Gold.Chemscore.DEClash.Weighted>
0.0735

> <Gold.Chemscore.DEInternal.Weighted>
1.0328

> <Gold.Chemscore.Rot.Weighted>
3.9309

> <Gold.Chemscore.Internal.Correction.Weighted>
   9.000000E+99

> <Gold.Protein.RotatedTorsions>
[ 6907 6896 6895 6894 ] final  171.03 input  -60.11 | X-H torsion
[ 7974 7965 7964 7962 ] final -112.95 input  175.53 | X-H torsion
[ 8008 7997 7996 7995 ] final   58.55 input   59.86 | X-H torsion
[ 10167 10162 10161 10158 ] final  -99.39 input  -65.29 | X-H torsion
[ 10718 10713 10712 10709 ] final  -25.62 input   66.30 | X-H torsion
[ 10763 10752 10751 10750 ] final  130.56 input  -60.55 | X-H torsion
[ 11005 11000 10999 10996 ] final   73.91 input  -57.11 | X-H torsion

> <Gold.Protein.ActiveResidues>
 VAL166  LYS551  ARG553  GLY616  TRP617  ASP618  TYR619  PRO620  LYS621  CYS622 
 ASP623  PHE694  ASN695  SER759  ASP760  ASP761  ALA762  ILE779  LEU786  VAL792 
 PHE793  MET794  SER795  GLU796  ALA797  LYS798  CYS799  TRP800  GLU811  SER814 

> <Gold.Protein.RotatedAtoms>
  151.8067  133.3376  159.3542 H   0  0  0  0  0  0  0  0  0  0  0  0  # atno 6907 bound_to 6896
  150.7340  134.5703  159.5896 H   0  0  0  0  0  0  0  0  0  0  0  0  # atno 6908 bound_to 6896
  152.3104  134.7505  160.0389 H   0  0  0  0  0  0  0  0  0  0  0  0  # atno 6909 bound_to 6896
  145.1379  140.8761  143.3719 H   0  0  0  0  0  0  0  0  0  0  0  0  # atno 7974 bound_to 7965
  155.5518  140.3486  155.4470 H   0  0  0  0  0  0  0  0  0  0  0  0  # atno 8008 bound_to 7997
  156.0578  140.1333  157.0003 H   0  0  0  0  0  0  0  0  0  0  0  0  # atno 8009 bound_to 7997
  154.4464  140.0991  156.6456 H   0  0  0  0  0  0  0  0  0  0  0  0  # atno 8010 bound_to 7997
  140.2630  143.3395  152.0608 H   0  0  0  0  0  0  0  0  0  0  0  0  # atno 10167 bound_to 10162
  156.4619  130.4506  149.6923 H   0  0  0  0  0  0  0  0  0  0  0  0  # atno 10718 bound_to 10713
  153.7601  135.3197  155.3335 H   0  0  0  0  0  0  0  0  0  0  0  0  # atno 10763 bound_to 10752
  154.8233  135.4588  154.0846 H   0  0  0  0  0  0  0  0  0  0  0  0  # atno 10764 bound_to 10752
  153.2075  135.6931  153.8238 H   0  0  0  0  0  0  0  0  0  0  0  0  # atno 10765 bound_to 10752
  139.9416  134.7388  156.1084 H   0  0  0  0  0  0  0  0  0  0  0  0  # atno 11005 bound_to 11000
  145.0564  139.3140  143.5902 LP  0  0  0  0  0  0  0  0  0  0  0  0  # atno 17320 bound_to 7965
  146.3508  139.9991  142.8678 LP  0  0  0  0  0  0  0  0  0  0  0  0  # atno 17321 bound_to 7965
  139.5011  144.6706  151.6251 LP  0  0  0  0  0  0  0  0  0  0  0  0  # atno 17342 bound_to 10162
  140.5951  143.9711  150.6349 LP  0  0  0  0  0  0  0  0  0  0  0  0  # atno 17343 bound_to 10162
  156.3707  130.7529  151.2512 LP  0  0  0  0  0  0  0  0  0  0  0  0  # atno 17370 bound_to 10713
  157.7497  131.0324  150.4224 LP  0  0  0  0  0  0  0  0  0  0  0  0  # atno 17371 bound_to 10713
  141.1053  133.6662  156.2849 LP  0  0  0  0  0  0  0  0  0  0  0  0  # atno 17394 bound_to 11000
  140.5937  134.5625  157.5504 LP  0  0  0  0  0  0  0  0  0  0  0  0  # atno 17395 bound_to 11000

$$$$
