AV-unprocessed.smi:121|AV-procd|sdf|1140|dock7
  -GOLD-   2262018273D 1   1.00000     0.00000
 Structure written by MMmdl.
 37 39  0  0  0  0  0  0  0  0  1 V2000
  151.9082  144.5375  158.6788 N   0  0  0  0  0  0  0  0  0  0  0  0
  152.3321  143.5560  159.1211 C   0  0  0  0  0  0  0  0  0  0  0  0
  152.8649  142.3233  159.6768 C   0  0  0  0  0  0  0  0  0  0  0  0
  153.4512  142.3217  160.9586 C   0  0  0  0  0  0  0  0  0  0  0  0
  153.9703  141.1268  161.4923 C   0  0  0  0  0  0  0  0  0  0  0  0
  153.9023  139.9335  160.7482 C   0  0  0  0  0  0  0  0  0  0  0  0
  153.3101  139.9235  159.4679 C   0  0  0  0  0  0  0  0  0  0  0  0
  153.2487  138.6158  158.6859 C   0  0  0  0  0  0  0  0  0  0  0  0
  151.9993  138.3623  157.9847 N   0  0  0  0  0  0  0  0  0  0  0  0
  151.0170  137.6093  158.6736 C   0  0  0  0  0  0  0  0  0  0  0  0
  151.2047  137.1793  159.8134 O   0  0  0  0  0  0  0  0  0  0  0  0
  149.7813  137.3975  157.9284 C   0  0  0  0  0  0  0  0  0  0  0  0
  148.7893  136.6760  158.4772 F   0  0  0  0  0  0  0  0  0  0  0  0
  149.6170  137.9128  156.6912 C   0  0  0  0  0  0  0  0  0  0  0  0
  150.5855  138.6683  156.0522 N   0  0  0  0  0  0  0  0  0  0  0  0
  150.3487  139.2246  154.6663 C   0  0  1  0  0  0  0  0  0  0  0  0
  149.0341  138.6820  154.0937 C   0  0  0  0  0  0  0  0  0  0  0  0
  148.0694  139.8097  154.3915 C   0  0  0  0  0  0  0  0  0  0  0  0
  148.9703  141.0300  154.2458 C   0  0  0  0  0  0  0  0  0  0  0  0
  150.2362  140.6163  154.7505 O   0  0  0  0  0  0  0  0  0  0  0  0
  151.8237  138.9061  156.6888 C   0  0  0  0  0  0  0  0  0  0  0  0
  152.7038  139.5662  156.1317 O   0  0  0  0  0  0  0  0  0  0  0  0
  152.7967  141.1271  158.9334 C   0  0  0  0  0  0  0  0  0  0  0  0
  153.5075  143.2330  161.5366 H   0  0  0  0  0  0  0  0  0  0  0  0
  154.4209  141.1252  162.4739 H   0  0  0  0  0  0  0  0  0  0  0  0
  154.3030  139.0222  161.1674 H   0  0  0  0  0  0  0  0  0  0  0  0
  154.0709  138.5745  157.9714 H   0  0  0  0  0  0  0  0  0  0  0  0
  153.4136  137.7597  159.3435 H   0  0  0  0  0  0  0  0  0  0  0  0
  148.6824  137.7180  156.1863 H   0  0  0  0  0  0  0  0  0  0  0  0
  151.2268  138.9697  154.0714 H   0  0  0  0  0  0  0  0  0  0  0  0
  149.1503  138.5544  153.0168 H   0  0  0  0  0  0  0  0  0  0  0  0
  148.7508  137.7253  154.5348 H   0  0  0  0  0  0  0  0  0  0  0  0
  147.2125  139.8299  153.7175 H   0  0  0  0  0  0  0  0  0  0  0  0
  147.6990  139.7310  155.4144 H   0  0  0  0  0  0  0  0  0  0  0  0
  149.0815  141.2973  153.1940 H   0  0  0  0  0  0  0  0  0  0  0  0
  148.5908  141.9008  154.7808 H   0  0  0  0  0  0  0  0  0  0  0  0
  152.3499  141.1378  157.9500 H   0  0  0  0  0  0  0  0  0  0  0  0
  1  2  3  0  0  0  0
  2  3  1  0  0  0  0
  3 23  1  0  0  0  0
  3  4  2  0  0  0  0
  4  5  1  0  0  0  0
  4 24  1  0  0  0  0
  5  6  2  0  0  0  0
  5 25  1  0  0  0  0
  6  7  1  0  0  0  0
  6 26  1  0  0  0  0
  7  8  1  0  0  0  0
  7 23  2  0  0  0  0
  8  9  1  0  0  0  0
  8 27  1  0  0  0  0
  8 28  1  0  0  0  0
  9 21  1  0  0  0  0
  9 10  1  0  0  0  0
 10 11  2  0  0  0  0
 10 12  1  0  0  0  0
 12 13  1  0  0  0  0
 12 14  2  0  0  0  0
 14 15  1  0  0  0  0
 14 29  1  0  0  0  0
 15 16  1  0  0  0  0
 15 21  1  0  0  0  0
 16 20  1  0  0  0  0
 16 17  1  0  0  0  0
 16 30  1  0  0  0  0
 17 18  1  0  0  0  0
 17 31  1  0  0  0  0
 17 32  1  0  0  0  0
 18 19  1  0  0  0  0
 18 33  1  0  0  0  0
 18 34  1  0  0  0  0
 19 20  1  0  0  0  0
 19 35  1  0  0  0  0
 19 36  1  0  0  0  0
 21 22  2  0  0  0  0
 23 37  1  0  0  0  0
M  END
> <s_m_source_file>
AV-unprocessed.smi

> <i_m_source_file_index>
121

> <i_lp_mmshare_version>
43012

> <i_f3d_flags>
0

> <s_epik_input>
TiNDYzFbY0hdW2NIXVtjSF1jKFtjSF0xKVtDSDJdbjJjKD1PKWMoRilbY0hdbihjMj1PKVtDQEBIXTNbQ0gyXVtDSDJdW0NIMl1PMw==

> <s_epik_cmdline>
J2VwaWtfcHl0aG9uJywgJy1waCcsICc3LjAnLCAnLXRuJywgJzgnLCAnLW1hJywgJzIwMCcsICctbWV0YWxfYmluZGluZycsICctaW1hZScsICc8aW5maWxlLm1hZT4nLCAnLW9tYWUnLCAnPG91dGZpbGUubWFlPic=

> <r_lp_tautomer_probability>
1

> <r_epik_Ionization_Penalty>
1.69864e-08

> <r_epik_Ionization_Penalty_Charging>
1.69802e-08

> <r_epik_Ionization_Penalty_Neutral>
6.20402e-12

> <r_epik_State_Penalty>
-0

> <r_epik_Charging_Adjusted_Penalty>
1.69802e-08

> <i_epik_Tot_Q>
0

> <i_epik_Tot_abs_Q>
0

> <r_epik_Metal_State_Penalty>
-0

> <b_epik_Metal_Only>
0

> <s_epik_Chemistry_Notes>
This compound contains an acetal/aminal-like group ( X-CH(R)-Y where X, Y are N, S, or O) that may be acid/base labile, releasing an aldehyde.

> <s_lp_Force_Field>
OPLS_2005

> <r_lp_Energy>
33.8546

> <b_lp_Chiralities_Consistent>
1

> <s_lp_Variant>
AV-unprocessed.smi:121-2

> <Gold.Version>
5.8.1

> <Gold.Id.Protein>
6NUR|6NUR_protein|mol2

> <Gold.PLP.Fitness>
47.8596

> <Gold.PLP.PLP>
-41.6326

> <Gold.PLP.part.hbond>
-2.9605

> <Gold.PLP.part.metal>
0.0000

> <Gold.PLP.part.buried>
-7.1085

> <Gold.PLP.part.nonpolar>
-32.8974

> <Gold.PLP.part.repulsive>
0.1615

> <Gold.PLP.ligand.clash>
0.0000

> <Gold.PLP.ligand.torsion>
0.7517

> <Gold.PLP.Chemscore.Hbond>
2.5737

> <Gold.PLP.Chemscore.CHOScore>
0.0000

> <Gold.PLP.Chemscore.Metal>
0.0000

> <Gold.Chemscore.Hbonds>
donor molecule, donor type, donor heavy atom, donor atom, acceptor molecule, acceptor atom, score
      P1  H  6896  6909       L1    11  1.00
      P1  H  7989  7998       L1    20  0.58
      P1  H  7997  8010       L1    22  1.00

> <Gold.PLP.Chemscore.Internal.Correction>
0.0095

> <Gold.Rescore>
     Score         DG    S(hbond)    S(metal)    S(lipo)     H(rot)  DE(clash)    DE(int)     intcor
     16.47     -17.99       1.98        0.00      85.02       1.59       0.07       1.45       ----

> <Gold.Chemscore.Fitness>
16.4687

> <Gold.Chemscore.DG>
-17.9899

> <Gold.Chemscore.ZeroCoef>
-5.4800

> <Gold.Chemscore.Hbond>
1.9845

> <Gold.Chemscore.Metal>
0.0000

> <Gold.Chemscore.Lipo>
85.0199

> <Gold.Chemscore.Internal_Hbond>
0.0000

> <Gold.Chemscore.DEClash>
0.0678

> <Gold.Chemscore.DEInternal>
1.4534

> <Gold.Chemscore.Rot>
1.5882

> <Gold.Chemscore.Internal.Correction>
   9.000000E+99

> <Gold.Chemscore.Hbonds>
donor molecule, donor type, donor heavy atom, donor atom, acceptor molecule, acceptor atom, score
      P1  H  6896  6909       L1    11  0.85
      P1  H  7989  7998       L1    20  0.04
      P1  H  7997  8010       L1    22  1.00

> <Gold.Chemscore.Hbond.Weighted>
-6.6284

> <Gold.Chemscore.Metal.Weighted>
-0.0000

> <Gold.Chemscore.Lipo.Weighted>
-9.9473

> <Gold.Chemscore.Internal_Hbond.Weighted>
0.0000

> <Gold.Chemscore.DEClash.Weighted>
0.0678

> <Gold.Chemscore.DEInternal.Weighted>
1.4534

> <Gold.Chemscore.Rot.Weighted>
4.0657

> <Gold.Chemscore.Internal.Correction.Weighted>
   9.000000E+99

> <Gold.Protein.RotatedTorsions>
[ 6907 6896 6895 6894 ] final  109.19 input  -60.11 | X-H torsion
[ 7974 7965 7964 7962 ] final -128.32 input  175.53 | X-H torsion
[ 8008 7997 7996 7995 ] final   85.17 input   59.86 | X-H torsion
[ 10167 10162 10161 10158 ] final -121.73 input  -65.29 | X-H torsion
[ 10718 10713 10712 10709 ] final -143.64 input   66.30 | X-H torsion
[ 10763 10752 10751 10750 ] final  148.51 input  -60.55 | X-H torsion
[ 11005 11000 10999 10996 ] final -100.46 input  -57.11 | X-H torsion

> <Gold.Protein.ActiveResidues>
 VAL166  LYS551  ARG553  GLY616  TRP617  ASP618  TYR619  PRO620  LYS621  CYS622 
 ASP623  PHE694  ASN695  SER759  ASP760  ASP761  ALA762  ILE779  LEU786  VAL792 
 PHE793  MET794  SER795  GLU796  ALA797  LYS798  CYS799  TRP800  GLU811  SER814 

> <Gold.Protein.RotatedAtoms>
  152.5078  133.8980  159.7426 H   0  0  0  0  0  0  0  0  0  0  0  0  # atno 6907 bound_to 6896
  150.9402  133.6656  159.2799 H   0  0  0  0  0  0  0  0  0  0  0  0  # atno 6908 bound_to 6896
  151.3970  135.0970  159.9597 H   0  0  0  0  0  0  0  0  0  0  0  0  # atno 6909 bound_to 6896
  144.9682  140.7518  143.4687 H   0  0  0  0  0  0  0  0  0  0  0  0  # atno 7974 bound_to 7965
  155.9465  140.3404  155.6371 H   0  0  0  0  0  0  0  0  0  0  0  0  # atno 8008 bound_to 7997
  155.6974  140.0756  157.2442 H   0  0  0  0  0  0  0  0  0  0  0  0  # atno 8009 bound_to 7997
  154.4113  140.1646  156.2140 H   0  0  0  0  0  0  0  0  0  0  0  0  # atno 8010 bound_to 7997
  140.0219  143.5336  152.2217 H   0  0  0  0  0  0  0  0  0  0  0  0  # atno 10167 bound_to 10162
  156.3605  130.7735  151.1902 H   0  0  0  0  0  0  0  0  0  0  0  0  # atno 10718 bound_to 10713
  154.0559  135.2878  155.3333 H   0  0  0  0  0  0  0  0  0  0  0  0  # atno 10763 bound_to 10752
  154.6839  135.5252  153.8304 H   0  0  0  0  0  0  0  0  0  0  0  0  # atno 10764 bound_to 10752
  153.0542  135.6588  154.0751 H   0  0  0  0  0  0  0  0  0  0  0  0  # atno 10765 bound_to 10752
  141.1270  133.8400  157.1105 H   0  0  0  0  0  0  0  0  0  0  0  0  # atno 11005 bound_to 11000
  145.2598  139.1997  143.4898 LP  0  0  0  0  0  0  0  0  0  0  0  0  # atno 17320 bound_to 7965
  146.3374  140.2526  142.8599 LP  0  0  0  0  0  0  0  0  0  0  0  0  # atno 17321 bound_to 7965
  139.6134  144.7614  151.2900 LP  0  0  0  0  0  0  0  0  0  0  0  0  # atno 17342 bound_to 10162
  140.7339  143.6782  150.8023 LP  0  0  0  0  0  0  0  0  0  0  0  0  # atno 17343 bound_to 10162
  157.7473  131.0401  150.4584 LP  0  0  0  0  0  0  0  0  0  0  0  0  # atno 17370 bound_to 10713
  156.4794  130.4070  149.6470 LP  0  0  0  0  0  0  0  0  0  0  0  0  # atno 17371 bound_to 10713
  140.0278  134.9915  157.0721 LP  0  0  0  0  0  0  0  0  0  0  0  0  # atno 17394 bound_to 11000
  140.4334  134.1756  155.7169 LP  0  0  0  0  0  0  0  0  0  0  0  0  # atno 17395 bound_to 11000

$$$$
