AV-unprocessed.smi:2855|AV-procd|sdf|10991|dock4
  -GOLD-   2272015443D 1   1.00000     0.00000
 Structure written by MMmdl.
 46 47  0  0  0  0  0  0  0  0  2 V2000
  142.2569  134.3666  152.6416 C   0  0  0  0  0  0  0  0  0  0  0  0
  143.5713  134.1014  151.8944 C   0  0  2  0  0  0  0  0  0  0  0  0
  143.5843  132.6974  151.2561 C   0  0  0  0  0  0  0  0  0  0  0  0
  144.9304  132.3916  150.5721 C   0  0  0  0  0  0  0  0  0  0  0  0
  146.1246  132.5139  151.5524 C   0  0  2  0  0  0  0  0  0  0  0  0
  146.1456  131.3850  152.6432 C   0  0  0  0  0  0  0  0  0  0  0  0
  147.4913  131.2487  153.3831 C   0  0  0  0  0  0  0  0  0  0  0  0
  145.7802  130.0030  152.0641 C   0  0  0  0  0  0  0  0  0  0  0  0
  146.1044  133.9867  152.0668 C   0  0  2  0  0  0  0  0  0  0  0  0
  147.2643  134.3732  152.8645 N   0  0  0  0  0  0  0  0  0  0  0  0
  147.4209  134.1456  154.1776 C   0  0  0  0  0  0  0  0  0  0  0  0
  146.5794  133.5664  154.8662 O   0  0  0  0  0  0  0  0  0  0  0  0
  148.7214  134.6830  154.7917 C   0  0  0  0  0  0  0  0  0  0  0  0
  149.4577  133.6825  155.5809 N   0  0  0  0  0  0  0  0  0  0  0  0
  149.8952  132.5237  154.9153 C   0  0  0  0  0  0  0  0  0  0  0  0
  150.5796  131.5543  155.5518 C   0  0  0  0  0  0  0  0  0  0  0  0
  150.8653  131.7290  156.9704 C   0  0  0  0  0  0  0  0  0  0  0  0
  151.4829  130.8507  157.5695 O   0  0  0  0  0  0  0  0  0  0  0  0
  150.4261  132.8743  157.5701 N   0  5  0  0  0  0  0  0  0  0  0  0
  149.7345  133.8539  156.9088 C   0  0  0  0  0  0  0  0  0  0  0  0
  149.3517  134.8822  157.4682 O   0  0  0  0  0  0  0  0  0  0  0  0
  144.7944  134.3080  152.8109 C   0  0  0  0  0  0  0  0  0  0  0  0
  142.1194  133.6629  153.4633 H   0  0  0  0  0  0  0  0  0  0  0  0
  141.3998  134.2708  151.9746 H   0  0  0  0  0  0  0  0  0  0  0  0
  142.2389  135.3735  153.0592 H   0  0  0  0  0  0  0  0  0  0  0  0
  143.6400  134.8308  151.0858 H   0  0  0  0  0  0  0  0  0  0  0  0
  143.3736  131.9413  152.0126 H   0  0  0  0  0  0  0  0  0  0  0  0
  142.7811  132.6211  150.5226 H   0  0  0  0  0  0  0  0  0  0  0  0
  144.8991  131.4162  150.0897 H   0  0  0  0  0  0  0  0  0  0  0  0
  145.0707  133.0966  149.7514 H   0  0  0  0  0  0  0  0  0  0  0  0
  147.0274  132.3851  150.9539 H   0  0  0  0  0  0  0  0  0  0  0  0
  145.3949  131.6094  153.4000 H   0  0  0  0  0  0  0  0  0  0  0  0
  148.3273  131.1968  152.6849 H   0  0  0  0  0  0  0  0  0  0  0  0
  147.5197  130.3473  153.9957 H   0  0  0  0  0  0  0  0  0  0  0  0
  147.6653  132.0760  154.0688 H   0  0  0  0  0  0  0  0  0  0  0  0
  146.4176  129.7459  151.2175 H   0  0  0  0  0  0  0  0  0  0  0  0
  144.7427  129.9584  151.7353 H   0  0  0  0  0  0  0  0  0  0  0  0
  145.8916  129.2170  152.8114 H   0  0  0  0  0  0  0  0  0  0  0  0
  146.1267  134.6404  151.1920 H   0  0  0  0  0  0  0  0  0  0  0  0
  148.0074  134.8551  152.3799 H   0  0  0  0  0  0  0  0  0  0  0  0
  149.3527  135.0820  153.9957 H   0  0  0  0  0  0  0  0  0  0  0  0
  148.4746  135.5422  155.4172 H   0  0  0  0  0  0  0  0  0  0  0  0
  149.6484  132.4768  153.8647 H   0  0  0  0  0  0  0  0  0  0  0  0
  150.9121  130.6719  155.0249 H   0  0  0  0  0  0  0  0  0  0  0  0
  144.8134  135.3431  153.1549 H   0  0  0  0  0  0  0  0  0  0  0  0
  144.7056  133.6935  153.7070 H   0  0  0  0  0  0  0  0  0  0  0  0
  1  2  1  0  0  0  0
  1 23  1  0  0  0  0
  1 24  1  0  0  0  0
  1 25  1  0  0  0  0
  2 22  1  0  0  0  0
  2  3  1  0  0  0  0
  2 26  1  0  0  0  0
  3  4  1  0  0  0  0
  3 27  1  0  0  0  0
  3 28  1  0  0  0  0
  4  5  1  0  0  0  0
  4 29  1  0  0  0  0
  4 30  1  0  0  0  0
  5  6  1  0  0  0  0
  5  9  1  0  0  0  0
  5 31  1  0  0  0  0
  6  7  1  0  0  0  0
  6  8  1  0  0  0  0
  6 32  1  0  0  0  0
  7 33  1  0  0  0  0
  7 34  1  0  0  0  0
  7 35  1  0  0  0  0
  8 36  1  0  0  0  0
  8 37  1  0  0  0  0
  8 38  1  0  0  0  0
  9 10  1  0  0  0  0
  9 22  1  0  0  0  0
  9 39  1  0  0  0  0
 10 11  1  0  0  0  0
 10 40  1  0  0  0  0
 11 12  2  0  0  0  0
 11 13  1  0  0  0  0
 13 14  1  0  0  0  0
 13 41  1  0  0  0  0
 13 42  1  0  0  0  0
 14 20  1  0  0  0  0
 14 15  1  0  0  0  0
 15 16  2  0  0  0  0
 15 43  1  0  0  0  0
 16 17  1  0  0  0  0
 16 44  1  0  0  0  0
 17 18  2  0  0  0  0
 17 19  1  0  0  0  0
 19 20  1  0  0  0  0
 20 21  2  0  0  0  0
 22 45  1  0  0  0  0
 22 46  1  0  0  0  0
M  CHG  1  19  -1
M  END
> <s_m_source_file>
AV-unprocessed.smi

> <i_m_source_file_index>
2855

> <i_lp_mmshare_version>
43012

> <i_f3d_flags>
0

> <s_epik_input>
W0NIM11bQ0BASF0xW0NIMl1bQ0gyXVtDQEBIXShbQ0hdKFtDSDNdKVtDSDNdKVtDQEhdKFtDSDJdMSlbTkhdQyg9TylbQ0gyXW4yW2NIXVtjSF1jKD1PKVtuSF1jMj1P

> <s_epik_cmdline>
J2VwaWtfcHl0aG9uJywgJy1waCcsICc3LjAnLCAnLXRuJywgJzgnLCAnLW1hJywgJzIwMCcsICctbWV0YWxfYmluZGluZycsICctaW1hZScsICc8aW5maWxlLm1hZT4nLCAnLW9tYWUnLCAnPG91dGZpbGUubWFlPic=

> <r_lp_tautomer_probability>
0.999537

> <r_epik_Ionization_Penalty>
3.12102

> <r_epik_Ionization_Penalty_Charging>
2.9581e-08

> <r_epik_Ionization_Penalty_Neutral>
3.12102

> <r_epik_State_Penalty>
3.12011

> <r_epik_Charging_Adjusted_Penalty>
3.12011

> <i_epik_Tot_Q>
-1

> <i_epik_Tot_abs_Q>
1

> <r_epik_Metal_State_Penalty>
0.463583

> <b_epik_Metal_Only>
1

> <s_lp_Force_Field>
OPLS_2005

> <r_lp_Energy>
28.6833

> <b_lp_Chiralities_Consistent>
1

> <s_lp_Variant>
AV-unprocessed.smi:2855-15

> <Gold.Version>
5.8.1

> <Gold.Id.Protein>
6NUR|6NUR_protein|mol2

> <Gold.PLP.Fitness>
43.5525

> <Gold.PLP.PLP>
-35.6381

> <Gold.PLP.part.hbond>
-2.2019

> <Gold.PLP.part.metal>
0.0000

> <Gold.PLP.part.buried>
-5.1652

> <Gold.PLP.part.nonpolar>
-28.3077

> <Gold.PLP.part.repulsive>
0.0505

> <Gold.PLP.ligand.clash>
0.0000

> <Gold.PLP.ligand.torsion>
0.5885

> <Gold.PLP.Chemscore.Hbond>
3.0000

> <Gold.PLP.Chemscore.CHOScore>
0.0000

> <Gold.PLP.Chemscore.Metal>
0.0000

> <Gold.Chemscore.Hbonds>
donor molecule, donor type, donor heavy atom, donor atom, acceptor molecule, acceptor atom, score
      L1  H    10    40       P1  7948  1.00
      P1  H  6896  6908       L1    19  2.00

> <Gold.PLP.Chemscore.Internal.Correction>
0.0915

> <Gold.Rescore>
     Score         DG    S(hbond)    S(metal)    S(lipo)     H(rot)  DE(clash)    DE(int)     intcor
     12.87     -15.43       1.75        0.00      74.56       1.81       0.01       2.55       ----

> <Gold.Chemscore.Fitness>
12.8724

> <Gold.Chemscore.DG>
-15.4284

> <Gold.Chemscore.ZeroCoef>
-5.4800

> <Gold.Chemscore.Hbond>
1.7539

> <Gold.Chemscore.Metal>
0.0000

> <Gold.Chemscore.Lipo>
74.5623

> <Gold.Chemscore.Internal_Hbond>
0.0000

> <Gold.Chemscore.DEClash>
0.0106

> <Gold.Chemscore.DEInternal>
2.5454

> <Gold.Chemscore.Rot>
1.8100

> <Gold.Chemscore.Internal.Correction>
   9.000000E+99

> <Gold.Chemscore.Hbonds>
donor molecule, donor type, donor heavy atom, donor atom, acceptor molecule, acceptor atom, score
      L1  H    10    40       P1  7948  0.69
      P1  H  6896  6908       L1    19  0.84

> <Gold.Chemscore.Hbond.Weighted>
-5.8581

> <Gold.Chemscore.Metal.Weighted>
-0.0000

> <Gold.Chemscore.Lipo.Weighted>
-8.7238

> <Gold.Chemscore.Internal_Hbond.Weighted>
0.0000

> <Gold.Chemscore.DEClash.Weighted>
0.0106

> <Gold.Chemscore.DEInternal.Weighted>
2.5454

> <Gold.Chemscore.Rot.Weighted>
4.6335

> <Gold.Chemscore.Internal.Correction.Weighted>
   9.000000E+99

> <Gold.Protein.RotatedTorsions>
[ 6907 6896 6895 6894 ] final   91.85 input  -60.11 | X-H torsion
[ 7974 7965 7964 7962 ] final  138.95 input  175.53 | X-H torsion
[ 8008 7997 7996 7995 ] final  158.27 input   59.86 | X-H torsion
[ 10167 10162 10161 10158 ] final  -69.18 input  -65.29 | X-H torsion
[ 10718 10713 10712 10709 ] final -157.96 input   66.30 | X-H torsion
[ 10763 10752 10751 10750 ] final  146.67 input  -60.55 | X-H torsion
[ 11005 11000 10999 10996 ] final  110.06 input  -57.11 | X-H torsion

> <Gold.Protein.ActiveResidues>
 VAL166  LYS551  ARG553  GLY616  TRP617  ASP618  TYR619  PRO620  LYS621  CYS622 
 ASP623  PHE694  ASN695  SER759  ASP760  ASP761  ALA762  ILE779  LEU786  VAL792 
 PHE793  MET794  SER795  GLU796  ALA797  LYS798  CYS799  TRP800  GLU811  SER814 

> <Gold.Protein.RotatedAtoms>
  152.5451  134.1593  159.8550 H   0  0  0  0  0  0  0  0  0  0  0  0  # atno 6907 bound_to 6896
  151.1612  133.4837  159.2602 H   0  0  0  0  0  0  0  0  0  0  0  0  # atno 6908 bound_to 6896
  151.1371  135.0171  159.8664 H   0  0  0  0  0  0  0  0  0  0  0  0  # atno 6909 bound_to 6896
  144.9324  139.5030  143.5611 H   0  0  0  0  0  0  0  0  0  0  0  0  # atno 7974 bound_to 7965
  156.2313  140.1863  156.7235 H   0  0  0  0  0  0  0  0  0  0  0  0  # atno 8008 bound_to 7997
  154.6027  140.0633  156.9418 H   0  0  0  0  0  0  0  0  0  0  0  0  # atno 8009 bound_to 7997
  155.2147  140.3302  155.4326 H   0  0  0  0  0  0  0  0  0  0  0  0  # atno 8010 bound_to 7997
  140.5450  143.2313  151.7018 H   0  0  0  0  0  0  0  0  0  0  0  0  # atno 10167 bound_to 10162
  156.5475  130.8591  151.2769 H   0  0  0  0  0  0  0  0  0  0  0  0  # atno 10718 bound_to 10713
  154.0257  135.2902  155.3375 H   0  0  0  0  0  0  0  0  0  0  0  0  # atno 10763 bound_to 10752
  154.7019  135.5185  153.8542 H   0  0  0  0  0  0  0  0  0  0  0  0  # atno 10764 bound_to 10752
  153.0662  135.6631  154.0474 H   0  0  0  0  0  0  0  0  0  0  0  0  # atno 10765 bound_to 10752
  139.8874  134.9474  156.6221 H   0  0  0  0  0  0  0  0  0  0  0  0  # atno 11005 bound_to 11000
  146.3253  139.8285  142.8913 LP  0  0  0  0  0  0  0  0  0  0  0  0  # atno 17320 bound_to 7965
  145.3120  141.0222  143.3549 LP  0  0  0  0  0  0  0  0  0  0  0  0  # atno 17321 bound_to 7965
  139.5004  144.3908  152.0281 LP  0  0  0  0  0  0  0  0  0  0  0  0  # atno 17342 bound_to 10162
  140.3021  144.3635  150.6057 LP  0  0  0  0  0  0  0  0  0  0  0  0  # atno 17343 bound_to 10162
  157.7394  130.9830  150.2309 LP  0  0  0  0  0  0  0  0  0  0  0  0  # atno 17370 bound_to 10713
  156.2914  130.3746  149.7837 LP  0  0  0  0  0  0  0  0  0  0  0  0  # atno 17371 bound_to 10713
  140.7731  133.8722  155.8507 LP  0  0  0  0  0  0  0  0  0  0  0  0  # atno 17394 bound_to 11000
  140.9825  134.1387  157.4482 LP  0  0  0  0  0  0  0  0  0  0  0  0  # atno 17395 bound_to 11000

$$$$
