AV-unprocessed.smi:1029|AV-procd|sdf|4476|dock1
  -GOLD-   22720 2453D 1   1.00000     0.00000
 Structure written by MMmdl.
 46 47  0  0  0  0  0  0  0  0  2 V2000
  150.2753  142.3058  157.4073 C   0  0  0  0  0  0  0  0  0  0  0  0
  150.2566  141.3444  156.2556 C   0  0  0  0  0  0  0  0  0  0  0  0
  149.1294  140.8021  155.5783 C   0  0  0  0  0  0  0  0  0  0  0  0
  149.7030  139.9978  154.6295 C   0  0  0  0  0  0  0  0  0  0  0  0
  149.0908  139.2311  153.6891 N   0  0  0  0  0  0  0  0  0  0  0  0
  147.7994  139.2292  153.3134 C   0  0  0  0  0  0  0  0  0  0  0  0
  146.9114  139.9313  153.7973 O   0  0  0  0  0  0  0  0  0  0  0  0
  147.5807  138.3550  152.3220 N   0  0  0  0  0  0  0  0  0  0  0  0
  146.2879  138.1589  151.6781 C   0  0  0  0  0  0  0  0  0  0  0  0
  146.0382  136.6726  151.3693 C   0  0  2  0  0  0  0  0  0  0  0  0
  145.4525  136.5807  150.0847 O   0  0  0  0  0  0  0  0  0  0  0  0
  145.0576  136.0436  152.3800 C   0  0  0  0  0  0  0  0  0  0  0  0
  144.8643  134.5879  152.1538 N   0  3  2  0  0  0  0  0  0  0  0  0
  146.1342  133.8920  151.8230 C   0  0  0  0  0  0  0  0  0  0  0  0
  145.9300  132.3679  151.7479 C   0  0  0  0  0  0  0  0  0  0  0  0
  144.8232  131.9756  150.7525 C   0  0  2  0  0  0  0  0  0  0  0  0
  145.2643  132.1210  149.2855 C   0  0  0  0  0  0  0  0  0  0  0  0
  143.5422  132.7681  151.0720 C   0  0  0  0  0  0  0  0  0  0  0  0
  143.7995  134.2834  151.1618 C   0  0  0  0  0  0  0  0  0  0  0  0
  151.0554  140.0333  154.7087 O   0  0  0  0  0  0  0  0  0  0  0  0
  151.3992  140.8984  155.7544 N   0  0  0  0  0  0  0  0  0  0  0  0
  149.3109  142.8018  157.5211 H   0  0  0  0  0  0  0  0  0  0  0  0
  151.0292  143.0805  157.2651 H   0  0  0  0  0  0  0  0  0  0  0  0
  150.4970  141.7909  158.3423 H   0  0  0  0  0  0  0  0  0  0  0  0
  148.0838  140.9873  155.7723 H   0  0  0  0  0  0  0  0  0  0  0  0
  149.6979  138.5924  153.1972 H   0  0  0  0  0  0  0  0  0  0  0  0
  148.3582  137.8137  151.9729 H   0  0  0  0  0  0  0  0  0  0  0  0
  145.5188  138.5258  152.3595 H   0  0  0  0  0  0  0  0  0  0  0  0
  146.2185  138.7603  150.7694 H   0  0  0  0  0  0  0  0  0  0  0  0
  146.9869  136.1356  151.3711 H   0  0  0  0  0  0  0  0  0  0  0  0
  144.6988  137.1507  150.0531 H   0  0  0  0  0  0  0  0  0  0  0  0
  145.4018  136.2044  153.4031 H   0  0  0  0  0  0  0  0  0  0  0  0
  144.1011  136.5631  152.3007 H   0  0  0  0  0  0  0  0  0  0  0  0
  146.5294  134.2754  150.8813 H   0  0  0  0  0  0  0  0  0  0  0  0
  146.8807  134.1088  152.5879 H   0  0  0  0  0  0  0  0  0  0  0  0
  146.8673  131.8761  151.4851 H   0  0  0  0  0  0  0  0  0  0  0  0
  145.6642  131.9988  152.7395 H   0  0  0  0  0  0  0  0  0  0  0  0
  144.6031  130.9180  150.9042 H   0  0  0  0  0  0  0  0  0  0  0  0
  145.5133  133.1504  149.0295 H   0  0  0  0  0  0  0  0  0  0  0  0
  144.4761  131.7938  148.6068 H   0  0  0  0  0  0  0  0  0  0  0  0
  146.1437  131.5096  149.0806 H   0  0  0  0  0  0  0  0  0  0  0  0
  142.7752  132.5615  150.3248 H   0  0  0  0  0  0  0  0  0  0  0  0
  143.1367  132.4225  152.0241 H   0  0  0  0  0  0  0  0  0  0  0  0
  142.8713  134.7813  151.4400 H   0  0  0  0  0  0  0  0  0  0  0  0
  144.0836  134.6798  150.1860 H   0  0  0  0  0  0  0  0  0  0  0  0
  144.5606  134.2062  153.0386 H   0  0  0  0  0  0  0  0  0  0  0  0
  1  2  1  0  0  0  0
  1 22  1  0  0  0  0
  1 23  1  0  0  0  0
  1 24  1  0  0  0  0
  2 21  2  0  0  0  0
  2  3  1  0  0  0  0
  3  4  2  0  0  0  0
  3 25  1  0  0  0  0
  4  5  1  0  0  0  0
  4 20  1  0  0  0  0
  5  6  1  0  0  0  0
  5 26  1  0  0  0  0
  6  7  2  0  0  0  0
  6  8  1  0  0  0  0
  8  9  1  0  0  0  0
  8 27  1  0  0  0  0
  9 10  1  0  0  0  0
  9 28  1  0  0  0  0
  9 29  1  0  0  0  0
 10 11  1  0  0  0  0
 10 12  1  0  0  0  0
 10 30  1  0  0  0  0
 11 31  1  0  0  0  0
 12 13  1  0  0  0  0
 12 32  1  0  0  0  0
 12 33  1  0  0  0  0
 13 19  1  0  0  0  0
 13 14  1  0  0  0  0
 13 46  1  0  0  0  0
 14 15  1  0  0  0  0
 14 34  1  0  0  0  0
 14 35  1  0  0  0  0
 15 16  1  0  0  0  0
 15 36  1  0  0  0  0
 15 37  1  0  0  0  0
 16 17  1  0  0  0  0
 16 18  1  0  0  0  0
 16 38  1  0  0  0  0
 17 39  1  0  0  0  0
 17 40  1  0  0  0  0
 17 41  1  0  0  0  0
 18 19  1  0  0  0  0
 18 42  1  0  0  0  0
 18 43  1  0  0  0  0
 19 44  1  0  0  0  0
 19 45  1  0  0  0  0
 20 21  1  0  0  0  0
M  CHG  1  13   1
M  END
> <s_m_source_file>
AV-unprocessed.smi

> <i_m_source_file_index>
1029

> <i_lp_mmshare_version>
43012

> <i_f3d_flags>
0

> <s_epik_input>
W0NIM11jMVtjSF1jKG9uMSlbTkhdQyg9TylbTkhdW0NIMl1bQ0BIXShbT0hdKVtDSDJdTjJbQ0gyXVtDSDJdW0NIXShbQ0gzXSlbQ0gyXVtDSDJdMg==

> <s_epik_cmdline>
J2VwaWtfcHl0aG9uJywgJy1waCcsICc3LjAnLCAnLXRuJywgJzgnLCAnLW1hJywgJzIwMCcsICctbWV0YWxfYmluZGluZycsICctaW1hZScsICc8aW5maWxlLm1hZT4nLCAnLW9tYWUnLCAnPG91dGZpbGUubWFlPic=

> <r_lp_tautomer_probability>
1

> <r_epik_Ionization_Penalty>
0.00211787

> <r_epik_Ionization_Penalty_Charging>
0.00153238

> <r_epik_Ionization_Penalty_Neutral>
0.000585488

> <r_epik_State_Penalty>
-0

> <r_epik_Charging_Adjusted_Penalty>
0.00153238

> <i_epik_Tot_Q>
1

> <i_epik_Tot_abs_Q>
1

> <r_epik_Metal_State_Penalty>
-0

> <b_epik_Metal_Only>
0

> <s_lp_Force_Field>
OPLS_2005

> <r_lp_Energy>
23.9078

> <b_lp_Chiralities_Consistent>
1

> <s_lp_Variant>
AV-unprocessed.smi:1029-3

> <Gold.Version>
5.8.1

> <Gold.Id.Protein>
6NUR|6NUR_protein|mol2

> <Gold.PLP.Fitness>
44.8781

> <Gold.PLP.PLP>
-38.1866

> <Gold.PLP.part.hbond>
-6.7851

> <Gold.PLP.part.metal>
0.0000

> <Gold.PLP.part.buried>
-2.0137

> <Gold.PLP.part.nonpolar>
-31.2508

> <Gold.PLP.part.repulsive>
0.4238

> <Gold.PLP.ligand.clash>
0.0000

> <Gold.PLP.ligand.torsion>
1.0326

> <Gold.PLP.Chemscore.Hbond>
2.8960

> <Gold.PLP.Chemscore.CHOScore>
0.0000

> <Gold.PLP.Chemscore.Metal>
0.0000

> <Gold.Chemscore.Hbonds>
donor molecule, donor type, donor heavy atom, donor atom, acceptor molecule, acceptor atom, score
      L1  H     8    27       P1  7948  0.88
      L1  H    11    31       P1 10171  1.00
      P1  H  7989  7998       L1    20  0.95

> <Gold.PLP.Chemscore.Internal.Correction>
0.0687

> <Gold.Rescore>
     Score         DG    S(hbond)    S(metal)    S(lipo)     H(rot)  DE(clash)    DE(int)     intcor
     12.52     -16.44       2.26        0.00      83.08       2.46       0.76       3.16       ----

> <Gold.Chemscore.Fitness>
12.5240

> <Gold.Chemscore.DG>
-16.4409

> <Gold.Chemscore.ZeroCoef>
-5.4800

> <Gold.Chemscore.Hbond>
2.2587

> <Gold.Chemscore.Metal>
0.0000

> <Gold.Chemscore.Lipo>
83.0812

> <Gold.Chemscore.Internal_Hbond>
0.0000

> <Gold.Chemscore.DEClash>
0.7606

> <Gold.Chemscore.DEInternal>
3.1563

> <Gold.Chemscore.Rot>
2.4624

> <Gold.Chemscore.Internal.Correction>
   9.000000E+99

> <Gold.Chemscore.Hbonds>
donor molecule, donor type, donor heavy atom, donor atom, acceptor molecule, acceptor atom, score
      L1  H     8    27       P1  7948  0.86
      L1  H    11    31       P1 10171  0.98
      P1  H  7989  7998       L1    20  0.16

> <Gold.Chemscore.Hbond.Weighted>
-7.5441

> <Gold.Chemscore.Metal.Weighted>
-0.0000

> <Gold.Chemscore.Lipo.Weighted>
-9.7205

> <Gold.Chemscore.Internal_Hbond.Weighted>
0.0000

> <Gold.Chemscore.DEClash.Weighted>
0.7606

> <Gold.Chemscore.DEInternal.Weighted>
3.1563

> <Gold.Chemscore.Rot.Weighted>
6.3037

> <Gold.Chemscore.Internal.Correction.Weighted>
   9.000000E+99

> <Gold.Protein.RotatedTorsions>
[ 6907 6896 6895 6894 ] final   25.81 input  -60.11 | X-H torsion
[ 7974 7965 7964 7962 ] final -135.50 input  175.53 | X-H torsion
[ 8008 7997 7996 7995 ] final  -20.06 input   59.86 | X-H torsion
[ 10167 10162 10161 10158 ] final -132.76 input  -65.29 | X-H torsion
[ 10718 10713 10712 10709 ] final  -33.63 input   66.30 | X-H torsion
[ 10763 10752 10751 10750 ] final  157.44 input  -60.55 | X-H torsion
[ 11005 11000 10999 10996 ] final   84.51 input  -57.11 | X-H torsion

> <Gold.Protein.ActiveResidues>
 VAL166  LYS551  ARG553  GLY616  TRP617  ASP618  TYR619  PRO620  LYS621  CYS622 
 ASP623  PHE694  ASN695  SER759  ASP760  ASP761  ALA762  ILE779  LEU786  VAL792 
 PHE793  MET794  SER795  GLU796  ALA797  LYS798  CYS799  TRP800  GLU811  SER814 

> <Gold.Protein.RotatedAtoms>
  151.9780  135.0043  160.0555 H   0  0  0  0  0  0  0  0  0  0  0  0  # atno 6907 bound_to 6896
  152.1722  133.4646  159.4923 H   0  0  0  0  0  0  0  0  0  0  0  0  # atno 6908 bound_to 6896
  150.6903  134.1856  159.4308 H   0  0  0  0  0  0  0  0  0  0  0  0  # atno 6909 bound_to 6896
  144.9008  140.6769  143.5086 H   0  0  0  0  0  0  0  0  0  0  0  0  # atno 7974 bound_to 7965
  154.4795  140.2072  155.9798 H   0  0  0  0  0  0  0  0  0  0  0  0  # atno 8008 bound_to 7997
  156.1142  140.3224  155.8085 H   0  0  0  0  0  0  0  0  0  0  0  0  # atno 8009 bound_to 7997
  155.4582  140.0522  157.2984 H   0  0  0  0  0  0  0  0  0  0  0  0  # atno 8010 bound_to 7997
  139.9053  143.6559  152.2587 H   0  0  0  0  0  0  0  0  0  0  0  0  # atno 10167 bound_to 10162
  156.3603  130.4322  149.7629 H   0  0  0  0  0  0  0  0  0  0  0  0  # atno 10718 bound_to 10713
  154.2003  135.2790  155.2993 H   0  0  0  0  0  0  0  0  0  0  0  0  # atno 10763 bound_to 10752
  154.5860  135.5575  153.7234 H   0  0  0  0  0  0  0  0  0  0  0  0  # atno 10764 bound_to 10752
  153.0089  135.6356  154.2141 H   0  0  0  0  0  0  0  0  0  0  0  0  # atno 10765 bound_to 10752
  139.8998  134.8221  156.2454 H   0  0  0  0  0  0  0  0  0  0  0  0  # atno 11005 bound_to 11000
  145.3620  139.1679  143.4378 LP  0  0  0  0  0  0  0  0  0  0  0  0  # atno 17320 bound_to 7965
  146.3107  140.3683  142.8671 LP  0  0  0  0  0  0  0  0  0  0  0  0  # atno 17321 bound_to 7965
  139.6990  144.7637  151.1307 LP  0  0  0  0  0  0  0  0  0  0  0  0  # atno 17342 bound_to 10162
  140.7698  143.5484  150.9232 LP  0  0  0  0  0  0  0  0  0  0  0  0  # atno 17343 bound_to 10162
  156.4796  130.8034  151.3049 LP  0  0  0  0  0  0  0  0  0  0  0  0  # atno 17370 bound_to 10713
  157.7472  131.0010  150.2947 LP  0  0  0  0  0  0  0  0  0  0  0  0  # atno 17371 bound_to 10713
  141.0258  133.7016  156.1345 LP  0  0  0  0  0  0  0  0  0  0  0  0  # atno 17394 bound_to 11000
  140.7169  134.4401  157.5578 LP  0  0  0  0  0  0  0  0  0  0  0  0  # atno 17395 bound_to 11000

$$$$
