AV-unprocessed.smi:1996|AV-procd|sdf|8084|dock4
  -GOLD-   2272010303D 1   1.00000     0.00000
 Structure written by MMmdl.
 33 34  0  0  0  0  0  0  0  0  1 V2000
  153.3722  138.3756  158.0029 O   0  0  0  0  0  0  0  0  0  0  0  0
  152.3682  138.8965  158.4896 C   0  0  0  0  0  0  0  0  0  0  0  0
  152.4131  139.9034  159.3741 N   0  0  0  0  0  0  0  0  0  0  0  0
  153.6339  140.5290  159.8687 C   0  0  0  0  0  0  0  0  0  0  0  0
  153.3239  141.6384  160.8889 C   0  0  0  0  0  0  0  0  0  0  0  0
  152.7304  142.8810  160.2465 C   0  0  0  0  0  0  0  0  0  0  0  0
  152.5930  142.9962  158.9112 C   0  0  0  0  0  0  0  0  0  0  0  0
  152.0196  144.2172  158.2132 C   0  0  0  0  0  0  0  0  0  0  0  0
  151.9186  145.4350  159.1472 C   0  0  0  0  0  0  0  0  0  0  0  0
  151.3868  145.0334  160.5286 C   0  0  0  0  0  0  0  0  0  0  0  0
  152.2988  143.9903  161.1990 C   0  0  0  0  0  0  0  0  0  0  0  0
  151.0991  138.5478  158.2140 N   0  0  0  0  0  0  0  0  0  0  0  0
  150.6349  137.5469  157.3200 C   0  0  0  0  0  0  0  0  0  0  0  0
  151.4223  136.5970  156.7909 N   0  0  0  0  0  0  0  0  0  0  0  0
  150.7173  135.7486  155.9470 N   0  0  0  0  0  0  0  0  0  0  0  0
  149.4278  136.0912  155.8733 C   0  0  0  0  0  0  0  0  0  0  0  0
  148.9485  137.4837  156.8280 S   0  0  0  0  0  0  0  0  0  0  0  0
  151.5403  140.2699  159.7252 H   0  0  0  0  0  0  0  0  0  0  0  0
  154.2423  139.7502  160.3289 H   0  0  0  0  0  0  0  0  0  0  0  0
  154.2154  140.9269  159.0352 H   0  0  0  0  0  0  0  0  0  0  0  0
  152.6302  141.2613  161.6415 H   0  0  0  0  0  0  0  0  0  0  0  0
  154.2308  141.9213  161.4246 H   0  0  0  0  0  0  0  0  0  0  0  0
  152.8933  142.1816  158.2681 H   0  0  0  0  0  0  0  0  0  0  0  0
  152.6393  144.4621  157.3503 H   0  0  0  0  0  0  0  0  0  0  0  0
  151.0332  143.9532  157.8307 H   0  0  0  0  0  0  0  0  0  0  0  0
  152.9040  145.8885  159.2620 H   0  0  0  0  0  0  0  0  0  0  0  0
  151.2787  146.1957  158.6995 H   0  0  0  0  0  0  0  0  0  0  0  0
  151.2926  145.9110  161.1688 H   0  0  0  0  0  0  0  0  0  0  0  0
  150.3824  144.6222  160.4193 H   0  0  0  0  0  0  0  0  0  0  0  0
  151.7840  143.5559  162.0567 H   0  0  0  0  0  0  0  0  0  0  0  0
  153.1950  144.4786  161.5829 H   0  0  0  0  0  0  0  0  0  0  0  0
  150.3785  139.0651  158.6954 H   0  0  0  0  0  0  0  0  0  0  0  0
  148.7543  135.5195  155.2520 H   0  0  0  0  0  0  0  0  0  0  0  0
  1  2  2  0  0  0  0
  2  3  1  0  0  0  0
  2 12  1  0  0  0  0
  3  4  1  0  0  0  0
  3 18  1  0  0  0  0
  4  5  1  0  0  0  0
  4 19  1  0  0  0  0
  4 20  1  0  0  0  0
  5  6  1  0  0  0  0
  5 21  1  0  0  0  0
  5 22  1  0  0  0  0
  6 11  1  0  0  0  0
  6  7  2  0  0  0  0
  7  8  1  0  0  0  0
  7 23  1  0  0  0  0
  8  9  1  0  0  0  0
  8 24  1  0  0  0  0
  8 25  1  0  0  0  0
  9 10  1  0  0  0  0
  9 26  1  0  0  0  0
  9 27  1  0  0  0  0
 10 11  1  0  0  0  0
 10 28  1  0  0  0  0
 10 29  1  0  0  0  0
 11 30  1  0  0  0  0
 11 31  1  0  0  0  0
 12 13  1  0  0  0  0
 12 32  1  0  0  0  0
 13 17  1  0  0  0  0
 13 14  2  0  0  0  0
 14 15  1  0  0  0  0
 15 16  2  0  0  0  0
 16 17  1  0  0  0  0
 16 33  1  0  0  0  0
M  END
> <s_m_source_file>
AV-unprocessed.smi

> <i_m_source_file_index>
1996

> <i_lp_mmshare_version>
43012

> <i_f3d_flags>
0

> <s_epik_input>
czFbY0hdbm5jMVtOSF1DKD1PKVtOSF1bQ0gyXVtDSDJdQzI9W0NIXVtDSDJdW0NIMl1bQ0gyXVtDSDJdMg==

> <s_epik_cmdline>
J2VwaWtfcHl0aG9uJywgJy1waCcsICc3LjAnLCAnLXRuJywgJzgnLCAnLW1hJywgJzIwMCcsICctbWV0YWxfYmluZGluZycsICctaW1hZScsICc8aW5maWxlLm1hZT4nLCAnLW9tYWUnLCAnPG91dGZpbGUubWFlPic=

> <r_lp_tautomer_probability>
1

> <r_epik_Ionization_Penalty>
0.00157076

> <r_epik_Ionization_Penalty_Charging>
0

> <r_epik_Ionization_Penalty_Neutral>
0.00157076

> <r_epik_State_Penalty>
-0

> <r_epik_Charging_Adjusted_Penalty>
0

> <i_epik_Tot_Q>
0

> <i_epik_Tot_abs_Q>
0

> <r_epik_Metal_State_Penalty>
0.323125

> <b_epik_Metal_Only>
0

> <s_lp_Force_Field>
OPLS_2005

> <r_lp_Energy>
6.02977

> <b_lp_Chiralities_Consistent>
1

> <s_lp_Variant>
AV-unprocessed.smi:1996-1

> <Gold.Version>
5.8.1

> <Gold.Id.Protein>
6NUR|6NUR_protein|mol2

> <Gold.PLP.Fitness>
46.7404

> <Gold.PLP.PLP>
-37.9319

> <Gold.PLP.part.hbond>
-3.0000

> <Gold.PLP.part.metal>
0.0000

> <Gold.PLP.part.buried>
-3.8951

> <Gold.PLP.part.nonpolar>
-31.7534

> <Gold.PLP.part.repulsive>
0.2648

> <Gold.PLP.ligand.clash>
0.0000

> <Gold.PLP.ligand.torsion>
0.0998

> <Gold.PLP.Chemscore.Hbond>
2.0000

> <Gold.PLP.Chemscore.CHOScore>
1.0000

> <Gold.PLP.Chemscore.Metal>
0.0000

> <Gold.Chemscore.Hbonds>
donor molecule, donor type, donor heavy atom, donor atom, acceptor molecule, acceptor atom, score
      P1  H  7997  8008       L1     1  0.39

> <Gold.PLP.Chemscore.Internal.Correction>
0.0080

> <Gold.Rescore>
     Score         DG    S(hbond)    S(metal)    S(lipo)     H(rot)  DE(clash)    DE(int)     intcor
     16.80     -18.31       1.57        0.00     100.12       1.62       0.16       1.36       ----

> <Gold.Chemscore.Fitness>
16.7984

> <Gold.Chemscore.DG>
-18.3132

> <Gold.Chemscore.ZeroCoef>
-5.4800

> <Gold.Chemscore.Hbond>
1.5742

> <Gold.Chemscore.Metal>
0.0000

> <Gold.Chemscore.Lipo>
100.1213

> <Gold.Chemscore.Internal_Hbond>
0.0000

> <Gold.Chemscore.DEClash>
0.1551

> <Gold.Chemscore.DEInternal>
1.3596

> <Gold.Chemscore.Rot>
1.6167

> <Gold.Chemscore.Internal.Correction>
   9.000000E+99

> <Gold.Chemscore.Hbonds>
donor molecule, donor type, donor heavy atom, donor atom, acceptor molecule, acceptor atom, score
      P1  H  7997  8008       L1     1  0.27

> <Gold.Chemscore.Hbond.Weighted>
-5.2577

> <Gold.Chemscore.Metal.Weighted>
-0.0000

> <Gold.Chemscore.Lipo.Weighted>
-11.7142

> <Gold.Chemscore.Internal_Hbond.Weighted>
0.0000

> <Gold.Chemscore.DEClash.Weighted>
0.1551

> <Gold.Chemscore.DEInternal.Weighted>
1.3596

> <Gold.Chemscore.Rot.Weighted>
4.1387

> <Gold.Chemscore.Internal.Correction.Weighted>
   9.000000E+99

> <Gold.Protein.RotatedTorsions>
[ 6907 6896 6895 6894 ] final  -41.31 input  -60.11 | X-H torsion
[ 7974 7965 7964 7962 ] final   82.60 input  175.53 | X-H torsion
[ 8008 7997 7996 7995 ] final  -90.37 input   59.86 | X-H torsion
[ 10167 10162 10161 10158 ] final  155.00 input  -65.29 | X-H torsion
[ 10718 10713 10712 10709 ] final  160.08 input   66.30 | X-H torsion
[ 10763 10752 10751 10750 ] final  -69.61 input  -60.55 | X-H torsion
[ 11005 11000 10999 10996 ] final  118.82 input  -57.11 | X-H torsion

> <Gold.Protein.ActiveResidues>
 VAL166  LYS551  ARG553  GLY616  TRP617  ASP618  TYR619  PRO620  LYS621  CYS622 
 ASP623  PHE694  ASN695  SER759  ASP760  ASP761  ALA762  ILE779  LEU786  VAL792 
 PHE793  MET794  SER795  GLU796  ALA797  LYS798  CYS799  TRP800  GLU811  SER814 

> <Gold.Protein.RotatedAtoms>
  150.9682  134.9060  159.7771 H   0  0  0  0  0  0  0  0  0  0  0  0  # atno 6907 bound_to 6896
  152.5181  134.3577  159.9283 H   0  0  0  0  0  0  0  0  0  0  0  0  # atno 6908 bound_to 6896
  151.3587  133.3857  159.2722 H   0  0  0  0  0  0  0  0  0  0  0  0  # atno 6909 bound_to 6896
  145.6229  139.2389  143.2128 H   0  0  0  0  0  0  0  0  0  0  0  0  # atno 7974 bound_to 7965
  154.6978  140.0531  157.0427 H   0  0  0  0  0  0  0  0  0  0  0  0  # atno 8008 bound_to 7997
  155.0727  140.3201  155.4606 H   0  0  0  0  0  0  0  0  0  0  0  0  # atno 8009 bound_to 7997
  156.2750  140.2079  156.5855 H   0  0  0  0  0  0  0  0  0  0  0  0  # atno 8010 bound_to 7997
  139.4822  144.5138  151.7984 H   0  0  0  0  0  0  0  0  0  0  0  0  # atno 10167 bound_to 10162
  157.1553  131.0574  151.2259 H   0  0  0  0  0  0  0  0  0  0  0  0  # atno 10718 bound_to 10713
  154.4059  135.6020  153.5924 H   0  0  0  0  0  0  0  0  0  0  0  0  # atno 10763 bound_to 10752
  152.9789  135.5917  154.4128 H   0  0  0  0  0  0  0  0  0  0  0  0  # atno 10764 bound_to 10752
  154.3934  135.2842  155.2119 H   0  0  0  0  0  0  0  0  0  0  0  0  # atno 10765 bound_to 10752
  139.9123  134.9623  156.7561 H   0  0  0  0  0  0  0  0  0  0  0  0  # atno 11005 bound_to 11000
  146.1417  140.7048  142.9364 LP  0  0  0  0  0  0  0  0  0  0  0  0  # atno 17320 bound_to 7965
  144.7224  140.4416  143.6998 LP  0  0  0  0  0  0  0  0  0  0  0  0  # atno 17321 bound_to 7965
  140.4644  144.1677  150.5910 LP  0  0  0  0  0  0  0  0  0  0  0  0  # atno 17342 bound_to 10162
  140.4450  143.2510  151.9423 LP  0  0  0  0  0  0  0  0  0  0  0  0  # atno 17343 bound_to 10162
  157.4183  130.7423  149.6893 LP  0  0  0  0  0  0  0  0  0  0  0  0  # atno 17370 bound_to 10713
  155.9763  130.4077  150.3788 LP  0  0  0  0  0  0  0  0  0  0  0  0  # atno 17371 bound_to 10713
  140.6734  133.9539  155.7869 LP  0  0  0  0  0  0  0  0  0  0  0  0  # atno 17394 bound_to 11000
  141.0561  134.0414  157.3720 LP  0  0  0  0  0  0  0  0  0  0  0  0  # atno 17395 bound_to 11000

$$$$
