AV-unprocessed.smi:109|AV-procd|sdf|1036|dock8
  -GOLD-   2262018 53D 1   1.00000     0.00000
 Structure written by MMmdl.
 58 61  0  0  0  0  0  0  0  0  1 V2000
  149.9543  141.5869  153.6329 O   0  0  0  0  0  0  0  0  0  0  0  0
  150.6261  141.4874  154.8701 C   0  0  0  0  0  0  0  0  0  0  0  0
  149.6432  141.7529  156.0215 C   0  0  0  0  0  0  0  0  0  0  0  0
  150.2757  141.5409  157.4153 C   0  0  1  0  0  0  0  0  0  0  0  0
  151.2030  140.4104  157.3720 N   0  0  0  0  0  0  0  0  0  0  0  0
  151.0061  139.3018  158.1202 C   0  0  0  0  0  0  0  0  0  0  0  0
  149.8512  138.5911  158.0410 N   0  0  0  0  0  0  0  0  0  0  0  0
  149.6863  137.4991  158.7925 C   0  0  0  0  0  0  0  0  0  0  0  0
  150.5326  136.9554  159.6694 N   0  0  0  0  0  0  0  0  0  0  0  0
  151.6971  137.6615  159.7529 C   0  0  0  0  0  0  0  0  0  0  0  0
  152.0058  138.8381  159.0137 C   0  0  0  0  0  0  0  0  0  0  0  0
  153.2752  139.2868  159.3503 N   0  0  0  0  0  0  0  0  0  0  0  0
  153.6905  138.4206  160.2344 C   0  0  0  0  0  0  0  0  0  0  0  0
  152.8026  137.4138  160.5450 N   0  0  0  0  0  0  0  0  0  0  0  0
  153.0248  136.2862  161.5065 C   0  0  2  0  0  0  0  0  0  0  0  0
  153.1297  136.8226  162.7926 O   0  0  0  0  0  0  0  0  0  0  0  0
  154.4254  136.5803  163.3389 C   0  0  1  0  0  0  0  0  0  0  0  0
  154.3707  136.4843  164.8740 C   0  0  0  0  0  0  0  0  0  0  0  0
  153.4079  135.5293  165.2667 O   0  0  0  0  0  0  0  0  0  0  0  0
  154.8899  135.3123  162.6106 C   0  0  1  0  0  0  0  0  0  0  0  0
  154.3626  134.1544  163.2403 O   0  0  0  0  0  0  0  0  0  0  0  0
  154.3248  135.5231  161.2093 C   0  0  1  0  0  0  0  0  0  0  0  0
  154.1172  134.2954  160.5364 O   0  0  0  0  0  0  0  0  0  0  0  0
  150.9714  142.8043  157.9943 C   0  0  0  0  0  0  0  0  0  0  0  0
  152.0940  142.4640  158.9987 C   0  0  0  0  0  0  0  0  0  0  0  0
  152.8334  143.7298  159.4622 C   0  0  0  0  0  0  0  0  0  0  0  0
  151.8584  144.7533  160.0653 C   0  0  0  0  0  0  0  0  0  0  0  0
  150.7317  145.0954  159.0778 C   0  0  0  0  0  0  0  0  0  0  0  0
  149.9936  143.8291  158.6126 C   0  0  0  0  0  0  0  0  0  0  0  0
  152.1282  135.6683  161.4416 H   0  0  0  0  0  0  0  0  0  0  0  0
  155.0910  137.3936  163.0503 H   0  0  0  0  0  0  0  0  0  0  0  0
  155.9771  135.2281  162.5977 H   0  0  0  0  0  0  0  0  0  0  0  0
  155.0047  136.1475  160.6296 H   0  0  0  0  0  0  0  0  0  0  0  0
  149.0589  141.8408  153.7973 H   0  0  0  0  0  0  0  0  0  0  0  0
  151.0607  140.4911  154.9577 H   0  0  0  0  0  0  0  0  0  0  0  0
  151.4474  142.2043  154.8819 H   0  0  0  0  0  0  0  0  0  0  0  0
  149.2497  142.7666  155.9371 H   0  0  0  0  0  0  0  0  0  0  0  0
  148.7923  141.0851  155.8937 H   0  0  0  0  0  0  0  0  0  0  0  0
  149.4566  141.2828  158.0877 H   0  0  0  0  0  0  0  0  0  0  0  0
  152.0379  140.5537  156.8222 H   0  0  0  0  0  0  0  0  0  0  0  0
  148.7422  136.9884  158.6746 H   0  0  0  0  0  0  0  0  0  0  0  0
  154.6674  138.4951  160.6899 H   0  0  0  0  0  0  0  0  0  0  0  0
  155.3453  136.2329  165.2933 H   0  0  0  0  0  0  0  0  0  0  0  0
  154.0696  137.4425  165.2991 H   0  0  0  0  0  0  0  0  0  0  0  0
  153.6384  135.2055  166.1240 H   0  0  0  0  0  0  0  0  0  0  0  0
  153.4843  134.3496  163.5307 H   0  0  0  0  0  0  0  0  0  0  0  0
  154.9094  134.0720  160.0722 H   0  0  0  0  0  0  0  0  0  0  0  0
  151.4640  143.3056  157.1601 H   0  0  0  0  0  0  0  0  0  0  0  0
  151.6858  141.9584  159.8733 H   0  0  0  0  0  0  0  0  0  0  0  0
  152.8048  141.7727  158.5449 H   0  0  0  0  0  0  0  0  0  0  0  0
  153.5960  143.4668  160.1957 H   0  0  0  0  0  0  0  0  0  0  0  0
  153.3588  144.1772  158.6174 H   0  0  0  0  0  0  0  0  0  0  0  0
  151.4293  144.3516  160.9840 H   0  0  0  0  0  0  0  0  0  0  0  0
  152.3964  145.6594  160.3451 H   0  0  0  0  0  0  0  0  0  0  0  0
  150.0278  145.7864  159.5423 H   0  0  0  0  0  0  0  0  0  0  0  0
  151.1477  145.6138  158.2130 H   0  0  0  0  0  0  0  0  0  0  0  0
  149.2261  144.1060  157.8893 H   0  0  0  0  0  0  0  0  0  0  0  0
  149.4733  143.3886  159.4633 H   0  0  0  0  0  0  0  0  0  0  0  0
  1  2  1  0  0  0  0
  1 34  1  0  0  0  0
  2  3  1  0  0  0  0
  2 35  1  0  0  0  0
  2 36  1  0  0  0  0
  3  4  1  0  0  0  0
  3 37  1  0  0  0  0
  3 38  1  0  0  0  0
  4  5  1  0  0  0  0
  4 24  1  0  0  0  0
  4 39  1  0  0  0  0
  5  6  1  0  0  0  0
  5 40  1  0  0  0  0
  6 11  1  0  0  0  0
  6  7  2  0  0  0  0
  7  8  1  0  0  0  0
  8  9  2  0  0  0  0
  8 41  1  0  0  0  0
  9 10  1  0  0  0  0
 10 14  1  0  0  0  0
 10 11  2  0  0  0  0
 11 12  1  0  0  0  0
 12 13  2  0  0  0  0
 13 14  1  0  0  0  0
 13 42  1  0  0  0  0
 14 15  1  0  0  0  0
 15 30  1  0  0  0  0
 15 22  1  0  0  0  0
 15 16  1  0  0  0  0
 16 17  1  0  0  0  0
 17 31  1  0  0  0  0
 17 18  1  0  0  0  0
 17 20  1  0  0  0  0
 18 19  1  0  0  0  0
 18 43  1  0  0  0  0
 18 44  1  0  0  0  0
 19 45  1  0  0  0  0
 20 32  1  0  0  0  0
 20 21  1  0  0  0  0
 20 22  1  0  0  0  0
 21 46  1  0  0  0  0
 22 33  1  0  0  0  0
 22 23  1  0  0  0  0
 23 47  1  0  0  0  0
 24 29  1  0  0  0  0
 24 25  1  0  0  0  0
 24 48  1  0  0  0  0
 25 26  1  0  0  0  0
 25 49  1  0  0  0  0
 25 50  1  0  0  0  0
 26 27  1  0  0  0  0
 26 51  1  0  0  0  0
 26 52  1  0  0  0  0
 27 28  1  0  0  0  0
 27 53  1  0  0  0  0
 27 54  1  0  0  0  0
 28 29  1  0  0  0  0
 28 55  1  0  0  0  0
 28 56  1  0  0  0  0
 29 57  1  0  0  0  0
 29 58  1  0  0  0  0
M  END
> <s_m_source_file>
AV-unprocessed.smi

> <i_m_source_file_index>
109

> <i_lp_mmshare_version>
43012

> <i_f3d_flags>
0

> <s_epik_input>
W0NIMl0xW0NIMl1bQ0gyXVtDSDJdW0NIMl1bQ0hdMVtDQEhdKFtDSDJdW0NIMl1bT0hdKVtOSF1jKG5bY0hdbjIpYyhjMjMpbltjSF1uM1tDQEBIXTRPW0NASF0oW0NIMl1bT0hdKVtDQEBIXShbT0hdKVtDQEhdNFtPSF0=

> <s_epik_cmdline>
J2VwaWtfcHl0aG9uJywgJy1waCcsICc3LjAnLCAnLXRuJywgJzgnLCAnLW1hJywgJzIwMCcsICctbWV0YWxfYmluZGluZycsICctaW1hZScsICc8aW5maWxlLm1hZT4nLCAnLW9tYWUnLCAnPG91dGZpbGUubWFlPic=

> <r_lp_tautomer_probability>
1

> <r_epik_Ionization_Penalty>
0.000793976

> <r_epik_Ionization_Penalty_Charging>
0

> <r_epik_Ionization_Penalty_Neutral>
0.000793976

> <r_epik_State_Penalty>
-0

> <r_epik_Charging_Adjusted_Penalty>
0

> <i_epik_Tot_Q>
0

> <i_epik_Tot_abs_Q>
0

> <r_epik_Metal_State_Penalty>
-0

> <b_epik_Metal_Only>
0

> <s_epik_Chemistry_Notes>
This compound contains an acetal/aminal-like group ( X-CH(R)-Y where X, Y are N, S, or O) that may be acid/base labile, releasing an aldehyde.

> <s_lp_Force_Field>
OPLS_2005

> <r_lp_Energy>
57.9321

> <b_lp_Chiralities_Consistent>
1

> <s_lp_Variant>
AV-unprocessed.smi:109-6

> <Gold.Version>
5.8.1

> <Gold.Id.Protein>
6NUR|6NUR_protein|mol2

> <Gold.PLP.Fitness>
50.2784

> <Gold.PLP.PLP>
-42.6092

> <Gold.PLP.part.hbond>
-6.5961

> <Gold.PLP.part.metal>
0.0000

> <Gold.PLP.part.buried>
-2.6913

> <Gold.PLP.part.nonpolar>
-32.7348

> <Gold.PLP.part.repulsive>
0.0574

> <Gold.PLP.ligand.clash>
0.0000

> <Gold.PLP.ligand.torsion>
1.4685

> <Gold.PLP.Chemscore.Hbond>
3.4733

> <Gold.PLP.Chemscore.CHOScore>
0.0000

> <Gold.PLP.Chemscore.Metal>
0.0000

> <Gold.Chemscore.Hbonds>
donor molecule, donor type, donor heavy atom, donor atom, acceptor molecule, acceptor atom, score
      P1  H  6896  6908       L1     9  1.00
      P1  H  6896  6909       L1    23  0.93
      P1  H  8011  8017       L1     1  0.17

> <Gold.PLP.Chemscore.Internal.Correction>
0.1865

> <Gold.Rescore>
     Score         DG    S(hbond)    S(metal)    S(lipo)     H(rot)  DE(clash)    DE(int)     intcor
     10.69     -12.21       2.90        0.00      94.16       5.47       0.26       1.25       ----

> <Gold.Chemscore.Fitness>
10.6937

> <Gold.Chemscore.DG>
-12.2051

> <Gold.Chemscore.ZeroCoef>
-5.4800

> <Gold.Chemscore.Hbond>
2.9048

> <Gold.Chemscore.Metal>
0.0000

> <Gold.Chemscore.Lipo>
94.1590

> <Gold.Chemscore.Internal_Hbond>
0.0000

> <Gold.Chemscore.DEClash>
0.2639

> <Gold.Chemscore.DEInternal>
1.2475

> <Gold.Chemscore.Rot>
5.4662

> <Gold.Chemscore.Internal.Correction>
   9.000000E+99

> <Gold.Chemscore.Hbonds>
donor molecule, donor type, donor heavy atom, donor atom, acceptor molecule, acceptor atom, score
      P1  H  6896  6908       L1     9  0.29
      P1  H  6896  6909       L1    23  0.82

> <Gold.Chemscore.Hbond.Weighted>
-9.7020

> <Gold.Chemscore.Metal.Weighted>
-0.0000

> <Gold.Chemscore.Lipo.Weighted>
-11.0166

> <Gold.Chemscore.Internal_Hbond.Weighted>
0.0000

> <Gold.Chemscore.DEClash.Weighted>
0.2639

> <Gold.Chemscore.DEInternal.Weighted>
1.2475

> <Gold.Chemscore.Rot.Weighted>
13.9935

> <Gold.Chemscore.Internal.Correction.Weighted>
   9.000000E+99

> <Gold.Protein.RotatedTorsions>
[ 6907 6896 6895 6894 ] final -142.55 input  -60.11 | X-H torsion
[ 7974 7965 7964 7962 ] final  -35.08 input  175.53 | X-H torsion
[ 8008 7997 7996 7995 ] final  -97.10 input   59.86 | X-H torsion
[ 10167 10162 10161 10158 ] final  129.92 input  -65.29 | X-H torsion
[ 10718 10713 10712 10709 ] final   91.30 input   66.30 | X-H torsion
[ 10763 10752 10751 10750 ] final   48.35 input  -60.55 | X-H torsion
[ 11005 11000 10999 10996 ] final   63.98 input  -57.11 | X-H torsion

> <Gold.Protein.ActiveResidues>
 VAL166  LYS551  ARG553  GLY616  TRP617  ASP618  TYR619  PRO620  LYS621  CYS622 
 ASP623  PHE694  ASN695  SER759  ASP760  ASP761  ALA762  ILE779  LEU786  VAL792 
 PHE793  MET794  SER795  GLU796  ALA797  LYS798  CYS799  TRP800  GLU811  SER814 

> <Gold.Protein.RotatedAtoms>
  151.0885  133.5334  159.2616 H   0  0  0  0  0  0  0  0  0  0  0  0  # atno 6907 bound_to 6896
  151.2211  135.0518  159.8960 H   0  0  0  0  0  0  0  0  0  0  0  0  # atno 6908 bound_to 6896
  152.5431  134.0687  159.8238 H   0  0  0  0  0  0  0  0  0  0  0  0  # atno 6909 bound_to 6896
  146.0776  140.6116  142.8923 H   0  0  0  0  0  0  0  0  0  0  0  0  # atno 7974 bound_to 7965
  154.7832  140.0466  157.1144 H   0  0  0  0  0  0  0  0  0  0  0  0  # atno 8008 bound_to 7997
  154.9679  140.3086  155.4981 H   0  0  0  0  0  0  0  0  0  0  0  0  # atno 8009 bound_to 7997
  156.2939  140.2258  156.4769 H   0  0  0  0  0  0  0  0  0  0  0  0  # atno 8010 bound_to 7997
  139.5454  144.6769  151.4489 H   0  0  0  0  0  0  0  0  0  0  0  0  # atno 10167 bound_to 10162
  157.6960  131.0402  150.3709 H   0  0  0  0  0  0  0  0  0  0  0  0  # atno 10718 bound_to 10713
  152.9792  135.5947  154.3911 H   0  0  0  0  0  0  0  0  0  0  0  0  # atno 10763 bound_to 10752
  154.3566  135.2767  155.2345 H   0  0  0  0  0  0  0  0  0  0  0  0  # atno 10764 bound_to 10752
  154.4360  135.6025  153.6154 H   0  0  0  0  0  0  0  0  0  0  0  0  # atno 10765 bound_to 10752
  139.9989  134.6474  155.9964 H   0  0  0  0  0  0  0  0  0  0  0  0  # atno 11005 bound_to 11000
  144.7272  140.4561  143.6964 LP  0  0  0  0  0  0  0  0  0  0  0  0  # atno 17320 bound_to 7965
  145.6277  139.1532  143.2987 LP  0  0  0  0  0  0  0  0  0  0  0  0  # atno 17321 bound_to 7965
  140.6700  143.8314  150.6988 LP  0  0  0  0  0  0  0  0  0  0  0  0  # atno 17342 bound_to 10162
  140.1735  143.4174  152.1984 LP  0  0  0  0  0  0  0  0  0  0  0  0  # atno 17343 bound_to 10162
  156.4134  130.3938  149.6875 LP  0  0  0  0  0  0  0  0  0  0  0  0  # atno 17370 bound_to 10713
  156.4152  130.7741  151.2756 LP  0  0  0  0  0  0  0  0  0  0  0  0  # atno 17371 bound_to 10713
  141.1626  133.6538  156.4371 LP  0  0  0  0  0  0  0  0  0  0  0  0  # atno 17394 bound_to 11000
  140.4766  134.6704  157.5152 LP  0  0  0  0  0  0  0  0  0  0  0  0  # atno 17395 bound_to 11000

$$$$
