AV-unprocessed.smi:1295|AV-procd|sdf|5405|dock2
  -GOLD-   22720 4563D 1   1.00000     0.00000
 Structure written by MMmdl.
 43 44  0  0  0  0  0  0  0  0  1 V2000
  146.8855  139.0222  152.5011 C   0  0  0  0  0  0  0  0  0  0  0  0
  148.0484  139.4298  153.3798 C   0  0  0  0  0  0  0  0  0  0  0  0
  149.0063  138.4406  153.5295 N   0  0  0  0  0  0  0  0  0  0  0  0
  150.1100  138.7220  154.3152 C   0  0  0  0  0  0  0  0  0  0  0  0
  151.1129  137.5864  154.4249 C   0  0  0  0  0  0  0  0  0  0  0  0
  150.2527  139.9290  154.9195 C   0  0  0  0  0  0  0  0  0  0  0  0
  151.4600  140.2791  155.7875 C   0  0  0  0  0  0  0  0  0  0  0  0
  151.1341  140.8319  157.1767 C   0  0  0  0  0  0  0  0  0  0  0  0
  150.4906  140.1535  157.9772 O   0  0  0  0  0  0  0  0  0  0  0  0
  151.5829  142.0683  157.4433 N   0  0  0  0  0  0  0  0  0  0  0  0
  151.3580  142.8157  158.6799 C   0  0  2  0  0  0  0  0  0  0  0  0
  150.8670  144.2301  158.3145 C   0  0  0  0  0  0  0  0  0  0  0  0
  150.6653  145.1023  159.5617 C   0  0  0  0  0  0  0  0  0  0  0  0
  151.9515  145.1732  160.3950 C   0  0  0  0  0  0  0  0  0  0  0  0
  152.4368  143.7671  160.7777 C   0  0  0  0  0  0  0  0  0  0  0  0
  152.6470  142.8705  159.5402 C   0  0  1  0  0  0  0  0  0  0  0  0
  153.1371  141.4747  159.9656 C   0  0  0  0  0  0  0  0  0  0  0  0
  149.1963  140.9489  154.7187 C   0  0  0  0  0  0  0  0  0  0  0  0
  149.2722  142.0648  155.2307 O   0  0  0  0  0  0  0  0  0  0  0  0
  148.0948  140.6114  153.9156 N   0  0  0  0  0  0  0  0  0  0  0  0
  148.9412  137.5315  153.0951 H   0  0  0  0  0  0  0  0  0  0  0  0
  146.0877  139.7648  152.5417 H   0  0  0  0  0  0  0  0  0  0  0  0
  146.4755  138.0656  152.8269 H   0  0  0  0  0  0  0  0  0  0  0  0
  147.2102  138.9260  151.4648 H   0  0  0  0  0  0  0  0  0  0  0  0
  151.2164  137.2678  155.4623 H   0  0  0  0  0  0  0  0  0  0  0  0
  152.0907  137.9035  154.0619 H   0  0  0  0  0  0  0  0  0  0  0  0
  150.8046  136.7195  153.8390 H   0  0  0  0  0  0  0  0  0  0  0  0
  152.0645  141.0103  155.2491 H   0  0  0  0  0  0  0  0  0  0  0  0
  152.1145  139.4157  155.9099 H   0  0  0  0  0  0  0  0  0  0  0  0
  152.1086  142.5405  156.7221 H   0  0  0  0  0  0  0  0  0  0  0  0
  150.5735  142.3374  159.2694 H   0  0  0  0  0  0  0  0  0  0  0  0
  151.5876  144.7120  157.6518 H   0  0  0  0  0  0  0  0  0  0  0  0
  149.9309  144.1673  157.7581 H   0  0  0  0  0  0  0  0  0  0  0  0
  150.3548  146.1055  159.2684 H   0  0  0  0  0  0  0  0  0  0  0  0
  149.8570  144.6922  160.1685 H   0  0  0  0  0  0  0  0  0  0  0  0
  152.7284  145.6897  159.8301 H   0  0  0  0  0  0  0  0  0  0  0  0
  151.7781  145.7641  161.2946 H   0  0  0  0  0  0  0  0  0  0  0  0
  153.3665  143.8470  161.3423 H   0  0  0  0  0  0  0  0  0  0  0  0
  151.7102  143.3045  161.4471 H   0  0  0  0  0  0  0  0  0  0  0  0
  153.4361  143.3237  158.9382 H   0  0  0  0  0  0  0  0  0  0  0  0
  152.3723  140.9438  160.5334 H   0  0  0  0  0  0  0  0  0  0  0  0
  154.0264  141.5458  160.5923 H   0  0  0  0  0  0  0  0  0  0  0  0
  153.3995  140.8598  159.1050 H   0  0  0  0  0  0  0  0  0  0  0  0
  1 22  1  0  0  0  0
  1 23  1  0  0  0  0
  1 24  1  0  0  0  0
  1  2  1  0  0  0  0
  2  3  1  0  0  0  0
  2 20  2  0  0  0  0
  3  4  1  0  0  0  0
  3 21  1  0  0  0  0
  4  6  2  0  0  0  0
  4  5  1  0  0  0  0
  5 25  1  0  0  0  0
  5 26  1  0  0  0  0
  5 27  1  0  0  0  0
  6 18  1  0  0  0  0
  6  7  1  0  0  0  0
  7  8  1  0  0  0  0
  7 28  1  0  0  0  0
  7 29  1  0  0  0  0
  8  9  2  0  0  0  0
  8 10  1  0  0  0  0
 10 11  1  0  0  0  0
 10 30  1  0  0  0  0
 11 16  1  0  0  0  0
 11 12  1  0  0  0  0
 11 31  1  0  0  0  0
 12 13  1  0  0  0  0
 12 32  1  0  0  0  0
 12 33  1  0  0  0  0
 13 14  1  0  0  0  0
 13 34  1  0  0  0  0
 13 35  1  0  0  0  0
 14 15  1  0  0  0  0
 14 36  1  0  0  0  0
 14 37  1  0  0  0  0
 15 16  1  0  0  0  0
 15 38  1  0  0  0  0
 15 39  1  0  0  0  0
 16 17  1  0  0  0  0
 16 40  1  0  0  0  0
 17 41  1  0  0  0  0
 17 42  1  0  0  0  0
 17 43  1  0  0  0  0
 18 19  2  0  0  0  0
 18 20  1  0  0  0  0
M  END
> <s_m_source_file>
AV-unprocessed.smi

> <i_m_source_file_index>
1295

> <i_lp_mmshare_version>
43012

> <i_f3d_flags>
0

> <s_epik_input>
W0NIM11jMW5jKFtDSDNdKWMoYyg9TylbbkhdMSlbQ0gyXUMoPU8pW05IXVtDQEBIXTJbQ0gyXVtDSDJdW0NIMl1bQ0gyXVtDQEhdMltDSDNd

> <s_epik_cmdline>
J2VwaWtfcHl0aG9uJywgJy1waCcsICc3LjAnLCAnLXRuJywgJzgnLCAnLW1hJywgJzIwMCcsICctbWV0YWxfYmluZGluZycsICctaW1hZScsICc8aW5maWxlLm1hZT4nLCAnLW9tYWUnLCAnPG91dGZpbGUubWFlPic=

> <r_lp_tautomer_probability>
0.156392

> <r_epik_Ionization_Penalty>
0.0136057

> <r_epik_Ionization_Penalty_Charging>
0.0134742

> <r_epik_Ionization_Penalty_Neutral>
0.000131572

> <r_epik_State_Penalty>
1.15342

> <r_epik_Charging_Adjusted_Penalty>
1.16689

> <i_epik_Tot_Q>
0

> <i_epik_Tot_abs_Q>
0

> <r_epik_Metal_State_Penalty>
1.31351

> <b_epik_Metal_Only>
0

> <s_lp_Force_Field>
OPLS_2005

> <r_lp_Energy>
15.3725

> <b_lp_Chiralities_Consistent>
1

> <s_lp_Variant>
AV-unprocessed.smi:1295-5

> <Gold.Version>
5.8.1

> <Gold.Id.Protein>
6NUR|6NUR_protein|mol2

> <Gold.PLP.Fitness>
45.8949

> <Gold.PLP.PLP>
-43.2931

> <Gold.PLP.part.hbond>
-2.0000

> <Gold.PLP.part.metal>
0.0000

> <Gold.PLP.part.buried>
-1.5972

> <Gold.PLP.part.nonpolar>
-41.8110

> <Gold.PLP.part.repulsive>
2.8580

> <Gold.PLP.ligand.clash>
0.0000

> <Gold.PLP.ligand.torsion>
0.2035

> <Gold.PLP.Chemscore.Hbond>
1.0000

> <Gold.PLP.Chemscore.CHOScore>
0.0000

> <Gold.PLP.Chemscore.Metal>
0.0000

> <Gold.Chemscore.Hbonds>
donor molecule, donor type, donor heavy atom, donor atom, acceptor molecule, acceptor atom, score
      L1  H     3    21       P1  7948  1.00

> <Gold.PLP.Chemscore.Internal.Correction>
0.0088

> <Gold.Rescore>
     Score         DG    S(hbond)    S(metal)    S(lipo)     H(rot)  DE(clash)    DE(int)     intcor
     15.43     -17.96       0.93        0.00     112.59       1.48       1.13       1.39       ----

> <Gold.Chemscore.Fitness>
15.4320

> <Gold.Chemscore.DG>
-17.9595

> <Gold.Chemscore.ZeroCoef>
-5.4800

> <Gold.Chemscore.Hbond>
0.9270

> <Gold.Chemscore.Metal>
0.0000

> <Gold.Chemscore.Lipo>
112.5860

> <Gold.Chemscore.Internal_Hbond>
0.0000

> <Gold.Chemscore.DEClash>
1.1338

> <Gold.Chemscore.DEInternal>
1.3938

> <Gold.Chemscore.Rot>
1.4801

> <Gold.Chemscore.Internal.Correction>
   9.000000E+99

> <Gold.Chemscore.Hbonds>
donor molecule, donor type, donor heavy atom, donor atom, acceptor molecule, acceptor atom, score
      L1  H     3    21       P1  7948  1.00

> <Gold.Chemscore.Hbond.Weighted>
-3.0961

> <Gold.Chemscore.Metal.Weighted>
-0.0000

> <Gold.Chemscore.Lipo.Weighted>
-13.1726

> <Gold.Chemscore.Internal_Hbond.Weighted>
0.0000

> <Gold.Chemscore.DEClash.Weighted>
1.1338

> <Gold.Chemscore.DEInternal.Weighted>
1.3938

> <Gold.Chemscore.Rot.Weighted>
3.7891

> <Gold.Chemscore.Internal.Correction.Weighted>
   9.000000E+99

> <Gold.Protein.RotatedTorsions>
[ 6907 6896 6895 6894 ] final  -34.82 input  -60.11 | X-H torsion
[ 7974 7965 7964 7962 ] final  166.14 input  175.53 | X-H torsion
[ 8008 7997 7996 7995 ] final   80.80 input   59.86 | X-H torsion
[ 10167 10162 10161 10158 ] final    9.26 input  -65.29 | X-H torsion
[ 10718 10713 10712 10709 ] final  -62.18 input   66.30 | X-H torsion
[ 10763 10752 10751 10750 ] final  -95.32 input  -60.55 | X-H torsion
[ 11005 11000 10999 10996 ] final   -3.63 input  -57.11 | X-H torsion

> <Gold.Protein.ActiveResidues>
 VAL166  LYS551  ARG553  GLY616  TRP617  ASP618  TYR619  PRO620  LYS621  CYS622 
 ASP623  PHE694  ASN695  SER759  ASP760  ASP761  ALA762  ILE779  LEU786  VAL792 
 PHE793  MET794  SER795  GLU796  ALA797  LYS798  CYS799  TRP800  GLU811  SER814 

> <Gold.Protein.RotatedAtoms>
  151.0478  134.9652  159.8195 H   0  0  0  0  0  0  0  0  0  0  0  0  # atno 6907 bound_to 6896
  152.5375  134.2576  159.8933 H   0  0  0  0  0  0  0  0  0  0  0  0  # atno 6908 bound_to 6896
  151.2591  133.4268  159.2649 H   0  0  0  0  0  0  0  0  0  0  0  0  # atno 6909 bound_to 6896
  144.7474  139.8572  143.6377 H   0  0  0  0  0  0  0  0  0  0  0  0  # atno 7974 bound_to 7965
  155.8884  140.3440  155.5938 H   0  0  0  0  0  0  0  0  0  0  0  0  # atno 8008 bound_to 7997
  155.7639  140.0836  157.2160 H   0  0  0  0  0  0  0  0  0  0  0  0  # atno 8009 bound_to 7997
  154.4031  140.1530  156.2852 H   0  0  0  0  0  0  0  0  0  0  0  0  # atno 8010 bound_to 7997
  140.6266  143.8088  150.7240 H   0  0  0  0  0  0  0  0  0  0  0  0  # atno 10167 bound_to 10162
  156.0872  130.4206  150.1098 H   0  0  0  0  0  0  0  0  0  0  0  0  # atno 10718 bound_to 10713
  154.7138  135.5125  153.8706 H   0  0  0  0  0  0  0  0  0  0  0  0  # atno 10763 bound_to 10752
  153.0803  135.6629  154.0069 H   0  0  0  0  0  0  0  0  0  0  0  0  # atno 10764 bound_to 10752
  153.9905  135.3020  155.3392 H   0  0  0  0  0  0  0  0  0  0  0  0  # atno 10765 bound_to 10752
  140.6715  133.9233  155.8497 H   0  0  0  0  0  0  0  0  0  0  0  0  # atno 11005 bound_to 11000
  146.1374  139.4422  143.0130 LP  0  0  0  0  0  0  0  0  0  0  0  0  # atno 17320 bound_to 7965
  145.7071  141.0118  143.1473 LP  0  0  0  0  0  0  0  0  0  0  0  0  # atno 17321 bound_to 7965
  140.1690  143.4210  152.2014 LP  0  0  0  0  0  0  0  0  0  0  0  0  # atno 17342 bound_to 10162
  139.5485  144.7318  151.4508 LP  0  0  0  0  0  0  0  0  0  0  0  0  # atno 17343 bound_to 10162
  156.9116  130.9653  151.3562 LP  0  0  0  0  0  0  0  0  0  0  0  0  # atno 17370 bound_to 10713
  157.6011  130.8513  149.8803 LP  0  0  0  0  0  0  0  0  0  0  0  0  # atno 17371 bound_to 10713
  141.0389  134.0650  157.3926 LP  0  0  0  0  0  0  0  0  0  0  0  0  # atno 17394 bound_to 11000
  139.8980  135.0153  156.7128 LP  0  0  0  0  0  0  0  0  0  0  0  0  # atno 17395 bound_to 11000

$$$$
