AV-unprocessed.smi:685|AV-procd|sdf|3333|dock3
  -GOLD-   22720 0303D 1   1.00000     0.00000
 Structure written by MMmdl.
 50 51  0  0  0  0  0  0  0  0  1 V2000
  145.2255  142.3698  158.1959 C   0  0  0  0  0  0  0  0  0  0  0  0
  144.9765  143.3541  157.0886 C   0  0  0  0  0  0  0  0  0  0  0  0
  144.5350  144.5641  157.3883 N   0  0  0  0  0  0  0  0  0  0  0  0
  144.4268  145.1946  156.2018 N   0  0  0  0  0  0  0  0  0  0  0  0
  143.9610  146.5673  156.1666 C   0  0  0  0  0  0  0  0  0  0  0  0
  144.7994  144.3808  155.1494 C   0  0  0  0  0  0  0  0  0  0  0  0
  144.7735  144.8561  153.7322 C   0  0  0  0  0  0  0  0  0  0  0  0
  145.1655  143.1750  155.6864 C   0  0  0  0  0  0  0  0  0  0  0  0
  145.6623  141.9356  154.9862 C   0  0  0  0  0  0  0  0  0  0  0  0
  147.0792  142.1164  154.3996 C   0  0  2  0  0  0  0  0  0  0  0  0
  147.5313  140.9146  153.5540 C   0  0  0  0  0  0  0  0  0  0  0  0
  148.0485  142.3316  155.4706 N   0  0  0  0  0  0  0  0  0  0  0  0
  148.4017  141.4250  156.3956 C   0  0  0  0  0  0  0  0  0  0  0  0
  147.9355  140.2862  156.4388 O   0  0  0  0  0  0  0  0  0  0  0  0
  149.4356  141.8774  157.4302 C   0  0  0  0  0  0  0  0  0  0  0  0
  150.8510  142.0014  156.8361 C   0  0  0  0  0  0  0  0  0  0  0  0
  151.8436  142.7077  157.7770 C   0  0  0  0  0  0  0  0  0  0  0  0
  151.7222  142.3052  159.2498 C   0  0  0  0  0  0  0  0  0  0  0  0
  152.4131  143.4330  160.0221 C   0  0  0  0  0  0  0  0  0  0  0  0
  152.3229  144.6802  159.1298 C   0  0  0  0  0  0  0  0  0  0  0  0
  151.6647  144.2279  157.8203 C   0  0  0  0  0  0  0  0  0  0  0  0
  145.0690  141.3454  157.8579 H   0  0  0  0  0  0  0  0  0  0  0  0
  144.5591  142.5417  159.0417 H   0  0  0  0  0  0  0  0  0  0  0  0
  146.2506  142.4448  158.5589 H   0  0  0  0  0  0  0  0  0  0  0  0
  144.6500  147.1748  155.5793 H   0  0  0  0  0  0  0  0  0  0  0  0
  143.9017  146.9808  157.1745 H   0  0  0  0  0  0  0  0  0  0  0  0
  142.9722  146.6056  155.7090 H   0  0  0  0  0  0  0  0  0  0  0  0
  144.9738  144.0441  153.0341 H   0  0  0  0  0  0  0  0  0  0  0  0
  145.5281  145.6262  153.5715 H   0  0  0  0  0  0  0  0  0  0  0  0
  143.8001  145.2773  153.4805 H   0  0  0  0  0  0  0  0  0  0  0  0
  145.6644  141.0986  155.6849 H   0  0  0  0  0  0  0  0  0  0  0  0
  144.9799  141.6350  154.1911 H   0  0  0  0  0  0  0  0  0  0  0  0
  147.0828  142.9959  153.7531 H   0  0  0  0  0  0  0  0  0  0  0  0
  146.8775  140.7612  152.6952 H   0  0  0  0  0  0  0  0  0  0  0  0
  147.5319  139.9951  154.1402 H   0  0  0  0  0  0  0  0  0  0  0  0
  148.5400  141.0645  153.1679 H   0  0  0  0  0  0  0  0  0  0  0  0
  148.4817  143.2426  155.5138 H   0  0  0  0  0  0  0  0  0  0  0  0
  149.1261  142.8326  157.8565 H   0  0  0  0  0  0  0  0  0  0  0  0
  149.4375  141.1571  158.2489 H   0  0  0  0  0  0  0  0  0  0  0  0
  151.2366  141.0059  156.6106 H   0  0  0  0  0  0  0  0  0  0  0  0
  150.8066  142.5321  155.8838 H   0  0  0  0  0  0  0  0  0  0  0  0
  152.8617  142.4974  157.4446 H   0  0  0  0  0  0  0  0  0  0  0  0
  150.6709  142.2579  159.5377 H   0  0  0  0  0  0  0  0  0  0  0  0
  152.1661  141.3312  159.4582 H   0  0  0  0  0  0  0  0  0  0  0  0
  151.9554  143.5913  160.9991 H   0  0  0  0  0  0  0  0  0  0  0  0
  153.4607  143.1792  160.1900 H   0  0  0  0  0  0  0  0  0  0  0  0
  151.7458  145.4752  159.6031 H   0  0  0  0  0  0  0  0  0  0  0  0
  153.3221  145.0731  158.9387 H   0  0  0  0  0  0  0  0  0  0  0  0
  152.0936  144.7225  156.9483 H   0  0  0  0  0  0  0  0  0  0  0  0
  150.6025  144.4757  157.8478 H   0  0  0  0  0  0  0  0  0  0  0  0
  1  2  1  0  0  0  0
  1 22  1  0  0  0  0
  1 23  1  0  0  0  0
  1 24  1  0  0  0  0
  2  8  1  0  0  0  0
  2  3  2  0  0  0  0
  3  4  1  0  0  0  0
  4  5  1  0  0  0  0
  4  6  1  0  0  0  0
  5 25  1  0  0  0  0
  5 26  1  0  0  0  0
  5 27  1  0  0  0  0
  6  7  1  0  0  0  0
  6  8  2  0  0  0  0
  7 28  1  0  0  0  0
  7 29  1  0  0  0  0
  7 30  1  0  0  0  0
  8  9  1  0  0  0  0
  9 10  1  0  0  0  0
  9 31  1  0  0  0  0
  9 32  1  0  0  0  0
 10 11  1  0  0  0  0
 10 12  1  0  0  0  0
 10 33  1  0  0  0  0
 11 34  1  0  0  0  0
 11 35  1  0  0  0  0
 11 36  1  0  0  0  0
 12 13  1  0  0  0  0
 12 37  1  0  0  0  0
 13 14  2  0  0  0  0
 13 15  1  0  0  0  0
 15 16  1  0  0  0  0
 15 38  1  0  0  0  0
 15 39  1  0  0  0  0
 16 17  1  0  0  0  0
 16 40  1  0  0  0  0
 16 41  1  0  0  0  0
 17 21  1  0  0  0  0
 17 18  1  0  0  0  0
 17 42  1  0  0  0  0
 18 19  1  0  0  0  0
 18 43  1  0  0  0  0
 18 44  1  0  0  0  0
 19 20  1  0  0  0  0
 19 45  1  0  0  0  0
 19 46  1  0  0  0  0
 20 21  1  0  0  0  0
 20 47  1  0  0  0  0
 20 48  1  0  0  0  0
 21 49  1  0  0  0  0
 21 50  1  0  0  0  0
M  END
> <s_m_source_file>
AV-unprocessed.smi

> <i_m_source_file_index>
685

> <i_lp_mmshare_version>
43012

> <i_f3d_flags>
0

> <s_epik_input>
W0NIM11jMW5uKFtDSDNdKWMoW0NIM10pYzFbQ0gyXVtDQEhdKFtDSDNdKVtOSF1DKD1PKVtDSDJdW0NIMl1bQ0hdMltDSDJdW0NIMl1bQ0gyXVtDSDJdMg==

> <s_epik_cmdline>
J2VwaWtfcHl0aG9uJywgJy1waCcsICc3LjAnLCAnLXRuJywgJzgnLCAnLW1hJywgJzIwMCcsICctbWV0YWxfYmluZGluZycsICctaW1hZScsICc8aW5maWxlLm1hZT4nLCAnLW9tYWUnLCAnPG91dGZpbGUubWFlPic=

> <r_lp_tautomer_probability>
1

> <r_epik_Ionization_Penalty>
0.0131144

> <r_epik_Ionization_Penalty_Charging>
0

> <r_epik_Ionization_Penalty_Neutral>
0.0131144

> <r_epik_State_Penalty>
0.0101889

> <r_epik_Charging_Adjusted_Penalty>
0.0101889

> <i_epik_Tot_Q>
0

> <i_epik_Tot_abs_Q>
0

> <r_epik_Metal_State_Penalty>
0.00996794

> <b_epik_Metal_Only>
0

> <s_lp_Force_Field>
OPLS_2005

> <r_lp_Energy>
16.135

> <b_lp_Chiralities_Consistent>
1

> <s_lp_Variant>
AV-unprocessed.smi:685-1

> <Gold.Version>
5.8.1

> <Gold.Id.Protein>
6NUR|6NUR_protein|mol2

> <Gold.PLP.Fitness>
44.4686

> <Gold.PLP.PLP>
-42.3485

> <Gold.PLP.part.hbond>
-1.0000

> <Gold.PLP.part.metal>
0.0000

> <Gold.PLP.part.buried>
-6.5812

> <Gold.PLP.part.nonpolar>
-35.7869

> <Gold.PLP.part.repulsive>
0.2171

> <Gold.PLP.ligand.clash>
0.0000

> <Gold.PLP.ligand.torsion>
0.4560

> <Gold.PLP.Chemscore.Hbond>
1.0000

> <Gold.PLP.Chemscore.CHOScore>
0.0000

> <Gold.PLP.Chemscore.Metal>
0.0000

> <Gold.Chemscore.Hbonds>
donor molecule, donor type, donor heavy atom, donor atom, acceptor molecule, acceptor atom, score
      L1  H    12    37       P1  8028  0.98

> <Gold.PLP.Chemscore.Internal.Correction>
0.0322

> <Gold.Rescore>
     Score         DG    S(hbond)    S(metal)    S(lipo)     H(rot)  DE(clash)    DE(int)     intcor
     17.03     -18.30       0.99        0.00     114.81       1.53       0.08       1.19       ----

> <Gold.Chemscore.Fitness>
17.0281

> <Gold.Chemscore.DG>
-18.2997

> <Gold.Chemscore.ZeroCoef>
-5.4800

> <Gold.Chemscore.Hbond>
0.9865

> <Gold.Chemscore.Metal>
0.0000

> <Gold.Chemscore.Lipo>
114.8139

> <Gold.Chemscore.Internal_Hbond>
0.0000

> <Gold.Chemscore.DEClash>
0.0831

> <Gold.Chemscore.DEInternal>
1.1885

> <Gold.Chemscore.Rot>
1.5268

> <Gold.Chemscore.Internal.Correction>
   9.000000E+99

> <Gold.Chemscore.Hbonds>
donor molecule, donor type, donor heavy atom, donor atom, acceptor molecule, acceptor atom, score
      L1  H    12    37       P1  8028  0.92

> <Gold.Chemscore.Hbond.Weighted>
-3.2950

> <Gold.Chemscore.Metal.Weighted>
-0.0000

> <Gold.Chemscore.Lipo.Weighted>
-13.4332

> <Gold.Chemscore.Internal_Hbond.Weighted>
0.0000

> <Gold.Chemscore.DEClash.Weighted>
0.0831

> <Gold.Chemscore.DEInternal.Weighted>
1.1885

> <Gold.Chemscore.Rot.Weighted>
3.9086

> <Gold.Chemscore.Internal.Correction.Weighted>
   9.000000E+99

> <Gold.Protein.RotatedTorsions>
[ 6907 6896 6895 6894 ] final -103.15 input  -60.11 | X-H torsion
[ 7974 7965 7964 7962 ] final   20.56 input  175.53 | X-H torsion
[ 8008 7997 7996 7995 ] final  -66.52 input   59.86 | X-H torsion
[ 10167 10162 10161 10158 ] final  100.47 input  -65.29 | X-H torsion
[ 10718 10713 10712 10709 ] final  141.85 input   66.30 | X-H torsion
[ 10763 10752 10751 10750 ] final   -8.51 input  -60.55 | X-H torsion
[ 11005 11000 10999 10996 ] final -137.09 input  -57.11 | X-H torsion

> <Gold.Protein.ActiveResidues>
 VAL166  LYS551  ARG553  GLY616  TRP617  ASP618  TYR619  PRO620  LYS621  CYS622 
 ASP623  PHE694  ASN695  SER759  ASP760  ASP761  ALA762  ILE779  LEU786  VAL792 
 PHE793  MET794  SER795  GLU796  ALA797  LYS798  CYS799  TRP800  GLU811  SER814 

> <Gold.Protein.RotatedAtoms>
  150.7227  134.0473  159.3785 H   0  0  0  0  0  0  0  0  0  0  0  0  # atno 6907 bound_to 6896
  151.8448  135.0576  160.0461 H   0  0  0  0  0  0  0  0  0  0  0  0  # atno 6908 bound_to 6896
  152.2835  133.5457  159.5549 H   0  0  0  0  0  0  0  0  0  0  0  0  # atno 6909 bound_to 6896
  146.2106  139.8152  142.8691 H   0  0  0  0  0  0  0  0  0  0  0  0  # atno 7974 bound_to 7965
  154.4740  140.0911  156.7215 H   0  0  0  0  0  0  0  0  0  0  0  0  # atno 8008 bound_to 7997
  155.4648  140.3462  155.4299 H   0  0  0  0  0  0  0  0  0  0  0  0  # atno 8009 bound_to 7997
  156.1085  140.1441  156.9359 H   0  0  0  0  0  0  0  0  0  0  0  0  # atno 8010 bound_to 7997
  139.7524  144.6980  151.0412 H   0  0  0  0  0  0  0  0  0  0  0  0  # atno 10167 bound_to 10162
  157.3873  131.1000  151.0681 H   0  0  0  0  0  0  0  0  0  0  0  0  # atno 10718 bound_to 10713
  153.4415  135.7014  153.6166 H   0  0  0  0  0  0  0  0  0  0  0  0  # atno 10763 bound_to 10752
  153.4539  135.3752  155.2300 H   0  0  0  0  0  0  0  0  0  0  0  0  # atno 10764 bound_to 10752
  154.8727  135.4003  154.3814 H   0  0  0  0  0  0  0  0  0  0  0  0  # atno 10765 bound_to 10752
  140.8744  134.2010  157.4631 H   0  0  0  0  0  0  0  0  0  0  0  0  # atno 11005 bound_to 11000
  145.3154  141.0230  143.3530 LP  0  0  0  0  0  0  0  0  0  0  0  0  # atno 17320 bound_to 7965
  144.8905  139.4781  143.6680 LP  0  0  0  0  0  0  0  0  0  0  0  0  # atno 17321 bound_to 7965
  140.7799  143.4793  151.0040 LP  0  0  0  0  0  0  0  0  0  0  0  0  # atno 17342 bound_to 10162
  139.8480  143.7475  152.3179 LP  0  0  0  0  0  0  0  0  0  0  0  0  # atno 17343 bound_to 10162
  157.1728  130.6275  149.5646 LP  0  0  0  0  0  0  0  0  0  0  0  0  # atno 17370 bound_to 10713
  155.9790  130.4779  150.6687 LP  0  0  0  0  0  0  0  0  0  0  0  0  # atno 17371 bound_to 10713
  139.8714  134.9789  156.5015 LP  0  0  0  0  0  0  0  0  0  0  0  0  # atno 17394 bound_to 11000
  140.8535  133.8114  155.9193 LP  0  0  0  0  0  0  0  0  0  0  0  0  # atno 17395 bound_to 11000

$$$$
