AV-unprocessed.smi:110|AV-procd|sdf|1078|dock3
  -GOLD-   2262018163D 1   1.00000     0.00000
 Structure written by MMmdl.
 46 50  0  0  0  0  0  0  0  0  1 V2000
  148.1346  135.9299  154.3849 O   0  0  0  0  0  0  0  0  0  0  0  0
  147.3129  136.9230  154.9601 C   0  0  0  0  0  0  0  0  0  0  0  0
  147.1831  138.1197  154.0051 C   0  0  2  0  0  0  0  0  0  0  0  0
  148.4610  138.7214  153.7855 O   0  0  0  0  0  0  0  0  0  0  0  0
  148.4095  140.1158  153.8881 C   0  0  2  0  0  0  0  0  0  0  0  0
  149.0752  140.5398  155.1726 N   0  0  0  0  0  0  0  0  0  0  0  0
  148.5731  141.3918  156.1336 C   0  0  0  0  0  0  0  0  0  0  0  0
  149.3602  141.6290  157.1456 N   0  0  0  0  0  0  0  0  0  0  0  0
  150.5207  140.9249  156.8518 C   0  0  0  0  0  0  0  0  0  0  0  0
  151.7778  140.7610  157.5070 C   0  0  0  0  0  0  0  0  0  0  0  0
  152.0789  141.3083  158.7150 N   0  0  0  0  0  0  0  0  0  0  0  0
  153.1368  140.7057  159.5415 C   0  0  0  0  0  0  0  0  0  0  0  0
  153.6102  141.7616  160.5546 C   0  0  0  0  0  0  0  0  0  0  0  0
  152.6455  142.8668  160.2807 C   0  0  0  0  0  0  0  0  0  0  0  0
  152.5431  144.0884  160.9684 C   0  0  0  0  0  0  0  0  0  0  0  0
  151.5481  145.0006  160.5599 C   0  0  0  0  0  0  0  0  0  0  0  0
  150.6806  144.6773  159.4917 C   0  0  0  0  0  0  0  0  0  0  0  0
  150.8006  143.4423  158.8167 C   0  0  0  0  0  0  0  0  0  0  0  0
  151.8085  142.5376  159.2173 C   0  0  0  0  0  0  0  0  0  0  0  0
  152.7042  139.9902  156.8818 N   0  0  0  0  0  0  0  0  0  0  0  0
  152.4364  139.4320  155.6999 C   0  0  0  0  0  0  0  0  0  0  0  0
  151.3159  139.5026  154.9823 N   0  0  0  0  0  0  0  0  0  0  0  0
  150.3626  140.2587  155.6007 C   0  0  0  0  0  0  0  0  0  0  0  0
  146.9198  140.4846  153.9102 C   0  0  1  0  0  0  0  0  0  0  0  0
  146.4387  140.7222  152.6003 O   0  0  0  0  0  0  0  0  0  0  0  0
  146.3200  139.2511  154.5655 C   0  0  1  0  0  0  0  0  0  0  0  0
  144.9417  139.0966  154.2856 O   0  0  0  0  0  0  0  0  0  0  0  0
  146.7829  137.8066  153.0389 H   0  0  0  0  0  0  0  0  0  0  0  0
  148.9923  140.6142  153.1126 H   0  0  0  0  0  0  0  0  0  0  0  0
  146.7269  141.3836  154.4937 H   0  0  0  0  0  0  0  0  0  0  0  0
  146.4578  139.3207  155.6459 H   0  0  0  0  0  0  0  0  0  0  0  0
  148.3101  136.1681  153.4874 H   0  0  0  0  0  0  0  0  0  0  0  0
  146.3332  136.4752  155.1315 H   0  0  0  0  0  0  0  0  0  0  0  0
  147.7019  137.2261  155.9320 H   0  0  0  0  0  0  0  0  0  0  0  0
  147.5935  141.8421  156.0673 H   0  0  0  0  0  0  0  0  0  0  0  0
  152.7263  139.8453  160.0710 H   0  0  0  0  0  0  0  0  0  0  0  0
  153.9674  140.3565  158.9266 H   0  0  0  0  0  0  0  0  0  0  0  0
  153.5347  141.4123  161.5848 H   0  0  0  0  0  0  0  0  0  0  0  0
  154.6305  142.0904  160.3552 H   0  0  0  0  0  0  0  0  0  0  0  0
  153.2056  144.3211  161.7892 H   0  0  0  0  0  0  0  0  0  0  0  0
  151.4451  145.9471  161.0700 H   0  0  0  0  0  0  0  0  0  0  0  0
  149.9159  145.3785  159.1918 H   0  0  0  0  0  0  0  0  0  0  0  0
  150.1172  143.2058  158.0153 H   0  0  0  0  0  0  0  0  0  0  0  0
  153.2322  138.8431  155.2685 H   0  0  0  0  0  0  0  0  0  0  0  0
  145.5131  140.5306  152.5839 H   0  0  0  0  0  0  0  0  0  0  0  0
  144.6612  139.8226  153.7496 H   0  0  0  0  0  0  0  0  0  0  0  0
  1  2  1  0  0  0  0
  1 32  1  0  0  0  0
  2  3  1  0  0  0  0
  2 33  1  0  0  0  0
  2 34  1  0  0  0  0
  3 28  1  0  0  0  0
  3 26  1  0  0  0  0
  3  4  1  0  0  0  0
  4  5  1  0  0  0  0
  5 29  1  0  0  0  0
  5  6  1  0  0  0  0
  5 24  1  0  0  0  0
  6 23  1  0  0  0  0
  6  7  1  0  0  0  0
  7  8  2  0  0  0  0
  7 35  1  0  0  0  0
  8  9  1  0  0  0  0
  9 23  2  0  0  0  0
  9 10  1  0  0  0  0
 10 11  1  0  0  0  0
 10 20  2  0  0  0  0
 11 19  1  0  0  0  0
 11 12  1  0  0  0  0
 12 13  1  0  0  0  0
 12 36  1  0  0  0  0
 12 37  1  0  0  0  0
 13 14  1  0  0  0  0
 13 38  1  0  0  0  0
 13 39  1  0  0  0  0
 14 19  2  0  0  0  0
 14 15  1  0  0  0  0
 15 16  2  0  0  0  0
 15 40  1  0  0  0  0
 16 17  1  0  0  0  0
 16 41  1  0  0  0  0
 17 18  2  0  0  0  0
 17 42  1  0  0  0  0
 18 19  1  0  0  0  0
 18 43  1  0  0  0  0
 20 21  1  0  0  0  0
 21 22  2  0  0  0  0
 21 44  1  0  0  0  0
 22 23  1  0  0  0  0
 24 30  1  0  0  0  0
 24 25  1  0  0  0  0
 24 26  1  0  0  0  0
 25 45  1  0  0  0  0
 26 31  1  0  0  0  0
 26 27  1  0  0  0  0
 27 46  1  0  0  0  0
M  END
> <s_m_source_file>
AV-unprocessed.smi

> <i_m_source_file_index>
110

> <i_lp_mmshare_version>
43012

> <i_f3d_flags>
0

> <s_epik_input>
W09IXVtDSDJdW0NASF0xT1tDQEhdKFtDQEhdKFtPSF0pW0NAQEhdMVtPSF0pbihbY0hdbjIpYyhjMjMpbltjSF1uYzNOKFtDSDJdW0NIMl00KWMoYzQ1KVtjSF1bY0hdW2NIXVtjSF01

> <s_epik_cmdline>
J2VwaWtfcHl0aG9uJywgJy1waCcsICc3LjAnLCAnLXRuJywgJzgnLCAnLW1hJywgJzIwMCcsICctbWV0YWxfYmluZGluZycsICctaW1hZScsICc8aW5maWxlLm1hZT4nLCAnLW9tYWUnLCAnPG91dGZpbGUubWFlPic=

> <r_lp_tautomer_probability>
1

> <r_epik_Ionization_Penalty>
0.00068475

> <r_epik_Ionization_Penalty_Charging>
0

> <r_epik_Ionization_Penalty_Neutral>
0.00068475

> <r_epik_State_Penalty>
0.000417442

> <r_epik_Charging_Adjusted_Penalty>
0.000417442

> <i_epik_Tot_Q>
0

> <i_epik_Tot_abs_Q>
0

> <r_epik_Metal_State_Penalty>
-0

> <b_epik_Metal_Only>
0

> <s_epik_Chemistry_Notes>
This compound contains an acetal/aminal-like group ( X-CH(R)-Y where X, Y are N, S, or O) that may be acid/base labile, releasing an aldehyde.

> <s_lp_Force_Field>
OPLS_2005

> <r_lp_Energy>
62.7544

> <b_lp_Chiralities_Consistent>
1

> <s_lp_Variant>
AV-unprocessed.smi:110-16

> <Gold.Version>
5.8.1

> <Gold.Id.Protein>
6NUR|6NUR_protein|mol2

> <Gold.PLP.Fitness>
58.2920

> <Gold.PLP.PLP>
-45.1144

> <Gold.PLP.part.hbond>
-5.0000

> <Gold.PLP.part.metal>
0.0000

> <Gold.PLP.part.buried>
-3.1061

> <Gold.PLP.part.nonpolar>
-37.5133

> <Gold.PLP.part.repulsive>
0.3683

> <Gold.PLP.ligand.clash>
0.0000

> <Gold.PLP.ligand.torsion>
0.6031

> <Gold.PLP.Chemscore.Hbond>
4.7500

> <Gold.PLP.Chemscore.CHOScore>
0.0000

> <Gold.PLP.Chemscore.Metal>
0.0000

> <Gold.Chemscore.Hbonds>
donor molecule, donor type, donor heavy atom, donor atom, acceptor molecule, acceptor atom, score
      L1  H     1    32       P1  7948  1.00
      L1  H    25    45       P1 10175  1.00
      L1  H    27    46       P1 10175  1.00
      P1  H  7989  7998       L1    22  0.68
      P1  H  7997  8009       L1    20  1.00

> <Gold.PLP.Chemscore.Internal.Correction>
0.1337

> <Gold.Rescore>
     Score         DG    S(hbond)    S(metal)    S(lipo)     H(rot)  DE(clash)    DE(int)     intcor
     17.67     -19.94       3.46        0.00      98.77       3.38       0.23       2.04       ----

> <Gold.Chemscore.Fitness>
17.6691

> <Gold.Chemscore.DG>
-19.9366

> <Gold.Chemscore.ZeroCoef>
-5.4800

> <Gold.Chemscore.Hbond>
3.4618

> <Gold.Chemscore.Metal>
0.0000

> <Gold.Chemscore.Lipo>
98.7729

> <Gold.Chemscore.Internal_Hbond>
0.0000

> <Gold.Chemscore.DEClash>
0.2299

> <Gold.Chemscore.DEInternal>
2.0376

> <Gold.Chemscore.Rot>
3.3837

> <Gold.Chemscore.Internal.Correction>
   9.000000E+99

> <Gold.Chemscore.Hbonds>
donor molecule, donor type, donor heavy atom, donor atom, acceptor molecule, acceptor atom, score
      L1  H     1    32       P1  7948  1.00
      L1  H    25    45       P1 10175  0.55
      L1  H    27    46       P1 10175  0.95
      P1  H  7989  7998       L1    22  0.04
      P1  H  7997  8009       L1    20  0.24

> <Gold.Chemscore.Hbond.Weighted>
-11.5623

> <Gold.Chemscore.Metal.Weighted>
-0.0000

> <Gold.Chemscore.Lipo.Weighted>
-11.5564

> <Gold.Chemscore.Internal_Hbond.Weighted>
0.0000

> <Gold.Chemscore.DEClash.Weighted>
0.2299

> <Gold.Chemscore.DEInternal.Weighted>
2.0376

> <Gold.Chemscore.Rot.Weighted>
8.6622

> <Gold.Chemscore.Internal.Correction.Weighted>
   9.000000E+99

> <Gold.Protein.RotatedTorsions>
[ 6907 6896 6895 6894 ] final -121.77 input  -60.11 | X-H torsion
[ 7974 7965 7964 7962 ] final -101.70 input  175.53 | X-H torsion
[ 8008 7997 7996 7995 ] final  170.23 input   59.86 | X-H torsion
[ 10167 10162 10161 10158 ] final -116.07 input  -65.29 | X-H torsion
[ 10718 10713 10712 10709 ] final  139.57 input   66.30 | X-H torsion
[ 10763 10752 10751 10750 ] final  -79.06 input  -60.55 | X-H torsion
[ 11005 11000 10999 10996 ] final -117.91 input  -57.11 | X-H torsion

> <Gold.Protein.ActiveResidues>
 VAL166  LYS551  ARG553  GLY616  TRP617  ASP618  TYR619  PRO620  LYS621  CYS622 
 ASP623  PHE694  ASN695  SER759  ASP760  ASP761  ALA762  ILE779  LEU786  VAL792 
 PHE793  MET794  SER795  GLU796  ALA797  LYS798  CYS799  TRP800  GLU811  SER814 

> <Gold.Protein.RotatedAtoms>
  150.8514  133.7781  159.3024 H   0  0  0  0  0  0  0  0  0  0  0  0  # atno 6907 bound_to 6896
  151.5452  135.1066  159.9946 H   0  0  0  0  0  0  0  0  0  0  0  0  # atno 6908 bound_to 6896
  152.4555  133.7672  159.6835 H   0  0  0  0  0  0  0  0  0  0  0  0  # atno 6909 bound_to 6896
  145.2782  140.9319  143.2947 H   0  0  0  0  0  0  0  0  0  0  0  0  # atno 7974 bound_to 7965
  156.1384  140.1543  156.8958 H   0  0  0  0  0  0  0  0  0  0  0  0  # atno 8008 bound_to 7997
  154.4967  140.0836  156.7750 H   0  0  0  0  0  0  0  0  0  0  0  0  # atno 8009 bound_to 7997
  155.4124  140.3419  155.4267 H   0  0  0  0  0  0  0  0  0  0  0  0  # atno 8010 bound_to 7997
  140.0832  143.4768  152.1913 H   0  0  0  0  0  0  0  0  0  0  0  0  # atno 10167 bound_to 10162
  157.4129  131.1030  151.0435 H   0  0  0  0  0  0  0  0  0  0  0  0  # atno 10718 bound_to 10713
  154.5338  135.5708  153.6781 H   0  0  0  0  0  0  0  0  0  0  0  0  # atno 10763 bound_to 10752
  152.9946  135.6211  154.2593 H   0  0  0  0  0  0  0  0  0  0  0  0  # atno 10764 bound_to 10752
  154.2521  135.2859  155.2792 H   0  0  0  0  0  0  0  0  0  0  0  0  # atno 10765 bound_to 10752
  141.0322  133.9963  157.3125 H   0  0  0  0  0  0  0  0  0  0  0  0  # atno 11005 bound_to 11000
  144.9276  139.4336  143.6511 LP  0  0  0  0  0  0  0  0  0  0  0  0  # atno 17320 bound_to 7965
  146.3225  139.8170  142.8934 LP  0  0  0  0  0  0  0  0  0  0  0  0  # atno 17321 bound_to 7965
  139.5767  144.7491  151.3746 LP  0  0  0  0  0  0  0  0  0  0  0  0  # atno 17342 bound_to 10162
  140.7067  143.7496  150.7494 LP  0  0  0  0  0  0  0  0  0  0  0  0  # atno 17343 bound_to 10162
  157.1393  130.6136  149.5550 LP  0  0  0  0  0  0  0  0  0  0  0  0  # atno 17370 bound_to 10713
  155.9856  130.4887  150.7040 LP  0  0  0  0  0  0  0  0  0  0  0  0  # atno 17371 bound_to 10713
  139.9216  135.0200  156.8084 LP  0  0  0  0  0  0  0  0  0  0  0  0  # atno 17394 bound_to 11000
  140.6385  133.9840  155.7696 LP  0  0  0  0  0  0  0  0  0  0  0  0  # atno 17395 bound_to 11000

$$$$
