AV-unprocessed.smi:2234|AV-procd|sdf|9042|dock2
  -GOLD-   2272012253D 1   1.00000     0.00000
 Structure written by MMmdl.
 21 22  0  0  0  0  0  0  0  0  2 V2000
  151.1089  139.6389  154.6964 O   0  0  0  0  0  0  0  0  0  0  0  0
  152.1406  139.5632  155.4005 C   0  0  0  0  0  0  0  0  0  0  0  0
  153.2415  139.1076  155.0196 O   0  5  0  0  0  0  0  0  0  0  0  0
  152.0396  140.0411  156.8548 C   0  0  2  0  0  0  0  0  0  0  0  0
  151.7940  141.5330  156.9863 C   0  0  0  0  0  0  0  0  0  0  0  0
  152.4880  141.8070  158.2798 C   0  0  0  0  0  0  0  0  0  0  0  0
  152.2375  142.9964  159.1297 C   0  0  0  0  0  0  0  0  0  0  0  0
  151.6825  144.1744  158.5817 C   0  0  0  0  0  0  0  0  0  0  0  0
  151.4660  145.2819  159.4245 C   0  0  0  0  0  0  0  0  0  0  0  0
  151.8156  145.1694  160.7843 C   0  0  0  0  0  0  0  0  0  0  0  0
  152.3498  144.0524  161.3219 N   0  0  0  0  0  0  0  0  0  0  0  0
  152.5553  142.9936  160.5083 C   0  0  0  0  0  0  0  0  0  0  0  0
  153.2970  140.8769  158.5742 N   0  0  0  0  0  0  0  0  0  0  0  0
  153.2624  139.8834  157.5644 O   0  0  0  0  0  0  0  0  0  0  0  0
  151.2592  139.4777  157.3698 H   0  0  0  0  0  0  0  0  0  0  0  0
  152.2575  142.1182  156.1902 H   0  0  0  0  0  0  0  0  0  0  0  0
  150.7305  141.7667  157.0403 H   0  0  0  0  0  0  0  0  0  0  0  0
  151.4259  144.2432  157.5348 H   0  0  0  0  0  0  0  0  0  0  0  0
  151.0430  146.1968  159.0367 H   0  0  0  0  0  0  0  0  0  0  0  0
  151.6637  145.9998  161.4581 H   0  0  0  0  0  0  0  0  0  0  0  0
  152.9847  142.1232  160.9823 H   0  0  0  0  0  0  0  0  0  0  0  0
  1  2  2  0  0  0  0
  2  3  1  0  0  0  0
  2  4  1  0  0  0  0
  4 14  1  0  0  0  0
  4  5  1  0  0  0  0
  4 15  1  0  0  0  0
  5  6  1  0  0  0  0
  5 16  1  0  0  0  0
  5 17  1  0  0  0  0
  6  7  1  0  0  0  0
  6 13  2  0  0  0  0
  7 12  1  0  0  0  0
  7  8  2  0  0  0  0
  8  9  1  0  0  0  0
  8 18  1  0  0  0  0
  9 10  2  0  0  0  0
  9 19  1  0  0  0  0
 10 11  1  0  0  0  0
 10 20  1  0  0  0  0
 11 12  2  0  0  0  0
 12 21  1  0  0  0  0
 13 14  1  0  0  0  0
M  CHG  1   3  -1
M  END
> <s_m_source_file>
AV-unprocessed.smi

> <i_m_source_file_index>
2234

> <i_lp_mmshare_version>
43012

> <i_f3d_flags>
0

> <s_epik_input>
Tz1DKFtPSF0pW0NAQEhdMVtDSDJdQyg9Tk8xKWMyW2NIXVtjSF1bY0hdbltjSF0y

> <s_epik_cmdline>
J2VwaWtfcHl0aG9uJywgJy1waCcsICc3LjAnLCAnLXRuJywgJzgnLCAnLW1hJywgJzIwMCcsICctbWV0YWxfYmluZGluZycsICctaW1hZScsICc8aW5maWxlLm1hZT4nLCAnLW9tYWUnLCAnPG91dGZpbGUubWFlPic=

> <r_lp_tautomer_probability>
1

> <r_epik_Ionization_Penalty>
0.000239258

> <r_epik_Ionization_Penalty_Charging>
3.09051e-05

> <r_epik_Ionization_Penalty_Neutral>
0.000208353

> <r_epik_State_Penalty>
-0

> <r_epik_Charging_Adjusted_Penalty>
3.09051e-05

> <i_epik_Tot_Q>
-1

> <i_epik_Tot_abs_Q>
1

> <r_epik_Metal_State_Penalty>
-0

> <b_epik_Metal_Only>
0

> <s_epik_Chemistry_Notes>
This compound has an imine and may undergo hydrolysis.

> <s_lp_Force_Field>
OPLS_2005

> <r_lp_Energy>
16.9969

> <b_lp_Chiralities_Consistent>
1

> <s_lp_Variant>
AV-unprocessed.smi:2234-1

> <Gold.Version>
5.8.1

> <Gold.Id.Protein>
6NUR|6NUR_protein|mol2

> <Gold.PLP.Fitness>
39.0853

> <Gold.PLP.PLP>
-30.5160

> <Gold.PLP.part.hbond>
-3.1026

> <Gold.PLP.part.metal>
0.0000

> <Gold.PLP.part.buried>
-5.1479

> <Gold.PLP.part.nonpolar>
-22.7856

> <Gold.PLP.part.repulsive>
0.2213

> <Gold.PLP.ligand.clash>
0.0000

> <Gold.PLP.ligand.torsion>
0.2296

> <Gold.PLP.Chemscore.Hbond>
3.0000

> <Gold.PLP.Chemscore.CHOScore>
0.0000

> <Gold.PLP.Chemscore.Metal>
0.0000

> <Gold.Chemscore.Hbonds>
donor molecule, donor type, donor heavy atom, donor atom, acceptor molecule, acceptor atom, score
      P1  H  7989  7998       L1     1  1.00
      P1  H  7997  8010       L1     3  2.00

> <Gold.PLP.Chemscore.Internal.Correction>
0.0285

> <Gold.Rescore>
     Score         DG    S(hbond)    S(metal)    S(lipo)     H(rot)  DE(clash)    DE(int)     intcor
     15.73     -16.49       1.24        0.00      80.54       1.00       0.60       0.16       ----

> <Gold.Chemscore.Fitness>
15.7281

> <Gold.Chemscore.DG>
-16.4876

> <Gold.Chemscore.ZeroCoef>
-5.4800

> <Gold.Chemscore.Hbond>
1.2407

> <Gold.Chemscore.Metal>
0.0000

> <Gold.Chemscore.Lipo>
80.5448

> <Gold.Chemscore.Internal_Hbond>
0.0000

> <Gold.Chemscore.DEClash>
0.6027

> <Gold.Chemscore.DEInternal>
0.1568

> <Gold.Chemscore.Rot>
1.0000

> <Gold.Chemscore.Internal.Correction>
   9.000000E+99

> <Gold.Chemscore.Hbonds>
donor molecule, donor type, donor heavy atom, donor atom, acceptor molecule, acceptor atom, score
      P1  H  7989  7998       L1     1  0.26
      P1  H  7997  8010       L1     3  0.35

> <Gold.Chemscore.Hbond.Weighted>
-4.1439

> <Gold.Chemscore.Metal.Weighted>
-0.0000

> <Gold.Chemscore.Lipo.Weighted>
-9.4237

> <Gold.Chemscore.Internal_Hbond.Weighted>
0.0000

> <Gold.Chemscore.DEClash.Weighted>
0.6027

> <Gold.Chemscore.DEInternal.Weighted>
0.1568

> <Gold.Chemscore.Rot.Weighted>
2.5600

> <Gold.Chemscore.Internal.Correction.Weighted>
   9.000000E+99

> <Gold.Protein.RotatedTorsions>
[ 6907 6896 6895 6894 ] final  151.73 input  -60.11 | X-H torsion
[ 7974 7965 7964 7962 ] final  -86.21 input  175.53 | X-H torsion
[ 8008 7997 7996 7995 ] final   99.03 input   59.86 | X-H torsion
[ 10167 10162 10161 10158 ] final -152.62 input  -65.29 | X-H torsion
[ 10718 10713 10712 10709 ] final   19.83 input   66.30 | X-H torsion
[ 10763 10752 10751 10750 ] final   16.50 input  -60.55 | X-H torsion
[ 11005 11000 10999 10996 ] final -114.50 input  -57.11 | X-H torsion

> <Gold.Protein.ActiveResidues>
 VAL166  LYS551  ARG553  GLY616  TRP617  ASP618  TYR619  PRO620  LYS621  CYS622 
 ASP623  PHE694  ASN695  SER759  ASP760  ASP761  ALA762  ILE779  LEU786  VAL792 
 PHE793  MET794  SER795  GLU796  ALA797  LYS798  CYS799  TRP800  GLU811  SER814 

> <Gold.Protein.RotatedAtoms>
  152.0966  133.4227  159.4567 H   0  0  0  0  0  0  0  0  0  0  0  0  # atno 6907 bound_to 6896
  150.6863  134.2810  159.4636 H   0  0  0  0  0  0  0  0  0  0  0  0  # atno 6908 bound_to 6896
  152.0666  134.9560  160.0625 H   0  0  0  0  0  0  0  0  0  0  0  0  # atno 6909 bound_to 6896
  145.4829  140.9556  143.1854 H   0  0  0  0  0  0  0  0  0  0  0  0  # atno 7974 bound_to 7965
  156.1064  140.3235  155.8012 H   0  0  0  0  0  0  0  0  0  0  0  0  # atno 8008 bound_to 7997
  155.4748  140.0549  157.2992 H   0  0  0  0  0  0  0  0  0  0  0  0  # atno 8009 bound_to 7997
  154.4731  140.2020  155.9960 H   0  0  0  0  0  0  0  0  0  0  0  0  # atno 8010 bound_to 7997
  139.7166  143.9024  152.2488 H   0  0  0  0  0  0  0  0  0  0  0  0  # atno 10167 bound_to 10162
  157.1160  130.6529  149.5910 H   0  0  0  0  0  0  0  0  0  0  0  0  # atno 10718 bound_to 10713
  153.1425  135.6763  153.9004 H   0  0  0  0  0  0  0  0  0  0  0  0  # atno 10763 bound_to 10752
  153.8456  135.3099  155.3430 H   0  0  0  0  0  0  0  0  0  0  0  0  # atno 10764 bound_to 10752
  154.7799  135.4894  153.9907 H   0  0  0  0  0  0  0  0  0  0  0  0  # atno 10765 bound_to 10752
  141.0548  133.9630  157.2774 H   0  0  0  0  0  0  0  0  0  0  0  0  # atno 11005 bound_to 11000
  144.7878  139.6390  143.7126 LP  0  0  0  0  0  0  0  0  0  0  0  0  # atno 17320 bound_to 7965
  146.2330  139.5851  142.9542 LP  0  0  0  0  0  0  0  0  0  0  0  0  # atno 17321 bound_to 7965
  139.8908  144.6966  150.8772 LP  0  0  0  0  0  0  0  0  0  0  0  0  # atno 17342 bound_to 10162
  140.7745  143.3588  151.1869 LP  0  0  0  0  0  0  0  0  0  0  0  0  # atno 17343 bound_to 10162
  155.9839  130.4861  150.6958 LP  0  0  0  0  0  0  0  0  0  0  0  0  # atno 17370 bound_to 10713
  157.4518  131.0873  151.0838 LP  0  0  0  0  0  0  0  0  0  0  0  0  # atno 17371 bound_to 10713
  139.9380  135.0194  156.8619 LP  0  0  0  0  0  0  0  0  0  0  0  0  # atno 17394 bound_to 11000
  140.5986  134.0193  155.7528 LP  0  0  0  0  0  0  0  0  0  0  0  0  # atno 17395 bound_to 11000

$$$$
