AV-unprocessed.smi:2536|AV-procd|sdf|9979|dock8
  -GOLD-   2272014 23D 1   1.00000     0.00000
 Structure written by MMmdl.
 32 33  0  0  0  0  0  0  0  0  1 V2000
  152.6299  143.7823  162.0094 C   0  0  0  0  0  0  0  0  0  0  0  0
  152.0680  143.4755  160.6342 C   0  0  0  0  0  0  0  0  0  0  0  0
  151.0259  144.2551  160.0880 C   0  0  0  0  0  0  0  0  0  0  0  0
  150.5057  144.0003  158.8681 N   0  0  0  0  0  0  0  0  0  0  0  0
  151.0201  142.9712  158.1921 C   0  0  0  0  0  0  0  0  0  0  0  0
  150.4585  142.7382  156.9493 N   0  0  0  0  0  0  0  0  0  0  0  0
  150.8259  141.6481  156.0539 C   0  0  1  0  0  0  0  0  0  0  0  0
  151.0197  140.3262  156.8171 C   0  0  0  0  0  0  0  0  0  0  0  0
  151.3094  139.1932  155.8271 C   0  0  0  0  0  0  0  0  0  0  0  0
  150.2229  139.1403  154.7418 C   0  0  0  0  0  0  0  0  0  0  0  0
  150.1315  140.4006  154.0855 O   0  0  0  0  0  0  0  0  0  0  0  0
  149.7580  141.4608  154.9600 C   0  0  0  0  0  0  0  0  0  0  0  0
  152.0070  142.1686  158.6065 N   0  0  0  0  0  0  0  0  0  0  0  0
  152.5375  142.4117  159.8253 C   0  0  0  0  0  0  0  0  0  0  0  0
  153.6494  141.4696  160.2503 C   0  0  0  0  0  0  0  0  0  0  0  0
  152.1143  144.6281  162.4651 H   0  0  0  0  0  0  0  0  0  0  0  0
  153.6894  144.0308  161.9420 H   0  0  0  0  0  0  0  0  0  0  0  0
  152.5138  142.9219  162.6689 H   0  0  0  0  0  0  0  0  0  0  0  0
  150.6032  145.0875  160.6310 H   0  0  0  0  0  0  0  0  0  0  0  0
  149.6808  143.3243  156.6832 H   0  0  0  0  0  0  0  0  0  0  0  0
  151.7630  141.9110  155.5614 H   0  0  0  0  0  0  0  0  0  0  0  0
  151.8345  140.4071  157.5369 H   0  0  0  0  0  0  0  0  0  0  0  0
  150.1201  140.0900  157.3874 H   0  0  0  0  0  0  0  0  0  0  0  0
  152.2826  139.3535  155.3615 H   0  0  0  0  0  0  0  0  0  0  0  0
  151.3660  138.2393  156.3518 H   0  0  0  0  0  0  0  0  0  0  0  0
  150.4670  138.3759  154.0039 H   0  0  0  0  0  0  0  0  0  0  0  0
  149.2568  138.8711  155.1715 H   0  0  0  0  0  0  0  0  0  0  0  0
  148.7787  141.2549  155.3958 H   0  0  0  0  0  0  0  0  0  0  0  0
  149.6583  142.3736  154.3719 H   0  0  0  0  0  0  0  0  0  0  0  0
  154.1004  141.7490  161.2011 H   0  0  0  0  0  0  0  0  0  0  0  0
  154.4393  141.4593  159.4987 H   0  0  0  0  0  0  0  0  0  0  0  0
  153.2611  140.4555  160.3476 H   0  0  0  0  0  0  0  0  0  0  0  0
  1  2  1  0  0  0  0
  1 16  1  0  0  0  0
  1 17  1  0  0  0  0
  1 18  1  0  0  0  0
  2 14  1  0  0  0  0
  2  3  2  0  0  0  0
  3  4  1  0  0  0  0
  3 19  1  0  0  0  0
  4  5  2  0  0  0  0
  5  6  1  0  0  0  0
  5 13  1  0  0  0  0
  6  7  1  0  0  0  0
  6 20  1  0  0  0  0
  7 12  1  0  0  0  0
  7  8  1  0  0  0  0
  7 21  1  0  0  0  0
  8  9  1  0  0  0  0
  8 22  1  0  0  0  0
  8 23  1  0  0  0  0
  9 10  1  0  0  0  0
  9 24  1  0  0  0  0
  9 25  1  0  0  0  0
 10 11  1  0  0  0  0
 10 26  1  0  0  0  0
 10 27  1  0  0  0  0
 11 12  1  0  0  0  0
 12 28  1  0  0  0  0
 12 29  1  0  0  0  0
 13 14  2  0  0  0  0
 14 15  1  0  0  0  0
 15 30  1  0  0  0  0
 15 31  1  0  0  0  0
 15 32  1  0  0  0  0
M  END
> <s_m_source_file>
AV-unprocessed.smi

> <i_m_source_file_index>
2536

> <i_lp_mmshare_version>
43012

> <i_f3d_flags>
0

> <s_epik_input>
W0NIM11jMVtjSF1uYyhuYzFbQ0gzXSlbTkhdW0NAQEhdMltDSDJdW0NIMl1bQ0gyXU9bQ0gyXTI=

> <s_epik_cmdline>
J2VwaWtfcHl0aG9uJywgJy1waCcsICc3LjAnLCAnLXRuJywgJzgnLCAnLW1hJywgJzIwMCcsICctbWV0YWxfYmluZGluZycsICctaW1hZScsICc8aW5maWxlLm1hZT4nLCAnLW9tYWUnLCAnPG91dGZpbGUubWFlPic=

> <r_lp_tautomer_probability>
1

> <r_epik_Ionization_Penalty>
0.00982357

> <r_epik_Ionization_Penalty_Charging>
0

> <r_epik_Ionization_Penalty_Neutral>
0.00982357

> <r_epik_State_Penalty>
0.0064698

> <r_epik_Charging_Adjusted_Penalty>
0.0064698

> <i_epik_Tot_Q>
0

> <i_epik_Tot_abs_Q>
0

> <r_epik_Metal_State_Penalty>
-0

> <b_epik_Metal_Only>
0

> <s_lp_Force_Field>
OPLS_2005

> <r_lp_Energy>
1.83983

> <b_lp_Chiralities_Consistent>
1

> <s_lp_Variant>
AV-unprocessed.smi:2536-2

> <Gold.Version>
5.8.1

> <Gold.Id.Protein>
6NUR|6NUR_protein|mol2

> <Gold.PLP.Fitness>
39.4162

> <Gold.PLP.PLP>
-34.1741

> <Gold.PLP.part.hbond>
-2.0000

> <Gold.PLP.part.metal>
0.0000

> <Gold.PLP.part.buried>
-4.9415

> <Gold.PLP.part.nonpolar>
-27.4392

> <Gold.PLP.part.repulsive>
0.8883

> <Gold.PLP.ligand.clash>
0.0000

> <Gold.PLP.ligand.torsion>
0.2244

> <Gold.PLP.Chemscore.Hbond>
1.8960

> <Gold.PLP.Chemscore.CHOScore>
0.0000

> <Gold.PLP.Chemscore.Metal>
0.0000

> <Gold.Chemscore.Hbonds>
donor molecule, donor type, donor heavy atom, donor atom, acceptor molecule, acceptor atom, score
      L1  H     6    20       P1  8028  1.00
      P1  H  7989  7998       L1    11  0.83

> <Gold.PLP.Chemscore.Internal.Correction>
0.0029

> <Gold.Rescore>
     Score         DG    S(hbond)    S(metal)    S(lipo)     H(rot)  DE(clash)    DE(int)     intcor
     16.92     -18.36       1.59        0.00      86.55       1.00       0.01       1.42       ----

> <Gold.Chemscore.Fitness>
16.9214

> <Gold.Chemscore.DG>
-18.3581

> <Gold.Chemscore.ZeroCoef>
-5.4800

> <Gold.Chemscore.Hbond>
1.5902

> <Gold.Chemscore.Metal>
0.0000

> <Gold.Chemscore.Lipo>
86.5531

> <Gold.Chemscore.Internal_Hbond>
0.0000

> <Gold.Chemscore.DEClash>
0.0125

> <Gold.Chemscore.DEInternal>
1.4242

> <Gold.Chemscore.Rot>
1.0000

> <Gold.Chemscore.Internal.Correction>
   9.000000E+99

> <Gold.Chemscore.Hbonds>
donor molecule, donor type, donor heavy atom, donor atom, acceptor molecule, acceptor atom, score
      L1  H     6    20       P1  8028  0.97
      P1  H  7989  7998       L1    11  0.31

> <Gold.Chemscore.Hbond.Weighted>
-5.3113

> <Gold.Chemscore.Metal.Weighted>
-0.0000

> <Gold.Chemscore.Lipo.Weighted>
-10.1267

> <Gold.Chemscore.Internal_Hbond.Weighted>
0.0000

> <Gold.Chemscore.DEClash.Weighted>
0.0125

> <Gold.Chemscore.DEInternal.Weighted>
1.4242

> <Gold.Chemscore.Rot.Weighted>
2.5600

> <Gold.Chemscore.Internal.Correction.Weighted>
   9.000000E+99

> <Gold.Protein.RotatedTorsions>
[ 6907 6896 6895 6894 ] final   -9.16 input  -60.11 | X-H torsion
[ 7974 7965 7964 7962 ] final  107.78 input  175.53 | X-H torsion
[ 8008 7997 7996 7995 ] final  -46.34 input   59.86 | X-H torsion
[ 10167 10162 10161 10158 ] final   68.22 input  -65.29 | X-H torsion
[ 10718 10713 10712 10709 ] final  -40.46 input   66.30 | X-H torsion
[ 10763 10752 10751 10750 ] final  -50.98 input  -60.55 | X-H torsion
[ 11005 11000 10999 10996 ] final  101.42 input  -57.11 | X-H torsion

> <Gold.Protein.ActiveResidues>
 VAL166  LYS551  ARG553  GLY616  TRP617  ASP618  TYR619  PRO620  LYS621  CYS622 
 ASP623  PHE694  ASN695  SER759  ASP760  ASP761  ALA762  ILE779  LEU786  VAL792 
 PHE793  MET794  SER795  GLU796  ALA797  LYS798  CYS799  TRP800  GLU811  SER814 

> <Gold.Protein.RotatedAtoms>
  151.4222  135.0999  159.9617 H   0  0  0  0  0  0  0  0  0  0  0  0  # atno 6907 bound_to 6896
  152.4984  133.8696  159.7302 H   0  0  0  0  0  0  0  0  0  0  0  0  # atno 6908 bound_to 6896
  150.9215  133.6817  159.2859 H   0  0  0  0  0  0  0  0  0  0  0  0  # atno 6909 bound_to 6896
  145.2892  139.2606  143.3874 H   0  0  0  0  0  0  0  0  0  0  0  0  # atno 7974 bound_to 7965
  154.4007  140.1374  156.3996 H   0  0  0  0  0  0  0  0  0  0  0  0  # atno 8008 bound_to 7997
  155.7837  140.3481  155.5291 H   0  0  0  0  0  0  0  0  0  0  0  0  # atno 8009 bound_to 7997
  155.8648  140.0962  157.1580 H   0  0  0  0  0  0  0  0  0  0  0  0  # atno 8010 bound_to 7997
  140.0810  144.5070  150.7162 H   0  0  0  0  0  0  0  0  0  0  0  0  # atno 10167 bound_to 10162
  156.2811  130.4217  149.8336 H   0  0  0  0  0  0  0  0  0  0  0  0  # atno 10718 bound_to 10713
  154.1192  135.6537  153.4900 H   0  0  0  0  0  0  0  0  0  0  0  0  # atno 10763 bound_to 10752
  153.0231  135.5266  154.7114 H   0  0  0  0  0  0  0  0  0  0  0  0  # atno 10764 bound_to 10752
  154.6316  135.2977  155.0179 H   0  0  0  0  0  0  0  0  0  0  0  0  # atno 10765 bound_to 10752
  139.8773  134.9182  156.4904 H   0  0  0  0  0  0  0  0  0  0  0  0  # atno 11005 bound_to 11000
  146.3190  140.3379  142.8645 LP  0  0  0  0  0  0  0  0  0  0  0  0  # atno 17320 bound_to 7965
  144.9187  140.7842  143.5762 LP  0  0  0  0  0  0  0  0  0  0  0  0  # atno 17321 bound_to 7965
  140.7077  143.2481  151.4675 LP  0  0  0  0  0  0  0  0  0  0  0  0  # atno 17342 bound_to 10162
  139.5779  144.1776  152.1929 LP  0  0  0  0  0  0  0  0  0  0  0  0  # atno 17343 bound_to 10162
  156.5783  130.8454  151.3376 LP  0  0  0  0  0  0  0  0  0  0  0  0  # atno 17370 bound_to 10713
  157.7314  130.9700  150.1881 LP  0  0  0  0  0  0  0  0  0  0  0  0  # atno 17371 bound_to 10713
  140.8662  133.8022  155.9317 LP  0  0  0  0  0  0  0  0  0  0  0  0  # atno 17394 bound_to 11000
  140.8999  134.2391  157.5047 LP  0  0  0  0  0  0  0  0  0  0  0  0  # atno 17395 bound_to 11000

$$$$
