AV-unprocessed.smi:1768|AV-procd|sdf|7143|dock9
  -GOLD-   22720 8383D 1   1.00000     0.00000
 Structure written by MMmdl.
 33 34  0  0  0  0  0  0  0  0  1 V2000
  150.7763  142.2610  156.6947 C   0  0  0  0  0  0  0  0  0  0  0  0
  150.4525  141.1348  155.7736 C   0  0  0  0  0  0  0  0  0  0  0  0
  151.3887  140.3361  155.2468 N   0  0  0  0  0  0  0  0  0  0  0  0
  150.8454  139.3617  154.4209 N   0  0  0  0  0  0  0  0  0  0  0  0
  149.5106  139.4558  154.3481 C   0  0  0  0  0  0  0  0  0  0  0  0
  148.6982  138.5867  153.5729 N   0  0  0  0  0  0  0  0  0  0  0  0
  147.3566  138.5502  153.4918 C   0  0  0  0  0  0  0  0  0  0  0  0
  146.5871  139.3016  154.0909 O   0  0  0  0  0  0  0  0  0  0  0  0
  146.9510  137.5824  152.6561 N   0  0  0  0  0  0  0  0  0  0  0  0
  145.5640  137.2594  152.3242 C   0  0  2  0  0  0  0  0  0  0  0  0
  144.8039  136.9534  153.6231 C   0  0  0  0  0  0  0  0  0  0  0  0
  145.5098  136.0767  151.3354 C   0  0  2  0  0  0  0  0  0  0  0  0
  144.1052  135.5478  151.0357 C   0  0  0  0  0  0  0  0  0  0  0  0
  144.3992  134.1331  150.5939 C   0  0  0  0  0  0  0  0  0  0  0  0
  145.5275  133.7415  151.5425 C   0  0  0  0  0  0  0  0  0  0  0  0
  146.2122  134.9510  151.8594 O   0  0  0  0  0  0  0  0  0  0  0  0
  148.8034  140.7567  155.2913 S   0  0  0  0  0  0  0  0  0  0  0  0
  151.8071  142.1886  157.0433 H   0  0  0  0  0  0  0  0  0  0  0  0
  150.1139  142.2380  157.5602 H   0  0  0  0  0  0  0  0  0  0  0  0
  150.6469  143.2124  156.1787 H   0  0  0  0  0  0  0  0  0  0  0  0
  149.1988  137.9122  153.0133 H   0  0  0  0  0  0  0  0  0  0  0  0
  147.6599  137.0195  152.2094 H   0  0  0  0  0  0  0  0  0  0  0  0
  145.0823  138.1199  151.8562 H   0  0  0  0  0  0  0  0  0  0  0  0
  143.7521  136.7460  153.4245 H   0  0  0  0  0  0  0  0  0  0  0  0
  144.8451  137.7985  154.3112 H   0  0  0  0  0  0  0  0  0  0  0  0
  145.2230  136.0861  154.1341 H   0  0  0  0  0  0  0  0  0  0  0  0
  145.9885  136.3534  150.3942 H   0  0  0  0  0  0  0  0  0  0  0  0
  143.4964  135.5355  151.9412 H   0  0  0  0  0  0  0  0  0  0  0  0
  143.5809  136.1310  150.2783 H   0  0  0  0  0  0  0  0  0  0  0  0
  143.5355  133.4714  150.6612 H   0  0  0  0  0  0  0  0  0  0  0  0
  144.7554  134.1299  149.5629 H   0  0  0  0  0  0  0  0  0  0  0  0
  145.1223  133.3231  152.4646 H   0  0  0  0  0  0  0  0  0  0  0  0
  146.2013  133.0052  151.1040 H   0  0  0  0  0  0  0  0  0  0  0  0
  1  2  1  0  0  0  0
  1 18  1  0  0  0  0
  1 19  1  0  0  0  0
  1 20  1  0  0  0  0
  2 17  1  0  0  0  0
  2  3  2  0  0  0  0
  3  4  1  0  0  0  0
  4  5  2  0  0  0  0
  5  6  1  0  0  0  0
  5 17  1  0  0  0  0
  6  7  1  0  0  0  0
  6 21  1  0  0  0  0
  7  8  2  0  0  0  0
  7  9  1  0  0  0  0
  9 10  1  0  0  0  0
  9 22  1  0  0  0  0
 10 11  1  0  0  0  0
 10 12  1  0  0  0  0
 10 23  1  0  0  0  0
 11 24  1  0  0  0  0
 11 25  1  0  0  0  0
 11 26  1  0  0  0  0
 12 16  1  0  0  0  0
 12 13  1  0  0  0  0
 12 27  1  0  0  0  0
 13 14  1  0  0  0  0
 13 28  1  0  0  0  0
 13 29  1  0  0  0  0
 14 15  1  0  0  0  0
 14 30  1  0  0  0  0
 14 31  1  0  0  0  0
 15 16  1  0  0  0  0
 15 32  1  0  0  0  0
 15 33  1  0  0  0  0
M  END
> <s_m_source_file>
AV-unprocessed.smi

> <i_m_source_file_index>
1768

> <i_lp_mmshare_version>
43012

> <i_f3d_flags>
0

> <s_epik_input>
W0NIM11jMW5uYyhzMSlbTkhdQyg9TylbTkhdW0NASF0oW0NIM10pW0NAQEhdMltDSDJdW0NIMl1bQ0gyXU8y

> <s_epik_cmdline>
J2VwaWtfcHl0aG9uJywgJy1waCcsICc3LjAnLCAnLXRuJywgJzgnLCAnLW1hJywgJzIwMCcsICctbWV0YWxfYmluZGluZycsICctaW1hZScsICc8aW5maWxlLm1hZT4nLCAnLW9tYWUnLCAnPG91dGZpbGUubWFlPic=

> <r_lp_tautomer_probability>
1

> <r_epik_Ionization_Penalty>
0.000523083

> <r_epik_Ionization_Penalty_Charging>
0

> <r_epik_Ionization_Penalty_Neutral>
0.000523083

> <r_epik_State_Penalty>
-0

> <r_epik_Charging_Adjusted_Penalty>
0

> <i_epik_Tot_Q>
0

> <i_epik_Tot_abs_Q>
0

> <r_epik_Metal_State_Penalty>
0.223408

> <b_epik_Metal_Only>
0

> <s_lp_Force_Field>
OPLS_2005

> <r_lp_Energy>
16.8922

> <b_lp_Chiralities_Consistent>
1

> <s_lp_Variant>
AV-unprocessed.smi:1768-1

> <Gold.Version>
5.8.1

> <Gold.Id.Protein>
6NUR|6NUR_protein|mol2

> <Gold.PLP.Fitness>
33.6669

> <Gold.PLP.PLP>
-28.0727

> <Gold.PLP.part.hbond>
-4.9882

> <Gold.PLP.part.metal>
0.0000

> <Gold.PLP.part.buried>
-4.4752

> <Gold.PLP.part.nonpolar>
-21.1240

> <Gold.PLP.part.repulsive>
1.3897

> <Gold.PLP.ligand.clash>
0.0000

> <Gold.PLP.ligand.torsion>
0.0507

> <Gold.PLP.Chemscore.Hbond>
1.8960

> <Gold.PLP.Chemscore.CHOScore>
0.0000

> <Gold.PLP.Chemscore.Metal>
0.0000

> <Gold.Chemscore.Hbonds>
donor molecule, donor type, donor heavy atom, donor atom, acceptor molecule, acceptor atom, score
      L1  H     6    21       P1  7948  0.90
      L1  H     9    22       P1  7948  1.00

> <Gold.PLP.Chemscore.Internal.Correction>
0.0077

> <Gold.Rescore>
     Score         DG    S(hbond)    S(metal)    S(lipo)     H(rot)  DE(clash)    DE(int)     intcor
     12.42     -14.73       1.93        0.00      52.22       1.29       0.04       2.27       ----

> <Gold.Chemscore.Fitness>
12.4181

> <Gold.Chemscore.DG>
-14.7286

> <Gold.Chemscore.ZeroCoef>
-5.4800

> <Gold.Chemscore.Hbond>
1.9300

> <Gold.Chemscore.Metal>
0.0000

> <Gold.Chemscore.Lipo>
52.2177

> <Gold.Chemscore.Internal_Hbond>
0.0000

> <Gold.Chemscore.DEClash>
0.0356

> <Gold.Chemscore.DEInternal>
2.2750

> <Gold.Chemscore.Rot>
1.2919

> <Gold.Chemscore.Internal.Correction>
   9.000000E+99

> <Gold.Chemscore.Hbonds>
donor molecule, donor type, donor heavy atom, donor atom, acceptor molecule, acceptor atom, score
      L1  H     6    21       P1  7948  0.80
      L1  H     9    22       P1  7948  0.94

> <Gold.Chemscore.Hbond.Weighted>
-6.4464

> <Gold.Chemscore.Metal.Weighted>
-0.0000

> <Gold.Chemscore.Lipo.Weighted>
-6.1095

> <Gold.Chemscore.Internal_Hbond.Weighted>
0.0000

> <Gold.Chemscore.DEClash.Weighted>
0.0356

> <Gold.Chemscore.DEInternal.Weighted>
2.2750

> <Gold.Chemscore.Rot.Weighted>
3.3072

> <Gold.Chemscore.Internal.Correction.Weighted>
   9.000000E+99

> <Gold.Protein.RotatedTorsions>
[ 6907 6896 6895 6894 ] final    1.85 input  -60.11 | X-H torsion
[ 7974 7965 7964 7962 ] final -105.11 input  175.53 | X-H torsion
[ 8008 7997 7996 7995 ] final   61.93 input   59.86 | X-H torsion
[ 10167 10162 10161 10158 ] final -115.38 input  -65.29 | X-H torsion
[ 10718 10713 10712 10709 ] final   66.00 input   66.30 | X-H torsion
[ 10763 10752 10751 10750 ] final  -54.47 input  -60.55 | X-H torsion
[ 11005 11000 10999 10996 ] final  105.78 input  -57.11 | X-H torsion

> <Gold.Protein.ActiveResidues>
 VAL166  LYS551  ARG553  GLY616  TRP617  ASP618  TYR619  PRO620  LYS621  CYS622 
 ASP623  PHE694  ASN695  SER759  ASP760  ASP761  ALA762  ILE779  LEU786  VAL792 
 PHE793  MET794  SER795  GLU796  ALA797  LYS798  CYS799  TRP800  GLU811  SER814 

> <Gold.Protein.RotatedAtoms>
  151.5993  135.1048  160.0056 H   0  0  0  0  0  0  0  0  0  0  0  0  # atno 6907 bound_to 6896
  152.4266  133.7202  159.6539 H   0  0  0  0  0  0  0  0  0  0  0  0  # atno 6908 bound_to 6896
  150.8156  133.8272  159.3184 H   0  0  0  0  0  0  0  0  0  0  0  0  # atno 6909 bound_to 6896
  145.2346  140.9183  143.3185 H   0  0  0  0  0  0  0  0  0  0  0  0  # atno 7974 bound_to 7965
  155.6063  140.3494  155.4609 H   0  0  0  0  0  0  0  0  0  0  0  0  # atno 8008 bound_to 7997
  156.0189  140.1249  157.0402 H   0  0  0  0  0  0  0  0  0  0  0  0  # atno 8009 bound_to 7997
  154.4308  140.1066  156.5921 H   0  0  0  0  0  0  0  0  0  0  0  0  # atno 8010 bound_to 7997
  140.0907  143.4702  152.1871 H   0  0  0  0  0  0  0  0  0  0  0  0  # atno 10167 bound_to 10162
  157.6141  130.9244  150.0051 H   0  0  0  0  0  0  0  0  0  0  0  0  # atno 10718 bound_to 10713
  154.1754  135.6452  153.5020 H   0  0  0  0  0  0  0  0  0  0  0  0  # atno 10763 bound_to 10752
  153.0073  135.5393  154.6569 H   0  0  0  0  0  0  0  0  0  0  0  0  # atno 10764 bound_to 10752
  154.5920  135.2935  155.0598 H   0  0  0  0  0  0  0  0  0  0  0  0  # atno 10765 bound_to 10752
  139.8806  134.9347  156.5565 H   0  0  0  0  0  0  0  0  0  0  0  0  # atno 11005 bound_to 11000
  144.9645  139.3945  143.6339 LP  0  0  0  0  0  0  0  0  0  0  0  0  # atno 17320 bound_to 7965
  146.3344  139.8713  142.8839 LP  0  0  0  0  0  0  0  0  0  0  0  0  # atno 17321 bound_to 7965
  139.5726  144.7471  151.3850 LP  0  0  0  0  0  0  0  0  0  0  0  0  # atno 17342 bound_to 10162
  140.7030  143.7585  150.7434 LP  0  0  0  0  0  0  0  0  0  0  0  0  # atno 17343 bound_to 10162
  156.1256  130.3644  149.9815 LP  0  0  0  0  0  0  0  0  0  0  0  0  # atno 17370 bound_to 10713
  156.7886  130.9248  151.3646 LP  0  0  0  0  0  0  0  0  0  0  0  0  # atno 17371 bound_to 10713
  140.8201  133.8360  155.8888 LP  0  0  0  0  0  0  0  0  0  0  0  0  # atno 17394 bound_to 11000
  140.9426  134.1881  157.4786 LP  0  0  0  0  0  0  0  0  0  0  0  0  # atno 17395 bound_to 11000

$$$$
