AV-unprocessed.smi:102|AV-procd|sdf|955|dock9
  -GOLD-   2262017493D 1   1.00000     0.00000
 Structure written by MMmdl.
 44 45  0  0  0  0  0  0  0  0  1 V2000
  145.3763  136.1014  161.4557 C   0  0  0  0  0  0  0  0  0  0  0  0
  146.6573  136.4764  160.7227 C   0  0  0  0  0  0  0  0  0  0  0  0
  147.6021  137.0068  161.3067 O   0  0  0  0  0  0  0  0  0  0  0  0
  146.6106  136.1608  159.4217 O   0  0  0  0  0  0  0  0  0  0  0  0
  147.8035  135.8238  158.7297 C   0  0  0  0  0  0  0  0  0  0  0  0
  148.8254  136.9674  158.8360 C   0  0  2  0  0  0  0  0  0  0  0  0
  148.2921  138.1816  158.3374 O   0  0  0  0  0  0  0  0  0  0  0  0
  149.3470  139.0500  158.0747 C   0  0  2  0  0  0  0  0  0  0  0  0
  148.9447  139.9415  156.9232 N   0  0  0  0  0  0  0  0  0  0  0  0
  148.4859  139.3873  155.7363 C   0  0  0  0  0  0  0  0  0  0  0  0
  148.1496  140.1315  154.6562 C   0  0  0  0  0  0  0  0  0  0  0  0
  147.7076  139.5228  153.5427 F   0  0  0  0  0  0  0  0  0  0  0  0
  148.2691  141.5863  154.6878 C   0  0  0  0  0  0  0  0  0  0  0  0
  147.9848  142.3454  153.7636 O   0  0  0  0  0  0  0  0  0  0  0  0
  148.7590  142.0987  155.8925 N   0  0  0  0  0  0  0  0  0  0  0  0
  149.1156  141.3431  157.0105 C   0  0  0  0  0  0  0  0  0  0  0  0
  149.5623  141.9038  158.0100 O   0  0  0  0  0  0  0  0  0  0  0  0
  150.6004  138.2073  157.7652 C   0  0  1  0  0  0  0  0  0  0  0  0
  151.6947  138.6434  158.5613 O   0  0  0  0  0  0  0  0  0  0  0  0
  152.4422  139.6882  158.1637 C   0  0  0  0  0  0  0  0  0  0  0  0
  153.2511  140.2913  159.3040 C   0  0  0  0  0  0  0  0  0  0  0  0
  152.5072  140.1388  157.0199 O   0  0  0  0  0  0  0  0  0  0  0  0
  150.1825  136.7853  158.1344 C   0  0  2  0  0  0  0  0  0  0  0  0
  150.1325  136.0141  156.9386 O   0  0  0  0  0  0  0  0  0  0  0  0
  150.0306  134.6741  156.9828 C   0  0  0  0  0  0  0  0  0  0  0  0
  150.0862  134.0451  155.5971 C   0  0  0  0  0  0  0  0  0  0  0  0
  149.8966  133.9872  157.9952 O   0  0  0  0  0  0  0  0  0  0  0  0
  148.8732  143.0999  155.9557 H   0  0  0  0  0  0  0  0  0  0  0  0
  144.9642  135.1743  161.0559 H   0  0  0  0  0  0  0  0  0  0  0  0
  144.6321  136.8894  161.3412 H   0  0  0  0  0  0  0  0  0  0  0  0
  145.5727  135.9609  162.5188 H   0  0  0  0  0  0  0  0  0  0  0  0
  148.2171  134.9129  159.1637 H   0  0  0  0  0  0  0  0  0  0  0  0
  147.5920  135.6170  157.6794 H   0  0  0  0  0  0  0  0  0  0  0  0
  149.0314  137.1354  159.8940 H   0  0  0  0  0  0  0  0  0  0  0  0
  149.4835  139.6994  158.9411 H   0  0  0  0  0  0  0  0  0  0  0  0
  148.3838  138.3144  155.6579 H   0  0  0  0  0  0  0  0  0  0  0  0
  150.8488  138.2884  156.7060 H   0  0  0  0  0  0  0  0  0  0  0  0
  152.6096  140.4886  160.1631 H   0  0  0  0  0  0  0  0  0  0  0  0
  153.7099  141.2302  158.9933 H   0  0  0  0  0  0  0  0  0  0  0  0
  154.0411  139.6055  159.6103 H   0  0  0  0  0  0  0  0  0  0  0  0
  150.8997  136.3516  158.8329 H   0  0  0  0  0  0  0  0  0  0  0  0
  149.5754  134.6763  154.8697 H   0  0  0  0  0  0  0  0  0  0  0  0
  149.6043  133.0672  155.6023 H   0  0  0  0  0  0  0  0  0  0  0  0
  151.1220  133.9203  155.2819 H   0  0  0  0  0  0  0  0  0  0  0  0
  1  2  1  0  0  0  0
  1 29  1  0  0  0  0
  1 30  1  0  0  0  0
  1 31  1  0  0  0  0
  2  3  2  0  0  0  0
  2  4  1  0  0  0  0
  4  5  1  0  0  0  0
  5  6  1  0  0  0  0
  5 32  1  0  0  0  0
  5 33  1  0  0  0  0
  6 23  1  0  0  0  0
  6  7  1  0  0  0  0
  6 34  1  0  0  0  0
  7  8  1  0  0  0  0
  8  9  1  0  0  0  0
  8 18  1  0  0  0  0
  8 35  1  0  0  0  0
  9 16  1  0  0  0  0
  9 10  1  0  0  0  0
 10 11  2  0  0  0  0
 10 36  1  0  0  0  0
 11 12  1  0  0  0  0
 11 13  1  0  0  0  0
 13 14  2  0  0  0  0
 13 15  1  0  0  0  0
 15 28  1  0  0  0  0
 15 16  1  0  0  0  0
 16 17  2  0  0  0  0
 18 19  1  0  0  0  0
 18 23  1  0  0  0  0
 18 37  1  0  0  0  0
 19 20  1  0  0  0  0
 20 21  1  0  0  0  0
 20 22  2  0  0  0  0
 21 38  1  0  0  0  0
 21 39  1  0  0  0  0
 21 40  1  0  0  0  0
 23 24  1  0  0  0  0
 23 41  1  0  0  0  0
 24 25  1  0  0  0  0
 25 26  1  0  0  0  0
 25 27  2  0  0  0  0
 26 42  1  0  0  0  0
 26 43  1  0  0  0  0
 26 44  1  0  0  0  0
M  END
> <s_m_source_file>
AV-unprocessed.smi

> <i_m_source_file_index>
102

> <i_lp_mmshare_version>
43012

> <i_f3d_flags>
0

> <s_epik_input>
W0NIM11DKD1PKU9bQ0gyXVtDQEBIXTFPW0NASF0oW0NAQEhdKE9DKD1PKVtDSDNdKVtDQEhdMU9DKD1PKVtDSDNdKW4yW2NIXWMoRiljKD1PKVtuSF1jMj1P

> <s_epik_cmdline>
J2VwaWtfcHl0aG9uJywgJy1waCcsICc3LjAnLCAnLXRuJywgJzgnLCAnLW1hJywgJzIwMCcsICctbWV0YWxfYmluZGluZycsICctaW1hZScsICc8aW5maWxlLm1hZT4nLCAnLW9tYWUnLCAnPG91dGZpbGUubWFlPic=

> <r_lp_tautomer_probability>
0.999537

> <r_epik_Ionization_Penalty>
0.058267

> <r_epik_Ionization_Penalty_Charging>
0.058267

> <r_epik_Ionization_Penalty_Neutral>
6.57791e-16

> <r_epik_State_Penalty>
0.0503774

> <r_epik_Charging_Adjusted_Penalty>
0.108644

> <i_epik_Tot_Q>
0

> <i_epik_Tot_abs_Q>
0

> <r_epik_Metal_State_Penalty>
2.6644

> <b_epik_Metal_Only>
0

> <s_epik_Chemistry_Notes>
This compound has an ester and may undergo hydrolysis at high or low pH. This compound contains an acetal/aminal-like group ( X-CH(R)-Y where X, Y are N, S, or O) that may be acid/base labile, releasing an aldehyde.

> <s_lp_Force_Field>
OPLS_2005

> <r_lp_Energy>
7.073

> <b_lp_Chiralities_Consistent>
1

> <s_lp_Variant>
AV-unprocessed.smi:102-11

> <Gold.Version>
5.8.1

> <Gold.Id.Protein>
6NUR|6NUR_protein|mol2

> <Gold.PLP.Fitness>
38.9637

> <Gold.PLP.PLP>
-25.5765

> <Gold.PLP.part.hbond>
-6.9591

> <Gold.PLP.part.metal>
0.0000

> <Gold.PLP.part.buried>
-1.0654

> <Gold.PLP.part.nonpolar>
-17.0320

> <Gold.PLP.part.repulsive>
1.4622

> <Gold.PLP.ligand.clash>
0.0000

> <Gold.PLP.ligand.torsion>
1.1277

> <Gold.PLP.Chemscore.Hbond>
5.1891

> <Gold.PLP.Chemscore.CHOScore>
0.0000

> <Gold.PLP.Chemscore.Metal>
0.0000

> <Gold.Chemscore.Hbonds>
donor molecule, donor type, donor heavy atom, donor atom, acceptor molecule, acceptor atom, score
      L1  H    15    28       P1  8028  1.00
      P1  H  6896  6908       L1    27  1.00
      P1  H  6931  6943       L1     3  1.00
      P1  H  6934  6947       L1     3  0.76
      P1  H  7997  8008       L1    22  1.00
      P1  H  8011  8017       L1    14  0.08

> <Gold.PLP.Chemscore.Internal.Correction>
0.0755

> <Gold.Rescore>
     Score         DG    S(hbond)    S(metal)    S(lipo)     H(rot)  DE(clash)    DE(int)     intcor
      8.27     -13.61       4.42        0.00      31.97       4.05       2.64       2.71       ----

> <Gold.Chemscore.Fitness>
8.2659

> <Gold.Chemscore.DG>
-13.6121

> <Gold.Chemscore.ZeroCoef>
-5.4800

> <Gold.Chemscore.Hbond>
4.4207

> <Gold.Chemscore.Metal>
0.0000

> <Gold.Chemscore.Lipo>
31.9671

> <Gold.Chemscore.Internal_Hbond>
0.0000

> <Gold.Chemscore.DEClash>
2.6404

> <Gold.Chemscore.DEInternal>
2.7058

> <Gold.Chemscore.Rot>
4.0520

> <Gold.Chemscore.Internal.Correction>
   9.000000E+99

> <Gold.Chemscore.Hbonds>
donor molecule, donor type, donor heavy atom, donor atom, acceptor molecule, acceptor atom, score
      L1  H    15    28       P1  8028  1.00
      P1  H  6896  6908       L1    27  0.94
      P1  H  6931  6943       L1     3  0.93
      P1  H  6934  6947       L1     3  0.22
      P1  H  7997  8008       L1    22  0.67
      P1  H  8011  8017       L1    14  0.05
      P1  H  8022  8030       L1    14  0.02

> <Gold.Chemscore.Hbond.Weighted>
-14.7652

> <Gold.Chemscore.Metal.Weighted>
-0.0000

> <Gold.Chemscore.Lipo.Weighted>
-3.7401

> <Gold.Chemscore.Internal_Hbond.Weighted>
0.0000

> <Gold.Chemscore.DEClash.Weighted>
2.6404

> <Gold.Chemscore.DEInternal.Weighted>
2.7058

> <Gold.Chemscore.Rot.Weighted>
10.3732

> <Gold.Chemscore.Internal.Correction.Weighted>
   9.000000E+99

> <Gold.Protein.RotatedTorsions>
[ 6907 6896 6895 6894 ] final  119.36 input  -60.11 | X-H torsion
[ 7974 7965 7964 7962 ] final   24.38 input  175.53 | X-H torsion
[ 8008 7997 7996 7995 ] final  -47.83 input   59.86 | X-H torsion
[ 10167 10162 10161 10158 ] final  -47.75 input  -65.29 | X-H torsion
[ 10718 10713 10712 10709 ] final  -73.62 input   66.30 | X-H torsion
[ 10763 10752 10751 10750 ] final -167.06 input  -60.55 | X-H torsion
[ 11005 11000 10999 10996 ] final -135.44 input  -57.11 | X-H torsion

> <Gold.Protein.ActiveResidues>
 VAL166  LYS551  ARG553  GLY616  TRP617  ASP618  TYR619  PRO620  LYS621  CYS622 
 ASP623  PHE694  ASN695  SER759  ASP760  ASP761  ALA762  ILE779  LEU786  VAL792 
 PHE793  MET794  SER795  GLU796  ALA797  LYS798  CYS799  TRP800  GLU811  SER814 

> <Gold.Protein.RotatedAtoms>
  152.4477  133.7568  159.6724 H   0  0  0  0  0  0  0  0  0  0  0  0  # atno 6907 bound_to 6896
  150.8381  133.7970  159.3078 H   0  0  0  0  0  0  0  0  0  0  0  0  # atno 6908 bound_to 6896
  151.5604  135.1068  160.0023 H   0  0  0  0  0  0  0  0  0  0  0  0  # atno 6909 bound_to 6896
  146.1940  139.7613  142.8811 H   0  0  0  0  0  0  0  0  0  0  0  0  # atno 7974 bound_to 7965
  154.4021  140.1336  156.4240 H   0  0  0  0  0  0  0  0  0  0  0  0  # atno 8008 bound_to 7997
  155.7615  140.3486  155.5180 H   0  0  0  0  0  0  0  0  0  0  0  0  # atno 8009 bound_to 7997
  155.8854  140.0994  157.1446 H   0  0  0  0  0  0  0  0  0  0  0  0  # atno 8010 bound_to 7997
  140.6761  143.2770  151.3972 H   0  0  0  0  0  0  0  0  0  0  0  0  # atno 10167 bound_to 10162
  156.0273  130.4398  150.2769 H   0  0  0  0  0  0  0  0  0  0  0  0  # atno 10718 bound_to 10713
  154.6770  135.2948  154.9665 H   0  0  0  0  0  0  0  0  0  0  0  0  # atno 10763 bound_to 10752
  154.0673  135.6623  153.4823 H   0  0  0  0  0  0  0  0  0  0  0  0  # atno 10764 bound_to 10752
  153.0522  135.5166  154.7794 H   0  0  0  0  0  0  0  0  0  0  0  0  # atno 10765 bound_to 10752
  140.8898  134.1826  157.4535 H   0  0  0  0  0  0  0  0  0  0  0  0  # atno 11005 bound_to 11000
  145.3702  141.0341  143.3235 LP  0  0  0  0  0  0  0  0  0  0  0  0  # atno 17320 bound_to 7965
  144.8543  139.5274  143.6842 LP  0  0  0  0  0  0  0  0  0  0  0  0  # atno 17321 bound_to 7965
  139.6055  144.1206  152.2244 LP  0  0  0  0  0  0  0  0  0  0  0  0  # atno 17342 bound_to 10162
  140.0604  144.5861  150.7267 LP  0  0  0  0  0  0  0  0  0  0  0  0  # atno 17343 bound_to 10162
  157.0872  131.0160  151.3135 LP  0  0  0  0  0  0  0  0  0  0  0  0  # atno 17370 bound_to 10713
  157.4882  130.7806  149.7481 LP  0  0  0  0  0  0  0  0  0  0  0  0  # atno 17371 bound_to 10713
  139.8728  134.9853  156.5278 LP  0  0  0  0  0  0  0  0  0  0  0  0  # atno 17394 bound_to 11000
  140.8360  133.8242  155.9029 LP  0  0  0  0  0  0  0  0  0  0  0  0  # atno 17395 bound_to 11000

$$$$
