AV-unprocessed.smi:564|AV-procd|sdf|2948|dock9
  -GOLD-   2262023443D 1   1.00000     0.00000
 Structure written by MMmdl.
 50 51  0  0  0  0  0  0  0  0  2 V2000
  151.0947  145.5252  160.1876 C   0  0  0  0  0  0  0  0  0  0  0  0
  151.9025  144.3258  160.5939 C   0  0  0  0  0  0  0  0  0  0  0  0
  152.2086  144.1491  161.8685 N   0  0  0  0  0  0  0  0  0  0  0  0
  152.9196  143.0041  161.8960 N   0  0  0  0  0  0  0  0  0  0  0  0
  153.4228  142.5107  163.1635 C   0  0  0  0  0  0  0  0  0  0  0  0
  153.0644  142.4572  160.6357 C   0  0  0  0  0  0  0  0  0  0  0  0
  153.8115  141.1842  160.4006 C   0  0  0  0  0  0  0  0  0  0  0  0
  152.4190  143.2903  159.7610 C   0  0  0  0  0  0  0  0  0  0  0  0
  152.2762  143.1636  158.2650 C   0  0  0  0  0  0  0  0  0  0  0  0
  151.1016  142.2454  157.9171 C   0  0  0  0  0  0  0  0  0  0  0  0
  150.3141  141.8833  158.7917 O   0  0  0  0  0  0  0  0  0  0  0  0
  150.9909  141.8771  156.6324 N   0  0  0  0  0  0  0  0  0  0  0  0
  149.9442  141.0092  156.1107 C   0  0  0  0  0  0  0  0  0  0  0  0
  149.9793  140.9914  154.5732 C   0  0  0  0  0  0  0  0  0  0  0  0
  148.8964  140.1701  153.9669 N   0  3  1  0  0  0  0  0  0  0  0  0
  148.5521  138.9929  154.8100 C   0  0  0  0  0  0  0  0  0  0  0  0
  147.5984  138.0362  154.0770 C   0  0  0  0  0  0  0  0  0  0  0  0
  146.3323  138.7662  153.6172 C   0  0  0  0  0  0  0  0  0  0  0  0
  146.7143  139.9843  152.7655 C   0  0  0  0  0  0  0  0  0  0  0  0
  147.6918  140.9272  153.4994 C   0  0  1  0  0  0  0  0  0  0  0  0
  146.9939  141.7333  154.6163 C   0  0  0  0  0  0  0  0  0  0  0  0
  150.2348  145.2289  159.5867 H   0  0  0  0  0  0  0  0  0  0  0  0
  151.6943  146.2139  159.5925 H   0  0  0  0  0  0  0  0  0  0  0  0
  150.7191  146.0735  161.0524 H   0  0  0  0  0  0  0  0  0  0  0  0
  154.5104  142.5809  163.1768 H   0  0  0  0  0  0  0  0  0  0  0  0
  153.1302  141.4691  163.2958 H   0  0  0  0  0  0  0  0  0  0  0  0
  153.0200  143.0954  163.9916 H   0  0  0  0  0  0  0  0  0  0  0  0
  153.7732  140.8911  159.3517 H   0  0  0  0  0  0  0  0  0  0  0  0
  153.3863  140.3706  160.9884 H   0  0  0  0  0  0  0  0  0  0  0  0
  154.8595  141.2931  160.6803 H   0  0  0  0  0  0  0  0  0  0  0  0
  152.0973  144.1338  157.8008 H   0  0  0  0  0  0  0  0  0  0  0  0
  153.1942  142.7824  157.8159 H   0  0  0  0  0  0  0  0  0  0  0  0
  151.6795  142.2191  155.9775 H   0  0  0  0  0  0  0  0  0  0  0  0
  150.1049  140.0128  156.5220 H   0  0  0  0  0  0  0  0  0  0  0  0
  148.9671  141.3519  156.4553 H   0  0  0  0  0  0  0  0  0  0  0  0
  149.8625  142.0194  154.2265 H   0  0  0  0  0  0  0  0  0  0  0  0
  150.9541  140.6647  154.2107 H   0  0  0  0  0  0  0  0  0  0  0  0
  149.4615  138.4489  155.0678 H   0  0  0  0  0  0  0  0  0  0  0  0
  148.1118  139.3217  155.7518 H   0  0  0  0  0  0  0  0  0  0  0  0
  148.1058  137.6040  153.2136 H   0  0  0  0  0  0  0  0  0  0  0  0
  147.3326  137.2029  154.7282 H   0  0  0  0  0  0  0  0  0  0  0  0
  145.6975  138.0906  153.0429 H   0  0  0  0  0  0  0  0  0  0  0  0
  145.7472  139.0796  154.4825 H   0  0  0  0  0  0  0  0  0  0  0  0
  147.1783  139.6375  151.8410 H   0  0  0  0  0  0  0  0  0  0  0  0
  145.8167  140.5264  152.4653 H   0  0  0  0  0  0  0  0  0  0  0  0
  148.0212  141.6462  152.7503 H   0  0  0  0  0  0  0  0  0  0  0  0
  146.1090  142.2393  154.2293 H   0  0  0  0  0  0  0  0  0  0  0  0
  147.6425  142.5092  155.0222 H   0  0  0  0  0  0  0  0  0  0  0  0
  146.6687  141.1031  155.4434 H   0  0  0  0  0  0  0  0  0  0  0  0
  149.3023  139.7774  153.1291 H   0  0  0  0  0  0  0  0  0  0  0  0
  1  2  1  0  0  0  0
  1 22  1  0  0  0  0
  1 23  1  0  0  0  0
  1 24  1  0  0  0  0
  2  8  1  0  0  0  0
  2  3  2  0  0  0  0
  3  4  1  0  0  0  0
  4  5  1  0  0  0  0
  4  6  1  0  0  0  0
  5 25  1  0  0  0  0
  5 26  1  0  0  0  0
  5 27  1  0  0  0  0
  6  7  1  0  0  0  0
  6  8  2  0  0  0  0
  7 28  1  0  0  0  0
  7 29  1  0  0  0  0
  7 30  1  0  0  0  0
  8  9  1  0  0  0  0
  9 10  1  0  0  0  0
  9 31  1  0  0  0  0
  9 32  1  0  0  0  0
 10 11  2  0  0  0  0
 10 12  1  0  0  0  0
 12 13  1  0  0  0  0
 12 33  1  0  0  0  0
 13 14  1  0  0  0  0
 13 34  1  0  0  0  0
 13 35  1  0  0  0  0
 14 15  1  0  0  0  0
 14 36  1  0  0  0  0
 14 37  1  0  0  0  0
 15 20  1  0  0  0  0
 15 16  1  0  0  0  0
 15 50  1  0  0  0  0
 16 17  1  0  0  0  0
 16 38  1  0  0  0  0
 16 39  1  0  0  0  0
 17 18  1  0  0  0  0
 17 40  1  0  0  0  0
 17 41  1  0  0  0  0
 18 19  1  0  0  0  0
 18 42  1  0  0  0  0
 18 43  1  0  0  0  0
 19 20  1  0  0  0  0
 19 44  1  0  0  0  0
 19 45  1  0  0  0  0
 20 21  1  0  0  0  0
 20 46  1  0  0  0  0
 21 47  1  0  0  0  0
 21 48  1  0  0  0  0
 21 49  1  0  0  0  0
M  CHG  1  15   1
M  END
> <s_m_source_file>
AV-unprocessed.smi

> <i_m_source_file_index>
564

> <i_lp_mmshare_version>
43012

> <i_f3d_flags>
0

> <s_epik_input>
W0NIM11jMW5uKFtDSDNdKWMoW0NIM10pYzFbQ0gyXUMoPU8pW05IXVtDSDJdW0NIMl1OMltDSDJdW0NIMl1bQ0gyXVtDSDJdW0NASF0yW0NIM10=

> <s_epik_cmdline>
J2VwaWtfcHl0aG9uJywgJy1waCcsICc3LjAnLCAnLXRuJywgJzgnLCAnLW1hJywgJzIwMCcsICctbWV0YWxfYmluZGluZycsICctaW1hZScsICc8aW5maWxlLm1hZT4nLCAnLW9tYWUnLCAnPG91dGZpbGUubWFlPic=

> <r_lp_tautomer_probability>
1

> <r_epik_Ionization_Penalty>
0.00456826

> <r_epik_Ionization_Penalty_Charging>
0.00240401

> <r_epik_Ionization_Penalty_Neutral>
0.00216425

> <r_epik_State_Penalty>
-0

> <r_epik_Charging_Adjusted_Penalty>
0.00240401

> <i_epik_Tot_Q>
1

> <i_epik_Tot_abs_Q>
1

> <r_epik_Metal_State_Penalty>
-0

> <b_epik_Metal_Only>
0

> <s_lp_Force_Field>
OPLS_2005

> <r_lp_Energy>
16.0318

> <b_lp_Chiralities_Consistent>
1

> <s_lp_Variant>
AV-unprocessed.smi:564-2

> <Gold.Version>
5.8.1

> <Gold.Id.Protein>
6NUR|6NUR_protein|mol2

> <Gold.PLP.Fitness>
46.0138

> <Gold.PLP.PLP>
-44.9817

> <Gold.PLP.part.hbond>
-1.4937

> <Gold.PLP.part.metal>
0.0000

> <Gold.PLP.part.buried>
-1.1399

> <Gold.PLP.part.nonpolar>
-43.0856

> <Gold.PLP.part.repulsive>
0.4420

> <Gold.PLP.ligand.clash>
0.0000

> <Gold.PLP.ligand.torsion>
0.9021

> <Gold.PLP.Chemscore.Hbond>
0.9280

> <Gold.PLP.Chemscore.CHOScore>
0.0000

> <Gold.PLP.Chemscore.Metal>
0.0000

> <Gold.Chemscore.Hbonds>
donor molecule, donor type, donor heavy atom, donor atom, acceptor molecule, acceptor atom, score
      L1  H    15    50       P1  7957  0.91

> <Gold.PLP.Chemscore.Internal.Correction>
0.0524

> <Gold.Rescore>
     Score         DG    S(hbond)    S(metal)    S(lipo)     H(rot)  DE(clash)    DE(int)     intcor
     16.54     -19.09       0.86        0.00     127.00       1.61       1.64       0.91       ----

> <Gold.Chemscore.Fitness>
16.5381

> <Gold.Chemscore.DG>
-19.0877

> <Gold.Chemscore.ZeroCoef>
-5.4800

> <Gold.Chemscore.Hbond>
0.8627

> <Gold.Chemscore.Metal>
0.0000

> <Gold.Chemscore.Lipo>
126.9970

> <Gold.Chemscore.Internal_Hbond>
0.0000

> <Gold.Chemscore.DEClash>
1.6404

> <Gold.Chemscore.DEInternal>
0.9091

> <Gold.Chemscore.Rot>
1.6142

> <Gold.Chemscore.Internal.Correction>
   9.000000E+99

> <Gold.Chemscore.Hbonds>
donor molecule, donor type, donor heavy atom, donor atom, acceptor molecule, acceptor atom, score
      L1  H    15    50       P1  7957  0.85

> <Gold.Chemscore.Hbond.Weighted>
-2.8814

> <Gold.Chemscore.Metal.Weighted>
-0.0000

> <Gold.Chemscore.Lipo.Weighted>
-14.8586

> <Gold.Chemscore.Internal_Hbond.Weighted>
0.0000

> <Gold.Chemscore.DEClash.Weighted>
1.6404

> <Gold.Chemscore.DEInternal.Weighted>
0.9091

> <Gold.Chemscore.Rot.Weighted>
4.1324

> <Gold.Chemscore.Internal.Correction.Weighted>
   9.000000E+99

> <Gold.Protein.RotatedTorsions>
[ 6907 6896 6895 6894 ] final  -81.11 input  -60.11 | X-H torsion
[ 7974 7965 7964 7962 ] final  136.73 input  175.53 | X-H torsion
[ 8008 7997 7996 7995 ] final  -47.98 input   59.86 | X-H torsion
[ 10167 10162 10161 10158 ] final  -86.21 input  -65.29 | X-H torsion
[ 10718 10713 10712 10709 ] final  -89.30 input   66.30 | X-H torsion
[ 10763 10752 10751 10750 ] final   24.46 input  -60.55 | X-H torsion
[ 11005 11000 10999 10996 ] final   -5.59 input  -57.11 | X-H torsion

> <Gold.Protein.ActiveResidues>
 VAL166  LYS551  ARG553  GLY616  TRP617  ASP618  TYR619  PRO620  LYS621  CYS622 
 ASP623  PHE694  ASN695  SER759  ASP760  ASP761  ALA762  ILE779  LEU786  VAL792 
 PHE793  MET794  SER795  GLU796  ALA797  LYS798  CYS799  TRP800  GLU811  SER814 

> <Gold.Protein.RotatedAtoms>
  150.6917  134.3867  159.5057 H   0  0  0  0  0  0  0  0  0  0  0  0  # atno 6907 bound_to 6896
  152.1662  134.8869  160.0547 H   0  0  0  0  0  0  0  0  0  0  0  0  # atno 6908 bound_to 6896
  151.9913  133.3757  159.4182 H   0  0  0  0  0  0  0  0  0  0  0  0  # atno 6909 bound_to 6896
  144.9537  139.4789  143.5513 H   0  0  0  0  0  0  0  0  0  0  0  0  # atno 7974 bound_to 7965
  154.4023  140.1333  156.4264 H   0  0  0  0  0  0  0  0  0  0  0  0  # atno 8008 bound_to 7997
  155.7593  140.3486  155.5169 H   0  0  0  0  0  0  0  0  0  0  0  0  # atno 8009 bound_to 7997
  155.8875  140.0997  157.1432 H   0  0  0  0  0  0  0  0  0  0  0  0  # atno 8010 bound_to 7997
  140.3963  143.2682  151.9200 H   0  0  0  0  0  0  0  0  0  0  0  0  # atno 10167 bound_to 10162
  155.9984  130.4867  150.5150 H   0  0  0  0  0  0  0  0  0  0  0  0  # atno 10718 bound_to 10713
  153.0762  135.6604  154.0141 H   0  0  0  0  0  0  0  0  0  0  0  0  # atno 10763 bound_to 10752
  153.9774  135.2958  155.3424 H   0  0  0  0  0  0  0  0  0  0  0  0  # atno 10764 bound_to 10752
  154.7150  135.5189  153.8795 H   0  0  0  0  0  0  0  0  0  0  0  0  # atno 10765 bound_to 10752
  140.6928  133.9056  155.8630 H   0  0  0  0  0  0  0  0  0  0  0  0  # atno 11005 bound_to 11000
  146.3330  139.8639  142.8851 LP  0  0  0  0  0  0  0  0  0  0  0  0  # atno 17320 bound_to 7965
  145.2805  141.0137  143.3720 LP  0  0  0  0  0  0  0  0  0  0  0  0  # atno 17321 bound_to 7965
  139.4786  144.5678  151.8137 LP  0  0  0  0  0  0  0  0  0  0  0  0  # atno 17342 bound_to 10162
  140.4787  144.1482  150.5929 LP  0  0  0  0  0  0  0  0  0  0  0  0  # atno 17343 bound_to 10162
  157.3118  131.0665  151.1995 LP  0  0  0  0  0  0  0  0  0  0  0  0  # atno 17370 bound_to 10713
  157.2939  130.6809  149.6128 LP  0  0  0  0  0  0  0  0  0  0  0  0  # atno 17371 bound_to 10713
  141.0227  134.0866  157.4102 LP  0  0  0  0  0  0  0  0  0  0  0  0  # atno 17394 bound_to 11000
  139.8918  135.0121  156.6814 LP  0  0  0  0  0  0  0  0  0  0  0  0  # atno 17395 bound_to 11000

$$$$
