AV-unprocessed.smi:2902|AV-procd|sdf|11158|dock4
  -GOLD-   2272016 43D 1   1.00000     0.00000
 Structure written by MMmdl.
 47 48  0  0  0  0  0  0  0  0  1 V2000
  149.5629  133.5225  154.2656 C   0  0  0  0  0  0  0  0  0  0  0  0
  148.1716  132.8955  154.1115 C   0  0  0  0  0  0  0  0  0  0  0  0
  147.1975  133.7879  153.3198 C   0  0  1  0  0  0  0  0  0  0  0  0
  146.0348  133.0141  153.0223 O   0  0  0  0  0  0  0  0  0  0  0  0
  145.6424  132.9591  151.6534 C   0  0  0  0  0  0  0  0  0  0  0  0
  145.2370  134.3273  151.0987 C   0  0  0  0  0  0  0  0  0  0  0  0
  144.3219  134.0087  149.9121 C   0  0  0  0  0  0  0  0  0  0  0  0
  143.7483  132.6076  150.1782 C   0  0  0  0  0  0  0  0  0  0  0  0
  144.3620  132.1394  151.5026 C   0  0  0  0  0  0  0  0  0  0  0  0
  146.8173  135.0456  154.1181 C   0  0  0  0  0  0  0  0  0  0  0  0
  146.2340  134.9442  155.1975 O   0  0  0  0  0  0  0  0  0  0  0  0
  147.1351  136.2240  153.5592 N   0  0  0  0  0  0  0  0  0  0  0  0
  146.8169  137.5398  154.1100 C   0  0  1  0  0  0  0  0  0  0  0  0
  147.3682  137.6439  155.5454 C   0  0  0  0  0  0  0  0  0  0  0  0
  147.3457  138.6510  153.1670 C   0  0  1  0  0  0  0  0  0  0  0  0
  146.5551  138.7536  151.8490 C   0  0  0  0  0  0  0  0  0  0  0  0
  147.3756  139.9476  153.8298 N   0  0  0  0  0  0  0  0  0  0  0  0
  146.3900  140.6864  154.3454 C   0  0  0  0  0  0  0  0  0  0  0  0
  146.7986  141.8282  154.8804 N   0  0  0  0  0  0  0  0  0  0  0  0
  148.1398  141.7239  154.6427 C   0  0  0  0  0  0  0  0  0  0  0  0
  148.5380  140.6172  154.0153 N   0  0  0  0  0  0  0  0  0  0  0  0
  150.2204  132.8696  154.8396 H   0  0  0  0  0  0  0  0  0  0  0  0
  149.5086  134.4797  154.7846 H   0  0  0  0  0  0  0  0  0  0  0  0
  150.0302  133.6924  153.2951 H   0  0  0  0  0  0  0  0  0  0  0  0
  148.2681  131.9236  153.6253 H   0  0  0  0  0  0  0  0  0  0  0  0
  147.7667  132.7022  155.1061 H   0  0  0  0  0  0  0  0  0  0  0  0
  147.6818  134.0836  152.3867 H   0  0  0  0  0  0  0  0  0  0  0  0
  146.4147  132.5111  151.0250 H   0  0  0  0  0  0  0  0  0  0  0  0
  144.6740  134.8758  151.8553 H   0  0  0  0  0  0  0  0  0  0  0  0
  146.0878  134.9445  150.8120 H   0  0  0  0  0  0  0  0  0  0  0  0
  143.5383  134.7585  149.8006 H   0  0  0  0  0  0  0  0  0  0  0  0
  144.8994  133.9994  148.9871 H   0  0  0  0  0  0  0  0  0  0  0  0
  142.6587  132.6143  150.2266 H   0  0  0  0  0  0  0  0  0  0  0  0
  144.0346  131.9322  149.3711 H   0  0  0  0  0  0  0  0  0  0  0  0
  144.5463  131.0651  151.5255 H   0  0  0  0  0  0  0  0  0  0  0  0
  143.6781  132.3742  152.3198 H   0  0  0  0  0  0  0  0  0  0  0  0
  147.6139  136.2087  152.6703 H   0  0  0  0  0  0  0  0  0  0  0  0
  145.7311  137.6414  154.1626 H   0  0  0  0  0  0  0  0  0  0  0  0
  147.0667  138.5739  156.0274 H   0  0  0  0  0  0  0  0  0  0  0  0
  148.4577  137.6030  155.5539 H   0  0  0  0  0  0  0  0  0  0  0  0
  147.0010  136.8286  156.1697 H   0  0  0  0  0  0  0  0  0  0  0  0
  148.3752  138.3991  152.9044 H   0  0  0  0  0  0  0  0  0  0  0  0
  146.6202  137.8340  151.2676 H   0  0  0  0  0  0  0  0  0  0  0  0
  146.9433  139.5576  151.2227 H   0  0  0  0  0  0  0  0  0  0  0  0
  145.4996  138.9567  152.0328 H   0  0  0  0  0  0  0  0  0  0  0  0
  145.3536  140.3816  154.3303 H   0  0  0  0  0  0  0  0  0  0  0  0
  148.8440  142.4870  154.9404 H   0  0  0  0  0  0  0  0  0  0  0  0
  1  2  1  0  0  0  0
  1 22  1  0  0  0  0
  1 23  1  0  0  0  0
  1 24  1  0  0  0  0
  2  3  1  0  0  0  0
  2 25  1  0  0  0  0
  2 26  1  0  0  0  0
  3  4  1  0  0  0  0
  3 10  1  0  0  0  0
  3 27  1  0  0  0  0
  4  5  1  0  0  0  0
  5  9  1  0  0  0  0
  5  6  1  0  0  0  0
  5 28  1  0  0  0  0
  6  7  1  0  0  0  0
  6 29  1  0  0  0  0
  6 30  1  0  0  0  0
  7  8  1  0  0  0  0
  7 31  1  0  0  0  0
  7 32  1  0  0  0  0
  8  9  1  0  0  0  0
  8 33  1  0  0  0  0
  8 34  1  0  0  0  0
  9 35  1  0  0  0  0
  9 36  1  0  0  0  0
 10 11  2  0  0  0  0
 10 12  1  0  0  0  0
 12 13  1  0  0  0  0
 12 37  1  0  0  0  0
 13 14  1  0  0  0  0
 13 15  1  0  0  0  0
 13 38  1  0  0  0  0
 14 39  1  0  0  0  0
 14 40  1  0  0  0  0
 14 41  1  0  0  0  0
 15 16  1  0  0  0  0
 15 17  1  0  0  0  0
 15 42  1  0  0  0  0
 16 43  1  0  0  0  0
 16 44  1  0  0  0  0
 16 45  1  0  0  0  0
 17 21  1  0  0  0  0
 17 18  1  0  0  0  0
 18 19  2  0  0  0  0
 18 46  1  0  0  0  0
 19 20  1  0  0  0  0
 20 21  2  0  0  0  0
 20 47  1  0  0  0  0
M  END
> <s_m_source_file>
AV-unprocessed.smi

> <i_m_source_file_index>
2902

> <i_lp_mmshare_version>
43012

> <i_f3d_flags>
0

> <s_epik_input>
W0NIMl0xW0NIMl1bQ0gyXVtDSDJdW0NIXTFPW0NAQEhdKFtDSDJdW0NIM10pQyg9TylbTkhdW0NASF0oW0NIM10pW0NASF0oW0NIM10pbjJbY0hdbltjSF1uMg==

> <s_epik_cmdline>
J2VwaWtfcHl0aG9uJywgJy1waCcsICc3LjAnLCAnLXRuJywgJzgnLCAnLW1hJywgJzIwMCcsICctbWV0YWxfYmluZGluZycsICctaW1hZScsICc8aW5maWxlLm1hZT4nLCAnLW9tYWUnLCAnPG91dGZpbGUubWFlPic=

> <r_lp_tautomer_probability>
1

> <r_epik_Ionization_Penalty>
6.95617e-05

> <r_epik_Ionization_Penalty_Charging>
0

> <r_epik_Ionization_Penalty_Neutral>
6.95617e-05

> <r_epik_State_Penalty>
-0

> <r_epik_Charging_Adjusted_Penalty>
0

> <i_epik_Tot_Q>
0

> <i_epik_Tot_abs_Q>
0

> <r_epik_Metal_State_Penalty>
-0

> <b_epik_Metal_Only>
0

> <s_lp_Force_Field>
OPLS_2005

> <r_lp_Energy>
30.3462

> <b_lp_Chiralities_Consistent>
1

> <s_lp_Variant>
AV-unprocessed.smi:2902-8

> <Gold.Version>
5.8.1

> <Gold.Id.Protein>
6NUR|6NUR_protein|mol2

> <Gold.PLP.Fitness>
37.9725

> <Gold.PLP.PLP>
-30.8063

> <Gold.PLP.part.hbond>
-0.7894

> <Gold.PLP.part.metal>
0.0000

> <Gold.PLP.part.buried>
-2.2486

> <Gold.PLP.part.nonpolar>
-29.2799

> <Gold.PLP.part.repulsive>
0.3967

> <Gold.PLP.ligand.clash>
0.0000

> <Gold.PLP.ligand.torsion>
1.0226

> <Gold.PLP.Chemscore.Hbond>
1.0000

> <Gold.PLP.Chemscore.CHOScore>
2.0000

> <Gold.PLP.Chemscore.Metal>
0.0000

> <Gold.Chemscore.Hbonds>
donor molecule, donor type, donor heavy atom, donor atom, acceptor molecule, acceptor atom, score
      L1  H    12    37       P1  7948  1.00
      L1  C    18    46       P1 10175  1.00
      L1  C    20    47       P1  8028  1.00

> <Gold.PLP.Chemscore.Internal.Correction>
0.2115

> <Gold.Rescore>
     Score         DG    S(hbond)    S(metal)    S(lipo)     H(rot)  DE(clash)    DE(int)     intcor
      8.57      -9.70       0.97        0.00      67.43       2.69       0.05       1.08       ----

> <Gold.Chemscore.Fitness>
8.5705

> <Gold.Chemscore.DG>
-9.6974

> <Gold.Chemscore.ZeroCoef>
-5.4800

> <Gold.Chemscore.Hbond>
0.9651

> <Gold.Chemscore.Metal>
0.0000

> <Gold.Chemscore.Lipo>
67.4306

> <Gold.Chemscore.Internal_Hbond>
0.0000

> <Gold.Chemscore.DEClash>
0.0492

> <Gold.Chemscore.DEInternal>
1.0777

> <Gold.Chemscore.Rot>
2.6935

> <Gold.Chemscore.Internal.Correction>
   9.000000E+99

> <Gold.Chemscore.Hbonds>
donor molecule, donor type, donor heavy atom, donor atom, acceptor molecule, acceptor atom, score
      L1  H    12    37       P1  7948  0.91

> <Gold.Chemscore.Hbond.Weighted>
-3.2233

> <Gold.Chemscore.Metal.Weighted>
-0.0000

> <Gold.Chemscore.Lipo.Weighted>
-7.8894

> <Gold.Chemscore.Internal_Hbond.Weighted>
0.0000

> <Gold.Chemscore.DEClash.Weighted>
0.0492

> <Gold.Chemscore.DEInternal.Weighted>
1.0777

> <Gold.Chemscore.Rot.Weighted>
6.8954

> <Gold.Chemscore.Internal.Correction.Weighted>
   9.000000E+99

> <Gold.Protein.RotatedTorsions>
[ 6907 6896 6895 6894 ] final -148.50 input  -60.11 | X-H torsion
[ 7974 7965 7964 7962 ] final -173.11 input  175.53 | X-H torsion
[ 8008 7997 7996 7995 ] final  165.42 input   59.86 | X-H torsion
[ 10167 10162 10161 10158 ] final  161.27 input  -65.29 | X-H torsion
[ 10718 10713 10712 10709 ] final   94.25 input   66.30 | X-H torsion
[ 10763 10752 10751 10750 ] final  114.72 input  -60.55 | X-H torsion
[ 11005 11000 10999 10996 ] final   66.64 input  -57.11 | X-H torsion

> <Gold.Protein.ActiveResidues>
 VAL166  LYS551  ARG553  GLY616  TRP617  ASP618  TYR619  PRO620  LYS621  CYS622 
 ASP623  PHE694  ASN695  SER759  ASP760  ASP761  ALA762  ILE779  LEU786  VAL792 
 PHE793  MET794  SER795  GLU796  ALA797  LYS798  CYS799  TRP800  GLU811  SER814 

> <Gold.Protein.RotatedAtoms>
  151.1707  133.4786  159.2593 H   0  0  0  0  0  0  0  0  0  0  0  0  # atno 6907 bound_to 6896
  151.1359  135.0154  159.8614 H   0  0  0  0  0  0  0  0  0  0  0  0  # atno 6908 bound_to 6896
  152.5461  134.1605  159.8609 H   0  0  0  0  0  0  0  0  0  0  0  0  # atno 6909 bound_to 6896
  144.7140  140.1672  143.6371 H   0  0  0  0  0  0  0  0  0  0  0  0  # atno 7974 bound_to 7965
  156.1802  140.1670  156.8289 H   0  0  0  0  0  0  0  0  0  0  0  0  # atno 8008 bound_to 7997
  154.5351  140.0748  156.8447 H   0  0  0  0  0  0  0  0  0  0  0  0  # atno 8009 bound_to 7997
  155.3327  140.3380  155.4241 H   0  0  0  0  0  0  0  0  0  0  0  0  # atno 8010 bound_to 7997
  139.4847  144.4553  151.8777 H   0  0  0  0  0  0  0  0  0  0  0  0  # atno 10167 bound_to 10162
  157.6949  131.0506  150.4157 H   0  0  0  0  0  0  0  0  0  0  0  0  # atno 10718 bound_to 10713
  153.5115  135.3617  155.2589 H   0  0  0  0  0  0  0  0  0  0  0  0  # atno 10763 bound_to 10752
  154.8741  135.4024  154.3363 H   0  0  0  0  0  0  0  0  0  0  0  0  # atno 10764 bound_to 10752
  153.4017  135.7075  153.6488 H   0  0  0  0  0  0  0  0  0  0  0  0  # atno 10765 bound_to 10752
  139.9819  134.6729  156.0246 H   0  0  0  0  0  0  0  0  0  0  0  0  # atno 11005 bound_to 11000
  145.8977  139.2412  143.1512 LP  0  0  0  0  0  0  0  0  0  0  0  0  # atno 17320 bound_to 7965
  145.9841  140.8658  143.0099 LP  0  0  0  0  0  0  0  0  0  0  0  0  # atno 17321 bound_to 7965
  140.4012  144.2491  150.5893 LP  0  0  0  0  0  0  0  0  0  0  0  0  # atno 17342 bound_to 10162
  140.5055  143.2305  151.8614 LP  0  0  0  0  0  0  0  0  0  0  0  0  # atno 17343 bound_to 10162
  156.4537  130.4017  149.6619 LP  0  0  0  0  0  0  0  0  0  0  0  0  # atno 17370 bound_to 10713
  156.3760  130.7554  151.2543 LP  0  0  0  0  0  0  0  0  0  0  0  0  # atno 17371 bound_to 10713
  141.1490  133.6551  156.3956 LP  0  0  0  0  0  0  0  0  0  0  0  0  # atno 17394 bound_to 11000
  140.5078  134.6424  157.5273 LP  0  0  0  0  0  0  0  0  0  0  0  0  # atno 17395 bound_to 11000

$$$$
