AV-unprocessed.smi:3163|AV-procd|sdf|12072|dock3
  -GOLD-   2272017503D 1   1.00000     0.00000
 Structure written by MMmdl.
 36 37  0  0  0  0  0  0  0  0  2 V2000
  146.3802  137.1179  154.1497 C   0  0  0  0  0  0  0  0  0  0  0  0
  147.7185  137.7435  154.1084 N   0  3  2  0  0  0  0  0  0  0  0  0
  148.5131  137.5553  155.3412 C   0  0  0  0  0  0  0  0  0  0  0  0
  149.4071  138.7886  155.4382 C   0  0  0  0  0  0  0  0  0  0  0  0
  148.5046  139.8944  154.8979 C   0  0  1  0  0  0  0  0  0  0  0  0
  149.2620  141.1598  154.4501 C   0  0  0  0  0  0  0  0  0  0  0  0
  149.4548  142.1062  155.5443 N   0  0  0  0  0  0  0  0  0  0  0  0
  150.3693  141.9820  156.5171 C   0  0  0  0  0  0  0  0  0  0  0  0
  151.1521  141.0353  156.5885 O   0  0  0  0  0  0  0  0  0  0  0  0
  150.3110  143.0187  157.3715 N   0  0  0  0  0  0  0  0  0  0  0  0
  151.0864  143.2706  158.5371 C   0  0  0  0  0  0  0  0  0  0  0  0
  150.9938  144.5549  159.1127 C   0  0  0  0  0  0  0  0  0  0  0  0
  151.7394  144.8359  160.2749 C   0  0  0  0  0  0  0  0  0  0  0  0
  152.5396  143.9327  160.8787 N   0  0  0  0  0  0  0  0  0  0  0  0
  152.6195  142.7006  160.3339 C   0  0  0  0  0  0  0  0  0  0  0  0
  151.9174  142.3163  159.1738 C   0  0  0  0  0  0  0  0  0  0  0  0
  147.7100  139.1903  153.7870 C   0  0  0  0  0  0  0  0  0  0  0  0
  145.7596  137.5686  154.9256 H   0  0  0  0  0  0  0  0  0  0  0  0
  146.4653  136.0502  154.3542 H   0  0  0  0  0  0  0  0  0  0  0  0
  145.8741  137.2378  153.1915 H   0  0  0  0  0  0  0  0  0  0  0  0
  147.8516  137.5192  156.2089 H   0  0  0  0  0  0  0  0  0  0  0  0
  149.0817  136.6252  155.3138 H   0  0  0  0  0  0  0  0  0  0  0  0
  149.7523  138.9807  156.4546 H   0  0  0  0  0  0  0  0  0  0  0  0
  150.2831  138.6643  154.7997 H   0  0  0  0  0  0  0  0  0  0  0  0
  147.8059  140.1598  155.6934 H   0  0  0  0  0  0  0  0  0  0  0  0
  150.2290  140.8896  154.0223 H   0  0  0  0  0  0  0  0  0  0  0  0
  148.7085  141.6685  153.6605 H   0  0  0  0  0  0  0  0  0  0  0  0
  148.8575  142.9203  155.5531 H   0  0  0  0  0  0  0  0  0  0  0  0
  149.6483  143.7430  157.1372 H   0  0  0  0  0  0  0  0  0  0  0  0
  150.3668  145.3170  158.6729 H   0  0  0  0  0  0  0  0  0  0  0  0
  151.6894  145.8130  160.7321 H   0  0  0  0  0  0  0  0  0  0  0  0
  153.2598  141.9947  160.8420 H   0  0  0  0  0  0  0  0  0  0  0  0
  152.0273  141.3064  158.8123 H   0  0  0  0  0  0  0  0  0  0  0  0
  148.1943  139.3203  152.8184 H   0  0  0  0  0  0  0  0  0  0  0  0
  146.7010  139.5979  153.7053 H   0  0  0  0  0  0  0  0  0  0  0  0
  148.2336  137.2957  153.3638 H   0  0  0  0  0  0  0  0  0  0  0  0
  1  2  1  0  0  0  0
  1 18  1  0  0  0  0
  1 19  1  0  0  0  0
  1 20  1  0  0  0  0
  2 17  1  0  0  0  0
  2  3  1  0  0  0  0
  2 36  1  0  0  0  0
  3  4  1  0  0  0  0
  3 21  1  0  0  0  0
  3 22  1  0  0  0  0
  4  5  1  0  0  0  0
  4 23  1  0  0  0  0
  4 24  1  0  0  0  0
  5  6  1  0  0  0  0
  5 17  1  0  0  0  0
  5 25  1  0  0  0  0
  6  7  1  0  0  0  0
  6 26  1  0  0  0  0
  6 27  1  0  0  0  0
  7  8  1  0  0  0  0
  7 28  1  0  0  0  0
  8  9  2  0  0  0  0
  8 10  1  0  0  0  0
 10 11  1  0  0  0  0
 10 29  1  0  0  0  0
 11 16  1  0  0  0  0
 11 12  2  0  0  0  0
 12 13  1  0  0  0  0
 12 30  1  0  0  0  0
 13 14  2  0  0  0  0
 13 31  1  0  0  0  0
 14 15  1  0  0  0  0
 15 16  2  0  0  0  0
 15 32  1  0  0  0  0
 16 33  1  0  0  0  0
 17 34  1  0  0  0  0
 17 35  1  0  0  0  0
M  CHG  1   2   1
M  END
> <s_m_source_file>
AV-unprocessed.smi

> <i_m_source_file_index>
3163

> <i_lp_mmshare_version>
43012

> <i_f3d_flags>
0

> <s_epik_input>
W0NIM11OMVtDSDJdW0NIMl1bQ0BIXShbQ0gyXTEpW0NIMl1bTkhdQyg9TylbTkhdYzJbY0hdW2NIXW5bY0hdW2NIXTI=

> <s_epik_cmdline>
J2VwaWtfcHl0aG9uJywgJy1waCcsICc3LjAnLCAnLXRuJywgJzgnLCAnLW1hJywgJzIwMCcsICctbWV0YWxfYmluZGluZycsICctaW1hZScsICc8aW5maWxlLm1hZT4nLCAnLW9tYWUnLCAnPG91dGZpbGUubWFlPic=

> <r_epik_Ionization_Penalty>
0.103936

> <r_epik_Ionization_Penalty_Charging>
0.0012301

> <r_epik_Ionization_Penalty_Neutral>
0.102706

> <r_epik_State_Penalty>
0.0926275

> <r_epik_Charging_Adjusted_Penalty>
0.0938576

> <i_epik_Tot_Q>
1

> <i_epik_Tot_abs_Q>
1

> <r_epik_Metal_State_Penalty>
0.0788376

> <b_epik_Metal_Only>
0

> <s_lp_Force_Field>
OPLS_2005

> <r_lp_Energy>
31.7685

> <b_lp_Chiralities_Consistent>
1

> <s_lp_Variant>
AV-unprocessed.smi:3163-2

> <Gold.Version>
5.8.1

> <Gold.Id.Protein>
6NUR|6NUR_protein|mol2

> <Gold.PLP.Fitness>
40.7395

> <Gold.PLP.PLP>
-29.6863

> <Gold.PLP.part.hbond>
-3.0000

> <Gold.PLP.part.metal>
0.0000

> <Gold.PLP.part.buried>
-2.9035

> <Gold.PLP.part.nonpolar>
-24.0816

> <Gold.PLP.part.repulsive>
0.2958

> <Gold.PLP.ligand.clash>
0.0000

> <Gold.PLP.ligand.torsion>
0.4742

> <Gold.PLP.Chemscore.Hbond>
4.0000

> <Gold.PLP.Chemscore.CHOScore>
0.0000

> <Gold.PLP.Chemscore.Metal>
0.0000

> <Gold.Chemscore.Hbonds>
donor molecule, donor type, donor heavy atom, donor atom, acceptor molecule, acceptor atom, score
      L1  H     2    36       P1  7948  2.00
      L1  H     7    28       P1  8028  0.86
      L1  H    10    29       P1  8028  0.88

> <Gold.PLP.Chemscore.Internal.Correction>
0.0017

> <Gold.Rescore>
     Score         DG    S(hbond)    S(metal)    S(lipo)     H(rot)  DE(clash)    DE(int)     intcor
     19.59     -21.53       2.92        0.00      81.34       1.26       0.28       1.66       ----

> <Gold.Chemscore.Fitness>
19.5900

> <Gold.Chemscore.DG>
-21.5326

> <Gold.Chemscore.ZeroCoef>
-5.4800

> <Gold.Chemscore.Hbond>
2.9195

> <Gold.Chemscore.Metal>
0.0000

> <Gold.Chemscore.Lipo>
81.3382

> <Gold.Chemscore.Internal_Hbond>
0.0000

> <Gold.Chemscore.DEClash>
0.2843

> <Gold.Chemscore.DEInternal>
1.6583

> <Gold.Chemscore.Rot>
1.2559

> <Gold.Chemscore.Internal.Correction>
   9.000000E+99

> <Gold.Chemscore.Hbonds>
donor molecule, donor type, donor heavy atom, donor atom, acceptor molecule, acceptor atom, score
      L1  H     2    36       P1  7948  0.98
      L1  H     7    28       P1  8028  0.87
      L1  H    10    29       P1  8028  0.74

> <Gold.Chemscore.Hbond.Weighted>
-9.7511

> <Gold.Chemscore.Metal.Weighted>
-0.0000

> <Gold.Chemscore.Lipo.Weighted>
-9.5166

> <Gold.Chemscore.Internal_Hbond.Weighted>
0.0000

> <Gold.Chemscore.DEClash.Weighted>
0.2843

> <Gold.Chemscore.DEInternal.Weighted>
1.6583

> <Gold.Chemscore.Rot.Weighted>
3.2151

> <Gold.Chemscore.Internal.Correction.Weighted>
   9.000000E+99

> <Gold.Protein.RotatedTorsions>
[ 6907 6896 6895 6894 ] final  106.02 input  -60.11 | X-H torsion
[ 7974 7965 7964 7962 ] final    1.22 input  175.53 | X-H torsion
[ 8008 7997 7996 7995 ] final -147.75 input   59.86 | X-H torsion
[ 10167 10162 10161 10158 ] final  104.01 input  -65.29 | X-H torsion
[ 10718 10713 10712 10709 ] final   42.09 input   66.30 | X-H torsion
[ 10763 10752 10751 10750 ] final  118.85 input  -60.55 | X-H torsion
[ 11005 11000 10999 10996 ] final   -1.87 input  -57.11 | X-H torsion

> <Gold.Protein.ActiveResidues>
 VAL166  LYS551  ARG553  GLY616  TRP617  ASP618  TYR619  PRO620  LYS621  CYS622 
 ASP623  PHE694  ASN695  SER759  ASP760  ASP761  ALA762  ILE779  LEU786  VAL792 
 PHE793  MET794  SER795  GLU796  ALA797  LYS798  CYS799  TRP800  GLU811  SER814 

> <Gold.Protein.RotatedAtoms>
  152.5209  133.9443  159.7640 H   0  0  0  0  0  0  0  0  0  0  0  0  # atno 6907 bound_to 6896
  150.9766  133.6280  159.2736 H   0  0  0  0  0  0  0  0  0  0  0  0  # atno 6908 bound_to 6896
  151.3473  135.0882  159.9444 H   0  0  0  0  0  0  0  0  0  0  0  0  # atno 6909 bound_to 6896
  146.2439  140.1019  142.8347 H   0  0  0  0  0  0  0  0  0  0  0  0  # atno 7974 bound_to 7965
  155.5806  140.0643  157.2784 H   0  0  0  0  0  0  0  0  0  0  0  0  # atno 8008 bound_to 7997
  154.4334  140.1853  156.1018 H   0  0  0  0  0  0  0  0  0  0  0  0  # atno 8009 bound_to 7997
  156.0308  140.3306  155.7141 H   0  0  0  0  0  0  0  0  0  0  0  0  # atno 8010 bound_to 7997
  139.7214  144.7057  151.0867 H   0  0  0  0  0  0  0  0  0  0  0  0  # atno 10167 bound_to 10162
  157.4009  130.7859  149.7348 H   0  0  0  0  0  0  0  0  0  0  0  0  # atno 10718 bound_to 10713
  153.5740  135.3496  155.2849 H   0  0  0  0  0  0  0  0  0  0  0  0  # atno 10763 bound_to 10752
  154.8678  135.4166  154.2694 H   0  0  0  0  0  0  0  0  0  0  0  0  # atno 10764 bound_to 10752
  153.3465  135.7053  153.6893 H   0  0  0  0  0  0  0  0  0  0  0  0  # atno 10765 bound_to 10752
  140.6521  133.9395  155.8386 H   0  0  0  0  0  0  0  0  0  0  0  0  # atno 11005 bound_to 11000
  145.0561  140.9053  143.4966 LP  0  0  0  0  0  0  0  0  0  0  0  0  # atno 17320 bound_to 7965
  145.1126  139.2747  143.5629 LP  0  0  0  0  0  0  0  0  0  0  0  0  # atno 17321 bound_to 7965
  140.7754  143.5161  150.9593 LP  0  0  0  0  0  0  0  0  0  0  0  0  # atno 17342 bound_to 10162
  139.8848  143.7026  152.3152 LP  0  0  0  0  0  0  0  0  0  0  0  0  # atno 17343 bound_to 10162
  155.9823  130.4011  150.3424 LP  0  0  0  0  0  0  0  0  0  0  0  0  # atno 17370 bound_to 10713
  157.1551  131.0331  151.2867 LP  0  0  0  0  0  0  0  0  0  0  0  0  # atno 17371 bound_to 10713
  141.0529  134.0459  157.3760 LP  0  0  0  0  0  0  0  0  0  0  0  0  # atno 17394 bound_to 11000
  139.9042  135.0174  156.7410 LP  0  0  0  0  0  0  0  0  0  0  0  0  # atno 17395 bound_to 11000

$$$$
