AV-unprocessed.smi:1940|AV-procd|sdf|7843|dock1
  -GOLD-   22720 9583D 1   1.00000     0.00000
 Structure written by MMmdl.
 50 52  0  0  0  0  0  0  0  0  2 V2000
  145.9605  136.4357  150.7511 C   0  0  0  0  0  0  0  0  0  0  0  0
  145.7963  137.5899  151.7504 C   0  0  2  0  0  0  0  0  0  0  0  0
  147.0911  137.8786  152.3665 N   0  0  0  0  0  0  0  0  0  0  0  0
  147.3583  138.9168  153.1718 C   0  0  0  0  0  0  0  0  0  0  0  0
  146.5330  139.7804  153.4675 O   0  0  0  0  0  0  0  0  0  0  0  0
  148.6353  138.8900  153.5896 N   0  0  0  0  0  0  0  0  0  0  0  0
  149.2838  139.7599  154.5078 C   0  0  0  0  0  0  0  0  0  0  0  0
  150.3898  139.2542  155.2247 C   0  0  0  0  0  0  0  0  0  0  0  0
  151.0508  140.0736  156.1625 C   0  0  0  0  0  0  0  0  0  0  0  0
  150.5884  141.3919  156.3765 C   0  0  0  0  0  0  0  0  0  0  0  0
  151.1777  142.2775  157.2883 N   0  0  0  0  0  0  0  0  0  0  0  0
  152.1654  141.6345  158.1516 C   0  0  0  0  0  0  0  0  0  0  0  0
  152.6416  142.5984  159.2524 C   0  0  0  0  0  0  0  0  0  0  0  0
  153.1596  143.9122  158.6450 C   0  0  0  0  0  0  0  0  0  0  0  0
  152.0921  144.5291  157.7270 C   0  0  0  0  0  0  0  0  0  0  0  0
  151.6317  143.5172  156.6634 C   0  0  0  0  0  0  0  0  0  0  0  0
  149.5208  141.8372  155.6793 N   0  3  0  0  0  0  0  0  0  0  0  0
  148.8601  141.0857  154.7722 C   0  0  0  0  0  0  0  0  0  0  0  0
  144.7088  137.2827  152.8065 C   0  0  1  0  0  0  0  0  0  0  0  0
  143.2524  137.4089  152.3391 C   0  0  0  0  0  0  0  0  0  0  0  0
  142.5474  136.4387  153.2591 C   0  0  0  0  0  0  0  0  0  0  0  0
  143.5708  135.3131  153.3528 C   0  0  0  0  0  0  0  0  0  0  0  0
  144.8414  135.9537  153.3096 O   0  0  0  0  0  0  0  0  0  0  0  0
  145.0179  136.2146  150.2496 H   0  0  0  0  0  0  0  0  0  0  0  0
  146.2956  135.5228  151.2444 H   0  0  0  0  0  0  0  0  0  0  0  0
  146.6910  136.6839  149.9806 H   0  0  0  0  0  0  0  0  0  0  0  0
  145.4745  138.4619  151.1781 H   0  0  0  0  0  0  0  0  0  0  0  0
  147.8353  137.2246  152.1743 H   0  0  0  0  0  0  0  0  0  0  0  0
  149.2178  138.1703  153.1872 H   0  0  0  0  0  0  0  0  0  0  0  0
  150.7352  138.2442  155.0574 H   0  0  0  0  0  0  0  0  0  0  0  0
  151.8997  139.6899  156.7095 H   0  0  0  0  0  0  0  0  0  0  0  0
  151.7322  140.7415  158.6041 H   0  0  0  0  0  0  0  0  0  0  0  0
  153.0179  141.3096  157.5534 H   0  0  0  0  0  0  0  0  0  0  0  0
  151.8168  142.8111  159.9341 H   0  0  0  0  0  0  0  0  0  0  0  0
  153.4233  142.1277  159.8492 H   0  0  0  0  0  0  0  0  0  0  0  0
  153.4301  144.6136  159.4348 H   0  0  0  0  0  0  0  0  0  0  0  0
  154.0686  143.7194  158.0734 H   0  0  0  0  0  0  0  0  0  0  0  0
  151.2355  144.8454  158.3239 H   0  0  0  0  0  0  0  0  0  0  0  0
  152.4832  145.4259  157.2462 H   0  0  0  0  0  0  0  0  0  0  0  0
  152.4540  143.3017  155.9795 H   0  0  0  0  0  0  0  0  0  0  0  0
  150.8246  143.9469  156.0685 H   0  0  0  0  0  0  0  0  0  0  0  0
  148.0153  141.5740  154.3102 H   0  0  0  0  0  0  0  0  0  0  0  0
  144.8521  137.9411  153.6647 H   0  0  0  0  0  0  0  0  0  0  0  0
  142.8692  138.4263  152.4192 H   0  0  0  0  0  0  0  0  0  0  0  0
  143.1288  137.0824  151.3065 H   0  0  0  0  0  0  0  0  0  0  0  0
  142.3939  136.8921  154.2392 H   0  0  0  0  0  0  0  0  0  0  0  0
  141.5814  136.1078  152.8771 H   0  0  0  0  0  0  0  0  0  0  0  0
  143.4552  134.7132  154.2557 H   0  0  0  0  0  0  0  0  0  0  0  0
  143.4878  134.6499  152.4906 H   0  0  0  0  0  0  0  0  0  0  0  0
  149.1935  142.7886  155.8489 H   0  0  0  0  0  0  0  0  0  0  0  0
  1  2  1  0  0  0  0
  1 24  1  0  0  0  0
  1 25  1  0  0  0  0
  1 26  1  0  0  0  0
  2  3  1  0  0  0  0
  2 19  1  0  0  0  0
  2 27  1  0  0  0  0
  3  4  1  0  0  0  0
  3 28  1  0  0  0  0
  4  5  2  0  0  0  0
  4  6  1  0  0  0  0
  6  7  1  0  0  0  0
  6 29  1  0  0  0  0
  7 18  1  0  0  0  0
  7  8  2  0  0  0  0
  8  9  1  0  0  0  0
  8 30  1  0  0  0  0
  9 10  2  0  0  0  0
  9 31  1  0  0  0  0
 10 11  1  0  0  0  0
 10 17  1  0  0  0  0
 11 16  1  0  0  0  0
 11 12  1  0  0  0  0
 12 13  1  0  0  0  0
 12 32  1  0  0  0  0
 12 33  1  0  0  0  0
 13 14  1  0  0  0  0
 13 34  1  0  0  0  0
 13 35  1  0  0  0  0
 14 15  1  0  0  0  0
 14 36  1  0  0  0  0
 14 37  1  0  0  0  0
 15 16  1  0  0  0  0
 15 38  1  0  0  0  0
 15 39  1  0  0  0  0
 16 40  1  0  0  0  0
 16 41  1  0  0  0  0
 17 18  2  0  0  0  0
 17 50  1  0  0  0  0
 18 42  1  0  0  0  0
 19 23  1  0  0  0  0
 19 20  1  0  0  0  0
 19 43  1  0  0  0  0
 20 21  1  0  0  0  0
 20 44  1  0  0  0  0
 20 45  1  0  0  0  0
 21 22  1  0  0  0  0
 21 46  1  0  0  0  0
 21 47  1  0  0  0  0
 22 23  1  0  0  0  0
 22 48  1  0  0  0  0
 22 49  1  0  0  0  0
M  CHG  1  17   1
M  END
> <s_m_source_file>
AV-unprocessed.smi

> <i_m_source_file_index>
1940

> <i_lp_mmshare_version>
43012

> <i_f3d_flags>
0

> <s_epik_input>
TzFbQ0gyXVtDSDJdW0NIMl1bQ0BIXTFbQ0BIXShbQ0gzXSlbTkhdQyg9TylbTkhdYzJbY0hdW2NIXWMobltjSF0yKU4zW0NIMl1bQ0gyXVtDSDJdW0NIMl1bQ0gyXTM=

> <s_epik_cmdline>
J2VwaWtfcHl0aG9uJywgJy1waCcsICc3LjAnLCAnLXRuJywgJzgnLCAnLW1hJywgJzIwMCcsICctbWV0YWxfYmluZGluZycsICctaW1hZScsICc8aW5maWxlLm1hZT4nLCAnLW9tYWUnLCAnPG91dGZpbGUubWFlPic=

> <r_lp_tautomer_probability>
0.999994

> <r_epik_Ionization_Penalty>
1.10603

> <r_epik_Ionization_Penalty_Charging>
1.10601

> <r_epik_Ionization_Penalty_Neutral>
1.929e-05

> <r_epik_State_Penalty>
1.16358

> <r_epik_Charging_Adjusted_Penalty>
2.26959

> <i_epik_Tot_Q>
1

> <i_epik_Tot_abs_Q>
1

> <r_epik_Metal_State_Penalty>
1.25013

> <b_epik_Metal_Only>
0

> <s_lp_Force_Field>
OPLS_2005

> <r_lp_Energy>
42.4745

> <b_lp_Chiralities_Consistent>
1

> <s_lp_Variant>
AV-unprocessed.smi:1940-7

> <Gold.Version>
5.8.1

> <Gold.Id.Protein>
6NUR|6NUR_protein|mol2

> <Gold.PLP.Fitness>
48.3971

> <Gold.PLP.PLP>
-39.8988

> <Gold.PLP.part.hbond>
-3.4559

> <Gold.PLP.part.metal>
0.0000

> <Gold.PLP.part.buried>
-1.0384

> <Gold.PLP.part.nonpolar>
-36.1984

> <Gold.PLP.part.repulsive>
0.7859

> <Gold.PLP.ligand.clash>
0.0000

> <Gold.PLP.ligand.torsion>
0.5569

> <Gold.PLP.Chemscore.Hbond>
3.1401

> <Gold.PLP.Chemscore.CHOScore>
0.0000

> <Gold.PLP.Chemscore.Metal>
0.0000

> <Gold.Chemscore.Hbonds>
donor molecule, donor type, donor heavy atom, donor atom, acceptor molecule, acceptor atom, score
      L1  H     3    28       P1  7948  0.96
      L1  H     6    29       P1  7948  0.19
      L1  H    17    50       P1  8028  2.00

> <Gold.PLP.Chemscore.Internal.Correction>
0.1917

> <Gold.Rescore>
     Score         DG    S(hbond)    S(metal)    S(lipo)     H(rot)  DE(clash)    DE(int)     intcor
     19.09     -22.01       2.02        0.00     113.40       1.36       1.51       1.41       ----

> <Gold.Chemscore.Fitness>
19.0906

> <Gold.Chemscore.DG>
-22.0129

> <Gold.Chemscore.ZeroCoef>
-5.4800

> <Gold.Chemscore.Hbond>
2.0176

> <Gold.Chemscore.Metal>
0.0000

> <Gold.Chemscore.Lipo>
113.4033

> <Gold.Chemscore.Internal_Hbond>
0.0000

> <Gold.Chemscore.DEClash>
1.5084

> <Gold.Chemscore.DEInternal>
1.4138

> <Gold.Chemscore.Rot>
1.3571

> <Gold.Chemscore.Internal.Correction>
   9.000000E+99

> <Gold.Chemscore.Hbonds>
donor molecule, donor type, donor heavy atom, donor atom, acceptor molecule, acceptor atom, score
      L1  H     3    28       P1  7948  0.90
      L1  H     6    29       P1  7948  0.19
      L1  H    17    50       P1  8028  0.98

> <Gold.Chemscore.Hbond.Weighted>
-6.7388

> <Gold.Chemscore.Metal.Weighted>
-0.0000

> <Gold.Chemscore.Lipo.Weighted>
-13.2682

> <Gold.Chemscore.Internal_Hbond.Weighted>
0.0000

> <Gold.Chemscore.DEClash.Weighted>
1.5084

> <Gold.Chemscore.DEInternal.Weighted>
1.4138

> <Gold.Chemscore.Rot.Weighted>
3.4741

> <Gold.Chemscore.Internal.Correction.Weighted>
   9.000000E+99

> <Gold.Protein.RotatedTorsions>
[ 6907 6896 6895 6894 ] final   52.95 input  -60.11 | X-H torsion
[ 7974 7965 7964 7962 ] final   98.81 input  175.53 | X-H torsion
[ 8008 7997 7996 7995 ] final   37.99 input   59.86 | X-H torsion
[ 10167 10162 10161 10158 ] final  -17.99 input  -65.29 | X-H torsion
[ 10718 10713 10712 10709 ] final  164.95 input   66.30 | X-H torsion
[ 10763 10752 10751 10750 ] final -157.73 input  -60.55 | X-H torsion
[ 11005 11000 10999 10996 ] final -167.24 input  -57.11 | X-H torsion

> <Gold.Protein.ActiveResidues>
 VAL166  LYS551  ARG553  GLY616  TRP617  ASP618  TYR619  PRO620  LYS621  CYS622 
 ASP623  PHE694  ASN695  SER759  ASP760  ASP761  ALA762  ILE779  LEU786  VAL792 
 PHE793  MET794  SER795  GLU796  ALA797  LYS798  CYS799  TRP800  GLU811  SER814 

> <Gold.Protein.RotatedAtoms>
  152.3286  134.7288  160.0295 H   0  0  0  0  0  0  0  0  0  0  0  0  # atno 6907 bound_to 6896
  151.7712  133.3336  159.3453 H   0  0  0  0  0  0  0  0  0  0  0  0  # atno 6908 bound_to 6896
  150.7410  134.5948  159.6050 H   0  0  0  0  0  0  0  0  0  0  0  0  # atno 6909 bound_to 6896
  145.4072  139.2339  143.3268 H   0  0  0  0  0  0  0  0  0  0  0  0  # atno 7974 bound_to 7965
  155.2129  140.3325  155.4326 H   0  0  0  0  0  0  0  0  0  0  0  0  # atno 8008 bound_to 7997
  156.2363  140.1874  156.7157 H   0  0  0  0  0  0  0  0  0  0  0  0  # atno 8009 bound_to 7997
  154.6066  140.0615  156.9425 H   0  0  0  0  0  0  0  0  0  0  0  0  # atno 8010 bound_to 7997
  140.7254  143.4960  150.9930 H   0  0  0  0  0  0  0  0  0  0  0  0  # atno 10167 bound_to 10162
  157.0870  131.0407  151.2552 H   0  0  0  0  0  0  0  0  0  0  0  0  # atno 10718 bound_to 10713
  154.7613  135.3118  154.8373 H   0  0  0  0  0  0  0  0  0  0  0  0  # atno 10763 bound_to 10752
  153.9133  135.6803  153.4754 H   0  0  0  0  0  0  0  0  0  0  0  0  # atno 10764 bound_to 10752
  153.1214  135.4821  154.9133 H   0  0  0  0  0  0  0  0  0  0  0  0  # atno 10765 bound_to 10752
  140.5554  134.5386  157.5132 H   0  0  0  0  0  0  0  0  0  0  0  0  # atno 11005 bound_to 11000
  146.2723  140.4778  142.8809 LP  0  0  0  0  0  0  0  0  0  0  0  0  # atno 17320 bound_to 7965
  144.8334  140.6743  143.6276 LP  0  0  0  0  0  0  0  0  0  0  0  0  # atno 17321 bound_to 7965
  139.8667  143.7244  152.3169 LP  0  0  0  0  0  0  0  0  0  0  0  0  # atno 17342 bound_to 10162
  139.7479  144.7542  151.0552 LP  0  0  0  0  0  0  0  0  0  0  0  0  # atno 17343 bound_to 10162
  157.4752  130.7732  149.7361 LP  0  0  0  0  0  0  0  0  0  0  0  0  # atno 17370 bound_to 10713
  155.9908  130.3942  150.3012 LP  0  0  0  0  0  0  0  0  0  0  0  0  # atno 17371 bound_to 10713
  139.9434  134.7746  156.0622 LP  0  0  0  0  0  0  0  0  0  0  0  0  # atno 17394 bound_to 11000
  141.1146  133.6632  156.3063 LP  0  0  0  0  0  0  0  0  0  0  0  0  # atno 17395 bound_to 11000

$$$$
