AV-unprocessed.smi:1054|AV-procd|sdf|4623|dock10
  -GOLD-   22720 3123D 1   1.00000     0.00000
 Structure written by MMmdl.
 35 36  0  0  0  0  0  0  0  0  1 V2000
  147.1763  133.1166  154.4064 O   0  0  0  0  0  0  0  0  0  0  0  0
  147.5236  134.0269  153.6539 C   0  0  0  0  0  0  0  0  0  0  0  0
  147.0261  134.2462  152.4241 N   0  0  0  0  0  0  0  0  0  0  0  0
  146.0277  133.5079  151.7343 C   0  0  0  0  0  0  0  0  0  0  0  0
  146.0796  132.1087  151.9263 C   0  0  0  0  0  0  0  0  0  0  0  0
  145.1335  131.2854  151.2857 C   0  0  0  0  0  0  0  0  0  0  0  0
  144.1581  131.8834  150.4682 C   0  0  0  0  0  0  0  0  0  0  0  0
  144.1758  133.2835  150.3308 C   0  0  0  0  0  0  0  0  0  0  0  0
  145.0820  134.0744  150.9435 N   0  0  0  0  0  0  0  0  0  0  0  0
  148.4623  134.9389  153.9602 N   0  0  0  0  0  0  0  0  0  0  0  0
  149.2680  135.0476  155.1861 C   0  0  0  0  0  0  0  0  0  0  0  0
  150.1202  136.3480  155.1568 C   0  0  0  0  0  0  0  0  0  0  0  0
  151.2457  136.2253  154.3094 O   0  0  0  0  0  0  0  0  0  0  0  0
  148.2765  135.0350  156.3761 C   0  0  0  0  0  0  0  0  0  0  0  0
  148.9709  134.8210  157.7319 C   0  0  0  0  0  0  0  0  0  0  0  0
  149.7172  133.6123  157.7076 O   0  0  0  0  0  0  0  0  0  0  0  0
  150.7587  133.6344  156.7413 C   0  0  0  0  0  0  0  0  0  0  0  0
  150.1713  133.7939  155.3273 C   0  0  0  0  0  0  0  0  0  0  0  0
  147.4092  135.0319  151.9205 H   0  0  0  0  0  0  0  0  0  0  0  0
  146.8361  131.6658  152.5579 H   0  0  0  0  0  0  0  0  0  0  0  0
  145.1571  130.2140  151.4196 H   0  0  0  0  0  0  0  0  0  0  0  0
  143.4162  131.2853  149.9599 H   0  0  0  0  0  0  0  0  0  0  0  0
  143.4437  133.7819  149.7127 H   0  0  0  0  0  0  0  0  0  0  0  0
  148.6604  135.6341  153.2558 H   0  0  0  0  0  0  0  0  0  0  0  0
  149.5329  137.1946  154.8036 H   0  0  0  0  0  0  0  0  0  0  0  0
  150.4658  136.6200  156.1540 H   0  0  0  0  0  0  0  0  0  0  0  0
  150.9419  136.1416  153.4186 H   0  0  0  0  0  0  0  0  0  0  0  0
  147.6836  135.9497  156.4031 H   0  0  0  0  0  0  0  0  0  0  0  0
  147.5595  134.2236  156.2391 H   0  0  0  0  0  0  0  0  0  0  0  0
  149.6178  135.6615  157.9860 H   0  0  0  0  0  0  0  0  0  0  0  0
  148.2244  134.7513  158.5231 H   0  0  0  0  0  0  0  0  0  0  0  0
  151.4666  134.4318  156.9697 H   0  0  0  0  0  0  0  0  0  0  0  0
  151.3138  132.6986  156.8073 H   0  0  0  0  0  0  0  0  0  0  0  0
  149.5883  132.8993  155.1026 H   0  0  0  0  0  0  0  0  0  0  0  0
  150.9850  133.8147  154.6023 H   0  0  0  0  0  0  0  0  0  0  0  0
  1  2  2  0  0  0  0
  2  3  1  0  0  0  0
  2 10  1  0  0  0  0
  3  4  1  0  0  0  0
  3 19  1  0  0  0  0
  4  9  1  0  0  0  0
  4  5  2  0  0  0  0
  5  6  1  0  0  0  0
  5 20  1  0  0  0  0
  6  7  2  0  0  0  0
  6 21  1  0  0  0  0
  7  8  1  0  0  0  0
  7 22  1  0  0  0  0
  8  9  2  0  0  0  0
  8 23  1  0  0  0  0
 10 11  1  0  0  0  0
 10 24  1  0  0  0  0
 11 18  1  0  0  0  0
 11 12  1  0  0  0  0
 11 14  1  0  0  0  0
 12 13  1  0  0  0  0
 12 25  1  0  0  0  0
 12 26  1  0  0  0  0
 13 27  1  0  0  0  0
 14 15  1  0  0  0  0
 14 28  1  0  0  0  0
 14 29  1  0  0  0  0
 15 16  1  0  0  0  0
 15 30  1  0  0  0  0
 15 31  1  0  0  0  0
 16 17  1  0  0  0  0
 17 18  1  0  0  0  0
 17 32  1  0  0  0  0
 17 33  1  0  0  0  0
 18 34  1  0  0  0  0
 18 35  1  0  0  0  0
M  END
> <s_m_source_file>
AV-unprocessed.smi

> <i_m_source_file_index>
1054

> <i_lp_mmshare_version>
43012

> <i_f3d_flags>
0

> <s_epik_input>
W0NIMl0xW0NIMl1PW0NIMl1bQ0gyXUMxKFtDSDJdW09IXSlbTkhdQyg9TylbTkhdYzJbY0hdW2NIXVtjSF1bY0hdbjI=

> <s_epik_cmdline>
J2VwaWtfcHl0aG9uJywgJy1waCcsICc3LjAnLCAnLXRuJywgJzgnLCAnLW1hJywgJzIwMCcsICctbWV0YWxfYmluZGluZycsICctaW1hZScsICc8aW5maWxlLm1hZT4nLCAnLW9tYWUnLCAnPG91dGZpbGUubWFlPic=

> <r_lp_tautomer_probability>
1

> <r_epik_Ionization_Penalty>
4.33411e-05

> <r_epik_Ionization_Penalty_Charging>
0

> <r_epik_Ionization_Penalty_Neutral>
4.33411e-05

> <r_epik_State_Penalty>
-0

> <r_epik_Charging_Adjusted_Penalty>
0

> <i_epik_Tot_Q>
0

> <i_epik_Tot_abs_Q>
0

> <r_epik_Metal_State_Penalty>
-0

> <b_epik_Metal_Only>
0

> <s_lp_Force_Field>
OPLS_2005

> <r_lp_Energy>
17.545

> <b_lp_Chiralities_Consistent>
1

> <s_lp_Variant>
AV-unprocessed.smi:1054-1

> <Gold.Version>
5.8.1

> <Gold.Id.Protein>
6NUR|6NUR_protein|mol2

> <Gold.PLP.Fitness>
42.3060

> <Gold.PLP.PLP>
-26.3358

> <Gold.PLP.part.hbond>
-5.0034

> <Gold.PLP.part.metal>
0.0000

> <Gold.PLP.part.buried>
-3.6723

> <Gold.PLP.part.nonpolar>
-18.4826

> <Gold.PLP.part.repulsive>
0.1979

> <Gold.PLP.ligand.clash>
0.0000

> <Gold.PLP.ligand.torsion>
0.5187

> <Gold.PLP.Chemscore.Hbond>
4.6980

> <Gold.PLP.Chemscore.CHOScore>
0.9679

> <Gold.PLP.Chemscore.Metal>
0.0000

> <Gold.Chemscore.Hbonds>
donor molecule, donor type, donor heavy atom, donor atom, acceptor molecule, acceptor atom, score
      L1  H     3    19       P1  7948  0.86
      L1  H    10    24       P1  7948  0.99
      L1  H    13    27       P1  7949  0.85
      P1  H  6896  6907       L1    16  0.90
      P1  H 10752 10764       L1    13  1.00
      L1  C     8    23       P1 10186  1.00

> <Gold.PLP.Chemscore.Internal.Correction>
0.0100

> <Gold.Rescore>
     Score         DG    S(hbond)    S(metal)    S(lipo)     H(rot)  DE(clash)    DE(int)     intcor
     14.49     -16.88       2.75        0.00      60.15       1.88       0.04       2.36       ----

> <Gold.Chemscore.Fitness>
14.4857

> <Gold.Chemscore.DG>
-16.8823

> <Gold.Chemscore.ZeroCoef>
-5.4800

> <Gold.Chemscore.Hbond>
2.7453

> <Gold.Chemscore.Metal>
0.0000

> <Gold.Chemscore.Lipo>
60.1507

> <Gold.Chemscore.Internal_Hbond>
0.0000

> <Gold.Chemscore.DEClash>
0.0377

> <Gold.Chemscore.DEInternal>
2.3589

> <Gold.Chemscore.Rot>
1.8769

> <Gold.Chemscore.Internal.Correction>
   9.000000E+99

> <Gold.Chemscore.Hbonds>
donor molecule, donor type, donor heavy atom, donor atom, acceptor molecule, acceptor atom, score
      L1  H     3    19       P1  7948  0.78
      L1  H    10    24       P1  7948  0.90
      L1  H    13    27       P1  7949  0.14
      P1  H  6896  6907       L1    16  0.06
      P1  H 10752 10764       L1    13  0.45

> <Gold.Chemscore.Hbond.Weighted>
-9.1695

> <Gold.Chemscore.Metal.Weighted>
-0.0000

> <Gold.Chemscore.Lipo.Weighted>
-7.0376

> <Gold.Chemscore.Internal_Hbond.Weighted>
0.0000

> <Gold.Chemscore.DEClash.Weighted>
0.0377

> <Gold.Chemscore.DEInternal.Weighted>
2.3589

> <Gold.Chemscore.Rot.Weighted>
4.8048

> <Gold.Chemscore.Internal.Correction.Weighted>
   9.000000E+99

> <Gold.Protein.RotatedTorsions>
[ 6907 6896 6895 6894 ] final -119.72 input  -60.11 | X-H torsion
[ 7974 7965 7964 7962 ] final -176.80 input  175.53 | X-H torsion
[ 8008 7997 7996 7995 ] final   24.51 input   59.86 | X-H torsion
[ 10167 10162 10161 10158 ] final  -70.11 input  -65.29 | X-H torsion
[ 10718 10713 10712 10709 ] final -127.20 input   66.30 | X-H torsion
[ 10763 10752 10751 10750 ] final  -80.19 input  -60.55 | X-H torsion
[ 11005 11000 10999 10996 ] final   -3.49 input  -57.11 | X-H torsion

> <Gold.Protein.ActiveResidues>
 VAL166  LYS551  ARG553  GLY616  TRP617  ASP618  TYR619  PRO620  LYS621  CYS622 
 ASP623  PHE694  ASN695  SER759  ASP760  ASP761  ALA762  ILE779  LEU786  VAL792 
 PHE793  MET794  SER795  GLU796  ALA797  LYS798  CYS799  TRP800  GLU811  SER814 

> <Gold.Protein.RotatedAtoms>
  150.8330  133.8060  159.3090 H   0  0  0  0  0  0  0  0  0  0  0  0  # atno 6907 bound_to 6896
  151.5784  135.1058  160.0021 H   0  0  0  0  0  0  0  0  0  0  0  0  # atno 6908 bound_to 6896
  152.4407  133.7400  159.6692 H   0  0  0  0  0  0  0  0  0  0  0  0  # atno 6909 bound_to 6896
  144.7127  140.1115  143.6411 H   0  0  0  0  0  0  0  0  0  0  0  0  # atno 7974 bound_to 7965
  154.9974  140.3121  155.4881 H   0  0  0  0  0  0  0  0  0  0  0  0  # atno 8008 bound_to 7997
  156.2930  140.2238  156.5023 H   0  0  0  0  0  0  0  0  0  0  0  0  # atno 8009 bound_to 7997
  154.7649  140.0456  157.0992 H   0  0  0  0  0  0  0  0  0  0  0  0  # atno 8010 bound_to 7997
  140.5378  143.2317  151.7145 H   0  0  0  0  0  0  0  0  0  0  0  0  # atno 10167 bound_to 10162
  156.1835  130.6748  151.0335 H   0  0  0  0  0  0  0  0  0  0  0  0  # atno 10718 bound_to 10713
  154.5481  135.5669  153.6898 H   0  0  0  0  0  0  0  0  0  0  0  0  # atno 10763 bound_to 10752
  152.9982  135.6244  154.2411 H   0  0  0  0  0  0  0  0  0  0  0  0  # atno 10764 bound_to 10752
  154.2344  135.2864  155.2857 H   0  0  0  0  0  0  0  0  0  0  0  0  # atno 10765 bound_to 10752
  140.6699  133.9245  155.8488 H   0  0  0  0  0  0  0  0  0  0  0  0  # atno 11005 bound_to 11000
  145.9451  139.2695  143.1246 LP  0  0  0  0  0  0  0  0  0  0  0  0  # atno 17320 bound_to 7965
  145.9383  140.8998  143.0321 LP  0  0  0  0  0  0  0  0  0  0  0  0  # atno 17321 bound_to 7965
  139.4977  144.4015  152.0176 LP  0  0  0  0  0  0  0  0  0  0  0  0  # atno 17342 bound_to 10162
  140.3122  144.3525  150.6031 LP  0  0  0  0  0  0  0  0  0  0  0  0  # atno 17343 bound_to 10162
  157.6884  131.0818  150.7178 LP  0  0  0  0  0  0  0  0  0  0  0  0  # atno 17370 bound_to 10713
  156.7235  130.4688  149.5517 LP  0  0  0  0  0  0  0  0  0  0  0  0  # atno 17371 bound_to 10713
  141.0400  134.0635  157.3913 LP  0  0  0  0  0  0  0  0  0  0  0  0  # atno 17394 bound_to 11000
  139.8985  135.0155  156.7151 LP  0  0  0  0  0  0  0  0  0  0  0  0  # atno 17395 bound_to 11000

$$$$
