AV-unprocessed.smi:1542|AV-procd|sdf|6204|dock3
  -GOLD-   22720 6373D 1   1.00000     0.00000
 Structure written by MMmdl.
 46 48  0  0  0  0  0  0  0  0  2 V2000
  148.9676  138.9890  153.6382 O   0  0  0  0  0  0  0  0  0  0  0  0
  150.2311  138.8672  154.2562 C   0  0  0  0  0  0  0  0  0  0  0  0
  150.6117  140.1775  154.9602 C   0  0  0  0  0  0  0  0  0  0  0  0
  149.7912  140.4349  156.2367 C   0  0  0  0  0  0  0  0  0  0  0  0
  150.3997  141.4732  157.1289 C   0  0  0  0  0  0  0  0  0  0  0  0
  150.4529  142.8163  156.8941 N   0  3  0  0  0  0  0  0  0  0  0  0
  151.1434  143.4530  157.9254 C   0  0  0  0  0  0  0  0  0  0  0  0
  151.4457  144.7962  158.1262 C   0  0  0  0  0  0  0  0  0  0  0  0
  152.1842  145.1121  159.2855 C   0  0  0  0  0  0  0  0  0  0  0  0
  152.5944  144.1113  160.1899 C   0  0  0  0  0  0  0  0  0  0  0  0
  152.2804  142.7529  159.9759 C   0  0  0  0  0  0  0  0  0  0  0  0
  151.5451  142.4497  158.8300 C   0  0  0  0  0  0  0  0  0  0  0  0
  151.0652  141.2463  158.2989 N   0  0  0  0  0  0  0  0  0  0  0  0
  151.3283  139.9861  159.0153 C   0  0  0  0  0  0  0  0  0  0  0  0
  152.7442  139.3726  158.7845 C   0  0  0  0  0  0  0  0  0  0  0  0
  152.9988  139.4933  157.3965 O   0  0  0  0  0  0  0  0  0  0  0  0
  153.8149  140.1994  159.5380 C   0  0  0  0  0  0  0  0  0  0  0  0
  155.2406  139.6391  159.3836 C   0  0  0  0  0  0  0  0  0  0  0  0
  155.3104  138.1609  159.7891 C   0  0  0  0  0  0  0  0  0  0  0  0
  154.3049  137.3262  158.9851 C   0  0  0  0  0  0  0  0  0  0  0  0
  152.8742  137.8680  159.1515 C   0  0  0  0  0  0  0  0  0  0  0  0
  149.0965  139.1061  152.7090 H   0  0  0  0  0  0  0  0  0  0  0  0
  150.1853  138.0524  154.9793 H   0  0  0  0  0  0  0  0  0  0  0  0
  150.9777  138.5949  153.5094 H   0  0  0  0  0  0  0  0  0  0  0  0
  151.6783  140.1695  155.1892 H   0  0  0  0  0  0  0  0  0  0  0  0
  150.4521  141.0030  154.2654 H   0  0  0  0  0  0  0  0  0  0  0  0
  148.7846  140.7495  155.9616 H   0  0  0  0  0  0  0  0  0  0  0  0
  149.6862  139.5127  156.8087 H   0  0  0  0  0  0  0  0  0  0  0  0
  151.1366  145.5637  157.4322 H   0  0  0  0  0  0  0  0  0  0  0  0
  152.4441  146.1422  159.4828 H   0  0  0  0  0  0  0  0  0  0  0  0
  153.1632  144.3903  161.0652 H   0  0  0  0  0  0  0  0  0  0  0  0
  152.6062  141.9941  160.6721 H   0  0  0  0  0  0  0  0  0  0  0  0
  151.1328  140.1581  160.0746 H   0  0  0  0  0  0  0  0  0  0  0  0
  150.5513  139.2810  158.7189 H   0  0  0  0  0  0  0  0  0  0  0  0
  152.3195  139.0329  156.9276 H   0  0  0  0  0  0  0  0  0  0  0  0
  153.7962  141.2373  159.2021 H   0  0  0  0  0  0  0  0  0  0  0  0
  153.5656  140.2221  160.5994 H   0  0  0  0  0  0  0  0  0  0  0  0
  155.5734  139.7512  158.3512 H   0  0  0  0  0  0  0  0  0  0  0  0
  155.9330  140.2219  159.9916 H   0  0  0  0  0  0  0  0  0  0  0  0
  156.3201  137.7794  159.6336 H   0  0  0  0  0  0  0  0  0  0  0  0
  155.1013  138.0621  160.8551 H   0  0  0  0  0  0  0  0  0  0  0  0
  154.5852  137.3263  157.9313 H   0  0  0  0  0  0  0  0  0  0  0  0
  154.3447  136.2865  159.3107 H   0  0  0  0  0  0  0  0  0  0  0  0
  152.5858  137.7154  160.1919 H   0  0  0  0  0  0  0  0  0  0  0  0
  152.1895  137.2680  158.5511 H   0  0  0  0  0  0  0  0  0  0  0  0
  150.0467  143.2620  156.0814 H   0  0  0  0  0  0  0  0  0  0  0  0
  1  2  1  0  0  0  0
  1 22  1  0  0  0  0
  2  3  1  0  0  0  0
  2 23  1  0  0  0  0
  2 24  1  0  0  0  0
  3  4  1  0  0  0  0
  3 25  1  0  0  0  0
  3 26  1  0  0  0  0
  4  5  1  0  0  0  0
  4 27  1  0  0  0  0
  4 28  1  0  0  0  0
  5 13  1  0  0  0  0
  5  6  2  0  0  0  0
  6  7  1  0  0  0  0
  6 46  1  0  0  0  0
  7 12  2  0  0  0  0
  7  8  1  0  0  0  0
  8  9  2  0  0  0  0
  8 29  1  0  0  0  0
  9 10  1  0  0  0  0
  9 30  1  0  0  0  0
 10 11  2  0  0  0  0
 10 31  1  0  0  0  0
 11 12  1  0  0  0  0
 11 32  1  0  0  0  0
 12 13  1  0  0  0  0
 13 14  1  0  0  0  0
 14 15  1  0  0  0  0
 14 33  1  0  0  0  0
 14 34  1  0  0  0  0
 15 21  1  0  0  0  0
 15 16  1  0  0  0  0
 15 17  1  0  0  0  0
 16 35  1  0  0  0  0
 17 18  1  0  0  0  0
 17 36  1  0  0  0  0
 17 37  1  0  0  0  0
 18 19  1  0  0  0  0
 18 38  1  0  0  0  0
 18 39  1  0  0  0  0
 19 20  1  0  0  0  0
 19 40  1  0  0  0  0
 19 41  1  0  0  0  0
 20 21  1  0  0  0  0
 20 42  1  0  0  0  0
 20 43  1  0  0  0  0
 21 44  1  0  0  0  0
 21 45  1  0  0  0  0
M  CHG  1   6   1
M  END
> <s_m_source_file>
AV-unprocessed.smi

> <i_m_source_file_index>
1542

> <i_lp_mmshare_version>
43012

> <i_f3d_flags>
0

> <s_epik_input>
W09IXVtDSDJdW0NIMl1bQ0gyXWMobjEpbihjKGMxMilbY0hdW2NIXVtjSF1bY0hdMilbQ0gyXUMzKFtPSF0pW0NIMl1bQ0gyXVtDSDJdW0NIMl1bQ0gyXTM=

> <s_epik_cmdline>
J2VwaWtfcHl0aG9uJywgJy1waCcsICc3LjAnLCAnLXRuJywgJzgnLCAnLW1hJywgJzIwMCcsICctbWV0YWxfYmluZGluZycsICctaW1hZScsICc8aW5maWxlLm1hZT4nLCAnLW9tYWUnLCAnPG91dGZpbGUubWFlPic=

> <r_epik_Ionization_Penalty>
0.555973

> <r_epik_Ionization_Penalty_Charging>
0.555973

> <r_epik_Ionization_Penalty_Neutral>
2.09159e-07

> <r_epik_State_Penalty>
0.566728

> <r_epik_Charging_Adjusted_Penalty>
1.1227

> <i_epik_Tot_Q>
1

> <i_epik_Tot_abs_Q>
1

> <r_epik_Metal_State_Penalty>
4.37256

> <b_epik_Metal_Only>
0

> <s_lp_Force_Field>
OPLS_2005

> <r_lp_Energy>
23.0728

> <b_lp_Chiralities_Consistent>
1

> <s_lp_Variant>
AV-unprocessed.smi:1542-2

> <Gold.Version>
5.8.1

> <Gold.Id.Protein>
6NUR|6NUR_protein|mol2

> <Gold.PLP.Fitness>
50.9939

> <Gold.PLP.PLP>
-42.1494

> <Gold.PLP.part.hbond>
-3.5985

> <Gold.PLP.part.metal>
0.0000

> <Gold.PLP.part.buried>
-4.2306

> <Gold.PLP.part.nonpolar>
-34.4375

> <Gold.PLP.part.repulsive>
0.0368

> <Gold.PLP.ligand.clash>
0.0000

> <Gold.PLP.ligand.torsion>
0.7479

> <Gold.PLP.Chemscore.Hbond>
3.3440

> <Gold.PLP.Chemscore.CHOScore>
0.0000

> <Gold.PLP.Chemscore.Metal>
0.0000

> <Gold.Chemscore.Hbonds>
donor molecule, donor type, donor heavy atom, donor atom, acceptor molecule, acceptor atom, score
      L1  H     1    22       P1  7957  1.00
      L1  H     6    46       P1  8028  1.57
      P1  H  7997  8010       L1    16  0.90

> <Gold.PLP.Chemscore.Internal.Correction>
0.3084

> <Gold.Rescore>
     Score         DG    S(hbond)    S(metal)    S(lipo)     H(rot)  DE(clash)    DE(int)     intcor
     19.53     -22.46       2.81        0.00     126.39       2.82       1.44       1.49       ----

> <Gold.Chemscore.Fitness>
19.5280

> <Gold.Chemscore.DG>
-22.4554

> <Gold.Chemscore.ZeroCoef>
-5.4800

> <Gold.Chemscore.Hbond>
2.8147

> <Gold.Chemscore.Metal>
0.0000

> <Gold.Chemscore.Lipo>
126.3868

> <Gold.Chemscore.Internal_Hbond>
0.0000

> <Gold.Chemscore.DEClash>
1.4354

> <Gold.Chemscore.DEInternal>
1.4920

> <Gold.Chemscore.Rot>
2.8175

> <Gold.Chemscore.Internal.Correction>
   9.000000E+99

> <Gold.Chemscore.Hbonds>
donor molecule, donor type, donor heavy atom, donor atom, acceptor molecule, acceptor atom, score
      L1  H     1    22       P1  7957  0.98
      L1  H     6    46       P1  8028  0.77
      P1  H  7997  8010       L1    16  0.72

> <Gold.Chemscore.Hbond.Weighted>
-9.4010

> <Gold.Chemscore.Metal.Weighted>
-0.0000

> <Gold.Chemscore.Lipo.Weighted>
-14.7873

> <Gold.Chemscore.Internal_Hbond.Weighted>
0.0000

> <Gold.Chemscore.DEClash.Weighted>
1.4354

> <Gold.Chemscore.DEInternal.Weighted>
1.4920

> <Gold.Chemscore.Rot.Weighted>
7.2128

> <Gold.Chemscore.Internal.Correction.Weighted>
   9.000000E+99

> <Gold.Protein.RotatedTorsions>
[ 6907 6896 6895 6894 ] final  123.97 input  -60.11 | X-H torsion
[ 7974 7965 7964 7962 ] final -151.94 input  175.53 | X-H torsion
[ 8008 7997 7996 7995 ] final   27.40 input   59.86 | X-H torsion
[ 10167 10162 10161 10158 ] final -129.72 input  -65.29 | X-H torsion
[ 10718 10713 10712 10709 ] final  -65.12 input   66.30 | X-H torsion
[ 10763 10752 10751 10750 ] final  122.74 input  -60.55 | X-H torsion
[ 11005 11000 10999 10996 ] final  -30.80 input  -57.11 | X-H torsion

> <Gold.Protein.ActiveResidues>
 VAL166  LYS551  ARG553  GLY616  TRP617  ASP618  TYR619  PRO620  LYS621  CYS622 
 ASP623  PHE694  ASN695  SER759  ASP760  ASP761  ALA762  ILE779  LEU786  VAL792 
 PHE793  MET794  SER795  GLU796  ALA797  LYS798  CYS799  TRP800  GLU811  SER814 

> <Gold.Protein.RotatedAtoms>
  152.4117  133.6974  159.6403 H   0  0  0  0  0  0  0  0  0  0  0  0  # atno 6907 bound_to 6896
  150.7997  133.8612  159.3241 H   0  0  0  0  0  0  0  0  0  0  0  0  # atno 6908 bound_to 6896
  151.6352  135.1020  160.0181 H   0  0  0  0  0  0  0  0  0  0  0  0  # atno 6909 bound_to 6896
  144.7822  140.4729  143.5831 H   0  0  0  0  0  0  0  0  0  0  0  0  # atno 7974 bound_to 7965
  155.0423  140.3170  155.4720 H   0  0  0  0  0  0  0  0  0  0  0  0  # atno 8008 bound_to 7997
  156.2852  140.2161  156.5491 H   0  0  0  0  0  0  0  0  0  0  0  0  # atno 8009 bound_to 7997
  154.7279  140.0484  157.0687 H   0  0  0  0  0  0  0  0  0  0  0  0  # atno 8010 bound_to 7997
  139.9369  143.6208  152.2514 H   0  0  0  0  0  0  0  0  0  0  0  0  # atno 10167 bound_to 10162
  156.0688  130.4243  150.1518 H   0  0  0  0  0  0  0  0  0  0  0  0  # atno 10718 bound_to 10713
  153.6345  135.3390  155.3052 H   0  0  0  0  0  0  0  0  0  0  0  0  # atno 10763 bound_to 10752
  154.8573  135.4303  154.2070 H   0  0  0  0  0  0  0  0  0  0  0  0  # atno 10764 bound_to 10752
  153.2974  135.7022  153.7309 H   0  0  0  0  0  0  0  0  0  0  0  0  # atno 10765 bound_to 10752
  140.9414  133.7276  156.1081 H   0  0  0  0  0  0  0  0  0  0  0  0  # atno 11005 bound_to 11000
  145.6020  139.1504  143.3124 LP  0  0  0  0  0  0  0  0  0  0  0  0  # atno 17320 bound_to 7965
  146.2035  140.6141  142.9091 LP  0  0  0  0  0  0  0  0  0  0  0  0  # atno 17321 bound_to 7965
  139.6736  144.7660  151.1736 LP  0  0  0  0  0  0  0  0  0  0  0  0  # atno 17342 bound_to 10162
  140.7622  143.5827  150.8877 LP  0  0  0  0  0  0  0  0  0  0  0  0  # atno 17343 bound_to 10162
  156.9573  130.9793  151.3486 LP  0  0  0  0  0  0  0  0  0  0  0  0  # atno 17370 bound_to 10713
  157.5747  130.8334  149.8439 LP  0  0  0  0  0  0  0  0  0  0  0  0  # atno 17371 bound_to 10713
  140.7729  134.3812  157.5504 LP  0  0  0  0  0  0  0  0  0  0  0  0  # atno 17394 bound_to 11000
  139.8821  134.9033  156.2852 LP  0  0  0  0  0  0  0  0  0  0  0  0  # atno 17395 bound_to 11000

$$$$
