AV-unprocessed.smi:790|AV-procd|sdf|3740|dock2
  -GOLD-   22720 1173D 1   1.00000     0.00000
 Structure written by MMmdl.
 38 40  0  0  0  0  0  0  0  0  1 V2000
  150.9604  140.7376  156.0850 O   0  0  0  0  0  0  0  0  0  0  0  0
  150.2991  141.7729  156.1611 C   0  0  0  0  0  0  0  0  0  0  0  0
  150.4760  142.7447  157.0724 N   0  0  0  0  0  0  0  0  0  0  0  0
  151.4145  142.7949  158.1378 C   0  0  0  0  0  0  0  0  0  0  0  0
  151.8895  143.9933  158.7234 C   0  0  0  0  0  0  0  0  0  0  0  0
  152.8345  143.9122  159.7644 C   0  0  0  0  0  0  0  0  0  0  0  0
  153.2750  142.6391  160.1758 C   0  0  0  0  0  0  0  0  0  0  0  0
  152.8423  141.4899  159.6159 N   0  0  0  0  0  0  0  0  0  0  0  0
  151.9374  141.5755  158.6177 C   0  0  0  0  0  0  0  0  0  0  0  0
  149.3110  142.0824  155.3112 N   0  0  0  0  0  0  0  0  0  0  0  0
  148.8884  141.2549  154.1835 C   0  0  2  0  0  0  0  0  0  0  0  0
  147.5441  141.7080  153.5599 C   0  0  2  0  0  0  0  0  0  0  0  0
  146.4458  141.8667  154.6334 C   0  0  0  0  0  0  0  0  0  0  0  0
  146.1748  140.4103  155.0548 C   0  0  0  0  0  0  0  0  0  0  0  0
  147.1268  139.6093  154.1452 C   0  0  1  0  0  0  0  0  0  0  0  0
  147.0857  140.4333  152.8632 C   0  0  0  0  0  0  0  0  0  0  0  0
  148.5838  139.8023  154.6313 C   0  0  1  0  0  0  0  0  0  0  0  0
  149.5747  138.7801  154.0412 C   0  0  0  0  0  0  0  0  0  0  0  0
  149.1422  137.4640  154.3135 O   0  0  0  0  0  0  0  0  0  0  0  0
  149.9130  143.5740  156.9523 H   0  0  0  0  0  0  0  0  0  0  0  0
  151.5616  144.9650  158.3882 H   0  0  0  0  0  0  0  0  0  0  0  0
  153.2161  144.8066  160.2342 H   0  0  0  0  0  0  0  0  0  0  0  0
  153.9989  142.5417  160.9713 H   0  0  0  0  0  0  0  0  0  0  0  0
  151.6159  140.6361  158.1918 H   0  0  0  0  0  0  0  0  0  0  0  0
  148.8228  142.9562  155.4429 H   0  0  0  0  0  0  0  0  0  0  0  0
  149.6644  141.2562  153.4147 H   0  0  0  0  0  0  0  0  0  0  0  0
  147.6387  142.5752  152.9058 H   0  0  0  0  0  0  0  0  0  0  0  0
  146.7392  142.5004  155.4702 H   0  0  0  0  0  0  0  0  0  0  0  0
  145.5482  142.3056  154.1959 H   0  0  0  0  0  0  0  0  0  0  0  0
  146.3696  140.2388  156.1140 H   0  0  0  0  0  0  0  0  0  0  0  0
  145.1352  140.1443  154.8603 H   0  0  0  0  0  0  0  0  0  0  0  0
  146.8312  138.5662  154.0298 H   0  0  0  0  0  0  0  0  0  0  0  0
  146.0865  140.5099  152.4306 H   0  0  0  0  0  0  0  0  0  0  0  0
  147.7772  140.0864  152.0941 H   0  0  0  0  0  0  0  0  0  0  0  0
  148.6220  139.7175  155.7192 H   0  0  0  0  0  0  0  0  0  0  0  0
  149.6890  138.9071  152.9647 H   0  0  0  0  0  0  0  0  0  0  0  0
  150.5610  138.9137  154.4867 H   0  0  0  0  0  0  0  0  0  0  0  0
  149.1195  136.9809  153.5017 H   0  0  0  0  0  0  0  0  0  0  0  0
  1  2  2  0  0  0  0
  2  3  1  0  0  0  0
  2 10  1  0  0  0  0
  3  4  1  0  0  0  0
  3 20  1  0  0  0  0
  4  9  1  0  0  0  0
  4  5  2  0  0  0  0
  5  6  1  0  0  0  0
  5 21  1  0  0  0  0
  6  7  2  0  0  0  0
  6 22  1  0  0  0  0
  7  8  1  0  0  0  0
  7 23  1  0  0  0  0
  8  9  2  0  0  0  0
  9 24  1  0  0  0  0
 10 11  1  0  0  0  0
 10 25  1  0  0  0  0
 11 17  1  0  0  0  0
 11 12  1  0  0  0  0
 11 26  1  0  0  0  0
 12 16  1  0  0  0  0
 12 13  1  0  0  0  0
 12 27  1  0  0  0  0
 13 14  1  0  0  0  0
 13 28  1  0  0  0  0
 13 29  1  0  0  0  0
 14 15  1  0  0  0  0
 14 30  1  0  0  0  0
 14 31  1  0  0  0  0
 15 16  1  0  0  0  0
 15 17  1  0  0  0  0
 15 32  1  0  0  0  0
 16 33  1  0  0  0  0
 16 34  1  0  0  0  0
 17 18  1  0  0  0  0
 17 35  1  0  0  0  0
 18 19  1  0  0  0  0
 18 36  1  0  0  0  0
 18 37  1  0  0  0  0
 19 38  1  0  0  0  0
M  END
> <s_m_source_file>
AV-unprocessed.smi

> <i_m_source_file_index>
790

> <i_lp_mmshare_version>
43012

> <i_f3d_flags>
0

> <s_epik_input>
W0NIMl0xW0NIMl1bQ0BASF0oW0NIMl0yKVtDQEBIXShbQ0gyXVtPSF0pW0NAQEhdKFtDQEhdMTIpW05IXUMoPU8pW05IXWMzW2NIXVtjSF1bY0hdbltjSF0z

> <s_epik_cmdline>
J2VwaWtfcHl0aG9uJywgJy1waCcsICc3LjAnLCAnLXRuJywgJzgnLCAnLW1hJywgJzIwMCcsICctbWV0YWxfYmluZGluZycsICctaW1hZScsICc8aW5maWxlLm1hZT4nLCAnLW9tYWUnLCAnPG91dGZpbGUubWFlPic=

> <r_epik_Ionization_Penalty>
0.00497582

> <r_epik_Ionization_Penalty_Charging>
0

> <r_epik_Ionization_Penalty_Neutral>
0.00497582

> <r_epik_State_Penalty>
0.00358602

> <r_epik_Charging_Adjusted_Penalty>
0.00358602

> <i_epik_Tot_Q>
0

> <i_epik_Tot_abs_Q>
0

> <r_epik_Metal_State_Penalty>
-0

> <b_epik_Metal_Only>
0

> <s_lp_Force_Field>
OPLS_2005

> <r_lp_Energy>
50.978

> <b_lp_Chiralities_Consistent>
1

> <s_lp_Variant>
AV-unprocessed.smi:790-1

> <Gold.Version>
5.8.1

> <Gold.Id.Protein>
6NUR|6NUR_protein|mol2

> <Gold.PLP.Fitness>
47.2297

> <Gold.PLP.PLP>
-38.7629

> <Gold.PLP.part.hbond>
-3.0000

> <Gold.PLP.part.metal>
0.0000

> <Gold.PLP.part.buried>
-4.6497

> <Gold.PLP.part.nonpolar>
-31.2235

> <Gold.PLP.part.repulsive>
0.2179

> <Gold.PLP.ligand.clash>
0.0000

> <Gold.PLP.ligand.torsion>
0.2397

> <Gold.PLP.Chemscore.Hbond>
2.9760

> <Gold.PLP.Chemscore.CHOScore>
0.0000

> <Gold.PLP.Chemscore.Metal>
0.0000

> <Gold.Chemscore.Hbonds>
donor molecule, donor type, donor heavy atom, donor atom, acceptor molecule, acceptor atom, score
      L1  H     3    20       P1  8028  0.94
      L1  H    10    25       P1  8028  0.99
      L1  H    19    38       P1  7948  1.00

> <Gold.PLP.Chemscore.Internal.Correction>
0.0183

> <Gold.Rescore>
     Score         DG    S(hbond)    S(metal)    S(lipo)     H(rot)  DE(clash)    DE(int)     intcor
     19.81     -22.51       2.87        0.00     102.40       1.78       0.05       2.66       ----

> <Gold.Chemscore.Fitness>
19.8064

> <Gold.Chemscore.DG>
-22.5077

> <Gold.Chemscore.ZeroCoef>
-5.4800

> <Gold.Chemscore.Hbond>
2.8741

> <Gold.Chemscore.Metal>
0.0000

> <Gold.Chemscore.Lipo>
102.3987

> <Gold.Chemscore.Internal_Hbond>
0.0000

> <Gold.Chemscore.DEClash>
0.0458

> <Gold.Chemscore.DEInternal>
2.6555

> <Gold.Chemscore.Rot>
1.7783

> <Gold.Chemscore.Internal.Correction>
   9.000000E+99

> <Gold.Chemscore.Hbonds>
donor molecule, donor type, donor heavy atom, donor atom, acceptor molecule, acceptor atom, score
      L1  H     3    20       P1  8028  0.87
      L1  H    10    25       P1  8028  0.94
      L1  H    19    38       P1  7948  1.00

> <Gold.Chemscore.Hbond.Weighted>
-9.5996

> <Gold.Chemscore.Metal.Weighted>
-0.0000

> <Gold.Chemscore.Lipo.Weighted>
-11.9806

> <Gold.Chemscore.Internal_Hbond.Weighted>
0.0000

> <Gold.Chemscore.DEClash.Weighted>
0.0458

> <Gold.Chemscore.DEInternal.Weighted>
2.6555

> <Gold.Chemscore.Rot.Weighted>
4.5525

> <Gold.Chemscore.Internal.Correction.Weighted>
   9.000000E+99

> <Gold.Protein.RotatedTorsions>
[ 6907 6896 6895 6894 ] final  122.37 input  -60.11 | X-H torsion
[ 7974 7965 7964 7962 ] final   47.39 input  175.53 | X-H torsion
[ 8008 7997 7996 7995 ] final -170.48 input   59.86 | X-H torsion
[ 10167 10162 10161 10158 ] final -141.46 input  -65.29 | X-H torsion
[ 10718 10713 10712 10709 ] final  129.43 input   66.30 | X-H torsion
[ 10763 10752 10751 10750 ] final -131.66 input  -60.55 | X-H torsion
[ 11005 11000 10999 10996 ] final   76.53 input  -57.11 | X-H torsion

> <Gold.Protein.ActiveResidues>
 VAL166  LYS551  ARG553  GLY616  TRP617  ASP618  TYR619  PRO620  LYS621  CYS622 
 ASP623  PHE694  ASN695  SER759  ASP760  ASP761  ALA762  ILE779  LEU786  VAL792 
 PHE793  MET794  SER795  GLU796  ALA797  LYS798  CYS799  TRP800  GLU811  SER814 

> <Gold.Protein.RotatedAtoms>
  152.4248  133.7176  159.6514 H   0  0  0  0  0  0  0  0  0  0  0  0  # atno 6907 bound_to 6896
  150.8124  133.8387  159.3182 H   0  0  0  0  0  0  0  0  0  0  0  0  # atno 6908 bound_to 6896
  151.6093  135.1043  160.0129 H   0  0  0  0  0  0  0  0  0  0  0  0  # atno 6909 bound_to 6896
  146.0302  139.4754  142.9842 H   0  0  0  0  0  0  0  0  0  0  0  0  # atno 7974 bound_to 7965
  155.9189  140.1070  157.1222 H   0  0  0  0  0  0  0  0  0  0  0  0  # atno 8008 bound_to 7997
  154.4051  140.1260  156.4718 H   0  0  0  0  0  0  0  0  0  0  0  0  # atno 8009 bound_to 7997
  155.7220  140.3469  155.5022 H   0  0  0  0  0  0  0  0  0  0  0  0  # atno 8010 bound_to 7997
  139.8183  143.7609  152.2665 H   0  0  0  0  0  0  0  0  0  0  0  0  # atno 10167 bound_to 10162
  157.5154  131.1097  150.9231 H   0  0  0  0  0  0  0  0  0  0  0  0  # atno 10718 bound_to 10713
  154.8749  135.3823  154.4282 H   0  0  0  0  0  0  0  0  0  0  0  0  # atno 10763 bound_to 10752
  153.4979  135.7030  153.5853 H   0  0  0  0  0  0  0  0  0  0  0  0  # atno 10764 bound_to 10752
  153.4198  135.3904  155.2070 H   0  0  0  0  0  0  0  0  0  0  0  0  # atno 10765 bound_to 10752
  139.9294  134.7609  156.1408 H   0  0  0  0  0  0  0  0  0  0  0  0  # atno 11005 bound_to 11000
  145.7052  141.0123  143.1482 LP  0  0  0  0  0  0  0  0  0  0  0  0  # atno 17320 bound_to 7965
  144.7027  139.8692  143.7439 LP  0  0  0  0  0  0  0  0  0  0  0  0  # atno 17321 bound_to 7965
  139.7779  144.7454  151.0130 LP  0  0  0  0  0  0  0  0  0  0  0  0  # atno 17342 bound_to 10162
  140.7814  143.4574  151.0327 LP  0  0  0  0  0  0  0  0  0  0  0  0  # atno 17343 bound_to 10162
  156.9858  130.5544  149.5299 LP  0  0  0  0  0  0  0  0  0  0  0  0  # atno 17370 bound_to 10713
  156.0317  130.5408  150.8551 LP  0  0  0  0  0  0  0  0  0  0  0  0  # atno 17371 bound_to 10713
  141.0873  133.6729  156.2464 LP  0  0  0  0  0  0  0  0  0  0  0  0  # atno 17394 bound_to 11000
  140.6244  134.5328  157.5552 LP  0  0  0  0  0  0  0  0  0  0  0  0  # atno 17395 bound_to 11000

$$$$
