AV-unprocessed.smi:3124|AV-procd|sdf|11902|dock6
  -GOLD-   2272017283D 1   1.00000     0.00000
 Structure written by MMmdl.
 24 24  0  0  0  0  0  0  0  0  2 V2000
  145.7316  137.5891  151.9638 C   0  0  0  0  0  0  0  0  0  0  0  0
  145.4682  136.1625  151.6195 C   0  0  0  0  0  0  0  0  0  0  0  0
  144.3024  135.4864  151.3929 C   0  0  0  0  0  0  0  0  0  0  0  0
  144.7179  134.1522  151.1085 C   0  0  0  0  0  0  0  0  0  0  0  0
  143.8555  132.9636  150.7783 C   0  0  0  0  0  0  0  0  0  0  0  0
  144.0438  132.4698  149.3307 C   0  0  2  0  0  0  0  0  0  0  0  0
  145.4948  132.0510  149.0578 C   0  0  0  0  0  0  0  0  0  0  0  0
  143.6207  133.4971  148.3607 N   0  3  0  0  0  0  0  0  0  0  0  0
  146.0347  134.0122  151.1566 N   0  0  0  0  0  0  0  0  0  0  0  0
  146.4805  135.2433  151.4694 N   0  0  0  0  0  0  0  0  0  0  0  0
  147.4663  135.4406  151.5717 H   0  0  0  0  0  0  0  0  0  0  0  0
  144.8200  138.1828  151.8903 H   0  0  0  0  0  0  0  0  0  0  0  0
  146.4697  138.0223  151.2884 H   0  0  0  0  0  0  0  0  0  0  0  0
  146.1105  137.6782  152.9821 H   0  0  0  0  0  0  0  0  0  0  0  0
  143.2997  135.8868  151.4223 H   0  0  0  0  0  0  0  0  0  0  0  0
  142.8078  133.2222  150.9391 H   0  0  0  0  0  0  0  0  0  0  0  0
  144.0686  132.1505  151.4737 H   0  0  0  0  0  0  0  0  0  0  0  0
  143.4078  131.5978  149.1733 H   0  0  0  0  0  0  0  0  0  0  0  0
  145.8093  131.2591  149.7385 H   0  0  0  0  0  0  0  0  0  0  0  0
  146.1820  132.8885  149.1843 H   0  0  0  0  0  0  0  0  0  0  0  0
  145.6118  131.6736  148.0412 H   0  0  0  0  0  0  0  0  0  0  0  0
  144.3769  134.1479  148.2051 H   0  0  0  0  0  0  0  0  0  0  0  0
  142.8199  133.9929  148.7264 H   0  0  0  0  0  0  0  0  0  0  0  0
  143.3718  133.0547  147.4876 H   0  0  0  0  0  0  0  0  0  0  0  0
  1 12  1  0  0  0  0
  1 13  1  0  0  0  0
  1 14  1  0  0  0  0
  1  2  1  0  0  0  0
  2 10  1  0  0  0  0
  2  3  2  0  0  0  0
  3  4  1  0  0  0  0
  3 15  1  0  0  0  0
  4  5  1  0  0  0  0
  4  9  2  0  0  0  0
  5  6  1  0  0  0  0
  5 16  1  0  0  0  0
  5 17  1  0  0  0  0
  6  7  1  0  0  0  0
  6  8  1  0  0  0  0
  6 18  1  0  0  0  0
  7 19  1  0  0  0  0
  7 20  1  0  0  0  0
  7 21  1  0  0  0  0
  8 22  1  0  0  0  0
  8 23  1  0  0  0  0
  8 24  1  0  0  0  0
  9 10  1  0  0  0  0
 10 11  1  0  0  0  0
M  CHG  1   8   1
M  END
> <s_m_source_file>
AV-unprocessed.smi

> <i_m_source_file_index>
3124

> <i_lp_mmshare_version>
43012

> <i_f3d_flags>
0

> <s_epik_input>
W0NIM11jMVtjSF1jKFtuSF1uMSlbQ0gyXVtDQEhdKFtDSDNdKVtOSDJd

> <s_epik_cmdline>
J2VwaWtfcHl0aG9uJywgJy1waCcsICc3LjAnLCAnLXRuJywgJzgnLCAnLW1hJywgJzIwMCcsICctbWV0YWxfYmluZGluZycsICctaW1hZScsICc8aW5maWxlLm1hZT4nLCAnLW9tYWUnLCAnPG91dGZpbGUubWFlPic=

> <r_lp_tautomer_probability>
0.5

> <r_epik_Ionization_Penalty>
0.00151643

> <r_epik_Ionization_Penalty_Charging>
0.00146569

> <r_epik_Ionization_Penalty_Neutral>
5.07401e-05

> <r_epik_State_Penalty>
0.379573

> <r_epik_Charging_Adjusted_Penalty>
0.381038

> <i_epik_Tot_Q>
1

> <i_epik_Tot_abs_Q>
1

> <r_epik_Metal_State_Penalty>
0.378341

> <b_epik_Metal_Only>
0

> <s_lp_Force_Field>
OPLS_2005

> <r_lp_Energy>
2.04404

> <b_lp_Chiralities_Consistent>
1

> <s_lp_Variant>
AV-unprocessed.smi:3124-1

> <Gold.Version>
5.8.1

> <Gold.Id.Protein>
6NUR|6NUR_protein|mol2

> <Gold.PLP.Fitness>
35.5170

> <Gold.PLP.PLP>
-23.6153

> <Gold.PLP.part.hbond>
-3.0000

> <Gold.PLP.part.metal>
0.0000

> <Gold.PLP.part.buried>
-4.2751

> <Gold.PLP.part.nonpolar>
-17.2147

> <Gold.PLP.part.repulsive>
0.4111

> <Gold.PLP.ligand.clash>
0.0000

> <Gold.PLP.ligand.torsion>
0.0506

> <Gold.PLP.Chemscore.Hbond>
4.0000

> <Gold.PLP.Chemscore.CHOScore>
0.0000

> <Gold.PLP.Chemscore.Metal>
0.0000

> <Gold.Chemscore.Hbonds>
donor molecule, donor type, donor heavy atom, donor atom, acceptor molecule, acceptor atom, score
      L1  H     8    22       P1  7921  1.00
      L1  H     8    23       P1 10186  2.00
      L1  H    10    11       P1  7948  1.00

> <Gold.PLP.Chemscore.Internal.Correction>
0.0030

> <Gold.Rescore>
     Score         DG    S(hbond)    S(metal)    S(lipo)     H(rot)  DE(clash)    DE(int)     intcor
     16.83     -18.22       2.92        0.00      54.02       1.30       0.12       1.27       ----

> <Gold.Chemscore.Fitness>
16.8318

> <Gold.Chemscore.DG>
-18.2224

> <Gold.Chemscore.ZeroCoef>
-5.4800

> <Gold.Chemscore.Hbond>
2.9183

> <Gold.Chemscore.Metal>
0.0000

> <Gold.Chemscore.Lipo>
54.0162

> <Gold.Chemscore.Internal_Hbond>
0.0000

> <Gold.Chemscore.DEClash>
0.1214

> <Gold.Chemscore.DEInternal>
1.2692

> <Gold.Chemscore.Rot>
1.2987

> <Gold.Chemscore.Internal.Correction>
   9.000000E+99

> <Gold.Chemscore.Hbonds>
donor molecule, donor type, donor heavy atom, donor atom, acceptor molecule, acceptor atom, score
      L1  H     8    22       P1  7921  0.98
      L1  H     8    23       P1 10186  0.94
      L1  H     8    24       P1 10195  0.01
      L1  H    10    11       P1  7948  0.94

> <Gold.Chemscore.Hbond.Weighted>
-9.7471

> <Gold.Chemscore.Metal.Weighted>
-0.0000

> <Gold.Chemscore.Lipo.Weighted>
-6.3199

> <Gold.Chemscore.Internal_Hbond.Weighted>
0.0000

> <Gold.Chemscore.DEClash.Weighted>
0.1214

> <Gold.Chemscore.DEInternal.Weighted>
1.2692

> <Gold.Chemscore.Rot.Weighted>
3.3246

> <Gold.Chemscore.Internal.Correction.Weighted>
   9.000000E+99

> <Gold.Protein.RotatedTorsions>
[ 6907 6896 6895 6894 ] final    9.21 input  -60.11 | X-H torsion
[ 7974 7965 7964 7962 ] final  167.11 input  175.53 | X-H torsion
[ 8008 7997 7996 7995 ] final  -96.87 input   59.86 | X-H torsion
[ 10167 10162 10161 10158 ] final -158.18 input  -65.29 | X-H torsion
[ 10718 10713 10712 10709 ] final   -5.10 input   66.30 | X-H torsion
[ 10763 10752 10751 10750 ] final   20.52 input  -60.55 | X-H torsion
[ 11005 11000 10999 10996 ] final -152.48 input  -57.11 | X-H torsion

> <Gold.Protein.ActiveResidues>
 VAL166  LYS551  ARG553  GLY616  TRP617  ASP618  TYR619  PRO620  LYS621  CYS622 
 ASP623  PHE694  ASN695  SER759  ASP760  ASP761  ALA762  ILE779  LEU786  VAL792 
 PHE793  MET794  SER795  GLU796  ALA797  LYS798  CYS799  TRP800  GLU811  SER814 

> <Gold.Protein.RotatedAtoms>
  151.7185  135.0899  160.0279 H   0  0  0  0  0  0  0  0  0  0  0  0  # atno 6907 bound_to 6896
  152.3617  133.6300  159.6028 H   0  0  0  0  0  0  0  0  0  0  0  0  # atno 6908 bound_to 6896
  150.7609  133.9330  159.3474 H   0  0  0  0  0  0  0  0  0  0  0  0  # atno 6909 bound_to 6896
  144.7437  139.8712  143.6389 H   0  0  0  0  0  0  0  0  0  0  0  0  # atno 7974 bound_to 7965
  154.7802  140.0468  157.1121 H   0  0  0  0  0  0  0  0  0  0  0  0  # atno 8008 bound_to 7997
  154.9714  140.3090  155.4966 H   0  0  0  0  0  0  0  0  0  0  0  0  # atno 8009 bound_to 7997
  156.2935  140.2252  156.4807 H   0  0  0  0  0  0  0  0  0  0  0  0  # atno 8010 bound_to 7997
  139.6712  143.9741  152.2285 H   0  0  0  0  0  0  0  0  0  0  0  0  # atno 10167 bound_to 10162
  156.7516  130.5241  149.5803 H   0  0  0  0  0  0  0  0  0  0  0  0  # atno 10718 bound_to 10713
  153.1070  135.6687  153.9568 H   0  0  0  0  0  0  0  0  0  0  0  0  # atno 10763 bound_to 10752
  153.9122  135.3024  155.3450 H   0  0  0  0  0  0  0  0  0  0  0  0  # atno 10764 bound_to 10752
  154.7491  135.5043  153.9333 H   0  0  0  0  0  0  0  0  0  0  0  0  # atno 10765 bound_to 10752
  140.7185  134.3754  157.5187 H   0  0  0  0  0  0  0  0  0  0  0  0  # atno 11005 bound_to 11000
  146.1278  139.4308  143.0187 LP  0  0  0  0  0  0  0  0  0  0  0  0  # atno 17320 bound_to 7965
  145.7208  141.0075  143.1403 LP  0  0  0  0  0  0  0  0  0  0  0  0  # atno 17321 bound_to 7965
  139.9506  144.6623  150.8176 LP  0  0  0  0  0  0  0  0  0  0  0  0  # atno 17342 bound_to 10162
  140.7619  143.3185  151.2678 LP  0  0  0  0  0  0  0  0  0  0  0  0  # atno 17343 bound_to 10162
  156.1398  130.6236  151.0451 LP  0  0  0  0  0  0  0  0  0  0  0  0  # atno 17370 bound_to 10713
  157.6775  131.0847  150.7457 LP  0  0  0  0  0  0  0  0  0  0  0  0  # atno 17371 bound_to 10713
  139.8854  134.8938  156.2646 LP  0  0  0  0  0  0  0  0  0  0  0  0  # atno 17394 bound_to 11000
  141.0024  133.7143  156.0981 LP  0  0  0  0  0  0  0  0  0  0  0  0  # atno 17395 bound_to 11000

$$$$
