AV-unprocessed.smi:1530|AV-procd|sdf|6155|dock5
  -GOLD-   22720 6303D 1   1.00000     0.00000
 Structure written by MMmdl.
 42 43  0  0  0  0  0  0  0  0  1 V2000
  151.4682  138.7560  154.2787 C   0  0  0  0  0  0  0  0  0  0  0  0
  150.1939  138.4531  153.7213 O   0  0  0  0  0  0  0  0  0  0  0  0
  149.1738  139.3746  153.8663 C   0  0  0  0  0  0  0  0  0  0  0  0
  149.5014  140.6533  154.1799 N   0  0  0  0  0  0  0  0  0  0  0  0
  148.5095  141.5562  154.3171 C   0  0  0  0  0  0  0  0  0  0  0  0
  147.1505  141.2377  154.1454 C   0  0  0  0  0  0  0  0  0  0  0  0
  146.8075  139.9125  153.8192 C   0  0  0  0  0  0  0  0  0  0  0  0
  147.8370  138.9483  153.6830 C   0  0  0  0  0  0  0  0  0  0  0  0
  147.6186  137.5813  153.3489 N   0  0  0  0  0  0  0  0  0  0  0  0
  146.5027  136.8402  153.4599 C   0  0  0  0  0  0  0  0  0  0  0  0
  145.4186  137.2362  153.8859 O   0  0  0  0  0  0  0  0  0  0  0  0
  146.7192  135.5850  153.0422 N   0  0  0  0  0  0  0  0  0  0  0  0
  145.7220  134.5139  152.9944 C   0  0  0  0  0  0  0  0  0  0  0  0
  145.0756  134.3079  151.5899 C   0  0  0  0  0  0  0  0  0  0  0  0
  144.3796  135.6292  151.1614 C   0  0  0  0  0  0  0  0  0  0  0  0
  144.6780  136.1519  149.9671 N   0  0  0  0  0  0  0  0  0  0  0  0
  143.5805  136.1885  151.9116 O   0  0  0  0  0  0  0  0  0  0  0  0
  146.1642  133.9004  150.5559 C   0  0  0  0  0  0  0  0  0  0  0  0
  146.6723  132.4592  150.7479 C   0  0  0  0  0  0  0  0  0  0  0  0
  145.5843  131.5467  150.7094 O   0  0  0  0  0  0  0  0  0  0  0  0
  144.6465  131.7719  151.7526 C   0  0  0  0  0  0  0  0  0  0  0  0
  144.0188  133.1676  151.5972 C   0  0  0  0  0  0  0  0  0  0  0  0
  152.1545  137.9344  154.0743 H   0  0  0  0  0  0  0  0  0  0  0  0
  151.4124  138.8785  155.3612 H   0  0  0  0  0  0  0  0  0  0  0  0
  151.8926  139.6587  153.8368 H   0  0  0  0  0  0  0  0  0  0  0  0
  148.8081  142.5636  154.5663 H   0  0  0  0  0  0  0  0  0  0  0  0
  146.3878  141.9939  154.2577 H   0  0  0  0  0  0  0  0  0  0  0  0
  145.7662  139.6759  153.6732 H   0  0  0  0  0  0  0  0  0  0  0  0
  148.4362  137.0920  153.0147 H   0  0  0  0  0  0  0  0  0  0  0  0
  147.6433  135.3534  152.7079 H   0  0  0  0  0  0  0  0  0  0  0  0
  146.2270  133.5963  153.2986 H   0  0  0  0  0  0  0  0  0  0  0  0
  144.9598  134.6790  153.7553 H   0  0  0  0  0  0  0  0  0  0  0  0
  144.2425  137.0130  149.6699 H   0  0  0  0  0  0  0  0  0  0  0  0
  145.3437  135.6854  149.3681 H   0  0  0  0  0  0  0  0  0  0  0  0
  145.7638  133.9786  149.5435 H   0  0  0  0  0  0  0  0  0  0  0  0
  147.0137  134.5833  150.6027 H   0  0  0  0  0  0  0  0  0  0  0  0
  147.3662  132.2037  149.9471 H   0  0  0  0  0  0  0  0  0  0  0  0
  147.2246  132.3474  151.6811 H   0  0  0  0  0  0  0  0  0  0  0  0
  143.8705  131.0088  151.6918 H   0  0  0  0  0  0  0  0  0  0  0  0
  145.1254  131.6531  152.7250 H   0  0  0  0  0  0  0  0  0  0  0  0
  143.2782  133.3176  152.3833 H   0  0  0  0  0  0  0  0  0  0  0  0
  143.4594  133.1804  150.6601 H   0  0  0  0  0  0  0  0  0  0  0  0
  1  2  1  0  0  0  0
  1 23  1  0  0  0  0
  1 24  1  0  0  0  0
  1 25  1  0  0  0  0
  2  3  1  0  0  0  0
  3  8  1  0  0  0  0
  3  4  2  0  0  0  0
  4  5  1  0  0  0  0
  5  6  2  0  0  0  0
  5 26  1  0  0  0  0
  6  7  1  0  0  0  0
  6 27  1  0  0  0  0
  7  8  2  0  0  0  0
  7 28  1  0  0  0  0
  8  9  1  0  0  0  0
  9 10  1  0  0  0  0
  9 29  1  0  0  0  0
 10 11  2  0  0  0  0
 10 12  1  0  0  0  0
 12 13  1  0  0  0  0
 12 30  1  0  0  0  0
 13 14  1  0  0  0  0
 13 31  1  0  0  0  0
 13 32  1  0  0  0  0
 14 22  1  0  0  0  0
 14 15  1  0  0  0  0
 14 18  1  0  0  0  0
 15 16  1  0  0  0  0
 15 17  2  0  0  0  0
 16 33  1  0  0  0  0
 16 34  1  0  0  0  0
 18 19  1  0  0  0  0
 18 35  1  0  0  0  0
 18 36  1  0  0  0  0
 19 20  1  0  0  0  0
 19 37  1  0  0  0  0
 19 38  1  0  0  0  0
 20 21  1  0  0  0  0
 21 22  1  0  0  0  0
 21 39  1  0  0  0  0
 21 40  1  0  0  0  0
 22 41  1  0  0  0  0
 22 42  1  0  0  0  0
M  END
> <s_m_source_file>
AV-unprocessed.smi

> <i_m_source_file_index>
1530

> <i_lp_mmshare_version>
43012

> <i_f3d_flags>
0

> <s_epik_input>
W0NIM11PYzFuW2NIXVtjSF1bY0hdYzFbTkhdQyg9TylbTkhdW0NIMl1DMihDKD1PKVtOSDJdKVtDSDJdW0NIMl1PW0NIMl1bQ0gyXTI=

> <s_epik_cmdline>
J2VwaWtfcHl0aG9uJywgJy1waCcsICc3LjAnLCAnLXRuJywgJzgnLCAnLW1hJywgJzIwMCcsICctbWV0YWxfYmluZGluZycsICctaW1hZScsICc8aW5maWxlLm1hZT4nLCAnLW9tYWUnLCAnPG91dGZpbGUubWFlPic=

> <r_lp_tautomer_probability>
1

> <r_epik_Ionization_Penalty>
8.83779e-05

> <r_epik_Ionization_Penalty_Charging>
0

> <r_epik_Ionization_Penalty_Neutral>
8.83779e-05

> <r_epik_State_Penalty>
-0

> <r_epik_Charging_Adjusted_Penalty>
0

> <i_epik_Tot_Q>
0

> <i_epik_Tot_abs_Q>
0

> <r_epik_Metal_State_Penalty>
-0

> <b_epik_Metal_Only>
0

> <s_lp_Force_Field>
OPLS_2005

> <r_lp_Energy>
14.5365

> <b_lp_Chiralities_Consistent>
1

> <s_lp_Variant>
AV-unprocessed.smi:1530-1

> <Gold.Version>
5.8.1

> <Gold.Id.Protein>
6NUR|6NUR_protein|mol2

> <Gold.PLP.Fitness>
44.2233

> <Gold.PLP.PLP>
-30.4577

> <Gold.PLP.part.hbond>
-4.4268

> <Gold.PLP.part.metal>
0.0000

> <Gold.PLP.part.buried>
-0.1419

> <Gold.PLP.part.nonpolar>
-27.1077

> <Gold.PLP.part.repulsive>
2.2899

> <Gold.PLP.ligand.clash>
0.0000

> <Gold.PLP.ligand.torsion>
0.6999

> <Gold.PLP.Chemscore.Hbond>
4.0487

> <Gold.PLP.Chemscore.CHOScore>
1.0000

> <Gold.PLP.Chemscore.Metal>
0.0000

> <Gold.Chemscore.Hbonds>
donor molecule, donor type, donor heavy atom, donor atom, acceptor molecule, acceptor atom, score
      L1  H     9    29       P1  7948  0.84
      L1  H    12    30       P1  7948  0.74
      L1  H    16    33       P1 10171  1.00
      L1  H    16    34       P1  7921  0.86
      P1  H  7989  7998       L1     4  0.31
      L1  C     5    26       P1  8028  1.00

> <Gold.PLP.Chemscore.Internal.Correction>
0.0191

> <Gold.Rescore>
     Score         DG    S(hbond)    S(metal)    S(lipo)     H(rot)  DE(clash)    DE(int)     intcor
     14.00     -20.13       3.73        0.00      67.46       2.23       2.33       3.80       ----

> <Gold.Chemscore.Fitness>
13.9957

> <Gold.Chemscore.DG>
-20.1295

> <Gold.Chemscore.ZeroCoef>
-5.4800

> <Gold.Chemscore.Hbond>
3.7317

> <Gold.Chemscore.Metal>
0.0000

> <Gold.Chemscore.Lipo>
67.4611

> <Gold.Chemscore.Internal_Hbond>
0.0000

> <Gold.Chemscore.DEClash>
2.3319

> <Gold.Chemscore.DEInternal>
3.8019

> <Gold.Chemscore.Rot>
2.2294

> <Gold.Chemscore.Internal.Correction>
   9.000000E+99

> <Gold.Chemscore.Hbonds>
donor molecule, donor type, donor heavy atom, donor atom, acceptor molecule, acceptor atom, score
      L1  H     9    29       P1  7948  0.78
      L1  H    12    30       P1  7948  0.74
      L1  H    16    33       P1 10171  0.97
      L1  H    16    34       P1  7921  0.83
      P1  H  7989  7998       L1     4  0.15

> <Gold.Chemscore.Hbond.Weighted>
-12.4639

> <Gold.Chemscore.Metal.Weighted>
-0.0000

> <Gold.Chemscore.Lipo.Weighted>
-7.8930

> <Gold.Chemscore.Internal_Hbond.Weighted>
0.0000

> <Gold.Chemscore.DEClash.Weighted>
2.3319

> <Gold.Chemscore.DEInternal.Weighted>
3.8019

> <Gold.Chemscore.Rot.Weighted>
5.7073

> <Gold.Chemscore.Internal.Correction.Weighted>
   9.000000E+99

> <Gold.Protein.RotatedTorsions>
[ 6907 6896 6895 6894 ] final  -22.42 input  -60.11 | X-H torsion
[ 7974 7965 7964 7962 ] final  147.72 input  175.53 | X-H torsion
[ 8008 7997 7996 7995 ] final -111.98 input   59.86 | X-H torsion
[ 10167 10162 10161 10158 ] final   79.47 input  -65.29 | X-H torsion
[ 10718 10713 10712 10709 ] final  153.95 input   66.30 | X-H torsion
[ 10763 10752 10751 10750 ] final  -22.30 input  -60.55 | X-H torsion
[ 11005 11000 10999 10996 ] final -161.20 input  -57.11 | X-H torsion

> <Gold.Protein.ActiveResidues>
 VAL166  LYS551  ARG553  GLY616  TRP617  ASP618  TYR619  PRO620  LYS621  CYS622 
 ASP623  PHE694  ASN695  SER759  ASP760  ASP761  ALA762  ILE779  LEU786  VAL792 
 PHE793  MET794  SER795  GLU796  ALA797  LYS798  CYS799  TRP800  GLU811  SER814 

> <Gold.Protein.RotatedAtoms>
  151.2189  135.0510  159.8941 H   0  0  0  0  0  0  0  0  0  0  0  0  # atno 6907 bound_to 6896
  152.5417  134.0663  159.8184 H   0  0  0  0  0  0  0  0  0  0  0  0  # atno 6908 bound_to 6896
  151.0826  133.5330  159.2651 H   0  0  0  0  0  0  0  0  0  0  0  0  # atno 6909 bound_to 6896
  144.8569  139.6064  143.5948 H   0  0  0  0  0  0  0  0  0  0  0  0  # atno 7974 bound_to 7965
  154.9982  140.0394  157.2348 H   0  0  0  0  0  0  0  0  0  0  0  0  # atno 8008 bound_to 7997
  154.7568  140.2777  155.6224 H   0  0  0  0  0  0  0  0  0  0  0  0  # atno 8009 bound_to 7997
  156.2896  140.2636  156.2336 H   0  0  0  0  0  0  0  0  0  0  0  0  # atno 8010 bound_to 7997
  139.9600  144.5967  150.8081 H   0  0  0  0  0  0  0  0  0  0  0  0  # atno 10167 bound_to 10162
  157.2380  131.0753  151.1810 H   0  0  0  0  0  0  0  0  0  0  0  0  # atno 10718 bound_to 10713
  153.6498  135.6981  153.5213 H   0  0  0  0  0  0  0  0  0  0  0  0  # atno 10763 bound_to 10752
  153.2715  135.4213  155.0992 H   0  0  0  0  0  0  0  0  0  0  0  0  # atno 10764 bound_to 10752
  154.8479  135.3579  154.6043 H   0  0  0  0  0  0  0  0  0  0  0  0  # atno 10765 bound_to 10752
  140.6230  134.4731  157.5225 H   0  0  0  0  0  0  0  0  0  0  0  0  # atno 11005 bound_to 11000
  146.2830  139.6928  142.9215 LP  0  0  0  0  0  0  0  0  0  0  0  0  # atno 17320 bound_to 7965
  145.4388  141.0421  143.2869 LP  0  0  0  0  0  0  0  0  0  0  0  0  # atno 17321 bound_to 7965
  140.7556  143.3049  151.2986 LP  0  0  0  0  0  0  0  0  0  0  0  0  # atno 17342 bound_to 10162
  139.6561  144.0273  152.2660 LP  0  0  0  0  0  0  0  0  0  0  0  0  # atno 17343 bound_to 10162
  157.3408  130.7032  149.6381 LP  0  0  0  0  0  0  0  0  0  0  0  0  # atno 17370 bound_to 10713
  155.9671  130.4280  150.4770 LP  0  0  0  0  0  0  0  0  0  0  0  0  # atno 17371 bound_to 10713
  139.9146  134.8273  156.1411 LP  0  0  0  0  0  0  0  0  0  0  0  0  # atno 17394 bound_to 11000
  141.0729  133.6788  156.2177 LP  0  0  0  0  0  0  0  0  0  0  0  0  # atno 17395 bound_to 11000

$$$$
