AV-unprocessed.smi:501|AV-procd|sdf|2742|dock9
  -GOLD-   2262023203D 1   1.00000     0.00000
 Structure written by MMmdl.
 45 47  0  0  0  0  0  0  0  0  1 V2000
  146.1817  132.4212  161.7547 C   0  0  0  0  0  0  0  0  0  0  0  0
  146.7585  133.8207  161.6964 C   0  0  0  0  0  0  0  0  0  0  0  0
  146.4429  134.7539  162.7036 C   0  0  0  0  0  0  0  0  0  0  0  0
  146.9803  136.0529  162.6513 C   0  0  0  0  0  0  0  0  0  0  0  0
  147.8342  136.4197  161.5940 C   0  0  0  0  0  0  0  0  0  0  0  0
  148.1638  135.4977  160.5795 C   0  0  0  0  0  0  0  0  0  0  0  0
  149.0099  135.9399  159.5850 O   0  0  0  0  0  0  0  0  0  0  0  0
  149.0148  137.3257  159.2738 C   0  0  0  0  0  0  0  0  0  0  0  0
  150.2366  137.6243  158.3971 C   0  0  0  0  0  0  0  0  0  0  0  0
  150.2359  138.9989  157.9165 N   0  0  0  0  0  0  0  0  0  0  0  0
  149.4307  139.5880  156.9925 C   0  0  0  0  0  0  0  0  0  0  0  0
  148.3230  138.8677  156.2805 C   0  0  0  0  0  0  0  0  0  0  0  0
  148.7989  137.5751  155.5964 C   0  0  0  0  0  0  0  0  0  0  0  0
  149.2476  137.8224  154.2310 N   0  0  0  0  0  0  0  0  0  0  0  0
  150.2458  138.6489  153.8888 C   0  0  0  0  0  0  0  0  0  0  0  0
  150.9148  139.3013  154.6888 O   0  0  0  0  0  0  0  0  0  0  0  0
  149.6680  140.8799  156.7606 N   0  0  0  0  0  0  0  0  0  0  0  0
  150.7212  141.1569  157.6086 C   0  0  0  0  0  0  0  0  0  0  0  0
  151.4302  142.3591  157.8301 C   0  0  0  0  0  0  0  0  0  0  0  0
  152.4845  142.4037  158.7658 C   0  0  0  0  0  0  0  0  0  0  0  0
  152.8434  141.2496  159.4918 C   0  0  0  0  0  0  0  0  0  0  0  0
  152.1500  140.0414  159.2850 C   0  0  0  0  0  0  0  0  0  0  0  0
  151.0994  140.0017  158.3485 C   0  0  0  0  0  0  0  0  0  0  0  0
  147.6163  134.1906  160.6394 C   0  0  0  0  0  0  0  0  0  0  0  0
  145.1832  132.4320  162.1926 H   0  0  0  0  0  0  0  0  0  0  0  0
  146.8171  131.7778  162.3635 H   0  0  0  0  0  0  0  0  0  0  0  0
  146.1074  131.9867  160.7574 H   0  0  0  0  0  0  0  0  0  0  0  0
  145.7895  134.4763  163.5180 H   0  0  0  0  0  0  0  0  0  0  0  0
  146.7387  136.7687  163.4230 H   0  0  0  0  0  0  0  0  0  0  0  0
  148.2424  137.4192  161.5623 H   0  0  0  0  0  0  0  0  0  0  0  0
  148.1013  137.5931  158.7434 H   0  0  0  0  0  0  0  0  0  0  0  0
  149.0643  137.9171  160.1895 H   0  0  0  0  0  0  0  0  0  0  0  0
  151.1485  137.4639  158.9730 H   0  0  0  0  0  0  0  0  0  0  0  0
  150.2927  136.9312  157.5601 H   0  0  0  0  0  0  0  0  0  0  0  0
  147.5540  138.6279  157.0160 H   0  0  0  0  0  0  0  0  0  0  0  0
  147.8377  139.5208  155.5584 H   0  0  0  0  0  0  0  0  0  0  0  0
  149.6316  137.1420  156.1485 H   0  0  0  0  0  0  0  0  0  0  0  0
  148.0048  136.8263  155.6003 H   0  0  0  0  0  0  0  0  0  0  0  0
  148.7614  137.3335  153.4933 H   0  0  0  0  0  0  0  0  0  0  0  0
  150.3851  138.6648  152.7969 H   0  0  0  0  0  0  0  0  0  0  0  0
  151.1614  143.2486  157.2797 H   0  0  0  0  0  0  0  0  0  0  0  0
  153.0198  143.3278  158.9277 H   0  0  0  0  0  0  0  0  0  0  0  0
  153.6514  141.2921  160.2076 H   0  0  0  0  0  0  0  0  0  0  0  0
  152.4225  139.1564  159.8405 H   0  0  0  0  0  0  0  0  0  0  0  0
  147.8412  133.4541  159.8831 H   0  0  0  0  0  0  0  0  0  0  0  0
  1  2  1  0  0  0  0
  1 25  1  0  0  0  0
  1 26  1  0  0  0  0
  1 27  1  0  0  0  0
  2 24  1  0  0  0  0
  2  3  2  0  0  0  0
  3  4  1  0  0  0  0
  3 28  1  0  0  0  0
  4  5  2  0  0  0  0
  4 29  1  0  0  0  0
  5  6  1  0  0  0  0
  5 30  1  0  0  0  0
  6  7  1  0  0  0  0
  6 24  2  0  0  0  0
  7  8  1  0  0  0  0
  8  9  1  0  0  0  0
  8 31  1  0  0  0  0
  8 32  1  0  0  0  0
  9 10  1  0  0  0  0
  9 33  1  0  0  0  0
  9 34  1  0  0  0  0
 10 23  1  0  0  0  0
 10 11  1  0  0  0  0
 11 12  1  0  0  0  0
 11 17  2  0  0  0  0
 12 13  1  0  0  0  0
 12 35  1  0  0  0  0
 12 36  1  0  0  0  0
 13 14  1  0  0  0  0
 13 37  1  0  0  0  0
 13 38  1  0  0  0  0
 14 15  1  0  0  0  0
 14 39  1  0  0  0  0
 15 16  2  0  0  0  0
 15 40  1  0  0  0  0
 17 18  1  0  0  0  0
 18 23  2  0  0  0  0
 18 19  1  0  0  0  0
 19 20  2  0  0  0  0
 19 41  1  0  0  0  0
 20 21  1  0  0  0  0
 20 42  1  0  0  0  0
 21 22  2  0  0  0  0
 21 43  1  0  0  0  0
 22 23  1  0  0  0  0
 22 44  1  0  0  0  0
 24 45  1  0  0  0  0
M  END
> <s_m_source_file>
AV-unprocessed.smi

> <i_m_source_file_index>
501

> <i_lp_mmshare_version>
43012

> <i_f3d_flags>
0

> <s_epik_input>
W0NIM11jMVtjSF1bY0hdW2NIXWMoW2NIXTEpT1tDSDJdW0NIMl1uKGMobjIpW0NIMl1bQ0gyXVtOSF1bQ0hdPU8pYyhjMjMpW2NIXVtjSF1bY0hdW2NIXTM=

> <s_epik_cmdline>
J2VwaWtfcHl0aG9uJywgJy1waCcsICc3LjAnLCAnLXRuJywgJzgnLCAnLW1hJywgJzIwMCcsICctbWV0YWxfYmluZGluZycsICctaW1hZScsICc8aW5maWxlLm1hZT4nLCAnLW9tYWUnLCAnPG91dGZpbGUubWFlPic=

> <r_lp_tautomer_probability>
1

> <r_epik_Ionization_Penalty>
0.092246

> <r_epik_Ionization_Penalty_Charging>
0

> <r_epik_Ionization_Penalty_Neutral>
0.092246

> <r_epik_State_Penalty>
0.0825475

> <r_epik_Charging_Adjusted_Penalty>
0.0825475

> <i_epik_Tot_Q>
0

> <i_epik_Tot_abs_Q>
0

> <r_epik_Metal_State_Penalty>
0.0713424

> <b_epik_Metal_Only>
0

> <s_lp_Force_Field>
OPLS_2005

> <r_lp_Energy>
15.5248

> <b_lp_Chiralities_Consistent>
1

> <s_lp_Variant>
AV-unprocessed.smi:501-1

> <Gold.Version>
5.8.1

> <Gold.Id.Protein>
6NUR|6NUR_protein|mol2

> <Gold.PLP.Fitness>
49.3553

> <Gold.PLP.PLP>
-41.7252

> <Gold.PLP.part.hbond>
-3.0000

> <Gold.PLP.part.metal>
0.0000

> <Gold.PLP.part.buried>
-5.7425

> <Gold.PLP.part.nonpolar>
-33.0809

> <Gold.PLP.part.repulsive>
0.1538

> <Gold.PLP.ligand.clash>
0.0000

> <Gold.PLP.ligand.torsion>
0.7673

> <Gold.PLP.Chemscore.Hbond>
3.0000

> <Gold.PLP.Chemscore.CHOScore>
0.0000

> <Gold.PLP.Chemscore.Metal>
0.0000

> <Gold.Chemscore.Hbonds>
donor molecule, donor type, donor heavy atom, donor atom, acceptor molecule, acceptor atom, score
      L1  H    14    39       P1  7948  0.90
      P1  H  6896  6909       L1     7  0.80
      P1  H  7989  7998       L1    16  0.84

> <Gold.PLP.Chemscore.Internal.Correction>
0.1648

> <Gold.Rescore>
     Score         DG    S(hbond)    S(metal)    S(lipo)     H(rot)  DE(clash)    DE(int)     intcor
     17.21     -19.44       2.47        0.00     105.99       2.61       0.19       2.04       ----

> <Gold.Chemscore.Fitness>
17.2136

> <Gold.Chemscore.DG>
-19.4440

> <Gold.Chemscore.ZeroCoef>
-5.4800

> <Gold.Chemscore.Hbond>
2.4700

> <Gold.Chemscore.Metal>
0.0000

> <Gold.Chemscore.Lipo>
105.9944

> <Gold.Chemscore.Internal_Hbond>
0.0000

> <Gold.Chemscore.DEClash>
0.1876

> <Gold.Chemscore.DEInternal>
2.0428

> <Gold.Chemscore.Rot>
2.6122

> <Gold.Chemscore.Internal.Correction>
   9.000000E+99

> <Gold.Chemscore.Hbonds>
donor molecule, donor type, donor heavy atom, donor atom, acceptor molecule, acceptor atom, score
      L1  H    14    39       P1  7948  0.87
      P1  H  6896  6909       L1     7  0.47
      P1  H  7989  7998       L1    16  0.29

> <Gold.Chemscore.Hbond.Weighted>
-8.2498

> <Gold.Chemscore.Metal.Weighted>
-0.0000

> <Gold.Chemscore.Lipo.Weighted>
-12.4013

> <Gold.Chemscore.Internal_Hbond.Weighted>
0.0000

> <Gold.Chemscore.DEClash.Weighted>
0.1876

> <Gold.Chemscore.DEInternal.Weighted>
2.0428

> <Gold.Chemscore.Rot.Weighted>
6.6872

> <Gold.Chemscore.Internal.Correction.Weighted>
   9.000000E+99

> <Gold.Protein.RotatedTorsions>
[ 6907 6896 6895 6894 ] final   55.92 input  -60.11 | X-H torsion
[ 7974 7965 7964 7962 ] final  129.40 input  175.53 | X-H torsion
[ 8008 7997 7996 7995 ] final  -93.20 input   59.86 | X-H torsion
[ 10167 10162 10161 10158 ] final   64.71 input  -65.29 | X-H torsion
[ 10718 10713 10712 10709 ] final -157.69 input   66.30 | X-H torsion
[ 10763 10752 10751 10750 ] final  -47.65 input  -60.55 | X-H torsion
[ 11005 11000 10999 10996 ] final -135.12 input  -57.11 | X-H torsion

> <Gold.Protein.ActiveResidues>
 VAL166  LYS551  ARG553  GLY616  TRP617  ASP618  TYR619  PRO620  LYS621  CYS622 
 ASP623  PHE694  ASN695  SER759  ASP760  ASP761  ALA762  ILE779  LEU786  VAL792 
 PHE793  MET794  SER795  GLU796  ALA797  LYS798  CYS799  TRP800  GLU811  SER814 

> <Gold.Protein.RotatedAtoms>
  152.3586  134.6904  160.0213 H   0  0  0  0  0  0  0  0  0  0  0  0  # atno 6907 bound_to 6896
  151.7235  133.3310  159.3329 H   0  0  0  0  0  0  0  0  0  0  0  0  # atno 6908 bound_to 6896
  150.7589  134.6361  159.6257 H   0  0  0  0  0  0  0  0  0  0  0  0  # atno 6909 bound_to 6896
  145.0291  139.4062  143.5159 H   0  0  0  0  0  0  0  0  0  0  0  0  # atno 7974 bound_to 7965
  154.7327  140.0501  157.0741 H   0  0  0  0  0  0  0  0  0  0  0  0  # atno 8008 bound_to 7997
  155.0280  140.3154  155.4749 H   0  0  0  0  0  0  0  0  0  0  0  0  # atno 8009 bound_to 7997
  156.2845  140.2155  156.5401 H   0  0  0  0  0  0  0  0  0  0  0  0  # atno 8010 bound_to 7997
  140.1192  144.4747  150.6930 H   0  0  0  0  0  0  0  0  0  0  0  0  # atno 10167 bound_to 10162
  156.5438  130.8575  151.2758 H   0  0  0  0  0  0  0  0  0  0  0  0  # atno 10718 bound_to 10713
  154.0649  135.6613  153.4816 H   0  0  0  0  0  0  0  0  0  0  0  0  # atno 10763 bound_to 10752
  153.0413  135.5143  154.7623 H   0  0  0  0  0  0  0  0  0  0  0  0  # atno 10764 bound_to 10752
  154.6671  135.3024  154.9758 H   0  0  0  0  0  0  0  0  0  0  0  0  # atno 10765 bound_to 10752
  140.8927  134.1791  157.4516 H   0  0  0  0  0  0  0  0  0  0  0  0  # atno 11005 bound_to 11000
  146.3496  139.9831  142.8693 LP  0  0  0  0  0  0  0  0  0  0  0  0  # atno 17320 bound_to 7965
  145.1794  140.9760  143.4275 LP  0  0  0  0  0  0  0  0  0  0  0  0  # atno 17321 bound_to 7965
  140.6882  143.2361  151.5204 LP  0  0  0  0  0  0  0  0  0  0  0  0  # atno 17342 bound_to 10162
  139.5577  144.2233  152.1640 LP  0  0  0  0  0  0  0  0  0  0  0  0  # atno 17343 bound_to 10162
  157.7400  130.9842  150.2351 LP  0  0  0  0  0  0  0  0  0  0  0  0  # atno 17370 bound_to 10713
  156.2947  130.3750  149.7808 LP  0  0  0  0  0  0  0  0  0  0  0  0  # atno 17371 bound_to 10713
  139.8731  134.9865  156.5328 LP  0  0  0  0  0  0  0  0  0  0  0  0  # atno 17394 bound_to 11000
  140.8327  133.8266  155.8999 LP  0  0  0  0  0  0  0  0  0  0  0  0  # atno 17395 bound_to 11000

$$$$
