AV-unprocessed.smi:104|AV-procd|sdf|1003|dock9
  -GOLD-   2262017593D 1   1.00000     0.00000
 Structure written by MMmdl.
 47 49  0  0  0  0  0  0  0  0  1 V2000
  147.2750  134.3488  161.9188 C   0  0  0  0  0  0  0  0  0  0  0  0
  147.3436  133.4215  160.7127 C   0  0  0  0  0  0  0  0  0  0  0  0
  147.2070  132.2047  160.8339 O   0  0  0  0  0  0  0  0  0  0  0  0
  147.5625  134.0879  159.5656 O   0  0  0  0  0  0  0  0  0  0  0  0
  147.5404  133.4131  158.3147 C   0  0  0  0  0  0  0  0  0  0  0  0
  147.8643  134.3846  157.1655 C   0  0  2  0  0  0  0  0  0  0  0  0
  147.0228  134.1601  156.0478 O   0  0  0  0  0  0  0  0  0  0  0  0
  147.5716  134.8481  154.9712 C   0  0  2  0  0  0  0  0  0  0  0  0
  147.2058  134.1297  153.7154 N   0  0  0  0  0  0  0  0  0  0  0  0
  147.6202  132.8988  153.2600 C   0  0  0  0  0  0  0  0  0  0  0  0
  148.8304  131.8011  154.2390 Br  0  0  0  0  0  0  0  0  0  0  0  0
  147.1368  132.4943  152.1184 N   0  0  0  0  0  0  0  0  0  0  0  0
  146.3056  133.5447  151.7482 C   0  0  0  0  0  0  0  0  0  0  0  0
  145.4625  133.7901  150.6351 C   0  0  0  0  0  0  0  0  0  0  0  0
  145.3174  132.9243  149.6226 N   0  0  0  0  0  0  0  0  0  0  0  0
  144.7693  134.9522  150.5916 N   0  0  0  0  0  0  0  0  0  0  0  0
  144.8949  135.8330  151.5894 C   0  0  0  0  0  0  0  0  0  0  0  0
  145.6430  135.7447  152.6922 N   0  0  0  0  0  0  0  0  0  0  0  0
  146.3413  134.5721  152.7353 C   0  0  0  0  0  0  0  0  0  0  0  0
  149.0974  134.8586  155.1584 C   0  0  1  0  0  0  0  0  0  0  0  0
  149.6136  136.1792  155.0648 O   0  0  0  0  0  0  0  0  0  0  0  0
  150.8561  136.4493  155.5016 C   0  0  0  0  0  0  0  0  0  0  0  0
  151.2509  137.9010  155.2673 C   0  0  0  0  0  0  0  0  0  0  0  0
  151.6296  135.6492  156.0283 O   0  0  0  0  0  0  0  0  0  0  0  0
  149.2803  134.3254  156.5781 C   0  0  2  0  0  0  0  0  0  0  0  0
  149.7698  132.9899  156.5339 O   0  0  0  0  0  0  0  0  0  0  0  0
  151.0823  132.7392  156.6782 C   0  0  0  0  0  0  0  0  0  0  0  0
  151.5197  131.4953  155.9170 C   0  0  0  0  0  0  0  0  0  0  0  0
  151.8803  133.4092  157.3339 O   0  0  0  0  0  0  0  0  0  0  0  0
  148.2709  134.4975  162.3358 H   0  0  0  0  0  0  0  0  0  0  0  0
  146.6366  133.9203  162.6915 H   0  0  0  0  0  0  0  0  0  0  0  0
  146.8682  135.3201  161.6364 H   0  0  0  0  0  0  0  0  0  0  0  0
  148.1823  132.5314  158.2998 H   0  0  0  0  0  0  0  0  0  0  0  0
  146.5233  133.0447  158.1807 H   0  0  0  0  0  0  0  0  0  0  0  0
  147.6636  135.4046  157.4995 H   0  0  0  0  0  0  0  0  0  0  0  0
  147.1302  135.8419  154.8963 H   0  0  0  0  0  0  0  0  0  0  0  0
  145.8228  132.0499  149.6325 H   0  0  0  0  0  0  0  0  0  0  0  0
  144.7013  133.1457  148.8540 H   0  0  0  0  0  0  0  0  0  0  0  0
  144.3133  136.7377  151.4913 H   0  0  0  0  0  0  0  0  0  0  0  0
  149.5770  134.1978  154.4339 H   0  0  0  0  0  0  0  0  0  0  0  0
  151.3493  138.0972  154.1997 H   0  0  0  0  0  0  0  0  0  0  0  0
  152.2044  138.1207  155.7481 H   0  0  0  0  0  0  0  0  0  0  0  0
  150.4952  138.5717  155.6764 H   0  0  0  0  0  0  0  0  0  0  0  0
  149.9584  134.9442  157.1687 H   0  0  0  0  0  0  0  0  0  0  0  0
  151.0384  130.6101  156.3330 H   0  0  0  0  0  0  0  0  0  0  0  0
  152.6002  131.3654  155.9828 H   0  0  0  0  0  0  0  0  0  0  0  0
  151.2447  131.5787  154.8655 H   0  0  0  0  0  0  0  0  0  0  0  0
  1  2  1  0  0  0  0
  1 30  1  0  0  0  0
  1 31  1  0  0  0  0
  1 32  1  0  0  0  0
  2  3  2  0  0  0  0
  2  4  1  0  0  0  0
  4  5  1  0  0  0  0
  5  6  1  0  0  0  0
  5 33  1  0  0  0  0
  5 34  1  0  0  0  0
  6 25  1  0  0  0  0
  6  7  1  0  0  0  0
  6 35  1  0  0  0  0
  7  8  1  0  0  0  0
  8  9  1  0  0  0  0
  8 20  1  0  0  0  0
  8 36  1  0  0  0  0
  9 19  1  0  0  0  0
  9 10  1  0  0  0  0
 10 11  1  0  0  0  0
 10 12  2  0  0  0  0
 12 13  1  0  0  0  0
 13 19  2  0  0  0  0
 13 14  1  0  0  0  0
 14 15  1  0  0  0  0
 14 16  2  0  0  0  0
 15 37  1  0  0  0  0
 15 38  1  0  0  0  0
 16 17  1  0  0  0  0
 17 18  2  0  0  0  0
 17 39  1  0  0  0  0
 18 19  1  0  0  0  0
 20 21  1  0  0  0  0
 20 25  1  0  0  0  0
 20 40  1  0  0  0  0
 21 22  1  0  0  0  0
 22 23  1  0  0  0  0
 22 24  2  0  0  0  0
 23 41  1  0  0  0  0
 23 42  1  0  0  0  0
 23 43  1  0  0  0  0
 25 26  1  0  0  0  0
 25 44  1  0  0  0  0
 26 27  1  0  0  0  0
 27 28  1  0  0  0  0
 27 29  2  0  0  0  0
 28 45  1  0  0  0  0
 28 46  1  0  0  0  0
 28 47  1  0  0  0  0
M  END
> <s_m_source_file>
AV-unprocessed.smi

> <i_m_source_file_index>
104

> <i_lp_mmshare_version>
43012

> <i_f3d_flags>
0

> <s_epik_input>
W0NIM11DKD1PKU9bQ0gyXVtDQEBIXTFPW0NASF0oW0NAQEhdKE9DKD1PKVtDSDNdKVtDQEhdMU9DKD1PKVtDSDNdKW4oYyhCciluMiljKGMyMyluW2NIXW5jM1tOSDJd

> <s_epik_cmdline>
J2VwaWtfcHl0aG9uJywgJy1waCcsICc3LjAnLCAnLXRuJywgJzgnLCAnLW1hJywgJzIwMCcsICctbWV0YWxfYmluZGluZycsICctaW1hZScsICc8aW5maWxlLm1hZT4nLCAnLW9tYWUnLCAnPG91dGZpbGUubWFlPic=

> <r_lp_tautomer_probability>
1

> <r_epik_Ionization_Penalty>
7.36622e-05

> <r_epik_Ionization_Penalty_Charging>
0

> <r_epik_Ionization_Penalty_Neutral>
7.36622e-05

> <r_epik_State_Penalty>
-0

> <r_epik_Charging_Adjusted_Penalty>
0

> <i_epik_Tot_Q>
0

> <i_epik_Tot_abs_Q>
0

> <r_epik_Metal_State_Penalty>
-0

> <b_epik_Metal_Only>
0

> <s_epik_Chemistry_Notes>
This compound has an ester and may undergo hydrolysis at high or low pH. This compound contains an acetal/aminal-like group ( X-CH(R)-Y where X, Y are N, S, or O) that may be acid/base labile, releasing an aldehyde.

> <s_lp_Force_Field>
OPLS_2005

> <r_lp_Energy>
15.0278

> <b_lp_Chiralities_Consistent>
1

> <s_lp_Variant>
AV-unprocessed.smi:104-11

> <Gold.Version>
5.8.1

> <Gold.Id.Protein>
6NUR|6NUR_protein|mol2

> <Gold.PLP.Fitness>
37.2917

> <Gold.PLP.PLP>
-32.8333

> <Gold.PLP.part.hbond>
-3.0000

> <Gold.PLP.part.metal>
0.0000

> <Gold.PLP.part.buried>
-5.1138

> <Gold.PLP.part.nonpolar>
-25.9171

> <Gold.PLP.part.repulsive>
1.3163

> <Gold.PLP.ligand.clash>
0.0000

> <Gold.PLP.ligand.torsion>
1.7472

> <Gold.PLP.Chemscore.Hbond>
1.6080

> <Gold.PLP.Chemscore.CHOScore>
1.0000

> <Gold.PLP.Chemscore.Metal>
0.0000

> <Gold.Chemscore.Hbonds>
donor molecule, donor type, donor heavy atom, donor atom, acceptor molecule, acceptor atom, score
      P1  H  6896  6909       L1    29  0.58
      P1  H 10752 10764       L1    24  1.00
      L1  C    17    39       P1 10171  0.99

> <Gold.PLP.Chemscore.Internal.Correction>
0.1288

> <Gold.Rescore>
     Score         DG    S(hbond)    S(metal)    S(lipo)     H(rot)  DE(clash)    DE(int)     intcor
      0.57      -5.36       1.92        0.00      38.53       4.31       0.00       4.79       ----

> <Gold.Chemscore.Fitness>
0.5736

> <Gold.Chemscore.DG>
-5.3604

> <Gold.Chemscore.ZeroCoef>
-5.4800

> <Gold.Chemscore.Hbond>
1.9156

> <Gold.Chemscore.Metal>
0.0000

> <Gold.Chemscore.Lipo>
38.5313

> <Gold.Chemscore.Internal_Hbond>
0.0000

> <Gold.Chemscore.DEClash>
0.0000

> <Gold.Chemscore.DEInternal>
4.7869

> <Gold.Chemscore.Rot>
4.3070

> <Gold.Chemscore.Internal.Correction>
   9.000000E+99

> <Gold.Chemscore.Hbonds>
donor molecule, donor type, donor heavy atom, donor atom, acceptor molecule, acceptor atom, score
      P1  H  6896  6909       L1    29  0.51
      P1  H 10752 10764       L1    24  0.39

> <Gold.Chemscore.Hbond.Weighted>
-6.3981

> <Gold.Chemscore.Metal.Weighted>
-0.0000

> <Gold.Chemscore.Lipo.Weighted>
-4.5082

> <Gold.Chemscore.Internal_Hbond.Weighted>
0.0000

> <Gold.Chemscore.DEClash.Weighted>
0.0000

> <Gold.Chemscore.DEInternal.Weighted>
4.7869

> <Gold.Chemscore.Rot.Weighted>
11.0259

> <Gold.Chemscore.Internal.Correction.Weighted>
   9.000000E+99

> <Gold.Protein.RotatedTorsions>
[ 6907 6896 6895 6894 ] final  -54.77 input  -60.11 | X-H torsion
[ 7974 7965 7964 7962 ] final  116.95 input  175.53 | X-H torsion
[ 8008 7997 7996 7995 ] final  147.29 input   59.86 | X-H torsion
[ 10167 10162 10161 10158 ] final -102.95 input  -65.29 | X-H torsion
[ 10718 10713 10712 10709 ] final -150.14 input   66.30 | X-H torsion
[ 10763 10752 10751 10750 ] final  -46.97 input  -60.55 | X-H torsion
[ 11005 11000 10999 10996 ] final   -4.32 input  -57.11 | X-H torsion

> <Gold.Protein.ActiveResidues>
 VAL166  LYS551  ARG553  GLY616  TRP617  ASP618  TYR619  PRO620  LYS621  CYS622 
 ASP623  PHE694  ASN695  SER759  ASP760  ASP761  ALA762  ILE779  LEU786  VAL792 
 PHE793  MET794  SER795  GLU796  ALA797  LYS798  CYS799  TRP800  GLU811  SER814 

> <Gold.Protein.RotatedAtoms>
  150.8309  134.7562  159.6852 H   0  0  0  0  0  0  0  0  0  0  0  0  # atno 6907 bound_to 6896
  152.4414  134.5580  159.9896 H   0  0  0  0  0  0  0  0  0  0  0  0  # atno 6908 bound_to 6896
  151.5741  133.3348  159.3031 H   0  0  0  0  0  0  0  0  0  0  0  0  # atno 6909 bound_to 6896
  145.1733  139.3089  143.4456 H   0  0  0  0  0  0  0  0  0  0  0  0  # atno 7974 bound_to 7965
  156.2829  140.2159  156.5513 H   0  0  0  0  0  0  0  0  0  0  0  0  # atno 8008 bound_to 7997
  154.7288  140.0497  157.0730 H   0  0  0  0  0  0  0  0  0  0  0  0  # atno 8009 bound_to 7997
  155.0380  140.3142  155.4737 H   0  0  0  0  0  0  0  0  0  0  0  0  # atno 8010 bound_to 7997
  140.2252  143.3647  152.0935 H   0  0  0  0  0  0  0  0  0  0  0  0  # atno 10167 bound_to 10162
  156.4423  130.8128  151.2357 H   0  0  0  0  0  0  0  0  0  0  0  0  # atno 10718 bound_to 10713
  154.0538  135.6627  153.4803 H   0  0  0  0  0  0  0  0  0  0  0  0  # atno 10763 bound_to 10752
  153.0453  135.5118  154.7725 H   0  0  0  0  0  0  0  0  0  0  0  0  # atno 10764 bound_to 10752
  154.6740  135.3034  154.9670 H   0  0  0  0  0  0  0  0  0  0  0  0  # atno 10765 bound_to 10752
  140.6790  133.9170  155.8543 H   0  0  0  0  0  0  0  0  0  0  0  0  # atno 11005 bound_to 11000
  146.3465  140.1887  142.8589 LP  0  0  0  0  0  0  0  0  0  0  0  0  # atno 17320 bound_to 7965
  145.0210  140.8793  143.5167 LP  0  0  0  0  0  0  0  0  0  0  0  0  # atno 17321 bound_to 7965
  139.5130  144.6925  151.5721 LP  0  0  0  0  0  0  0  0  0  0  0  0  # atno 17342 bound_to 10162
  140.6226  143.9230  150.6538 LP  0  0  0  0  0  0  0  0  0  0  0  0  # atno 17343 bound_to 10162
  157.7506  131.0164  150.3544 LP  0  0  0  0  0  0  0  0  0  0  0  0  # atno 17370 bound_to 10713
  156.3904  130.3897  149.7034 LP  0  0  0  0  0  0  0  0  0  0  0  0  # atno 17371 bound_to 10713
  141.0333  134.0726  157.3989 LP  0  0  0  0  0  0  0  0  0  0  0  0  # atno 17394 bound_to 11000
  139.8958  135.0142  156.7018 LP  0  0  0  0  0  0  0  0  0  0  0  0  # atno 17395 bound_to 11000

$$$$
