AV-unprocessed.smi:2524|AV-procd|sdf|9923|dock9
  -GOLD-   2272013563D 1   1.00000     0.00000
 Structure written by MMmdl.
 37 38  0  0  0  0  0  0  0  0  2 V2000
  152.1628  144.1844  158.8751 C   0  0  0  0  0  0  0  0  0  0  0  0
  152.8626  143.4079  159.7158 C   0  0  0  0  0  0  0  0  0  0  0  0
  152.7977  141.8953  159.7428 C   0  0  0  0  0  0  0  0  0  0  0  0
  151.7036  141.3527  158.8159 C   0  0  0  0  0  0  0  0  0  0  0  0
  152.1917  139.7261  158.1061 S   0  0  0  0  0  0  0  0  0  0  0  0
  153.5784  139.4407  158.5051 O   0  0  0  0  0  0  0  0  0  0  0  0
  151.1346  138.7428  158.3850 O   0  0  0  0  0  0  0  0  0  0  0  0
  152.1767  140.0380  156.4089 N   0  0  0  0  0  0  0  0  0  0  0  0
  150.9309  140.4844  155.7791 C   0  0  0  0  0  0  0  0  0  0  0  0
  150.3031  139.3883  154.9256 C   0  0  0  0  0  0  0  0  0  0  0  0
  148.9798  139.8137  154.3531 C   0  0  0  0  0  0  0  0  0  0  0  0
  148.1134  138.8755  153.7464 C   0  0  0  0  0  0  0  0  0  0  0  0
  146.8691  139.3029  153.2404 C   0  0  0  0  0  0  0  0  0  0  0  0
  146.5163  140.6030  153.3349 N   0  3  0  0  0  0  0  0  0  0  0  0
  147.3116  141.5357  153.9011 C   0  0  0  0  0  0  0  0  0  0  0  0
  148.5663  141.1633  154.4247 C   0  0  0  0  0  0  0  0  0  0  0  0
  151.2070  138.5240  154.0702 C   0  0  0  0  0  0  0  0  0  0  0  0
  150.5323  137.9335  155.2813 C   0  0  0  0  0  0  0  0  0  0  0  0
  151.4896  143.7592  158.1453 H   0  0  0  0  0  0  0  0  0  0  0  0
  152.2561  145.2600  158.9070 H   0  0  0  0  0  0  0  0  0  0  0  0
  153.5268  143.8714  160.4308 H   0  0  0  0  0  0  0  0  0  0  0  0
  153.7657  141.4802  159.4601 H   0  0  0  0  0  0  0  0  0  0  0  0
  152.6063  141.5790  160.7686 H   0  0  0  0  0  0  0  0  0  0  0  0
  150.7678  141.2190  159.3589 H   0  0  0  0  0  0  0  0  0  0  0  0
  151.5164  142.0417  157.9920 H   0  0  0  0  0  0  0  0  0  0  0  0
  152.9618  140.6282  156.1338 H   0  0  0  0  0  0  0  0  0  0  0  0
  150.2203  140.8102  156.5400 H   0  0  0  0  0  0  0  0  0  0  0  0
  151.1498  141.3536  155.1582 H   0  0  0  0  0  0  0  0  0  0  0  0
  148.3950  137.8346  153.6812 H   0  0  0  0  0  0  0  0  0  0  0  0
  146.1498  138.6486  152.7700 H   0  0  0  0  0  0  0  0  0  0  0  0
  146.9225  142.5431  153.9211 H   0  0  0  0  0  0  0  0  0  0  0  0
  149.2023  141.9056  154.8847 H   0  0  0  0  0  0  0  0  0  0  0  0
  150.8423  138.2075  153.0948 H   0  0  0  0  0  0  0  0  0  0  0  0
  152.2822  138.6782  154.1372 H   0  0  0  0  0  0  0  0  0  0  0  0
  151.1695  137.7084  156.1344 H   0  0  0  0  0  0  0  0  0  0  0  0
  149.7220  137.2284  155.1067 H   0  0  0  0  0  0  0  0  0  0  0  0
  145.6105  140.8924  152.9649 H   0  0  0  0  0  0  0  0  0  0  0  0
  1  2  2  0  0  0  0
  1 19  1  0  0  0  0
  1 20  1  0  0  0  0
  2  3  1  0  0  0  0
  2 21  1  0  0  0  0
  3  4  1  0  0  0  0
  3 22  1  0  0  0  0
  3 23  1  0  0  0  0
  4  5  1  0  0  0  0
  4 24  1  0  0  0  0
  4 25  1  0  0  0  0
  5  6  2  0  0  0  0
  5  7  2  0  0  0  0
  5  8  1  0  0  0  0
  8  9  1  0  0  0  0
  8 26  1  0  0  0  0
  9 10  1  0  0  0  0
  9 27  1  0  0  0  0
  9 28  1  0  0  0  0
 10 18  1  0  0  0  0
 10 11  1  0  0  0  0
 10 17  1  0  0  0  0
 11 16  1  0  0  0  0
 11 12  2  0  0  0  0
 12 13  1  0  0  0  0
 12 29  1  0  0  0  0
 13 14  2  0  0  0  0
 13 30  1  0  0  0  0
 14 15  1  0  0  0  0
 14 37  1  0  0  0  0
 15 16  2  0  0  0  0
 15 31  1  0  0  0  0
 16 32  1  0  0  0  0
 17 18  1  0  0  0  0
 17 33  1  0  0  0  0
 17 34  1  0  0  0  0
 18 35  1  0  0  0  0
 18 36  1  0  0  0  0
M  CHG  1  14   1
M  END
> <s_m_source_file>
AV-unprocessed.smi

> <i_m_source_file_index>
2524

> <i_lp_mmshare_version>
43012

> <i_f3d_flags>
0

> <s_epik_input>
W0NIMl09W0NIXVtDSDJdW0NIMl1TKD1PKSg9TylbTkhdW0NIMl1DMShbQ0gyXVtDSDJdMSljMltjSF1bY0hdbltjSF1bY0hdMg==

> <s_epik_cmdline>
J2VwaWtfcHl0aG9uJywgJy1waCcsICc3LjAnLCAnLXRuJywgJzgnLCAnLW1hJywgJzIwMCcsICctbWV0YWxfYmluZGluZycsICctaW1hZScsICc8aW5maWxlLm1hZT4nLCAnLW9tYWUnLCAnPG91dGZpbGUubWFlPic=

> <r_epik_Ionization_Penalty>
1.70311

> <r_epik_Ionization_Penalty_Charging>
1.7031

> <r_epik_Ionization_Penalty_Neutral>
1.31612e-05

> <r_epik_State_Penalty>
1.80925

> <r_epik_Charging_Adjusted_Penalty>
3.51235

> <i_epik_Tot_Q>
1

> <i_epik_Tot_abs_Q>
1

> <r_epik_Metal_State_Penalty>
1.86078

> <b_epik_Metal_Only>
0

> <s_lp_Force_Field>
OPLS_2005

> <r_lp_Energy>
15.9515

> <b_lp_Chiralities_Consistent>
1

> <s_lp_Variant>
AV-unprocessed.smi:2524-2

> <Gold.Version>
5.8.1

> <Gold.Id.Protein>
6NUR|6NUR_protein|mol2

> <Gold.PLP.Fitness>
47.9102

> <Gold.PLP.PLP>
-40.2751

> <Gold.PLP.part.hbond>
-2.8073

> <Gold.PLP.part.metal>
0.0000

> <Gold.PLP.part.buried>
-3.3222

> <Gold.PLP.part.nonpolar>
-33.6843

> <Gold.PLP.part.repulsive>
0.0199

> <Gold.PLP.ligand.clash>
0.0000

> <Gold.PLP.ligand.torsion>
1.4689

> <Gold.PLP.Chemscore.Hbond>
3.0000

> <Gold.PLP.Chemscore.CHOScore>
0.0000

> <Gold.PLP.Chemscore.Metal>
0.0000

> <Gold.Chemscore.Hbonds>
donor molecule, donor type, donor heavy atom, donor atom, acceptor molecule, acceptor atom, score
      L1  H    14    37       P1 10175  2.00
      P1  H  7997  8010       L1     6  1.00

> <Gold.PLP.Chemscore.Internal.Correction>
1.5728

> <Gold.Rescore>
     Score         DG    S(hbond)    S(metal)    S(lipo)     H(rot)  DE(clash)    DE(int)     intcor
     18.03     -19.37       1.93        0.00     106.90       1.97       0.07       1.27       ----

> <Gold.Chemscore.Fitness>
18.0278

> <Gold.Chemscore.DG>
-19.3677

> <Gold.Chemscore.ZeroCoef>
-5.4800

> <Gold.Chemscore.Hbond>
1.9267

> <Gold.Chemscore.Metal>
0.0000

> <Gold.Chemscore.Lipo>
106.8995

> <Gold.Chemscore.Internal_Hbond>
0.0000

> <Gold.Chemscore.DEClash>
0.0659

> <Gold.Chemscore.DEInternal>
1.2741

> <Gold.Chemscore.Rot>
1.9744

> <Gold.Chemscore.Internal.Correction>
   9.000000E+99

> <Gold.Chemscore.Hbonds>
donor molecule, donor type, donor heavy atom, donor atom, acceptor molecule, acceptor atom, score
      L1  H    14    37       P1 10175  0.36
      P1  H  7997  8010       L1     6  0.40

> <Gold.Chemscore.Hbond.Weighted>
-6.4350

> <Gold.Chemscore.Metal.Weighted>
-0.0000

> <Gold.Chemscore.Lipo.Weighted>
-12.5072

> <Gold.Chemscore.Internal_Hbond.Weighted>
0.0000

> <Gold.Chemscore.DEClash.Weighted>
0.0659

> <Gold.Chemscore.DEInternal.Weighted>
1.2741

> <Gold.Chemscore.Rot.Weighted>
5.0546

> <Gold.Chemscore.Internal.Correction.Weighted>
   9.000000E+99

> <Gold.Protein.RotatedTorsions>
[ 6907 6896 6895 6894 ] final   11.04 input  -60.11 | X-H torsion
[ 7974 7965 7964 7962 ] final  -73.26 input  175.53 | X-H torsion
[ 8008 7997 7996 7995 ] final   35.81 input   59.86 | X-H torsion
[ 10167 10162 10161 10158 ] final   89.43 input  -65.29 | X-H torsion
[ 10718 10713 10712 10709 ] final -122.14 input   66.30 | X-H torsion
[ 10763 10752 10751 10750 ] final -163.15 input  -60.55 | X-H torsion
[ 11005 11000 10999 10996 ] final  -92.96 input  -57.11 | X-H torsion

> <Gold.Protein.ActiveResidues>
 VAL166  LYS551  ARG553  GLY616  TRP617  ASP618  TYR619  PRO620  LYS621  CYS622 
 ASP623  PHE694  ASN695  SER759  ASP760  ASP761  ALA762  ILE779  LEU786  VAL792 
 PHE793  MET794  SER795  GLU796  ALA797  LYS798  CYS799  TRP800  GLU811  SER814 

> <Gold.Protein.RotatedAtoms>
  151.7479  135.0839  160.0325 H   0  0  0  0  0  0  0  0  0  0  0  0  # atno 6907 bound_to 6896
  152.3436  133.6092  159.5903 H   0  0  0  0  0  0  0  0  0  0  0  0  # atno 6908 bound_to 6896
  150.7495  133.9599  159.3554 H   0  0  0  0  0  0  0  0  0  0  0  0  # atno 6909 bound_to 6896
  145.6544  140.9272  143.0967 H   0  0  0  0  0  0  0  0  0  0  0  0  # atno 7974 bound_to 7965
  155.1771  140.3297  155.4382 H   0  0  0  0  0  0  0  0  0  0  0  0  # atno 8008 bound_to 7997
  156.2490  140.1933  156.6822 H   0  0  0  0  0  0  0  0  0  0  0  0  # atno 8009 bound_to 7997
  154.6297  140.0584  156.9703 H   0  0  0  0  0  0  0  0  0  0  0  0  # atno 8010 bound_to 7997
  139.8573  144.6562  150.9099 H   0  0  0  0  0  0  0  0  0  0  0  0  # atno 10167 bound_to 10162
  156.1394  130.6454  150.9747 H   0  0  0  0  0  0  0  0  0  0  0  0  # atno 10718 bound_to 10713
  154.7149  135.3013  154.9140 H   0  0  0  0  0  0  0  0  0  0  0  0  # atno 10763 bound_to 10752
  154.0030  135.6704  153.4764 H   0  0  0  0  0  0  0  0  0  0  0  0  # atno 10764 bound_to 10752
  153.0785  135.5022  154.8369 H   0  0  0  0  0  0  0  0  0  0  0  0  # atno 10765 bound_to 10752
  141.1509  133.7855  157.0092 H   0  0  0  0  0  0  0  0  0  0  0  0  # atno 11005 bound_to 11000
  144.7111  139.8368  143.7414 LP  0  0  0  0  0  0  0  0  0  0  0  0  # atno 17320 bound_to 7965
  146.1177  139.4190  143.0248 LP  0  0  0  0  0  0  0  0  0  0  0  0  # atno 17321 bound_to 7965
  140.7780  143.3774  151.1538 LP  0  0  0  0  0  0  0  0  0  0  0  0  # atno 17342 bound_to 10162
  139.7407  143.8929  152.3049 LP  0  0  0  0  0  0  0  0  0  0  0  0  # atno 17343 bound_to 10162
  157.6562  131.0889  150.7942 LP  0  0  0  0  0  0  0  0  0  0  0  0  # atno 17370 bound_to 10713
  156.8019  130.4924  149.5368 LP  0  0  0  0  0  0  0  0  0  0  0  0  # atno 17371 bound_to 10713
  140.0888  134.9604  157.1744 LP  0  0  0  0  0  0  0  0  0  0  0  0  # atno 17394 bound_to 11000
  140.3474  134.2637  155.7203 LP  0  0  0  0  0  0  0  0  0  0  0  0  # atno 17395 bound_to 11000

$$$$
