AV-unprocessed.smi:2784|AV-procd|sdf|10736|dock4
  -GOLD-   2272015173D 1   1.00000     0.00000
 Structure written by MMmdl.
 31 32  0  0  0  0  0  0  0  0  1 V2000
  153.3841  141.9588  160.3371 C   0  0  0  0  0  0  0  0  0  0  0  0
  152.5282  142.5046  159.3469 O   0  0  0  0  0  0  0  0  0  0  0  0
  152.6557  143.9155  159.1909 C   0  0  2  0  0  0  0  0  0  0  0  0
  152.1969  144.5455  160.5071 C   0  0  0  0  0  0  0  0  0  0  0  0
  150.6755  144.5875  160.3940 C   0  0  0  0  0  0  0  0  0  0  0  0
  150.4049  144.9008  158.9201 C   0  0  0  0  0  0  0  0  0  0  0  0
  151.6579  144.4558  158.1397 C   0  0  2  0  0  0  0  0  0  0  0  0
  151.3149  143.4703  157.1158 N   0  0  0  0  0  0  0  0  0  0  0  0
  150.6377  142.3317  157.3242 C   0  0  0  0  0  0  0  0  0  0  0  0
  150.2422  142.0129  158.4502 O   0  0  0  0  0  0  0  0  0  0  0  0
  150.4748  141.6510  156.1259 N   0  0  0  0  0  0  0  0  0  0  0  0
  151.1566  140.5718  155.8911 C   0  0  0  0  0  0  0  0  0  0  0  0
  152.1092  139.8713  156.6266 N   0  0  0  0  0  0  0  0  0  0  0  0
  152.5064  138.7904  155.8902 C   0  0  0  0  0  0  0  0  0  0  0  0
  151.8354  138.8052  154.7425 C   0  0  0  0  0  0  0  0  0  0  0  0
  151.0025  139.8833  154.7143 O   0  0  0  0  0  0  0  0  0  0  0  0
  153.2631  140.8762  160.3687 H   0  0  0  0  0  0  0  0  0  0  0  0
  153.1396  142.3544  161.3237 H   0  0  0  0  0  0  0  0  0  0  0  0
  154.4315  142.1744  160.1240 H   0  0  0  0  0  0  0  0  0  0  0  0
  153.6824  144.2075  158.9604 H   0  0  0  0  0  0  0  0  0  0  0  0
  152.5414  143.9969  161.3845 H   0  0  0  0  0  0  0  0  0  0  0  0
  152.5837  145.5629  160.5805 H   0  0  0  0  0  0  0  0  0  0  0  0
  150.2648  143.6078  160.6427 H   0  0  0  0  0  0  0  0  0  0  0  0
  150.2247  145.3168  161.0673 H   0  0  0  0  0  0  0  0  0  0  0  0
  149.4917  144.4121  158.5771 H   0  0  0  0  0  0  0  0  0  0  0  0
  150.2582  145.9741  158.7912 H   0  0  0  0  0  0  0  0  0  0  0  0
  152.0849  145.3444  157.6708 H   0  0  0  0  0  0  0  0  0  0  0  0
  151.6016  143.6805  156.1706 H   0  0  0  0  0  0  0  0  0  0  0  0
  152.4736  140.0882  157.5433 H   0  0  0  0  0  0  0  0  0  0  0  0
  153.2475  138.1069  156.2779 H   0  0  0  0  0  0  0  0  0  0  0  0
  151.8373  138.1509  153.8830 H   0  0  0  0  0  0  0  0  0  0  0  0
  1  2  1  0  0  0  0
  1 17  1  0  0  0  0
  1 18  1  0  0  0  0
  1 19  1  0  0  0  0
  2  3  1  0  0  0  0
  3  7  1  0  0  0  0
  3  4  1  0  0  0  0
  3 20  1  0  0  0  0
  4  5  1  0  0  0  0
  4 21  1  0  0  0  0
  4 22  1  0  0  0  0
  5  6  1  0  0  0  0
  5 23  1  0  0  0  0
  5 24  1  0  0  0  0
  6  7  1  0  0  0  0
  6 25  1  0  0  0  0
  6 26  1  0  0  0  0
  7  8  1  0  0  0  0
  7 27  1  0  0  0  0
  8 28  1  0  0  0  0
  8  9  1  0  0  0  0
  9 11  1  0  0  0  0
  9 10  2  0  0  0  0
 11 12  2  0  0  0  0
 12 16  1  0  0  0  0
 12 13  1  0  0  0  0
 13 29  1  0  0  0  0
 13 14  1  0  0  0  0
 14 30  1  0  0  0  0
 14 15  2  0  0  0  0
 15 31  1  0  0  0  0
 15 16  1  0  0  0  0
M  END
> <s_m_source_file>
AV-unprocessed.smi

> <i_m_source_file_index>
2784

> <i_lp_mmshare_version>
43012

> <i_f3d_flags>
0

> <s_epik_input>
W0NIM11PW0NAQEhdMVtDSDJdW0NIMl1bQ0gyXVtDQEhdMVtOSF1DKD1PKVtOSF1jMm5bY0hdW2NIXW8y

> <s_epik_cmdline>
J2VwaWtfcHl0aG9uJywgJy1waCcsICc3LjAnLCAnLXRuJywgJzgnLCAnLW1hJywgJzIwMCcsICctbWV0YWxfYmluZGluZycsICctaW1hZScsICc8aW5maWxlLm1hZT4nLCAnLW9tYWUnLCAnPG91dGZpbGUubWFlPic=

> <r_lp_tautomer_probability>
0.107061

> <r_epik_Ionization_Penalty>
1.29244

> <r_epik_Ionization_Penalty_Charging>
1.29208

> <r_epik_Ionization_Penalty_Neutral>
0.000359742

> <r_epik_State_Penalty>
2.59896

> <r_epik_Charging_Adjusted_Penalty>
3.89105

> <i_epik_Tot_Q>
0

> <i_epik_Tot_abs_Q>
0

> <r_epik_Metal_State_Penalty>
3.62496

> <b_epik_Metal_Only>
0

> <s_lp_Force_Field>
OPLS_2005

> <r_lp_Energy>
46.1047

> <b_lp_Chiralities_Consistent>
1

> <s_lp_Variant>
AV-unprocessed.smi:2784-11

> <Gold.Version>
5.8.1

> <Gold.Id.Protein>
6NUR|6NUR_protein|mol2

> <Gold.PLP.Fitness>
38.3596

> <Gold.PLP.PLP>
-36.8081

> <Gold.PLP.part.hbond>
-1.8643

> <Gold.PLP.part.metal>
0.0000

> <Gold.PLP.part.buried>
-6.3493

> <Gold.PLP.part.nonpolar>
-29.6129

> <Gold.PLP.part.repulsive>
0.3573

> <Gold.PLP.ligand.clash>
0.0000

> <Gold.PLP.ligand.torsion>
0.7315

> <Gold.PLP.Chemscore.Hbond>
1.0000

> <Gold.PLP.Chemscore.CHOScore>
0.0000

> <Gold.PLP.Chemscore.Metal>
0.0000

> <Gold.Chemscore.Hbonds>
donor molecule, donor type, donor heavy atom, donor atom, acceptor molecule, acceptor atom, score
      P1  H  7989  7998       L1    16  1.00

> <Gold.PLP.Chemscore.Internal.Correction>
0.0143

> <Gold.Rescore>
     Score         DG    S(hbond)    S(metal)    S(lipo)     H(rot)  DE(clash)    DE(int)     intcor
      9.39     -14.40       0.84        0.00      81.27       1.32       0.00       5.01       ----

> <Gold.Chemscore.Fitness>
9.3910

> <Gold.Chemscore.DG>
-14.4005

> <Gold.Chemscore.ZeroCoef>
-5.4800

> <Gold.Chemscore.Hbond>
0.8384

> <Gold.Chemscore.Metal>
0.0000

> <Gold.Chemscore.Lipo>
81.2684

> <Gold.Chemscore.Internal_Hbond>
0.0000

> <Gold.Chemscore.DEClash>
0.0000

> <Gold.Chemscore.DEInternal>
5.0095

> <Gold.Chemscore.Rot>
1.3235

> <Gold.Chemscore.Internal.Correction>
   9.000000E+99

> <Gold.Chemscore.Hbonds>
donor molecule, donor type, donor heavy atom, donor atom, acceptor molecule, acceptor atom, score
      P1  H  7989  7998       L1    16  0.27

> <Gold.Chemscore.Hbond.Weighted>
-2.8003

> <Gold.Chemscore.Metal.Weighted>
-0.0000

> <Gold.Chemscore.Lipo.Weighted>
-9.5084

> <Gold.Chemscore.Internal_Hbond.Weighted>
0.0000

> <Gold.Chemscore.DEClash.Weighted>
0.0000

> <Gold.Chemscore.DEInternal.Weighted>
5.0095

> <Gold.Chemscore.Rot.Weighted>
3.3882

> <Gold.Chemscore.Internal.Correction.Weighted>
   9.000000E+99

> <Gold.Protein.RotatedTorsions>
[ 6907 6896 6895 6894 ] final  -29.64 input  -60.11 | X-H torsion
[ 7974 7965 7964 7962 ] final -151.27 input  175.53 | X-H torsion
[ 8008 7997 7996 7995 ] final  114.22 input   59.86 | X-H torsion
[ 10167 10162 10161 10158 ] final   17.63 input  -65.29 | X-H torsion
[ 10718 10713 10712 10709 ] final  -54.74 input   66.30 | X-H torsion
[ 10763 10752 10751 10750 ] final  -69.01 input  -60.55 | X-H torsion
[ 11005 11000 10999 10996 ] final   84.22 input  -57.11 | X-H torsion

> <Gold.Protein.ActiveResidues>
 VAL166  LYS551  ARG553  GLY616  TRP617  ASP618  TYR619  PRO620  LYS621  CYS622 
 ASP623  PHE694  ASN695  SER759  ASP760  ASP761  ALA762  ILE779  LEU786  VAL792 
 PHE793  MET794  SER795  GLU796  ALA797  LYS798  CYS799  TRP800  GLU811  SER814 

> <Gold.Protein.RotatedAtoms>
  151.1164  135.0055  159.8517 H   0  0  0  0  0  0  0  0  0  0  0  0  # atno 6907 bound_to 6896
  152.5446  134.1775  159.8632 H   0  0  0  0  0  0  0  0  0  0  0  0  # atno 6908 bound_to 6896
  151.1829  133.4669  159.2627 H   0  0  0  0  0  0  0  0  0  0  0  0  # atno 6909 bound_to 6896
  144.7859  140.4820  143.5806 H   0  0  0  0  0  0  0  0  0  0  0  0  # atno 7974 bound_to 7965
  156.2308  140.2963  156.0183 H   0  0  0  0  0  0  0  0  0  0  0  0  # atno 8008 bound_to 7997
  155.2231  140.0416  157.2968 H   0  0  0  0  0  0  0  0  0  0  0  0  # atno 8009 bound_to 7997
  154.5992  140.2422  155.7823 H   0  0  0  0  0  0  0  0  0  0  0  0  # atno 8010 bound_to 7997
  140.5712  143.9158  150.6714 H   0  0  0  0  0  0  0  0  0  0  0  0  # atno 10167 bound_to 10162
  156.1426  130.4154  150.0078 H   0  0  0  0  0  0  0  0  0  0  0  0  # atno 10718 bound_to 10713
  154.3972  135.6039  153.5877 H   0  0  0  0  0  0  0  0  0  0  0  0  # atno 10763 bound_to 10752
  152.9788  135.5898  154.4227 H   0  0  0  0  0  0  0  0  0  0  0  0  # atno 10764 bound_to 10752
  154.4020  135.2843  155.2069 H   0  0  0  0  0  0  0  0  0  0  0  0  # atno 10765 bound_to 10752
  139.9007  134.8201  156.2416 H   0  0  0  0  0  0  0  0  0  0  0  0  # atno 11005 bound_to 11000
  145.5923  139.1496  143.3175 LP  0  0  0  0  0  0  0  0  0  0  0  0  # atno 17320 bound_to 7965
  146.2091  140.6048  142.9068 LP  0  0  0  0  0  0  0  0  0  0  0  0  # atno 17321 bound_to 7965
  140.2633  143.3508  152.1303 LP  0  0  0  0  0  0  0  0  0  0  0  0  # atno 17342 bound_to 10162
  139.5118  144.6907  151.5767 LP  0  0  0  0  0  0  0  0  0  0  0  0  # atno 17343 bound_to 10162
  156.7959  130.9273  151.3646 LP  0  0  0  0  0  0  0  0  0  0  0  0  # atno 17370 bound_to 10713
  157.6588  130.8948  149.9786 LP  0  0  0  0  0  0  0  0  0  0  0  0  # atno 17371 bound_to 10713
  141.0281  133.7004  156.1383 LP  0  0  0  0  0  0  0  0  0  0  0  0  # atno 17394 bound_to 11000
  140.7136  134.4435  157.5580 LP  0  0  0  0  0  0  0  0  0  0  0  0  # atno 17395 bound_to 11000

$$$$
