AV-unprocessed.smi:910|AV-procd|sdf|4125|dock10
  -GOLD-   22720 2 23D 1   1.00000     0.00000
 Structure written by MMmdl.
 46 47  0  0  0  0  0  0  0  0  1 V2000
  149.8720  131.0960  154.3121 C   0  0  0  0  0  0  0  0  0  0  0  0
  150.1183  132.0350  155.4722 C   0  0  0  0  0  0  0  0  0  0  0  0
  150.5182  133.3287  155.2859 N   0  0  0  0  0  0  0  0  0  0  0  0
  150.6523  133.9280  156.5362 C   0  0  0  0  0  0  0  0  0  0  0  0
  151.0082  135.1205  156.9043 N   0  0  0  0  0  0  0  0  0  0  0  0
  151.3164  136.0413  155.9174 C   0  0  0  0  0  0  0  0  0  0  0  0
  151.1435  135.9163  154.7007 O   0  0  0  0  0  0  0  0  0  0  0  0
  151.9262  137.1148  156.4435 N   0  0  0  0  0  0  0  0  0  0  0  0
  152.5012  138.2175  155.6790 C   0  0  0  0  0  0  0  0  0  0  0  0
  151.8329  139.5495  156.0469 C   0  0  0  0  0  0  0  0  0  0  0  0
  152.5367  140.1291  157.1355 O   0  0  0  0  0  0  0  0  0  0  0  0
  152.0782  139.7616  158.4310 C   0  0  1  0  0  0  0  0  0  0  0  0
  153.2259  139.1734  159.2820 C   0  0  0  0  0  0  0  0  0  0  0  0
  154.3328  140.2097  159.5344 C   0  0  0  0  0  0  0  0  0  0  0  0
  153.7633  141.4739  160.1946 C   0  0  0  0  0  0  0  0  0  0  0  0
  152.6146  142.0692  159.3645 C   0  0  0  0  0  0  0  0  0  0  0  0
  151.5047  141.0291  159.1050 C   0  0  1  0  0  0  0  0  0  0  0  0
  150.3364  141.6296  158.3079 C   0  0  0  0  0  0  0  0  0  0  0  0
  150.3270  132.9662  157.4591 O   0  0  0  0  0  0  0  0  0  0  0  0
  150.0068  131.8282  156.7817 C   0  0  0  0  0  0  0  0  0  0  0  0
  149.6029  130.6017  157.5680 C   0  0  0  0  0  0  0  0  0  0  0  0
  148.8453  130.7308  154.3336 H   0  0  0  0  0  0  0  0  0  0  0  0
  150.5447  130.2401  154.3708 H   0  0  0  0  0  0  0  0  0  0  0  0
  150.0376  131.5997  153.3592 H   0  0  0  0  0  0  0  0  0  0  0  0
  150.6754  133.7404  154.3770 H   0  0  0  0  0  0  0  0  0  0  0  0
  152.0442  137.1453  157.4459 H   0  0  0  0  0  0  0  0  0  0  0  0
  153.5812  138.2769  155.8225 H   0  0  0  0  0  0  0  0  0  0  0  0
  152.3424  138.0102  154.6207 H   0  0  0  0  0  0  0  0  0  0  0  0
  151.8582  140.2264  155.1920 H   0  0  0  0  0  0  0  0  0  0  0  0
  150.7863  139.3755  156.2947 H   0  0  0  0  0  0  0  0  0  0  0  0
  151.2796  139.0237  158.3357 H   0  0  0  0  0  0  0  0  0  0  0  0
  152.8241  138.8417  160.2402 H   0  0  0  0  0  0  0  0  0  0  0  0
  153.6480  138.2829  158.8184 H   0  0  0  0  0  0  0  0  0  0  0  0
  155.1092  139.7786  160.1668 H   0  0  0  0  0  0  0  0  0  0  0  0
  154.8139  140.4705  158.5910 H   0  0  0  0  0  0  0  0  0  0  0  0
  153.4024  141.2312  161.1947 H   0  0  0  0  0  0  0  0  0  0  0  0
  154.5537  142.2126  160.3245 H   0  0  0  0  0  0  0  0  0  0  0  0
  152.2014  142.9343  159.8841 H   0  0  0  0  0  0  0  0  0  0  0  0
  153.0040  142.4397  158.4156 H   0  0  0  0  0  0  0  0  0  0  0  0
  151.1045  140.7300  160.0750 H   0  0  0  0  0  0  0  0  0  0  0  0
  150.6602  141.9814  157.3278 H   0  0  0  0  0  0  0  0  0  0  0  0
  149.8979  142.4774  158.8348 H   0  0  0  0  0  0  0  0  0  0  0  0
  149.5470  140.8936  158.1536 H   0  0  0  0  0  0  0  0  0  0  0  0
  148.6682  130.1951  157.1817 H   0  0  0  0  0  0  0  0  0  0  0  0
  149.4629  130.8504  158.6200 H   0  0  0  0  0  0  0  0  0  0  0  0
  150.3732  129.8342  157.4925 H   0  0  0  0  0  0  0  0  0  0  0  0
  1 22  1  0  0  0  0
  1 23  1  0  0  0  0
  1 24  1  0  0  0  0
  1  2  1  0  0  0  0
  2  3  1  0  0  0  0
  2 20  2  0  0  0  0
  3 25  1  0  0  0  0
  3  4  1  0  0  0  0
  4 19  1  0  0  0  0
  4  5  2  0  0  0  0
  5  6  1  0  0  0  0
  6  8  1  0  0  0  0
  6  7  2  0  0  0  0
  8  9  1  0  0  0  0
  8 26  1  0  0  0  0
  9 10  1  0  0  0  0
  9 27  1  0  0  0  0
  9 28  1  0  0  0  0
 10 11  1  0  0  0  0
 10 29  1  0  0  0  0
 10 30  1  0  0  0  0
 11 12  1  0  0  0  0
 12 17  1  0  0  0  0
 12 13  1  0  0  0  0
 12 31  1  0  0  0  0
 13 14  1  0  0  0  0
 13 32  1  0  0  0  0
 13 33  1  0  0  0  0
 14 15  1  0  0  0  0
 14 34  1  0  0  0  0
 14 35  1  0  0  0  0
 15 16  1  0  0  0  0
 15 36  1  0  0  0  0
 15 37  1  0  0  0  0
 16 17  1  0  0  0  0
 16 38  1  0  0  0  0
 16 39  1  0  0  0  0
 17 18  1  0  0  0  0
 17 40  1  0  0  0  0
 18 41  1  0  0  0  0
 18 42  1  0  0  0  0
 18 43  1  0  0  0  0
 19 20  1  0  0  0  0
 20 21  1  0  0  0  0
 21 44  1  0  0  0  0
 21 45  1  0  0  0  0
 21 46  1  0  0  0  0
M  END
> <s_m_source_file>
AV-unprocessed.smi

> <i_m_source_file_index>
910

> <i_lp_mmshare_version>
43012

> <i_f3d_flags>
0

> <s_epik_input>
W0NIM11jMW5jKG9jMVtDSDNdKVtOSF1DKD1PKVtOSF1bQ0gyXVtDSDJdT1tDQEBIXTJbQ0gyXVtDSDJdW0NIMl1bQ0gyXVtDQEhdMltDSDNd

> <s_epik_cmdline>
J2VwaWtfcHl0aG9uJywgJy1waCcsICc3LjAnLCAnLXRuJywgJzgnLCAnLW1hJywgJzIwMCcsICctbWV0YWxfYmluZGluZycsICctaW1hZScsICc8aW5maWxlLm1hZT4nLCAnLW9tYWUnLCAnPG91dGZpbGUubWFlPic=

> <r_lp_tautomer_probability>
0.107061

> <r_epik_Ionization_Penalty>
0.727192

> <r_epik_Ionization_Penalty_Charging>
0.726719

> <r_epik_Ionization_Penalty_Neutral>
0.000473387

> <r_epik_State_Penalty>
2.53712

> <r_epik_Charging_Adjusted_Penalty>
3.26383

> <i_epik_Tot_Q>
0

> <i_epik_Tot_abs_Q>
0

> <r_epik_Metal_State_Penalty>
3.71015

> <b_epik_Metal_Only>
0

> <s_lp_Force_Field>
OPLS_2005

> <r_lp_Energy>
28.9635

> <b_lp_Chiralities_Consistent>
1

> <s_lp_Variant>
AV-unprocessed.smi:910-10

> <Gold.Version>
5.8.1

> <Gold.Id.Protein>
6NUR|6NUR_protein|mol2

> <Gold.PLP.Fitness>
38.1280

> <Gold.PLP.PLP>
-31.9052

> <Gold.PLP.part.hbond>
-3.1309

> <Gold.PLP.part.metal>
0.0000

> <Gold.PLP.part.buried>
-2.0506

> <Gold.PLP.part.nonpolar>
-26.1736

> <Gold.PLP.part.repulsive>
0.3444

> <Gold.PLP.ligand.clash>
0.0000

> <Gold.PLP.ligand.torsion>
1.1283

> <Gold.PLP.Chemscore.Hbond>
2.8160

> <Gold.PLP.Chemscore.CHOScore>
0.0000

> <Gold.PLP.Chemscore.Metal>
0.0000

> <Gold.Chemscore.Hbonds>
donor molecule, donor type, donor heavy atom, donor atom, acceptor molecule, acceptor atom, score
      P1  H  6896  6908       L1    19  1.00
      P1  H  7997  8009       L1    11  0.91
      P1  H 10752 10765       L1     7  0.70

> <Gold.PLP.Chemscore.Internal.Correction>
0.0314

> <Gold.Rescore>
     Score         DG    S(hbond)    S(metal)    S(lipo)     H(rot)  DE(clash)    DE(int)     intcor
     13.01     -15.74       1.60        0.00      78.17       1.66       0.14       2.59       ----

> <Gold.Chemscore.Fitness>
13.0096

> <Gold.Chemscore.DG>
-15.7396

> <Gold.Chemscore.ZeroCoef>
-5.4800

> <Gold.Chemscore.Hbond>
1.6041

> <Gold.Chemscore.Metal>
0.0000

> <Gold.Chemscore.Lipo>
78.1677

> <Gold.Chemscore.Internal_Hbond>
0.0000

> <Gold.Chemscore.DEClash>
0.1437

> <Gold.Chemscore.DEInternal>
2.5863

> <Gold.Chemscore.Rot>
1.6576

> <Gold.Chemscore.Internal.Correction>
   9.000000E+99

> <Gold.Chemscore.Hbonds>
donor molecule, donor type, donor heavy atom, donor atom, acceptor molecule, acceptor atom, score
      P1  H  6896  6908       L1    19  0.64
      P1  H  7997  8009       L1    11  0.66
      P1  H 10752 10765       L1     7  0.07

> <Gold.Chemscore.Hbond.Weighted>
-5.3575

> <Gold.Chemscore.Metal.Weighted>
-0.0000

> <Gold.Chemscore.Lipo.Weighted>
-9.1456

> <Gold.Chemscore.Internal_Hbond.Weighted>
0.0000

> <Gold.Chemscore.DEClash.Weighted>
0.1437

> <Gold.Chemscore.DEInternal.Weighted>
2.5863

> <Gold.Chemscore.Rot.Weighted>
4.2436

> <Gold.Chemscore.Internal.Correction.Weighted>
   9.000000E+99

> <Gold.Protein.RotatedTorsions>
[ 6907 6896 6895 6894 ] final  100.17 input  -60.11 | X-H torsion
[ 7974 7965 7964 7962 ] final  115.47 input  175.53 | X-H torsion
[ 8008 7997 7996 7995 ] final  164.75 input   59.86 | X-H torsion
[ 10167 10162 10161 10158 ] final   73.92 input  -65.29 | X-H torsion
[ 10718 10713 10712 10709 ] final -114.40 input   66.30 | X-H torsion
[ 10763 10752 10751 10750 ] final  164.62 input  -60.55 | X-H torsion
[ 11005 11000 10999 10996 ] final  121.80 input  -57.11 | X-H torsion

> <Gold.Protein.ActiveResidues>
 VAL166  LYS551  ARG553  GLY616  TRP617  ASP618  TYR619  PRO620  LYS621  CYS622 
 ASP623  PHE694  ASN695  SER759  ASP760  ASP761  ALA762  ILE779  LEU786  VAL792 
 PHE793  MET794  SER795  GLU796  ALA797  LYS798  CYS799  TRP800  GLU811  SER814 

> <Gold.Protein.RotatedAtoms>
  152.5377  134.0317  159.8027 H   0  0  0  0  0  0  0  0  0  0  0  0  # atno 6907 bound_to 6896
  151.0487  133.5635  159.2651 H   0  0  0  0  0  0  0  0  0  0  0  0  # atno 6908 bound_to 6896
  151.2577  135.0651  159.9140 H   0  0  0  0  0  0  0  0  0  0  0  0  # atno 6909 bound_to 6896
  145.1915  139.2997  143.4365 H   0  0  0  0  0  0  0  0  0  0  0  0  # atno 7974 bound_to 7965
  156.1855  140.1688  156.8193 H   0  0  0  0  0  0  0  0  0  0  0  0  # atno 8008 bound_to 7997
  154.5409  140.0737  156.8540 H   0  0  0  0  0  0  0  0  0  0  0  0  # atno 8009 bound_to 7997
  155.3217  140.3374  155.4243 H   0  0  0  0  0  0  0  0  0  0  0  0  # atno 8010 bound_to 7997
  140.0193  144.5553  150.7595 H   0  0  0  0  0  0  0  0  0  0  0  0  # atno 10167 bound_to 10162
  156.0828  130.6025  150.8770 H   0  0  0  0  0  0  0  0  0  0  0  0  # atno 10718 bound_to 10713
  154.3117  135.2757  155.2563 H   0  0  0  0  0  0  0  0  0  0  0  0  # atno 10763 bound_to 10752
  154.4955  135.5822  153.6495 H   0  0  0  0  0  0  0  0  0  0  0  0  # atno 10764 bound_to 10752
  152.9887  135.6145  154.3294 H   0  0  0  0  0  0  0  0  0  0  0  0  # atno 10765 bound_to 10752
  139.9241  134.9640  156.8014 H   0  0  0  0  0  0  0  0  0  0  0  0  # atno 11005 bound_to 11000
  146.3435  140.2130  142.8590 LP  0  0  0  0  0  0  0  0  0  0  0  0  # atno 17320 bound_to 7965
  145.0036  140.8653  143.5266 LP  0  0  0  0  0  0  0  0  0  0  0  0  # atno 17321 bound_to 7965
  140.7349  143.2734  151.3816 LP  0  0  0  0  0  0  0  0  0  0  0  0  # atno 17342 bound_to 10162
  139.6151  144.1020  152.2337 LP  0  0  0  0  0  0  0  0  0  0  0  0  # atno 17343 bound_to 10162
  157.5951  131.0943  150.9054 LP  0  0  0  0  0  0  0  0  0  0  0  0  # atno 17370 bound_to 10713
  156.9222  130.5319  149.5279 LP  0  0  0  0  0  0  0  0  0  0  0  0  # atno 17371 bound_to 10713
  140.6387  133.9838  155.7697 LP  0  0  0  0  0  0  0  0  0  0  0  0  # atno 17394 bound_to 11000
  141.0786  134.0097  157.3421 LP  0  0  0  0  0  0  0  0  0  0  0  0  # atno 17395 bound_to 11000

$$$$
