AV-unprocessed.smi:2902|AV-procd|sdf|11151|dock5
  -GOLD-   2272016 33D 1   1.00000     0.00000
 Structure written by MMmdl.
 47 48  0  0  0  0  0  0  0  0  1 V2000
  151.1314  144.6109  158.8314 C   0  0  0  0  0  0  0  0  0  0  0  0
  150.4996  143.3499  158.2287 C   0  0  0  0  0  0  0  0  0  0  0  0
  151.2551  142.0639  158.6129 C   0  0  2  0  0  0  0  0  0  0  0  0
  152.6549  142.3462  158.5523 O   0  0  0  0  0  0  0  0  0  0  0  0
  153.3802  142.3193  159.7802 C   0  0  0  0  0  0  0  0  0  0  0  0
  153.6720  140.9067  160.2946 C   0  0  0  0  0  0  0  0  0  0  0  0
  153.8713  141.0729  161.8054 C   0  0  0  0  0  0  0  0  0  0  0  0
  153.1623  142.3808  162.1923 C   0  0  0  0  0  0  0  0  0  0  0  0
  152.5422  142.9282  160.9022 C   0  0  0  0  0  0  0  0  0  0  0  0
  150.8995  140.9008  157.6723 C   0  0  0  0  0  0  0  0  0  0  0  0
  151.7714  140.1225  157.2855 O   0  0  0  0  0  0  0  0  0  0  0  0
  149.6049  140.7871  157.3363 N   0  0  0  0  0  0  0  0  0  0  0  0
  149.0263  139.7229  156.5197 C   0  0  2  0  0  0  0  0  0  0  0  0
  149.4229  138.3534  157.1040 C   0  0  0  0  0  0  0  0  0  0  0  0
  149.4480  139.9039  155.0388 C   0  0  2  0  0  0  0  0  0  0  0  0
  148.2959  139.6569  154.0464 C   0  0  0  0  0  0  0  0  0  0  0  0
  150.5847  139.0599  154.6977 N   0  0  0  0  0  0  0  0  0  0  0  0
  150.6336  137.8215  154.2008 C   0  0  0  0  0  0  0  0  0  0  0  0
  151.8643  137.3669  154.0114 N   0  0  0  0  0  0  0  0  0  0  0  0
  152.5755  138.4523  154.4380 C   0  0  0  0  0  0  0  0  0  0  0  0
  151.8574  139.4943  154.8571 N   0  0  0  0  0  0  0  0  0  0  0  0
  150.5710  145.5005  158.5435 H   0  0  0  0  0  0  0  0  0  0  0  0
  152.1587  144.7408  158.4899 H   0  0  0  0  0  0  0  0  0  0  0  0
  151.1434  144.5632  159.9205 H   0  0  0  0  0  0  0  0  0  0  0  0
  149.4643  143.2852  158.5670 H   0  0  0  0  0  0  0  0  0  0  0  0
  150.4617  143.4502  157.1432 H   0  0  0  0  0  0  0  0  0  0  0  0
  150.9740  141.7969  159.6329 H   0  0  0  0  0  0  0  0  0  0  0  0
  154.3083  142.8873  159.7071 H   0  0  0  0  0  0  0  0  0  0  0  0
  152.8091  140.2649  160.1108 H   0  0  0  0  0  0  0  0  0  0  0  0
  154.5348  140.4495  159.8093 H   0  0  0  0  0  0  0  0  0  0  0  0
  153.4760  140.2175  162.3536 H   0  0  0  0  0  0  0  0  0  0  0  0
  154.9342  141.1472  162.0389 H   0  0  0  0  0  0  0  0  0  0  0  0
  152.4077  142.2256  162.9637 H   0  0  0  0  0  0  0  0  0  0  0  0
  153.8907  143.0904  162.5867 H   0  0  0  0  0  0  0  0  0  0  0  0
  152.5277  144.0179  160.8714 H   0  0  0  0  0  0  0  0  0  0  0  0
  151.5111  142.5817  160.8202 H   0  0  0  0  0  0  0  0  0  0  0  0
  148.9634  141.4753  157.7026 H   0  0  0  0  0  0  0  0  0  0  0  0
  147.9383  139.8021  156.5649 H   0  0  0  0  0  0  0  0  0  0  0  0
  148.9432  137.5322  156.5716 H   0  0  0  0  0  0  0  0  0  0  0  0
  149.1270  138.2707  158.1503 H   0  0  0  0  0  0  0  0  0  0  0  0
  150.5010  138.1991  157.0508 H   0  0  0  0  0  0  0  0  0  0  0  0
  149.7653  140.9407  154.9094 H   0  0  0  0  0  0  0  0  0  0  0  0
  147.4874  140.3748  154.1821 H   0  0  0  0  0  0  0  0  0  0  0  0
  147.8768  138.6572  154.1638 H   0  0  0  0  0  0  0  0  0  0  0  0
  148.6401  139.7544  153.0163 H   0  0  0  0  0  0  0  0  0  0  0  0
  149.7513  137.2411  153.9745 H   0  0  0  0  0  0  0  0  0  0  0  0
  153.6554  138.4756  154.4385 H   0  0  0  0  0  0  0  0  0  0  0  0
  1  2  1  0  0  0  0
  1 22  1  0  0  0  0
  1 23  1  0  0  0  0
  1 24  1  0  0  0  0
  2  3  1  0  0  0  0
  2 25  1  0  0  0  0
  2 26  1  0  0  0  0
  3  4  1  0  0  0  0
  3 10  1  0  0  0  0
  3 27  1  0  0  0  0
  4  5  1  0  0  0  0
  5  9  1  0  0  0  0
  5  6  1  0  0  0  0
  5 28  1  0  0  0  0
  6  7  1  0  0  0  0
  6 29  1  0  0  0  0
  6 30  1  0  0  0  0
  7  8  1  0  0  0  0
  7 31  1  0  0  0  0
  7 32  1  0  0  0  0
  8  9  1  0  0  0  0
  8 33  1  0  0  0  0
  8 34  1  0  0  0  0
  9 35  1  0  0  0  0
  9 36  1  0  0  0  0
 10 11  2  0  0  0  0
 10 12  1  0  0  0  0
 12 13  1  0  0  0  0
 12 37  1  0  0  0  0
 13 14  1  0  0  0  0
 13 15  1  0  0  0  0
 13 38  1  0  0  0  0
 14 39  1  0  0  0  0
 14 40  1  0  0  0  0
 14 41  1  0  0  0  0
 15 16  1  0  0  0  0
 15 17  1  0  0  0  0
 15 42  1  0  0  0  0
 16 43  1  0  0  0  0
 16 44  1  0  0  0  0
 16 45  1  0  0  0  0
 17 21  1  0  0  0  0
 17 18  1  0  0  0  0
 18 19  2  0  0  0  0
 18 46  1  0  0  0  0
 19 20  1  0  0  0  0
 20 21  2  0  0  0  0
 20 47  1  0  0  0  0
M  END
> <s_m_source_file>
AV-unprocessed.smi

> <i_m_source_file_index>
2902

> <i_lp_mmshare_version>
43012

> <i_f3d_flags>
0

> <s_epik_input>
W0NIMl0xW0NIMl1bQ0gyXVtDSDJdW0NIXTFPW0NAQEhdKFtDSDJdW0NIM10pQyg9TylbTkhdW0NASF0oW0NIM10pW0NASF0oW0NIM10pbjJbY0hdbltjSF1uMg==

> <s_epik_cmdline>
J2VwaWtfcHl0aG9uJywgJy1waCcsICc3LjAnLCAnLXRuJywgJzgnLCAnLW1hJywgJzIwMCcsICctbWV0YWxfYmluZGluZycsICctaW1hZScsICc8aW5maWxlLm1hZT4nLCAnLW9tYWUnLCAnPG91dGZpbGUubWFlPic=

> <r_lp_tautomer_probability>
1

> <r_epik_Ionization_Penalty>
6.95617e-05

> <r_epik_Ionization_Penalty_Charging>
0

> <r_epik_Ionization_Penalty_Neutral>
6.95617e-05

> <r_epik_State_Penalty>
-0

> <r_epik_Charging_Adjusted_Penalty>
0

> <i_epik_Tot_Q>
0

> <i_epik_Tot_abs_Q>
0

> <r_epik_Metal_State_Penalty>
-0

> <b_epik_Metal_Only>
0

> <s_lp_Force_Field>
OPLS_2005

> <r_lp_Energy>
29.4531

> <b_lp_Chiralities_Consistent>
1

> <s_lp_Variant>
AV-unprocessed.smi:2902-1

> <Gold.Version>
5.8.1

> <Gold.Id.Protein>
6NUR|6NUR_protein|mol2

> <Gold.PLP.Fitness>
44.8300

> <Gold.PLP.PLP>
-44.8846

> <Gold.PLP.part.hbond>
-2.0000

> <Gold.PLP.part.metal>
0.0000

> <Gold.PLP.part.buried>
-6.5245

> <Gold.PLP.part.nonpolar>
-37.0739

> <Gold.PLP.part.repulsive>
0.2837

> <Gold.PLP.ligand.clash>
0.0000

> <Gold.PLP.ligand.torsion>
3.4892

> <Gold.PLP.Chemscore.Hbond>
1.4472

> <Gold.PLP.Chemscore.CHOScore>
0.8243

> <Gold.PLP.Chemscore.Metal>
0.0000

> <Gold.Chemscore.Hbonds>
donor molecule, donor type, donor heavy atom, donor atom, acceptor molecule, acceptor atom, score
      P1  H  7989  7998       L1    21  0.65
      P1  H 10752 10765       L1    19  1.00
      L1  C    18    46       P1  7948  1.00

> <Gold.PLP.Chemscore.Internal.Correction>
0.1093

> <Gold.Rescore>
     Score         DG    S(hbond)    S(metal)    S(lipo)     H(rot)  DE(clash)    DE(int)     intcor
      8.16     -14.15       1.38        0.00      93.52       2.69       0.27       5.72       ----

> <Gold.Chemscore.Fitness>
8.1574

> <Gold.Chemscore.DG>
-14.1491

> <Gold.Chemscore.ZeroCoef>
-5.4800

> <Gold.Chemscore.Hbond>
1.3841

> <Gold.Chemscore.Metal>
0.0000

> <Gold.Chemscore.Lipo>
93.5162

> <Gold.Chemscore.Internal_Hbond>
0.0000

> <Gold.Chemscore.DEClash>
0.2745

> <Gold.Chemscore.DEInternal>
5.7172

> <Gold.Chemscore.Rot>
2.6935

> <Gold.Chemscore.Internal.Correction>
   9.000000E+99

> <Gold.Chemscore.Hbonds>
donor molecule, donor type, donor heavy atom, donor atom, acceptor molecule, acceptor atom, score
      P1  H  7989  7998       L1    21  0.04
      P1  H 10752 10765       L1    19  0.68

> <Gold.Chemscore.Hbond.Weighted>
-4.6230

> <Gold.Chemscore.Metal.Weighted>
-0.0000

> <Gold.Chemscore.Lipo.Weighted>
-10.9414

> <Gold.Chemscore.Internal_Hbond.Weighted>
0.0000

> <Gold.Chemscore.DEClash.Weighted>
0.2745

> <Gold.Chemscore.DEInternal.Weighted>
5.7172

> <Gold.Chemscore.Rot.Weighted>
6.8954

> <Gold.Chemscore.Internal.Correction.Weighted>
   9.000000E+99

> <Gold.Protein.RotatedTorsions>
[ 6907 6896 6895 6894 ] final  116.37 input  -60.11 | X-H torsion
[ 7974 7965 7964 7962 ] final   -8.93 input  175.53 | X-H torsion
[ 8008 7997 7996 7995 ] final  173.22 input   59.86 | X-H torsion
[ 10167 10162 10161 10158 ] final -114.28 input  -65.29 | X-H torsion
[ 10718 10713 10712 10709 ] final   19.28 input   66.30 | X-H torsion
[ 10763 10752 10751 10750 ] final  150.63 input  -60.55 | X-H torsion
[ 11005 11000 10999 10996 ] final -172.58 input  -57.11 | X-H torsion

> <Gold.Protein.ActiveResidues>
 VAL166  LYS551  ARG553  GLY616  TRP617  ASP618  TYR619  PRO620  LYS621  CYS622 
 ASP623  PHE694  ASN695  SER759  ASP760  ASP761  ALA762  ILE779  LEU786  VAL792 
 PHE793  MET794  SER795  GLU796  ALA797  LYS798  CYS799  TRP800  GLU811  SER814 

> <Gold.Protein.RotatedAtoms>
  152.4682  133.7970  159.6932 H   0  0  0  0  0  0  0  0  0  0  0  0  # atno 6907 bound_to 6896
  150.8657  133.7568  159.2984 H   0  0  0  0  0  0  0  0  0  0  0  0  # atno 6908 bound_to 6896
  151.5119  135.1068  159.9908 H   0  0  0  0  0  0  0  0  0  0  0  0  # atno 6909 bound_to 6896
  146.2266  140.2540  142.8348 H   0  0  0  0  0  0  0  0  0  0  0  0  # atno 7974 bound_to 7965
  156.1097  140.1466  156.9355 H   0  0  0  0  0  0  0  0  0  0  0  0  # atno 8008 bound_to 7997
  154.4758  140.0895  156.7302 H   0  0  0  0  0  0  0  0  0  0  0  0  # atno 8009 bound_to 7997
  155.4617  140.3438  155.4316 H   0  0  0  0  0  0  0  0  0  0  0  0  # atno 8010 bound_to 7997
  140.1026  143.4599  152.1802 H   0  0  0  0  0  0  0  0  0  0  0  0  # atno 10167 bound_to 10162
  157.1082  130.6497  149.5890 H   0  0  0  0  0  0  0  0  0  0  0  0  # atno 10718 bound_to 10713
  154.0907  135.2852  155.3272 H   0  0  0  0  0  0  0  0  0  0  0  0  # atno 10763 bound_to 10752
  154.6622  135.5330  153.8035 H   0  0  0  0  0  0  0  0  0  0  0  0  # atno 10764 bound_to 10752
  153.0414  135.6536  154.1076 H   0  0  0  0  0  0  0  0  0  0  0  0  # atno 10765 bound_to 10752
  140.4954  134.5945  157.4969 H   0  0  0  0  0  0  0  0  0  0  0  0  # atno 11005 bound_to 11000
  144.9390  140.8057  143.5642 LP  0  0  0  0  0  0  0  0  0  0  0  0  # atno 17320 bound_to 7965
  145.2490  139.2039  143.4952 LP  0  0  0  0  0  0  0  0  0  0  0  0  # atno 17321 bound_to 7965
  139.5663  144.7437  151.4014 LP  0  0  0  0  0  0  0  0  0  0  0  0  # atno 17342 bound_to 10162
  140.6969  143.7726  150.7341 LP  0  0  0  0  0  0  0  0  0  0  0  0  # atno 17343 bound_to 10162
  155.9857  130.4888  150.7043 LP  0  0  0  0  0  0  0  0  0  0  0  0  # atno 17370 bound_to 10713
  157.4582  131.0880  151.0774 LP  0  0  0  0  0  0  0  0  0  0  0  0  # atno 17371 bound_to 10713
  139.9744  134.7239  155.9978 LP  0  0  0  0  0  0  0  0  0  0  0  0  # atno 17394 bound_to 11000
  141.1463  133.6555  156.3877 LP  0  0  0  0  0  0  0  0  0  0  0  0  # atno 17395 bound_to 11000

$$$$
