AV-unprocessed.smi:281|AV-procd|sdf|2102|dock3
  -GOLD-   2262021393D 1   1.00000     0.00000
 Structure written by MMmdl.
 55 59  0  0  0  0  0  0  0  0  1 V2000
  153.0084  138.8494  159.3566 C   0  0  0  0  0  0  0  0  0  0  0  0
  151.7496  138.3867  158.6168 C   0  0  1  0  0  0  0  0  0  0  0  0
  150.8596  137.4929  159.4926 C   0  0  0  0  0  0  0  0  0  0  0  0
  149.6522  137.1505  158.7574 N   0  0  0  0  0  0  0  0  0  0  0  0
  148.8799  136.2094  159.3382 C   0  0  0  0  0  0  0  0  0  0  0  0
  148.8427  134.9925  158.7431 N   0  0  0  0  0  0  0  0  0  0  0  0
  148.0971  134.0153  159.2680 C   0  0  0  0  0  0  0  0  0  0  0  0
  147.3269  134.0459  160.3580 N   0  0  0  0  0  0  0  0  0  0  0  0
  147.3547  135.2739  160.9517 C   0  0  0  0  0  0  0  0  0  0  0  0
  148.0978  136.4051  160.5115 C   0  0  0  0  0  0  0  0  0  0  0  0
  147.8737  137.4801  161.3633 N   0  0  0  0  0  0  0  0  0  0  0  0
  147.0514  137.0085  162.2604 C   0  0  0  0  0  0  0  0  0  0  0  0
  146.6838  135.6930  162.0873 N   0  0  0  0  0  0  0  0  0  0  0  0
  145.7870  134.9216  162.9343 C   0  0  0  0  0  0  0  0  0  0  0  0
  144.4296  134.6055  162.2647 C   0  0  1  0  0  0  0  0  0  0  0  0
  143.5344  134.1158  163.2485 O   0  0  0  0  0  0  0  0  0  0  0  0
  143.7820  135.7996  161.5703 C   0  0  0  0  0  0  0  0  0  0  0  0
  143.0193  135.1508  160.4239 C   0  0  0  0  0  0  0  0  0  0  0  0
  143.9117  134.1375  159.9925 O   0  0  0  0  0  0  0  0  0  0  0  0
  144.5325  133.5596  161.1369 C   0  0  0  0  0  0  0  0  0  0  0  0
  148.9089  138.3253  158.3276 C   0  0  0  0  0  0  0  0  0  0  0  0
  149.8082  139.2783  157.4998 C   0  0  2  0  0  0  0  0  0  0  0  0
  149.0950  140.5970  157.2487 C   0  0  0  0  0  0  0  0  0  0  0  0
  148.2214  140.2850  156.0385 C   0  0  0  0  0  0  0  0  0  0  0  0
  148.9175  139.2810  155.3070 O   0  0  0  0  0  0  0  0  0  0  0  0
  150.0337  138.7919  156.0495 C   0  0  1  0  0  0  0  0  0  0  0  0
  151.2851  139.3647  155.3566 C   0  0  0  0  0  0  0  0  0  0  0  0
  151.0152  139.5476  158.2220 O   0  0  0  0  0  0  0  0  0  0  0  0
  153.6117  137.9991  159.6750 H   0  0  0  0  0  0  0  0  0  0  0  0
  152.7531  139.4308  160.2430 H   0  0  0  0  0  0  0  0  0  0  0  0
  153.6282  139.4752  158.7144 H   0  0  0  0  0  0  0  0  0  0  0  0
  152.0553  137.8229  157.7353 H   0  0  0  0  0  0  0  0  0  0  0  0
  151.3948  136.5839  159.7710 H   0  0  0  0  0  0  0  0  0  0  0  0
  150.6041  138.0162  160.4144 H   0  0  0  0  0  0  0  0  0  0  0  0
  148.1211  133.0741  158.7387 H   0  0  0  0  0  0  0  0  0  0  0  0
  146.6835  137.6127  163.0770 H   0  0  0  0  0  0  0  0  0  0  0  0
  146.2924  133.9954  163.2108 H   0  0  0  0  0  0  0  0  0  0  0  0
  145.6326  135.4726  163.8630 H   0  0  0  0  0  0  0  0  0  0  0  0
  143.7471  133.2113  163.4218 H   0  0  0  0  0  0  0  0  0  0  0  0
  143.1509  136.4028  162.2242 H   0  0  0  0  0  0  0  0  0  0  0  0
  144.5479  136.4536  161.1522 H   0  0  0  0  0  0  0  0  0  0  0  0
  142.0893  134.7005  160.7743 H   0  0  0  0  0  0  0  0  0  0  0  0
  142.7856  135.8508  159.6216 H   0  0  0  0  0  0  0  0  0  0  0  0
  145.5666  133.3165  160.8911 H   0  0  0  0  0  0  0  0  0  0  0  0
  144.0318  132.6247  161.3943 H   0  0  0  0  0  0  0  0  0  0  0  0
  148.0364  138.0195  157.7483 H   0  0  0  0  0  0  0  0  0  0  0  0
  148.5360  138.8444  159.2118 H   0  0  0  0  0  0  0  0  0  0  0  0
  148.5241  140.9565  158.1053 H   0  0  0  0  0  0  0  0  0  0  0  0
  149.8164  141.3724  156.9882 H   0  0  0  0  0  0  0  0  0  0  0  0
  147.2578  139.8831  156.3529 H   0  0  0  0  0  0  0  0  0  0  0  0
  148.0350  141.1663  155.4246 H   0  0  0  0  0  0  0  0  0  0  0  0
  150.0660  137.7031  155.9959 H   0  0  0  0  0  0  0  0  0  0  0  0
  152.2060  139.0385  155.8370 H   0  0  0  0  0  0  0  0  0  0  0  0
  151.2833  140.4545  155.3537 H   0  0  0  0  0  0  0  0  0  0  0  0
  151.3311  139.0360  154.3182 H   0  0  0  0  0  0  0  0  0  0  0  0
  1  2  1  0  0  0  0
  1 29  1  0  0  0  0
  1 30  1  0  0  0  0
  1 31  1  0  0  0  0
  2 28  1  0  0  0  0
  2  3  1  0  0  0  0
  2 32  1  0  0  0  0
  3  4  1  0  0  0  0
  3 33  1  0  0  0  0
  3 34  1  0  0  0  0
  4  5  1  0  0  0  0
  4 21  1  0  0  0  0
  5 10  1  0  0  0  0
  5  6  2  0  0  0  0
  6  7  1  0  0  0  0
  7  8  2  0  0  0  0
  7 35  1  0  0  0  0
  8  9  1  0  0  0  0
  9 13  1  0  0  0  0
  9 10  2  0  0  0  0
 10 11  1  0  0  0  0
 11 12  2  0  0  0  0
 12 13  1  0  0  0  0
 12 36  1  0  0  0  0
 13 14  1  0  0  0  0
 14 15  1  0  0  0  0
 14 37  1  0  0  0  0
 14 38  1  0  0  0  0
 15 20  1  0  0  0  0
 15 16  1  0  0  0  0
 15 17  1  0  0  0  0
 16 39  1  0  0  0  0
 17 18  1  0  0  0  0
 17 40  1  0  0  0  0
 17 41  1  0  0  0  0
 18 19  1  0  0  0  0
 18 42  1  0  0  0  0
 18 43  1  0  0  0  0
 19 20  1  0  0  0  0
 20 44  1  0  0  0  0
 20 45  1  0  0  0  0
 21 22  1  0  0  0  0
 21 46  1  0  0  0  0
 21 47  1  0  0  0  0
 22 26  1  0  0  0  0
 22 23  1  0  0  0  0
 22 28  1  0  0  0  0
 23 24  1  0  0  0  0
 23 48  1  0  0  0  0
 23 49  1  0  0  0  0
 24 25  1  0  0  0  0
 24 50  1  0  0  0  0
 24 51  1  0  0  0  0
 25 26  1  0  0  0  0
 26 27  1  0  0  0  0
 26 52  1  0  0  0  0
 27 53  1  0  0  0  0
 27 54  1  0  0  0  0
 27 55  1  0  0  0  0
M  END
> <s_m_source_file>
AV-unprocessed.smi

> <i_m_source_file_index>
281

> <i_lp_mmshare_version>
43012

> <i_f3d_flags>
0

> <s_epik_input>
W0NIM11bQ0BASF0xT1tDSDJdW0NIMl1bQ0BAXTEyW0NIMl1OKFtDSDJdW0NASF0oTzIpW0NIM10pYyhuW2NIXW4zKWMoYzM0KW5bY0hdbjRbQ0gyXVtDQEBdNShbT0hdKVtDSDJdW0NIMl1PW0NIMl01

> <s_epik_cmdline>
J2VwaWtfcHl0aG9uJywgJy1waCcsICc3LjAnLCAnLXRuJywgJzgnLCAnLW1hJywgJzIwMCcsICctbWV0YWxfYmluZGluZycsICctaW1hZScsICc8aW5maWxlLm1hZT4nLCAnLW9tYWUnLCAnPG91dGZpbGUubWFlPic=

> <r_lp_tautomer_probability>
1

> <r_epik_Ionization_Penalty>
0.00571331

> <r_epik_Ionization_Penalty_Charging>
0

> <r_epik_Ionization_Penalty_Neutral>
0.00571331

> <r_epik_State_Penalty>
0.00399586

> <r_epik_Charging_Adjusted_Penalty>
0.00399586

> <i_epik_Tot_Q>
0

> <i_epik_Tot_abs_Q>
0

> <r_epik_Metal_State_Penalty>
-0

> <b_epik_Metal_Only>
0

> <s_lp_Force_Field>
OPLS_2005

> <r_lp_Energy>
56.2514

> <b_lp_Chiralities_Consistent>
1

> <s_lp_Variant>
AV-unprocessed.smi:281-2

> <Gold.Version>
5.8.1

> <Gold.Id.Protein>
6NUR|6NUR_protein|mol2

> <Gold.PLP.Fitness>
38.2641

> <Gold.PLP.PLP>
-31.9818

> <Gold.PLP.part.hbond>
-3.2789

> <Gold.PLP.part.metal>
0.0000

> <Gold.PLP.part.buried>
-4.4387

> <Gold.PLP.part.nonpolar>
-24.6115

> <Gold.PLP.part.repulsive>
0.0584

> <Gold.PLP.ligand.clash>
0.0000

> <Gold.PLP.ligand.torsion>
0.3399

> <Gold.PLP.Chemscore.Hbond>
2.2720

> <Gold.PLP.Chemscore.CHOScore>
0.0000

> <Gold.PLP.Chemscore.Metal>
0.0000

> <Gold.Chemscore.Hbonds>
donor molecule, donor type, donor heavy atom, donor atom, acceptor molecule, acceptor atom, score
      P1  H  6896  6908       L1     6  0.68
      P1  H  6931  6943       L1    11  0.79
      P1  H  6934  6947       L1    11  0.66

> <Gold.PLP.Chemscore.Internal.Correction>
0.1460

> <Gold.Rescore>
     Score         DG    S(hbond)    S(metal)    S(lipo)     H(rot)  DE(clash)    DE(int)     intcor
     12.01     -12.46       1.60        0.00      59.76       2.09       0.00       0.45       ----

> <Gold.Chemscore.Fitness>
12.0073

> <Gold.Chemscore.DG>
-12.4621

> <Gold.Chemscore.ZeroCoef>
-5.4800

> <Gold.Chemscore.Hbond>
1.6010

> <Gold.Chemscore.Metal>
0.0000

> <Gold.Chemscore.Lipo>
59.7623

> <Gold.Chemscore.Internal_Hbond>
0.0000

> <Gold.Chemscore.DEClash>
0.0048

> <Gold.Chemscore.DEInternal>
0.4501

> <Gold.Chemscore.Rot>
2.0927

> <Gold.Chemscore.Internal.Correction>
   9.000000E+99

> <Gold.Chemscore.Hbonds>
donor molecule, donor type, donor heavy atom, donor atom, acceptor molecule, acceptor atom, score
      P1  H  6896  6908       L1     6  0.02
      P1  H  6931  6943       L1    11  0.67
      P1  H  6934  6947       L1    11  0.30

> <Gold.Chemscore.Hbond.Weighted>
-5.3473

> <Gold.Chemscore.Metal.Weighted>
-0.0000

> <Gold.Chemscore.Lipo.Weighted>
-6.9922

> <Gold.Chemscore.Internal_Hbond.Weighted>
0.0000

> <Gold.Chemscore.DEClash.Weighted>
0.0048

> <Gold.Chemscore.DEInternal.Weighted>
0.4501

> <Gold.Chemscore.Rot.Weighted>
5.3573

> <Gold.Chemscore.Internal.Correction.Weighted>
   9.000000E+99

> <Gold.Protein.RotatedTorsions>
[ 6907 6896 6895 6894 ] final  155.24 input  -60.11 | X-H torsion
[ 7974 7965 7964 7962 ] final  -69.04 input  175.53 | X-H torsion
[ 8008 7997 7996 7995 ] final  -41.47 input   59.86 | X-H torsion
[ 10167 10162 10161 10158 ] final -111.23 input  -65.29 | X-H torsion
[ 10718 10713 10712 10709 ] final  122.45 input   66.30 | X-H torsion
[ 10763 10752 10751 10750 ] final -169.05 input  -60.55 | X-H torsion
[ 11005 11000 10999 10996 ] final  -70.26 input  -57.11 | X-H torsion

> <Gold.Protein.ActiveResidues>
 VAL166  LYS551  ARG553  GLY616  TRP617  ASP618  TYR619  PRO620  LYS621  CYS622 
 ASP623  PHE694  ASN695  SER759  ASP760  ASP761  ALA762  ILE779  LEU786  VAL792 
 PHE793  MET794  SER795  GLU796  ALA797  LYS798  CYS799  TRP800  GLU811  SER814 

> <Gold.Protein.RotatedAtoms>
  152.0469  133.4002  159.4360 H   0  0  0  0  0  0  0  0  0  0  0  0  # atno 6907 bound_to 6896
  150.6872  134.3351  159.4853 H   0  0  0  0  0  0  0  0  0  0  0  0  # atno 6908 bound_to 6896
  152.1157  134.9242  160.0615 H   0  0  0  0  0  0  0  0  0  0  0  0  # atno 6909 bound_to 6896
  145.7088  140.9087  143.0692 H   0  0  0  0  0  0  0  0  0  0  0  0  # atno 7974 bound_to 7965
  154.4004  140.1498  156.3196 H   0  0  0  0  0  0  0  0  0  0  0  0  # atno 8008 bound_to 7997
  155.8542  140.3456  155.5692 H   0  0  0  0  0  0  0  0  0  0  0  0  # atno 8009 bound_to 7997
  155.7951  140.0862  157.1978 H   0  0  0  0  0  0  0  0  0  0  0  0  # atno 8010 bound_to 7997
  140.1358  143.4321  152.1596 H   0  0  0  0  0  0  0  0  0  0  0  0  # atno 10167 bound_to 10162
  157.5741  131.1081  150.8311 H   0  0  0  0  0  0  0  0  0  0  0  0  # atno 10718 bound_to 10713
  154.6564  135.2918  154.9922 H   0  0  0  0  0  0  0  0  0  0  0  0  # atno 10763 bound_to 10752
  154.0997  135.6578  153.4870 H   0  0  0  0  0  0  0  0  0  0  0  0  # atno 10764 bound_to 10752
  153.0405  135.5239  154.7496 H   0  0  0  0  0  0  0  0  0  0  0  0  # atno 10765 bound_to 10752
  141.1570  133.6785  156.6725 H   0  0  0  0  0  0  0  0  0  0  0  0  # atno 11005 bound_to 11000
  144.6948  139.9046  143.7460 LP  0  0  0  0  0  0  0  0  0  0  0  0  # atno 17320 bound_to 7965
  146.0731  139.3720  143.0510 LP  0  0  0  0  0  0  0  0  0  0  0  0  # atno 17321 bound_to 7965
  139.5496  144.7327  151.4475 LP  0  0  0  0  0  0  0  0  0  0  0  0  # atno 17342 bound_to 10162
  140.6790  143.8125  150.7096 LP  0  0  0  0  0  0  0  0  0  0  0  0  # atno 17343 bound_to 10162
  156.8775  130.5167  149.5293 LP  0  0  0  0  0  0  0  0  0  0  0  0  # atno 17370 bound_to 10713
  156.0786  130.5802  150.9521 LP  0  0  0  0  0  0  0  0  0  0  0  0  # atno 17371 bound_to 10713
  140.3164  134.8044  157.4218 LP  0  0  0  0  0  0  0  0  0  0  0  0  # atno 17394 bound_to 11000
  140.1134  134.5315  155.8246 LP  0  0  0  0  0  0  0  0  0  0  0  0  # atno 17395 bound_to 11000

$$$$
