AV-unprocessed.smi:3206|AV-procd|sdf|12256|dock8
  -GOLD-   2272018 93D 1   1.00000     0.00000
 Structure written by MMmdl.
 42 43  0  0  0  0  0  0  0  0  2 V2000
  146.5164  139.0467  152.2083 C   0  0  0  0  0  0  0  0  0  0  0  0
  147.6302  139.7385  153.0074 C   0  0  2  0  0  0  0  0  0  0  0  0
  148.2286  138.8002  154.0718 C   0  0  0  0  0  0  0  0  0  0  0  0
  149.3388  139.4944  154.8778 C   0  0  0  0  0  0  0  0  0  0  0  0
  148.8366  140.7906  155.5435 C   0  0  1  0  0  0  0  0  0  0  0  0
  149.9628  141.4690  156.3450 C   0  0  0  0  0  0  0  0  0  0  0  0
  149.4686  142.6449  157.0880 N   0  3  0  0  0  0  0  0  0  0  0  0
  150.2305  142.9475  158.3166 C   0  0  0  0  0  0  0  0  0  0  0  0
  151.7413  142.7603  158.1088 C   0  0  0  0  0  0  0  0  0  0  0  0
  152.4641  142.3522  159.3568 C   0  0  0  0  0  0  0  0  0  0  0  0
  153.1215  141.2058  159.4981 N   0  0  0  0  0  0  0  0  0  0  0  0
  153.5932  141.3493  160.7710 C   0  0  0  0  0  0  0  0  0  0  0  0
  153.2781  142.4895  161.3800 N   0  0  0  0  0  0  0  0  0  0  0  0
  152.5441  143.1325  160.4432 N   0  0  0  0  0  0  0  0  0  0  0  0
  151.9979  144.4492  160.7109 C   0  0  0  0  0  0  0  0  0  0  0  0
  148.2400  141.7292  154.4727 C   0  0  0  0  0  0  0  0  0  0  0  0
  147.1296  141.0382  153.6645 C   0  0  0  0  0  0  0  0  0  0  0  0
  145.6864  138.7568  152.8534 H   0  0  0  0  0  0  0  0  0  0  0  0
  146.8862  138.1464  151.7166 H   0  0  0  0  0  0  0  0  0  0  0  0
  146.1219  139.7050  151.4341 H   0  0  0  0  0  0  0  0  0  0  0  0
  148.4236  139.9999  152.3052 H   0  0  0  0  0  0  0  0  0  0  0  0
  147.4437  138.4634  154.7504 H   0  0  0  0  0  0  0  0  0  0  0  0
  148.6294  137.9043  153.5961 H   0  0  0  0  0  0  0  0  0  0  0  0
  149.7177  138.8076  155.6358 H   0  0  0  0  0  0  0  0  0  0  0  0
  150.1790  139.7190  154.2191 H   0  0  0  0  0  0  0  0  0  0  0  0
  148.0431  140.5167  156.2411 H   0  0  0  0  0  0  0  0  0  0  0  0
  150.3825  140.7633  157.0634 H   0  0  0  0  0  0  0  0  0  0  0  0
  150.7744  141.7679  155.6801 H   0  0  0  0  0  0  0  0  0  0  0  0
  149.5088  143.4496  156.4787 H   0  0  0  0  0  0  0  0  0  0  0  0
  150.0220  143.9704  158.6336 H   0  0  0  0  0  0  0  0  0  0  0  0
  149.8873  142.2885  159.1148 H   0  0  0  0  0  0  0  0  0  0  0  0
  151.9162  142.0141  157.3333 H   0  0  0  0  0  0  0  0  0  0  0  0
  152.1827  143.6863  157.7379 H   0  0  0  0  0  0  0  0  0  0  0  0
  154.1910  140.5942  161.2597 H   0  0  0  0  0  0  0  0  0  0  0  0
  152.2985  145.1402  159.9231 H   0  0  0  0  0  0  0  0  0  0  0  0
  152.3601  144.8281  161.6676 H   0  0  0  0  0  0  0  0  0  0  0  0
  150.9096  144.3946  160.7427 H   0  0  0  0  0  0  0  0  0  0  0  0
  147.8344  142.6276  154.9388 H   0  0  0  0  0  0  0  0  0  0  0  0
  149.0265  142.0630  153.7943 H   0  0  0  0  0  0  0  0  0  0  0  0
  146.7554  141.7211  152.9010 H   0  0  0  0  0  0  0  0  0  0  0  0
  146.2860  140.8191  154.3209 H   0  0  0  0  0  0  0  0  0  0  0  0
  148.5038  142.4829  157.3409 H   0  0  0  0  0  0  0  0  0  0  0  0
  1  2  1  0  0  0  0
  1 18  1  0  0  0  0
  1 19  1  0  0  0  0
  1 20  1  0  0  0  0
  2 17  1  0  0  0  0
  2  3  1  0  0  0  0
  2 21  1  0  0  0  0
  3  4  1  0  0  0  0
  3 22  1  0  0  0  0
  3 23  1  0  0  0  0
  4  5  1  0  0  0  0
  4 24  1  0  0  0  0
  4 25  1  0  0  0  0
  5  6  1  0  0  0  0
  5 16  1  0  0  0  0
  5 26  1  0  0  0  0
  6  7  1  0  0  0  0
  6 27  1  0  0  0  0
  6 28  1  0  0  0  0
  7  8  1  0  0  0  0
  7 29  1  0  0  0  0
  7 42  1  0  0  0  0
  8  9  1  0  0  0  0
  8 30  1  0  0  0  0
  8 31  1  0  0  0  0
  9 10  1  0  0  0  0
  9 32  1  0  0  0  0
  9 33  1  0  0  0  0
 10 14  1  0  0  0  0
 10 11  2  0  0  0  0
 11 12  1  0  0  0  0
 12 13  2  0  0  0  0
 12 34  1  0  0  0  0
 13 14  1  0  0  0  0
 14 15  1  0  0  0  0
 15 35  1  0  0  0  0
 15 36  1  0  0  0  0
 15 37  1  0  0  0  0
 16 17  1  0  0  0  0
 16 38  1  0  0  0  0
 16 39  1  0  0  0  0
 17 40  1  0  0  0  0
 17 41  1  0  0  0  0
M  CHG  1   7   1
M  END
> <s_m_source_file>
AV-unprocessed.smi

> <i_m_source_file_index>
3206

> <i_lp_mmshare_version>
43012

> <i_f3d_flags>
0

> <s_epik_input>
W0NIM11bQ0BASF0xW0NIMl1bQ0gyXVtDQEhdKFtDSDJdW0NIMl0xKVtDSDJdW05IXVtDSDJdW0NIMl1jMm5bY0hdbm4yW0NIM10=

> <s_epik_cmdline>
J2VwaWtfcHl0aG9uJywgJy1waCcsICc3LjAnLCAnLXRuJywgJzgnLCAnLW1hJywgJzIwMCcsICctbWV0YWxfYmluZGluZycsICctaW1hZScsICc8aW5maWxlLm1hZT4nLCAnLW9tYWUnLCAnPG91dGZpbGUubWFlPic=

> <r_lp_tautomer_probability>
1

> <r_epik_Ionization_Penalty>
0.00114491

> <r_epik_Ionization_Penalty_Charging>
0.00114083

> <r_epik_Ionization_Penalty_Neutral>
4.0852e-06

> <r_epik_State_Penalty>
-0

> <r_epik_Charging_Adjusted_Penalty>
0.00114083

> <i_epik_Tot_Q>
1

> <i_epik_Tot_abs_Q>
1

> <r_epik_Metal_State_Penalty>
-0

> <b_epik_Metal_Only>
0

> <s_lp_Force_Field>
OPLS_2005

> <r_lp_Energy>
13.9676

> <b_lp_Chiralities_Consistent>
1

> <s_lp_Variant>
AV-unprocessed.smi:3206-1

> <Gold.Version>
5.8.1

> <Gold.Id.Protein>
6NUR|6NUR_protein|mol2

> <Gold.PLP.Fitness>
42.0924

> <Gold.PLP.PLP>
-37.0038

> <Gold.PLP.part.hbond>
-1.0000

> <Gold.PLP.part.metal>
0.0000

> <Gold.PLP.part.buried>
1.3533

> <Gold.PLP.part.nonpolar>
-37.1887

> <Gold.PLP.part.repulsive>
0.0294

> <Gold.PLP.ligand.clash>
0.0000

> <Gold.PLP.ligand.torsion>
0.4632

> <Gold.PLP.Chemscore.Hbond>
2.0000

> <Gold.PLP.Chemscore.CHOScore>
0.0000

> <Gold.PLP.Chemscore.Metal>
0.0000

> <Gold.Chemscore.Hbonds>
donor molecule, donor type, donor heavy atom, donor atom, acceptor molecule, acceptor atom, score
      L1  H     7    29       P1  8028  2.00

> <Gold.PLP.Chemscore.Internal.Correction>
0.0149

> <Gold.Rescore>
     Score         DG    S(hbond)    S(metal)    S(lipo)     H(rot)  DE(clash)    DE(int)     intcor
     11.58     -13.51       0.99        0.00      85.15       2.05       1.44       0.49       ----

> <Gold.Chemscore.Fitness>
11.5779

> <Gold.Chemscore.DG>
-13.5058

> <Gold.Chemscore.ZeroCoef>
-5.4800

> <Gold.Chemscore.Hbond>
0.9934

> <Gold.Chemscore.Metal>
0.0000

> <Gold.Chemscore.Lipo>
85.1529

> <Gold.Chemscore.Internal_Hbond>
0.0000

> <Gold.Chemscore.DEClash>
1.4401

> <Gold.Chemscore.DEInternal>
0.4877

> <Gold.Chemscore.Rot>
2.0528

> <Gold.Chemscore.Internal.Correction>
   9.000000E+99

> <Gold.Chemscore.Hbonds>
donor molecule, donor type, donor heavy atom, donor atom, acceptor molecule, acceptor atom, score
      L1  H     7    29       P1  8028  0.98

> <Gold.Chemscore.Hbond.Weighted>
-3.3180

> <Gold.Chemscore.Metal.Weighted>
-0.0000

> <Gold.Chemscore.Lipo.Weighted>
-9.9629

> <Gold.Chemscore.Internal_Hbond.Weighted>
0.0000

> <Gold.Chemscore.DEClash.Weighted>
1.4401

> <Gold.Chemscore.DEInternal.Weighted>
0.4877

> <Gold.Chemscore.Rot.Weighted>
5.2551

> <Gold.Chemscore.Internal.Correction.Weighted>
   9.000000E+99

> <Gold.Protein.RotatedTorsions>
[ 6907 6896 6895 6894 ] final  -41.03 input  -60.11 | X-H torsion
[ 7974 7965 7964 7962 ] final  -45.88 input  175.53 | X-H torsion
[ 8008 7997 7996 7995 ] final  -16.72 input   59.86 | X-H torsion
[ 10167 10162 10161 10158 ] final  152.08 input  -65.29 | X-H torsion
[ 10718 10713 10712 10709 ] final   70.72 input   66.30 | X-H torsion
[ 10763 10752 10751 10750 ] final  -40.26 input  -60.55 | X-H torsion
[ 11005 11000 10999 10996 ] final  -60.08 input  -57.11 | X-H torsion

> <Gold.Protein.ActiveResidues>
 VAL166  LYS551  ARG553  GLY616  TRP617  ASP618  TYR619  PRO620  LYS621  CYS622 
 ASP623  PHE694  ASN695  SER759  ASP760  ASP761  ALA762  ILE779  LEU786  VAL792 
 PHE793  MET794  SER795  GLU796  ALA797  LYS798  CYS799  TRP800  GLU811  SER814 

> <Gold.Protein.RotatedAtoms>
  150.9715  134.9087  159.7790 H   0  0  0  0  0  0  0  0  0  0  0  0  # atno 6907 bound_to 6896
  152.5192  134.3534  159.9269 H   0  0  0  0  0  0  0  0  0  0  0  0  # atno 6908 bound_to 6896
  151.3543  133.3873  159.2718 H   0  0  0  0  0  0  0  0  0  0  0  0  # atno 6909 bound_to 6896
  145.9776  140.7318  142.9379 H   0  0  0  0  0  0  0  0  0  0  0  0  # atno 7974 bound_to 7965
  154.5032  140.2162  155.9305 H   0  0  0  0  0  0  0  0  0  0  0  0  # atno 8008 bound_to 7997
  156.1460  140.3170  155.8538 H   0  0  0  0  0  0  0  0  0  0  0  0  # atno 8009 bound_to 7997
  155.4030  140.0485  157.3026 H   0  0  0  0  0  0  0  0  0  0  0  0  # atno 8010 bound_to 7997
  139.4835  144.5388  151.7600 H   0  0  0  0  0  0  0  0  0  0  0  0  # atno 10167 bound_to 10162
  157.6415  130.9492  150.0690 H   0  0  0  0  0  0  0  0  0  0  0  0  # atno 10718 bound_to 10713
  153.9430  135.6759  153.4744 H   0  0  0  0  0  0  0  0  0  0  0  0  # atno 10763 bound_to 10752
  153.0922  135.4869  154.8708 H   0  0  0  0  0  0  0  0  0  0  0  0  # atno 10764 bound_to 10752
  154.7367  135.3151  154.8758 H   0  0  0  0  0  0  0  0  0  0  0  0  # atno 10765 bound_to 10752
  141.1273  133.6620  156.5169 H   0  0  0  0  0  0  0  0  0  0  0  0  # atno 11005 bound_to 11000
  144.6853  140.2853  143.7286 LP  0  0  0  0  0  0  0  0  0  0  0  0  # atno 17320 bound_to 7965
  145.7816  139.1893  143.2154 LP  0  0  0  0  0  0  0  0  0  0  0  0  # atno 17321 bound_to 7965
  140.4924  144.1290  150.5953 LP  0  0  0  0  0  0  0  0  0  0  0  0  # atno 17342 bound_to 10162
  140.4156  143.2636  151.9779 LP  0  0  0  0  0  0  0  0  0  0  0  0  # atno 17343 bound_to 10162
  156.1700  130.3646  149.9179 LP  0  0  0  0  0  0  0  0  0  0  0  0  # atno 17370 bound_to 10713
  156.7156  130.8987  151.3613 LP  0  0  0  0  0  0  0  0  0  0  0  0  # atno 17371 bound_to 10713
  140.4324  134.7090  157.4949 LP  0  0  0  0  0  0  0  0  0  0  0  0  # atno 17394 bound_to 11000
  140.0285  134.6441  155.9139 LP  0  0  0  0  0  0  0  0  0  0  0  0  # atno 17395 bound_to 11000

$$$$
