AV-unprocessed.smi:3294|AV-procd|sdf|12634|dock5
  -GOLD-   2272018573D 1   1.00000     0.00000
 Structure written by MMmdl.
 38 40  0  0  0  0  0  0  0  0  2 V2000
  146.8152  139.4047  152.5025 C   0  0  0  0  0  0  0  0  0  0  0  0
  148.0471  139.5569  153.3697 C   0  0  0  0  0  0  0  0  0  0  0  0
  148.2619  140.6910  154.1820 C   0  0  0  0  0  0  0  0  0  0  0  0
  149.4391  140.7718  154.9687 C   0  0  0  0  0  0  0  0  0  0  0  0
  149.7377  141.8607  155.8321 N   0  0  0  0  0  0  0  0  0  0  0  0
  150.3344  141.8294  157.0362 C   0  0  0  0  0  0  0  0  0  0  0  0
  150.6998  140.8078  157.6172 O   0  0  0  0  0  0  0  0  0  0  0  0
  150.4656  143.0647  157.5440 N   0  0  0  0  0  0  0  0  0  0  0  0
  151.0529  143.4212  158.8349 C   0  0  0  0  0  0  0  0  0  0  0  0
  151.0366  144.9147  159.1276 C   0  0  0  0  0  0  0  0  0  0  0  0
  151.6666  145.4749  160.3805 C   0  0  0  0  0  0  0  0  0  0  0  0
  150.1630  145.4876  160.2173 C   0  0  0  0  0  0  0  0  0  0  0  0
  152.4408  142.8394  159.0588 C   0  0  0  0  0  0  0  0  0  0  0  0
  152.6244  141.4323  159.5743 C   0  0  0  0  0  0  0  0  0  0  0  0
  152.9797  142.6123  160.4512 C   0  0  0  0  0  0  0  0  0  0  0  0
  150.3505  139.6937  154.9330 C   0  0  0  0  0  0  0  0  0  0  0  0
  150.0843  138.5863  154.1027 C   0  0  0  0  0  0  0  0  0  0  0  0
  148.9580  138.5589  153.3587 N   0  3  0  0  0  0  0  0  0  0  0  0
  146.2143  140.3145  152.5097 H   0  0  0  0  0  0  0  0  0  0  0  0
  146.1957  138.5841  152.8652 H   0  0  0  0  0  0  0  0  0  0  0  0
  147.0983  139.1933  151.4709 H   0  0  0  0  0  0  0  0  0  0  0  0
  147.5171  141.4722  154.1987 H   0  0  0  0  0  0  0  0  0  0  0  0
  149.4067  142.7633  155.5245 H   0  0  0  0  0  0  0  0  0  0  0  0
  150.1269  143.8356  156.9871 H   0  0  0  0  0  0  0  0  0  0  0  0
  150.3956  142.9522  159.5684 H   0  0  0  0  0  0  0  0  0  0  0  0
  151.1479  145.5348  158.2402 H   0  0  0  0  0  0  0  0  0  0  0  0
  152.0846  144.7739  161.0999 H   0  0  0  0  0  0  0  0  0  0  0  0
  152.1910  146.4245  160.2961 H   0  0  0  0  0  0  0  0  0  0  0  0
  149.6851  146.4459  160.0244 H   0  0  0  0  0  0  0  0  0  0  0  0
  149.5872  144.7926  160.8251 H   0  0  0  0  0  0  0  0  0  0  0  0
  153.1761  143.1719  158.3283 H   0  0  0  0  0  0  0  0  0  0  0  0
  151.7321  140.8657  159.8329 H   0  0  0  0  0  0  0  0  0  0  0  0
  153.4430  140.8491  159.1577 H   0  0  0  0  0  0  0  0  0  0  0  0
  154.0353  142.8159  160.6193 H   0  0  0  0  0  0  0  0  0  0  0  0
  152.3244  142.8231  161.2939 H   0  0  0  0  0  0  0  0  0  0  0  0
  151.2508  139.7148  155.5300 H   0  0  0  0  0  0  0  0  0  0  0  0
  150.7325  137.7268  154.0137 H   0  0  0  0  0  0  0  0  0  0  0  0
  148.7842  137.7468  152.7658 H   0  0  0  0  0  0  0  0  0  0  0  0
  1  2  1  0  0  0  0
  1 19  1  0  0  0  0
  1 20  1  0  0  0  0
  1 21  1  0  0  0  0
  2 18  1  0  0  0  0
  2  3  2  0  0  0  0
  3  4  1  0  0  0  0
  3 22  1  0  0  0  0
  4  5  1  0  0  0  0
  4 16  2  0  0  0  0
  5  6  1  0  0  0  0
  5 23  1  0  0  0  0
  6  7  2  0  0  0  0
  6  8  1  0  0  0  0
  8  9  1  0  0  0  0
  8 24  1  0  0  0  0
  9 10  1  0  0  0  0
  9 13  1  0  0  0  0
  9 25  1  0  0  0  0
 10 12  1  0  0  0  0
 10 11  1  0  0  0  0
 10 26  1  0  0  0  0
 11 12  1  0  0  0  0
 11 27  1  0  0  0  0
 11 28  1  0  0  0  0
 12 29  1  0  0  0  0
 12 30  1  0  0  0  0
 13 15  1  0  0  0  0
 13 14  1  0  0  0  0
 13 31  1  0  0  0  0
 14 15  1  0  0  0  0
 14 32  1  0  0  0  0
 14 33  1  0  0  0  0
 15 34  1  0  0  0  0
 15 35  1  0  0  0  0
 16 17  1  0  0  0  0
 16 36  1  0  0  0  0
 17 18  2  0  0  0  0
 17 37  1  0  0  0  0
 18 38  1  0  0  0  0
M  CHG  1  18   1
M  END
> <s_m_source_file>
AV-unprocessed.smi

> <i_m_source_file_index>
3294

> <i_lp_mmshare_version>
43012

> <i_f3d_flags>
0

> <s_epik_input>
W0NIM11jMVtjSF1jKFtjSF1bY0hdbjEpW05IXUMoPU8pW05IXVtDSF0oW0NIXTJbQ0gyXVtDSDJdMilbQ0hdM1tDSDJdW0NIMl0z

> <s_epik_cmdline>
J2VwaWtfcHl0aG9uJywgJy1waCcsICc3LjAnLCAnLXRuJywgJzgnLCAnLW1hJywgJzIwMCcsICctbWV0YWxfYmluZGluZycsICctaW1hZScsICc8aW5maWxlLm1hZT4nLCAnLW9tYWUnLCAnPG91dGZpbGUubWFlPic=

> <r_epik_Ionization_Penalty>
0.432398

> <r_epik_Ionization_Penalty_Charging>
0.432376

> <r_epik_Ionization_Penalty_Neutral>
2.18467e-05

> <r_epik_State_Penalty>
0.433859

> <r_epik_Charging_Adjusted_Penalty>
0.866235

> <i_epik_Tot_Q>
1

> <i_epik_Tot_abs_Q>
1

> <r_epik_Metal_State_Penalty>
0.667026

> <b_epik_Metal_Only>
0

> <s_lp_Force_Field>
OPLS_2005

> <r_lp_Energy>
34.1615

> <b_lp_Chiralities_Consistent>
1

> <s_lp_Variant>
AV-unprocessed.smi:3294-2

> <Gold.Version>
5.8.1

> <Gold.Id.Protein>
6NUR|6NUR_protein|mol2

> <Gold.PLP.Fitness>
53.2486

> <Gold.PLP.PLP>
-42.2860

> <Gold.PLP.part.hbond>
-4.0000

> <Gold.PLP.part.metal>
0.0000

> <Gold.PLP.part.buried>
-0.0484

> <Gold.PLP.part.nonpolar>
-39.7950

> <Gold.PLP.part.repulsive>
0.2226

> <Gold.PLP.ligand.clash>
0.0000

> <Gold.PLP.ligand.torsion>
1.6036

> <Gold.PLP.Chemscore.Hbond>
4.0000

> <Gold.PLP.Chemscore.CHOScore>
0.0000

> <Gold.PLP.Chemscore.Metal>
0.0000

> <Gold.Chemscore.Hbonds>
donor molecule, donor type, donor heavy atom, donor atom, acceptor molecule, acceptor atom, score
      L1  H     5    23       P1  8028  1.00
      L1  H     8    24       P1  8028  1.00
      L1  H    18    38       P1  7948  2.00

> <Gold.PLP.Chemscore.Internal.Correction>
2.1699

> <Gold.Rescore>
     Score         DG    S(hbond)    S(metal)    S(lipo)     H(rot)  DE(clash)    DE(int)     intcor
     21.56     -24.73       2.79        0.00     113.51       1.31       0.30       2.87       ----

> <Gold.Chemscore.Fitness>
21.5617

> <Gold.Chemscore.DG>
-24.7295

> <Gold.Chemscore.ZeroCoef>
-5.4800

> <Gold.Chemscore.Hbond>
2.7918

> <Gold.Chemscore.Metal>
0.0000

> <Gold.Chemscore.Lipo>
113.5149

> <Gold.Chemscore.Internal_Hbond>
0.0000

> <Gold.Chemscore.DEClash>
0.3011

> <Gold.Chemscore.DEInternal>
2.8667

> <Gold.Chemscore.Rot>
1.3111

> <Gold.Chemscore.Internal.Correction>
   9.000000E+99

> <Gold.Chemscore.Hbonds>
donor molecule, donor type, donor heavy atom, donor atom, acceptor molecule, acceptor atom, score
      L1  H     5    23       P1  8028  0.93
      L1  H     8    24       P1  8028  0.93
      L1  H    18    38       P1  7948  1.00

> <Gold.Chemscore.Hbond.Weighted>
-9.3247

> <Gold.Chemscore.Metal.Weighted>
-0.0000

> <Gold.Chemscore.Lipo.Weighted>
-13.2812

> <Gold.Chemscore.Internal_Hbond.Weighted>
0.0000

> <Gold.Chemscore.DEClash.Weighted>
0.3011

> <Gold.Chemscore.DEInternal.Weighted>
2.8667

> <Gold.Chemscore.Rot.Weighted>
3.3564

> <Gold.Chemscore.Internal.Correction.Weighted>
   9.000000E+99

> <Gold.Protein.RotatedTorsions>
[ 6907 6896 6895 6894 ] final   58.17 input  -60.11 | X-H torsion
[ 7974 7965 7964 7962 ] final  134.30 input  175.53 | X-H torsion
[ 8008 7997 7996 7995 ] final -164.90 input   59.86 | X-H torsion
[ 10167 10162 10161 10158 ] final   36.62 input  -65.29 | X-H torsion
[ 10718 10713 10712 10709 ] final  -11.81 input   66.30 | X-H torsion
[ 10763 10752 10751 10750 ] final  172.94 input  -60.55 | X-H torsion
[ 11005 11000 10999 10996 ] final -159.05 input  -57.11 | X-H torsion

> <Gold.Protein.ActiveResidues>
 VAL166  LYS551  ARG553  GLY616  TRP617  ASP618  TYR619  PRO620  LYS621  CYS622 
 ASP623  PHE694  ASN695  SER759  ASP760  ASP761  ALA762  ILE779  LEU786  VAL792 
 PHE793  MET794  SER795  GLU796  ALA797  LYS798  CYS799  TRP800  GLU811  SER814 

> <Gold.Protein.RotatedAtoms>
  152.3799  134.6606  160.0146 H   0  0  0  0  0  0  0  0  0  0  0  0  # atno 6907 bound_to 6896
  151.6872  133.3306  159.3242 H   0  0  0  0  0  0  0  0  0  0  0  0  # atno 6908 bound_to 6896
  150.7739  134.6665  159.6413 H   0  0  0  0  0  0  0  0  0  0  0  0  # atno 6909 bound_to 6896
  144.9777  139.4537  143.5401 H   0  0  0  0  0  0  0  0  0  0  0  0  # atno 7974 bound_to 7965
  155.8422  140.0950  157.1727 H   0  0  0  0  0  0  0  0  0  0  0  0  # atno 8008 bound_to 7997
  154.3982  140.1399  156.3804 H   0  0  0  0  0  0  0  0  0  0  0  0  # atno 8009 bound_to 7997
  155.8052  140.3451  155.5428 H   0  0  0  0  0  0  0  0  0  0  0  0  # atno 8010 bound_to 7997
  140.4110  144.1592  150.6139 H   0  0  0  0  0  0  0  0  0  0  0  0  # atno 10167 bound_to 10162
  156.6537  130.4962  149.6053 H   0  0  0  0  0  0  0  0  0  0  0  0  # atno 10718 bound_to 10713
  154.4331  135.2760  155.1898 H   0  0  0  0  0  0  0  0  0  0  0  0  # atno 10763 bound_to 10752
  154.3796  135.6090  153.5787 H   0  0  0  0  0  0  0  0  0  0  0  0  # atno 10764 bound_to 10752
  152.9837  135.5877  154.4646 H   0  0  0  0  0  0  0  0  0  0  0  0  # atno 10765 bound_to 10752
  140.6468  134.4492  157.5234 H   0  0  0  0  0  0  0  0  0  0  0  0  # atno 11005 bound_to 11000
  146.3400  139.9030  142.8791 LP  0  0  0  0  0  0  0  0  0  0  0  0  # atno 17320 bound_to 7965
  145.2466  141.0029  143.3905 LP  0  0  0  0  0  0  0  0  0  0  0  0  # atno 17321 bound_to 7965
  140.4637  143.2439  151.9184 LP  0  0  0  0  0  0  0  0  0  0  0  0  # atno 17342 bound_to 10162
  139.4782  144.5441  151.8484 LP  0  0  0  0  0  0  0  0  0  0  0  0  # atno 17343 bound_to 10162
  156.2064  130.6652  151.1223 LP  0  0  0  0  0  0  0  0  0  0  0  0  # atno 17370 bound_to 10713
  157.7132  131.0723  150.6423 LP  0  0  0  0  0  0  0  0  0  0  0  0  # atno 17371 bound_to 10713
  139.9060  134.8449  156.1706 LP  0  0  0  0  0  0  0  0  0  0  0  0  # atno 17394 bound_to 11000
  141.0566  133.6862  156.1872 LP  0  0  0  0  0  0  0  0  0  0  0  0  # atno 17395 bound_to 11000

$$$$
