AV-unprocessed.smi:1956|AV-procd|sdf|7901|dock4
  -GOLD-   2272010 53D 1   1.00000     0.00000
 Structure written by MMmdl.
 46 47  0  0  0  0  0  0  0  0  2 V2000
  152.0734  141.7551  158.7672 C   0  0  0  0  0  0  0  0  0  0  0  0
  152.7197  141.2635  157.5980 O   0  0  0  0  0  0  0  0  0  0  0  0
  151.9390  140.7267  156.5947 C   0  0  0  0  0  0  0  0  0  0  0  0
  150.5530  140.9791  156.6108 C   0  0  0  0  0  0  0  0  0  0  0  0
  149.7526  140.4347  155.5889 C   0  0  0  0  0  0  0  0  0  0  0  0
  150.3589  139.6641  154.5764 C   0  0  0  0  0  0  0  0  0  0  0  0
  149.5246  139.1114  153.5672 N   0  0  0  0  0  0  0  0  0  0  0  0
  148.1880  139.1939  153.4521 C   0  0  0  0  0  0  0  0  0  0  0  0
  147.4355  139.7456  154.2550 O   0  0  0  0  0  0  0  0  0  0  0  0
  147.7548  138.5701  152.3473 N   0  0  0  0  0  0  0  0  0  0  0  0
  146.3586  138.4790  151.9353 C   0  0  0  0  0  0  0  0  0  0  0  0
  145.6046  137.3939  152.7283 C   0  0  0  0  0  0  0  0  0  0  0  0
  146.0706  136.0235  152.3979 N   0  3  2  0  0  0  0  0  0  0  0  0
  145.4795  135.5196  151.1311 C   0  0  0  0  0  0  0  0  0  0  0  0
  146.0950  134.1702  150.7284 C   0  0  0  0  0  0  0  0  0  0  0  0
  145.9476  133.1382  151.8553 C   0  0  0  0  0  0  0  0  0  0  0  0
  146.5036  133.6796  153.1854 C   0  0  1  0  0  0  0  0  0  0  0  0
  148.0415  133.7146  153.2198 C   0  0  0  0  0  0  0  0  0  0  0  0
  145.8832  135.0537  153.5116 C   0  0  0  0  0  0  0  0  0  0  0  0
  151.7579  139.4567  154.6556 C   0  0  0  0  0  0  0  0  0  0  0  0
  152.5304  139.9741  155.6343 N   0  0  0  0  0  0  0  0  0  0  0  0
  152.8231  142.1365  159.4604 H   0  0  0  0  0  0  0  0  0  0  0  0
  151.5204  140.9670  159.2802 H   0  0  0  0  0  0  0  0  0  0  0  0
  151.3935  142.5747  158.5312 H   0  0  0  0  0  0  0  0  0  0  0  0
  150.1118  141.5785  157.3933 H   0  0  0  0  0  0  0  0  0  0  0  0
  148.6870  140.6126  155.5831 H   0  0  0  0  0  0  0  0  0  0  0  0
  149.9981  138.5486  152.8757 H   0  0  0  0  0  0  0  0  0  0  0  0
  148.4396  138.1380  151.7438 H   0  0  0  0  0  0  0  0  0  0  0  0
  145.8710  139.4482  152.0545 H   0  0  0  0  0  0  0  0  0  0  0  0
  146.3521  138.2587  150.8686 H   0  0  0  0  0  0  0  0  0  0  0  0
  145.6916  137.5663  153.8022 H   0  0  0  0  0  0  0  0  0  0  0  0
  144.5428  137.4720  152.4900 H   0  0  0  0  0  0  0  0  0  0  0  0
  144.3987  135.4224  151.2456 H   0  0  0  0  0  0  0  0  0  0  0  0
  145.6501  136.2397  150.3299 H   0  0  0  0  0  0  0  0  0  0  0  0
  145.6146  133.7994  149.8224 H   0  0  0  0  0  0  0  0  0  0  0  0
  147.1484  134.3048  150.4803 H   0  0  0  0  0  0  0  0  0  0  0  0
  144.8910  132.8973  151.9800 H   0  0  0  0  0  0  0  0  0  0  0  0
  146.4425  132.2053  151.5833 H   0  0  0  0  0  0  0  0  0  0  0  0
  146.1956  132.9882  153.9707 H   0  0  0  0  0  0  0  0  0  0  0  0
  148.4514  134.3980  152.4762 H   0  0  0  0  0  0  0  0  0  0  0  0
  148.4602  132.7263  153.0284 H   0  0  0  0  0  0  0  0  0  0  0  0
  148.4027  134.0385  154.1964 H   0  0  0  0  0  0  0  0  0  0  0  0
  146.3232  135.4338  154.4328 H   0  0  0  0  0  0  0  0  0  0  0  0
  144.8156  134.9389  153.7056 H   0  0  0  0  0  0  0  0  0  0  0  0
  152.2873  138.8473  153.9400 H   0  0  0  0  0  0  0  0  0  0  0  0
  147.0646  136.0947  152.2328 H   0  0  0  0  0  0  0  0  0  0  0  0
  1  2  1  0  0  0  0
  1 22  1  0  0  0  0
  1 23  1  0  0  0  0
  1 24  1  0  0  0  0
  2  3  1  0  0  0  0
  3 21  1  0  0  0  0
  3  4  2  0  0  0  0
  4  5  1  0  0  0  0
  4 25  1  0  0  0  0
  5  6  2  0  0  0  0
  5 26  1  0  0  0  0
  6  7  1  0  0  0  0
  6 20  1  0  0  0  0
  7  8  1  0  0  0  0
  7 27  1  0  0  0  0
  8  9  2  0  0  0  0
  8 10  1  0  0  0  0
 10 11  1  0  0  0  0
 10 28  1  0  0  0  0
 11 12  1  0  0  0  0
 11 29  1  0  0  0  0
 11 30  1  0  0  0  0
 12 13  1  0  0  0  0
 12 31  1  0  0  0  0
 12 32  1  0  0  0  0
 13 19  1  0  0  0  0
 13 14  1  0  0  0  0
 13 46  1  0  0  0  0
 14 15  1  0  0  0  0
 14 33  1  0  0  0  0
 14 34  1  0  0  0  0
 15 16  1  0  0  0  0
 15 35  1  0  0  0  0
 15 36  1  0  0  0  0
 16 17  1  0  0  0  0
 16 37  1  0  0  0  0
 16 38  1  0  0  0  0
 17 18  1  0  0  0  0
 17 19  1  0  0  0  0
 17 39  1  0  0  0  0
 18 40  1  0  0  0  0
 18 41  1  0  0  0  0
 18 42  1  0  0  0  0
 19 43  1  0  0  0  0
 19 44  1  0  0  0  0
 20 21  2  0  0  0  0
 20 45  1  0  0  0  0
M  CHG  1  13   1
M  END
> <s_m_source_file>
AV-unprocessed.smi

> <i_m_source_file_index>
1956

> <i_lp_mmshare_version>
43012

> <i_f3d_flags>
0

> <s_epik_input>
W0NIM11PYzFbY0hdW2NIXWMoW2NIXW4xKVtOSF1DKD1PKVtOSF1bQ0gyXVtDSDJdTjJbQ0gyXVtDSDJdW0NIMl1bQ0BASF0oW0NIM10pW0NIMl0y

> <s_epik_cmdline>
J2VwaWtfcHl0aG9uJywgJy1waCcsICc3LjAnLCAnLXRuJywgJzgnLCAnLW1hJywgJzIwMCcsICctbWV0YWxfYmluZGluZycsICctaW1hZScsICc8aW5maWxlLm1hZT4nLCAnLW9tYWUnLCAnPG91dGZpbGUubWFlPic=

> <r_lp_tautomer_probability>
1

> <r_epik_Ionization_Penalty>
0.00179545

> <r_epik_Ionization_Penalty_Charging>
0.00171832

> <r_epik_Ionization_Penalty_Neutral>
7.7124e-05

> <r_epik_State_Penalty>
0.0011618

> <r_epik_Charging_Adjusted_Penalty>
0.00288012

> <i_epik_Tot_Q>
1

> <i_epik_Tot_abs_Q>
1

> <r_epik_Metal_State_Penalty>
-0

> <b_epik_Metal_Only>
0

> <s_lp_Force_Field>
OPLS_2005

> <r_lp_Energy>
22.351

> <b_lp_Chiralities_Consistent>
1

> <s_lp_Variant>
AV-unprocessed.smi:1956-2

> <Gold.Version>
5.8.1

> <Gold.Id.Protein>
6NUR|6NUR_protein|mol2

> <Gold.PLP.Fitness>
44.3246

> <Gold.PLP.PLP>
-34.6213

> <Gold.PLP.part.hbond>
-5.5235

> <Gold.PLP.part.metal>
0.0000

> <Gold.PLP.part.buried>
-2.2604

> <Gold.PLP.part.nonpolar>
-27.3208

> <Gold.PLP.part.repulsive>
0.2800

> <Gold.PLP.ligand.clash>
0.0000

> <Gold.PLP.ligand.torsion>
0.6024

> <Gold.PLP.Chemscore.Hbond>
3.6240

> <Gold.PLP.Chemscore.CHOScore>
0.0000

> <Gold.PLP.Chemscore.Metal>
0.0000

> <Gold.Chemscore.Hbonds>
donor molecule, donor type, donor heavy atom, donor atom, acceptor molecule, acceptor atom, score
      L1  H    10    28       P1  7948  0.51
      L1  H    13    46       P1  7948  2.00
      P1  H  7997  8010       L1    21  1.00

> <Gold.PLP.Chemscore.Internal.Correction>
0.0362

> <Gold.Rescore>
     Score         DG    S(hbond)    S(metal)    S(lipo)     H(rot)  DE(clash)    DE(int)     intcor
     16.51     -18.62       2.62        0.00      74.85       1.71       0.25       1.86       ----

> <Gold.Chemscore.Fitness>
16.5111

> <Gold.Chemscore.DG>
-18.6191

> <Gold.Chemscore.ZeroCoef>
-5.4800

> <Gold.Chemscore.Hbond>
2.6231

> <Gold.Chemscore.Metal>
0.0000

> <Gold.Chemscore.Lipo>
74.8492

> <Gold.Chemscore.Internal_Hbond>
0.0000

> <Gold.Chemscore.DEClash>
0.2457

> <Gold.Chemscore.DEInternal>
1.8623

> <Gold.Chemscore.Rot>
1.7107

> <Gold.Chemscore.Internal.Correction>
   9.000000E+99

> <Gold.Chemscore.Hbonds>
donor molecule, donor type, donor heavy atom, donor atom, acceptor molecule, acceptor atom, score
      L1  H    10    28       P1  7948  0.49
      L1  H    13    46       P1  7948  1.00
      P1  H  7997  8010       L1    21  0.39

> <Gold.Chemscore.Hbond.Weighted>
-8.7612

> <Gold.Chemscore.Metal.Weighted>
-0.0000

> <Gold.Chemscore.Lipo.Weighted>
-8.7574

> <Gold.Chemscore.Internal_Hbond.Weighted>
0.0000

> <Gold.Chemscore.DEClash.Weighted>
0.2457

> <Gold.Chemscore.DEInternal.Weighted>
1.8623

> <Gold.Chemscore.Rot.Weighted>
4.3794

> <Gold.Chemscore.Internal.Correction.Weighted>
   9.000000E+99

> <Gold.Protein.RotatedTorsions>
[ 6907 6896 6895 6894 ] final  -34.93 input  -60.11 | X-H torsion
[ 7974 7965 7964 7962 ] final  134.86 input  175.53 | X-H torsion
[ 8008 7997 7996 7995 ] final   98.49 input   59.86 | X-H torsion
[ 10167 10162 10161 10158 ] final -114.13 input  -65.29 | X-H torsion
[ 10718 10713 10712 10709 ] final -145.74 input   66.30 | X-H torsion
[ 10763 10752 10751 10750 ] final -179.09 input  -60.55 | X-H torsion
[ 11005 11000 10999 10996 ] final  -98.51 input  -57.11 | X-H torsion

> <Gold.Protein.ActiveResidues>
 VAL166  LYS551  ARG553  GLY616  TRP617  ASP618  TYR619  PRO620  LYS621  CYS622 
 ASP623  PHE694  ASN695  SER759  ASP760  ASP761  ALA762  ILE779  LEU786  VAL792 
 PHE793  MET794  SER795  GLU796  ALA797  LYS798  CYS799  TRP800  GLU811  SER814 

> <Gold.Protein.RotatedAtoms>
  151.0463  134.9642  159.8187 H   0  0  0  0  0  0  0  0  0  0  0  0  # atno 6907 bound_to 6896
  152.5373  134.2594  159.8939 H   0  0  0  0  0  0  0  0  0  0  0  0  # atno 6908 bound_to 6896
  151.2608  133.4260  159.2650 H   0  0  0  0  0  0  0  0  0  0  0  0  # atno 6909 bound_to 6896
  144.9721  139.4595  143.5428 H   0  0  0  0  0  0  0  0  0  0  0  0  # atno 7974 bound_to 7965
  156.1009  140.3243  155.7941 H   0  0  0  0  0  0  0  0  0  0  0  0  # atno 8008 bound_to 7997
  155.4838  140.0556  157.2980 H   0  0  0  0  0  0  0  0  0  0  0  0  # atno 8009 bound_to 7997
  154.4696  140.2005  156.0043 H   0  0  0  0  0  0  0  0  0  0  0  0  # atno 8010 bound_to 7997
  140.1043  143.4585  152.1792 H   0  0  0  0  0  0  0  0  0  0  0  0  # atno 10167 bound_to 10162
  156.3862  130.7862  151.2060 H   0  0  0  0  0  0  0  0  0  0  0  0  # atno 10718 bound_to 10713
  154.5395  135.2805  155.1108 H   0  0  0  0  0  0  0  0  0  0  0  0  # atno 10763 bound_to 10752
  154.2596  135.6324  153.5273 H   0  0  0  0  0  0  0  0  0  0  0  0  # atno 10764 bound_to 10752
  152.9975  135.5602  154.5931 H   0  0  0  0  0  0  0  0  0  0  0  0  # atno 10765 bound_to 10752
  141.1342  133.8251  157.0849 H   0  0  0  0  0  0  0  0  0  0  0  0  # atno 11005 bound_to 11000
  146.3385  139.8939  142.8805 LP  0  0  0  0  0  0  0  0  0  0  0  0  # atno 17320 bound_to 7965
  145.2544  141.0055  143.3862 LP  0  0  0  0  0  0  0  0  0  0  0  0  # atno 17321 bound_to 7965
  139.5654  144.7432  151.4037 LP  0  0  0  0  0  0  0  0  0  0  0  0  # atno 17342 bound_to 10162
  140.6961  143.7746  150.7328 LP  0  0  0  0  0  0  0  0  0  0  0  0  # atno 17343 bound_to 10162
  157.7496  131.0329  150.4248 LP  0  0  0  0  0  0  0  0  0  0  0  0  # atno 17370 bound_to 10713
  156.4501  130.4010  149.6641 LP  0  0  0  0  0  0  0  0  0  0  0  0  # atno 17371 bound_to 10713
  140.0428  134.9845  157.0994 LP  0  0  0  0  0  0  0  0  0  0  0  0  # atno 17394 bound_to 11000
  140.4109  134.1982  155.7163 LP  0  0  0  0  0  0  0  0  0  0  0  0  # atno 17395 bound_to 11000

$$$$
