AV-unprocessed.smi:265|AV-procd|sdf|2022|dock6
  -GOLD-   2262021223D 1   1.00000     0.00000
 Structure written by MMmdl.
 52 56  0  0  0  0  0  0  0  0  1 V2000
  149.5460  133.1292  155.1174 C   0  0  0  0  0  0  0  0  0  0  0  0
  148.5161  134.2692  155.0839 C   0  0  1  0  0  0  0  0  0  0  0  0
  147.4306  133.8823  155.9241 O   0  0  0  0  0  0  0  0  0  0  0  0
  146.8840  135.0358  156.5386 C   0  0  0  0  0  0  0  0  0  0  0  0
  148.1231  135.8605  156.8507 C   0  0  0  0  0  0  0  0  0  0  0  0
  148.9895  135.6532  155.6121 C   0  0  2  0  0  0  0  0  0  0  0  0
  148.6156  136.6291  154.6535 O   0  0  0  0  0  0  0  0  0  0  0  0
  150.5102  135.8069  155.8782 C   0  0  0  0  0  0  0  0  0  0  0  0
  150.8674  137.0827  156.4807 N   0  0  0  0  0  0  0  0  0  0  0  0
  151.4266  137.2782  157.7235 C   0  0  0  0  0  0  0  0  0  0  0  0
  151.6551  138.5229  158.0417 N   0  0  0  0  0  0  0  0  0  0  0  0
  151.2159  139.2431  156.9367 C   0  0  0  0  0  0  0  0  0  0  0  0
  151.1624  140.6291  156.6137 C   0  0  0  0  0  0  0  0  0  0  0  0
  151.6167  141.5964  157.4510 N   0  0  0  0  0  0  0  0  0  0  0  0
  150.6560  142.6604  157.7340 C   0  0  0  0  0  0  0  0  0  0  0  0
  151.3686  143.9003  158.2943 C   0  0  0  0  0  0  0  0  0  0  0  0
  152.2405  143.5565  159.5131 C   0  0  1  0  0  0  0  0  0  0  0  0
  151.4223  143.1877  160.6158 O   0  0  0  0  0  0  0  0  0  0  0  0
  152.1421  143.0281  161.8397 C   0  0  0  0  0  0  0  0  0  0  0  0
  153.3911  142.1422  161.6738 C   0  0  0  0  0  0  0  0  0  0  0  0
  153.9470  141.6753  162.6654 O   0  0  0  0  0  0  0  0  0  0  0  0
  153.8636  141.9406  160.4332 N   0  0  0  0  0  0  0  0  0  0  0  0
  153.1849  142.3715  159.2153 C   0  0  1  0  0  0  0  0  0  0  0  0
  152.4244  141.1798  158.5979 C   0  0  0  0  0  0  0  0  0  0  0  0
  150.6272  140.9689  155.4101 N   0  0  0  0  0  0  0  0  0  0  0  0
  150.1822  140.0240  154.5769 C   0  0  0  0  0  0  0  0  0  0  0  0
  150.1752  138.7006  154.7443 N   0  0  0  0  0  0  0  0  0  0  0  0
  150.7062  138.3514  155.9506 C   0  0  0  0  0  0  0  0  0  0  0  0
  152.8193  144.4412  159.7858 H   0  0  0  0  0  0  0  0  0  0  0  0
  153.9457  142.7017  158.5072 H   0  0  0  0  0  0  0  0  0  0  0  0
  150.4061  133.3484  154.4846 H   0  0  0  0  0  0  0  0  0  0  0  0
  149.1035  132.2019  154.7531 H   0  0  0  0  0  0  0  0  0  0  0  0
  149.9037  132.9436  156.1304 H   0  0  0  0  0  0  0  0  0  0  0  0
  148.1354  134.3591  154.0647 H   0  0  0  0  0  0  0  0  0  0  0  0
  146.2305  135.5548  155.8357 H   0  0  0  0  0  0  0  0  0  0  0  0
  146.3074  134.7837  157.4286 H   0  0  0  0  0  0  0  0  0  0  0  0
  147.9018  136.9064  157.0679 H   0  0  0  0  0  0  0  0  0  0  0  0
  148.6132  135.4349  157.7270 H   0  0  0  0  0  0  0  0  0  0  0  0
  148.9021  136.3361  153.8020 H   0  0  0  0  0  0  0  0  0  0  0  0
  150.8658  135.0169  156.5402 H   0  0  0  0  0  0  0  0  0  0  0  0
  151.0703  135.7050  154.9477 H   0  0  0  0  0  0  0  0  0  0  0  0
  151.6644  136.4618  158.3901 H   0  0  0  0  0  0  0  0  0  0  0  0
  150.0922  142.9408  156.8451 H   0  0  0  0  0  0  0  0  0  0  0  0
  149.9289  142.2906  158.4583 H   0  0  0  0  0  0  0  0  0  0  0  0
  151.9984  144.3301  157.5144 H   0  0  0  0  0  0  0  0  0  0  0  0
  150.6386  144.6662  158.5577 H   0  0  0  0  0  0  0  0  0  0  0  0
  152.4499  144.0066  162.2102 H   0  0  0  0  0  0  0  0  0  0  0  0
  151.4784  142.5939  162.5877 H   0  0  0  0  0  0  0  0  0  0  0  0
  154.7037  141.3913  160.3248 H   0  0  0  0  0  0  0  0  0  0  0  0
  151.7679  140.7269  159.3429 H   0  0  0  0  0  0  0  0  0  0  0  0
  153.1398  140.4142  158.2932 H   0  0  0  0  0  0  0  0  0  0  0  0
  149.7739  140.3794  153.6422 H   0  0  0  0  0  0  0  0  0  0  0  0
  1  2  1  0  0  0  0
  1 31  1  0  0  0  0
  1 32  1  0  0  0  0
  1 33  1  0  0  0  0
  2  6  1  0  0  0  0
  2  3  1  0  0  0  0
  2 34  1  0  0  0  0
  3  4  1  0  0  0  0
  4  5  1  0  0  0  0
  4 35  1  0  0  0  0
  4 36  1  0  0  0  0
  5  6  1  0  0  0  0
  5 37  1  0  0  0  0
  5 38  1  0  0  0  0
  6  7  1  0  0  0  0
  6  8  1  0  0  0  0
  7 39  1  0  0  0  0
  8  9  1  0  0  0  0
  8 40  1  0  0  0  0
  8 41  1  0  0  0  0
  9 28  1  0  0  0  0
  9 10  1  0  0  0  0
 10 11  2  0  0  0  0
 10 42  1  0  0  0  0
 11 12  1  0  0  0  0
 12 28  2  0  0  0  0
 12 13  1  0  0  0  0
 13 14  1  0  0  0  0
 13 25  2  0  0  0  0
 14 24  1  0  0  0  0
 14 15  1  0  0  0  0
 15 16  1  0  0  0  0
 15 43  1  0  0  0  0
 15 44  1  0  0  0  0
 16 17  1  0  0  0  0
 16 45  1  0  0  0  0
 16 46  1  0  0  0  0
 17 29  1  0  0  0  0
 17 23  1  0  0  0  0
 17 18  1  0  0  0  0
 18 19  1  0  0  0  0
 19 20  1  0  0  0  0
 19 47  1  0  0  0  0
 19 48  1  0  0  0  0
 20 21  2  0  0  0  0
 20 22  1  0  0  0  0
 22 23  1  0  0  0  0
 22 49  1  0  0  0  0
 23 30  1  0  0  0  0
 23 24  1  0  0  0  0
 24 50  1  0  0  0  0
 24 51  1  0  0  0  0
 25 26  1  0  0  0  0
 26 27  2  0  0  0  0
 26 52  1  0  0  0  0
 27 28  1  0  0  0  0
M  END
> <s_m_source_file>
AV-unprocessed.smi

> <i_m_source_file_index>
265

> <i_lp_mmshare_version>
43012

> <i_f3d_flags>
0

> <s_epik_input>
W0NIMl0xW0NIMl1PW0NAQEhdKFtDSDNdKVtDQEBdMShbT0hdKVtDSDJdbihbY0hdbjIpYyhjMjMpbltjSF1uYzNOKFtDSDJdW0NIMl00KVtDSDJdW0NAQEhdKFtDQEhdNDUpW05IXUMoPU8pW0NIMl1PNQ==

> <s_epik_cmdline>
J2VwaWtfcHl0aG9uJywgJy1waCcsICc3LjAnLCAnLXRuJywgJzgnLCAnLW1hJywgJzIwMCcsICctbWV0YWxfYmluZGluZycsICctaW1hZScsICc8aW5maWxlLm1hZT4nLCAnLW9tYWUnLCAnPG91dGZpbGUubWFlPic=

> <r_lp_tautomer_probability>
1

> <r_epik_Ionization_Penalty>
0.00221504

> <r_epik_Ionization_Penalty_Charging>
0

> <r_epik_Ionization_Penalty_Neutral>
0.00221504

> <r_epik_State_Penalty>
-0

> <r_epik_Charging_Adjusted_Penalty>
0

> <i_epik_Tot_Q>
0

> <i_epik_Tot_abs_Q>
0

> <r_epik_Metal_State_Penalty>
-0

> <b_epik_Metal_Only>
0

> <s_lp_Force_Field>
OPLS_2005

> <r_lp_Energy>
44.6863

> <b_lp_Chiralities_Consistent>
1

> <s_lp_Variant>
AV-unprocessed.smi:265-8

> <Gold.Version>
5.8.1

> <Gold.Id.Protein>
6NUR|6NUR_protein|mol2

> <Gold.PLP.Fitness>
45.9849

> <Gold.PLP.PLP>
-40.0477

> <Gold.PLP.part.hbond>
-4.0000

> <Gold.PLP.part.metal>
0.0000

> <Gold.PLP.part.buried>
-4.8420

> <Gold.PLP.part.nonpolar>
-30.9279

> <Gold.PLP.part.repulsive>
0.3874

> <Gold.PLP.ligand.clash>
0.0000

> <Gold.PLP.ligand.torsion>
0.2140

> <Gold.PLP.Chemscore.Hbond>
1.0000

> <Gold.PLP.Chemscore.CHOScore>
1.0000

> <Gold.PLP.Chemscore.Metal>
0.0000

> <Gold.Chemscore.Hbonds>
donor molecule, donor type, donor heavy atom, donor atom, acceptor molecule, acceptor atom, score
      L1  H     7    39       P1  7948  1.00
      L1  C    26    52       P1  7957  1.00

> <Gold.PLP.Chemscore.Internal.Correction>
0.3651

> <Gold.Rescore>
     Score         DG    S(hbond)    S(metal)    S(lipo)     H(rot)  DE(clash)    DE(int)     intcor
      9.80     -13.09       0.99        0.00      85.77       2.25       0.08       3.20       ----

> <Gold.Chemscore.Fitness>
9.8022

> <Gold.Chemscore.DG>
-13.0892

> <Gold.Chemscore.ZeroCoef>
-5.4800

> <Gold.Chemscore.Hbond>
0.9946

> <Gold.Chemscore.Metal>
0.0000

> <Gold.Chemscore.Lipo>
85.7710

> <Gold.Chemscore.Internal_Hbond>
0.0000

> <Gold.Chemscore.DEClash>
0.0847

> <Gold.Chemscore.DEInternal>
3.2024

> <Gold.Chemscore.Rot>
2.2453

> <Gold.Chemscore.Internal.Correction>
   9.000000E+99

> <Gold.Chemscore.Hbonds>
donor molecule, donor type, donor heavy atom, donor atom, acceptor molecule, acceptor atom, score
      L1  H     7    39       P1  7948  0.98

> <Gold.Chemscore.Hbond.Weighted>
-3.3219

> <Gold.Chemscore.Metal.Weighted>
-0.0000

> <Gold.Chemscore.Lipo.Weighted>
-10.0352

> <Gold.Chemscore.Internal_Hbond.Weighted>
0.0000

> <Gold.Chemscore.DEClash.Weighted>
0.0847

> <Gold.Chemscore.DEInternal.Weighted>
3.2024

> <Gold.Chemscore.Rot.Weighted>
5.7479

> <Gold.Chemscore.Internal.Correction.Weighted>
   9.000000E+99

> <Gold.Protein.RotatedTorsions>
[ 6907 6896 6895 6894 ] final  150.14 input  -60.11 | X-H torsion
[ 7974 7965 7964 7962 ] final -114.55 input  175.53 | X-H torsion
[ 8008 7997 7996 7995 ] final -175.04 input   59.86 | X-H torsion
[ 10167 10162 10161 10158 ] final  124.52 input  -65.29 | X-H torsion
[ 10718 10713 10712 10709 ] final -100.48 input   66.30 | X-H torsion
[ 10763 10752 10751 10750 ] final -115.20 input  -60.55 | X-H torsion
[ 11005 11000 10999 10996 ] final -101.77 input  -57.11 | X-H torsion

> <Gold.Protein.ActiveResidues>
 VAL166  LYS551  ARG553  GLY616  TRP617  ASP618  TYR619  PRO620  LYS621  CYS622 
 ASP623  PHE694  ASN695  SER759  ASP760  ASP761  ALA762  ILE779  LEU786  VAL792 
 PHE793  MET794  SER795  GLU796  ALA797  LYS798  CYS799  TRP800  GLU811  SER814 

> <Gold.Protein.RotatedAtoms>
  152.1185  133.4340  159.4663 H   0  0  0  0  0  0  0  0  0  0  0  0  # atno 6907 bound_to 6896
  150.6870  134.2563  159.4540 H   0  0  0  0  0  0  0  0  0  0  0  0  # atno 6908 bound_to 6896
  152.0438  134.9695  160.0625 H   0  0  0  0  0  0  0  0  0  0  0  0  # atno 6909 bound_to 6896
  145.1188  140.8657  143.3826 H   0  0  0  0  0  0  0  0  0  0  0  0  # atno 7974 bound_to 7965
  155.9776  140.1175  157.0755 H   0  0  0  0  0  0  0  0  0  0  0  0  # atno 8008 bound_to 7997
  154.4174  140.1151  156.5459 H   0  0  0  0  0  0  0  0  0  0  0  0  # atno 8009 bound_to 7997
  155.6513  140.3473  155.4751 H   0  0  0  0  0  0  0  0  0  0  0  0  # atno 8010 bound_to 7997
  139.5737  144.6952  151.3710 H   0  0  0  0  0  0  0  0  0  0  0  0  # atno 10167 bound_to 10162
  156.0164  130.5329  150.6823 H   0  0  0  0  0  0  0  0  0  0  0  0  # atno 10718 bound_to 10713
  154.8471  135.4390  154.1626 H   0  0  0  0  0  0  0  0  0  0  0  0  # atno 10763 bound_to 10752
  153.2759  135.6949  153.7440 H   0  0  0  0  0  0  0  0  0  0  0  0  # atno 10764 bound_to 10752
  153.6663  135.3426  155.3116 H   0  0  0  0  0  0  0  0  0  0  0  0  # atno 10765 bound_to 10752
  141.1217  133.8505  157.1274 H   0  0  0  0  0  0  0  0  0  0  0  0  # atno 11005 bound_to 11000
  145.0763  139.2993  143.5806 LP  0  0  0  0  0  0  0  0  0  0  0  0  # atno 17320 bound_to 7965
  146.3522  140.0255  142.8655 LP  0  0  0  0  0  0  0  0  0  0  0  0  # atno 17321 bound_to 7965
  140.7020  143.7607  150.7419 LP  0  0  0  0  0  0  0  0  0  0  0  0  # atno 17342 bound_to 10162
  140.1120  143.4690  152.2364 LP  0  0  0  0  0  0  0  0  0  0  0  0  # atno 17343 bound_to 10162
  157.4522  131.0874  151.0834 LP  0  0  0  0  0  0  0  0  0  0  0  0  # atno 17370 bound_to 10713
  157.1346  130.6117  149.5538 LP  0  0  0  0  0  0  0  0  0  0  0  0  # atno 17371 bound_to 10713
  140.0180  134.9959  157.0533 LP  0  0  0  0  0  0  0  0  0  0  0  0  # atno 17394 bound_to 11000
  140.4487  134.1604  155.7179 LP  0  0  0  0  0  0  0  0  0  0  0  0  # atno 17395 bound_to 11000

$$$$
