AV-unprocessed.smi:487|AV-procd|sdf|2699|dock7
  -GOLD-   2262023133D 1   1.00000     0.00000
 Structure written by MMmdl.
 41 42  0  0  0  0  0  0  0  0  1 V2000
  150.6944  140.2367  154.8630 O   0  0  0  0  0  0  0  0  0  0  0  0
  149.8030  141.0689  155.0269 C   0  0  0  0  0  0  0  0  0  0  0  0
  148.5323  140.9831  154.1638 C   0  0  0  0  0  0  0  0  0  0  0  0
  147.3942  141.7710  154.6659 N   0  0  0  0  0  0  0  0  0  0  0  0
  146.7782  142.7065  153.8466 C   0  0  0  0  0  0  0  0  0  0  0  0
  145.7384  143.4771  154.2451 C   0  0  0  0  0  0  0  0  0  0  0  0
  145.2031  143.3536  155.5965 C   0  0  0  0  0  0  0  0  0  0  0  0
  144.2660  144.0063  156.0506 O   0  0  0  0  0  0  0  0  0  0  0  0
  145.8500  142.4027  156.3906 N   0  0  0  0  0  0  0  0  0  0  0  0
  146.9225  141.6065  155.9869 C   0  0  0  0  0  0  0  0  0  0  0  0
  147.4270  140.8046  156.7719 O   0  0  0  0  0  0  0  0  0  0  0  0
  149.8901  142.0623  155.9288 N   0  0  0  0  0  0  0  0  0  0  0  0
  151.0058  142.2986  156.8430 C   0  0  0  0  0  0  0  0  0  0  0  0
  151.1323  141.0381  157.7370 C   0  0  0  0  0  0  0  0  0  0  0  0
  152.5213  140.7817  158.3475 C   0  0  0  0  0  0  0  0  0  0  0  0
  152.7597  141.3235  159.7715 C   0  0  0  0  0  0  0  0  0  0  0  0
  152.5060  142.8237  160.0009 C   0  0  0  0  0  0  0  0  0  0  0  0
  153.0421  143.7389  158.8853 C   0  0  0  0  0  0  0  0  0  0  0  0
  151.9552  144.4388  158.0512 C   0  0  0  0  0  0  0  0  0  0  0  0
  150.7284  143.6063  157.6227 C   0  0  0  0  0  0  0  0  0  0  0  0
  145.5146  142.2832  157.3354 H   0  0  0  0  0  0  0  0  0  0  0  0
  148.7897  141.3103  153.1553 H   0  0  0  0  0  0  0  0  0  0  0  0
  148.2530  139.9334  154.0562 H   0  0  0  0  0  0  0  0  0  0  0  0
  147.1455  142.8352  152.8383 H   0  0  0  0  0  0  0  0  0  0  0  0
  145.3015  144.1899  153.5605 H   0  0  0  0  0  0  0  0  0  0  0  0
  149.1106  142.7007  155.9948 H   0  0  0  0  0  0  0  0  0  0  0  0
  151.9143  142.4091  156.2483 H   0  0  0  0  0  0  0  0  0  0  0  0
  150.3624  141.0242  158.5095 H   0  0  0  0  0  0  0  0  0  0  0  0
  150.9188  140.1686  157.1124 H   0  0  0  0  0  0  0  0  0  0  0  0
  152.6612  139.7014  158.4027 H   0  0  0  0  0  0  0  0  0  0  0  0
  153.2993  141.1165  157.6618 H   0  0  0  0  0  0  0  0  0  0  0  0
  152.1516  140.7577  160.4781 H   0  0  0  0  0  0  0  0  0  0  0  0
  153.7943  141.1052  160.0384 H   0  0  0  0  0  0  0  0  0  0  0  0
  151.4459  142.9993  160.1768 H   0  0  0  0  0  0  0  0  0  0  0  0
  152.9844  143.1016  160.9408 H   0  0  0  0  0  0  0  0  0  0  0  0
  153.6611  144.5142  159.3384 H   0  0  0  0  0  0  0  0  0  0  0  0
  153.7256  143.2019  158.2296 H   0  0  0  0  0  0  0  0  0  0  0  0
  151.5874  145.2931  158.6208 H   0  0  0  0  0  0  0  0  0  0  0  0
  152.4235  144.8640  157.1628 H   0  0  0  0  0  0  0  0  0  0  0  0
  150.1303  144.2730  156.9993 H   0  0  0  0  0  0  0  0  0  0  0  0
  150.0851  143.3968  158.4770 H   0  0  0  0  0  0  0  0  0  0  0  0
  1  2  2  0  0  0  0
  2  3  1  0  0  0  0
  2 12  1  0  0  0  0
  3  4  1  0  0  0  0
  3 22  1  0  0  0  0
  3 23  1  0  0  0  0
  4 10  1  0  0  0  0
  4  5  1  0  0  0  0
  5  6  2  0  0  0  0
  5 24  1  0  0  0  0
  6  7  1  0  0  0  0
  6 25  1  0  0  0  0
  7  8  2  0  0  0  0
  7  9  1  0  0  0  0
  9 21  1  0  0  0  0
  9 10  1  0  0  0  0
 10 11  2  0  0  0  0
 12 13  1  0  0  0  0
 12 26  1  0  0  0  0
 13 20  1  0  0  0  0
 13 14  1  0  0  0  0
 13 27  1  0  0  0  0
 14 15  1  0  0  0  0
 14 28  1  0  0  0  0
 14 29  1  0  0  0  0
 15 16  1  0  0  0  0
 15 30  1  0  0  0  0
 15 31  1  0  0  0  0
 16 17  1  0  0  0  0
 16 32  1  0  0  0  0
 16 33  1  0  0  0  0
 17 18  1  0  0  0  0
 17 34  1  0  0  0  0
 17 35  1  0  0  0  0
 18 19  1  0  0  0  0
 18 36  1  0  0  0  0
 18 37  1  0  0  0  0
 19 20  1  0  0  0  0
 19 38  1  0  0  0  0
 19 39  1  0  0  0  0
 20 40  1  0  0  0  0
 20 41  1  0  0  0  0
M  END
> <s_m_source_file>
AV-unprocessed.smi

> <i_m_source_file_index>
487

> <i_lp_mmshare_version>
43012

> <i_f3d_flags>
0

> <s_epik_input>
Tz1jMVtuSF1jKD1PKVtjSF1bY0hdbjFbQ0gyXUMoPU8pW05IXVtDSF0yW0NIMl1bQ0gyXVtDSDJdW0NIMl1bQ0gyXVtDSDJdW0NIMl0y

> <s_epik_cmdline>
J2VwaWtfcHl0aG9uJywgJy1waCcsICc3LjAnLCAnLXRuJywgJzgnLCAnLW1hJywgJzIwMCcsICctbWV0YWxfYmluZGluZycsICctaW1hZScsICc8aW5maWxlLm1hZT4nLCAnLW9tYWUnLCAnPG91dGZpbGUubWFlPic=

> <r_lp_tautomer_probability>
0.999537

> <r_epik_Ionization_Penalty>
0.00321433

> <r_epik_Ionization_Penalty_Charging>
0.00321431

> <r_epik_Ionization_Penalty_Neutral>
2.02148e-08

> <r_epik_State_Penalty>
0.00226744

> <r_epik_Charging_Adjusted_Penalty>
0.00548175

> <i_epik_Tot_Q>
0

> <i_epik_Tot_abs_Q>
0

> <r_epik_Metal_State_Penalty>
0.364272

> <b_epik_Metal_Only>
0

> <s_lp_Force_Field>
OPLS_2005

> <r_lp_Energy>
21.4809

> <b_lp_Chiralities_Consistent>
1

> <s_lp_Variant>
AV-unprocessed.smi:487-1

> <Gold.Version>
5.8.1

> <Gold.Id.Protein>
6NUR|6NUR_protein|mol2

> <Gold.PLP.Fitness>
48.6323

> <Gold.PLP.PLP>
-44.0035

> <Gold.PLP.part.hbond>
-2.0000

> <Gold.PLP.part.metal>
0.0000

> <Gold.PLP.part.buried>
-3.7002

> <Gold.PLP.part.nonpolar>
-37.7436

> <Gold.PLP.part.repulsive>
0.3100

> <Gold.PLP.ligand.clash>
0.0000

> <Gold.PLP.ligand.torsion>
0.2458

> <Gold.PLP.Chemscore.Hbond>
1.7040

> <Gold.PLP.Chemscore.CHOScore>
0.0000

> <Gold.PLP.Chemscore.Metal>
0.0000

> <Gold.Chemscore.Hbonds>
donor molecule, donor type, donor heavy atom, donor atom, acceptor molecule, acceptor atom, score
      L1  H    12    26       P1  8028  0.64
      P1  H  7989  7998       L1     1  1.00

> <Gold.PLP.Chemscore.Internal.Correction>
0.0084

> <Gold.Rescore>
     Score         DG    S(hbond)    S(metal)    S(lipo)     H(rot)  DE(clash)    DE(int)     intcor
     15.28     -18.09       1.43        0.00     103.54       1.68       1.51       1.30       ----

> <Gold.Chemscore.Fitness>
15.2834

> <Gold.Chemscore.DG>
-18.0937

> <Gold.Chemscore.ZeroCoef>
-5.4800

> <Gold.Chemscore.Hbond>
1.4344

> <Gold.Chemscore.Metal>
0.0000

> <Gold.Chemscore.Lipo>
103.5387

> <Gold.Chemscore.Internal_Hbond>
0.0000

> <Gold.Chemscore.DEClash>
1.5114

> <Gold.Chemscore.DEInternal>
1.2989

> <Gold.Chemscore.Rot>
1.6763

> <Gold.Chemscore.Internal.Correction>
   9.000000E+99

> <Gold.Chemscore.Hbonds>
donor molecule, donor type, donor heavy atom, donor atom, acceptor molecule, acceptor atom, score
      L1  H    12    26       P1  8028  0.60
      P1  H  7989  7998       L1     1  0.45

> <Gold.Chemscore.Hbond.Weighted>
-4.7910

> <Gold.Chemscore.Metal.Weighted>
-0.0000

> <Gold.Chemscore.Lipo.Weighted>
-12.1140

> <Gold.Chemscore.Internal_Hbond.Weighted>
0.0000

> <Gold.Chemscore.DEClash.Weighted>
1.5114

> <Gold.Chemscore.DEInternal.Weighted>
1.2989

> <Gold.Chemscore.Rot.Weighted>
4.2914

> <Gold.Chemscore.Internal.Correction.Weighted>
   9.000000E+99

> <Gold.Protein.RotatedTorsions>
[ 6907 6896 6895 6894 ] final   52.78 input  -60.11 | X-H torsion
[ 7974 7965 7964 7962 ] final   84.32 input  175.53 | X-H torsion
[ 8008 7997 7996 7995 ] final  113.41 input   59.86 | X-H torsion
[ 10167 10162 10161 10158 ] final    3.13 input  -65.29 | X-H torsion
[ 10718 10713 10712 10709 ] final -122.60 input   66.30 | X-H torsion
[ 10763 10752 10751 10750 ] final -119.49 input  -60.55 | X-H torsion
[ 11005 11000 10999 10996 ] final  -63.20 input  -57.11 | X-H torsion

> <Gold.Protein.ActiveResidues>
 VAL166  LYS551  ARG553  GLY616  TRP617  ASP618  TYR619  PRO620  LYS621  CYS622 
 ASP623  PHE694  ASN695  SER759  ASP760  ASP761  ALA762  ILE779  LEU786  VAL792 
 PHE793  MET794  SER795  GLU796  ALA797  LYS798  CYS799  TRP800  GLU811  SER814 

> <Gold.Protein.RotatedAtoms>
  152.3269  134.7310  160.0299 H   0  0  0  0  0  0  0  0  0  0  0  0  # atno 6907 bound_to 6896
  151.7739  133.3338  159.3460 H   0  0  0  0  0  0  0  0  0  0  0  0  # atno 6908 bound_to 6896
  150.7401  134.5924  159.6039 H   0  0  0  0  0  0  0  0  0  0  0  0  # atno 6909 bound_to 6896
  145.6003  139.2351  143.2250 H   0  0  0  0  0  0  0  0  0  0  0  0  # atno 7974 bound_to 7965
  156.2256  140.2980  156.0058 H   0  0  0  0  0  0  0  0  0  0  0  0  # atno 8008 bound_to 7997
  155.2366  140.0421  157.2986 H   0  0  0  0  0  0  0  0  0  0  0  0  # atno 8009 bound_to 7997
  154.5910  140.2401  155.7929 H   0  0  0  0  0  0  0  0  0  0  0  0  # atno 8010 bound_to 7997
  140.6601  143.7326  150.7723 H   0  0  0  0  0  0  0  0  0  0  0  0  # atno 10167 bound_to 10162
  156.1432  130.6481  150.9802 H   0  0  0  0  0  0  0  0  0  0  0  0  # atno 10718 bound_to 10713
  154.8618  135.4236  154.2306 H   0  0  0  0  0  0  0  0  0  0  0  0  # atno 10763 bound_to 10752
  153.3292  135.6987  153.6968 H   0  0  0  0  0  0  0  0  0  0  0  0  # atno 10764 bound_to 10752
  153.5992  135.3540  155.2912 H   0  0  0  0  0  0  0  0  0  0  0  0  # atno 10765 bound_to 10752
  141.1385  133.6649  156.5644 H   0  0  0  0  0  0  0  0  0  0  0  0  # atno 11005 bound_to 11000
  146.1581  140.6828  142.9290 LP  0  0  0  0  0  0  0  0  0  0  0  0  # atno 17320 bound_to 7965
  144.7313  140.4679  143.6936 LP  0  0  0  0  0  0  0  0  0  0  0  0  # atno 17321 bound_to 7965
  140.0993  143.4803  152.2434 LP  0  0  0  0  0  0  0  0  0  0  0  0  # atno 17342 bound_to 10162
  139.5832  144.7520  151.3585 LP  0  0  0  0  0  0  0  0  0  0  0  0  # atno 17343 bound_to 10162
  157.6594  131.0883  150.7874 LP  0  0  0  0  0  0  0  0  0  0  0  0  # atno 17370 bound_to 10713
  156.7947  130.4901  149.5379 LP  0  0  0  0  0  0  0  0  0  0  0  0  # atno 17371 bound_to 10713
  140.3962  134.7397  157.4752 LP  0  0  0  0  0  0  0  0  0  0  0  0  # atno 17394 bound_to 11000
  140.0529  134.6104  155.8839 LP  0  0  0  0  0  0  0  0  0  0  0  0  # atno 17395 bound_to 11000

$$$$
