AV-unprocessed.smi:826|AV-procd|sdf|3852|dock6
  -GOLD-   22720 1303D 1   1.00000     0.00000
 Structure written by MMmdl.
 39 40  0  0  0  0  0  0  0  0  1 V2000
  148.2689  130.6686  154.8940 C   0  0  0  0  0  0  0  0  0  0  0  0
  148.8365  132.0409  155.0203 C   0  0  0  0  0  0  0  0  0  0  0  0
  149.5690  132.4232  156.0731 N   0  0  0  0  0  0  0  0  0  0  0  0
  149.9856  133.7434  155.9726 N   0  0  0  0  0  0  0  0  0  0  0  0
  149.5538  134.3192  154.8423 C   0  0  0  0  0  0  0  0  0  0  0  0
  149.8278  135.6664  154.4876 N   0  0  0  0  0  0  0  0  0  0  0  0
  150.6773  136.5269  155.0754 C   0  0  0  0  0  0  0  0  0  0  0  0
  151.4032  136.2687  156.0362 O   0  0  0  0  0  0  0  0  0  0  0  0
  150.6430  137.7272  154.4770 N   0  0  0  0  0  0  0  0  0  0  0  0
  151.4584  138.8800  154.8556 C   0  0  2  0  0  0  0  0  0  0  0  0
  152.9096  138.4014  155.0286 C   0  0  0  0  0  0  0  0  0  0  0  0
  150.9791  139.4549  156.1975 C   0  0  0  0  0  0  0  0  0  0  0  0
  150.0291  138.9451  156.7942 O   0  0  0  0  0  0  0  0  0  0  0  0
  151.6559  140.5155  156.6630 N   0  0  0  0  0  0  0  0  0  0  0  0
  151.3575  141.2190  157.9070 C   0  0  0  0  0  0  0  0  0  0  0  0
  151.9517  142.6436  157.9146 C   0  0  0  0  0  0  0  0  0  0  0  0
  152.7171  142.7775  159.2323 C   0  0  0  0  0  0  0  0  0  0  0  0
  153.1652  141.3552  159.5528 C   0  0  0  0  0  0  0  0  0  0  0  0
  151.9882  140.4881  159.1063 C   0  0  0  0  0  0  0  0  0  0  0  0
  148.5977  133.2829  153.7970 S   0  0  0  0  0  0  0  0  0  0  0  0
  147.7655  130.3830  155.8179 H   0  0  0  0  0  0  0  0  0  0  0  0
  149.0654  129.9525  154.6909 H   0  0  0  0  0  0  0  0  0  0  0  0
  147.5465  130.6295  154.0784 H   0  0  0  0  0  0  0  0  0  0  0  0
  149.3056  136.0210  153.7003 H   0  0  0  0  0  0  0  0  0  0  0  0
  150.0243  137.8498  153.6890 H   0  0  0  0  0  0  0  0  0  0  0  0
  151.4147  139.6432  154.0758 H   0  0  0  0  0  0  0  0  0  0  0  0
  153.5663  139.2236  155.3157 H   0  0  0  0  0  0  0  0  0  0  0  0
  153.2964  137.9900  154.0957 H   0  0  0  0  0  0  0  0  0  0  0  0
  152.9948  137.6251  155.7909 H   0  0  0  0  0  0  0  0  0  0  0  0
  152.4208  140.8717  156.1083 H   0  0  0  0  0  0  0  0  0  0  0  0
  150.2757  141.2586  158.0475 H   0  0  0  0  0  0  0  0  0  0  0  0
  152.6490  142.7752  157.0854 H   0  0  0  0  0  0  0  0  0  0  0  0
  151.1827  143.4095  157.8107 H   0  0  0  0  0  0  0  0  0  0  0  0
  153.5508  143.4766  159.1646 H   0  0  0  0  0  0  0  0  0  0  0  0
  152.0445  143.1346  160.0135 H   0  0  0  0  0  0  0  0  0  0  0  0
  154.0502  141.1069  158.9652 H   0  0  0  0  0  0  0  0  0  0  0  0
  153.4129  141.2182  160.6059 H   0  0  0  0  0  0  0  0  0  0  0  0
  151.2593  140.4339  159.9161 H   0  0  0  0  0  0  0  0  0  0  0  0
  152.2917  139.4645  158.8822 H   0  0  0  0  0  0  0  0  0  0  0  0
  1  2  1  0  0  0  0
  1 21  1  0  0  0  0
  1 22  1  0  0  0  0
  1 23  1  0  0  0  0
  2 20  1  0  0  0  0
  2  3  2  0  0  0  0
  3  4  1  0  0  0  0
  4  5  2  0  0  0  0
  5  6  1  0  0  0  0
  5 20  1  0  0  0  0
  6  7  1  0  0  0  0
  6 24  1  0  0  0  0
  7  8  2  0  0  0  0
  7  9  1  0  0  0  0
  9 10  1  0  0  0  0
  9 25  1  0  0  0  0
 10 11  1  0  0  0  0
 10 12  1  0  0  0  0
 10 26  1  0  0  0  0
 11 27  1  0  0  0  0
 11 28  1  0  0  0  0
 11 29  1  0  0  0  0
 12 13  2  0  0  0  0
 12 14  1  0  0  0  0
 14 15  1  0  0  0  0
 14 30  1  0  0  0  0
 15 19  1  0  0  0  0
 15 16  1  0  0  0  0
 15 31  1  0  0  0  0
 16 17  1  0  0  0  0
 16 32  1  0  0  0  0
 16 33  1  0  0  0  0
 17 18  1  0  0  0  0
 17 34  1  0  0  0  0
 17 35  1  0  0  0  0
 18 19  1  0  0  0  0
 18 36  1  0  0  0  0
 18 37  1  0  0  0  0
 19 38  1  0  0  0  0
 19 39  1  0  0  0  0
M  END
> <s_m_source_file>
AV-unprocessed.smi

> <i_m_source_file_index>
826

> <i_lp_mmshare_version>
43012

> <i_f3d_flags>
0

> <s_epik_input>
W0NIM11jMW5uYyhzMSlbTkhdQyg9TylbTkhdW0NASF0oW0NIM10pQyg9TylbTkhdW0NIXTJbQ0gyXVtDSDJdW0NIMl1bQ0gyXTI=

> <s_epik_cmdline>
J2VwaWtfcHl0aG9uJywgJy1waCcsICc3LjAnLCAnLXRuJywgJzgnLCAnLW1hJywgJzIwMCcsICctbWV0YWxfYmluZGluZycsICctaW1hZScsICc8aW5maWxlLm1hZT4nLCAnLW9tYWUnLCAnPG91dGZpbGUubWFlPic=

> <r_lp_tautomer_probability>
1

> <r_epik_Ionization_Penalty>
0.00368568

> <r_epik_Ionization_Penalty_Charging>
0

> <r_epik_Ionization_Penalty_Neutral>
0.00368568

> <r_epik_State_Penalty>
-0

> <r_epik_Charging_Adjusted_Penalty>
0

> <i_epik_Tot_Q>
0

> <i_epik_Tot_abs_Q>
0

> <r_epik_Metal_State_Penalty>
0.369753

> <b_epik_Metal_Only>
0

> <s_lp_Force_Field>
OPLS_2005

> <r_lp_Energy>
15.7146

> <b_lp_Chiralities_Consistent>
1

> <s_lp_Variant>
AV-unprocessed.smi:826-1

> <Gold.Version>
5.8.1

> <Gold.Id.Protein>
6NUR|6NUR_protein|mol2

> <Gold.PLP.Fitness>
41.6780

> <Gold.PLP.PLP>
-36.5730

> <Gold.PLP.part.hbond>
-2.8983

> <Gold.PLP.part.metal>
0.0000

> <Gold.PLP.part.buried>
-2.9726

> <Gold.PLP.part.nonpolar>
-30.6442

> <Gold.PLP.part.repulsive>
0.3280

> <Gold.PLP.ligand.clash>
0.0000

> <Gold.PLP.ligand.torsion>
0.4589

> <Gold.PLP.Chemscore.Hbond>
2.0000

> <Gold.PLP.Chemscore.CHOScore>
0.0000

> <Gold.PLP.Chemscore.Metal>
0.0000

> <Gold.Chemscore.Hbonds>
donor molecule, donor type, donor heavy atom, donor atom, acceptor molecule, acceptor atom, score
      L1  H     6    24       P1  7948  1.00
      P1  H 10752 10764       L1     8  0.67

> <Gold.PLP.Chemscore.Internal.Correction>
0.0229

> <Gold.Rescore>
     Score         DG    S(hbond)    S(metal)    S(lipo)     H(rot)  DE(clash)    DE(int)     intcor
     11.75     -15.72       1.60        0.00      78.01       1.65       0.07       3.90       ----

> <Gold.Chemscore.Fitness>
11.7520

> <Gold.Chemscore.DG>
-15.7241

> <Gold.Chemscore.ZeroCoef>
-5.4800

> <Gold.Chemscore.Hbond>
1.5957

> <Gold.Chemscore.Metal>
0.0000

> <Gold.Chemscore.Lipo>
78.0146

> <Gold.Chemscore.Internal_Hbond>
0.0000

> <Gold.Chemscore.DEClash>
0.0733

> <Gold.Chemscore.DEInternal>
3.8988

> <Gold.Chemscore.Rot>
1.6458

> <Gold.Chemscore.Internal.Correction>
   9.000000E+99

> <Gold.Chemscore.Hbonds>
donor molecule, donor type, donor heavy atom, donor atom, acceptor molecule, acceptor atom, score
      L1  H     6    24       P1  7948  0.72
      P1  H 10752 10764       L1     8  0.23

> <Gold.Chemscore.Hbond.Weighted>
-5.3297

> <Gold.Chemscore.Metal.Weighted>
-0.0000

> <Gold.Chemscore.Lipo.Weighted>
-9.1277

> <Gold.Chemscore.Internal_Hbond.Weighted>
0.0000

> <Gold.Chemscore.DEClash.Weighted>
0.0733

> <Gold.Chemscore.DEInternal.Weighted>
3.8988

> <Gold.Chemscore.Rot.Weighted>
4.2133

> <Gold.Chemscore.Internal.Correction.Weighted>
   9.000000E+99

> <Gold.Protein.RotatedTorsions>
[ 6907 6896 6895 6894 ] final   89.32 input  -60.11 | X-H torsion
[ 7974 7965 7964 7962 ] final -158.63 input  175.53 | X-H torsion
[ 8008 7997 7996 7995 ] final -170.21 input   59.86 | X-H torsion
[ 10167 10162 10161 10158 ] final  105.19 input  -65.29 | X-H torsion
[ 10718 10713 10712 10709 ] final -145.02 input   66.30 | X-H torsion
[ 10763 10752 10751 10750 ] final  -26.26 input  -60.55 | X-H torsion
[ 11005 11000 10999 10996 ] final  -26.13 input  -57.11 | X-H torsion

> <Gold.Protein.ActiveResidues>
 VAL166  LYS551  ARG553  GLY616  TRP617  ASP618  TYR619  PRO620  LYS621  CYS622 
 ASP623  PHE694  ASN695  SER759  ASP760  ASP761  ALA762  ILE779  LEU786  VAL792 
 PHE793  MET794  SER795  GLU796  ALA797  LYS798  CYS799  TRP800  GLU811  SER814 

> <Gold.Protein.RotatedAtoms>
  152.5435  134.1985  159.8702 H   0  0  0  0  0  0  0  0  0  0  0  0  # atno 6907 bound_to 6896
  151.1975  133.4623  159.2603 H   0  0  0  0  0  0  0  0  0  0  0  0  # atno 6908 bound_to 6896
  151.1022  134.9991  159.8509 H   0  0  0  0  0  0  0  0  0  0  0  0  # atno 6909 bound_to 6896
  144.7498  140.3800  143.6057 H   0  0  0  0  0  0  0  0  0  0  0  0  # atno 7974 bound_to 7965
  155.9153  140.1064  157.1248 H   0  0  0  0  0  0  0  0  0  0  0  0  # atno 8008 bound_to 7997
  154.4045  140.1266  156.4674 H   0  0  0  0  0  0  0  0  0  0  0  0  # atno 8009 bound_to 7997
  155.7262  140.3469  155.5040 H   0  0  0  0  0  0  0  0  0  0  0  0  # atno 8010 bound_to 7997
  139.7114  144.7077  151.1021 H   0  0  0  0  0  0  0  0  0  0  0  0  # atno 10167 bound_to 10162
  156.3773  130.7819  151.2007 H   0  0  0  0  0  0  0  0  0  0  0  0  # atno 10718 bound_to 10713
  153.7131  135.6949  153.5032 H   0  0  0  0  0  0  0  0  0  0  0  0  # atno 10763 bound_to 10752
  153.2258  135.4354  155.0539 H   0  0  0  0  0  0  0  0  0  0  0  0  # atno 10764 bound_to 10752
  154.8308  135.3472  154.6667 H   0  0  0  0  0  0  0  0  0  0  0  0  # atno 10765 bound_to 10752
  140.9001  133.7529  156.0533 H   0  0  0  0  0  0  0  0  0  0  0  0  # atno 11005 bound_to 11000
  145.6987  139.1656  143.2605 LP  0  0  0  0  0  0  0  0  0  0  0  0  # atno 17320 bound_to 7965
  146.1431  140.7030  142.9357 LP  0  0  0  0  0  0  0  0  0  0  0  0  # atno 17321 bound_to 7965
  140.7734  143.5288  150.9448 LP  0  0  0  0  0  0  0  0  0  0  0  0  # atno 17342 bound_to 10162
  139.8973  143.6879  152.3136 LP  0  0  0  0  0  0  0  0  0  0  0  0  # atno 17343 bound_to 10162
  157.7489  131.0354  150.4363 LP  0  0  0  0  0  0  0  0  0  0  0  0  # atno 17370 bound_to 10713
  156.4601  130.4030  149.6581 LP  0  0  0  0  0  0  0  0  0  0  0  0  # atno 17371 bound_to 10713
  140.8240  134.3256  157.5372 LP  0  0  0  0  0  0  0  0  0  0  0  0  # atno 17394 bound_to 11000
  139.8741  134.9325  156.3557 LP  0  0  0  0  0  0  0  0  0  0  0  0  # atno 17395 bound_to 11000

$$$$
