AV-unprocessed.smi:1654|AV-procd|sdf|6643|dock7
  -GOLD-   22720 7343D 1   1.00000     0.00000
 Structure written by MMmdl.
 39 40  0  0  0  0  0  0  0  0  2 V2000
  150.8829  139.1642  158.8189 O   0  0  0  0  0  0  0  0  0  0  0  0
  152.2019  139.6944  158.4366 S   0  0  0  0  0  0  0  0  0  0  0  0
  153.3929  139.0827  159.0493 O   0  0  0  0  0  0  0  0  0  0  0  0
  152.3779  139.9249  156.8408 N   0  5  0  0  0  0  0  0  0  0  0  0
  151.2734  139.5955  155.9580 C   0  0  0  0  0  0  0  0  0  0  0  0
  150.4263  140.8557  155.6887 C   0  0  0  0  0  0  0  0  0  0  0  0
  149.1412  140.5797  154.9184 C   0  0  0  0  0  0  0  0  0  0  0  0
  148.7909  139.2669  154.5336 C   0  0  0  0  0  0  0  0  0  0  0  0
  147.5996  139.0639  153.8105 C   0  0  0  0  0  0  0  0  0  0  0  0
  146.8069  140.1855  153.4965 C   0  0  0  0  0  0  0  0  0  0  0  0
  147.1320  141.4470  153.8517 N   0  0  0  0  0  0  0  0  0  0  0  0
  148.2757  141.6328  154.5461 C   0  0  0  0  0  0  0  0  0  0  0  0
  152.1930  141.3709  158.9114 N   0  0  0  0  0  0  0  0  0  0  0  0
  151.5774  142.3653  158.0119 C   0  0  0  0  0  0  0  0  0  0  0  0
  150.5606  143.2249  158.7781 C   0  0  0  0  0  0  0  0  0  0  0  0
  151.1462  144.4761  159.4575 C   0  0  0  0  0  0  0  0  0  0  0  0
  152.5596  144.3306  160.0506 C   0  0  0  0  0  0  0  0  0  0  0  0
  152.8462  142.9802  160.7263 C   0  0  0  0  0  0  0  0  0  0  0  0
  153.2997  141.8837  159.7433 C   0  0  0  0  0  0  0  0  0  0  0  0
  151.6271  139.1965  155.0067 H   0  0  0  0  0  0  0  0  0  0  0  0
  150.6346  138.8237  156.3888 H   0  0  0  0  0  0  0  0  0  0  0  0
  150.1663  141.3357  156.6336 H   0  0  0  0  0  0  0  0  0  0  0  0
  151.0146  141.5852  155.1303 H   0  0  0  0  0  0  0  0  0  0  0  0
  149.4230  138.4293  154.7898 H   0  0  0  0  0  0  0  0  0  0  0  0
  147.3011  138.0725  153.5038 H   0  0  0  0  0  0  0  0  0  0  0  0
  145.8873  140.0663  152.9428 H   0  0  0  0  0  0  0  0  0  0  0  0
  148.5070  142.6537  154.8129 H   0  0  0  0  0  0  0  0  0  0  0  0
  152.3438  142.9718  157.5282 H   0  0  0  0  0  0  0  0  0  0  0  0
  151.0557  141.8553  157.2039 H   0  0  0  0  0  0  0  0  0  0  0  0
  149.7785  143.5494  158.0912 H   0  0  0  0  0  0  0  0  0  0  0  0
  150.0519  142.6062  159.5192 H   0  0  0  0  0  0  0  0  0  0  0  0
  151.1644  145.2969  158.7395 H   0  0  0  0  0  0  0  0  0  0  0  0
  150.4570  144.7899  160.2422 H   0  0  0  0  0  0  0  0  0  0  0  0
  153.3049  144.5100  159.2748 H   0  0  0  0  0  0  0  0  0  0  0  0
  152.7032  145.1306  160.7777 H   0  0  0  0  0  0  0  0  0  0  0  0
  153.6563  143.1314  161.4402 H   0  0  0  0  0  0  0  0  0  0  0  0
  151.9909  142.6474  161.3161 H   0  0  0  0  0  0  0  0  0  0  0  0
  153.7341  141.0679  160.3198 H   0  0  0  0  0  0  0  0  0  0  0  0
  154.1007  142.2436  159.0967 H   0  0  0  0  0  0  0  0  0  0  0  0
  1  2  2  0  0  0  0
  2  3  2  0  0  0  0
  2  4  1  0  0  0  0
  2 13  1  0  0  0  0
  4  5  1  0  0  0  0
  5  6  1  0  0  0  0
  5 20  1  0  0  0  0
  5 21  1  0  0  0  0
  6  7  1  0  0  0  0
  6 22  1  0  0  0  0
  6 23  1  0  0  0  0
  7 12  1  0  0  0  0
  7  8  2  0  0  0  0
  8  9  1  0  0  0  0
  8 24  1  0  0  0  0
  9 10  2  0  0  0  0
  9 25  1  0  0  0  0
 10 11  1  0  0  0  0
 10 26  1  0  0  0  0
 11 12  2  0  0  0  0
 12 27  1  0  0  0  0
 13 19  1  0  0  0  0
 13 14  1  0  0  0  0
 14 15  1  0  0  0  0
 14 28  1  0  0  0  0
 14 29  1  0  0  0  0
 15 16  1  0  0  0  0
 15 30  1  0  0  0  0
 15 31  1  0  0  0  0
 16 17  1  0  0  0  0
 16 32  1  0  0  0  0
 16 33  1  0  0  0  0
 17 18  1  0  0  0  0
 17 34  1  0  0  0  0
 17 35  1  0  0  0  0
 18 19  1  0  0  0  0
 18 36  1  0  0  0  0
 18 37  1  0  0  0  0
 19 38  1  0  0  0  0
 19 39  1  0  0  0  0
M  CHG  1   4  -1
M  END
> <s_m_source_file>
AV-unprocessed.smi

> <i_m_source_file_index>
1654

> <i_lp_mmshare_version>
43012

> <i_f3d_flags>
0

> <s_epik_input>
W0NIMl0xW0NIMl1bQ0gyXVtDSDJdW0NIMl1bQ0gyXU4xUyg9TykoPU8pW05IXVtDSDJdW0NIMl1jMltjSF1bY0hdW2NIXW5bY0hdMg==

> <s_epik_cmdline>
J2VwaWtfcHl0aG9uJywgJy1waCcsICc3LjAnLCAnLXRuJywgJzgnLCAnLW1hJywgJzIwMCcsICctbWV0YWxfYmluZGluZycsICctaW1hZScsICc8aW5maWxlLm1hZT4nLCAnLW9tYWUnLCAnPG91dGZpbGUubWFlPic=

> <r_lp_tautomer_probability>
1

> <r_epik_Ionization_Penalty>
3.13138

> <r_epik_Ionization_Penalty_Charging>
3.10426

> <r_epik_Ionization_Penalty_Neutral>
0.027117

> <r_epik_State_Penalty>
3.10111

> <r_epik_Charging_Adjusted_Penalty>
6.20538

> <i_epik_Tot_Q>
-1

> <i_epik_Tot_abs_Q>
1

> <r_epik_Metal_State_Penalty>
0.464106

> <b_epik_Metal_Only>
1

> <s_lp_Force_Field>
OPLS_2005

> <r_lp_Energy>
12.7892

> <b_lp_Chiralities_Consistent>
1

> <s_lp_Variant>
AV-unprocessed.smi:1654-2

> <Gold.Version>
5.8.1

> <Gold.Id.Protein>
6NUR|6NUR_protein|mol2

> <Gold.PLP.Fitness>
51.7299

> <Gold.PLP.PLP>
-40.2770

> <Gold.PLP.part.hbond>
-1.0000

> <Gold.PLP.part.metal>
0.0000

> <Gold.PLP.part.buried>
-3.7433

> <Gold.PLP.part.nonpolar>
-35.0426

> <Gold.PLP.part.repulsive>
0.1728

> <Gold.PLP.ligand.clash>
0.0000

> <Gold.PLP.ligand.torsion>
1.8188

> <Gold.PLP.Chemscore.Hbond>
2.0000

> <Gold.PLP.Chemscore.CHOScore>
2.0000

> <Gold.PLP.Chemscore.Metal>
0.0000

> <Gold.Chemscore.Hbonds>
donor molecule, donor type, donor heavy atom, donor atom, acceptor molecule, acceptor atom, score
      P1  H  7997  8010       L1     4  1.98
      L1  C    10    26       P1 10175  1.00
      L1  C    12    27       P1  8028  1.00

> <Gold.PLP.Chemscore.Internal.Correction>
3.0905

> <Gold.Rescore>
     Score         DG    S(hbond)    S(metal)    S(lipo)     H(rot)  DE(clash)    DE(int)     intcor
     15.86     -18.19       0.96        0.00     109.02       1.27       0.38       1.94       ----

> <Gold.Chemscore.Fitness>
15.8633

> <Gold.Chemscore.DG>
-18.1865

> <Gold.Chemscore.ZeroCoef>
-5.4800

> <Gold.Chemscore.Hbond>
0.9617

> <Gold.Chemscore.Metal>
0.0000

> <Gold.Chemscore.Lipo>
109.0204

> <Gold.Chemscore.Internal_Hbond>
0.0000

> <Gold.Chemscore.DEClash>
0.3811

> <Gold.Chemscore.DEInternal>
1.9421

> <Gold.Chemscore.Rot>
1.2738

> <Gold.Chemscore.Internal.Correction>
   9.000000E+99

> <Gold.Chemscore.Hbonds>
donor molecule, donor type, donor heavy atom, donor atom, acceptor molecule, acceptor atom, score
      P1  H  7997  8010       L1     4  0.23

> <Gold.Chemscore.Hbond.Weighted>
-3.2122

> <Gold.Chemscore.Metal.Weighted>
-0.0000

> <Gold.Chemscore.Lipo.Weighted>
-12.7554

> <Gold.Chemscore.Internal_Hbond.Weighted>
0.0000

> <Gold.Chemscore.DEClash.Weighted>
0.3811

> <Gold.Chemscore.DEInternal.Weighted>
1.9421

> <Gold.Chemscore.Rot.Weighted>
3.2610

> <Gold.Chemscore.Internal.Correction.Weighted>
   9.000000E+99

> <Gold.Protein.RotatedTorsions>
[ 6907 6896 6895 6894 ] final  133.99 input  -60.11 | X-H torsion
[ 7974 7965 7964 7962 ] final -132.57 input  175.53 | X-H torsion
[ 8008 7997 7996 7995 ] final   54.52 input   59.86 | X-H torsion
[ 10167 10162 10161 10158 ] final  -84.04 input  -65.29 | X-H torsion
[ 10718 10713 10712 10709 ] final   56.39 input   66.30 | X-H torsion
[ 10763 10752 10751 10750 ] final -121.84 input  -60.55 | X-H torsion
[ 11005 11000 10999 10996 ] final   89.14 input  -57.11 | X-H torsion

> <Gold.Protein.ActiveResidues>
 VAL166  LYS551  ARG553  GLY616  TRP617  ASP618  TYR619  PRO620  LYS621  CYS622 
 ASP623  PHE694  ASN695  SER759  ASP760  ASP761  ALA762  ILE779  LEU786  VAL792 
 PHE793  MET794  SER795  GLU796  ALA797  LYS798  CYS799  TRP800  GLU811  SER814 

> <Gold.Protein.RotatedAtoms>
  152.3161  133.5804  159.5712 H   0  0  0  0  0  0  0  0  0  0  0  0  # atno 6907 bound_to 6896
  150.7347  134.0081  159.3669 H   0  0  0  0  0  0  0  0  0  0  0  0  # atno 6908 bound_to 6896
  151.7969  135.0720  160.0446 H   0  0  0  0  0  0  0  0  0  0  0  0  # atno 6909 bound_to 6896
  144.9273  140.7086  143.4928 H   0  0  0  0  0  0  0  0  0  0  0  0  # atno 7974 bound_to 7965
  155.4861  140.3470  155.4347 H   0  0  0  0  0  0  0  0  0  0  0  0  # atno 8008 bound_to 7997
  156.1007  140.1435  156.9499 H   0  0  0  0  0  0  0  0  0  0  0  0  # atno 8009 bound_to 7997
  154.4692  140.0907  156.7078 H   0  0  0  0  0  0  0  0  0  0  0  0  # atno 8010 bound_to 7997
  140.4169  143.2600  151.8942 H   0  0  0  0  0  0  0  0  0  0  0  0  # atno 10167 bound_to 10162
  157.5427  130.8709  149.8846 H   0  0  0  0  0  0  0  0  0  0  0  0  # atno 10718 bound_to 10713
  154.8677  135.4154  154.2685 H   0  0  0  0  0  0  0  0  0  0  0  0  # atno 10763 bound_to 10752
  153.3600  135.7003  153.6725 H   0  0  0  0  0  0  0  0  0  0  0  0  # atno 10764 bound_to 10752
  153.5630  135.3606  155.2779 H   0  0  0  0  0  0  0  0  0  0  0  0  # atno 10765 bound_to 10752
  139.8881  134.8532  156.3099 H   0  0  0  0  0  0  0  0  0  0  0  0  # atno 11005 bound_to 11000
  145.3199  139.1791  143.4593 LP  0  0  0  0  0  0  0  0  0  0  0  0  # atno 17320 bound_to 7965
  146.3231  140.3215  142.8633 LP  0  0  0  0  0  0  0  0  0  0  0  0  # atno 17321 bound_to 7965
  139.4782  144.5478  151.8432 LP  0  0  0  0  0  0  0  0  0  0  0  0  # atno 17342 bound_to 10162
  140.4576  144.1767  150.5903 LP  0  0  0  0  0  0  0  0  0  0  0  0  # atno 17343 bound_to 10162
  156.0510  130.3717  150.1202 LP  0  0  0  0  0  0  0  0  0  0  0  0  # atno 17370 bound_to 10713
  156.9380  130.9735  151.3521 LP  0  0  0  0  0  0  0  0  0  0  0  0  # atno 17371 bound_to 10713
  140.9857  133.7240  156.0738 LP  0  0  0  0  0  0  0  0  0  0  0  0  # atno 17394 bound_to 11000
  140.7691  134.3852  157.5511 LP  0  0  0  0  0  0  0  0  0  0  0  0  # atno 17395 bound_to 11000

$$$$
