AV-unprocessed.smi:1762|AV-procd|sdf|7107|dock5
  -GOLD-   22720 8333D 1   1.00000     0.00000
 Structure written by MMmdl.
 53 54  0  0  0  0  0  0  0  0  2 V2000
  150.1170  141.0134  157.0267 C   0  0  0  0  0  0  0  0  0  0  0  0
  150.4145  141.1939  155.5278 C   0  0  2  0  0  0  0  0  0  0  0  0
  149.1485  141.1869  154.6484 C   0  0  0  0  0  0  0  0  0  0  0  0
  148.5575  139.8529  154.4780 N   0  0  0  0  0  0  0  0  0  0  0  0
  147.3111  139.8788  153.6609 C   0  0  1  0  0  0  0  0  0  0  0  0
  146.7180  138.4747  153.3855 C   0  0  0  0  0  0  0  0  0  0  0  0
  147.2246  137.4704  153.8850 O   0  0  0  0  0  0  0  0  0  0  0  0
  145.6627  138.4194  152.5565 N   0  0  0  0  0  0  0  0  0  0  0  0
  145.0092  137.1915  152.1127 C   0  0  0  0  0  0  0  0  0  0  0  0
  145.6363  136.5914  150.8392 C   0  0  0  0  0  0  0  0  0  0  0  0
  145.2970  135.1267  150.6243 C   0  0  0  0  0  0  0  0  0  0  0  0
  145.6632  134.1300  151.5548 C   0  0  0  0  0  0  0  0  0  0  0  0
  145.3296  132.7849  151.2915 C   0  0  0  0  0  0  0  0  0  0  0  0
  144.6379  132.4647  150.1048 C   0  0  0  0  0  0  0  0  0  0  0  0
  144.2967  133.4996  149.2105 C   0  0  0  0  0  0  0  0  0  0  0  0
  144.6351  134.7754  149.4984 N   0  3  0  0  0  0  0  0  0  0  0  0
  146.2181  140.8735  154.1819 C   0  0  0  0  0  0  0  0  0  0  0  0
  146.4853  142.3479  153.8165 C   0  0  0  0  0  0  0  0  0  0  0  0
  145.9215  140.7379  155.6878 C   0  0  0  0  0  0  0  0  0  0  0  0
  149.6035  138.9380  153.9928 C   0  0  0  0  0  0  0  0  0  0  0  0
  150.8443  138.9163  154.9044 C   0  0  1  0  0  0  0  0  0  0  0  0
  151.9628  138.0358  154.3356 C   0  0  0  0  0  0  0  0  0  0  0  0
  151.3563  140.2364  155.0498 O   0  0  0  0  0  0  0  0  0  0  0  0
  149.4964  141.8290  157.3989 H   0  0  0  0  0  0  0  0  0  0  0  0
  151.0390  141.0090  157.6079 H   0  0  0  0  0  0  0  0  0  0  0  0
  149.5863  140.0840  157.2318 H   0  0  0  0  0  0  0  0  0  0  0  0
  150.8915  142.1682  155.4172 H   0  0  0  0  0  0  0  0  0  0  0  0
  148.4402  141.8787  155.0993 H   0  0  0  0  0  0  0  0  0  0  0  0
  149.3995  141.5997  153.6697 H   0  0  0  0  0  0  0  0  0  0  0  0
  147.5945  140.2574  152.6765 H   0  0  0  0  0  0  0  0  0  0  0  0
  145.3153  139.2873  152.1739 H   0  0  0  0  0  0  0  0  0  0  0  0
  145.0754  136.4683  152.9260 H   0  0  0  0  0  0  0  0  0  0  0  0
  143.9451  137.3751  151.9551 H   0  0  0  0  0  0  0  0  0  0  0  0
  145.3033  137.1587  149.9694 H   0  0  0  0  0  0  0  0  0  0  0  0
  146.7212  136.7034  150.8708 H   0  0  0  0  0  0  0  0  0  0  0  0
  146.1952  134.3908  152.4582 H   0  0  0  0  0  0  0  0  0  0  0  0
  145.6020  132.0079  151.9911 H   0  0  0  0  0  0  0  0  0  0  0  0
  144.3733  131.4407  149.8845 H   0  0  0  0  0  0  0  0  0  0  0  0
  143.7687  133.3472  148.2805 H   0  0  0  0  0  0  0  0  0  0  0  0
  145.2764  140.6015  153.7082 H   0  0  0  0  0  0  0  0  0  0  0  0
  147.3678  142.7426  154.3185 H   0  0  0  0  0  0  0  0  0  0  0  0
  145.6425  142.9766  154.1045 H   0  0  0  0  0  0  0  0  0  0  0  0
  146.6279  142.4768  152.7435 H   0  0  0  0  0  0  0  0  0  0  0  0
  146.7477  141.0973  156.3015 H   0  0  0  0  0  0  0  0  0  0  0  0
  145.7230  139.7002  155.9560 H   0  0  0  0  0  0  0  0  0  0  0  0
  145.0406  141.3185  155.9631 H   0  0  0  0  0  0  0  0  0  0  0  0
  149.2413  137.9116  153.9441 H   0  0  0  0  0  0  0  0  0  0  0  0
  149.8957  139.2175  152.9790 H   0  0  0  0  0  0  0  0  0  0  0  0
  150.5688  138.5246  155.8839 H   0  0  0  0  0  0  0  0  0  0  0  0
  151.6308  137.0034  154.2227 H   0  0  0  0  0  0  0  0  0  0  0  0
  152.8311  138.0349  154.9947 H   0  0  0  0  0  0  0  0  0  0  0  0
  152.2873  138.3921  153.3574 H   0  0  0  0  0  0  0  0  0  0  0  0
  144.3809  135.5085  148.8355 H   0  0  0  0  0  0  0  0  0  0  0  0
  1  2  1  0  0  0  0
  1 24  1  0  0  0  0
  1 25  1  0  0  0  0
  1 26  1  0  0  0  0
  2 23  1  0  0  0  0
  2  3  1  0  0  0  0
  2 27  1  0  0  0  0
  3  4  1  0  0  0  0
  3 28  1  0  0  0  0
  3 29  1  0  0  0  0
  4  5  1  0  0  0  0
  4 20  1  0  0  0  0
  5  6  1  0  0  0  0
  5 17  1  0  0  0  0
  5 30  1  0  0  0  0
  6  7  2  0  0  0  0
  6  8  1  0  0  0  0
  8  9  1  0  0  0  0
  8 31  1  0  0  0  0
  9 10  1  0  0  0  0
  9 32  1  0  0  0  0
  9 33  1  0  0  0  0
 10 11  1  0  0  0  0
 10 34  1  0  0  0  0
 10 35  1  0  0  0  0
 11 16  1  0  0  0  0
 11 12  2  0  0  0  0
 12 13  1  0  0  0  0
 12 36  1  0  0  0  0
 13 14  2  0  0  0  0
 13 37  1  0  0  0  0
 14 15  1  0  0  0  0
 14 38  1  0  0  0  0
 15 16  2  0  0  0  0
 15 39  1  0  0  0  0
 16 53  1  0  0  0  0
 17 18  1  0  0  0  0
 17 19  1  0  0  0  0
 17 40  1  0  0  0  0
 18 41  1  0  0  0  0
 18 42  1  0  0  0  0
 18 43  1  0  0  0  0
 19 44  1  0  0  0  0
 19 45  1  0  0  0  0
 19 46  1  0  0  0  0
 20 21  1  0  0  0  0
 20 47  1  0  0  0  0
 20 48  1  0  0  0  0
 21 22  1  0  0  0  0
 21 23  1  0  0  0  0
 21 49  1  0  0  0  0
 22 50  1  0  0  0  0
 22 51  1  0  0  0  0
 22 52  1  0  0  0  0
M  CHG  1  16   1
M  END
> <s_m_source_file>
AV-unprocessed.smi

> <i_m_source_file_index>
1762

> <i_lp_mmshare_version>
43012

> <i_f3d_flags>
0

> <s_epik_input>
W0NIM11bQ0BASF0xW0NIMl1OKFtDSDJdW0NASF0oTzEpW0NIM10pW0NAQEhdKFtDSF0oW0NIM10pW0NIM10pQyg9TylbTkhdW0NIMl1bQ0gyXWMyW2NIXVtjSF1bY0hdW2NIXW4y

> <s_epik_cmdline>
J2VwaWtfcHl0aG9uJywgJy1waCcsICc3LjAnLCAnLXRuJywgJzgnLCAnLW1hJywgJzIwMCcsICctbWV0YWxfYmluZGluZycsICctaW1hZScsICc8aW5maWxlLm1hZT4nLCAnLW9tYWUnLCAnPG91dGZpbGUubWFlPic=

> <r_epik_Ionization_Penalty>
1.86475

> <r_epik_Ionization_Penalty_Charging>
1.85347

> <r_epik_Ionization_Penalty_Neutral>
0.0112771

> <r_epik_State_Penalty>
1.99714

> <r_epik_Charging_Adjusted_Penalty>
3.85061

> <i_epik_Tot_Q>
1

> <i_epik_Tot_abs_Q>
1

> <r_epik_Metal_State_Penalty>
2.02271

> <b_epik_Metal_Only>
0

> <s_lp_Force_Field>
OPLS_2005

> <r_lp_Energy>
36.6316

> <b_lp_Chiralities_Consistent>
1

> <s_lp_Variant>
AV-unprocessed.smi:1762-9

> <Gold.Version>
5.8.1

> <Gold.Id.Protein>
6NUR|6NUR_protein|mol2

> <Gold.PLP.Fitness>
46.2886

> <Gold.PLP.PLP>
-41.6201

> <Gold.PLP.part.hbond>
-3.0000

> <Gold.PLP.part.metal>
0.0000

> <Gold.PLP.part.buried>
-4.9355

> <Gold.PLP.part.nonpolar>
-34.9037

> <Gold.PLP.part.repulsive>
0.4810

> <Gold.PLP.ligand.clash>
0.0000

> <Gold.PLP.ligand.torsion>
0.7624

> <Gold.PLP.Chemscore.Hbond>
1.9360

> <Gold.PLP.Chemscore.CHOScore>
0.0000

> <Gold.PLP.Chemscore.Metal>
0.0000

> <Gold.Chemscore.Hbonds>
donor molecule, donor type, donor heavy atom, donor atom, acceptor molecule, acceptor atom, score
      L1  H     8    31       P1 10175  0.74
      P1  H  7989  7998       L1    23  1.00

> <Gold.PLP.Chemscore.Internal.Correction>
0.3854

> <Gold.Rescore>
     Score         DG    S(hbond)    S(metal)    S(lipo)     H(rot)  DE(clash)    DE(int)     intcor
     15.01     -17.64       1.22        0.00     106.77       1.72       0.31       2.32       ----

> <Gold.Chemscore.Fitness>
15.0096

> <Gold.Chemscore.DG>
-17.6381

> <Gold.Chemscore.ZeroCoef>
-5.4800

> <Gold.Chemscore.Hbond>
1.2164

> <Gold.Chemscore.Metal>
0.0000

> <Gold.Chemscore.Lipo>
106.7689

> <Gold.Chemscore.Internal_Hbond>
0.0000

> <Gold.Chemscore.DEClash>
0.3091

> <Gold.Chemscore.DEInternal>
2.3194

> <Gold.Chemscore.Rot>
1.7174

> <Gold.Chemscore.Internal.Correction>
   9.000000E+99

> <Gold.Chemscore.Hbonds>
donor molecule, donor type, donor heavy atom, donor atom, acceptor molecule, acceptor atom, score
      L1  H     8    31       P1 10175  0.69
      P1  H  7989  7998       L1    23  0.17

> <Gold.Chemscore.Hbond.Weighted>
-4.0627

> <Gold.Chemscore.Metal.Weighted>
-0.0000

> <Gold.Chemscore.Lipo.Weighted>
-12.4920

> <Gold.Chemscore.Internal_Hbond.Weighted>
0.0000

> <Gold.Chemscore.DEClash.Weighted>
0.3091

> <Gold.Chemscore.DEInternal.Weighted>
2.3194

> <Gold.Chemscore.Rot.Weighted>
4.3966

> <Gold.Chemscore.Internal.Correction.Weighted>
   9.000000E+99

> <Gold.Protein.RotatedTorsions>
[ 6907 6896 6895 6894 ] final   27.13 input  -60.11 | X-H torsion
[ 7974 7965 7964 7962 ] final  140.90 input  175.53 | X-H torsion
[ 8008 7997 7996 7995 ] final  113.54 input   59.86 | X-H torsion
[ 10167 10162 10161 10158 ] final  127.56 input  -65.29 | X-H torsion
[ 10718 10713 10712 10709 ] final  -74.89 input   66.30 | X-H torsion
[ 10763 10752 10751 10750 ] final  -42.06 input  -60.55 | X-H torsion
[ 11005 11000 10999 10996 ] final   41.20 input  -57.11 | X-H torsion

> <Gold.Protein.ActiveResidues>
 VAL166  LYS551  ARG553  GLY616  TRP617  ASP618  TYR619  PRO620  LYS621  CYS622 
 ASP623  PHE694  ASN695  SER759  ASP760  ASP761  ALA762  ILE779  LEU786  VAL792 
 PHE793  MET794  SER795  GLU796  ALA797  LYS798  CYS799  TRP800  GLU811  SER814 

> <Gold.Protein.RotatedAtoms>
  151.9978  134.9945  160.0563 H   0  0  0  0  0  0  0  0  0  0  0  0  # atno 6907 bound_to 6896
  152.1548  133.4540  159.4840 H   0  0  0  0  0  0  0  0  0  0  0  0  # atno 6908 bound_to 6896
  150.6880  134.2062  159.4384 H   0  0  0  0  0  0  0  0  0  0  0  0  # atno 6909 bound_to 6896
  144.9145  139.5249  143.5693 H   0  0  0  0  0  0  0  0  0  0  0  0  # atno 7974 bound_to 7965
  156.2264  140.2977  156.0078 H   0  0  0  0  0  0  0  0  0  0  0  0  # atno 8008 bound_to 7997
  155.2344  140.0420  157.2984 H   0  0  0  0  0  0  0  0  0  0  0  0  # atno 8009 bound_to 7997
  154.5923  140.2404  155.7912 H   0  0  0  0  0  0  0  0  0  0  0  0  # atno 8010 bound_to 7997
  139.5572  144.6857  151.4149 H   0  0  0  0  0  0  0  0  0  0  0  0  # atno 10167 bound_to 10162
  156.0226  130.4428  150.2961 H   0  0  0  0  0  0  0  0  0  0  0  0  # atno 10718 bound_to 10713
  153.9728  135.6726  153.4747 H   0  0  0  0  0  0  0  0  0  0  0  0  # atno 10763 bound_to 10752
  153.0785  135.4936  154.8450 H   0  0  0  0  0  0  0  0  0  0  0  0  # atno 10764 bound_to 10752
  154.7209  135.3117  154.9010 H   0  0  0  0  0  0  0  0  0  0  0  0  # atno 10765 bound_to 10752
  140.1857  134.4049  155.8175 H   0  0  0  0  0  0  0  0  0  0  0  0  # atno 11005 bound_to 11000
  146.3175  139.7977  142.8972 LP  0  0  0  0  0  0  0  0  0  0  0  0  # atno 17320 bound_to 7965
  145.3399  141.0285  143.3398 LP  0  0  0  0  0  0  0  0  0  0  0  0  # atno 17321 bound_to 7965
  140.6846  143.8003  150.7169 LP  0  0  0  0  0  0  0  0  0  0  0  0  # atno 17342 bound_to 10162
  140.1466  143.4394  152.2158 LP  0  0  0  0  0  0  0  0  0  0  0  0  # atno 17343 bound_to 10162
  157.1064  131.0209  151.3065 LP  0  0  0  0  0  0  0  0  0  0  0  0  # atno 17370 bound_to 10713
  157.4739  130.7725  149.7350 LP  0  0  0  0  0  0  0  0  0  0  0  0  # atno 17371 bound_to 10713
  141.2225  133.7022  156.8008 LP  0  0  0  0  0  0  0  0  0  0  0  0  # atno 17394 bound_to 11000
  140.2217  134.8752  157.3384 LP  0  0  0  0  0  0  0  0  0  0  0  0  # atno 17395 bound_to 11000

$$$$
