AV-unprocessed.smi:3331|AV-procd|sdf|12826|dock3
  -GOLD-   2272019203D 1   1.00000     0.00000
 Structure written by MMmdl.
 46 47  0  0  0  0  0  0  0  0  1 V2000
  154.2726  141.3202  160.7312 C   0  0  0  0  0  0  0  0  0  0  0  0
  153.3215  141.9983  159.7358 C   0  0  2  0  0  0  0  0  0  0  0  0
  153.0434  143.4665  160.1306 C   0  0  0  0  0  0  0  0  0  0  0  0
  151.9840  144.1413  159.2307 C   0  0  1  0  0  0  0  0  0  0  0  0
  152.5581  144.5464  157.8614 C   0  0  0  0  0  0  0  0  0  0  0  0
  150.7381  143.2360  159.1111 C   0  0  0  0  0  0  0  0  0  0  0  0
  151.1342  141.9049  158.6256 N   0  0  0  0  0  0  0  0  0  0  0  0
  150.8439  141.3725  157.4101 C   0  0  0  0  0  0  0  0  0  0  0  0
  151.2429  140.2538  157.0808 O   0  0  0  0  0  0  0  0  0  0  0  0
  149.9847  142.1734  156.4081 C   0  0  1  0  0  0  0  0  0  0  0  0
  149.7783  141.3964  155.0885 C   0  0  0  0  0  0  0  0  0  0  0  0
  148.6974  142.5265  157.0293 N   0  0  0  0  0  0  0  0  0  0  0  0
  147.9729  141.3661  157.5329 C   0  0  0  0  0  0  0  0  0  0  0  0
  146.4958  141.7232  157.7694 C   0  0  0  0  0  0  0  0  0  0  0  0
  146.3019  142.4989  158.9821 N   0  0  0  0  0  0  0  0  0  0  0  0
  146.7432  143.7753  159.2612 C   0  0  0  0  0  0  0  0  0  0  0  0
  146.3209  144.0849  160.5223 C   0  0  0  0  0  0  0  0  0  0  0  0
  145.6234  142.9175  160.9408 C   0  0  0  0  0  0  0  0  0  0  0  0
  145.6160  141.9690  160.0182 N   0  0  0  0  0  0  0  0  0  0  0  0
  151.9953  141.2216  159.6005 C   0  0  0  0  0  0  0  0  0  0  0  0
  153.8402  141.2846  161.7315 H   0  0  0  0  0  0  0  0  0  0  0  0
  155.2199  141.8561  160.7958 H   0  0  0  0  0  0  0  0  0  0  0  0
  154.4935  140.2965  160.4275 H   0  0  0  0  0  0  0  0  0  0  0  0
  153.8141  141.9936  158.7623 H   0  0  0  0  0  0  0  0  0  0  0  0
  152.6840  143.4893  161.1603 H   0  0  0  0  0  0  0  0  0  0  0  0
  153.9690  144.0437  160.1246 H   0  0  0  0  0  0  0  0  0  0  0  0
  151.6750  145.0642  159.7233 H   0  0  0  0  0  0  0  0  0  0  0  0
  152.8996  143.6835  157.2895 H   0  0  0  0  0  0  0  0  0  0  0  0
  153.4070  145.2205  157.9779 H   0  0  0  0  0  0  0  0  0  0  0  0
  151.8089  145.0646  157.2626 H   0  0  0  0  0  0  0  0  0  0  0  0
  150.2776  143.1216  160.0937 H   0  0  0  0  0  0  0  0  0  0  0  0
  149.9766  143.7232  158.5059 H   0  0  0  0  0  0  0  0  0  0  0  0
  150.5321  143.0811  156.1547 H   0  0  0  0  0  0  0  0  0  0  0  0
  150.7253  141.0251  154.6944 H   0  0  0  0  0  0  0  0  0  0  0  0
  149.3475  142.0265  154.3112 H   0  0  0  0  0  0  0  0  0  0  0  0
  149.1163  140.5402  155.2255 H   0  0  0  0  0  0  0  0  0  0  0  0
  148.1003  143.0102  156.3736 H   0  0  0  0  0  0  0  0  0  0  0  0
  148.0331  140.5594  156.8011 H   0  0  0  0  0  0  0  0  0  0  0  0
  148.4148  140.9970  158.4579 H   0  0  0  0  0  0  0  0  0  0  0  0
  146.0898  142.2702  156.9165 H   0  0  0  0  0  0  0  0  0  0  0  0
  145.9069  140.8100  157.8601 H   0  0  0  0  0  0  0  0  0  0  0  0
  147.3117  144.3511  158.5457 H   0  0  0  0  0  0  0  0  0  0  0  0
  146.4850  145.0048  161.0633 H   0  0  0  0  0  0  0  0  0  0  0  0
  145.1270  142.7317  161.8818 H   0  0  0  0  0  0  0  0  0  0  0  0
  152.1988  140.1846  159.3298 H   0  0  0  0  0  0  0  0  0  0  0  0
  151.4841  141.1761  160.5635 H   0  0  0  0  0  0  0  0  0  0  0  0
  1  2  1  0  0  0  0
  1 21  1  0  0  0  0
  1 22  1  0  0  0  0
  1 23  1  0  0  0  0
  2 20  1  0  0  0  0
  2  3  1  0  0  0  0
  2 24  1  0  0  0  0
  3  4  1  0  0  0  0
  3 25  1  0  0  0  0
  3 26  1  0  0  0  0
  4  5  1  0  0  0  0
  4  6  1  0  0  0  0
  4 27  1  0  0  0  0
  5 28  1  0  0  0  0
  5 29  1  0  0  0  0
  5 30  1  0  0  0  0
  6  7  1  0  0  0  0
  6 31  1  0  0  0  0
  6 32  1  0  0  0  0
  7  8  1  0  0  0  0
  7 20  1  0  0  0  0
  8  9  2  0  0  0  0
  8 10  1  0  0  0  0
 10 11  1  0  0  0  0
 10 12  1  0  0  0  0
 10 33  1  0  0  0  0
 11 34  1  0  0  0  0
 11 35  1  0  0  0  0
 11 36  1  0  0  0  0
 12 13  1  0  0  0  0
 12 37  1  0  0  0  0
 13 14  1  0  0  0  0
 13 38  1  0  0  0  0
 13 39  1  0  0  0  0
 14 15  1  0  0  0  0
 14 40  1  0  0  0  0
 14 41  1  0  0  0  0
 15 19  1  0  0  0  0
 15 16  1  0  0  0  0
 16 17  2  0  0  0  0
 16 42  1  0  0  0  0
 17 18  1  0  0  0  0
 17 43  1  0  0  0  0
 18 19  2  0  0  0  0
 18 44  1  0  0  0  0
 20 45  1  0  0  0  0
 20 46  1  0  0  0  0
M  END
> <s_m_source_file>
AV-unprocessed.smi

> <i_m_source_file_index>
3331

> <i_lp_mmshare_version>
43012

> <i_f3d_flags>
0

> <s_epik_input>
W0NIM11bQ0BASF0xW0NIMl1bQ0BASF0oW0NIM10pW0NIMl1OKFtDSDJdMSlDKD1PKVtDQEhdKFtDSDNdKVtOSF1bQ0gyXVtDSDJdbjJbY0hdW2NIXVtjSF1uMg==

> <s_epik_cmdline>
J2VwaWtfcHl0aG9uJywgJy1waCcsICc3LjAnLCAnLXRuJywgJzgnLCAnLW1hJywgJzIwMCcsICctbWV0YWxfYmluZGluZycsICctaW1hZScsICc8aW5maWxlLm1hZT4nLCAnLW9tYWUnLCAnPG91dGZpbGUubWFlPic=

> <r_lp_tautomer_probability>
1

> <r_epik_Ionization_Penalty>
0.767994

> <r_epik_Ionization_Penalty_Charging>
0

> <r_epik_Ionization_Penalty_Neutral>
0.767994

> <r_epik_State_Penalty>
0.795453

> <r_epik_Charging_Adjusted_Penalty>
0.795453

> <i_epik_Tot_Q>
0

> <i_epik_Tot_abs_Q>
0

> <r_epik_Metal_State_Penalty>
0.794784

> <b_epik_Metal_Only>
0

> <s_lp_Force_Field>
OPLS_2005

> <r_lp_Energy>
31.6007

> <b_lp_Chiralities_Consistent>
1

> <s_lp_Variant>
AV-unprocessed.smi:3331-10

> <Gold.Version>
5.8.1

> <Gold.Id.Protein>
6NUR|6NUR_protein|mol2

> <Gold.PLP.Fitness>
46.2600

> <Gold.PLP.PLP>
-39.6865

> <Gold.PLP.part.hbond>
-2.0000

> <Gold.PLP.part.metal>
0.0000

> <Gold.PLP.part.buried>
-1.8188

> <Gold.PLP.part.nonpolar>
-35.2186

> <Gold.PLP.part.repulsive>
0.0000

> <Gold.PLP.ligand.clash>
0.0000

> <Gold.PLP.ligand.torsion>
0.2096

> <Gold.PLP.Chemscore.Hbond>
1.3040

> <Gold.PLP.Chemscore.CHOScore>
1.0000

> <Gold.PLP.Chemscore.Metal>
0.0000

> <Gold.Chemscore.Hbonds>
donor molecule, donor type, donor heavy atom, donor atom, acceptor molecule, acceptor atom, score
      L1  H    12    37       P1  8028  0.30
      P1  H  6934  6946       L1    19  1.00
      L1  C    16    42       P1  8029  1.00

> <Gold.PLP.Chemscore.Internal.Correction>
0.0807

> <Gold.Rescore>
     Score         DG    S(hbond)    S(metal)    S(lipo)     H(rot)  DE(clash)    DE(int)     intcor
     15.19     -15.78       0.92        0.00      98.24       1.66       0.07       0.52       ----

> <Gold.Chemscore.Fitness>
15.1894

> <Gold.Chemscore.DG>
-15.7766

> <Gold.Chemscore.ZeroCoef>
-5.4800

> <Gold.Chemscore.Hbond>
0.9175

> <Gold.Chemscore.Metal>
0.0000

> <Gold.Chemscore.Lipo>
98.2412

> <Gold.Chemscore.Internal_Hbond>
0.0000

> <Gold.Chemscore.DEClash>
0.0718

> <Gold.Chemscore.DEInternal>
0.5154

> <Gold.Chemscore.Rot>
1.6649

> <Gold.Chemscore.Internal.Correction>
   9.000000E+99

> <Gold.Chemscore.Hbonds>
donor molecule, donor type, donor heavy atom, donor atom, acceptor molecule, acceptor atom, score
      L1  H    12    37       P1  8028  0.15
      P1  H  6934  6946       L1    19  0.07

> <Gold.Chemscore.Hbond.Weighted>
-3.0645

> <Gold.Chemscore.Metal.Weighted>
-0.0000

> <Gold.Chemscore.Lipo.Weighted>
-11.4942

> <Gold.Chemscore.Internal_Hbond.Weighted>
0.0000

> <Gold.Chemscore.DEClash.Weighted>
0.0718

> <Gold.Chemscore.DEInternal.Weighted>
0.5154

> <Gold.Chemscore.Rot.Weighted>
4.2621

> <Gold.Chemscore.Internal.Correction.Weighted>
   9.000000E+99

> <Gold.Protein.RotatedTorsions>
[ 6907 6896 6895 6894 ] final  167.78 input  -60.11 | X-H torsion
[ 7974 7965 7964 7962 ] final  -11.94 input  175.53 | X-H torsion
[ 8008 7997 7996 7995 ] final   32.35 input   59.86 | X-H torsion
[ 10167 10162 10161 10158 ] final  120.79 input  -65.29 | X-H torsion
[ 10718 10713 10712 10709 ] final   42.91 input   66.30 | X-H torsion
[ 10763 10752 10751 10750 ] final  -26.02 input  -60.55 | X-H torsion
[ 11005 11000 10999 10996 ] final  110.68 input  -57.11 | X-H torsion

> <Gold.Protein.ActiveResidues>
 VAL166  LYS551  ARG553  GLY616  TRP617  ASP618  TYR619  PRO620  LYS621  CYS622 
 ASP623  PHE694  ASN695  SER759  ASP760  ASP761  ALA762  ILE779  LEU786  VAL792 
 PHE793  MET794  SER795  GLU796  ALA797  LYS798  CYS799  TRP800  GLU811  SER814 

> <Gold.Protein.RotatedAtoms>
  151.8579  133.3452  159.3694 H   0  0  0  0  0  0  0  0  0  0  0  0  # atno 6907 bound_to 6896
  150.7187  134.5234  159.5674 H   0  0  0  0  0  0  0  0  0  0  0  0  # atno 6908 bound_to 6896
  152.2742  134.7900  160.0459 H   0  0  0  0  0  0  0  0  0  0  0  0  # atno 6909 bound_to 6896
  146.2170  140.2985  142.8373 H   0  0  0  0  0  0  0  0  0  0  0  0  # atno 7974 bound_to 7965
  155.1211  140.3248  155.4497 H   0  0  0  0  0  0  0  0  0  0  0  0  # atno 8008 bound_to 7997
  156.2662  140.2027  156.6282 H   0  0  0  0  0  0  0  0  0  0  0  0  # atno 8009 bound_to 7997
  154.6683  140.0539  157.0124 H   0  0  0  0  0  0  0  0  0  0  0  0  # atno 8010 bound_to 7997
  139.5960  144.7042  151.3175 H   0  0  0  0  0  0  0  0  0  0  0  0  # atno 10167 bound_to 10162
  157.4100  130.7909  149.7422 H   0  0  0  0  0  0  0  0  0  0  0  0  # atno 10718 bound_to 10713
  153.7093  135.6951  153.5042 H   0  0  0  0  0  0  0  0  0  0  0  0  # atno 10763 bound_to 10752
  153.2285  135.4346  155.0567 H   0  0  0  0  0  0  0  0  0  0  0  0  # atno 10764 bound_to 10752
  154.8320  135.3478  154.6630 H   0  0  0  0  0  0  0  0  0  0  0  0  # atno 10765 bound_to 10752
  139.8887  134.9490  156.6317 H   0  0  0  0  0  0  0  0  0  0  0  0  # atno 11005 bound_to 11000
  144.9074  140.7717  143.5829 LP  0  0  0  0  0  0  0  0  0  0  0  0  # atno 17320 bound_to 7965
  145.2914  139.1882  143.4738 LP  0  0  0  0  0  0  0  0  0  0  0  0  # atno 17321 bound_to 7965
  140.7212  143.7130  150.7754 LP  0  0  0  0  0  0  0  0  0  0  0  0  # atno 17342 bound_to 10162
  140.0696  143.5074  152.2586 LP  0  0  0  0  0  0  0  0  0  0  0  0  # atno 17343 bound_to 10162
  155.9848  130.3988  150.3294 LP  0  0  0  0  0  0  0  0  0  0  0  0  # atno 17370 bound_to 10713
  157.1431  131.0301  151.2919 LP  0  0  0  0  0  0  0  0  0  0  0  0  # atno 17371 bound_to 10713
  140.7662  133.8776  155.8456 LP  0  0  0  0  0  0  0  0  0  0  0  0  # atno 17394 bound_to 11000
  140.9881  134.1316  157.4434 LP  0  0  0  0  0  0  0  0  0  0  0  0  # atno 17395 bound_to 11000

$$$$
