AV-unprocessed.smi:2032|AV-procd|sdf|8255|dock5
  -GOLD-   2272010533D 1   1.00000     0.00000
 Structure written by MMmdl.
 42 43  0  0  0  0  0  0  0  0  3 V2000
  148.8434  140.7562  154.6591 C   0  0  0  0  0  0  0  0  0  0  0  0
  149.5339  139.4556  154.2344 C   0  0  2  0  0  0  0  0  0  0  0  0
  148.8316  138.2107  154.8059 C   0  0  0  0  0  0  0  0  0  0  0  0
  149.5498  136.9659  154.4191 N   0  3  2  0  0  0  0  0  0  0  0  0
  148.8372  135.7205  154.8582 C   0  0  2  0  0  0  0  0  0  0  0  0
  147.3020  135.7952  154.6649 C   0  0  0  0  0  0  0  0  0  0  0  0
  149.1916  135.3994  156.3341 C   0  0  0  0  0  0  0  0  0  0  0  0
  148.4542  136.2204  157.2917 N   0  0  0  0  0  0  0  0  0  0  0  0
  148.4697  136.0901  158.6263 C   0  0  0  0  0  0  0  0  0  0  0  0
  149.1702  135.2238  159.1546 O   0  0  0  0  0  0  0  0  0  0  0  0
  147.6752  136.9771  159.2656 N   0  5  0  0  0  0  0  0  0  0  0  0
  147.2212  136.7022  160.4994 C   0  0  0  0  0  0  0  0  0  0  0  0
  146.4261  137.5321  161.1843 N   0  0  0  0  0  0  0  0  0  0  0  0
  146.0753  137.0496  162.4464 C   0  0  0  0  0  0  0  0  0  0  0  0
  146.6224  135.8270  162.7323 C   0  0  0  0  0  0  0  0  0  0  0  0
  147.6022  135.2426  161.4177 S   0  0  0  0  0  0  0  0  0  0  0  0
  150.9767  137.0729  154.8315 C   0  0  0  0  0  0  0  0  0  0  0  0
  151.6213  138.3597  154.2804 C   0  0  2  0  0  0  0  0  0  0  0  0
  153.0656  138.5345  154.7633 C   0  0  0  0  0  0  0  0  0  0  0  0
  150.8717  139.4876  154.7119 O   0  0  0  0  0  0  0  0  0  0  0  0
  147.8117  140.7859  154.3076 H   0  0  0  0  0  0  0  0  0  0  0  0
  149.3588  141.6235  154.2456 H   0  0  0  0  0  0  0  0  0  0  0  0
  148.8308  140.8626  155.7443 H   0  0  0  0  0  0  0  0  0  0  0  0
  149.5387  139.4081  153.1439 H   0  0  0  0  0  0  0  0  0  0  0  0
  148.7808  138.2762  155.8941 H   0  0  0  0  0  0  0  0  0  0  0  0
  147.8060  138.2032  154.4434 H   0  0  0  0  0  0  0  0  0  0  0  0
  149.1898  134.8989  154.2325 H   0  0  0  0  0  0  0  0  0  0  0  0
  146.8062  134.8848  154.9999 H   0  0  0  0  0  0  0  0  0  0  0  0
  147.0237  135.9018  153.6167 H   0  0  0  0  0  0  0  0  0  0  0  0
  146.8701  136.6265  155.2229 H   0  0  0  0  0  0  0  0  0  0  0  0
  148.9400  134.3713  156.5857 H   0  0  0  0  0  0  0  0  0  0  0  0
  150.2688  135.4860  156.4848 H   0  0  0  0  0  0  0  0  0  0  0  0
  147.8664  136.9476  156.9106 H   0  0  0  0  0  0  0  0  0  0  0  0
  145.4304  137.6443  163.0761 H   0  0  0  0  0  0  0  0  0  0  0  0
  146.5118  135.2382  163.6303 H   0  0  0  0  0  0  0  0  0  0  0  0
  151.0442  137.0485  155.9206 H   0  0  0  0  0  0  0  0  0  0  0  0
  151.5544  136.2331  154.4467 H   0  0  0  0  0  0  0  0  0  0  0  0
  151.6248  138.3286  153.1892 H   0  0  0  0  0  0  0  0  0  0  0  0
  153.6893  137.6969  154.4497 H   0  0  0  0  0  0  0  0  0  0  0  0
  153.1140  138.5990  155.8509 H   0  0  0  0  0  0  0  0  0  0  0  0
  153.5053  139.4454  154.3562 H   0  0  0  0  0  0  0  0  0  0  0  0
  149.5596  136.9357  153.4094 H   0  0  0  0  0  0  0  0  0  0  0  0
  1  2  1  0  0  0  0
  1 21  1  0  0  0  0
  1 22  1  0  0  0  0
  1 23  1  0  0  0  0
  2 20  1  0  0  0  0
  2  3  1  0  0  0  0
  2 24  1  0  0  0  0
  3  4  1  0  0  0  0
  3 25  1  0  0  0  0
  3 26  1  0  0  0  0
  4  5  1  0  0  0  0
  4 17  1  0  0  0  0
  4 42  1  0  0  0  0
  5  6  1  0  0  0  0
  5  7  1  0  0  0  0
  5 27  1  0  0  0  0
  6 28  1  0  0  0  0
  6 29  1  0  0  0  0
  6 30  1  0  0  0  0
  7  8  1  0  0  0  0
  7 31  1  0  0  0  0
  7 32  1  0  0  0  0
  8  9  1  0  0  0  0
  8 33  1  0  0  0  0
  9 10  2  0  0  0  0
  9 11  1  0  0  0  0
 11 12  1  0  0  0  0
 12 16  1  0  0  0  0
 12 13  2  0  0  0  0
 13 14  1  0  0  0  0
 14 15  2  0  0  0  0
 14 34  1  0  0  0  0
 15 16  1  0  0  0  0
 15 35  1  0  0  0  0
 17 18  1  0  0  0  0
 17 36  1  0  0  0  0
 17 37  1  0  0  0  0
 18 19  1  0  0  0  0
 18 20  1  0  0  0  0
 18 38  1  0  0  0  0
 19 39  1  0  0  0  0
 19 40  1  0  0  0  0
 19 41  1  0  0  0  0
M  CHG  1   4   1
M  CHG  1  11  -1
M  END
> <s_m_source_file>
AV-unprocessed.smi

> <i_m_source_file_index>
2032

> <i_lp_mmshare_version>
43012

> <i_f3d_flags>
0

> <s_epik_input>
W0NIM11bQ0BASF0xW0NIMl1OKFtDSDJdW0NASF0oTzEpW0NIM10pW0NASF0oW0NIM10pW0NIMl1bTkhdQyg9TylbTkhdYzJuW2NIXVtjSF1zMg==

> <s_epik_cmdline>
J2VwaWtfcHl0aG9uJywgJy1waCcsICc3LjAnLCAnLXRuJywgJzgnLCAnLW1hJywgJzIwMCcsICctbWV0YWxfYmluZGluZycsICctaW1hZScsICc8aW5maWxlLm1hZT4nLCAnLW9tYWUnLCAnPG91dGZpbGUubWFlPic=

> <r_lp_tautomer_probability>
0.999

> <r_epik_Ionization_Penalty>
6.71699

> <r_epik_Ionization_Penalty_Charging>
5.88592

> <r_epik_Ionization_Penalty_Neutral>
0.831074

> <r_epik_State_Penalty>
6.08365

> <r_epik_Charging_Adjusted_Penalty>
11.9696

> <i_epik_Tot_Q>
0

> <i_epik_Tot_abs_Q>
2

> <r_epik_Metal_State_Penalty>
2.0947

> <b_epik_Metal_Only>
1

> <s_lp_Force_Field>
OPLS_2005

> <r_lp_Energy>
9.66165

> <b_lp_Chiralities_Consistent>
1

> <s_lp_Variant>
AV-unprocessed.smi:2032-25

> <Gold.Version>
5.8.1

> <Gold.Id.Protein>
6NUR|6NUR_protein|mol2

> <Gold.PLP.Fitness>
43.8074

> <Gold.PLP.PLP>
-29.8812

> <Gold.PLP.part.hbond>
-3.9559

> <Gold.PLP.part.metal>
0.0000

> <Gold.PLP.part.buried>
-2.4714

> <Gold.PLP.part.nonpolar>
-24.3738

> <Gold.PLP.part.repulsive>
0.1286

> <Gold.PLP.ligand.clash>
0.0000

> <Gold.PLP.ligand.torsion>
0.5729

> <Gold.PLP.Chemscore.Hbond>
5.0000

> <Gold.PLP.Chemscore.CHOScore>
0.0000

> <Gold.PLP.Chemscore.Metal>
0.0000

> <Gold.Chemscore.Hbonds>
donor molecule, donor type, donor heavy atom, donor atom, acceptor molecule, acceptor atom, score
      L1  H     4    42       P1  7948  2.00
      P1  H  6896  6907       L1    10  1.00
      P1  H  6934  6947       L1    13  1.00
      P1  H  7989  7998       L1    20  0.95

> <Gold.PLP.Chemscore.Internal.Correction>
0.0720

> <Gold.Rescore>
     Score         DG    S(hbond)    S(metal)    S(lipo)     H(rot)  DE(clash)    DE(int)     intcor
     16.96     -20.08       2.87        0.00      77.48       1.58       1.06       2.07       ----

> <Gold.Chemscore.Fitness>
16.9573

> <Gold.Chemscore.DG>
-20.0842

> <Gold.Chemscore.ZeroCoef>
-5.4800

> <Gold.Chemscore.Hbond>
2.8688

> <Gold.Chemscore.Metal>
0.0000

> <Gold.Chemscore.Lipo>
77.4769

> <Gold.Chemscore.Internal_Hbond>
0.0000

> <Gold.Chemscore.DEClash>
1.0560

> <Gold.Chemscore.DEInternal>
2.0709

> <Gold.Chemscore.Rot>
1.5791

> <Gold.Chemscore.Internal.Correction>
   9.000000E+99

> <Gold.Chemscore.Hbonds>
donor molecule, donor type, donor heavy atom, donor atom, acceptor molecule, acceptor atom, score
      L1  H     4    42       P1  7948  0.75
      P1  H  6896  6907       L1    10  0.98
      P1  H  6934  6947       L1    13  0.39
      P1  H  7989  7998       L1    20  0.05

> <Gold.Chemscore.Hbond.Weighted>
-9.5819

> <Gold.Chemscore.Metal.Weighted>
-0.0000

> <Gold.Chemscore.Lipo.Weighted>
-9.0648

> <Gold.Chemscore.Internal_Hbond.Weighted>
0.0000

> <Gold.Chemscore.DEClash.Weighted>
1.0560

> <Gold.Chemscore.DEInternal.Weighted>
2.0709

> <Gold.Chemscore.Rot.Weighted>
4.0425

> <Gold.Chemscore.Internal.Correction.Weighted>
   9.000000E+99

> <Gold.Protein.RotatedTorsions>
[ 6907 6896 6895 6894 ] final  -86.63 input  -60.11 | X-H torsion
[ 7974 7965 7964 7962 ] final  -46.72 input  175.53 | X-H torsion
[ 8008 7997 7996 7995 ] final  -52.67 input   59.86 | X-H torsion
[ 10167 10162 10161 10158 ] final  -69.76 input  -65.29 | X-H torsion
[ 10718 10713 10712 10709 ] final -121.98 input   66.30 | X-H torsion
[ 10763 10752 10751 10750 ] final  -13.14 input  -60.55 | X-H torsion
[ 11005 11000 10999 10996 ] final  147.97 input  -57.11 | X-H torsion

> <Gold.Protein.ActiveResidues>
 VAL166  LYS551  ARG553  GLY616  TRP617  ASP618  TYR619  PRO620  LYS621  CYS622 
 ASP623  PHE694  ASN695  SER759  ASP760  ASP761  ALA762  ILE779  LEU786  VAL792 
 PHE793  MET794  SER795  GLU796  ALA797  LYS798  CYS799  TRP800  GLU811  SER814 

> <Gold.Protein.RotatedAtoms>
  150.6867  134.3021  159.4710 H   0  0  0  0  0  0  0  0  0  0  0  0  # atno 6907 bound_to 6896
  152.0916  134.9401  160.0581 H   0  0  0  0  0  0  0  0  0  0  0  0  # atno 6908 bound_to 6896
  152.0714  133.4074  159.4498 H   0  0  0  0  0  0  0  0  0  0  0  0  # atno 6909 bound_to 6896
  145.9690  140.7403  142.9420 H   0  0  0  0  0  0  0  0  0  0  0  0  # atno 7974 bound_to 7965
  154.4112  140.1218  156.5028 H   0  0  0  0  0  0  0  0  0  0  0  0  # atno 8008 bound_to 7997
  155.6877  140.3495  155.4861 H   0  0  0  0  0  0  0  0  0  0  0  0  # atno 8009 bound_to 7997
  155.9496  140.1102  157.0978 H   0  0  0  0  0  0  0  0  0  0  0  0  # atno 8010 bound_to 7997
  140.5405  143.2315  151.7097 H   0  0  0  0  0  0  0  0  0  0  0  0  # atno 10167 bound_to 10162
  156.1381  130.6446  150.9729 H   0  0  0  0  0  0  0  0  0  0  0  0  # atno 10718 bound_to 10713
  153.5088  135.7016  153.5792 H   0  0  0  0  0  0  0  0  0  0  0  0  # atno 10763 bound_to 10752
  153.3891  135.3900  155.1910 H   0  0  0  0  0  0  0  0  0  0  0  0  # atno 10764 bound_to 10752
  154.8705  135.3854  154.4566 H   0  0  0  0  0  0  0  0  0  0  0  0  # atno 10765 bound_to 10752
  140.0920  134.9035  157.1665 H   0  0  0  0  0  0  0  0  0  0  0  0  # atno 11005 bound_to 11000
  144.6832  140.2716  143.7305 LP  0  0  0  0  0  0  0  0  0  0  0  0  # atno 17320 bound_to 7965
  145.7933  139.1935  143.2090 LP  0  0  0  0  0  0  0  0  0  0  0  0  # atno 17321 bound_to 7965
  139.4987  144.3975  152.0216 LP  0  0  0  0  0  0  0  0  0  0  0  0  # atno 17342 bound_to 10162
  140.3084  144.3566  150.6040 LP  0  0  0  0  0  0  0  0  0  0  0  0  # atno 17343 bound_to 10162
  157.6551  131.0890  150.7965 LP  0  0  0  0  0  0  0  0  0  0  0  0  # atno 17370 bound_to 10713
  156.8043  130.4931  149.5365 LP  0  0  0  0  0  0  0  0  0  0  0  0  # atno 17371 bound_to 10713
  140.3339  134.2779  155.7223 LP  0  0  0  0  0  0  0  0  0  0  0  0  # atno 17394 bound_to 11000
  141.2081  133.7788  157.0082 LP  0  0  0  0  0  0  0  0  0  0  0  0  # atno 17395 bound_to 11000

$$$$
