AV-unprocessed.smi:2512|AV-procd|sdf|9890|dock3
  -GOLD-   2272013523D 1   1.00000     0.00000
 Structure written by MMmdl.
 27 28  0  0  0  0  0  0  0  0  1 V2000
  150.6628  138.3394  156.1433 C   0  0  0  0  0  0  0  0  0  0  0  0
  151.3495  139.4811  155.3704 C   0  0  0  0  0  0  0  0  0  0  0  0
  152.7944  139.0962  155.0125 C   0  0  0  0  0  0  0  0  0  0  0  0
  150.6490  139.6326  154.1505 O   0  0  0  0  0  0  0  0  0  0  0  0
  151.3259  140.8292  156.1345 C   0  0  0  0  0  0  0  0  0  0  0  0
  152.0151  140.8031  157.4164 N   0  0  0  0  0  0  0  0  0  0  0  0
  152.8341  139.7546  157.7170 N   0  0  0  0  0  0  0  0  0  0  0  0
  153.3380  139.9439  158.8995 N   0  0  0  0  0  0  0  0  0  0  0  0
  152.8515  141.1461  159.3846 C   0  0  0  0  0  0  0  0  0  0  0  0
  153.0736  141.8297  160.6006 C   0  0  0  0  0  0  0  0  0  0  0  0
  152.4442  143.0694  160.8483 C   0  0  0  0  0  0  0  0  0  0  0  0
  152.7424  143.8753  162.3473 Cl  0  0  0  0  0  0  0  0  0  0  0  0
  151.5838  143.6399  159.8794 C   0  0  0  0  0  0  0  0  0  0  0  0
  150.8074  145.1568  160.1644 Cl  0  0  0  0  0  0  0  0  0  0  0  0
  151.3523  142.9682  158.6626 C   0  0  0  0  0  0  0  0  0  0  0  0
  151.9870  141.7350  158.4364 C   0  0  0  0  0  0  0  0  0  0  0  0
  151.1249  138.1923  157.1201 H   0  0  0  0  0  0  0  0  0  0  0  0
  150.7338  137.3959  155.6010 H   0  0  0  0  0  0  0  0  0  0  0  0
  149.6025  138.5365  156.3043 H   0  0  0  0  0  0  0  0  0  0  0  0
  153.3953  138.9480  155.9104 H   0  0  0  0  0  0  0  0  0  0  0  0
  153.2778  139.8719  154.4175 H   0  0  0  0  0  0  0  0  0  0  0  0
  152.8302  138.1701  154.4371 H   0  0  0  0  0  0  0  0  0  0  0  0
  149.9949  138.9531  154.0916 H   0  0  0  0  0  0  0  0  0  0  0  0
  151.7776  141.6094  155.5194 H   0  0  0  0  0  0  0  0  0  0  0  0
  150.2972  141.1460  156.3109 H   0  0  0  0  0  0  0  0  0  0  0  0
  153.7306  141.4005  161.3427 H   0  0  0  0  0  0  0  0  0  0  0  0
  150.6971  143.3920  157.9160 H   0  0  0  0  0  0  0  0  0  0  0  0
  1  2  1  0  0  0  0
  1 17  1  0  0  0  0
  1 18  1  0  0  0  0
  1 19  1  0  0  0  0
  2  3  1  0  0  0  0
  2  4  1  0  0  0  0
  2  5  1  0  0  0  0
  3 20  1  0  0  0  0
  3 21  1  0  0  0  0
  3 22  1  0  0  0  0
  4 23  1  0  0  0  0
  5  6  1  0  0  0  0
  5 24  1  0  0  0  0
  5 25  1  0  0  0  0
  6 16  1  0  0  0  0
  6  7  1  0  0  0  0
  7  8  2  0  0  0  0
  8  9  1  0  0  0  0
  9 16  2  0  0  0  0
  9 10  1  0  0  0  0
 10 11  2  0  0  0  0
 10 26  1  0  0  0  0
 11 12  1  0  0  0  0
 11 13  1  0  0  0  0
 13 14  1  0  0  0  0
 13 15  2  0  0  0  0
 15 16  1  0  0  0  0
 15 27  1  0  0  0  0
M  END
> <s_m_source_file>
AV-unprocessed.smi

> <i_m_source_file_index>
2512

> <i_lp_mmshare_version>
43012

> <i_f3d_flags>
0

> <s_epik_input>
W0NIM11DKFtDSDNdKShbT0hdKVtDSDJdbihubjEpYyhjMTIpW2NIXWMoQ2wpYyhDbClbY0hdMg==

> <s_epik_cmdline>
J2VwaWtfcHl0aG9uJywgJy1waCcsICc3LjAnLCAnLXRuJywgJzgnLCAnLW1hJywgJzIwMCcsICctbWV0YWxfYmluZGluZycsICctaW1hZScsICc8aW5maWxlLm1hZT4nLCAnLW9tYWUnLCAnPG91dGZpbGUubWFlPic=

> <r_lp_tautomer_probability>
1

> <r_epik_Ionization_Penalty>
2.14984e-07

> <r_epik_Ionization_Penalty_Charging>
0

> <r_epik_Ionization_Penalty_Neutral>
2.14984e-07

> <r_epik_State_Penalty>
-0

> <r_epik_Charging_Adjusted_Penalty>
0

> <i_epik_Tot_Q>
0

> <i_epik_Tot_abs_Q>
0

> <r_epik_Metal_State_Penalty>
-0

> <b_epik_Metal_Only>
0

> <s_lp_Force_Field>
OPLS_2005

> <r_lp_Energy>
5.86035

> <b_lp_Chiralities_Consistent>
1

> <s_lp_Variant>
AV-unprocessed.smi:2512-1

> <Gold.Version>
5.8.1

> <Gold.Id.Protein>
6NUR|6NUR_protein|mol2

> <Gold.PLP.Fitness>
41.8142

> <Gold.PLP.PLP>
-36.7095

> <Gold.PLP.part.hbond>
-2.6691

> <Gold.PLP.part.metal>
0.0000

> <Gold.PLP.part.buried>
-4.0284

> <Gold.PLP.part.nonpolar>
-29.2200

> <Gold.PLP.part.repulsive>
0.0000

> <Gold.PLP.ligand.clash>
0.0000

> <Gold.PLP.ligand.torsion>
0.1506

> <Gold.PLP.Chemscore.Hbond>
1.8000

> <Gold.PLP.Chemscore.CHOScore>
0.0000

> <Gold.PLP.Chemscore.Metal>
0.0000

> <Gold.Chemscore.Hbonds>
donor molecule, donor type, donor heavy atom, donor atom, acceptor molecule, acceptor atom, score
      P1  H  7989  7998       L1     4  0.90
      P1  H  7997  8009       L1     7  0.70

> <Gold.PLP.Chemscore.Internal.Correction>
0.0058

> <Gold.Rescore>
     Score         DG    S(hbond)    S(metal)    S(lipo)     H(rot)  DE(clash)    DE(int)     intcor
     14.09     -15.98       0.54        0.00     109.71       1.62       0.21       1.69       ----

> <Gold.Chemscore.Fitness>
14.0889

> <Gold.Chemscore.DG>
-15.9820

> <Gold.Chemscore.ZeroCoef>
-5.4800

> <Gold.Chemscore.Hbond>
0.5435

> <Gold.Chemscore.Metal>
0.0000

> <Gold.Chemscore.Lipo>
109.7143

> <Gold.Chemscore.Internal_Hbond>
0.0000

> <Gold.Chemscore.DEClash>
0.2068

> <Gold.Chemscore.DEInternal>
1.6863

> <Gold.Chemscore.Rot>
1.6210

> <Gold.Chemscore.Internal.Correction>
   9.000000E+99

> <Gold.Chemscore.Hbonds>
donor molecule, donor type, donor heavy atom, donor atom, acceptor molecule, acceptor atom, score
      P1  H  7989  7998       L1     4  0.18
      P1  H  7997  8009       L1     7  0.04

> <Gold.Chemscore.Hbond.Weighted>
-1.8152

> <Gold.Chemscore.Metal.Weighted>
-0.0000

> <Gold.Chemscore.Lipo.Weighted>
-12.8366

> <Gold.Chemscore.Internal_Hbond.Weighted>
0.0000

> <Gold.Chemscore.DEClash.Weighted>
0.2068

> <Gold.Chemscore.DEInternal.Weighted>
1.6863

> <Gold.Chemscore.Rot.Weighted>
4.1497

> <Gold.Chemscore.Internal.Correction.Weighted>
   9.000000E+99

> <Gold.Protein.RotatedTorsions>
[ 6907 6896 6895 6894 ] final  169.39 input  -60.11 | X-H torsion
[ 7974 7965 7964 7962 ] final   87.05 input  175.53 | X-H torsion
[ 8008 7997 7996 7995 ] final  168.35 input   59.86 | X-H torsion
[ 10167 10162 10161 10158 ] final -124.65 input  -65.29 | X-H torsion
[ 10718 10713 10712 10709 ] final  -50.36 input   66.30 | X-H torsion
[ 10763 10752 10751 10750 ] final  -21.34 input  -60.55 | X-H torsion
[ 11005 11000 10999 10996 ] final  -58.64 input  -57.11 | X-H torsion

> <Gold.Protein.ActiveResidues>
 VAL166  LYS551  ARG553  GLY616  TRP617  ASP618  TYR619  PRO620  LYS621  CYS622 
 ASP623  PHE694  ASN695  SER759  ASP760  ASP761  ALA762  ILE779  LEU786  VAL792 
 PHE793  MET794  SER795  GLU796  ALA797  LYS798  CYS799  TRP800  GLU811  SER814 

> <Gold.Protein.RotatedAtoms>
  151.8327  133.3411  159.3618 H   0  0  0  0  0  0  0  0  0  0  0  0  # atno 6907 bound_to 6896
  150.7259  134.5467  159.5784 H   0  0  0  0  0  0  0  0  0  0  0  0  # atno 6908 bound_to 6896
  152.2924  134.7707  160.0426 H   0  0  0  0  0  0  0  0  0  0  0  0  # atno 6909 bound_to 6896
  145.5641  139.2307  143.2443 H   0  0  0  0  0  0  0  0  0  0  0  0  # atno 7974 bound_to 7965
  156.1554  140.1593  156.8700 H   0  0  0  0  0  0  0  0  0  0  0  0  # atno 8008 bound_to 7997
  154.5110  140.0801  156.8026 H   0  0  0  0  0  0  0  0  0  0  0  0  # atno 8009 bound_to 7997
  155.3813  140.3405  155.4249 H   0  0  0  0  0  0  0  0  0  0  0  0  # atno 8010 bound_to 7997
  139.9905  143.5646  152.2343 H   0  0  0  0  0  0  0  0  0  0  0  0  # atno 10167 bound_to 10162
  156.1808  130.4150  149.9510 H   0  0  0  0  0  0  0  0  0  0  0  0  # atno 10718 bound_to 10713
  153.6346  135.6987  153.5263 H   0  0  0  0  0  0  0  0  0  0  0  0  # atno 10763 bound_to 10752
  153.2832  135.4179  155.1097 H   0  0  0  0  0  0  0  0  0  0  0  0  # atno 10764 bound_to 10752
  154.8514  135.3607  154.5889 H   0  0  0  0  0  0  0  0  0  0  0  0  # atno 10765 bound_to 10752
  141.1215  133.6613  156.4950 H   0  0  0  0  0  0  0  0  0  0  0  0  # atno 11005 bound_to 11000
  146.1830  140.6466  142.9180 LP  0  0  0  0  0  0  0  0  0  0  0  0  # atno 17320 bound_to 7965
  144.7469  140.5090  143.6829 LP  0  0  0  0  0  0  0  0  0  0  0  0  # atno 17321 bound_to 7965
  139.6343  144.7648  151.2470 LP  0  0  0  0  0  0  0  0  0  0  0  0  # atno 17342 bound_to 10162
  140.7456  143.6425  150.8322 LP  0  0  0  0  0  0  0  0  0  0  0  0  # atno 17343 bound_to 10162
  156.7281  130.9033  151.3623 LP  0  0  0  0  0  0  0  0  0  0  0  0  # atno 17370 bound_to 10713
  157.6866  130.9192  150.0404 LP  0  0  0  0  0  0  0  0  0  0  0  0  # atno 17371 bound_to 10713
  140.4492  134.6944  157.5031 LP  0  0  0  0  0  0  0  0  0  0  0  0  # atno 17394 bound_to 11000
  140.0177  134.6594  155.9285 LP  0  0  0  0  0  0  0  0  0  0  0  0  # atno 17395 bound_to 11000

$$$$
