AV-unprocessed.smi:791|AV-procd|sdf|3748|dock10
  -GOLD-   22720 1183D 1   1.00000     0.00000
 Structure written by MMmdl.
 30 32  0  0  0  0  0  0  0  0  2 V2000
  152.1809  144.5159  159.8761 C   0  0  0  0  0  0  0  0  0  0  0  0
  151.0943  145.2959  159.1167 C   0  0  0  0  0  0  0  0  0  0  0  0
  149.9678  144.4077  158.7547 N   0  3  0  0  0  0  0  0  0  0  0  0
  150.3829  143.2553  157.9248 C   0  0  0  0  0  0  0  0  0  0  0  0
  151.4743  142.4305  158.6357 C   0  0  1  0  0  0  0  0  0  0  0  0
  151.9010  141.2472  157.8229 C   0  0  0  0  0  0  0  0  0  0  0  0
  152.7401  140.3428  158.3136 N   0  0  0  0  0  0  0  0  0  0  0  0
  152.8636  139.4142  157.2703 O   0  0  0  0  0  0  0  0  0  0  0  0
  152.0895  139.8844  156.2638 C   0  0  0  0  0  0  0  0  0  0  0  0
  151.9850  139.0914  155.0059 C   0  0  0  0  0  0  0  0  0  0  0  0
  150.6362  138.7761  154.4018 C   0  0  0  0  0  0  0  0  0  0  0  0
  151.4573  137.6748  155.0230 C   0  0  0  0  0  0  0  0  0  0  0  0
  151.4441  141.0092  156.5616 N   0  0  0  0  0  0  0  0  0  0  0  0
  152.6670  143.3104  159.0569 C   0  0  0  0  0  0  0  0  0  0  0  0
  151.7850  144.1734  160.8332 H   0  0  0  0  0  0  0  0  0  0  0  0
  153.0204  145.1728  160.1060 H   0  0  0  0  0  0  0  0  0  0  0  0
  150.7189  146.1156  159.7295 H   0  0  0  0  0  0  0  0  0  0  0  0
  151.5079  145.7393  158.2100 H   0  0  0  0  0  0  0  0  0  0  0  0
  149.5501  144.0571  159.6051 H   0  0  0  0  0  0  0  0  0  0  0  0
  149.5098  142.6352  157.7198 H   0  0  0  0  0  0  0  0  0  0  0  0
  150.7452  143.6240  156.9640 H   0  0  0  0  0  0  0  0  0  0  0  0
  151.0292  142.0448  159.5552 H   0  0  0  0  0  0  0  0  0  0  0  0
  152.8054  139.3256  154.3304 H   0  0  0  0  0  0  0  0  0  0  0  0
  149.7509  139.1079  154.9409 H   0  0  0  0  0  0  0  0  0  0  0  0
  150.5552  138.7913  153.3170 H   0  0  0  0  0  0  0  0  0  0  0  0
  151.9248  136.9568  154.3525 H   0  0  0  0  0  0  0  0  0  0  0  0
  151.1154  137.2714  155.9743 H   0  0  0  0  0  0  0  0  0  0  0  0
  153.1997  143.6660  158.1737 H   0  0  0  0  0  0  0  0  0  0  0  0
  153.3823  142.7274  159.6384 H   0  0  0  0  0  0  0  0  0  0  0  0
  149.2761  144.9430  158.2495 H   0  0  0  0  0  0  0  0  0  0  0  0
  1 14  1  0  0  0  0
  1  2  1  0  0  0  0
  1 15  1  0  0  0  0
  1 16  1  0  0  0  0
  2  3  1  0  0  0  0
  2 17  1  0  0  0  0
  2 18  1  0  0  0  0
  3  4  1  0  0  0  0
  3 19  1  0  0  0  0
  3 30  1  0  0  0  0
  4  5  1  0  0  0  0
  4 20  1  0  0  0  0
  4 21  1  0  0  0  0
  5  6  1  0  0  0  0
  5 14  1  0  0  0  0
  5 22  1  0  0  0  0
  6 13  1  0  0  0  0
  6  7  2  0  0  0  0
  7  8  1  0  0  0  0
  8  9  1  0  0  0  0
  9 10  1  0  0  0  0
  9 13  2  0  0  0  0
 10 12  1  0  0  0  0
 10 11  1  0  0  0  0
 10 23  1  0  0  0  0
 11 12  1  0  0  0  0
 11 24  1  0  0  0  0
 11 25  1  0  0  0  0
 12 26  1  0  0  0  0
 12 27  1  0  0  0  0
 14 28  1  0  0  0  0
 14 29  1  0  0  0  0
M  CHG  1   3   1
M  END
> <s_m_source_file>
AV-unprocessed.smi

> <i_m_source_file_index>
791

> <i_lp_mmshare_version>
43012

> <i_f3d_flags>
0

> <s_epik_input>
W0NIMl0xW0NIMl1bQ0gyXVtOSF1bQ0gyXVtDQEhdMWMybm9jKG4yKVtDSF0zW0NIMl1bQ0gyXTM=

> <s_epik_cmdline>
J2VwaWtfcHl0aG9uJywgJy1waCcsICc3LjAnLCAnLXRuJywgJzgnLCAnLW1hJywgJzIwMCcsICctbWV0YWxfYmluZGluZycsICctaW1hZScsICc8aW5maWxlLm1hZT4nLCAnLW9tYWUnLCAnPG91dGZpbGUubWFlPic=

> <r_lp_tautomer_probability>
1

> <r_epik_Ionization_Penalty>
0.000532935

> <r_epik_Ionization_Penalty_Charging>
0.000532935

> <r_epik_Ionization_Penalty_Neutral>
2.72852e-13

> <r_epik_State_Penalty>
0.000332992

> <r_epik_Charging_Adjusted_Penalty>
0.000865928

> <i_epik_Tot_Q>
1

> <i_epik_Tot_abs_Q>
1

> <r_epik_Metal_State_Penalty>
-0

> <b_epik_Metal_Only>
0

> <s_lp_Force_Field>
OPLS_2005

> <r_lp_Energy>
11.8714

> <b_lp_Chiralities_Consistent>
1

> <s_lp_Variant>
AV-unprocessed.smi:791-1

> <Gold.Version>
5.8.1

> <Gold.Id.Protein>
6NUR|6NUR_protein|mol2

> <Gold.PLP.Fitness>
38.5891

> <Gold.PLP.PLP>
-30.8048

> <Gold.PLP.part.hbond>
-2.8637

> <Gold.PLP.part.metal>
0.0000

> <Gold.PLP.part.buried>
-1.6541

> <Gold.PLP.part.nonpolar>
-25.9527

> <Gold.PLP.part.repulsive>
0.1588

> <Gold.PLP.ligand.clash>
0.0000

> <Gold.PLP.ligand.torsion>
0.1713

> <Gold.PLP.Chemscore.Hbond>
2.6500

> <Gold.PLP.Chemscore.CHOScore>
0.0000

> <Gold.PLP.Chemscore.Metal>
0.0000

> <Gold.Chemscore.Hbonds>
donor molecule, donor type, donor heavy atom, donor atom, acceptor molecule, acceptor atom, score
      L1  H     3    30       P1  8029  2.00
      P1  H  7997  8009       L1     8  0.65

> <Gold.PLP.Chemscore.Internal.Correction>
0.1769

> <Gold.Rescore>
     Score         DG    S(hbond)    S(metal)    S(lipo)     H(rot)  DE(clash)    DE(int)     intcor
     14.81     -15.35       1.30        0.00      74.25       1.23       0.41       0.12       ----

> <Gold.Chemscore.Fitness>
14.8142

> <Gold.Chemscore.DG>
-15.3476

> <Gold.Chemscore.ZeroCoef>
-5.4800

> <Gold.Chemscore.Hbond>
1.2971

> <Gold.Chemscore.Metal>
0.0000

> <Gold.Chemscore.Lipo>
74.2497

> <Gold.Chemscore.Internal_Hbond>
0.0000

> <Gold.Chemscore.DEClash>
0.4140

> <Gold.Chemscore.DEInternal>
0.1195

> <Gold.Chemscore.Rot>
1.2312

> <Gold.Chemscore.Internal.Correction>
   9.000000E+99

> <Gold.Chemscore.Hbonds>
donor molecule, donor type, donor heavy atom, donor atom, acceptor molecule, acceptor atom, score
      L1  H     3    30       P1  8029  0.44
      P1  H  7997  8009       L1     8  0.01

> <Gold.Chemscore.Hbond.Weighted>
-4.3322

> <Gold.Chemscore.Metal.Weighted>
-0.0000

> <Gold.Chemscore.Lipo.Weighted>
-8.6872

> <Gold.Chemscore.Internal_Hbond.Weighted>
0.0000

> <Gold.Chemscore.DEClash.Weighted>
0.4140

> <Gold.Chemscore.DEInternal.Weighted>
0.1195

> <Gold.Chemscore.Rot.Weighted>
3.1518

> <Gold.Chemscore.Internal.Correction.Weighted>
   9.000000E+99

> <Gold.Protein.RotatedTorsions>
[ 6907 6896 6895 6894 ] final   80.08 input  -60.11 | X-H torsion
[ 7974 7965 7964 7962 ] final  162.47 input  175.53 | X-H torsion
[ 8008 7997 7996 7995 ] final  171.42 input   59.86 | X-H torsion
[ 10167 10162 10161 10158 ] final -162.70 input  -65.29 | X-H torsion
[ 10718 10713 10712 10709 ] final -108.97 input   66.30 | X-H torsion
[ 10763 10752 10751 10750 ] final  -56.83 input  -60.55 | X-H torsion
[ 11005 11000 10999 10996 ] final  -21.21 input  -57.11 | X-H torsion

> <Gold.Protein.ActiveResidues>
 VAL166  LYS551  ARG553  GLY616  TRP617  ASP618  TYR619  PRO620  LYS621  CYS622 
 ASP623  PHE694  ASN695  SER759  ASP760  ASP761  ALA762  ILE779  LEU786  VAL792 
 PHE793  MET794  SER795  GLU796  ALA797  LYS798  CYS799  TRP800  GLU811  SER814 

> <Gold.Protein.RotatedAtoms>
  152.5222  134.3412  159.9217 H   0  0  0  0  0  0  0  0  0  0  0  0  # atno 6907 bound_to 6896
  151.3362  133.3974  159.2674 H   0  0  0  0  0  0  0  0  0  0  0  0  # atno 6908 bound_to 6896
  150.9840  134.9207  159.7919 H   0  0  0  0  0  0  0  0  0  0  0  0  # atno 6909 bound_to 6896
  144.7635  139.8044  143.6324 H   0  0  0  0  0  0  0  0  0  0  0  0  # atno 7974 bound_to 7965
  156.1272  140.1512  156.9118 H   0  0  0  0  0  0  0  0  0  0  0  0  # atno 8008 bound_to 7997
  154.4881  140.0859  156.7573 H   0  0  0  0  0  0  0  0  0  0  0  0  # atno 8009 bound_to 7997
  155.4321  140.3427  155.4283 H   0  0  0  0  0  0  0  0  0  0  0  0  # atno 8010 bound_to 7997
  139.6374  144.0325  152.2065 H   0  0  0  0  0  0  0  0  0  0  0  0  # atno 10167 bound_to 10162
  156.0513  130.5740  150.8035 H   0  0  0  0  0  0  0  0  0  0  0  0  # atno 10718 bound_to 10713
  154.2128  135.6391  153.5120 H   0  0  0  0  0  0  0  0  0  0  0  0  # atno 10763 bound_to 10752
  152.9986  135.5478  154.6197 H   0  0  0  0  0  0  0  0  0  0  0  0  # atno 10764 bound_to 10752
  154.5638  135.2911  155.0867 H   0  0  0  0  0  0  0  0  0  0  0  0  # atno 10765 bound_to 10752
  140.8539  133.7837  155.9997 H   0  0  0  0  0  0  0  0  0  0  0  0  # atno 11005 bound_to 11000
  146.1721  139.4877  142.9920 LP  0  0  0  0  0  0  0  0  0  0  0  0  # atno 17320 bound_to 7965
  145.6543  141.0256  143.1743 LP  0  0  0  0  0  0  0  0  0  0  0  0  # atno 17321 bound_to 7965
  140.0005  144.6296  150.7734 LP  0  0  0  0  0  0  0  0  0  0  0  0  # atno 17342 bound_to 10162
  140.7472  143.2903  151.3349 LP  0  0  0  0  0  0  0  0  0  0  0  0  # atno 17343 bound_to 10162
  157.5441  131.0942  150.9787 LP  0  0  0  0  0  0  0  0  0  0  0  0  # atno 17370 bound_to 10713
  157.0062  130.5619  149.5316 LP  0  0  0  0  0  0  0  0  0  0  0  0  # atno 17371 bound_to 10713
  140.8759  134.2670  157.5168 LP  0  0  0  0  0  0  0  0  0  0  0  0  # atno 17394 bound_to 11000
  139.8705  134.9591  156.4320 LP  0  0  0  0  0  0  0  0  0  0  0  0  # atno 17395 bound_to 11000

$$$$
