AV-unprocessed.smi:261|AV-procd|sdf|1993|dock5
  -GOLD-   2262021183D 1   1.00000     0.00000
 Structure written by MMmdl.
 51 54  0  0  0  0  0  0  0  0  1 V2000
  148.1831  133.1519  152.3854 C   0  0  0  0  0  0  0  0  0  0  0  0
  148.0865  134.2814  153.2376 O   0  0  0  0  0  0  0  0  0  0  0  0
  149.1033  134.3339  154.2276 C   0  0  1  0  0  0  0  0  0  0  0  0
  150.4772  133.8958  153.7135 C   0  0  0  0  0  0  0  0  0  0  0  0
  151.4730  134.5886  154.6607 C   0  0  2  0  0  0  0  0  0  0  0  0
  151.8380  133.6827  155.8561 C   0  0  0  0  0  0  0  0  0  0  0  0
  152.4568  132.5206  155.6207 N   0  0  0  0  0  0  0  0  0  0  0  0
  151.5479  134.0347  156.9972 O   0  0  0  0  0  0  0  0  0  0  0  0
  150.7722  135.8183  155.0413 N   0  0  0  0  0  0  0  0  0  0  0  0
  151.3806  136.9752  155.4275 C   0  0  0  0  0  0  0  0  0  0  0  0
  152.7111  136.9277  155.7051 N   0  0  0  0  0  0  0  0  0  0  0  0
  153.3718  138.0232  156.0874 C   0  0  0  0  0  0  0  0  0  0  0  0
  152.9061  139.2606  156.2532 N   0  0  0  0  0  0  0  0  0  0  0  0
  151.5738  139.3253  155.9736 C   0  0  0  0  0  0  0  0  0  0  0  0
  150.7394  138.2461  155.5575 C   0  0  0  0  0  0  0  0  0  0  0  0
  149.4438  138.7176  155.3676 N   0  0  0  0  0  0  0  0  0  0  0  0
  149.5078  139.9877  155.6568 C   0  0  0  0  0  0  0  0  0  0  0  0
  150.7517  140.4357  156.0325 N   0  0  0  0  0  0  0  0  0  0  0  0
  151.1163  141.7900  156.4093 C   0  0  0  0  0  0  0  0  0  0  0  0
  150.5262  142.1977  157.7739 C   0  0  2  0  0  0  0  0  0  0  0  0
  149.2491  142.7732  157.5717 O   0  0  0  0  0  0  0  0  0  0  0  0
  151.4176  143.2074  158.5211 C   0  0  1  0  0  0  0  0  0  0  0  0
  151.5600  144.5614  157.8197 C   0  0  0  0  0  0  0  0  0  0  0  0
  151.8390  145.4884  158.9796 C   0  0  0  0  0  0  0  0  0  0  0  0
  150.9174  144.9159  160.0497 C   0  0  0  0  0  0  0  0  0  0  0  0
  150.8584  143.5149  159.7982 O   0  0  0  0  0  0  0  0  0  0  0  0
  149.3641  135.7772  154.6583 C   0  0  0  0  0  0  0  0  0  0  0  0
  148.8252  133.7448  155.1038 H   0  0  0  0  0  0  0  0  0  0  0  0
  152.3805  134.8118  154.0997 H   0  0  0  0  0  0  0  0  0  0  0  0
  147.3588  133.1633  151.6723 H   0  0  0  0  0  0  0  0  0  0  0  0
  148.1219  132.2229  152.9535 H   0  0  0  0  0  0  0  0  0  0  0  0
  149.1140  133.1550  151.8178 H   0  0  0  0  0  0  0  0  0  0  0  0
  150.5872  132.8111  153.6775 H   0  0  0  0  0  0  0  0  0  0  0  0
  150.6249  134.2690  152.6989 H   0  0  0  0  0  0  0  0  0  0  0  0
  152.7029  131.9174  156.3922 H   0  0  0  0  0  0  0  0  0  0  0  0
  152.6759  132.2519  154.6724 H   0  0  0  0  0  0  0  0  0  0  0  0
  154.4243  137.8882  156.2889 H   0  0  0  0  0  0  0  0  0  0  0  0
  148.6439  140.6343  155.6065 H   0  0  0  0  0  0  0  0  0  0  0  0
  152.2050  141.8499  156.4329 H   0  0  0  0  0  0  0  0  0  0  0  0
  150.7840  142.4741  155.6270 H   0  0  0  0  0  0  0  0  0  0  0  0
  150.3998  141.3075  158.3917 H   0  0  0  0  0  0  0  0  0  0  0  0
  149.2874  143.3270  156.8073 H   0  0  0  0  0  0  0  0  0  0  0  0
  152.4098  142.7855  158.6910 H   0  0  0  0  0  0  0  0  0  0  0  0
  152.3491  144.5696  157.0671 H   0  0  0  0  0  0  0  0  0  0  0  0
  150.6245  144.8463  157.3358 H   0  0  0  0  0  0  0  0  0  0  0  0
  152.8812  145.4001  159.2903 H   0  0  0  0  0  0  0  0  0  0  0  0
  151.6336  146.5352  158.7544 H   0  0  0  0  0  0  0  0  0  0  0  0
  151.2682  145.1267  161.0602 H   0  0  0  0  0  0  0  0  0  0  0  0
  149.9127  145.3278  159.9460 H   0  0  0  0  0  0  0  0  0  0  0  0
  149.2024  136.4615  153.8236 H   0  0  0  0  0  0  0  0  0  0  0  0
  148.7070  136.0724  155.4776 H   0  0  0  0  0  0  0  0  0  0  0  0
  1  2  1  0  0  0  0
  1 30  1  0  0  0  0
  1 31  1  0  0  0  0
  1 32  1  0  0  0  0
  2  3  1  0  0  0  0
  3 28  1  0  0  0  0
  3 27  1  0  0  0  0
  3  4  1  0  0  0  0
  4  5  1  0  0  0  0
  4 33  1  0  0  0  0
  4 34  1  0  0  0  0
  5 29  1  0  0  0  0
  5  6  1  0  0  0  0
  5  9  1  0  0  0  0
  6  7  1  0  0  0  0
  6  8  2  0  0  0  0
  7 35  1  0  0  0  0
  7 36  1  0  0  0  0
  9 10  1  0  0  0  0
  9 27  1  0  0  0  0
 10 15  1  0  0  0  0
 10 11  2  0  0  0  0
 11 12  1  0  0  0  0
 12 13  2  0  0  0  0
 12 37  1  0  0  0  0
 13 14  1  0  0  0  0
 14 18  1  0  0  0  0
 14 15  2  0  0  0  0
 15 16  1  0  0  0  0
 16 17  2  0  0  0  0
 17 18  1  0  0  0  0
 17 38  1  0  0  0  0
 18 19  1  0  0  0  0
 19 20  1  0  0  0  0
 19 39  1  0  0  0  0
 19 40  1  0  0  0  0
 20 21  1  0  0  0  0
 20 22  1  0  0  0  0
 20 41  1  0  0  0  0
 21 42  1  0  0  0  0
 22 26  1  0  0  0  0
 22 23  1  0  0  0  0
 22 43  1  0  0  0  0
 23 24  1  0  0  0  0
 23 44  1  0  0  0  0
 23 45  1  0  0  0  0
 24 25  1  0  0  0  0
 24 46  1  0  0  0  0
 24 47  1  0  0  0  0
 25 26  1  0  0  0  0
 25 48  1  0  0  0  0
 25 49  1  0  0  0  0
 27 50  1  0  0  0  0
 27 51  1  0  0  0  0
M  END
> <s_m_source_file>
AV-unprocessed.smi

> <i_m_source_file_index>
261

> <i_lp_mmshare_version>
43012

> <i_f3d_flags>
0

> <s_epik_input>
W0NIM11PW0NASF0xW0NIMl1bQ0BASF0oQyg9TylbTkgyXSlOKFtDSDJdMSljKG5bY0hdbjIpYyhjMjMpbltjSF1uM1tDSDJdW0NASF0oW09IXSlbQ0BASF00W0NIMl1bQ0gyXVtDSDJdTzQ=

> <s_epik_cmdline>
J2VwaWtfcHl0aG9uJywgJy1waCcsICc3LjAnLCAnLXRuJywgJzgnLCAnLW1hJywgJzIwMCcsICctbWV0YWxfYmluZGluZycsICctaW1hZScsICc8aW5maWxlLm1hZT4nLCAnLW9tYWUnLCAnPG91dGZpbGUubWFlPic=

> <r_lp_tautomer_probability>
1

> <r_epik_Ionization_Penalty>
0.000713824

> <r_epik_Ionization_Penalty_Charging>
0

> <r_epik_Ionization_Penalty_Neutral>
0.000713824

> <r_epik_State_Penalty>
0.000402132

> <r_epik_Charging_Adjusted_Penalty>
0.000402132

> <i_epik_Tot_Q>
0

> <i_epik_Tot_abs_Q>
0

> <r_epik_Metal_State_Penalty>
-0

> <b_epik_Metal_Only>
0

> <s_lp_Force_Field>
OPLS_2005

> <r_lp_Energy>
43.0256

> <b_lp_Chiralities_Consistent>
1

> <s_lp_Variant>
AV-unprocessed.smi:261-11

> <Gold.Version>
5.8.1

> <Gold.Id.Protein>
6NUR|6NUR_protein|mol2

> <Gold.PLP.Fitness>
50.0550

> <Gold.PLP.PLP>
-41.1911

> <Gold.PLP.part.hbond>
-3.6480

> <Gold.PLP.part.metal>
0.0000

> <Gold.PLP.part.buried>
-6.6154

> <Gold.PLP.part.nonpolar>
-31.5264

> <Gold.PLP.part.repulsive>
0.7030

> <Gold.PLP.ligand.clash>
0.0000

> <Gold.PLP.ligand.torsion>
0.7774

> <Gold.PLP.Chemscore.Hbond>
3.4348

> <Gold.PLP.Chemscore.CHOScore>
0.0000

> <Gold.PLP.Chemscore.Metal>
0.0000

> <Gold.Chemscore.Hbonds>
donor molecule, donor type, donor heavy atom, donor atom, acceptor molecule, acceptor atom, score
      L1  H    21    42       P1  8028  1.00
      P1  H  6896  6907       L1     8  0.06
      P1  H  7997  8009       L1    13  1.00
      P1  H 10752 10764       L1    11  0.70

> <Gold.PLP.Chemscore.Internal.Correction>
0.1146

> <Gold.Rescore>
     Score         DG    S(hbond)    S(metal)    S(lipo)     H(rot)  DE(clash)    DE(int)     intcor
     15.59     -17.68       2.87        0.00      92.09       3.18       0.16       1.94       ----

> <Gold.Chemscore.Fitness>
15.5880

> <Gold.Chemscore.DG>
-17.6814

> <Gold.Chemscore.ZeroCoef>
-5.4800

> <Gold.Chemscore.Hbond>
2.8670

> <Gold.Chemscore.Metal>
0.0000

> <Gold.Chemscore.Lipo>
92.0867

> <Gold.Chemscore.Internal_Hbond>
0.0000

> <Gold.Chemscore.DEClash>
0.1567

> <Gold.Chemscore.DEInternal>
1.9367

> <Gold.Chemscore.Rot>
3.1831

> <Gold.Chemscore.Internal.Correction>
   9.000000E+99

> <Gold.Chemscore.Hbonds>
donor molecule, donor type, donor heavy atom, donor atom, acceptor molecule, acceptor atom, score
      L1  H    21    42       P1  8028  0.96
      P1  H  6896  6907       L1     8  0.06
      P1  H  7997  8009       L1    13  0.26
      P1  H 10752 10764       L1    11  0.18

> <Gold.Chemscore.Hbond.Weighted>
-9.5759

> <Gold.Chemscore.Metal.Weighted>
-0.0000

> <Gold.Chemscore.Lipo.Weighted>
-10.7741

> <Gold.Chemscore.Internal_Hbond.Weighted>
0.0000

> <Gold.Chemscore.DEClash.Weighted>
0.1567

> <Gold.Chemscore.DEInternal.Weighted>
1.9367

> <Gold.Chemscore.Rot.Weighted>
8.1486

> <Gold.Chemscore.Internal.Correction.Weighted>
   9.000000E+99

> <Gold.Protein.RotatedTorsions>
[ 6907 6896 6895 6894 ] final -123.62 input  -60.11 | X-H torsion
[ 7974 7965 7964 7962 ] final -135.45 input  175.53 | X-H torsion
[ 8008 7997 7996 7995 ] final -169.36 input   59.86 | X-H torsion
[ 10167 10162 10161 10158 ] final -153.02 input  -65.29 | X-H torsion
[ 10718 10713 10712 10709 ] final -173.63 input   66.30 | X-H torsion
[ 10763 10752 10751 10750 ] final  -35.46 input  -60.55 | X-H torsion
[ 11005 11000 10999 10996 ] final  -55.02 input  -57.11 | X-H torsion

> <Gold.Protein.ActiveResidues>
 VAL166  LYS551  ARG553  GLY616  TRP617  ASP618  TYR619  PRO620  LYS621  CYS622 
 ASP623  PHE694  ASN695  SER759  ASP760  ASP761  ALA762  ILE779  LEU786  VAL792 
 PHE793  MET794  SER795  GLU796  ALA797  LYS798  CYS799  TRP800  GLU811  SER814 

> <Gold.Protein.RotatedAtoms>
  150.8688  133.7535  159.2967 H   0  0  0  0  0  0  0  0  0  0  0  0  # atno 6907 bound_to 6896
  151.5154  135.1064  159.9874 H   0  0  0  0  0  0  0  0  0  0  0  0  # atno 6908 bound_to 6896
  152.4680  133.7922  159.6963 H   0  0  0  0  0  0  0  0  0  0  0  0  # atno 6909 bound_to 6896
  144.9013  140.6775  143.5083 H   0  0  0  0  0  0  0  0  0  0  0  0  # atno 7974 bound_to 7965
  155.9039  140.1045  157.1330 H   0  0  0  0  0  0  0  0  0  0  0  0  # atno 8008 bound_to 7997
  154.4030  140.1287  156.4535 H   0  0  0  0  0  0  0  0  0  0  0  0  # atno 8009 bound_to 7997
  155.7391  140.3467  155.5098 H   0  0  0  0  0  0  0  0  0  0  0  0  # atno 8010 bound_to 7997
  139.7132  143.9075  152.2476 H   0  0  0  0  0  0  0  0  0  0  0  0  # atno 10167 bound_to 10162
  156.7732  130.9456  151.3120 H   0  0  0  0  0  0  0  0  0  0  0  0  # atno 10718 bound_to 10713
  153.8636  135.6838  153.4780 H   0  0  0  0  0  0  0  0  0  0  0  0  # atno 10763 bound_to 10752
  153.1328  135.4691  154.9373 H   0  0  0  0  0  0  0  0  0  0  0  0  # atno 10764 bound_to 10752
  154.7747  135.3249  154.8066 H   0  0  0  0  0  0  0  0  0  0  0  0  # atno 10765 bound_to 10752
  141.1054  133.6614  156.4407 H   0  0  0  0  0  0  0  0  0  0  0  0  # atno 11005 bound_to 11000
  145.3611  139.1681  143.4383 LP  0  0  0  0  0  0  0  0  0  0  0  0  # atno 17320 bound_to 7965
  146.3110  140.3673  142.8670 LP  0  0  0  0  0  0  0  0  0  0  0  0  # atno 17321 bound_to 7965
  139.8950  144.6944  150.8728 LP  0  0  0  0  0  0  0  0  0  0  0  0  # atno 17342 bound_to 10162
  140.7738  143.3557  151.1926 LP  0  0  0  0  0  0  0  0  0  0  0  0  # atno 17343 bound_to 10162
  157.6681  130.9026  149.9978 LP  0  0  0  0  0  0  0  0  0  0  0  0  # atno 17370 bound_to 10713
  156.1265  130.3644  149.9802 LP  0  0  0  0  0  0  0  0  0  0  0  0  # atno 17371 bound_to 10713
  140.4916  134.6570  157.5213 LP  0  0  0  0  0  0  0  0  0  0  0  0  # atno 17394 bound_to 11000
  139.9922  134.6967  155.9670 LP  0  0  0  0  0  0  0  0  0  0  0  0  # atno 17395 bound_to 11000

$$$$
