AV-unprocessed.smi:343|AV-procd|sdf|2388|dock6
  -GOLD-   2262022313D 1   1.00000     0.00000
 Structure written by MMmdl.
 42 44  0  0  0  0  0  0  0  0  1 V2000
  152.9883  140.2132  159.1473 C   0  0  0  0  0  0  0  0  0  0  0  0
  152.7503  141.5364  159.8172 C   0  0  0  0  0  0  0  0  0  0  0  0
  153.1305  141.7054  161.0728 N   0  0  0  0  0  0  0  0  0  0  0  0
  152.7869  142.9750  161.3688 N   0  0  0  0  0  0  0  0  0  0  0  0
  153.0696  143.4993  162.6908 C   0  0  0  0  0  0  0  0  0  0  0  0
  152.1847  143.6082  160.2994 C   0  0  0  0  0  0  0  0  0  0  0  0
  151.7166  145.0259  160.3717 C   0  0  0  0  0  0  0  0  0  0  0  0
  152.1432  142.7053  159.2705 C   0  0  0  0  0  0  0  0  0  0  0  0
  151.5973  142.8908  157.8768 C   0  0  0  0  0  0  0  0  0  0  0  0
  150.9141  141.6033  157.4163 C   0  0  0  0  0  0  0  0  0  0  0  0
  150.3586  140.8747  158.2380 O   0  0  0  0  0  0  0  0  0  0  0  0
  150.9535  141.3459  156.0992 N   0  0  0  0  0  0  0  0  0  0  0  0
  150.3097  140.2218  155.4304 C   0  0  0  0  0  0  0  0  0  0  0  0
  151.3250  139.3252  154.7465 C   0  0  0  0  0  0  0  0  0  0  0  0
  151.2671  137.8220  154.8831 C   0  0  0  0  0  0  0  0  0  0  0  0
  152.3842  138.6003  155.5413 C   0  0  0  0  0  0  0  0  0  0  0  0
  149.2513  140.6734  154.4375 C   0  0  0  0  0  0  0  0  0  0  0  0
  148.1948  141.6833  154.8176 C   0  0  0  0  0  0  0  0  0  0  0  0
  147.8100  140.2417  154.5724 C   0  0  0  0  0  0  0  0  0  0  0  0
  153.4036  140.3492  158.1486 H   0  0  0  0  0  0  0  0  0  0  0  0
  152.0567  139.6564  159.0468 H   0  0  0  0  0  0  0  0  0  0  0  0
  153.6869  139.5938  159.7112 H   0  0  0  0  0  0  0  0  0  0  0  0
  153.6451  144.4215  162.6043 H   0  0  0  0  0  0  0  0  0  0  0  0
  153.6436  142.7800  163.2766 H   0  0  0  0  0  0  0  0  0  0  0  0
  152.1333  143.7101  163.2083 H   0  0  0  0  0  0  0  0  0  0  0  0
  151.1401  145.2971  159.4874 H   0  0  0  0  0  0  0  0  0  0  0  0
  152.5640  145.7081  160.4398 H   0  0  0  0  0  0  0  0  0  0  0  0
  151.0819  145.1835  161.2440 H   0  0  0  0  0  0  0  0  0  0  0  0
  150.8771  143.7084  157.8318 H   0  0  0  0  0  0  0  0  0  0  0  0
  152.3892  143.1486  157.1727 H   0  0  0  0  0  0  0  0  0  0  0  0
  151.4372  142.0057  155.5076 H   0  0  0  0  0  0  0  0  0  0  0  0
  149.8117  139.6129  156.1879 H   0  0  0  0  0  0  0  0  0  0  0  0
  151.6392  139.6941  153.7716 H   0  0  0  0  0  0  0  0  0  0  0  0
  150.5063  137.3958  155.5339 H   0  0  0  0  0  0  0  0  0  0  0  0
  151.5148  137.2292  154.0050 H   0  0  0  0  0  0  0  0  0  0  0  0
  153.3775  138.5262  155.1030 H   0  0  0  0  0  0  0  0  0  0  0  0
  152.3586  138.6958  156.6252 H   0  0  0  0  0  0  0  0  0  0  0  0
  149.6230  140.7470  153.4168 H   0  0  0  0  0  0  0  0  0  0  0  0
  148.1757  142.0382  155.8460 H   0  0  0  0  0  0  0  0  0  0  0  0
  147.9114  142.4171  154.0659 H   0  0  0  0  0  0  0  0  0  0  0  0
  147.2663  140.0141  153.6579 H   0  0  0  0  0  0  0  0  0  0  0  0
  147.5338  139.6459  155.4399 H   0  0  0  0  0  0  0  0  0  0  0  0
  1  2  1  0  0  0  0
  1 20  1  0  0  0  0
  1 21  1  0  0  0  0
  1 22  1  0  0  0  0
  2  8  1  0  0  0  0
  2  3  2  0  0  0  0
  3  4  1  0  0  0  0
  4  5  1  0  0  0  0
  4  6  1  0  0  0  0
  5 23  1  0  0  0  0
  5 24  1  0  0  0  0
  5 25  1  0  0  0  0
  6  7  1  0  0  0  0
  6  8  2  0  0  0  0
  7 26  1  0  0  0  0
  7 27  1  0  0  0  0
  7 28  1  0  0  0  0
  8  9  1  0  0  0  0
  9 10  1  0  0  0  0
  9 29  1  0  0  0  0
  9 30  1  0  0  0  0
 10 11  2  0  0  0  0
 10 12  1  0  0  0  0
 12 13  1  0  0  0  0
 12 31  1  0  0  0  0
 13 14  1  0  0  0  0
 13 17  1  0  0  0  0
 13 32  1  0  0  0  0
 14 16  1  0  0  0  0
 14 15  1  0  0  0  0
 14 33  1  0  0  0  0
 15 16  1  0  0  0  0
 15 34  1  0  0  0  0
 15 35  1  0  0  0  0
 16 36  1  0  0  0  0
 16 37  1  0  0  0  0
 17 19  1  0  0  0  0
 17 18  1  0  0  0  0
 17 38  1  0  0  0  0
 18 19  1  0  0  0  0
 18 39  1  0  0  0  0
 18 40  1  0  0  0  0
 19 41  1  0  0  0  0
 19 42  1  0  0  0  0
M  END
> <s_m_source_file>
AV-unprocessed.smi

> <i_m_source_file_index>
343

> <i_lp_mmshare_version>
43012

> <i_f3d_flags>
0

> <s_epik_input>
W0NIM11jMW5uKFtDSDNdKWMoW0NIM10pYzFbQ0gyXUMoPU8pW05IXVtDSF0oW0NIXTJbQ0gyXVtDSDJdMilbQ0hdM1tDSDJdW0NIMl0z

> <s_epik_cmdline>
J2VwaWtfcHl0aG9uJywgJy1waCcsICc3LjAnLCAnLXRuJywgJzgnLCAnLW1hJywgJzIwMCcsICctbWV0YWxfYmluZGluZycsICctaW1hZScsICc8aW5maWxlLm1hZT4nLCAnLW9tYWUnLCAnPG91dGZpbGUubWFlPic=

> <r_lp_tautomer_probability>
1

> <r_epik_Ionization_Penalty>
0.00332543

> <r_epik_Ionization_Penalty_Charging>
0

> <r_epik_Ionization_Penalty_Neutral>
0.00332543

> <r_epik_State_Penalty>
0.00235125

> <r_epik_Charging_Adjusted_Penalty>
0.00235125

> <i_epik_Tot_Q>
0

> <i_epik_Tot_abs_Q>
0

> <r_epik_Metal_State_Penalty>
-0

> <b_epik_Metal_Only>
0

> <s_lp_Force_Field>
OPLS_2005

> <r_lp_Energy>
17.7033

> <b_lp_Chiralities_Consistent>
1

> <s_lp_Variant>
AV-unprocessed.smi:343-1

> <Gold.Version>
5.8.1

> <Gold.Id.Protein>
6NUR|6NUR_protein|mol2

> <Gold.PLP.Fitness>
44.0351

> <Gold.PLP.PLP>
-46.1074

> <Gold.PLP.part.hbond>
0.0000

> <Gold.PLP.part.metal>
0.0000

> <Gold.PLP.part.buried>
-4.3650

> <Gold.PLP.part.nonpolar>
-41.6178

> <Gold.PLP.part.repulsive>
0.1489

> <Gold.PLP.ligand.clash>
0.0000

> <Gold.PLP.ligand.torsion>
2.1076

> <Gold.PLP.Chemscore.Hbond>
0.0000

> <Gold.PLP.Chemscore.CHOScore>
0.0000

> <Gold.PLP.Chemscore.Metal>
0.0000

> <Gold.PLP.Chemscore.Internal.Correction>
2.1429

> <Gold.Rescore>
     Score         DG    S(hbond)    S(metal)    S(lipo)     H(rot)  DE(clash)    DE(int)     intcor
     14.08     -16.21       0.00        0.00     123.78       1.46       0.23       1.90       ----

> <Gold.Chemscore.Fitness>
14.0834

> <Gold.Chemscore.DG>
-16.2114

> <Gold.Chemscore.ZeroCoef>
-5.4800

> <Gold.Chemscore.Hbond>
0.0000

> <Gold.Chemscore.Metal>
0.0000

> <Gold.Chemscore.Lipo>
123.7754

> <Gold.Chemscore.Internal_Hbond>
0.0000

> <Gold.Chemscore.DEClash>
0.2290

> <Gold.Chemscore.DEInternal>
1.8990

> <Gold.Chemscore.Rot>
1.4650

> <Gold.Chemscore.Internal.Correction>
   9.000000E+99

> <Gold.Chemscore.Hbond.Weighted>
-0.0000

> <Gold.Chemscore.Metal.Weighted>
-0.0000

> <Gold.Chemscore.Lipo.Weighted>
-14.4817

> <Gold.Chemscore.Internal_Hbond.Weighted>
0.0000

> <Gold.Chemscore.DEClash.Weighted>
0.2290

> <Gold.Chemscore.DEInternal.Weighted>
1.8990

> <Gold.Chemscore.Rot.Weighted>
3.7503

> <Gold.Chemscore.Internal.Correction.Weighted>
   9.000000E+99

> <Gold.Protein.RotatedTorsions>
[ 6907 6896 6895 6894 ] final    4.70 input  -60.11 | X-H torsion
[ 7974 7965 7964 7962 ] final   26.09 input  175.53 | X-H torsion
[ 8008 7997 7996 7995 ] final  128.76 input   59.86 | X-H torsion
[ 10167 10162 10161 10158 ] final  173.71 input  -65.29 | X-H torsion
[ 10718 10713 10712 10709 ] final -143.62 input   66.30 | X-H torsion
[ 10763 10752 10751 10750 ] final   44.75 input  -60.55 | X-H torsion
[ 11005 11000 10999 10996 ] final  168.40 input  -57.11 | X-H torsion

> <Gold.Protein.ActiveResidues>
 VAL166  LYS551  ARG553  GLY616  TRP617  ASP618  TYR619  PRO620  LYS621  CYS622 
 ASP623  PHE694  ASN695  SER759  ASP760  ASP761  ALA762  ILE779  LEU786  VAL792 
 PHE793  MET794  SER795  GLU796  ALA797  LYS798  CYS799  TRP800  GLU811  SER814 

> <Gold.Protein.RotatedAtoms>
  151.6456  135.1007  160.0150 H   0  0  0  0  0  0  0  0  0  0  0  0  # atno 6907 bound_to 6896
  152.4029  133.6841  159.6340 H   0  0  0  0  0  0  0  0  0  0  0  0  # atno 6908 bound_to 6896
  150.7927  133.8676  159.3290 H   0  0  0  0  0  0  0  0  0  0  0  0  # atno 6909 bound_to 6896
  146.1855  139.7375  142.8869 H   0  0  0  0  0  0  0  0  0  0  0  0  # atno 7974 bound_to 7965
  156.2922  140.2637  156.2489 H   0  0  0  0  0  0  0  0  0  0  0  0  # atno 8008 bound_to 7997
  154.9902  140.0389  157.2335 H   0  0  0  0  0  0  0  0  0  0  0  0  # atno 8009 bound_to 7997
  154.7692  140.2775  155.6156 H   0  0  0  0  0  0  0  0  0  0  0  0  # atno 8010 bound_to 7997
  139.5117  144.3229  152.0185 H   0  0  0  0  0  0  0  0  0  0  0  0  # atno 10167 bound_to 10162
  156.3602  130.7734  151.1900 H   0  0  0  0  0  0  0  0  0  0  0  0  # atno 10718 bound_to 10713
  152.9836  135.6061  154.3325 H   0  0  0  0  0  0  0  0  0  0  0  0  # atno 10763 bound_to 10752
  154.3027  135.2772  155.2605 H   0  0  0  0  0  0  0  0  0  0  0  0  # atno 10764 bound_to 10752
  154.4850  135.5907  153.6473 H   0  0  0  0  0  0  0  0  0  0  0  0  # atno 10765 bound_to 10752
  140.2869  134.7705  157.3806 H   0  0  0  0  0  0  0  0  0  0  0  0  # atno 11005 bound_to 11000
  145.3951  141.0377  143.3102 LP  0  0  0  0  0  0  0  0  0  0  0  0  # atno 17320 bound_to 7965
  144.8390  139.5503  143.6909 LP  0  0  0  0  0  0  0  0  0  0  0  0  # atno 17321 bound_to 7965
  140.2671  144.4005  150.6164 LP  0  0  0  0  0  0  0  0  0  0  0  0  # atno 17342 bound_to 10162
  140.6115  143.2170  151.6876 LP  0  0  0  0  0  0  0  0  0  0  0  0  # atno 17343 bound_to 10162
  157.7472  131.0402  150.4587 LP  0  0  0  0  0  0  0  0  0  0  0  0  # atno 17370 bound_to 10713
  156.4797  130.4071  149.6469 LP  0  0  0  0  0  0  0  0  0  0  0  0  # atno 17371 bound_to 10713
  140.1231  134.5193  155.8167 LP  0  0  0  0  0  0  0  0  0  0  0  0  # atno 17394 bound_to 11000
  141.2153  133.6763  156.6903 LP  0  0  0  0  0  0  0  0  0  0  0  0  # atno 17395 bound_to 11000

$$$$
