AV-unprocessed.smi:1218|AV-procd|sdf|5111|dock3
  -GOLD-   22720 4163D 1   1.00000     0.00000
 Structure written by MMmdl.
 44 45  0  0  0  0  0  0  0  0  1 V2000
  151.9053  145.7415  160.0826 C   0  0  0  0  0  0  0  0  0  0  0  0
  152.2967  144.3801  159.4858 C   0  0  0  0  0  0  0  0  0  0  0  0
  152.5262  144.5025  157.9723 C   0  0  0  0  0  0  0  0  0  0  0  0
  151.2352  143.2993  159.7847 C   0  0  0  0  0  0  0  0  0  0  0  0
  151.6443  141.9156  159.5366 N   0  0  0  0  0  0  0  0  0  0  0  0
  153.0045  141.6389  159.9941 C   0  0  0  0  0  0  0  0  0  0  0  0
  153.4306  140.1939  159.6863 C   0  0  0  0  0  0  0  0  0  0  0  0
  153.2963  139.9464  158.2916 O   0  0  0  0  0  0  0  0  0  0  0  0
  151.9652  140.1382  157.8180 C   0  0  2  0  0  0  0  0  0  0  0  0
  151.9180  139.8258  156.3129 C   0  0  0  0  0  0  0  0  0  0  0  0
  150.5458  139.6712  155.8417 N   0  0  0  0  0  0  0  0  0  0  0  0
  150.1709  138.9584  154.7675 C   0  0  0  0  0  0  0  0  0  0  0  0
  150.9618  138.3602  154.0384 O   0  0  0  0  0  0  0  0  0  0  0  0
  148.6710  138.9007  154.4733 C   0  0  0  0  0  0  0  0  0  0  0  0
  148.0928  140.2310  154.3936 N   0  0  0  0  0  0  0  0  0  0  0  0
  147.4715  140.8327  153.3186 C   0  0  0  0  0  0  0  0  0  0  0  0
  147.0892  142.0814  153.7171 C   0  0  0  0  0  0  0  0  0  0  0  0
  147.5227  142.1520  155.0706 C   0  0  0  0  0  0  0  0  0  0  0  0
  148.1234  141.0437  155.4726 N   0  0  0  0  0  0  0  0  0  0  0  0
  151.5485  141.5924  158.1165 C   0  0  0  0  0  0  0  0  0  0  0  0
  150.9563  146.0937  159.6770 H   0  0  0  0  0  0  0  0  0  0  0  0
  152.6606  146.4975  159.8658 H   0  0  0  0  0  0  0  0  0  0  0  0
  151.8036  145.6846  161.1665 H   0  0  0  0  0  0  0  0  0  0  0  0
  153.2499  144.0814  159.9202 H   0  0  0  0  0  0  0  0  0  0  0  0
  151.6150  144.8061  157.4560 H   0  0  0  0  0  0  0  0  0  0  0  0
  152.8502  143.5527  157.5460 H   0  0  0  0  0  0  0  0  0  0  0  0
  153.2970  145.2409  157.7496 H   0  0  0  0  0  0  0  0  0  0  0  0
  150.9461  143.4007  160.8320 H   0  0  0  0  0  0  0  0  0  0  0  0
  150.3327  143.5125  159.2096 H   0  0  0  0  0  0  0  0  0  0  0  0
  153.7029  142.3289  159.5182 H   0  0  0  0  0  0  0  0  0  0  0  0
  153.0862  141.8003  161.0681 H   0  0  0  0  0  0  0  0  0  0  0  0
  154.4684  140.0338  159.9785 H   0  0  0  0  0  0  0  0  0  0  0  0
  152.8251  139.4825  160.2501 H   0  0  0  0  0  0  0  0  0  0  0  0
  151.2957  139.4551  158.3447 H   0  0  0  0  0  0  0  0  0  0  0  0
  152.3655  140.6480  155.7540 H   0  0  0  0  0  0  0  0  0  0  0  0
  152.5145  138.9407  156.0845 H   0  0  0  0  0  0  0  0  0  0  0  0
  149.8241  140.1302  156.3787 H   0  0  0  0  0  0  0  0  0  0  0  0
  148.4957  138.3885  153.5263 H   0  0  0  0  0  0  0  0  0  0  0  0
  148.1640  138.3234  155.2484 H   0  0  0  0  0  0  0  0  0  0  0  0
  147.3563  140.3273  152.3709 H   0  0  0  0  0  0  0  0  0  0  0  0
  146.5765  142.8300  153.1318 H   0  0  0  0  0  0  0  0  0  0  0  0
  147.4188  142.9698  155.7684 H   0  0  0  0  0  0  0  0  0  0  0  0
  150.5251  141.7491  157.7735 H   0  0  0  0  0  0  0  0  0  0  0  0
  152.1770  142.2741  157.5410 H   0  0  0  0  0  0  0  0  0  0  0  0
  1  2  1  0  0  0  0
  1 21  1  0  0  0  0
  1 22  1  0  0  0  0
  1 23  1  0  0  0  0
  2  3  1  0  0  0  0
  2  4  1  0  0  0  0
  2 24  1  0  0  0  0
  3 25  1  0  0  0  0
  3 26  1  0  0  0  0
  3 27  1  0  0  0  0
  4  5  1  0  0  0  0
  4 28  1  0  0  0  0
  4 29  1  0  0  0  0
  5 20  1  0  0  0  0
  5  6  1  0  0  0  0
  6  7  1  0  0  0  0
  6 30  1  0  0  0  0
  6 31  1  0  0  0  0
  7  8  1  0  0  0  0
  7 32  1  0  0  0  0
  7 33  1  0  0  0  0
  8  9  1  0  0  0  0
  9 10  1  0  0  0  0
  9 20  1  0  0  0  0
  9 34  1  0  0  0  0
 10 11  1  0  0  0  0
 10 35  1  0  0  0  0
 10 36  1  0  0  0  0
 11 12  1  0  0  0  0
 11 37  1  0  0  0  0
 12 13  2  0  0  0  0
 12 14  1  0  0  0  0
 14 15  1  0  0  0  0
 14 38  1  0  0  0  0
 14 39  1  0  0  0  0
 15 19  1  0  0  0  0
 15 16  1  0  0  0  0
 16 17  2  0  0  0  0
 16 40  1  0  0  0  0
 17 18  1  0  0  0  0
 17 41  1  0  0  0  0
 18 19  2  0  0  0  0
 18 42  1  0  0  0  0
 20 43  1  0  0  0  0
 20 44  1  0  0  0  0
M  END
> <s_m_source_file>
AV-unprocessed.smi

> <i_m_source_file_index>
1218

> <i_lp_mmshare_version>
43012

> <i_f3d_flags>
0

> <s_epik_input>
W0NIM11bQ0hdKFtDSDNdKVtDSDJdTjFbQ0gyXVtDSDJdT1tDQEhdKFtDSDJdMSlbQ0gyXVtOSF1DKD1PKVtDSDJdbjJbY0hdW2NIXVtjSF1uMg==

> <s_epik_cmdline>
J2VwaWtfcHl0aG9uJywgJy1waCcsICc3LjAnLCAnLXRuJywgJzgnLCAnLW1hJywgJzIwMCcsICctbWV0YWxfYmluZGluZycsICctaW1hZScsICc8aW5maWxlLm1hZT4nLCAnLW9tYWUnLCAnPG91dGZpbGUubWFlPic=

> <r_lp_tautomer_probability>
1

> <r_epik_Ionization_Penalty>
1.10621

> <r_epik_Ionization_Penalty_Charging>
0

> <r_epik_Ionization_Penalty_Neutral>
1.10621

> <r_epik_State_Penalty>
1.16377

> <r_epik_Charging_Adjusted_Penalty>
1.16377

> <i_epik_Tot_Q>
0

> <i_epik_Tot_abs_Q>
0

> <r_epik_Metal_State_Penalty>
1.16377

> <b_epik_Metal_Only>
0

> <s_lp_Force_Field>
OPLS_2005

> <r_lp_Energy>
24.8608

> <b_lp_Chiralities_Consistent>
1

> <s_lp_Variant>
AV-unprocessed.smi:1218-6

> <Gold.Version>
5.8.1

> <Gold.Id.Protein>
6NUR|6NUR_protein|mol2

> <Gold.PLP.Fitness>
46.8747

> <Gold.PLP.PLP>
-40.5241

> <Gold.PLP.part.hbond>
-1.0000

> <Gold.PLP.part.metal>
0.0000

> <Gold.PLP.part.buried>
-2.6686

> <Gold.PLP.part.nonpolar>
-36.8627

> <Gold.PLP.part.repulsive>
0.3580

> <Gold.PLP.ligand.clash>
0.0000

> <Gold.PLP.ligand.torsion>
0.5711

> <Gold.PLP.Chemscore.Hbond>
1.0000

> <Gold.PLP.Chemscore.CHOScore>
1.4709

> <Gold.PLP.Chemscore.Metal>
0.0000

> <Gold.Chemscore.Hbonds>
donor molecule, donor type, donor heavy atom, donor atom, acceptor molecule, acceptor atom, score
      P1  H  7997  8009       L1     8  1.00
      L1  C    16    40       P1  7957  0.63
      L1  C    18    42       P1  8028  0.70

> <Gold.PLP.Chemscore.Internal.Correction>
0.0803

> <Gold.Rescore>
     Score         DG    S(hbond)    S(metal)    S(lipo)     H(rot)  DE(clash)    DE(int)     intcor
     14.57     -16.47       0.89        0.00     109.99       1.90       0.04       1.87       ----

> <Gold.Chemscore.Fitness>
14.5685

> <Gold.Chemscore.DG>
-16.4749

> <Gold.Chemscore.ZeroCoef>
-5.4800

> <Gold.Chemscore.Hbond>
0.8929

> <Gold.Chemscore.Metal>
0.0000

> <Gold.Chemscore.Lipo>
109.9915

> <Gold.Chemscore.Internal_Hbond>
0.0000

> <Gold.Chemscore.DEClash>
0.0378

> <Gold.Chemscore.DEInternal>
1.8686

> <Gold.Chemscore.Rot>
1.8970

> <Gold.Chemscore.Internal.Correction>
   9.000000E+99

> <Gold.Chemscore.Hbonds>
donor molecule, donor type, donor heavy atom, donor atom, acceptor molecule, acceptor atom, score
      P1  H  7997  8009       L1     8  0.93

> <Gold.Chemscore.Hbond.Weighted>
-2.9823

> <Gold.Chemscore.Metal.Weighted>
-0.0000

> <Gold.Chemscore.Lipo.Weighted>
-12.8690

> <Gold.Chemscore.Internal_Hbond.Weighted>
0.0000

> <Gold.Chemscore.DEClash.Weighted>
0.0378

> <Gold.Chemscore.DEInternal.Weighted>
1.8686

> <Gold.Chemscore.Rot.Weighted>
4.8564

> <Gold.Chemscore.Internal.Correction.Weighted>
   9.000000E+99

> <Gold.Protein.RotatedTorsions>
[ 6907 6896 6895 6894 ] final   93.03 input  -60.11 | X-H torsion
[ 7974 7965 7964 7962 ] final  134.43 input  175.53 | X-H torsion
[ 8008 7997 7996 7995 ] final  142.20 input   59.86 | X-H torsion
[ 10167 10162 10161 10158 ] final  -26.79 input  -65.29 | X-H torsion
[ 10718 10713 10712 10709 ] final  -60.12 input   66.30 | X-H torsion
[ 10763 10752 10751 10750 ] final -154.34 input  -60.55 | X-H torsion
[ 11005 11000 10999 10996 ] final  125.47 input  -57.11 | X-H torsion

> <Gold.Protein.ActiveResidues>
 VAL166  LYS551  ARG553  GLY616  TRP617  ASP618  TYR619  PRO620  LYS621  CYS622 
 ASP623  PHE694  ASN695  SER759  ASP760  ASP761  ALA762  ILE779  LEU786  VAL792 
 PHE793  MET794  SER795  GLU796  ALA797  LYS798  CYS799  TRP800  GLU811  SER814 

> <Gold.Protein.RotatedAtoms>
  152.5453  134.1410  159.8478 H   0  0  0  0  0  0  0  0  0  0  0  0  # atno 6907 bound_to 6896
  151.1446  133.4941  159.2603 H   0  0  0  0  0  0  0  0  0  0  0  0  # atno 6908 bound_to 6896
  151.1537  135.0250  159.8734 H   0  0  0  0  0  0  0  0  0  0  0  0  # atno 6909 bound_to 6896
  144.9765  139.4550  143.5407 H   0  0  0  0  0  0  0  0  0  0  0  0  # atno 7974 bound_to 7965
  156.2953  140.2295  156.4689 H   0  0  0  0  0  0  0  0  0  0  0  0  # atno 8008 bound_to 7997
  154.7952  140.0452  157.1252 H   0  0  0  0  0  0  0  0  0  0  0  0  # atno 8009 bound_to 7997
  154.9598  140.3053  155.5040 H   0  0  0  0  0  0  0  0  0  0  0  0  # atno 8010 bound_to 7997
  140.7281  143.4148  151.1046 H   0  0  0  0  0  0  0  0  0  0  0  0  # atno 10167 bound_to 10162
  156.1013  130.4186  150.0810 H   0  0  0  0  0  0  0  0  0  0  0  0  # atno 10718 bound_to 10713
  154.7865  135.3192  154.7874 H   0  0  0  0  0  0  0  0  0  0  0  0  # atno 10763 bound_to 10752
  153.8573  135.6856  153.4790 H   0  0  0  0  0  0  0  0  0  0  0  0  # atno 10764 bound_to 10752
  153.1519  135.4696  154.9587 H   0  0  0  0  0  0  0  0  0  0  0  0  # atno 10765 bound_to 10752
  139.9408  134.9635  156.8563 H   0  0  0  0  0  0  0  0  0  0  0  0  # atno 11005 bound_to 11000
  146.3396  139.9010  142.8794 LP  0  0  0  0  0  0  0  0  0  0  0  0  # atno 17320 bound_to 7965
  145.2483  141.0034  143.3896 LP  0  0  0  0  0  0  0  0  0  0  0  0  # atno 17321 bound_to 7965
  139.7786  143.8388  152.3134 LP  0  0  0  0  0  0  0  0  0  0  0  0  # atno 17342 bound_to 10162
  139.8331  144.7244  150.9425 LP  0  0  0  0  0  0  0  0  0  0  0  0  # atno 17343 bound_to 10162
  156.8796  130.9552  151.3601 LP  0  0  0  0  0  0  0  0  0  0  0  0  # atno 17370 bound_to 10713
  157.6183  130.8636  149.9066 LP  0  0  0  0  0  0  0  0  0  0  0  0  # atno 17371 bound_to 10713
  140.5957  134.0220  155.7517 LP  0  0  0  0  0  0  0  0  0  0  0  0  # atno 17394 bound_to 11000
  141.1042  133.9721  157.3027 LP  0  0  0  0  0  0  0  0  0  0  0  0  # atno 17395 bound_to 11000

$$$$
