AV-unprocessed.smi:774|AV-procd|sdf|3692|dock3
  -GOLD-   22720 1113D 1   1.00000     0.00000
 Structure written by MMmdl.
 37 38  0  0  0  0  0  0  0  0  1 V2000
  149.9930  134.5483  156.7988 C   0  0  0  0  0  0  0  0  0  0  0  0
  149.3129  135.7004  156.0544 C   0  0  0  0  0  0  0  0  0  0  0  0
  150.4004  137.1468  155.9330 S   0  0  0  0  0  0  0  0  0  0  0  0
  149.2851  138.3249  155.1156 C   0  0  1  0  0  0  0  0  0  0  0  0
  148.1329  138.7603  156.0179 C   0  0  0  0  0  0  0  0  0  0  0  0
  147.6350  140.0598  155.3851 C   0  0  0  0  0  0  0  0  0  0  0  0
  148.8734  140.7205  154.7537 C   0  0  1  0  0  0  0  0  0  0  0  0
  149.3013  141.8761  155.5400 N   0  0  0  0  0  0  0  0  0  0  0  0
  150.0109  141.8328  156.6767 C   0  0  0  0  0  0  0  0  0  0  0  0
  150.4024  140.7875  157.1931 O   0  0  0  0  0  0  0  0  0  0  0  0
  150.2258  143.0715  157.1534 N   0  0  0  0  0  0  0  0  0  0  0  0
  150.8846  143.4855  158.3450 C   0  0  0  0  0  0  0  0  0  0  0  0
  151.6989  142.5362  158.9974 C   0  0  0  0  0  0  0  0  0  0  0  0
  152.3758  142.9014  160.1762 C   0  0  0  0  0  0  0  0  0  0  0  0
  152.2117  144.2123  160.6624 C   0  0  0  0  0  0  0  0  0  0  0  0
  151.4367  145.1341  160.0542 N   0  0  0  0  0  0  0  0  0  0  0  0
  150.7899  144.7771  158.9232 C   0  0  0  0  0  0  0  0  0  0  0  0
  149.9717  139.6399  154.7300 C   0  0  0  0  0  0  0  0  0  0  0  0
  149.3296  133.6862  156.8702 H   0  0  0  0  0  0  0  0  0  0  0  0
  150.2668  134.8418  157.8125 H   0  0  0  0  0  0  0  0  0  0  0  0
  150.8998  134.2292  156.2843 H   0  0  0  0  0  0  0  0  0  0  0  0
  149.0320  135.3788  155.0514 H   0  0  0  0  0  0  0  0  0  0  0  0
  148.3968  135.9887  156.5700 H   0  0  0  0  0  0  0  0  0  0  0  0
  148.8715  137.8576  154.2207 H   0  0  0  0  0  0  0  0  0  0  0  0
  147.3501  138.0052  156.0944 H   0  0  0  0  0  0  0  0  0  0  0  0
  148.5008  138.9635  157.0246 H   0  0  0  0  0  0  0  0  0  0  0  0
  146.9158  139.8228  154.5998 H   0  0  0  0  0  0  0  0  0  0  0  0
  147.1219  140.6982  156.1057 H   0  0  0  0  0  0  0  0  0  0  0  0
  148.6346  141.0118  153.7292 H   0  0  0  0  0  0  0  0  0  0  0  0
  149.0285  142.7827  155.1893 H   0  0  0  0  0  0  0  0  0  0  0  0
  149.8474  143.8226  156.5952 H   0  0  0  0  0  0  0  0  0  0  0  0
  151.8079  141.5374  158.6001 H   0  0  0  0  0  0  0  0  0  0  0  0
  153.0061  142.1941  160.6944 H   0  0  0  0  0  0  0  0  0  0  0  0
  152.7169  144.5290  161.5628 H   0  0  0  0  0  0  0  0  0  0  0  0
  150.1932  145.5648  158.4938 H   0  0  0  0  0  0  0  0  0  0  0  0
  150.7526  139.8724  155.4564 H   0  0  0  0  0  0  0  0  0  0  0  0
  150.4536  139.5735  153.7540 H   0  0  0  0  0  0  0  0  0  0  0  0
  1  2  1  0  0  0  0
  1 19  1  0  0  0  0
  1 20  1  0  0  0  0
  1 21  1  0  0  0  0
  2  3  1  0  0  0  0
  2 22  1  0  0  0  0
  2 23  1  0  0  0  0
  3  4  1  0  0  0  0
  4 18  1  0  0  0  0
  4  5  1  0  0  0  0
  4 24  1  0  0  0  0
  5  6  1  0  0  0  0
  5 25  1  0  0  0  0
  5 26  1  0  0  0  0
  6  7  1  0  0  0  0
  6 27  1  0  0  0  0
  6 28  1  0  0  0  0
  7  8  1  0  0  0  0
  7 18  1  0  0  0  0
  7 29  1  0  0  0  0
  8  9  1  0  0  0  0
  8 30  1  0  0  0  0
  9 10  2  0  0  0  0
  9 11  1  0  0  0  0
 11 12  1  0  0  0  0
 11 31  1  0  0  0  0
 12 17  1  0  0  0  0
 12 13  2  0  0  0  0
 13 14  1  0  0  0  0
 13 32  1  0  0  0  0
 14 15  2  0  0  0  0
 14 33  1  0  0  0  0
 15 16  1  0  0  0  0
 15 34  1  0  0  0  0
 16 17  2  0  0  0  0
 17 35  1  0  0  0  0
 18 36  1  0  0  0  0
 18 37  1  0  0  0  0
M  END
> <s_m_source_file>
AV-unprocessed.smi

> <i_m_source_file_index>
774

> <i_lp_mmshare_version>
43012

> <i_f3d_flags>
0

> <s_epik_input>
W0NIM11bQ0gyXVNbQ0BASF0xW0NIMl1bQ0gyXVtDQEhdKFtDSDJdMSlbTkhdQyg9TylbTkhdYzJbY0hdW2NIXVtjSF1uW2NIXTI=

> <s_epik_cmdline>
J2VwaWtfcHl0aG9uJywgJy1waCcsICc3LjAnLCAnLXRuJywgJzgnLCAnLW1hJywgJzIwMCcsICctbWV0YWxfYmluZGluZycsICctaW1hZScsICc8aW5maWxlLm1hZT4nLCAnLW9tYWUnLCAnPG91dGZpbGUubWFlPic=

> <r_epik_Ionization_Penalty>
0.00485718

> <r_epik_Ionization_Penalty_Charging>
0

> <r_epik_Ionization_Penalty_Neutral>
0.00485718

> <r_epik_State_Penalty>
0.00349461

> <r_epik_Charging_Adjusted_Penalty>
0.00349461

> <i_epik_Tot_Q>
0

> <i_epik_Tot_abs_Q>
0

> <r_epik_Metal_State_Penalty>
-0

> <b_epik_Metal_Only>
0

> <s_lp_Force_Field>
OPLS_2005

> <r_lp_Energy>
20.4228

> <b_lp_Chiralities_Consistent>
1

> <s_lp_Variant>
AV-unprocessed.smi:774-2

> <Gold.Version>
5.8.1

> <Gold.Id.Protein>
6NUR|6NUR_protein|mol2

> <Gold.PLP.Fitness>
39.9782

> <Gold.PLP.PLP>
-32.0355

> <Gold.PLP.part.hbond>
-2.0000

> <Gold.PLP.part.metal>
0.0000

> <Gold.PLP.part.buried>
-4.3778

> <Gold.PLP.part.nonpolar>
-27.3479

> <Gold.PLP.part.repulsive>
0.3574

> <Gold.PLP.ligand.clash>
0.0000

> <Gold.PLP.ligand.torsion>
0.3723

> <Gold.PLP.Chemscore.Hbond>
1.9120

> <Gold.PLP.Chemscore.CHOScore>
0.9819

> <Gold.PLP.Chemscore.Metal>
0.0000

> <Gold.Chemscore.Hbonds>
donor molecule, donor type, donor heavy atom, donor atom, acceptor molecule, acceptor atom, score
      L1  H     8    30       P1  8028  0.90
      L1  H    11    31       P1  8028  1.00
      L1  C    17    35       P1  8029  0.80

> <Gold.PLP.Chemscore.Internal.Correction>
0.0054

> <Gold.Rescore>
     Score         DG    S(hbond)    S(metal)    S(lipo)     H(rot)  DE(clash)    DE(int)     intcor
     15.97     -19.41       1.93        0.00      92.50       1.30       0.28       3.16       ----

> <Gold.Chemscore.Fitness>
15.9657

> <Gold.Chemscore.DG>
-19.4107

> <Gold.Chemscore.ZeroCoef>
-5.4800

> <Gold.Chemscore.Hbond>
1.9302

> <Gold.Chemscore.Metal>
0.0000

> <Gold.Chemscore.Lipo>
92.4991

> <Gold.Chemscore.Internal_Hbond>
0.0000

> <Gold.Chemscore.DEClash>
0.2813

> <Gold.Chemscore.DEInternal>
3.1637

> <Gold.Chemscore.Rot>
1.3041

> <Gold.Chemscore.Internal.Correction>
   9.000000E+99

> <Gold.Chemscore.Hbonds>
donor molecule, donor type, donor heavy atom, donor atom, acceptor molecule, acceptor atom, score
      L1  H     8    30       P1  8028  0.85
      L1  H    11    31       P1  8028  0.98

> <Gold.Chemscore.Hbond.Weighted>
-6.4467

> <Gold.Chemscore.Metal.Weighted>
-0.0000

> <Gold.Chemscore.Lipo.Weighted>
-10.8224

> <Gold.Chemscore.Internal_Hbond.Weighted>
0.0000

> <Gold.Chemscore.DEClash.Weighted>
0.2813

> <Gold.Chemscore.DEInternal.Weighted>
3.1637

> <Gold.Chemscore.Rot.Weighted>
3.3384

> <Gold.Chemscore.Internal.Correction.Weighted>
   9.000000E+99

> <Gold.Protein.RotatedTorsions>
[ 6907 6896 6895 6894 ] final   55.17 input  -60.11 | X-H torsion
[ 7974 7965 7964 7962 ] final    9.00 input  175.53 | X-H torsion
[ 8008 7997 7996 7995 ] final   43.65 input   59.86 | X-H torsion
[ 10167 10162 10161 10158 ] final  -81.41 input  -65.29 | X-H torsion
[ 10718 10713 10712 10709 ] final  127.04 input   66.30 | X-H torsion
[ 10763 10752 10751 10750 ] final  -27.26 input  -60.55 | X-H torsion
[ 11005 11000 10999 10996 ] final   88.53 input  -57.11 | X-H torsion

> <Gold.Protein.ActiveResidues>
 VAL166  LYS551  ARG553  GLY616  TRP617  ASP618  TYR619  PRO620  LYS621  CYS622 
 ASP623  PHE694  ASN695  SER759  ASP760  ASP761  ALA762  ILE779  LEU786  VAL792 
 PHE793  MET794  SER795  GLU796  ALA797  LYS798  CYS799  TRP800  GLU811  SER814 

> <Gold.Protein.RotatedAtoms>
  152.3512  134.7003  160.0235 H   0  0  0  0  0  0  0  0  0  0  0  0  # atno 6907 bound_to 6896
  151.7357  133.3314  159.3360 H   0  0  0  0  0  0  0  0  0  0  0  0  # atno 6908 bound_to 6896
  150.7541  134.6257  159.6204 H   0  0  0  0  0  0  0  0  0  0  0  0  # atno 6909 bound_to 6896
  146.2409  139.9850  142.8432 H   0  0  0  0  0  0  0  0  0  0  0  0  # atno 7974 bound_to 7965
  155.3062  140.3388  155.4245 H   0  0  0  0  0  0  0  0  0  0  0  0  # atno 8008 bound_to 7997
  156.1977  140.1721  156.8002 H   0  0  0  0  0  0  0  0  0  0  0  0  # atno 8009 bound_to 7997
  154.5520  140.0704  156.8666 H   0  0  0  0  0  0  0  0  0  0  0  0  # atno 8010 bound_to 7997
  140.4414  143.2513  151.8620 H   0  0  0  0  0  0  0  0  0  0  0  0  # atno 10167 bound_to 10162
  157.5367  131.1097  150.8924 H   0  0  0  0  0  0  0  0  0  0  0  0  # atno 10718 bound_to 10713
  153.7292  135.6940  153.4993 H   0  0  0  0  0  0  0  0  0  0  0  0  # atno 10763 bound_to 10752
  153.2148  135.4390  155.0421 H   0  0  0  0  0  0  0  0  0  0  0  0  # atno 10764 bound_to 10752
  154.8259  135.3446  154.6822 H   0  0  0  0  0  0  0  0  0  0  0  0  # atno 10765 bound_to 10752
  139.8894  134.8493  156.3013 H   0  0  0  0  0  0  0  0  0  0  0  0  # atno 11005 bound_to 11000
  145.1557  140.9646  143.4407 LP  0  0  0  0  0  0  0  0  0  0  0  0  # atno 17320 bound_to 7965
  145.0164  139.3464  143.6094 LP  0  0  0  0  0  0  0  0  0  0  0  0  # atno 17321 bound_to 7965
  139.4790  144.5224  151.8782 LP  0  0  0  0  0  0  0  0  0  0  0  0  # atno 17342 bound_to 10162
  140.4314  144.2111  150.5888 LP  0  0  0  0  0  0  0  0  0  0  0  0  # atno 17343 bound_to 10162
  156.9489  130.5412  149.5282 LP  0  0  0  0  0  0  0  0  0  0  0  0  # atno 17370 bound_to 10713
  156.0464  130.5540  150.8890 LP  0  0  0  0  0  0  0  0  0  0  0  0  # atno 17371 bound_to 10713
  140.9911  133.7208  156.0815 LP  0  0  0  0  0  0  0  0  0  0  0  0  # atno 17394 bound_to 11000
  140.7624  134.3925  157.5523 LP  0  0  0  0  0  0  0  0  0  0  0  0  # atno 17395 bound_to 11000

$$$$
