AV-unprocessed.smi:910|AV-procd|sdf|4126|dock7
  -GOLD-   22720 2 33D 1   1.00000     0.00000
 Structure written by MMmdl.
 46 47  0  0  0  0  0  0  0  0  1 V2000
  148.0053  132.5378  161.4299 C   0  0  0  0  0  0  0  0  0  0  0  0
  147.8872  134.0458  161.4421 C   0  0  0  0  0  0  0  0  0  0  0  0
  148.6499  134.8387  160.6309 N   0  0  0  0  0  0  0  0  0  0  0  0
  148.3150  136.1675  160.8816 C   0  0  0  0  0  0  0  0  0  0  0  0
  148.7542  137.2869  160.3945 N   0  0  0  0  0  0  0  0  0  0  0  0
  149.7434  137.2063  159.4321 C   0  0  0  0  0  0  0  0  0  0  0  0
  150.2014  136.1706  158.9406 O   0  0  0  0  0  0  0  0  0  0  0  0
  150.2309  138.4214  159.1343 N   0  0  0  0  0  0  0  0  0  0  0  0
  151.3465  138.6826  158.2300 C   0  0  0  0  0  0  0  0  0  0  0  0
  152.4771  139.4412  158.9391 C   0  0  0  0  0  0  0  0  0  0  0  0
  152.0431  140.7587  159.2365 O   0  0  0  0  0  0  0  0  0  0  0  0
  153.0602  141.7489  159.1598 C   0  0  2  0  0  0  0  0  0  0  0  0
  154.2654  141.2936  160.0062 C   0  0  0  0  0  0  0  0  0  0  0  0
  153.9063  141.2009  161.4996 C   0  0  0  0  0  0  0  0  0  0  0  0
  153.3239  142.5245  162.0196 C   0  0  0  0  0  0  0  0  0  0  0  0
  152.1201  142.9772  161.1777 C   0  0  0  0  0  0  0  0  0  0  0  0
  152.4884  143.0839  159.6845 C   0  0  2  0  0  0  0  0  0  0  0  0
  151.3124  143.5797  158.8290 C   0  0  0  0  0  0  0  0  0  0  0  0
  147.3379  136.1425  161.8443 O   0  0  0  0  0  0  0  0  0  0  0  0
  147.1016  134.8394  162.1656 C   0  0  0  0  0  0  0  0  0  0  0  0
  146.0594  134.5264  163.2153 C   0  0  0  0  0  0  0  0  0  0  0  0
  147.0450  132.0872  161.1781 H   0  0  0  0  0  0  0  0  0  0  0  0
  148.3109  132.1753  162.4115 H   0  0  0  0  0  0  0  0  0  0  0  0
  148.7422  132.2090  160.6971 H   0  0  0  0  0  0  0  0  0  0  0  0
  149.3373  134.4799  159.9838 H   0  0  0  0  0  0  0  0  0  0  0  0
  149.8175  139.2210  159.5918 H   0  0  0  0  0  0  0  0  0  0  0  0
  151.7253  137.7559  157.7957 H   0  0  0  0  0  0  0  0  0  0  0  0
  150.9737  139.2798  157.3978 H   0  0  0  0  0  0  0  0  0  0  0  0
  152.7490  138.9152  159.8550 H   0  0  0  0  0  0  0  0  0  0  0  0
  153.3655  139.4788  158.3068 H   0  0  0  0  0  0  0  0  0  0  0  0
  153.3746  141.8925  158.1241 H   0  0  0  0  0  0  0  0  0  0  0  0
  154.6369  140.3312  159.6539 H   0  0  0  0  0  0  0  0  0  0  0  0
  155.0849  142.0015  159.8763 H   0  0  0  0  0  0  0  0  0  0  0  0
  153.1825  140.3994  161.6532 H   0  0  0  0  0  0  0  0  0  0  0  0
  154.7903  140.9317  162.0780 H   0  0  0  0  0  0  0  0  0  0  0  0
  153.0272  142.4153  163.0631 H   0  0  0  0  0  0  0  0  0  0  0  0
  154.0948  143.2957  161.9968 H   0  0  0  0  0  0  0  0  0  0  0  0
  151.2967  142.2743  161.3102 H   0  0  0  0  0  0  0  0  0  0  0  0
  151.7644  143.9408  161.5431 H   0  0  0  0  0  0  0  0  0  0  0  0
  153.2766  143.8335  159.5987 H   0  0  0  0  0  0  0  0  0  0  0  0
  150.4934  142.8614  158.8191 H   0  0  0  0  0  0  0  0  0  0  0  0
  151.6214  143.7384  157.7958 H   0  0  0  0  0  0  0  0  0  0  0  0
  150.9221  144.5255  159.2056 H   0  0  0  0  0  0  0  0  0  0  0  0
  145.1347  134.1972  162.7411 H   0  0  0  0  0  0  0  0  0  0  0  0
  145.8448  135.4103  163.8162 H   0  0  0  0  0  0  0  0  0  0  0  0
  146.4107  133.7353  163.8776 H   0  0  0  0  0  0  0  0  0  0  0  0
  1 22  1  0  0  0  0
  1 23  1  0  0  0  0
  1 24  1  0  0  0  0
  1  2  1  0  0  0  0
  2  3  1  0  0  0  0
  2 20  2  0  0  0  0
  3 25  1  0  0  0  0
  3  4  1  0  0  0  0
  4 19  1  0  0  0  0
  4  5  2  0  0  0  0
  5  6  1  0  0  0  0
  6  8  1  0  0  0  0
  6  7  2  0  0  0  0
  8  9  1  0  0  0  0
  8 26  1  0  0  0  0
  9 10  1  0  0  0  0
  9 27  1  0  0  0  0
  9 28  1  0  0  0  0
 10 11  1  0  0  0  0
 10 29  1  0  0  0  0
 10 30  1  0  0  0  0
 11 12  1  0  0  0  0
 12 17  1  0  0  0  0
 12 13  1  0  0  0  0
 12 31  1  0  0  0  0
 13 14  1  0  0  0  0
 13 32  1  0  0  0  0
 13 33  1  0  0  0  0
 14 15  1  0  0  0  0
 14 34  1  0  0  0  0
 14 35  1  0  0  0  0
 15 16  1  0  0  0  0
 15 36  1  0  0  0  0
 15 37  1  0  0  0  0
 16 17  1  0  0  0  0
 16 38  1  0  0  0  0
 16 39  1  0  0  0  0
 17 18  1  0  0  0  0
 17 40  1  0  0  0  0
 18 41  1  0  0  0  0
 18 42  1  0  0  0  0
 18 43  1  0  0  0  0
 19 20  1  0  0  0  0
 20 21  1  0  0  0  0
 21 44  1  0  0  0  0
 21 45  1  0  0  0  0
 21 46  1  0  0  0  0
M  END
> <s_m_source_file>
AV-unprocessed.smi

> <i_m_source_file_index>
910

> <i_lp_mmshare_version>
43012

> <i_f3d_flags>
0

> <s_epik_input>
W0NIM11jMW5jKG9jMVtDSDNdKVtOSF1DKD1PKVtOSF1bQ0gyXVtDSDJdT1tDQEBIXTJbQ0gyXVtDSDJdW0NIMl1bQ0gyXVtDQEhdMltDSDNd

> <s_epik_cmdline>
J2VwaWtfcHl0aG9uJywgJy1waCcsICc3LjAnLCAnLXRuJywgJzgnLCAnLW1hJywgJzIwMCcsICctbWV0YWxfYmluZGluZycsICctaW1hZScsICc8aW5maWxlLm1hZT4nLCAnLW9tYWUnLCAnPG91dGZpbGUubWFlPic=

> <r_lp_tautomer_probability>
0.107061

> <r_epik_Ionization_Penalty>
0.727192

> <r_epik_Ionization_Penalty_Charging>
0.726719

> <r_epik_Ionization_Penalty_Neutral>
0.000473387

> <r_epik_State_Penalty>
2.53712

> <r_epik_Charging_Adjusted_Penalty>
3.26383

> <i_epik_Tot_Q>
0

> <i_epik_Tot_abs_Q>
0

> <r_epik_Metal_State_Penalty>
3.71015

> <b_epik_Metal_Only>
0

> <s_lp_Force_Field>
OPLS_2005

> <r_lp_Energy>
29.7751

> <b_lp_Chiralities_Consistent>
1

> <s_lp_Variant>
AV-unprocessed.smi:910-11

> <Gold.Version>
5.8.1

> <Gold.Id.Protein>
6NUR|6NUR_protein|mol2

> <Gold.PLP.Fitness>
46.2447

> <Gold.PLP.PLP>
-41.6847

> <Gold.PLP.part.hbond>
-3.0000

> <Gold.PLP.part.metal>
0.0000

> <Gold.PLP.part.buried>
-4.8423

> <Gold.PLP.part.nonpolar>
-35.1842

> <Gold.PLP.part.repulsive>
0.3306

> <Gold.PLP.ligand.clash>
0.0000

> <Gold.PLP.ligand.torsion>
0.2899

> <Gold.PLP.Chemscore.Hbond>
1.7017

> <Gold.PLP.Chemscore.CHOScore>
0.0000

> <Gold.PLP.Chemscore.Metal>
0.0000

> <Gold.Chemscore.Hbonds>
donor molecule, donor type, donor heavy atom, donor atom, acceptor molecule, acceptor atom, score
      P1  H  6896  6907       L1     7  1.00
      P1  H  6931  6943       L1     5  0.61
      P1  H  6934  6947       L1     5  0.05

> <Gold.PLP.Chemscore.Internal.Correction>
0.0348

> <Gold.Rescore>
     Score         DG    S(hbond)    S(metal)    S(lipo)     H(rot)  DE(clash)    DE(int)     intcor
     17.22     -19.25       1.54        0.00     110.10       1.66       0.15       1.88       ----

> <Gold.Chemscore.Fitness>
17.2195

> <Gold.Chemscore.DG>
-19.2457

> <Gold.Chemscore.ZeroCoef>
-5.4800

> <Gold.Chemscore.Hbond>
1.5352

> <Gold.Chemscore.Metal>
0.0000

> <Gold.Chemscore.Lipo>
110.1003

> <Gold.Chemscore.Internal_Hbond>
0.0000

> <Gold.Chemscore.DEClash>
0.1456

> <Gold.Chemscore.DEInternal>
1.8806

> <Gold.Chemscore.Rot>
1.6576

> <Gold.Chemscore.Internal.Correction>
   9.000000E+99

> <Gold.Chemscore.Hbonds>
donor molecule, donor type, donor heavy atom, donor atom, acceptor molecule, acceptor atom, score
      P1  H  6896  6907       L1     7  0.99
      P1  H  6931  6943       L1     5  0.23
      P1  H  6934  6947       L1     5  0.04

> <Gold.Chemscore.Hbond.Weighted>
-5.1276

> <Gold.Chemscore.Metal.Weighted>
-0.0000

> <Gold.Chemscore.Lipo.Weighted>
-12.8817

> <Gold.Chemscore.Internal_Hbond.Weighted>
0.0000

> <Gold.Chemscore.DEClash.Weighted>
0.1456

> <Gold.Chemscore.DEInternal.Weighted>
1.8806

> <Gold.Chemscore.Rot.Weighted>
4.2436

> <Gold.Chemscore.Internal.Correction.Weighted>
   9.000000E+99

> <Gold.Protein.RotatedTorsions>
[ 6907 6896 6895 6894 ] final  -52.45 input  -60.11 | X-H torsion
[ 7974 7965 7964 7962 ] final -113.03 input  175.53 | X-H torsion
[ 8008 7997 7996 7995 ] final   38.24 input   59.86 | X-H torsion
[ 10167 10162 10161 10158 ] final  -93.04 input  -65.29 | X-H torsion
[ 10718 10713 10712 10709 ] final  -91.99 input   66.30 | X-H torsion
[ 10763 10752 10751 10750 ] final -120.36 input  -60.55 | X-H torsion
[ 11005 11000 10999 10996 ] final  126.30 input  -57.11 | X-H torsion

> <Gold.Protein.ActiveResidues>
 VAL166  LYS551  ARG553  GLY616  TRP617  ASP618  TYR619  PRO620  LYS621  CYS622 
 ASP623  PHE694  ASN695  SER759  ASP760  ASP761  ALA762  ILE779  LEU786  VAL792 
 PHE793  MET794  SER795  GLU796  ALA797  LYS798  CYS799  TRP800  GLU811  SER814 

> <Gold.Protein.RotatedAtoms>
  150.8517  134.7843  159.7013 H   0  0  0  0  0  0  0  0  0  0  0  0  # atno 6907 bound_to 6896
  152.4580  134.5246  159.9802 H   0  0  0  0  0  0  0  0  0  0  0  0  # atno 6908 bound_to 6896
  151.5365  133.3402  159.2963 H   0  0  0  0  0  0  0  0  0  0  0  0  # atno 6909 bound_to 6896
  145.1369  140.8756  143.3725 H   0  0  0  0  0  0  0  0  0  0  0  0  # atno 7974 bound_to 7965
  155.2170  140.3328  155.4321 H   0  0  0  0  0  0  0  0  0  0  0  0  # atno 8008 bound_to 7997
  156.2348  140.1867  156.7196 H   0  0  0  0  0  0  0  0  0  0  0  0  # atno 8009 bound_to 7997
  154.6040  140.0619  156.9392 H   0  0  0  0  0  0  0  0  0  0  0  0  # atno 8010 bound_to 7997
  140.3287  143.3007  151.9966 H   0  0  0  0  0  0  0  0  0  0  0  0  # atno 10167 bound_to 10162
  155.9998  130.4969  150.5557 H   0  0  0  0  0  0  0  0  0  0  0  0  # atno 10718 bound_to 10713
  154.8642  135.4205  154.2447 H   0  0  0  0  0  0  0  0  0  0  0  0  # atno 10763 bound_to 10752
  153.3406  135.6993  153.6876 H   0  0  0  0  0  0  0  0  0  0  0  0  # atno 10764 bound_to 10752
  153.5856  135.3564  155.2864 H   0  0  0  0  0  0  0  0  0  0  0  0  # atno 10765 bound_to 10752
  139.9449  134.9631  156.8686 H   0  0  0  0  0  0  0  0  0  0  0  0  # atno 11005 bound_to 11000
  145.0574  139.3133  143.5898 LP  0  0  0  0  0  0  0  0  0  0  0  0  # atno 17320 bound_to 7965
  146.3509  140.0004  142.8677 LP  0  0  0  0  0  0  0  0  0  0  0  0  # atno 17321 bound_to 7965
  139.4860  144.6253  151.7177 LP  0  0  0  0  0  0  0  0  0  0  0  0  # atno 17342 bound_to 10162
  140.5417  144.0568  150.6091 LP  0  0  0  0  0  0  0  0  0  0  0  0  # atno 17343 bound_to 10162
  157.3474  131.0727  151.1740 LP  0  0  0  0  0  0  0  0  0  0  0  0  # atno 17370 bound_to 10713
  157.2568  130.6640  149.5956 LP  0  0  0  0  0  0  0  0  0  0  0  0  # atno 17371 bound_to 10713
  140.5859  134.0307  155.7481 LP  0  0  0  0  0  0  0  0  0  0  0  0  # atno 17394 bound_to 11000
  141.1096  133.9638  157.2934 LP  0  0  0  0  0  0  0  0  0  0  0  0  # atno 17395 bound_to 11000

$$$$
