AV-unprocessed.smi:1408|AV-procd|sdf|5726|dock10
  -GOLD-   22720 5363D 1   1.00000     0.00000
 Structure written by MMmdl.
 41 42  0  0  0  0  0  0  0  0  1 V2000
  142.6854  136.8968  153.5419 C   0  0  0  0  0  0  0  0  0  0  0  0
  143.6202  136.1850  152.5771 C   0  0  0  0  0  0  0  0  0  0  0  0
  143.2943  134.8860  152.1322 C   0  0  0  0  0  0  0  0  0  0  0  0
  144.1594  134.2290  151.2407 C   0  0  0  0  0  0  0  0  0  0  0  0
  145.3215  134.9035  150.8289 C   0  0  0  0  0  0  0  0  0  0  0  0
  145.6404  136.1447  151.2487 N   0  0  0  0  0  0  0  0  0  0  0  0
  144.8163  136.7932  152.1097 C   0  0  0  0  0  0  0  0  0  0  0  0
  145.0897  138.1035  152.5955 N   0  0  0  0  0  0  0  0  0  0  0  0
  146.0396  138.4937  153.4641 C   0  0  0  0  0  0  0  0  0  0  0  0
  146.8709  137.7550  153.9927 O   0  0  0  0  0  0  0  0  0  0  0  0
  145.9741  139.8137  153.6931 N   0  0  0  0  0  0  0  0  0  0  0  0
  146.8477  140.5550  154.5986 C   0  0  0  0  0  0  0  0  0  0  0  0
  148.1809  140.8636  153.9023 C   0  0  0  0  0  0  0  0  0  0  0  0
  149.1480  141.6011  154.8452 C   0  0  0  0  0  0  0  0  0  0  0  0
  149.3458  140.8657  156.1106 N   0  0  0  0  0  0  0  0  0  0  0  0
  150.7905  139.9260  156.3538 S   0  0  0  0  0  0  0  0  0  0  0  0
  151.6604  140.7907  157.7245 C   0  0  0  0  0  0  0  0  0  0  0  0
  150.3866  138.5954  156.8336 O   0  0  0  0  0  0  0  0  0  0  0  0
  151.6140  140.0448  155.1408 O   0  0  0  0  0  0  0  0  0  0  0  0
  148.0985  140.4962  156.8101 C   0  0  0  0  0  0  0  0  0  0  0  0
  147.1214  139.7527  155.8818 C   0  0  0  0  0  0  0  0  0  0  0  0
  141.8241  136.2763  153.7915 H   0  0  0  0  0  0  0  0  0  0  0  0
  142.3149  137.8227  153.1013 H   0  0  0  0  0  0  0  0  0  0  0  0
  143.2052  137.1370  154.4699 H   0  0  0  0  0  0  0  0  0  0  0  0
  142.3924  134.3959  152.4686 H   0  0  0  0  0  0  0  0  0  0  0  0
  143.9383  133.2346  150.8822 H   0  0  0  0  0  0  0  0  0  0  0  0
  146.0134  134.4353  150.1443 H   0  0  0  0  0  0  0  0  0  0  0  0
  144.4823  138.8281  152.2435 H   0  0  0  0  0  0  0  0  0  0  0  0
  145.2611  140.3443  153.2147 H   0  0  0  0  0  0  0  0  0  0  0  0
  146.3702  141.5011  154.8618 H   0  0  0  0  0  0  0  0  0  0  0  0
  148.6387  139.9401  153.5489 H   0  0  0  0  0  0  0  0  0  0  0  0
  148.0045  141.4740  153.0159 H   0  0  0  0  0  0  0  0  0  0  0  0
  150.1040  141.7714  154.3506 H   0  0  0  0  0  0  0  0  0  0  0  0
  148.7448  142.5867  155.0805 H   0  0  0  0  0  0  0  0  0  0  0  0
  152.5886  140.2640  157.9447 H   0  0  0  0  0  0  0  0  0  0  0  0
  151.0361  140.7944  158.6163 H   0  0  0  0  0  0  0  0  0  0  0  0
  151.8953  141.8119  157.4291 H   0  0  0  0  0  0  0  0  0  0  0  0
  148.3203  139.8916  157.6891 H   0  0  0  0  0  0  0  0  0  0  0  0
  147.6275  141.4089  157.1769 H   0  0  0  0  0  0  0  0  0  0  0  0
  146.1883  139.5689  156.4157 H   0  0  0  0  0  0  0  0  0  0  0  0
  147.5228  138.7722  155.6275 H   0  0  0  0  0  0  0  0  0  0  0  0
  1  2  1  0  0  0  0
  1 22  1  0  0  0  0
  1 23  1  0  0  0  0
  1 24  1  0  0  0  0
  2  7  1  0  0  0  0
  2  3  2  0  0  0  0
  3  4  1  0  0  0  0
  3 25  1  0  0  0  0
  4  5  2  0  0  0  0
  4 26  1  0  0  0  0
  5  6  1  0  0  0  0
  5 27  1  0  0  0  0
  6  7  2  0  0  0  0
  7  8  1  0  0  0  0
  8  9  1  0  0  0  0
  8 28  1  0  0  0  0
  9 10  2  0  0  0  0
  9 11  1  0  0  0  0
 11 12  1  0  0  0  0
 11 29  1  0  0  0  0
 12 21  1  0  0  0  0
 12 13  1  0  0  0  0
 12 30  1  0  0  0  0
 13 14  1  0  0  0  0
 13 31  1  0  0  0  0
 13 32  1  0  0  0  0
 14 15  1  0  0  0  0
 14 33  1  0  0  0  0
 14 34  1  0  0  0  0
 15 16  1  0  0  0  0
 15 20  1  0  0  0  0
 16 17  1  0  0  0  0
 16 18  2  0  0  0  0
 16 19  2  0  0  0  0
 17 35  1  0  0  0  0
 17 36  1  0  0  0  0
 17 37  1  0  0  0  0
 20 21  1  0  0  0  0
 20 38  1  0  0  0  0
 20 39  1  0  0  0  0
 21 40  1  0  0  0  0
 21 41  1  0  0  0  0
M  END
> <s_m_source_file>
AV-unprocessed.smi

> <i_m_source_file_index>
1408

> <i_lp_mmshare_version>
43012

> <i_f3d_flags>
0

> <s_epik_input>
W0NIM11jMVtjSF1bY0hdW2NIXW5jMVtOSF1DKD1PKVtOSF1bQ0hdMltDSDJdW0NIMl1OKFMoPU8pKD1PKVtDSDNdKVtDSDJdW0NIMl0y

> <s_epik_cmdline>
J2VwaWtfcHl0aG9uJywgJy1waCcsICc3LjAnLCAnLXRuJywgJzgnLCAnLW1hJywgJzIwMCcsICctbWV0YWxfYmluZGluZycsICctaW1hZScsICc8aW5maWxlLm1hZT4nLCAnLW9tYWUnLCAnPG91dGZpbGUubWFlPic=

> <r_lp_tautomer_probability>
1

> <r_epik_Ionization_Penalty>
5.70787e-05

> <r_epik_Ionization_Penalty_Charging>
0

> <r_epik_Ionization_Penalty_Neutral>
5.70787e-05

> <r_epik_State_Penalty>
-0

> <r_epik_Charging_Adjusted_Penalty>
0

> <i_epik_Tot_Q>
0

> <i_epik_Tot_abs_Q>
0

> <r_epik_Metal_State_Penalty>
-0

> <b_epik_Metal_Only>
0

> <s_lp_Force_Field>
OPLS_2005

> <r_lp_Energy>
5.75517

> <b_lp_Chiralities_Consistent>
1

> <s_lp_Variant>
AV-unprocessed.smi:1408-1

> <Gold.Version>
5.8.1

> <Gold.Id.Protein>
6NUR|6NUR_protein|mol2

> <Gold.PLP.Fitness>
39.6188

> <Gold.PLP.PLP>
-29.6462

> <Gold.PLP.part.hbond>
-3.9232

> <Gold.PLP.part.metal>
0.0000

> <Gold.PLP.part.buried>
-2.3652

> <Gold.PLP.part.nonpolar>
-24.0214

> <Gold.PLP.part.repulsive>
0.4370

> <Gold.PLP.ligand.clash>
0.0000

> <Gold.PLP.ligand.torsion>
1.9937

> <Gold.PLP.Chemscore.Hbond>
3.0000

> <Gold.PLP.Chemscore.CHOScore>
0.9698

> <Gold.PLP.Chemscore.Metal>
0.0000

> <Gold.Chemscore.Hbonds>
donor molecule, donor type, donor heavy atom, donor atom, acceptor molecule, acceptor atom, score
      L1  H     8    28       P1 10175  1.00
      L1  H    11    29       P1 10175  1.00
      P1  H  7989  7998       L1    19  1.00
      L1  C     5    27       P1  7921  0.93

> <Gold.PLP.Chemscore.Internal.Correction>
2.0506

> <Gold.Rescore>
     Score         DG    S(hbond)    S(metal)    S(lipo)     H(rot)  DE(clash)    DE(int)     intcor
     15.51     -18.85       2.94        0.00      52.25       1.00       0.03       3.31       ----

> <Gold.Chemscore.Fitness>
15.5077

> <Gold.Chemscore.DG>
-18.8468

> <Gold.Chemscore.ZeroCoef>
-5.4800

> <Gold.Chemscore.Hbond>
2.9383

> <Gold.Chemscore.Metal>
0.0000

> <Gold.Chemscore.Lipo>
52.2468

> <Gold.Chemscore.Internal_Hbond>
0.0000

> <Gold.Chemscore.DEClash>
0.0327

> <Gold.Chemscore.DEInternal>
3.3064

> <Gold.Chemscore.Rot>
1.0000

> <Gold.Chemscore.Internal.Correction>
   9.000000E+99

> <Gold.Chemscore.Hbonds>
donor molecule, donor type, donor heavy atom, donor atom, acceptor molecule, acceptor atom, score
      L1  H     8    28       P1 10175  0.95
      L1  H    11    29       P1 10175  0.95
      P1  H  7989  7998       L1    19  0.95

> <Gold.Chemscore.Hbond.Weighted>
-9.8139

> <Gold.Chemscore.Metal.Weighted>
-0.0000

> <Gold.Chemscore.Lipo.Weighted>
-6.1129

> <Gold.Chemscore.Internal_Hbond.Weighted>
0.0000

> <Gold.Chemscore.DEClash.Weighted>
0.0327

> <Gold.Chemscore.DEInternal.Weighted>
3.3064

> <Gold.Chemscore.Rot.Weighted>
2.5600

> <Gold.Chemscore.Internal.Correction.Weighted>
   9.000000E+99

> <Gold.Protein.RotatedTorsions>
[ 6907 6896 6895 6894 ] final -161.77 input  -60.11 | X-H torsion
[ 7974 7965 7964 7962 ] final  140.71 input  175.53 | X-H torsion
[ 8008 7997 7996 7995 ] final   89.57 input   59.86 | X-H torsion
[ 10167 10162 10161 10158 ] final   -4.31 input  -65.29 | X-H torsion
[ 10718 10713 10712 10709 ] final  -51.80 input   66.30 | X-H torsion
[ 10763 10752 10751 10750 ] final  108.23 input  -60.55 | X-H torsion
[ 11005 11000 10999 10996 ] final   17.02 input  -57.11 | X-H torsion

> <Gold.Protein.ActiveResidues>
 VAL166  LYS551  ARG553  GLY616  TRP617  ASP618  TYR619  PRO620  LYS621  CYS622 
 ASP623  PHE694  ASN695  SER759  ASP760  ASP761  ALA762  ILE779  LEU786  VAL792 
 PHE793  MET794  SER795  GLU796  ALA797  LYS798  CYS799  TRP800  GLU811  SER814 

> <Gold.Protein.RotatedAtoms>
  151.3698  133.3859  159.2698 H   0  0  0  0  0  0  0  0  0  0  0  0  # atno 6907 bound_to 6896
  150.9660  134.9041  159.7770 H   0  0  0  0  0  0  0  0  0  0  0  0  # atno 6908 bound_to 6896
  152.5167  134.3659  159.9353 H   0  0  0  0  0  0  0  0  0  0  0  0  # atno 6909 bound_to 6896
  144.9162  139.5228  143.5685 H   0  0  0  0  0  0  0  0  0  0  0  0  # atno 7974 bound_to 7965
  156.0016  140.3359  155.6851 H   0  0  0  0  0  0  0  0  0  0  0  0  # atno 8008 bound_to 7997
  155.6282  140.0682  157.2675 H   0  0  0  0  0  0  0  0  0  0  0  0  # atno 8009 bound_to 7997
  154.4251  140.1764  156.1432 H   0  0  0  0  0  0  0  0  0  0  0  0  # atno 8010 bound_to 7997
  140.6922  143.6439  150.8411 H   0  0  0  0  0  0  0  0  0  0  0  0  # atno 10167 bound_to 10162
  156.1678  130.4149  149.9693 H   0  0  0  0  0  0  0  0  0  0  0  0  # atno 10718 bound_to 10713
  153.4177  135.3819  155.2091 H   0  0  0  0  0  0  0  0  0  0  0  0  # atno 10763 bound_to 10752
  154.8742  135.3809  154.4422 H   0  0  0  0  0  0  0  0  0  0  0  0  # atno 10764 bound_to 10752
  153.4938  135.7088  153.5932 H   0  0  0  0  0  0  0  0  0  0  0  0  # atno 10765 bound_to 10752
  140.4407  134.1325  155.7690 H   0  0  0  0  0  0  0  0  0  0  0  0  # atno 11005 bound_to 11000
  146.3183  139.8006  142.8966 LP  0  0  0  0  0  0  0  0  0  0  0  0  # atno 17320 bound_to 7965
  145.3372  141.0280  143.3413 LP  0  0  0  0  0  0  0  0  0  0  0  0  # atno 17321 bound_to 7965
  140.0153  143.5599  152.2822 LP  0  0  0  0  0  0  0  0  0  0  0  0  # atno 17342 bound_to 10162
  139.6338  144.7647  151.2481 LP  0  0  0  0  0  0  0  0  0  0  0  0  # atno 17343 bound_to 10162
  156.7503  130.9113  151.3637 LP  0  0  0  0  0  0  0  0  0  0  0  0  # atno 17370 bound_to 10713
  157.6781  130.9113  150.0198 LP  0  0  0  0  0  0  0  0  0  0  0  0  # atno 17371 bound_to 10713
  141.1707  133.8615  157.1580 LP  0  0  0  0  0  0  0  0  0  0  0  0  # atno 17394 bound_to 11000
  140.0072  135.0003  157.0318 LP  0  0  0  0  0  0  0  0  0  0  0  0  # atno 17395 bound_to 11000

$$$$
