AV-unprocessed.smi:1115|AV-procd|sdf|4802|dock8
  -GOLD-   22720 3353D 1   1.00000     0.00000
 Structure written by MMmdl.
 51 52  0  0  0  0  0  0  0  0  2 V2000
  146.0540  132.1858  149.6863 C   0  0  0  0  0  0  0  0  0  0  0  0
  144.8041  132.9288  149.8005 N   0  0  0  0  0  0  0  0  0  0  0  0
  143.6490  132.5499  148.9973 C   0  0  0  0  0  0  0  0  0  0  0  0
  144.7527  134.0962  150.5927 C   0  0  0  0  0  0  0  0  0  0  0  0
  144.3280  134.0973  151.9437 C   0  0  0  0  0  0  0  0  0  0  0  0
  144.3022  135.3052  152.6697 C   0  0  0  0  0  0  0  0  0  0  0  0
  144.6930  136.5090  152.0477 C   0  0  0  0  0  0  0  0  0  0  0  0
  144.6518  137.6946  152.8312 N   0  0  0  0  0  0  0  0  0  0  0  0
  144.9988  137.8739  154.1174 C   0  0  0  0  0  0  0  0  0  0  0  0
  145.4335  137.0013  154.8681 O   0  0  0  0  0  0  0  0  0  0  0  0
  144.8116  139.1473  154.4905 N   0  0  0  0  0  0  0  0  0  0  0  0
  145.0532  139.6945  155.8255 C   0  0  0  0  0  0  0  0  0  0  0  0
  144.9222  141.2456  155.8736 C   0  0  0  0  0  0  0  0  0  0  0  0
  143.4216  141.5546  156.1078 C   0  0  0  0  0  0  0  0  0  0  0  0
  145.6864  141.7296  157.1295 C   0  0  0  0  0  0  0  0  0  0  0  0
  145.4090  141.8771  154.6144 N   0  0  0  0  0  0  0  0  0  0  0  0
  145.0895  143.3024  154.4735 C   0  0  0  0  0  0  0  0  0  0  0  0
  145.5133  143.8579  153.1030 C   0  0  0  0  0  0  0  0  0  0  0  0
  146.9038  143.6353  152.9036 O   0  0  0  0  0  0  0  0  0  0  0  0
  147.2477  142.2570  152.9727 C   0  0  0  0  0  0  0  0  0  0  0  0
  146.8393  141.6898  154.3428 C   0  0  0  0  0  0  0  0  0  0  0  0
  145.1189  136.4553  150.6987 C   0  0  0  0  0  0  0  0  0  0  0  0
  145.1294  135.2757  150.0410 N   0  3  0  0  0  0  0  0  0  0  0  0
  146.4002  131.8636  150.6689 H   0  0  0  0  0  0  0  0  0  0  0  0
  146.8272  132.8058  149.2314 H   0  0  0  0  0  0  0  0  0  0  0  0
  145.9316  131.2953  149.0695 H   0  0  0  0  0  0  0  0  0  0  0  0
  143.3804  133.3520  148.3089 H   0  0  0  0  0  0  0  0  0  0  0  0
  142.7916  132.3365  149.6361 H   0  0  0  0  0  0  0  0  0  0  0  0
  143.8534  131.6577  148.4054 H   0  0  0  0  0  0  0  0  0  0  0  0
  144.0209  133.1887  152.4394 H   0  0  0  0  0  0  0  0  0  0  0  0
  143.9786  135.3031  153.7003 H   0  0  0  0  0  0  0  0  0  0  0  0
  144.3476  138.5233  152.3415 H   0  0  0  0  0  0  0  0  0  0  0  0
  144.4447  139.7915  153.8054 H   0  0  0  0  0  0  0  0  0  0  0  0
  144.3837  139.2355  156.5552 H   0  0  0  0  0  0  0  0  0  0  0  0
  146.0482  139.3777  156.1375 H   0  0  0  0  0  0  0  0  0  0  0  0
  143.0102  140.9513  156.9180 H   0  0  0  0  0  0  0  0  0  0  0  0
  142.8246  141.3537  155.2176 H   0  0  0  0  0  0  0  0  0  0  0  0
  143.2532  142.5943  156.3885 H   0  0  0  0  0  0  0  0  0  0  0  0
  145.2975  141.2536  158.0302 H   0  0  0  0  0  0  0  0  0  0  0  0
  145.5951  142.8052  157.2793 H   0  0  0  0  0  0  0  0  0  0  0  0
  146.7487  141.4906  157.0834 H   0  0  0  0  0  0  0  0  0  0  0  0
  144.0199  143.4737  154.5818 H   0  0  0  0  0  0  0  0  0  0  0  0
  145.5846  143.8792  155.2548 H   0  0  0  0  0  0  0  0  0  0  0  0
  144.9427  143.3854  152.3018 H   0  0  0  0  0  0  0  0  0  0  0  0
  145.3128  144.9279  153.0499 H   0  0  0  0  0  0  0  0  0  0  0  0
  146.7569  141.7102  152.1660 H   0  0  0  0  0  0  0  0  0  0  0  0
  148.3223  142.1504  152.8243 H   0  0  0  0  0  0  0  0  0  0  0  0
  147.4364  142.1762  155.1143 H   0  0  0  0  0  0  0  0  0  0  0  0
  147.1042  140.6342  154.3566 H   0  0  0  0  0  0  0  0  0  0  0  0
  145.4588  137.2962  150.1141 H   0  0  0  0  0  0  0  0  0  0  0  0
  145.4407  135.2743  149.0696 H   0  0  0  0  0  0  0  0  0  0  0  0
  1  2  1  0  0  0  0
  1 24  1  0  0  0  0
  1 25  1  0  0  0  0
  1 26  1  0  0  0  0
  2  3  1  0  0  0  0
  2  4  1  0  0  0  0
  3 27  1  0  0  0  0
  3 28  1  0  0  0  0
  3 29  1  0  0  0  0
  4 23  1  0  0  0  0
  4  5  2  0  0  0  0
  5  6  1  0  0  0  0
  5 30  1  0  0  0  0
  6  7  2  0  0  0  0
  6 31  1  0  0  0  0
  7  8  1  0  0  0  0
  7 22  1  0  0  0  0
  8  9  1  0  0  0  0
  8 32  1  0  0  0  0
  9 10  2  0  0  0  0
  9 11  1  0  0  0  0
 11 12  1  0  0  0  0
 11 33  1  0  0  0  0
 12 13  1  0  0  0  0
 12 34  1  0  0  0  0
 12 35  1  0  0  0  0
 13 14  1  0  0  0  0
 13 15  1  0  0  0  0
 13 16  1  0  0  0  0
 14 36  1  0  0  0  0
 14 37  1  0  0  0  0
 14 38  1  0  0  0  0
 15 39  1  0  0  0  0
 15 40  1  0  0  0  0
 15 41  1  0  0  0  0
 16 21  1  0  0  0  0
 16 17  1  0  0  0  0
 17 18  1  0  0  0  0
 17 42  1  0  0  0  0
 17 43  1  0  0  0  0
 18 19  1  0  0  0  0
 18 44  1  0  0  0  0
 18 45  1  0  0  0  0
 19 20  1  0  0  0  0
 20 21  1  0  0  0  0
 20 46  1  0  0  0  0
 20 47  1  0  0  0  0
 21 48  1  0  0  0  0
 21 49  1  0  0  0  0
 22 23  2  0  0  0  0
 22 50  1  0  0  0  0
 23 51  1  0  0  0  0
M  CHG  1  23   1
M  END
> <s_m_source_file>
AV-unprocessed.smi

> <i_m_source_file_index>
1115

> <i_lp_mmshare_version>
43012

> <i_f3d_flags>
0

> <s_epik_input>
W0NIM11OKFtDSDNdKWMxW2NIXVtjSF1jKFtjSF1uMSlbTkhdQyg9TylbTkhdW0NIMl1DKFtDSDNdKShbQ0gzXSlOMltDSDJdW0NIMl1PW0NIMl1bQ0gyXTI=

> <s_epik_cmdline>
J2VwaWtfcHl0aG9uJywgJy1waCcsICc3LjAnLCAnLXRuJywgJzgnLCAnLW1hJywgJzIwMCcsICctbWV0YWxfYmluZGluZycsICctaW1hZScsICc8aW5maWxlLm1hZT4nLCAnLW9tYWUnLCAnPG91dGZpbGUubWFlPic=

> <r_lp_tautomer_probability>
0.999994

> <r_epik_Ionization_Penalty>
0.525804

> <r_epik_Ionization_Penalty_Charging>
0.259793

> <r_epik_Ionization_Penalty_Neutral>
0.266011

> <r_epik_State_Penalty>
0.517093

> <r_epik_Charging_Adjusted_Penalty>
0.776886

> <i_epik_Tot_Q>
1

> <i_epik_Tot_abs_Q>
1

> <r_epik_Metal_State_Penalty>
0.804287

> <b_epik_Metal_Only>
0

> <s_lp_Force_Field>
OPLS_2005

> <r_lp_Energy>
49.9386

> <b_lp_Chiralities_Consistent>
1

> <s_lp_Variant>
AV-unprocessed.smi:1115-1

> <Gold.Version>
5.8.1

> <Gold.Id.Protein>
6NUR|6NUR_protein|mol2

> <Gold.PLP.Fitness>
39.7180

> <Gold.PLP.PLP>
-34.8143

> <Gold.PLP.part.hbond>
-4.1804

> <Gold.PLP.part.metal>
0.0000

> <Gold.PLP.part.buried>
-2.5006

> <Gold.PLP.part.nonpolar>
-29.9249

> <Gold.PLP.part.repulsive>
2.5059

> <Gold.PLP.ligand.clash>
0.0000

> <Gold.PLP.ligand.torsion>
2.3164

> <Gold.PLP.Chemscore.Hbond>
3.1551

> <Gold.PLP.Chemscore.CHOScore>
0.0000

> <Gold.PLP.Chemscore.Metal>
0.0000

> <Gold.Chemscore.Hbonds>
donor molecule, donor type, donor heavy atom, donor atom, acceptor molecule, acceptor atom, score
      L1  H     8    32       P1 10175  0.94
      L1  H    11    33       P1 10175  1.00
      L1  H    23    51       P1  7921  1.00

> <Gold.PLP.Chemscore.Internal.Correction>
0.0711

> <Gold.Rescore>
     Score         DG    S(hbond)    S(metal)    S(lipo)     H(rot)  DE(clash)    DE(int)     intcor
     14.96     -20.28       3.07        0.00      70.51       1.44       2.25       3.06       ----

> <Gold.Chemscore.Fitness>
14.9647

> <Gold.Chemscore.DG>
-20.2807

> <Gold.Chemscore.ZeroCoef>
-5.4800

> <Gold.Chemscore.Hbond>
3.0686

> <Gold.Chemscore.Metal>
0.0000

> <Gold.Chemscore.Lipo>
70.5131

> <Gold.Chemscore.Internal_Hbond>
0.0000

> <Gold.Chemscore.DEClash>
2.2540

> <Gold.Chemscore.DEInternal>
3.0620

> <Gold.Chemscore.Rot>
1.4447

> <Gold.Chemscore.Internal.Correction>
   9.000000E+99

> <Gold.Chemscore.Hbonds>
donor molecule, donor type, donor heavy atom, donor atom, acceptor molecule, acceptor atom, score
      L1  H     8    32       P1 10175  0.85
      L1  H    11    33       P1 10175  1.00
      L1  H    23    51       P1  7921  1.00
      P1  H  8022  8030       L1    19  0.01

> <Gold.Chemscore.Hbond.Weighted>
-10.2492

> <Gold.Chemscore.Metal.Weighted>
-0.0000

> <Gold.Chemscore.Lipo.Weighted>
-8.2500

> <Gold.Chemscore.Internal_Hbond.Weighted>
0.0000

> <Gold.Chemscore.DEClash.Weighted>
2.2540

> <Gold.Chemscore.DEInternal.Weighted>
3.0620

> <Gold.Chemscore.Rot.Weighted>
3.6985

> <Gold.Chemscore.Internal.Correction.Weighted>
   9.000000E+99

> <Gold.Protein.RotatedTorsions>
[ 6907 6896 6895 6894 ] final  -79.24 input  -60.11 | X-H torsion
[ 7974 7965 7964 7962 ] final -172.32 input  175.53 | X-H torsion
[ 8008 7997 7996 7995 ] final -160.52 input   59.86 | X-H torsion
[ 10167 10162 10161 10158 ] final   35.90 input  -65.29 | X-H torsion
[ 10718 10713 10712 10709 ] final  106.97 input   66.30 | X-H torsion
[ 10763 10752 10751 10750 ] final -106.65 input  -60.55 | X-H torsion
[ 11005 11000 10999 10996 ] final -103.34 input  -57.11 | X-H torsion

> <Gold.Protein.ActiveResidues>
 VAL166  LYS551  ARG553  GLY616  TRP617  ASP618  TYR619  PRO620  LYS621  CYS622 
 ASP623  PHE694  ASN695  SER759  ASP760  ASP761  ALA762  ILE779  LEU786  VAL792 
 PHE793  MET794  SER795  GLU796  ALA797  LYS798  CYS799  TRP800  GLU811  SER814 

> <Gold.Protein.RotatedAtoms>
  150.6954  134.4150  159.5178 H   0  0  0  0  0  0  0  0  0  0  0  0  # atno 6907 bound_to 6896
  152.1902  134.8675  160.0527 H   0  0  0  0  0  0  0  0  0  0  0  0  # atno 6908 bound_to 6896
  151.9633  133.3667  159.4080 H   0  0  0  0  0  0  0  0  0  0  0  0  # atno 6909 bound_to 6896
  144.7147  140.1790  143.6360 H   0  0  0  0  0  0  0  0  0  0  0  0  # atno 7974 bound_to 7965
  155.7786  140.0862  157.2071 H   0  0  0  0  0  0  0  0  0  0  0  0  # atno 8008 bound_to 7997
  154.3991  140.1512  156.3083 H   0  0  0  0  0  0  0  0  0  0  0  0  # atno 8009 bound_to 7997
  155.8676  140.3427  155.5801 H   0  0  0  0  0  0  0  0  0  0  0  0  # atno 8010 bound_to 7997
  140.4178  144.1502  150.6145 H   0  0  0  0  0  0  0  0  0  0  0  0  # atno 10167 bound_to 10162
  157.6647  131.0862  150.6086 H   0  0  0  0  0  0  0  0  0  0  0  0  # atno 10718 bound_to 10713
  154.8026  135.4704  154.0312 H   0  0  0  0  0  0  0  0  0  0  0  0  # atno 10763 bound_to 10752
  153.1806  135.6840  153.8490 H   0  0  0  0  0  0  0  0  0  0  0  0  # atno 10764 bound_to 10752
  153.8041  135.3226  155.3371 H   0  0  0  0  0  0  0  0  0  0  0  0  # atno 10765 bound_to 10752
  141.1150  133.8632  157.1473 H   0  0  0  0  0  0  0  0  0  0  0  0  # atno 11005 bound_to 11000
  145.8874  139.2356  143.1570 LP  0  0  0  0  0  0  0  0  0  0  0  0  # atno 17320 bound_to 7965
  145.9937  140.8581  143.0054 LP  0  0  0  0  0  0  0  0  0  0  0  0  # atno 17321 bound_to 7965
  140.4567  143.2465  151.9275 LP  0  0  0  0  0  0  0  0  0  0  0  0  # atno 17342 bound_to 10162
  139.4782  144.5509  151.8388 LP  0  0  0  0  0  0  0  0  0  0  0  0  # atno 17343 bound_to 10162
  156.6388  130.4452  149.5760 LP  0  0  0  0  0  0  0  0  0  0  0  0  # atno 17370 bound_to 10713
  156.2225  130.6746  151.1383 LP  0  0  0  0  0  0  0  0  0  0  0  0  # atno 17371 bound_to 10713
  140.0066  135.0005  157.0307 LP  0  0  0  0  0  0  0  0  0  0  0  0  # atno 17394 bound_to 11000
  140.4671  134.1425  155.7198 LP  0  0  0  0  0  0  0  0  0  0  0  0  # atno 17395 bound_to 11000

$$$$
