AV-unprocessed.smi:1265|AV-procd|sdf|5315|dock3
  -GOLD-   22720 4443D 1   1.00000     0.00000
 Structure written by MMmdl.
 44 46  0  0  0  0  0  0  0  0  1 V2000
  144.8460  136.0951  153.3813 O   0  0  0  0  0  0  0  0  0  0  0  0
  145.9813  136.1335  152.9082 C   0  0  0  0  0  0  0  0  0  0  0  0
  146.8922  137.0557  153.2503 N   0  0  0  0  0  0  0  0  0  0  0  0
  146.6903  138.1492  154.2008 C   0  0  0  0  0  0  0  0  0  0  0  0
  147.9605  139.0492  154.3633 C   0  0  1  0  0  0  0  0  0  0  0  0
  149.1995  138.2128  154.3147 N   0  0  0  0  0  0  0  0  0  0  0  0
  150.4716  138.9293  154.4885 C   0  0  0  0  0  0  0  0  0  0  0  0
  151.6912  138.0033  154.3407 C   0  0  0  0  0  0  0  0  0  0  0  0
  151.5962  136.9291  155.2661 O   0  0  0  0  0  0  0  0  0  0  0  0
  150.4142  136.1634  155.0773 C   0  0  0  0  0  0  0  0  0  0  0  0
  149.1813  137.0681  155.2360 C   0  0  0  0  0  0  0  0  0  0  0  0
  147.9129  140.1483  153.2623 C   0  0  0  0  0  0  0  0  0  0  0  0
  146.7918  141.1411  153.5880 C   0  0  0  0  0  0  0  0  0  0  0  0
  146.6733  141.2472  155.3891 S   0  0  0  0  0  0  0  0  0  0  0  0
  147.8115  139.8633  155.6743 C   0  0  0  0  0  0  0  0  0  0  0  0
  146.4816  135.2809  151.9963 N   0  0  0  0  0  0  0  0  0  0  0  0
  145.8710  134.1586  151.3698 C   0  0  0  0  0  0  0  0  0  0  0  0
  144.4621  134.1453  151.3008 C   0  0  0  0  0  0  0  0  0  0  0  0
  143.8188  133.0481  150.6945 C   0  0  0  0  0  0  0  0  0  0  0  0
  144.4822  131.9954  150.1730 N   0  0  0  0  0  0  0  0  0  0  0  0
  145.8298  132.0050  150.2446 C   0  0  0  0  0  0  0  0  0  0  0  0
  146.5707  133.0518  150.8295 C   0  0  0  0  0  0  0  0  0  0  0  0
  147.7975  137.0127  152.8057 H   0  0  0  0  0  0  0  0  0  0  0  0
  145.8138  138.7337  153.9229 H   0  0  0  0  0  0  0  0  0  0  0  0
  146.4008  137.7066  155.1528 H   0  0  0  0  0  0  0  0  0  0  0  0
  150.5870  139.7104  153.7411 H   0  0  0  0  0  0  0  0  0  0  0  0
  150.5129  139.4084  155.4659 H   0  0  0  0  0  0  0  0  0  0  0  0
  151.7584  137.6130  153.3241 H   0  0  0  0  0  0  0  0  0  0  0  0
  152.6111  138.5559  154.5315 H   0  0  0  0  0  0  0  0  0  0  0  0
  150.4258  135.6962  154.0914 H   0  0  0  0  0  0  0  0  0  0  0  0
  150.3907  135.3589  155.8126 H   0  0  0  0  0  0  0  0  0  0  0  0
  149.1299  137.4202  156.2668 H   0  0  0  0  0  0  0  0  0  0  0  0
  148.3042  136.4461  155.0732 H   0  0  0  0  0  0  0  0  0  0  0  0
  148.8238  140.7424  153.2581 H   0  0  0  0  0  0  0  0  0  0  0  0
  147.8111  139.7399  152.2571 H   0  0  0  0  0  0  0  0  0  0  0  0
  146.9829  142.1238  153.1562 H   0  0  0  0  0  0  0  0  0  0  0  0
  145.8377  140.7935  153.1916 H   0  0  0  0  0  0  0  0  0  0  0  0
  147.4624  139.2542  156.5087 H   0  0  0  0  0  0  0  0  0  0  0  0
  148.7578  140.3060  155.9803 H   0  0  0  0  0  0  0  0  0  0  0  0
  147.4425  135.4421  151.7324 H   0  0  0  0  0  0  0  0  0  0  0  0
  143.8785  134.9609  151.7026 H   0  0  0  0  0  0  0  0  0  0  0  0
  142.7414  133.0157  150.6277 H   0  0  0  0  0  0  0  0  0  0  0  0
  146.3358  131.1485  149.8242 H   0  0  0  0  0  0  0  0  0  0  0  0
  147.6457  132.9724  150.8516 H   0  0  0  0  0  0  0  0  0  0  0  0
  1  2  2  0  0  0  0
  2  3  1  0  0  0  0
  2 16  1  0  0  0  0
  3  4  1  0  0  0  0
  3 23  1  0  0  0  0
  4  5  1  0  0  0  0
  4 24  1  0  0  0  0
  4 25  1  0  0  0  0
  5 15  1  0  0  0  0
  5  6  1  0  0  0  0
  5 12  1  0  0  0  0
  6 11  1  0  0  0  0
  6  7  1  0  0  0  0
  7  8  1  0  0  0  0
  7 26  1  0  0  0  0
  7 27  1  0  0  0  0
  8  9  1  0  0  0  0
  8 28  1  0  0  0  0
  8 29  1  0  0  0  0
  9 10  1  0  0  0  0
 10 11  1  0  0  0  0
 10 30  1  0  0  0  0
 10 31  1  0  0  0  0
 11 32  1  0  0  0  0
 11 33  1  0  0  0  0
 12 13  1  0  0  0  0
 12 34  1  0  0  0  0
 12 35  1  0  0  0  0
 13 14  1  0  0  0  0
 13 36  1  0  0  0  0
 13 37  1  0  0  0  0
 14 15  1  0  0  0  0
 15 38  1  0  0  0  0
 15 39  1  0  0  0  0
 16 17  1  0  0  0  0
 16 40  1  0  0  0  0
 17 22  1  0  0  0  0
 17 18  2  0  0  0  0
 18 19  1  0  0  0  0
 18 41  1  0  0  0  0
 19 20  2  0  0  0  0
 19 42  1  0  0  0  0
 20 21  1  0  0  0  0
 21 22  2  0  0  0  0
 21 43  1  0  0  0  0
 22 44  1  0  0  0  0
M  END
> <s_m_source_file>
AV-unprocessed.smi

> <i_m_source_file_index>
1265

> <i_lp_mmshare_version>
43012

> <i_f3d_flags>
0

> <s_epik_input>
W2NIXTFbY0hdbltjSF1bY0hdYzFbTkhdQyg9TylbTkhdW0NIMl1bQ0BdMihbQ0gyXVtDSDJdU1tDSDJdMilOM1tDSDJdW0NIMl1PW0NIMl1bQ0gyXTM=

> <s_epik_cmdline>
J2VwaWtfcHl0aG9uJywgJy1waCcsICc3LjAnLCAnLXRuJywgJzgnLCAnLW1hJywgJzIwMCcsICctbWV0YWxfYmluZGluZycsICctaW1hZScsICc8aW5maWxlLm1hZT4nLCAnLW9tYWUnLCAnPG91dGZpbGUubWFlPic=

> <r_epik_Ionization_Penalty>
0.131531

> <r_epik_Ionization_Penalty_Charging>
0

> <r_epik_Ionization_Penalty_Neutral>
0.131531

> <r_epik_State_Penalty>
0.114508

> <r_epik_Charging_Adjusted_Penalty>
0.114508

> <i_epik_Tot_Q>
0

> <i_epik_Tot_abs_Q>
0

> <r_epik_Metal_State_Penalty>
0.0964753

> <b_epik_Metal_Only>
0

> <s_lp_Force_Field>
OPLS_2005

> <r_lp_Energy>
59.4994

> <b_lp_Chiralities_Consistent>
1

> <s_lp_Variant>
AV-unprocessed.smi:1265-1

> <Gold.Version>
5.8.1

> <Gold.Id.Protein>
6NUR|6NUR_protein|mol2

> <Gold.PLP.Fitness>
43.8329

> <Gold.PLP.PLP>
-31.0940

> <Gold.PLP.part.hbond>
-3.0000

> <Gold.PLP.part.metal>
0.0000

> <Gold.PLP.part.buried>
-2.9072

> <Gold.PLP.part.nonpolar>
-27.0421

> <Gold.PLP.part.repulsive>
0.5729

> <Gold.PLP.ligand.clash>
0.0000

> <Gold.PLP.ligand.torsion>
0.5409

> <Gold.PLP.Chemscore.Hbond>
3.0000

> <Gold.PLP.Chemscore.CHOScore>
1.5812

> <Gold.PLP.Chemscore.Metal>
0.0000

> <Gold.Chemscore.Hbonds>
donor molecule, donor type, donor heavy atom, donor atom, acceptor molecule, acceptor atom, score
      L1  H     3    23       P1  7948  1.00
      L1  H    16    40       P1  7948  1.00
      P1  H 10752 10763       L1     9  1.00
      L1  C    19    42       P1 10186  1.00
      L1  C    21    43       P1 10747  0.50

> <Gold.PLP.Chemscore.Internal.Correction>
0.0772

> <Gold.Rescore>
     Score         DG    S(hbond)    S(metal)    S(lipo)     H(rot)  DE(clash)    DE(int)     intcor
     16.32     -19.43       2.22        0.00      87.37       1.44       1.39       1.72       ----

> <Gold.Chemscore.Fitness>
16.3233

> <Gold.Chemscore.DG>
-19.4345

> <Gold.Chemscore.ZeroCoef>
-5.4800

> <Gold.Chemscore.Hbond>
2.2248

> <Gold.Chemscore.Metal>
0.0000

> <Gold.Chemscore.Lipo>
87.3650

> <Gold.Chemscore.Internal_Hbond>
0.0000

> <Gold.Chemscore.DEClash>
1.3933

> <Gold.Chemscore.DEInternal>
1.7178

> <Gold.Chemscore.Rot>
1.4445

> <Gold.Chemscore.Internal.Correction>
   9.000000E+99

> <Gold.Chemscore.Hbonds>
donor molecule, donor type, donor heavy atom, donor atom, acceptor molecule, acceptor atom, score
      L1  H     3    23       P1  7948  0.96
      L1  H    16    40       P1  7948  0.96
      P1  H 10752 10763       L1     9  0.16

> <Gold.Chemscore.Hbond.Weighted>
-7.4307

> <Gold.Chemscore.Metal.Weighted>
-0.0000

> <Gold.Chemscore.Lipo.Weighted>
-10.2217

> <Gold.Chemscore.Internal_Hbond.Weighted>
0.0000

> <Gold.Chemscore.DEClash.Weighted>
1.3933

> <Gold.Chemscore.DEInternal.Weighted>
1.7178

> <Gold.Chemscore.Rot.Weighted>
3.6980

> <Gold.Chemscore.Internal.Correction.Weighted>
   9.000000E+99

> <Gold.Protein.RotatedTorsions>
[ 6907 6896 6895 6894 ] final -133.48 input  -60.11 | X-H torsion
[ 7974 7965 7964 7962 ] final   16.28 input  175.53 | X-H torsion
[ 8008 7997 7996 7995 ] final -108.35 input   59.86 | X-H torsion
[ 10167 10162 10161 10158 ] final   45.40 input  -65.29 | X-H torsion
[ 10718 10713 10712 10709 ] final -138.25 input   66.30 | X-H torsion
[ 10763 10752 10751 10750 ] final   71.80 input  -60.55 | X-H torsion
[ 11005 11000 10999 10996 ] final -121.98 input  -57.11 | X-H torsion

> <Gold.Protein.ActiveResidues>
 VAL166  LYS551  ARG553  GLY616  TRP617  ASP618  TYR619  PRO620  LYS621  CYS622 
 ASP623  PHE694  ASN695  SER759  ASP760  ASP761  ALA762  ILE779  LEU786  VAL792 
 PHE793  MET794  SER795  GLU796  ALA797  LYS798  CYS799  TRP800  GLU811  SER814 

> <Gold.Protein.RotatedAtoms>
  150.9745  133.6309  159.2732 H   0  0  0  0  0  0  0  0  0  0  0  0  # atno 6907 bound_to 6896
  151.3586  135.0898  159.9437 H   0  0  0  0  0  0  0  0  0  0  0  0  # atno 6908 bound_to 6896
  152.5194  133.9323  159.7641 H   0  0  0  0  0  0  0  0  0  0  0  0  # atno 6909 bound_to 6896
  146.2254  139.8771  142.8577 H   0  0  0  0  0  0  0  0  0  0  0  0  # atno 7974 bound_to 7965
  154.9429  140.0402  157.2106 H   0  0  0  0  0  0  0  0  0  0  0  0  # atno 8008 bound_to 7997
  154.8051  140.2858  155.5871 H   0  0  0  0  0  0  0  0  0  0  0  0  # atno 8009 bound_to 7997
  156.2966  140.2547  156.2928 H   0  0  0  0  0  0  0  0  0  0  0  0  # atno 8010 bound_to 7997
  140.3245  144.2664  150.6177 H   0  0  0  0  0  0  0  0  0  0  0  0  # atno 10167 bound_to 10162
  156.2973  130.7409  151.1451 H   0  0  0  0  0  0  0  0  0  0  0  0  # atno 10718 bound_to 10713
  153.0420  135.5123  154.7648 H   0  0  0  0  0  0  0  0  0  0  0  0  # atno 10763 bound_to 10752
  154.6578  135.2934  154.9908 H   0  0  0  0  0  0  0  0  0  0  0  0  # atno 10764 bound_to 10752
  154.0770  135.6669  153.4885 H   0  0  0  0  0  0  0  0  0  0  0  0  # atno 10765 bound_to 10752
  141.0030  134.0376  157.3513 H   0  0  0  0  0  0  0  0  0  0  0  0  # atno 11005 bound_to 11000
  145.2549  141.0057  143.3859 LP  0  0  0  0  0  0  0  0  0  0  0  0  # atno 17320 bound_to 7965
  144.9344  139.4260  143.6479 LP  0  0  0  0  0  0  0  0  0  0  0  0  # atno 17321 bound_to 7965
  140.5453  143.2216  151.8017 LP  0  0  0  0  0  0  0  0  0  0  0  0  # atno 17342 bound_to 10162
  139.4868  144.4547  151.9612 LP  0  0  0  0  0  0  0  0  0  0  0  0  # atno 17343 bound_to 10162
  157.7358  131.0568  150.5446 LP  0  0  0  0  0  0  0  0  0  0  0  0  # atno 17370 bound_to 10713
  156.5569  130.4246  149.6081 LP  0  0  0  0  0  0  0  0  0  0  0  0  # atno 17371 bound_to 10713
  139.9048  135.0176  156.7437 LP  0  0  0  0  0  0  0  0  0  0  0  0  # atno 17394 bound_to 11000
  140.6859  133.9433  155.7937 LP  0  0  0  0  0  0  0  0  0  0  0  0  # atno 17395 bound_to 11000

$$$$
