AV-unprocessed.smi:249|AV-procd|sdf|1900|dock9
  -GOLD-   2262020573D 1   1.00000     0.00000
 Structure written by MMmdl.
 64 67  0  0  0  0  0  0  0  0  2 V2000
  150.8864  144.9168  159.8238 C   0  0  0  0  0  0  0  0  0  0  0  0
  150.1245  143.5830  159.7583 C   0  0  0  0  0  0  0  0  0  0  0  0
  150.6480  142.6450  158.7228 N   0  3  2  0  0  0  0  0  0  0  0  0
  149.5819  141.7367  158.2096 C   0  0  0  0  0  0  0  0  0  0  0  0
  150.0892  140.8159  157.0880 C   0  0  0  0  0  0  0  0  0  0  0  0
  151.2845  139.9609  157.5548 C   0  0  2  0  0  0  0  0  0  0  0  0
  150.9335  138.9661  158.5818 N   0  0  0  0  0  0  0  0  0  0  0  0
  152.0307  138.3725  159.3403 C   0  0  0  0  0  0  0  0  0  0  0  0
  150.0726  138.0071  158.1729 C   0  0  0  0  0  0  0  0  0  0  0  0
  149.1837  137.5388  159.0827 N   0  0  0  0  0  0  0  0  0  0  0  0
  148.3062  136.5937  158.7308 C   0  0  0  0  0  0  0  0  0  0  0  0
  148.1546  135.9933  157.5481 N   0  0  0  0  0  0  0  0  0  0  0  0
  149.0523  136.4607  156.6337 C   0  0  0  0  0  0  0  0  0  0  0  0
  150.0390  137.4606  156.8592 C   0  0  0  0  0  0  0  0  0  0  0  0
  150.7707  137.6787  155.6984 N   0  0  0  0  0  0  0  0  0  0  0  0
  150.2490  136.8501  154.8351 C   0  0  0  0  0  0  0  0  0  0  0  0
  149.2084  136.0849  155.3110 N   0  0  0  0  0  0  0  0  0  0  0  0
  148.4572  135.0888  154.5668 C   0  0  0  0  0  0  0  0  0  0  0  0
  149.3576  134.1294  153.7498 C   0  0  2  0  0  0  0  0  0  0  0  0
  148.5588  133.2908  152.7222 C   0  0  0  0  0  0  0  0  0  0  0  0
  147.4611  134.0153  152.2059 O   0  0  0  0  0  0  0  0  0  0  0  0
  150.2366  133.2457  154.6710 C   0  0  2  0  0  0  0  0  0  0  0  0
  149.4652  132.3038  155.5787 C   0  0  0  0  0  0  0  0  0  0  0  0
  150.5086  131.9515  156.6318 C   0  0  0  0  0  0  0  0  0  0  0  0
  151.2959  133.1254  156.7907 O   0  0  0  0  0  0  0  0  0  0  0  0
  151.0618  134.0192  155.7061 C   0  0  0  0  0  0  0  0  0  0  0  0
  152.3644  140.9485  158.0345 C   0  0  0  0  0  0  0  0  0  0  0  0
  151.8655  141.8855  159.1592 C   0  0  1  0  0  0  0  0  0  0  0  0
  153.0309  142.8029  159.5848 C   0  0  0  0  0  0  0  0  0  0  0  0
  150.5732  145.4893  160.6974 H   0  0  0  0  0  0  0  0  0  0  0  0
  150.6986  145.5455  158.9540 H   0  0  0  0  0  0  0  0  0  0  0  0
  151.9616  144.7556  159.9057 H   0  0  0  0  0  0  0  0  0  0  0  0
  150.2163  143.1416  160.7479 H   0  0  0  0  0  0  0  0  0  0  0  0
  149.0609  143.7615  159.5945 H   0  0  0  0  0  0  0  0  0  0  0  0
  149.1801  141.1456  159.0337 H   0  0  0  0  0  0  0  0  0  0  0  0
  148.7516  142.3134  157.8057 H   0  0  0  0  0  0  0  0  0  0  0  0
  149.2746  140.1958  156.7131 H   0  0  0  0  0  0  0  0  0  0  0  0
  150.3968  141.4286  156.2395 H   0  0  0  0  0  0  0  0  0  0  0  0
  151.6798  139.4199  156.6943 H   0  0  0  0  0  0  0  0  0  0  0  0
  151.7240  137.4634  159.8609 H   0  0  0  0  0  0  0  0  0  0  0  0
  152.3873  139.0720  160.0964 H   0  0  0  0  0  0  0  0  0  0  0  0
  152.8651  138.1227  158.6838 H   0  0  0  0  0  0  0  0  0  0  0  0
  147.6289  136.2708  159.5077 H   0  0  0  0  0  0  0  0  0  0  0  0
  150.6091  136.7743  153.8193 H   0  0  0  0  0  0  0  0  0  0  0  0
  147.8566  134.5315  155.2859 H   0  0  0  0  0  0  0  0  0  0  0  0
  147.7526  135.5989  153.9091 H   0  0  0  0  0  0  0  0  0  0  0  0
  150.0359  134.7564  153.1692 H   0  0  0  0  0  0  0  0  0  0  0  0
  149.1929  132.9776  151.8928 H   0  0  0  0  0  0  0  0  0  0  0  0
  148.1866  132.3730  153.1768 H   0  0  0  0  0  0  0  0  0  0  0  0
  147.6123  134.9365  152.3520 H   0  0  0  0  0  0  0  0  0  0  0  0
  150.9174  132.6475  154.0630 H   0  0  0  0  0  0  0  0  0  0  0  0
  148.6245  132.8214  156.0429 H   0  0  0  0  0  0  0  0  0  0  0  0
  149.0836  131.4225  155.0624 H   0  0  0  0  0  0  0  0  0  0  0  0
  150.0626  131.6363  157.5753 H   0  0  0  0  0  0  0  0  0  0  0  0
  151.1523  131.1468  156.2745 H   0  0  0  0  0  0  0  0  0  0  0  0
  152.0020  134.3878  155.2950 H   0  0  0  0  0  0  0  0  0  0  0  0
  150.5032  134.8749  156.0878 H   0  0  0  0  0  0  0  0  0  0  0  0
  153.2568  140.4105  158.3547 H   0  0  0  0  0  0  0  0  0  0  0  0
  152.6876  141.5542  157.1864 H   0  0  0  0  0  0  0  0  0  0  0  0
  151.5894  141.2745  160.0203 H   0  0  0  0  0  0  0  0  0  0  0  0
  153.9423  142.2254  159.7431 H   0  0  0  0  0  0  0  0  0  0  0  0
  152.8363  143.3155  160.5260 H   0  0  0  0  0  0  0  0  0  0  0  0
  153.2480  143.5526  158.8230 H   0  0  0  0  0  0  0  0  0  0  0  0
  150.9397  143.2155  157.9419 H   0  0  0  0  0  0  0  0  0  0  0  0
  1  2  1  0  0  0  0
  1 30  1  0  0  0  0
  1 31  1  0  0  0  0
  1 32  1  0  0  0  0
  2  3  1  0  0  0  0
  2 33  1  0  0  0  0
  2 34  1  0  0  0  0
  3 28  1  0  0  0  0
  3  4  1  0  0  0  0
  3 64  1  0  0  0  0
  4  5  1  0  0  0  0
  4 35  1  0  0  0  0
  4 36  1  0  0  0  0
  5  6  1  0  0  0  0
  5 37  1  0  0  0  0
  5 38  1  0  0  0  0
  6  7  1  0  0  0  0
  6 27  1  0  0  0  0
  6 39  1  0  0  0  0
  7  8  1  0  0  0  0
  7  9  1  0  0  0  0
  8 40  1  0  0  0  0
  8 41  1  0  0  0  0
  8 42  1  0  0  0  0
  9 14  1  0  0  0  0
  9 10  2  0  0  0  0
 10 11  1  0  0  0  0
 11 12  2  0  0  0  0
 11 43  1  0  0  0  0
 12 13  1  0  0  0  0
 13 17  1  0  0  0  0
 13 14  2  0  0  0  0
 14 15  1  0  0  0  0
 15 16  2  0  0  0  0
 16 17  1  0  0  0  0
 16 44  1  0  0  0  0
 17 18  1  0  0  0  0
 18 19  1  0  0  0  0
 18 45  1  0  0  0  0
 18 46  1  0  0  0  0
 19 20  1  0  0  0  0
 19 22  1  0  0  0  0
 19 47  1  0  0  0  0
 20 21  1  0  0  0  0
 20 48  1  0  0  0  0
 20 49  1  0  0  0  0
 21 50  1  0  0  0  0
 22 26  1  0  0  0  0
 22 23  1  0  0  0  0
 22 51  1  0  0  0  0
 23 24  1  0  0  0  0
 23 52  1  0  0  0  0
 23 53  1  0  0  0  0
 24 25  1  0  0  0  0
 24 54  1  0  0  0  0
 24 55  1  0  0  0  0
 25 26  1  0  0  0  0
 26 56  1  0  0  0  0
 26 57  1  0  0  0  0
 27 28  1  0  0  0  0
 27 58  1  0  0  0  0
 27 59  1  0  0  0  0
 28 29  1  0  0  0  0
 28 60  1  0  0  0  0
 29 61  1  0  0  0  0
 29 62  1  0  0  0  0
 29 63  1  0  0  0  0
M  CHG  1   3   1
M  END
> <s_m_source_file>
AV-unprocessed.smi

> <i_m_source_file_index>
249

> <i_lp_mmshare_version>
43012

> <i_f3d_flags>
0

> <s_epik_input>
W0NIM11bQ0gyXU4xW0NIMl1bQ0gyXVtDQEhdKFtDSDJdW0NASF0xW0NIM10pTihbQ0gzXSljKG5bY0hdbjIpYyhjMjMpbltjSF1uM1tDSDJdW0NASF0oW0NIMl1bT0hdKVtDQEBIXTRbQ0gyXVtDSDJdT1tDSDJdNA==

> <s_epik_cmdline>
J2VwaWtfcHl0aG9uJywgJy1waCcsICc3LjAnLCAnLXRuJywgJzgnLCAnLW1hJywgJzIwMCcsICctbWV0YWxfYmluZGluZycsICctaW1hZScsICc8aW5maWxlLm1hZT4nLCAnLW9tYWUnLCAnPG91dGZpbGUubWFlPic=

> <r_lp_tautomer_probability>
1

> <r_epik_Ionization_Penalty>
0.00294688

> <r_epik_Ionization_Penalty_Charging>
0.00169971

> <r_epik_Ionization_Penalty_Neutral>
0.00124717

> <r_epik_State_Penalty>
-0

> <r_epik_Charging_Adjusted_Penalty>
0.00169971

> <i_epik_Tot_Q>
1

> <i_epik_Tot_abs_Q>
1

> <r_epik_Metal_State_Penalty>
-0

> <b_epik_Metal_Only>
0

> <s_lp_Force_Field>
OPLS_2005

> <r_lp_Energy>
57.7525

> <b_lp_Chiralities_Consistent>
1

> <s_lp_Variant>
AV-unprocessed.smi:249-3

> <Gold.Version>
5.8.1

> <Gold.Id.Protein>
6NUR|6NUR_protein|mol2

> <Gold.PLP.Fitness>
44.2567

> <Gold.PLP.PLP>
-38.2680

> <Gold.PLP.part.hbond>
-2.0489

> <Gold.PLP.part.metal>
0.0000

> <Gold.PLP.part.buried>
-5.3296

> <Gold.PLP.part.nonpolar>
-29.1057

> <Gold.PLP.part.repulsive>
0.0948

> <Gold.PLP.ligand.clash>
0.0000

> <Gold.PLP.ligand.torsion>
1.5209

> <Gold.PLP.Chemscore.Hbond>
1.9920

> <Gold.PLP.Chemscore.CHOScore>
0.8059

> <Gold.PLP.Chemscore.Metal>
0.0000

> <Gold.Chemscore.Hbonds>
donor molecule, donor type, donor heavy atom, donor atom, acceptor molecule, acceptor atom, score
      L1  H    21    50       P1  7948  0.70
      P1  H  6896  6909       L1    25  0.01
      L1  C    16    44       P1  7948  0.38
      L1  C    16    44       P1  7949  0.61

> <Gold.PLP.Chemscore.Internal.Correction>
0.6368

> <Gold.Rescore>
     Score         DG    S(hbond)    S(metal)    S(lipo)     H(rot)  DE(clash)    DE(int)     intcor
     12.31     -16.07       1.87        0.00     100.65       2.90       0.05       3.71       ----

> <Gold.Chemscore.Fitness>
12.3139

> <Gold.Chemscore.DG>
-16.0727

> <Gold.Chemscore.ZeroCoef>
-5.4800

> <Gold.Chemscore.Hbond>
1.8689

> <Gold.Chemscore.Metal>
0.0000

> <Gold.Chemscore.Lipo>
100.6523

> <Gold.Chemscore.Internal_Hbond>
0.0000

> <Gold.Chemscore.DEClash>
0.0512

> <Gold.Chemscore.DEInternal>
3.7075

> <Gold.Chemscore.Rot>
2.9006

> <Gold.Chemscore.Internal.Correction>
   9.000000E+99

> <Gold.Chemscore.Hbonds>
donor molecule, donor type, donor heavy atom, donor atom, acceptor molecule, acceptor atom, score
      L1  H    21    50       P1  7948  0.66
      P1  H  6896  6909       L1    25  0.02

> <Gold.Chemscore.Hbond.Weighted>
-6.2420

> <Gold.Chemscore.Metal.Weighted>
-0.0000

> <Gold.Chemscore.Lipo.Weighted>
-11.7763

> <Gold.Chemscore.Internal_Hbond.Weighted>
0.0000

> <Gold.Chemscore.DEClash.Weighted>
0.0512

> <Gold.Chemscore.DEInternal.Weighted>
3.7075

> <Gold.Chemscore.Rot.Weighted>
7.4256

> <Gold.Chemscore.Internal.Correction.Weighted>
   9.000000E+99

> <Gold.Protein.RotatedTorsions>
[ 6907 6896 6895 6894 ] final  -32.20 input  -60.11 | X-H torsion
[ 7974 7965 7964 7962 ] final  144.72 input  175.53 | X-H torsion
[ 8008 7997 7996 7995 ] final   16.04 input   59.86 | X-H torsion
[ 10167 10162 10161 10158 ] final  126.03 input  -65.29 | X-H torsion
[ 10718 10713 10712 10709 ] final  -89.61 input   66.30 | X-H torsion
[ 10763 10752 10751 10750 ] final    7.40 input  -60.55 | X-H torsion
[ 11005 11000 10999 10996 ] final  -55.40 input  -57.11 | X-H torsion

> <Gold.Protein.ActiveResidues>
 VAL166  LYS551  ARG553  GLY616  TRP617  ASP618  TYR619  PRO620  LYS621  CYS622 
 ASP623  PHE694  ASN695  SER759  ASP760  ASP761  ALA762  ILE779  LEU786  VAL792 
 PHE793  MET794  SER795  GLU796  ALA797  LYS798  CYS799  TRP800  GLU811  SER814 

> <Gold.Protein.RotatedAtoms>
  151.0820  134.9864  159.8360 H   0  0  0  0  0  0  0  0  0  0  0  0  # atno 6907 bound_to 6896
  152.5420  134.2170  159.8783 H   0  0  0  0  0  0  0  0  0  0  0  0  # atno 6908 bound_to 6896
  151.2201  133.4463  159.2634 H   0  0  0  0  0  0  0  0  0  0  0  0  # atno 6909 bound_to 6896
  144.8812  139.5696  143.5842 H   0  0  0  0  0  0  0  0  0  0  0  0  # atno 7974 bound_to 7965
  154.8713  140.2959  155.5480 H   0  0  0  0  0  0  0  0  0  0  0  0  # atno 8008 bound_to 7997
  156.3021  140.2459  156.3635 H   0  0  0  0  0  0  0  0  0  0  0  0  # atno 8009 bound_to 7997
  154.8814  140.0397  157.1773 H   0  0  0  0  0  0  0  0  0  0  0  0  # atno 8010 bound_to 7997
  139.5653  144.6907  151.3927 H   0  0  0  0  0  0  0  0  0  0  0  0  # atno 10167 bound_to 10162
  155.9985  130.4879  150.5197 H   0  0  0  0  0  0  0  0  0  0  0  0  # atno 10718 bound_to 10713
  153.2367  135.6899  153.7829 H   0  0  0  0  0  0  0  0  0  0  0  0  # atno 10763 bound_to 10752
  153.6973  135.3303  155.3217 H   0  0  0  0  0  0  0  0  0  0  0  0  # atno 10764 bound_to 10752
  154.8338  135.4559  154.1273 H   0  0  0  0  0  0  0  0  0  0  0  0  # atno 10765 bound_to 10752
  141.1072  133.6612  156.4464 H   0  0  0  0  0  0  0  0  0  0  0  0  # atno 11005 bound_to 11000
  146.2995  139.7383  142.9101 LP  0  0  0  0  0  0  0  0  0  0  0  0  # atno 17320 bound_to 7965
  145.3951  141.0378  143.3102 LP  0  0  0  0  0  0  0  0  0  0  0  0  # atno 17321 bound_to 7965
  140.6936  143.7802  150.7293 LP  0  0  0  0  0  0  0  0  0  0  0  0  # atno 17342 bound_to 10162
  140.1292  143.4541  152.2265 LP  0  0  0  0  0  0  0  0  0  0  0  0  # atno 17343 bound_to 10162
  157.3160  131.0673  151.1966 LP  0  0  0  0  0  0  0  0  0  0  0  0  # atno 17370 bound_to 10713
  157.2896  130.6789  149.6107 LP  0  0  0  0  0  0  0  0  0  0  0  0  # atno 17371 bound_to 10713
  140.4871  134.6610  157.5195 LP  0  0  0  0  0  0  0  0  0  0  0  0  # atno 17394 bound_to 11000
  139.9947  134.6929  155.9629 LP  0  0  0  0  0  0  0  0  0  0  0  0  # atno 17395 bound_to 11000

$$$$
