AV-unprocessed.smi:3258|AV-procd|sdf|12469|dock6
  -GOLD-   2272018363D 1   1.00000     0.00000
 Structure written by MMmdl.
 38 39  0  0  0  0  0  0  0  0  1 V2000
  145.1147  135.8613  150.5557 C   0  0  0  0  0  0  0  0  0  0  0  0
  145.0832  135.5845  152.0670 C   0  0  1  0  0  0  0  0  0  0  0  0
  144.8668  134.0873  152.3606 C   0  0  0  0  0  0  0  0  0  0  0  0
  145.0017  133.2660  151.1701 N   0  0  0  0  0  0  0  0  0  0  0  0
  144.0853  133.0693  150.1585 C   0  0  0  0  0  0  0  0  0  0  0  0
  144.6503  132.2104  149.2601 C   0  0  0  0  0  0  0  0  0  0  0  0
  145.9314  131.9353  149.8152 C   0  0  0  0  0  0  0  0  0  0  0  0
  146.1392  132.5689  150.9582 N   0  0  0  0  0  0  0  0  0  0  0  0
  146.3267  136.0427  152.6836 N   0  0  0  0  0  0  0  0  0  0  0  0
  146.5017  136.2828  153.9903 C   0  0  0  0  0  0  0  0  0  0  0  0
  145.6168  136.1671  154.8384 O   0  0  0  0  0  0  0  0  0  0  0  0
  147.7569  136.6686  154.2587 N   0  0  0  0  0  0  0  0  0  0  0  0
  148.2699  137.0182  155.5795 C   0  0  0  0  0  0  0  0  0  0  0  0
  149.7648  137.3861  155.5339 C   0  0  2  0  0  0  0  0  0  0  0  0
  150.0894  138.5124  154.5744 C   0  0  0  0  0  0  0  0  0  0  0  0
  151.5958  138.3500  154.3948 C   0  0  0  0  0  0  0  0  0  0  0  0
  151.8559  136.9562  154.5333 O   0  0  0  0  0  0  0  0  0  0  0  0
  150.6924  136.2872  155.0104 C   0  0  0  0  0  0  0  0  0  0  0  0
  144.1881  135.5404  150.0793 H   0  0  0  0  0  0  0  0  0  0  0  0
  145.9375  135.3329  150.0728 H   0  0  0  0  0  0  0  0  0  0  0  0
  145.2357  136.9254  150.3507 H   0  0  0  0  0  0  0  0  0  0  0  0
  144.2448  136.1369  152.4956 H   0  0  0  0  0  0  0  0  0  0  0  0
  145.6006  133.7398  153.0890 H   0  0  0  0  0  0  0  0  0  0  0  0
  143.8844  133.9184  152.8051 H   0  0  0  0  0  0  0  0  0  0  0  0
  143.1176  133.5492  150.1645 H   0  0  0  0  0  0  0  0  0  0  0  0
  144.2148  131.8351  148.3459 H   0  0  0  0  0  0  0  0  0  0  0  0
  146.7108  131.2981  149.4245 H   0  0  0  0  0  0  0  0  0  0  0  0
  147.1181  136.1641  152.0687 H   0  0  0  0  0  0  0  0  0  0  0  0
  148.4080  136.7287  153.4895 H   0  0  0  0  0  0  0  0  0  0  0  0
  147.6862  137.8271  156.0226 H   0  0  0  0  0  0  0  0  0  0  0  0
  148.1288  136.1525  156.2269 H   0  0  0  0  0  0  0  0  0  0  0  0
  150.0960  137.6789  156.5319 H   0  0  0  0  0  0  0  0  0  0  0  0
  149.5814  138.3593  153.6211 H   0  0  0  0  0  0  0  0  0  0  0  0
  149.8115  139.4954  154.9557 H   0  0  0  0  0  0  0  0  0  0  0  0
  151.9436  138.7278  153.4331 H   0  0  0  0  0  0  0  0  0  0  0  0
  152.1325  138.8816  155.1816 H   0  0  0  0  0  0  0  0  0  0  0  0
  150.9431  135.5515  155.7749 H   0  0  0  0  0  0  0  0  0  0  0  0
  150.2332  135.7604  154.1728 H   0  0  0  0  0  0  0  0  0  0  0  0
  1  2  1  0  0  0  0
  1 19  1  0  0  0  0
  1 20  1  0  0  0  0
  1 21  1  0  0  0  0
  2  3  1  0  0  0  0
  2  9  1  0  0  0  0
  2 22  1  0  0  0  0
  3  4  1  0  0  0  0
  3 23  1  0  0  0  0
  3 24  1  0  0  0  0
  4  8  1  0  0  0  0
  4  5  1  0  0  0  0
  5  6  2  0  0  0  0
  5 25  1  0  0  0  0
  6  7  1  0  0  0  0
  6 26  1  0  0  0  0
  7  8  2  0  0  0  0
  7 27  1  0  0  0  0
  9 10  1  0  0  0  0
  9 28  1  0  0  0  0
 10 11  2  0  0  0  0
 10 12  1  0  0  0  0
 12 13  1  0  0  0  0
 12 29  1  0  0  0  0
 13 14  1  0  0  0  0
 13 30  1  0  0  0  0
 13 31  1  0  0  0  0
 14 18  1  0  0  0  0
 14 15  1  0  0  0  0
 14 32  1  0  0  0  0
 15 16  1  0  0  0  0
 15 33  1  0  0  0  0
 15 34  1  0  0  0  0
 16 17  1  0  0  0  0
 16 35  1  0  0  0  0
 16 36  1  0  0  0  0
 17 18  1  0  0  0  0
 18 37  1  0  0  0  0
 18 38  1  0  0  0  0
M  END
> <s_m_source_file>
AV-unprocessed.smi

> <i_m_source_file_index>
3258

> <i_lp_mmshare_version>
43012

> <i_f3d_flags>
0

> <s_epik_input>
bjFbY0hdW2NIXVtjSF1uMVtDSDJdW0NAQEhdKFtDSDNdKVtOSF1DKD1PKVtOSF1bQ0gyXVtDQEBIXTJbQ0gyXVtDSDJdT1tDSDJdMg==

> <s_epik_cmdline>
J2VwaWtfcHl0aG9uJywgJy1waCcsICc3LjAnLCAnLXRuJywgJzgnLCAnLW1hJywgJzIwMCcsICctbWV0YWxfYmluZGluZycsICctaW1hZScsICc8aW5maWxlLm1hZT4nLCAnLW9tYWUnLCAnPG91dGZpbGUubWFlPic=

> <r_lp_tautomer_probability>
1

> <r_epik_Ionization_Penalty>
6.85079e-05

> <r_epik_Ionization_Penalty_Charging>
0

> <r_epik_Ionization_Penalty_Neutral>
6.85079e-05

> <r_epik_State_Penalty>
-0

> <r_epik_Charging_Adjusted_Penalty>
0

> <i_epik_Tot_Q>
0

> <i_epik_Tot_abs_Q>
0

> <r_epik_Metal_State_Penalty>
-0

> <b_epik_Metal_Only>
0

> <s_lp_Force_Field>
OPLS_2005

> <r_lp_Energy>
17.05

> <b_lp_Chiralities_Consistent>
1

> <s_lp_Variant>
AV-unprocessed.smi:3258-2

> <Gold.Version>
5.8.1

> <Gold.Id.Protein>
6NUR|6NUR_protein|mol2

> <Gold.PLP.Fitness>
42.2597

> <Gold.PLP.PLP>
-29.5974

> <Gold.PLP.part.hbond>
-3.0000

> <Gold.PLP.part.metal>
0.0000

> <Gold.PLP.part.buried>
-3.7349

> <Gold.PLP.part.nonpolar>
-23.5012

> <Gold.PLP.part.repulsive>
0.3399

> <Gold.PLP.ligand.clash>
0.0000

> <Gold.PLP.ligand.torsion>
1.1836

> <Gold.PLP.Chemscore.Hbond>
2.9920

> <Gold.PLP.Chemscore.CHOScore>
2.0000

> <Gold.PLP.Chemscore.Metal>
0.0000

> <Gold.Chemscore.Hbonds>
donor molecule, donor type, donor heavy atom, donor atom, acceptor molecule, acceptor atom, score
      L1  H     9    28       P1  7948  0.99
      L1  H    12    29       P1  7948  1.00
      P1  H 10752 10765       L1    17  1.00
      L1  C     5    25       P1 10186  1.00
      L1  C     7    27       P1 10747  1.00

> <Gold.PLP.Chemscore.Internal.Correction>
0.0534

> <Gold.Rescore>
     Score         DG    S(hbond)    S(metal)    S(lipo)     H(rot)  DE(clash)    DE(int)     intcor
     16.41     -18.61       2.79        0.00      73.62       1.87       0.02       2.18       ----

> <Gold.Chemscore.Fitness>
16.4127

> <Gold.Chemscore.DG>
-18.6115

> <Gold.Chemscore.ZeroCoef>
-5.4800

> <Gold.Chemscore.Hbond>
2.7879

> <Gold.Chemscore.Metal>
0.0000

> <Gold.Chemscore.Lipo>
73.6170

> <Gold.Chemscore.Internal_Hbond>
0.0000

> <Gold.Chemscore.DEClash>
0.0207

> <Gold.Chemscore.DEInternal>
2.1781

> <Gold.Chemscore.Rot>
1.8724

> <Gold.Chemscore.Internal.Correction>
   9.000000E+99

> <Gold.Chemscore.Hbonds>
donor molecule, donor type, donor heavy atom, donor atom, acceptor molecule, acceptor atom, score
      L1  H     9    28       P1  7948  0.94
      L1  H    12    29       P1  7948  0.96
      P1  H 10752 10765       L1    17  0.48

> <Gold.Chemscore.Hbond.Weighted>
-9.3116

> <Gold.Chemscore.Metal.Weighted>
-0.0000

> <Gold.Chemscore.Lipo.Weighted>
-8.6132

> <Gold.Chemscore.Internal_Hbond.Weighted>
0.0000

> <Gold.Chemscore.DEClash.Weighted>
0.0207

> <Gold.Chemscore.DEInternal.Weighted>
2.1781

> <Gold.Chemscore.Rot.Weighted>
4.7933

> <Gold.Chemscore.Internal.Correction.Weighted>
   9.000000E+99

> <Gold.Protein.RotatedTorsions>
[ 6907 6896 6895 6894 ] final  -15.33 input  -60.11 | X-H torsion
[ 7974 7965 7964 7962 ] final   -1.93 input  175.53 | X-H torsion
[ 8008 7997 7996 7995 ] final  -69.93 input   59.86 | X-H torsion
[ 10167 10162 10161 10158 ] final  133.93 input  -65.29 | X-H torsion
[ 10718 10713 10712 10709 ] final   66.54 input   66.30 | X-H torsion
[ 10763 10752 10751 10750 ] final  154.48 input  -60.55 | X-H torsion
[ 11005 11000 10999 10996 ] final  -22.42 input  -57.11 | X-H torsion

> <Gold.Protein.ActiveResidues>
 VAL166  LYS551  ARG553  GLY616  TRP617  ASP618  TYR619  PRO620  LYS621  CYS622 
 ASP623  PHE694  ASN695  SER759  ASP760  ASP761  ALA762  ILE779  LEU786  VAL792 
 PHE793  MET794  SER795  GLU796  ALA797  LYS798  CYS799  TRP800  GLU811  SER814 

> <Gold.Protein.RotatedAtoms>
  151.3256  135.0829  159.9320 H   0  0  0  0  0  0  0  0  0  0  0  0  # atno 6907 bound_to 6896
  152.5247  133.9595  159.7720 H   0  0  0  0  0  0  0  0  0  0  0  0  # atno 6908 bound_to 6896
  150.9924  133.6084  159.2736 H   0  0  0  0  0  0  0  0  0  0  0  0  # atno 6909 bound_to 6896
  146.2411  140.1494  142.8334 H   0  0  0  0  0  0  0  0  0  0  0  0  # atno 7974 bound_to 7965
  154.4975  140.0844  156.7727 H   0  0  0  0  0  0  0  0  0  0  0  0  # atno 8008 bound_to 7997
  155.4083  140.3440  155.4243 H   0  0  0  0  0  0  0  0  0  0  0  0  # atno 8009 bound_to 7997
  156.1412  140.1530  156.8905 H   0  0  0  0  0  0  0  0  0  0  0  0  # atno 8010 bound_to 7997
  139.5277  144.6592  151.5066 H   0  0  0  0  0  0  0  0  0  0  0  0  # atno 10167 bound_to 10162
  157.6175  130.9273  150.0122 H   0  0  0  0  0  0  0  0  0  0  0  0  # atno 10718 bound_to 10713
  154.1531  135.2814  155.3130 H   0  0  0  0  0  0  0  0  0  0  0  0  # atno 10763 bound_to 10752
  154.6203  135.5469  153.7571 H   0  0  0  0  0  0  0  0  0  0  0  0  # atno 10764 bound_to 10752
  153.0215  135.6437  154.1674 H   0  0  0  0  0  0  0  0  0  0  0  0  # atno 10765 bound_to 10752
  140.8655  133.7758  156.0124 H   0  0  0  0  0  0  0  0  0  0  0  0  # atno 11005 bound_to 11000
  145.0180  140.8770  143.5184 LP  0  0  0  0  0  0  0  0  0  0  0  0  # atno 17320 bound_to 7965
  145.1538  139.2498  143.5427 LP  0  0  0  0  0  0  0  0  0  0  0  0  # atno 17321 bound_to 7965
  140.6432  143.8847  150.6712 LP  0  0  0  0  0  0  0  0  0  0  0  0  # atno 17342 bound_to 10162
  140.2188  143.3825  152.1660 LP  0  0  0  0  0  0  0  0  0  0  0  0  # atno 17343 bound_to 10162
  156.1304  130.3643  149.9741 LP  0  0  0  0  0  0  0  0  0  0  0  0  # atno 17370 bound_to 10713
  156.7803  130.9219  151.3646 LP  0  0  0  0  0  0  0  0  0  0  0  0  # atno 17371 bound_to 10713
  140.8634  134.2813  157.5224 LP  0  0  0  0  0  0  0  0  0  0  0  0  # atno 17394 bound_to 11000
  139.8709  134.9530  156.4132 LP  0  0  0  0  0  0  0  0  0  0  0  0  # atno 17395 bound_to 11000

$$$$
