AV-unprocessed.smi:1809|AV-procd|sdf|7313|dock2
  -GOLD-   22720 8573D 1   1.00000     0.00000
 Structure written by MMmdl.
 40 42  0  0  0  0  0  0  0  0  2 V2000
  136.0186  141.3090  153.2790 C   0  0  0  0  0  0  0  0  0  0  0  0
  137.4837  141.0706  153.4134 C   0  0  0  0  0  0  0  0  0  0  0  0
  138.3296  142.0049  153.8644 N   0  0  0  0  0  0  0  0  0  0  0  0
  139.6410  141.5524  153.9038 N   0  0  0  0  0  0  0  0  0  0  0  0
  139.7456  140.2853  153.4804 C   0  0  0  0  0  0  0  0  0  0  0  0
  140.9720  139.5716  153.4230 N   0  0  0  0  0  0  0  0  0  0  0  0
  141.1772  138.2547  153.5999 C   0  0  0  0  0  0  0  0  0  0  0  0
  140.3071  137.4287  153.8768 O   0  0  0  0  0  0  0  0  0  0  0  0
  142.4687  137.9360  153.4310 N   0  0  0  0  0  0  0  0  0  0  0  0
  143.0328  136.5968  153.5760 C   0  0  0  0  0  0  0  0  0  0  0  0
  143.3838  135.9501  152.2222 C   0  0  2  0  0  0  0  0  0  0  0  0
  143.0740  134.4419  152.1577 C   0  0  0  0  0  0  0  0  0  0  0  0
  143.5105  133.8429  150.8712 N   0  3  2  0  0  0  0  0  0  0  0  0
  143.5074  132.3641  150.9144 C   0  0  0  0  0  0  0  0  0  0  0  0
  144.9498  131.9308  151.2339 C   0  0  0  0  0  0  0  0  0  0  0  0
  145.7831  133.2182  151.2215 C   0  0  0  0  0  0  0  0  0  0  0  0
  144.8886  134.2204  150.4915 C   0  0  2  0  0  0  0  0  0  0  0  0
  145.1998  135.7098  150.7366 C   0  0  0  0  0  0  0  0  0  0  0  0
  144.7835  136.1130  152.0328 O   0  0  0  0  0  0  0  0  0  0  0  0
  138.2339  139.5337  152.9994 S   0  0  0  0  0  0  0  0  0  0  0  0
  135.8240  142.3535  153.0340 H   0  0  0  0  0  0  0  0  0  0  0  0
  135.5154  141.0677  154.2153 H   0  0  0  0  0  0  0  0  0  0  0  0
  135.6057  140.6834  152.4874 H   0  0  0  0  0  0  0  0  0  0  0  0
  141.7874  140.1304  153.2188 H   0  0  0  0  0  0  0  0  0  0  0  0
  143.1155  138.6779  153.2057 H   0  0  0  0  0  0  0  0  0  0  0  0
  143.9396  136.6924  154.1741 H   0  0  0  0  0  0  0  0  0  0  0  0
  142.3636  135.9504  154.1467 H   0  0  0  0  0  0  0  0  0  0  0  0
  142.8456  136.4771  151.4319 H   0  0  0  0  0  0  0  0  0  0  0  0
  143.5692  133.9370  152.9891 H   0  0  0  0  0  0  0  0  0  0  0  0
  142.0049  134.2615  152.2694 H   0  0  0  0  0  0  0  0  0  0  0  0
  142.7822  131.9665  151.6264 H   0  0  0  0  0  0  0  0  0  0  0  0
  143.2255  131.9948  149.9276 H   0  0  0  0  0  0  0  0  0  0  0  0
  145.0147  131.4363  152.2038 H   0  0  0  0  0  0  0  0  0  0  0  0
  145.3078  131.2268  150.4816 H   0  0  0  0  0  0  0  0  0  0  0  0
  145.9660  133.5500  152.2447 H   0  0  0  0  0  0  0  0  0  0  0  0
  146.7512  133.0891  150.7362 H   0  0  0  0  0  0  0  0  0  0  0  0
  144.9895  134.0261  149.4222 H   0  0  0  0  0  0  0  0  0  0  0  0
  146.2688  135.8953  150.6293 H   0  0  0  0  0  0  0  0  0  0  0  0
  144.7007  136.3286  149.9891 H   0  0  0  0  0  0  0  0  0  0  0  0
  142.8735  134.1632  150.1557 H   0  0  0  0  0  0  0  0  0  0  0  0
  1  2  1  0  0  0  0
  1 21  1  0  0  0  0
  1 22  1  0  0  0  0
  1 23  1  0  0  0  0
  2 20  1  0  0  0  0
  2  3  2  0  0  0  0
  3  4  1  0  0  0  0
  4  5  2  0  0  0  0
  5  6  1  0  0  0  0
  5 20  1  0  0  0  0
  6  7  1  0  0  0  0
  6 24  1  0  0  0  0
  7  8  2  0  0  0  0
  7  9  1  0  0  0  0
  9 10  1  0  0  0  0
  9 25  1  0  0  0  0
 10 11  1  0  0  0  0
 10 26  1  0  0  0  0
 10 27  1  0  0  0  0
 11 19  1  0  0  0  0
 11 12  1  0  0  0  0
 11 28  1  0  0  0  0
 12 13  1  0  0  0  0
 12 29  1  0  0  0  0
 12 30  1  0  0  0  0
 13 17  1  0  0  0  0
 13 14  1  0  0  0  0
 13 40  1  0  0  0  0
 14 15  1  0  0  0  0
 14 31  1  0  0  0  0
 14 32  1  0  0  0  0
 15 16  1  0  0  0  0
 15 33  1  0  0  0  0
 15 34  1  0  0  0  0
 16 17  1  0  0  0  0
 16 35  1  0  0  0  0
 16 36  1  0  0  0  0
 17 18  1  0  0  0  0
 17 37  1  0  0  0  0
 18 19  1  0  0  0  0
 18 38  1  0  0  0  0
 18 39  1  0  0  0  0
M  CHG  1  13   1
M  END
> <s_m_source_file>
AV-unprocessed.smi

> <i_m_source_file_index>
1809

> <i_lp_mmshare_version>
43012

> <i_f3d_flags>
0

> <s_epik_input>
W0NIM11jMW5uYyhzMSlbTkhdQyg9TylbTkhdW0NIMl1bQ0BIXShbQ0gyXTIpT1tDSDJdW0NAQEhdKE4yMylbQ0gyXVtDSDJdW0NIMl0z

> <s_epik_cmdline>
J2VwaWtfcHl0aG9uJywgJy1waCcsICc3LjAnLCAnLXRuJywgJzgnLCAnLW1hJywgJzIwMCcsICctbWV0YWxfYmluZGluZycsICctaW1hZScsICc8aW5maWxlLm1hZT4nLCAnLW9tYWUnLCAnPG91dGZpbGUubWFlPic=

> <r_lp_tautomer_probability>
1

> <r_epik_Ionization_Penalty>
0.112474

> <r_epik_Ionization_Penalty_Charging>
0.108916

> <r_epik_Ionization_Penalty_Neutral>
0.00355844

> <r_epik_State_Penalty>
0.0565397

> <r_epik_Charging_Adjusted_Penalty>
0.165456

> <i_epik_Tot_Q>
1

> <i_epik_Tot_abs_Q>
1

> <r_epik_Metal_State_Penalty>
0.422831

> <b_epik_Metal_Only>
0

> <s_lp_Force_Field>
OPLS_2005

> <r_lp_Energy>
35.4297

> <b_lp_Chiralities_Consistent>
1

> <s_lp_Variant>
AV-unprocessed.smi:1809-5

> <Gold.Version>
5.8.1

> <Gold.Id.Protein>
6NUR|6NUR_protein|mol2

> <Gold.PLP.Fitness>
44.6981

> <Gold.PLP.PLP>
-34.3989

> <Gold.PLP.part.hbond>
-4.0000

> <Gold.PLP.part.metal>
0.0000

> <Gold.PLP.part.buried>
-3.7290

> <Gold.PLP.part.nonpolar>
-27.2324

> <Gold.PLP.part.repulsive>
0.5460

> <Gold.PLP.ligand.clash>
0.0000

> <Gold.PLP.ligand.torsion>
0.8408

> <Gold.PLP.Chemscore.Hbond>
3.9920

> <Gold.PLP.Chemscore.CHOScore>
0.0000

> <Gold.PLP.Chemscore.Metal>
0.0000

> <Gold.Chemscore.Hbonds>
donor molecule, donor type, donor heavy atom, donor atom, acceptor molecule, acceptor atom, score
      L1  H     6    24       P1 10175  0.90
      L1  H     9    25       P1 10175  1.00
      L1  H    13    40       P1 10186  1.95

> <Gold.PLP.Chemscore.Internal.Correction>
0.0048

> <Gold.Rescore>
     Score         DG    S(hbond)    S(metal)    S(lipo)     H(rot)  DE(clash)    DE(int)     intcor
     16.70     -18.33       2.48        0.00      68.23       1.34       0.03       1.60       ----

> <Gold.Chemscore.Fitness>
16.6974

> <Gold.Chemscore.DG>
-18.3281

> <Gold.Chemscore.ZeroCoef>
-5.4800

> <Gold.Chemscore.Hbond>
2.4831

> <Gold.Chemscore.Metal>
0.0000

> <Gold.Chemscore.Lipo>
68.2286

> <Gold.Chemscore.Internal_Hbond>
0.0000

> <Gold.Chemscore.DEClash>
0.0319

> <Gold.Chemscore.DEInternal>
1.5988

> <Gold.Chemscore.Rot>
1.3391

> <Gold.Chemscore.Internal.Correction>
   9.000000E+99

> <Gold.Chemscore.Hbonds>
donor molecule, donor type, donor heavy atom, donor atom, acceptor molecule, acceptor atom, score
      L1  H     6    24       P1 10175  0.17
      L1  H     9    25       P1 10175  0.96
      L1  H    13    40       P1 10186  0.87

> <Gold.Chemscore.Hbond.Weighted>
-8.2934

> <Gold.Chemscore.Metal.Weighted>
-0.0000

> <Gold.Chemscore.Lipo.Weighted>
-7.9827

> <Gold.Chemscore.Internal_Hbond.Weighted>
0.0000

> <Gold.Chemscore.DEClash.Weighted>
0.0319

> <Gold.Chemscore.DEInternal.Weighted>
1.5988

> <Gold.Chemscore.Rot.Weighted>
3.4281

> <Gold.Chemscore.Internal.Correction.Weighted>
   9.000000E+99

> <Gold.Protein.RotatedTorsions>
[ 6907 6896 6895 6894 ] final   71.97 input  -60.11 | X-H torsion
[ 7974 7965 7964 7962 ] final -136.91 input  175.53 | X-H torsion
[ 8008 7997 7996 7995 ] final -125.50 input   59.86 | X-H torsion
[ 10167 10162 10161 10158 ] final  -96.17 input  -65.29 | X-H torsion
[ 10718 10713 10712 10709 ] final   25.02 input   66.30 | X-H torsion
[ 10763 10752 10751 10750 ] final   82.15 input  -60.55 | X-H torsion
[ 11005 11000 10999 10996 ] final   84.66 input  -57.11 | X-H torsion

> <Gold.Protein.ActiveResidues>
 VAL166  LYS551  ARG553  GLY616  TRP617  ASP618  TYR619  PRO620  LYS621  CYS622 
 ASP623  PHE694  ASN695  SER759  ASP760  ASP761  ALA762  ILE779  LEU786  VAL792 
 PHE793  MET794  SER795  GLU796  ALA797  LYS798  CYS799  TRP800  GLU811  SER814 

> <Gold.Protein.RotatedAtoms>
  152.4841  134.4641  159.9614 H   0  0  0  0  0  0  0  0  0  0  0  0  # atno 6907 bound_to 6896
  151.4641  133.3579  159.2821 H   0  0  0  0  0  0  0  0  0  0  0  0  # atno 6908 bound_to 6896
  150.8937  134.8368  159.7372 H   0  0  0  0  0  0  0  0  0  0  0  0  # atno 6909 bound_to 6896
  144.8887  140.6611  143.5159 H   0  0  0  0  0  0  0  0  0  0  0  0  # atno 7974 bound_to 7965
  155.2143  140.0420  157.2938 H   0  0  0  0  0  0  0  0  0  0  0  0  # atno 8008 bound_to 7997
  154.5991  140.2447  155.7788 H   0  0  0  0  0  0  0  0  0  0  0  0  # atno 8009 bound_to 7997
  156.2309  140.2938  156.0196 H   0  0  0  0  0  0  0  0  0  0  0  0  # atno 8010 bound_to 7997
  140.2966  143.3188  152.0292 H   0  0  0  0  0  0  0  0  0  0  0  0  # atno 10167 bound_to 10162
  157.1877  130.6832  149.6138 H   0  0  0  0  0  0  0  0  0  0  0  0  # atno 10718 bound_to 10713
  153.1178  135.4739  154.9145 H   0  0  0  0  0  0  0  0  0  0  0  0  # atno 10763 bound_to 10752
  154.7546  135.3115  154.8497 H   0  0  0  0  0  0  0  0  0  0  0  0  # atno 10764 bound_to 10752
  153.9069  135.6869  153.4806 H   0  0  0  0  0  0  0  0  0  0  0  0  # atno 10765 bound_to 10752
  139.8994  134.8232  156.2476 H   0  0  0  0  0  0  0  0  0  0  0  0  # atno 11005 bound_to 11000
  145.3822  139.1634  143.4274 LP  0  0  0  0  0  0  0  0  0  0  0  0  # atno 17320 bound_to 7965
  146.3040  140.3904  142.8694 LP  0  0  0  0  0  0  0  0  0  0  0  0  # atno 17321 bound_to 7965
  139.4925  144.6487  151.6723 LP  0  0  0  0  0  0  0  0  0  0  0  0  # atno 17342 bound_to 10162
  140.5687  144.0145  150.6205 LP  0  0  0  0  0  0  0  0  0  0  0  0  # atno 17343 bound_to 10162
  155.9716  130.4625  150.6148 LP  0  0  0  0  0  0  0  0  0  0  0  0  # atno 17370 bound_to 10713
  157.3891  131.0793  151.1410 LP  0  0  0  0  0  0  0  0  0  0  0  0  # atno 17371 bound_to 10713
  141.0245  133.7023  156.1324 LP  0  0  0  0  0  0  0  0  0  0  0  0  # atno 17394 bound_to 11000
  140.7186  134.4383  157.5576 LP  0  0  0  0  0  0  0  0  0  0  0  0  # atno 17395 bound_to 11000

$$$$
