AV-unprocessed.smi:2366|AV-procd|sdf|9423|dock1
  -GOLD-   2272013 63D 1   1.00000     0.00000
 Structure written by MMmdl.
 31 32  0  0  0  0  0  0  0  0  1 V2000
  150.8714  140.6906  156.2265 O   0  0  0  0  0  0  0  0  0  0  0  0
  150.3386  141.7816  156.0192 C   0  0  0  0  0  0  0  0  0  0  0  0
  150.5352  142.8938  156.7497 N   0  0  0  0  0  0  0  0  0  0  0  0
  151.3720  143.0608  157.8852 C   0  0  0  0  0  0  0  0  0  0  0  0
  151.3899  144.3624  158.4331 C   0  0  0  0  0  0  0  0  0  0  0  0
  152.1886  144.6262  159.5620 C   0  0  0  0  0  0  0  0  0  0  0  0
  152.9495  143.5809  160.1149 C   0  0  0  0  0  0  0  0  0  0  0  0
  152.8823  142.3102  159.5133 C   0  0  0  0  0  0  0  0  0  0  0  0
  153.6279  141.2814  160.0516 O   0  0  0  0  0  0  0  0  0  0  0  0
  154.1943  141.4598  161.3468 C   0  0  0  0  0  0  0  0  0  0  0  0
  155.1411  140.2913  161.6378 C   0  0  0  0  0  0  0  0  0  0  0  0
  155.4733  140.2821  162.9281 F   0  0  0  0  0  0  0  0  0  0  0  0
  154.5605  139.1324  161.3277 F   0  0  0  0  0  0  0  0  0  0  0  0
  152.1116  142.0617  158.4261 N   0  0  0  0  0  0  0  0  0  0  0  0
  149.4751  142.0068  155.0188 N   0  0  0  0  0  0  0  0  0  0  0  0
  149.0445  141.0384  154.0625 C   0  0  0  0  0  0  0  0  0  0  0  0
  147.5705  140.9929  153.7216 C   0  0  0  0  0  0  0  0  0  0  0  0
  148.1783  139.9003  154.5575 C   0  0  0  0  0  0  0  0  0  0  0  0
  150.0259  143.7158  156.4614 H   0  0  0  0  0  0  0  0  0  0  0  0
  150.7986  145.1543  157.9964 H   0  0  0  0  0  0  0  0  0  0  0  0
  152.2168  145.6145  159.9964 H   0  0  0  0  0  0  0  0  0  0  0  0
  153.5722  143.7500  160.9810 H   0  0  0  0  0  0  0  0  0  0  0  0
  154.7564  142.3948  161.3749 H   0  0  0  0  0  0  0  0  0  0  0  0
  153.4169  141.5117  162.1112 H   0  0  0  0  0  0  0  0  0  0  0  0
  156.0654  140.3690  161.0649 H   0  0  0  0  0  0  0  0  0  0  0  0
  149.0885  142.9345  154.9268 H   0  0  0  0  0  0  0  0  0  0  0  0
  149.7309  140.7959  153.2522 H   0  0  0  0  0  0  0  0  0  0  0  0
  146.9088  141.6974  154.2219 H   0  0  0  0  0  0  0  0  0  0  0  0
  147.3008  140.7499  152.6957 H   0  0  0  0  0  0  0  0  0  0  0  0
  148.3147  138.9270  154.0903 H   0  0  0  0  0  0  0  0  0  0  0  0
  147.9228  139.8768  155.6153 H   0  0  0  0  0  0  0  0  0  0  0  0
  1  2  2  0  0  0  0
  2  3  1  0  0  0  0
  2 15  1  0  0  0  0
  3  4  1  0  0  0  0
  3 19  1  0  0  0  0
  4 14  1  0  0  0  0
  4  5  2  0  0  0  0
  5  6  1  0  0  0  0
  5 20  1  0  0  0  0
  6  7  2  0  0  0  0
  6 21  1  0  0  0  0
  7  8  1  0  0  0  0
  7 22  1  0  0  0  0
  8  9  1  0  0  0  0
  8 14  2  0  0  0  0
  9 10  1  0  0  0  0
 10 11  1  0  0  0  0
 10 23  1  0  0  0  0
 10 24  1  0  0  0  0
 11 12  1  0  0  0  0
 11 13  1  0  0  0  0
 11 25  1  0  0  0  0
 15 16  1  0  0  0  0
 15 26  1  0  0  0  0
 16 18  1  0  0  0  0
 16 17  1  0  0  0  0
 16 27  1  0  0  0  0
 17 18  1  0  0  0  0
 17 28  1  0  0  0  0
 17 29  1  0  0  0  0
 18 30  1  0  0  0  0
 18 31  1  0  0  0  0
M  END
> <s_m_source_file>
AV-unprocessed.smi

> <i_m_source_file_index>
2366

> <i_lp_mmshare_version>
43012

> <i_f3d_flags>
0

> <s_epik_input>
W0NIMl0xW0NIMl1bQ0hdMVtOSF1DKD1PKVtOSF1jMltjSF1bY0hdW2NIXWMobjIpT1tDSDJdW0NIXShGKUY=

> <s_epik_cmdline>
J2VwaWtfcHl0aG9uJywgJy1waCcsICc3LjAnLCAnLXRuJywgJzgnLCAnLW1hJywgJzIwMCcsICctbWV0YWxfYmluZGluZycsICctaW1hZScsICc8aW5maWxlLm1hZT4nLCAnLW9tYWUnLCAnPG91dGZpbGUubWFlPic=

> <r_lp_tautomer_probability>
1

> <r_epik_Ionization_Penalty>
4.14306e-05

> <r_epik_Ionization_Penalty_Charging>
0

> <r_epik_Ionization_Penalty_Neutral>
4.14306e-05

> <r_epik_State_Penalty>
-0

> <r_epik_Charging_Adjusted_Penalty>
0

> <i_epik_Tot_Q>
0

> <i_epik_Tot_abs_Q>
0

> <r_epik_Metal_State_Penalty>
-0

> <b_epik_Metal_Only>
0

> <s_lp_Force_Field>
OPLS_2005

> <r_lp_Energy>
17.3665

> <b_lp_Chiralities_Consistent>
1

> <s_lp_Variant>
AV-unprocessed.smi:2366-1

> <Gold.Version>
5.8.1

> <Gold.Id.Protein>
6NUR|6NUR_protein|mol2

> <Gold.PLP.Fitness>
45.6993

> <Gold.PLP.PLP>
-40.5006

> <Gold.PLP.part.hbond>
-2.0000

> <Gold.PLP.part.metal>
0.0000

> <Gold.PLP.part.buried>
-4.8515

> <Gold.PLP.part.nonpolar>
-34.3690

> <Gold.PLP.part.repulsive>
0.2847

> <Gold.PLP.ligand.clash>
0.0000

> <Gold.PLP.ligand.torsion>
0.3956

> <Gold.PLP.Chemscore.Hbond>
1.9760

> <Gold.PLP.Chemscore.CHOScore>
0.0000

> <Gold.PLP.Chemscore.Metal>
0.0000

> <Gold.Chemscore.Hbonds>
donor molecule, donor type, donor heavy atom, donor atom, acceptor molecule, acceptor atom, score
      L1  H     3    19       P1  8028  1.00
      L1  H    15    26       P1  8028  0.99

> <Gold.PLP.Chemscore.Internal.Correction>
0.0619

> <Gold.Rescore>
     Score         DG    S(hbond)    S(metal)    S(lipo)     H(rot)  DE(clash)    DE(int)     intcor
     15.00     -16.50       1.95        0.00      74.80       1.66       0.00       1.50       ----

> <Gold.Chemscore.Fitness>
14.9950

> <Gold.Chemscore.DG>
-16.4977

> <Gold.Chemscore.ZeroCoef>
-5.4800

> <Gold.Chemscore.Hbond>
1.9534

> <Gold.Chemscore.Metal>
0.0000

> <Gold.Chemscore.Lipo>
74.8030

> <Gold.Chemscore.Internal_Hbond>
0.0000

> <Gold.Chemscore.DEClash>
0.0019

> <Gold.Chemscore.DEInternal>
1.5008

> <Gold.Chemscore.Rot>
1.6635

> <Gold.Chemscore.Internal.Correction>
   9.000000E+99

> <Gold.Chemscore.Hbonds>
donor molecule, donor type, donor heavy atom, donor atom, acceptor molecule, acceptor atom, score
      L1  H     3    19       P1  8028  1.00
      L1  H    15    26       P1  8028  0.94

> <Gold.Chemscore.Hbond.Weighted>
-6.5243

> <Gold.Chemscore.Metal.Weighted>
-0.0000

> <Gold.Chemscore.Lipo.Weighted>
-8.7520

> <Gold.Chemscore.Internal_Hbond.Weighted>
0.0000

> <Gold.Chemscore.DEClash.Weighted>
0.0019

> <Gold.Chemscore.DEInternal.Weighted>
1.5008

> <Gold.Chemscore.Rot.Weighted>
4.2585

> <Gold.Chemscore.Internal.Correction.Weighted>
   9.000000E+99

> <Gold.Protein.RotatedTorsions>
[ 6907 6896 6895 6894 ] final  102.66 input  -60.11 | X-H torsion
[ 7974 7965 7964 7962 ] final  -52.68 input  175.53 | X-H torsion
[ 8008 7997 7996 7995 ] final  -84.81 input   59.86 | X-H torsion
[ 10167 10162 10161 10158 ] final  159.07 input  -65.29 | X-H torsion
[ 10718 10713 10712 10709 ] final  114.27 input   66.30 | X-H torsion
[ 10763 10752 10751 10750 ] final  119.54 input  -60.55 | X-H torsion
[ 11005 11000 10999 10996 ] final  140.36 input  -57.11 | X-H torsion

> <Gold.Protein.ActiveResidues>
 VAL166  LYS551  ARG553  GLY616  TRP617  ASP618  TYR619  PRO620  LYS621  CYS622 
 ASP623  PHE694  ASN695  SER759  ASP760  ASP761  ALA762  ILE779  LEU786  VAL792 
 PHE793  MET794  SER795  GLU796  ALA797  LYS798  CYS799  TRP800  GLU811  SER814 

> <Gold.Protein.RotatedAtoms>
  152.5317  133.9942  159.7864 H   0  0  0  0  0  0  0  0  0  0  0  0  # atno 6907 bound_to 6896
  151.0173  133.5902  159.2682 H   0  0  0  0  0  0  0  0  0  0  0  0  # atno 6908 bound_to 6896
  151.2954  135.0760  159.9273 H   0  0  0  0  0  0  0  0  0  0  0  0  # atno 6909 bound_to 6896
  145.9053  140.7961  142.9723 H   0  0  0  0  0  0  0  0  0  0  0  0  # atno 7974 bound_to 7965
  154.6338  140.0600  156.9765 H   0  0  0  0  0  0  0  0  0  0  0  0  # atno 8008 bound_to 7997
  155.1623  140.3283  155.4390 H   0  0  0  0  0  0  0  0  0  0  0  0  # atno 8009 bound_to 7997
  156.2497  140.1928  156.6729 H   0  0  0  0  0  0  0  0  0  0  0  0  # atno 8010 bound_to 7997
  139.4830  144.4765  151.8504 H   0  0  0  0  0  0  0  0  0  0  0  0  # atno 10167 bound_to 10162
  157.6291  131.0996  150.7162 H   0  0  0  0  0  0  0  0  0  0  0  0  # atno 10718 bound_to 10713
  153.5847  135.3477  155.2888 H   0  0  0  0  0  0  0  0  0  0  0  0  # atno 10763 bound_to 10752
  154.8662  135.4190  154.2582 H   0  0  0  0  0  0  0  0  0  0  0  0  # atno 10764 bound_to 10752
  153.3376  135.7048  153.6965 H   0  0  0  0  0  0  0  0  0  0  0  0  # atno 10765 bound_to 10752
  140.0321  134.9346  157.0683 H   0  0  0  0  0  0  0  0  0  0  0  0  # atno 11005 bound_to 11000
  144.6739  140.1740  143.7412 LP  0  0  0  0  0  0  0  0  0  0  0  0  # atno 17320 bound_to 7965
  145.8740  139.2287  143.1644 LP  0  0  0  0  0  0  0  0  0  0  0  0  # atno 17321 bound_to 7965
  140.4237  144.2209  150.5887 LP  0  0  0  0  0  0  0  0  0  0  0  0  # atno 17342 bound_to 10162
  140.4848  143.2367  151.8903 LP  0  0  0  0  0  0  0  0  0  0  0  0  # atno 17343 bound_to 10162
  156.7505  130.4767  149.5458 LP  0  0  0  0  0  0  0  0  0  0  0  0  # atno 17370 bound_to 10713
  156.1481  130.6291  151.0559 LP  0  0  0  0  0  0  0  0  0  0  0  0  # atno 17371 bound_to 10713
  140.4208  134.1883  155.7164 LP  0  0  0  0  0  0  0  0  0  0  0  0  # atno 17394 bound_to 11000
  141.1837  133.8359  157.1166 LP  0  0  0  0  0  0  0  0  0  0  0  0  # atno 17395 bound_to 11000

$$$$
