AV-unprocessed.smi:954|AV-procd|sdf|4258|dock10
  -GOLD-   22720 2163D 1   1.00000     0.00000
 Structure written by MMmdl.
 24 24  0  0  0  0  0  0  0  0  1 V2000
  152.0989  144.3634  159.5058 C   0  0  0  0  0  0  0  0  0  0  0  0
  152.1540  144.5366  157.9823 C   0  0  0  0  0  0  0  0  0  0  0  0
  151.2005  143.6634  157.3073 N   0  0  0  0  0  0  0  0  0  0  0  0
  151.2292  142.3223  157.3335 C   0  0  0  0  0  0  0  0  0  0  0  0
  152.0858  141.6805  157.9443 O   0  0  0  0  0  0  0  0  0  0  0  0
  150.1148  141.6182  156.5485 C   0  0  0  0  0  0  0  0  0  0  0  0
  150.6221  140.6633  155.5761 N   0  0  0  0  0  0  0  0  0  0  0  0
  151.9198  140.2163  155.4109 C   0  0  0  0  0  0  0  0  0  0  0  0
  151.9211  139.3310  154.3704 C   0  0  0  0  0  0  0  0  0  0  0  0
  150.5578  139.3102  153.9705 C   0  0  0  0  0  0  0  0  0  0  0  0
  150.0839  138.5290  152.9200 N   0  0  0  0  0  0  0  0  0  0  0  0
  149.7760  140.0989  154.6846 N   0  0  0  0  0  0  0  0  0  0  0  0
  152.8323  145.0052  159.9943 H   0  0  0  0  0  0  0  0  0  0  0  0
  152.3138  143.3342  159.7944 H   0  0  0  0  0  0  0  0  0  0  0  0
  151.1168  144.6253  159.9008 H   0  0  0  0  0  0  0  0  0  0  0  0
  151.9719  145.5779  157.7113 H   0  0  0  0  0  0  0  0  0  0  0  0
  153.1533  144.2931  157.6212 H   0  0  0  0  0  0  0  0  0  0  0  0
  150.4643  144.1122  156.7815 H   0  0  0  0  0  0  0  0  0  0  0  0
  149.4621  141.0879  157.2428 H   0  0  0  0  0  0  0  0  0  0  0  0
  149.5036  142.3633  156.0366 H   0  0  0  0  0  0  0  0  0  0  0  0
  152.7257  140.5661  156.0392 H   0  0  0  0  0  0  0  0  0  0  0  0
  152.7621  138.7898  153.9630 H   0  0  0  0  0  0  0  0  0  0  0  0
  150.6989  137.9319  152.3862 H   0  0  0  0  0  0  0  0  0  0  0  0
  149.1142  138.5587  152.6399 H   0  0  0  0  0  0  0  0  0  0  0  0
  1  2  1  0  0  0  0
  1 13  1  0  0  0  0
  1 14  1  0  0  0  0
  1 15  1  0  0  0  0
  2  3  1  0  0  0  0
  2 16  1  0  0  0  0
  2 17  1  0  0  0  0
  3  4  1  0  0  0  0
  3 18  1  0  0  0  0
  4  5  2  0  0  0  0
  4  6  1  0  0  0  0
  6  7  1  0  0  0  0
  6 19  1  0  0  0  0
  6 20  1  0  0  0  0
  7 12  1  0  0  0  0
  7  8  1  0  0  0  0
  8  9  2  0  0  0  0
  8 21  1  0  0  0  0
  9 10  1  0  0  0  0
  9 22  1  0  0  0  0
 10 11  1  0  0  0  0
 10 12  2  0  0  0  0
 11 23  1  0  0  0  0
 11 24  1  0  0  0  0
M  END
> <s_m_source_file>
AV-unprocessed.smi

> <i_m_source_file_index>
954

> <i_lp_mmshare_version>
43012

> <i_f3d_flags>
0

> <s_epik_input>
W0NIM11bQ0gyXVtOSF1DKD1PKVtDSDJdbjFbY0hdW2NIXWMobjEpW05IMl0=

> <s_epik_cmdline>
J2VwaWtfcHl0aG9uJywgJy1waCcsICc3LjAnLCAnLXRuJywgJzgnLCAnLW1hJywgJzIwMCcsICctbWV0YWxfYmluZGluZycsICctaW1hZScsICc8aW5maWxlLm1hZT4nLCAnLW9tYWUnLCAnPG91dGZpbGUubWFlPic=

> <r_lp_tautomer_probability>
1

> <r_epik_Ionization_Penalty>
0.000257536

> <r_epik_Ionization_Penalty_Charging>
0

> <r_epik_Ionization_Penalty_Neutral>
0.000257536

> <r_epik_State_Penalty>
-0

> <r_epik_Charging_Adjusted_Penalty>
0

> <i_epik_Tot_Q>
0

> <i_epik_Tot_abs_Q>
0

> <r_epik_Metal_State_Penalty>
-0

> <b_epik_Metal_Only>
0

> <s_lp_Force_Field>
OPLS_2005

> <r_lp_Energy>
1.8316

> <b_lp_Chiralities_Consistent>
1

> <s_lp_Variant>
AV-unprocessed.smi:954-1

> <Gold.Version>
5.8.1

> <Gold.Id.Protein>
6NUR|6NUR_protein|mol2

> <Gold.PLP.Fitness>
35.6502

> <Gold.PLP.PLP>
-30.5638

> <Gold.PLP.part.hbond>
-3.9663

> <Gold.PLP.part.metal>
0.0000

> <Gold.PLP.part.buried>
-2.7694

> <Gold.PLP.part.nonpolar>
-23.8210

> <Gold.PLP.part.repulsive>
0.1697

> <Gold.PLP.ligand.clash>
0.0000

> <Gold.PLP.ligand.torsion>
0.1102

> <Gold.PLP.Chemscore.Hbond>
1.7688

> <Gold.PLP.Chemscore.CHOScore>
0.0000

> <Gold.PLP.Chemscore.Metal>
0.0000

> <Gold.Chemscore.Hbonds>
donor molecule, donor type, donor heavy atom, donor atom, acceptor molecule, acceptor atom, score
      L1  H     3    18       P1  8028  1.00
      L1  H    11    23       P1  7949  0.38

> <Gold.PLP.Chemscore.Internal.Correction>
0.0002

> <Gold.Rescore>
     Score         DG    S(hbond)    S(metal)    S(lipo)     H(rot)  DE(clash)    DE(int)     intcor
     11.37     -12.51       1.72        0.00      49.52       1.77       0.13       1.01       ----

> <Gold.Chemscore.Fitness>
11.3741

> <Gold.Chemscore.DG>
-12.5119

> <Gold.Chemscore.ZeroCoef>
-5.4800

> <Gold.Chemscore.Hbond>
1.7246

> <Gold.Chemscore.Metal>
0.0000

> <Gold.Chemscore.Lipo>
49.5171

> <Gold.Chemscore.Internal_Hbond>
0.0000

> <Gold.Chemscore.DEClash>
0.1271

> <Gold.Chemscore.DEInternal>
1.0107

> <Gold.Chemscore.Rot>
1.7664

> <Gold.Chemscore.Internal.Correction>
   9.000000E+99

> <Gold.Chemscore.Hbonds>
donor molecule, donor type, donor heavy atom, donor atom, acceptor molecule, acceptor atom, score
      L1  H     3    18       P1  8028  0.95
      L1  H    11    23       P1  7949  0.03

> <Gold.Chemscore.Hbond.Weighted>
-5.7603

> <Gold.Chemscore.Metal.Weighted>
-0.0000

> <Gold.Chemscore.Lipo.Weighted>
-5.7935

> <Gold.Chemscore.Internal_Hbond.Weighted>
0.0000

> <Gold.Chemscore.DEClash.Weighted>
0.1271

> <Gold.Chemscore.DEInternal.Weighted>
1.0107

> <Gold.Chemscore.Rot.Weighted>
4.5219

> <Gold.Chemscore.Internal.Correction.Weighted>
   9.000000E+99

> <Gold.Protein.RotatedTorsions>
[ 6907 6896 6895 6894 ] final  -59.28 input  -60.11 | X-H torsion
[ 7974 7965 7964 7962 ] final   63.78 input  175.53 | X-H torsion
[ 8008 7997 7996 7995 ] final -174.70 input   59.86 | X-H torsion
[ 10167 10162 10161 10158 ] final -146.79 input  -65.29 | X-H torsion
[ 10718 10713 10712 10709 ] final  -61.54 input   66.30 | X-H torsion
[ 10763 10752 10751 10750 ] final -174.44 input  -60.55 | X-H torsion
[ 11005 11000 10999 10996 ] final -144.72 input  -57.11 | X-H torsion

> <Gold.Protein.ActiveResidues>
 VAL166  LYS551  ARG553  GLY616  TRP617  ASP618  TYR619  PRO620  LYS621  CYS622 
 ASP623  PHE694  ASN695  SER759  ASP760  ASP761  ALA762  ILE779  LEU786  VAL792 
 PHE793  MET794  SER795  GLU796  ALA797  LYS798  CYS799  TRP800  GLU811  SER814 

> <Gold.Protein.RotatedAtoms>
  150.7942  134.6989  159.6538 H   0  0  0  0  0  0  0  0  0  0  0  0  # atno 6907 bound_to 6896
  152.4052  134.6216  160.0062 H   0  0  0  0  0  0  0  0  0  0  0  0  # atno 6908 bound_to 6896
  151.6475  133.3286  159.3180 H   0  0  0  0  0  0  0  0  0  0  0  0  # atno 6909 bound_to 6896
  145.8579  139.3296  143.0836 H   0  0  0  0  0  0  0  0  0  0  0  0  # atno 7974 bound_to 7965
  155.9733  140.1167  157.0792 H   0  0  0  0  0  0  0  0  0  0  0  0  # atno 8008 bound_to 7997
  154.4162  140.1159  156.5404 H   0  0  0  0  0  0  0  0  0  0  0  0  # atno 8009 bound_to 7997
  155.6567  140.3473  155.4770 H   0  0  0  0  0  0  0  0  0  0  0  0  # atno 8010 bound_to 7997
  139.7680  143.8279  152.2619 H   0  0  0  0  0  0  0  0  0  0  0  0  # atno 10167 bound_to 10162
  156.0915  130.4199  150.1008 H   0  0  0  0  0  0  0  0  0  0  0  0  # atno 10718 bound_to 10713
  154.5962  135.2850  155.0583 H   0  0  0  0  0  0  0  0  0  0  0  0  # atno 10763 bound_to 10752
  154.1865  135.6448  153.5052 H   0  0  0  0  0  0  0  0  0  0  0  0  # atno 10764 bound_to 10752
  153.0139  135.5436  154.6665 H   0  0  0  0  0  0  0  0  0  0  0  0  # atno 10765 bound_to 10752
  140.7995  134.2873  157.4984 H   0  0  0  0  0  0  0  0  0  0  0  0  # atno 11005 bound_to 11000
  145.9282  140.9067  143.0370 LP  0  0  0  0  0  0  0  0  0  0  0  0  # atno 17320 bound_to 7965
  144.6727  140.1382  143.7439 LP  0  0  0  0  0  0  0  0  0  0  0  0  # atno 17321 bound_to 7965
  139.8305  144.7256  150.9457 LP  0  0  0  0  0  0  0  0  0  0  0  0  # atno 17342 bound_to 10162
  140.7812  143.4075  151.1047 LP  0  0  0  0  0  0  0  0  0  0  0  0  # atno 17343 bound_to 10162
  156.9017  130.9622  151.3575 LP  0  0  0  0  0  0  0  0  0  0  0  0  # atno 17370 bound_to 10713
  157.6065  130.8551  149.8884 LP  0  0  0  0  0  0  0  0  0  0  0  0  # atno 17371 bound_to 10713
  139.8723  134.9421  156.3817 LP  0  0  0  0  0  0  0  0  0  0  0  0  # atno 17394 bound_to 11000
  140.9308  133.7580  156.0023 LP  0  0  0  0  0  0  0  0  0  0  0  0  # atno 17395 bound_to 11000

$$$$
