AV-unprocessed.smi:1831|AV-procd|sdf|7461|dock3
  -GOLD-   22720 9153D 1   1.00000     0.00000
 Structure written by MMmdl.
 40 41  0  0  0  0  0  0  0  0  3 V2000
  151.1510  141.5074  155.8954 C   0  0  0  0  0  0  0  0  0  0  0  0
  151.4776  140.1105  155.4916 C   0  0  0  0  0  0  0  0  0  0  0  0
  152.7118  139.6054  155.5601 N   0  0  0  0  0  0  0  0  0  0  0  0
  152.7619  138.2877  155.1289 N   0  0  0  0  0  0  0  0  0  0  0  0
  151.5675  137.8133  154.7474 C   0  0  0  0  0  0  0  0  0  0  0  0
  151.4016  136.5591  154.2956 N   0  5  0  0  0  0  0  0  0  0  0  0
  150.6724  135.6739  155.0118 C   0  0  0  0  0  0  0  0  0  0  0  0
  150.7737  135.4536  156.2208 O   0  0  0  0  0  0  0  0  0  0  0  0
  149.7702  135.0073  154.2786 N   0  0  0  0  0  0  0  0  0  0  0  0
  148.8280  134.0041  154.7644 C   0  0  0  0  0  0  0  0  0  0  0  0
  148.8109  132.7797  153.8353 C   0  0  1  0  0  0  0  0  0  0  0  0
  148.8327  131.4290  154.5498 C   0  0  0  0  0  0  0  0  0  0  0  0
  148.1798  130.4550  153.5602 C   0  0  0  0  0  0  0  0  0  0  0  0
  147.5305  131.2720  152.5035 N   0  3  1  0  0  0  0  0  0  0  0  0
  146.2066  130.7709  152.0373 C   0  0  0  0  0  0  0  0  0  0  0  0
  146.2680  129.2679  151.7046 C   0  0  0  0  0  0  0  0  0  0  0  0
  145.7016  131.5493  150.8071 C   0  0  0  0  0  0  0  0  0  0  0  0
  147.5536  132.6733  152.9768 C   0  0  0  0  0  0  0  0  0  0  0  0
  150.2672  138.9977  154.8770 S   0  0  0  0  0  0  0  0  0  0  0  0
  151.8799  141.8767  156.6174 H   0  0  0  0  0  0  0  0  0  0  0  0
  150.1613  141.5446  156.3508 H   0  0  0  0  0  0  0  0  0  0  0  0
  151.1606  142.1584  155.0213 H   0  0  0  0  0  0  0  0  0  0  0  0
  149.7360  135.2219  153.2928 H   0  0  0  0  0  0  0  0  0  0  0  0
  149.1247  133.7145  155.7729 H   0  0  0  0  0  0  0  0  0  0  0  0
  147.8176  134.4088  154.8409 H   0  0  0  0  0  0  0  0  0  0  0  0
  149.6738  132.8289  153.1682 H   0  0  0  0  0  0  0  0  0  0  0  0
  149.8402  131.1235  154.8341 H   0  0  0  0  0  0  0  0  0  0  0  0
  148.2339  131.4778  155.4607 H   0  0  0  0  0  0  0  0  0  0  0  0
  148.9217  129.8027  153.0985 H   0  0  0  0  0  0  0  0  0  0  0  0
  147.4627  129.8231  154.0863 H   0  0  0  0  0  0  0  0  0  0  0  0
  145.4868  130.9144  152.8449 H   0  0  0  0  0  0  0  0  0  0  0  0
  145.3029  128.9084  151.3462 H   0  0  0  0  0  0  0  0  0  0  0  0
  146.5269  128.6632  152.5738 H   0  0  0  0  0  0  0  0  0  0  0  0
  147.0044  129.0646  150.9261 H   0  0  0  0  0  0  0  0  0  0  0  0
  144.7560  131.1413  150.4482 H   0  0  0  0  0  0  0  0  0  0  0  0
  146.4153  131.4986  149.9840 H   0  0  0  0  0  0  0  0  0  0  0  0
  145.5232  132.6008  151.0328 H   0  0  0  0  0  0  0  0  0  0  0  0
  146.6672  132.8712  153.5825 H   0  0  0  0  0  0  0  0  0  0  0  0
  147.5656  133.3813  152.1475 H   0  0  0  0  0  0  0  0  0  0  0  0
  148.1543  131.2434  151.7094 H   0  0  0  0  0  0  0  0  0  0  0  0
  1  2  1  0  0  0  0
  1 20  1  0  0  0  0
  1 21  1  0  0  0  0
  1 22  1  0  0  0  0
  2 19  1  0  0  0  0
  2  3  2  0  0  0  0
  3  4  1  0  0  0  0
  4  5  2  0  0  0  0
  5  6  1  0  0  0  0
  5 19  1  0  0  0  0
  6  7  1  0  0  0  0
  7  8  2  0  0  0  0
  7  9  1  0  0  0  0
  9 10  1  0  0  0  0
  9 23  1  0  0  0  0
 10 11  1  0  0  0  0
 10 24  1  0  0  0  0
 10 25  1  0  0  0  0
 11 18  1  0  0  0  0
 11 12  1  0  0  0  0
 11 26  1  0  0  0  0
 12 13  1  0  0  0  0
 12 27  1  0  0  0  0
 12 28  1  0  0  0  0
 13 14  1  0  0  0  0
 13 29  1  0  0  0  0
 13 30  1  0  0  0  0
 14 15  1  0  0  0  0
 14 18  1  0  0  0  0
 14 40  1  0  0  0  0
 15 16  1  0  0  0  0
 15 17  1  0  0  0  0
 15 31  1  0  0  0  0
 16 32  1  0  0  0  0
 16 33  1  0  0  0  0
 16 34  1  0  0  0  0
 17 35  1  0  0  0  0
 17 36  1  0  0  0  0
 17 37  1  0  0  0  0
 18 38  1  0  0  0  0
 18 39  1  0  0  0  0
M  CHG  1   6  -1
M  CHG  1  14   1
M  END
> <s_m_source_file>
AV-unprocessed.smi

> <i_m_source_file_index>
1831

> <i_lp_mmshare_version>
43012

> <i_f3d_flags>
0

> <s_epik_input>
W0NIM11jMW5uYyhzMSlbTkhdQyg9TylbTkhdW0NIMl1bQ0BASF0yW0NIMl1bQ0gyXU4oW0NIMl0yKVtDSF0oW0NIM10pW0NIM10=

> <s_epik_cmdline>
J2VwaWtfcHl0aG9uJywgJy1waCcsICc3LjAnLCAnLXRuJywgJzgnLCAnLW1hJywgJzIwMCcsICctbWV0YWxfYmluZGluZycsICctaW1hZScsICc8aW5maWxlLm1hZT4nLCAnLW9tYWUnLCAnPG91dGZpbGUubWFlPic=

> <r_lp_tautomer_probability>
1

> <r_epik_Ionization_Penalty>
4.24531

> <r_epik_Ionization_Penalty_Charging>
4.11954

> <r_epik_Ionization_Penalty_Neutral>
0.125766

> <r_epik_State_Penalty>
4.11879

> <r_epik_Charging_Adjusted_Penalty>
8.23833

> <i_epik_Tot_Q>
0

> <i_epik_Tot_abs_Q>
2

> <r_epik_Metal_State_Penalty>
0.659341

> <b_epik_Metal_Only>
1

> <s_lp_Force_Field>
OPLS_2005

> <r_lp_Energy>
24.973

> <b_lp_Chiralities_Consistent>
1

> <s_lp_Variant>
AV-unprocessed.smi:1831-6

> <Gold.Version>
5.8.1

> <Gold.Id.Protein>
6NUR|6NUR_protein|mol2

> <Gold.PLP.Fitness>
46.0617

> <Gold.PLP.PLP>
-36.4210

> <Gold.PLP.part.hbond>
-4.0000

> <Gold.PLP.part.metal>
0.0000

> <Gold.PLP.part.buried>
-5.4038

> <Gold.PLP.part.nonpolar>
-28.1994

> <Gold.PLP.part.repulsive>
1.1752

> <Gold.PLP.ligand.clash>
0.0000

> <Gold.PLP.ligand.torsion>
1.8379

> <Gold.PLP.Chemscore.Hbond>
4.4000

> <Gold.PLP.Chemscore.CHOScore>
0.0000

> <Gold.PLP.Chemscore.Metal>
0.0000

> <Gold.Chemscore.Hbonds>
donor molecule, donor type, donor heavy atom, donor atom, acceptor molecule, acceptor atom, score
      L1  H     9    23       P1  7948  0.25
      L1  H    14    40       P1 10747  1.00
      P1  H  7997  8008       L1     3  1.00
      P1  H 10752 10763       L1     6  1.80

> <Gold.PLP.Chemscore.Internal.Correction>
0.1165

> <Gold.Rescore>
     Score         DG    S(hbond)    S(metal)    S(lipo)     H(rot)  DE(clash)    DE(int)     intcor
     17.27     -19.02       2.65        0.00      73.28       1.51       0.08       1.67       ----

> <Gold.Chemscore.Fitness>
17.2724

> <Gold.Chemscore.DG>
-19.0172

> <Gold.Chemscore.ZeroCoef>
-5.4800

> <Gold.Chemscore.Hbond>
2.6459

> <Gold.Chemscore.Metal>
0.0000

> <Gold.Chemscore.Lipo>
73.2767

> <Gold.Chemscore.Internal_Hbond>
0.0000

> <Gold.Chemscore.DEClash>
0.0785

> <Gold.Chemscore.DEInternal>
1.6663

> <Gold.Chemscore.Rot>
1.5131

> <Gold.Chemscore.Internal.Correction>
   9.000000E+99

> <Gold.Chemscore.Hbonds>
donor molecule, donor type, donor heavy atom, donor atom, acceptor molecule, acceptor atom, score
      L1  H    14    40       P1 10747  1.00
      P1  H  7997  8008       L1     3  0.78
      P1  H 10752 10763       L1     6  0.15

> <Gold.Chemscore.Hbond.Weighted>
-8.8374

> <Gold.Chemscore.Metal.Weighted>
-0.0000

> <Gold.Chemscore.Lipo.Weighted>
-8.5734

> <Gold.Chemscore.Internal_Hbond.Weighted>
0.0000

> <Gold.Chemscore.DEClash.Weighted>
0.0785

> <Gold.Chemscore.DEInternal.Weighted>
1.6663

> <Gold.Chemscore.Rot.Weighted>
3.8735

> <Gold.Chemscore.Internal.Correction.Weighted>
   9.000000E+99

> <Gold.Protein.RotatedTorsions>
[ 6907 6896 6895 6894 ] final  -51.25 input  -60.11 | X-H torsion
[ 7974 7965 7964 7962 ] final  -15.22 input  175.53 | X-H torsion
[ 8008 7997 7996 7995 ] final  -33.25 input   59.86 | X-H torsion
[ 10167 10162 10161 10158 ] final   93.94 input  -65.29 | X-H torsion
[ 10718 10713 10712 10709 ] final   83.06 input   66.30 | X-H torsion
[ 10763 10752 10751 10750 ] final   39.78 input  -60.55 | X-H torsion
[ 11005 11000 10999 10996 ] final -169.09 input  -57.11 | X-H torsion

> <Gold.Protein.ActiveResidues>
 VAL166  LYS551  ARG553  GLY616  TRP617  ASP618  TYR619  PRO620  LYS621  CYS622 
 ASP623  PHE694  ASN695  SER759  ASP760  ASP761  ALA762  ILE779  LEU786  VAL792 
 PHE793  MET794  SER795  GLU796  ALA797  LYS798  CYS799  TRP800  GLU811  SER814 

> <Gold.Protein.RotatedAtoms>
  150.8629  134.7985  159.7096 H   0  0  0  0  0  0  0  0  0  0  0  0  # atno 6907 bound_to 6896
  152.4660  134.5071  159.9752 H   0  0  0  0  0  0  0  0  0  0  0  0  # atno 6908 bound_to 6896
  151.5172  133.3435  159.2930 H   0  0  0  0  0  0  0  0  0  0  0  0  # atno 6909 bound_to 6896
  146.2041  140.3461  142.8413 H   0  0  0  0  0  0  0  0  0  0  0  0  # atno 7974 bound_to 7965
  154.4155  140.1716  156.1857 H   0  0  0  0  0  0  0  0  0  0  0  0  # atno 8008 bound_to 7997
  155.9645  140.3391  155.6496 H   0  0  0  0  0  0  0  0  0  0  0  0  # atno 8009 bound_to 7997
  155.6706  140.0711  157.2512 H   0  0  0  0  0  0  0  0  0  0  0  0  # atno 8010 bound_to 7997
  139.8132  144.6764  150.9614 H   0  0  0  0  0  0  0  0  0  0  0  0  # atno 10167 bound_to 10162
  157.6871  131.0074  150.2467 H   0  0  0  0  0  0  0  0  0  0  0  0  # atno 10718 bound_to 10713
  152.9956  135.6211  154.2519 H   0  0  0  0  0  0  0  0  0  0  0  0  # atno 10763 bound_to 10752
  154.2258  135.2794  155.2910 H   0  0  0  0  0  0  0  0  0  0  0  0  # atno 10764 bound_to 10752
  154.5491  135.5738  153.6964 H   0  0  0  0  0  0  0  0  0  0  0  0  # atno 10765 bound_to 10752
  140.5347  134.5581  157.5084 H   0  0  0  0  0  0  0  0  0  0  0  0  # atno 11005 bound_to 11000
  144.8751  140.7325  143.6022 LP  0  0  0  0  0  0  0  0  0  0  0  0  # atno 17320 bound_to 7965
  145.3381  139.1740  143.4500 LP  0  0  0  0  0  0  0  0  0  0  0  0  # atno 17321 bound_to 7965
  140.7817  143.4165  151.0910 LP  0  0  0  0  0  0  0  0  0  0  0  0  # atno 17342 bound_to 10162
  139.7830  143.8328  152.3140 LP  0  0  0  0  0  0  0  0  0  0  0  0  # atno 17343 bound_to 10162
  156.3071  130.3766  149.7696 LP  0  0  0  0  0  0  0  0  0  0  0  0  # atno 17370 bound_to 10713
  156.5308  130.8257  151.3236 LP  0  0  0  0  0  0  0  0  0  0  0  0  # atno 17371 bound_to 10713
  139.9535  134.7575  156.0393 LP  0  0  0  0  0  0  0  0  0  0  0  0  # atno 17394 bound_to 11000
  141.1261  133.6599  156.3341 LP  0  0  0  0  0  0  0  0  0  0  0  0  # atno 17395 bound_to 11000

$$$$
