AV-unprocessed.smi:1835|AV-procd|sdf|7473|dock9
  -GOLD-   22720 9173D 1   1.00000     0.00000
 Structure written by MMmdl.
 41 42  0  0  0  0  0  0  0  0  1 V2000
  151.5597  144.7593  157.8968 C   0  0  0  0  0  0  0  0  0  0  0  0
  151.9090  143.2868  158.2340 C   0  0  2  0  0  0  0  0  0  0  0  0
  150.6054  142.4416  158.2058 C   0  0  0  0  0  0  0  0  0  0  0  0
  149.9571  142.4655  156.8993 N   0  0  0  0  0  0  0  0  0  0  0  0
  150.1277  141.5390  155.9460 C   0  0  0  0  0  0  0  0  0  0  0  0
  150.8683  140.5637  156.0812 O   0  0  0  0  0  0  0  0  0  0  0  0
  149.3486  141.7716  154.6432 C   0  0  0  0  0  0  0  0  0  0  0  0
  147.8880  141.8026  154.8252 N   0  0  0  0  0  0  0  0  0  0  0  0
  147.2145  142.9635  154.3954 C   0  0  0  0  0  0  0  0  0  0  0  0
  145.8845  143.0986  154.5161 C   0  0  0  0  0  0  0  0  0  0  0  0
  145.1392  142.0128  155.1076 C   0  0  0  0  0  0  0  0  0  0  0  0
  145.7727  140.8956  155.5169 C   0  0  0  0  0  0  0  0  0  0  0  0
  147.2261  140.7416  155.3824 C   0  0  0  0  0  0  0  0  0  0  0  0
  147.8119  139.7226  155.7492 O   0  0  0  0  0  0  0  0  0  0  0  0
  152.6704  143.1595  159.4991 N   0  0  0  0  0  0  0  0  0  0  0  0
  153.1171  141.7831  159.7458 C   0  0  0  0  0  0  0  0  0  0  0  0
  153.8858  141.6301  161.0695 C   0  0  0  0  0  0  0  0  0  0  0  0
  153.0751  142.0778  162.1466 O   0  0  0  0  0  0  0  0  0  0  0  0
  152.6856  143.4349  161.9903 C   0  0  0  0  0  0  0  0  0  0  0  0
  151.9093  143.6051  160.6724 C   0  0  0  0  0  0  0  0  0  0  0  0
  150.9569  144.8515  156.9941 H   0  0  0  0  0  0  0  0  0  0  0  0
  152.4465  145.3620  157.7058 H   0  0  0  0  0  0  0  0  0  0  0  0
  151.0031  145.2271  158.7097 H   0  0  0  0  0  0  0  0  0  0  0  0
  152.5410  142.9161  157.4255 H   0  0  0  0  0  0  0  0  0  0  0  0
  150.8080  141.3935  158.4221 H   0  0  0  0  0  0  0  0  0  0  0  0
  149.9076  142.7989  158.9649 H   0  0  0  0  0  0  0  0  0  0  0  0
  149.3339  143.2372  156.7112 H   0  0  0  0  0  0  0  0  0  0  0  0
  149.6909  142.7010  154.1840 H   0  0  0  0  0  0  0  0  0  0  0  0
  149.6248  140.9876  153.9364 H   0  0  0  0  0  0  0  0  0  0  0  0
  147.8436  143.7255  153.9587 H   0  0  0  0  0  0  0  0  0  0  0  0
  145.3852  143.9942  154.1766 H   0  0  0  0  0  0  0  0  0  0  0  0
  144.0686  142.0964  155.2217 H   0  0  0  0  0  0  0  0  0  0  0  0
  145.1983  140.0932  155.9560 H   0  0  0  0  0  0  0  0  0  0  0  0
  152.2579  141.1104  159.7485 H   0  0  0  0  0  0  0  0  0  0  0  0
  153.7804  141.4451  158.9521 H   0  0  0  0  0  0  0  0  0  0  0  0
  154.1499  140.5855  161.2345 H   0  0  0  0  0  0  0  0  0  0  0  0
  154.8182  142.1963  161.0431 H   0  0  0  0  0  0  0  0  0  0  0  0
  152.0620  143.7250  162.8359 H   0  0  0  0  0  0  0  0  0  0  0  0
  153.5665  144.0786  162.0064 H   0  0  0  0  0  0  0  0  0  0  0  0
  151.6602  144.6611  160.5908 H   0  0  0  0  0  0  0  0  0  0  0  0
  150.9673  143.0582  160.7331 H   0  0  0  0  0  0  0  0  0  0  0  0
  1  2  1  0  0  0  0
  1 21  1  0  0  0  0
  1 22  1  0  0  0  0
  1 23  1  0  0  0  0
  2  3  1  0  0  0  0
  2 15  1  0  0  0  0
  2 24  1  0  0  0  0
  3  4  1  0  0  0  0
  3 25  1  0  0  0  0
  3 26  1  0  0  0  0
  4  5  1  0  0  0  0
  4 27  1  0  0  0  0
  5  6  2  0  0  0  0
  5  7  1  0  0  0  0
  7  8  1  0  0  0  0
  7 28  1  0  0  0  0
  7 29  1  0  0  0  0
  8 13  1  0  0  0  0
  8  9  1  0  0  0  0
  9 10  2  0  0  0  0
  9 30  1  0  0  0  0
 10 11  1  0  0  0  0
 10 31  1  0  0  0  0
 11 12  2  0  0  0  0
 11 32  1  0  0  0  0
 12 13  1  0  0  0  0
 12 33  1  0  0  0  0
 13 14  2  0  0  0  0
 15 20  1  0  0  0  0
 15 16  1  0  0  0  0
 16 17  1  0  0  0  0
 16 34  1  0  0  0  0
 16 35  1  0  0  0  0
 17 18  1  0  0  0  0
 17 36  1  0  0  0  0
 17 37  1  0  0  0  0
 18 19  1  0  0  0  0
 19 20  1  0  0  0  0
 19 38  1  0  0  0  0
 19 39  1  0  0  0  0
 20 40  1  0  0  0  0
 20 41  1  0  0  0  0
M  END
> <s_m_source_file>
AV-unprocessed.smi

> <i_m_source_file_index>
1835

> <i_lp_mmshare_version>
43012

> <i_f3d_flags>
0

> <s_epik_input>
W0NIMl0xW0NIMl1PW0NIMl1bQ0gyXU4xW0NASF0oW0NIM10pW0NIMl1bTkhdQyg9TylbQ0gyXW4yW2NIXVtjSF1bY0hdW2NIXWMyPU8=

> <s_epik_cmdline>
J2VwaWtfcHl0aG9uJywgJy1waCcsICc3LjAnLCAnLXRuJywgJzgnLCAnLW1hJywgJzIwMCcsICctbWV0YWxfYmluZGluZycsICctaW1hZScsICc8aW5maWxlLm1hZT4nLCAnLW9tYWUnLCAnPG91dGZpbGUubWFlPic=

> <r_lp_tautomer_probability>
1

> <r_epik_Ionization_Penalty>
0.237383

> <r_epik_Ionization_Penalty_Charging>
3.58805e-07

> <r_epik_Ionization_Penalty_Neutral>
0.237382

> <r_epik_State_Penalty>
0.228245

> <r_epik_Charging_Adjusted_Penalty>
0.228245

> <i_epik_Tot_Q>
0

> <i_epik_Tot_abs_Q>
0

> <r_epik_Metal_State_Penalty>
0.22822

> <b_epik_Metal_Only>
0

> <s_lp_Force_Field>
OPLS_2005

> <r_lp_Energy>
38.378

> <b_lp_Chiralities_Consistent>
1

> <s_lp_Variant>
AV-unprocessed.smi:1835-1

> <Gold.Version>
5.8.1

> <Gold.Id.Protein>
6NUR|6NUR_protein|mol2

> <Gold.PLP.Fitness>
45.1656

> <Gold.PLP.PLP>
-41.2821

> <Gold.PLP.part.hbond>
-1.0000

> <Gold.PLP.part.metal>
0.0000

> <Gold.PLP.part.buried>
-3.8677

> <Gold.PLP.part.nonpolar>
-35.7528

> <Gold.PLP.part.repulsive>
0.1195

> <Gold.PLP.ligand.clash>
0.0000

> <Gold.PLP.ligand.torsion>
0.2065

> <Gold.PLP.Chemscore.Hbond>
1.0000

> <Gold.PLP.Chemscore.CHOScore>
0.4221

> <Gold.PLP.Chemscore.Metal>
0.0000

> <Gold.Chemscore.Hbonds>
donor molecule, donor type, donor heavy atom, donor atom, acceptor molecule, acceptor atom, score
      L1  H     4    27       P1  8028  0.99
      L1  C     9    30       P1  8028  0.54

> <Gold.PLP.Chemscore.Internal.Correction>
0.0305

> <Gold.Rescore>
     Score         DG    S(hbond)    S(metal)    S(lipo)     H(rot)  DE(clash)    DE(int)     intcor
     14.11     -16.23       1.00        0.00     104.70       1.89       0.67       1.45       ----

> <Gold.Chemscore.Fitness>
14.1069

> <Gold.Chemscore.DG>
-16.2272

> <Gold.Chemscore.ZeroCoef>
-5.4800

> <Gold.Chemscore.Hbond>
0.9972

> <Gold.Chemscore.Metal>
0.0000

> <Gold.Chemscore.Lipo>
104.7029

> <Gold.Chemscore.Internal_Hbond>
0.0000

> <Gold.Chemscore.DEClash>
0.6686

> <Gold.Chemscore.DEInternal>
1.4516

> <Gold.Chemscore.Rot>
1.8882

> <Gold.Chemscore.Internal.Correction>
   9.000000E+99

> <Gold.Chemscore.Hbonds>
donor molecule, donor type, donor heavy atom, donor atom, acceptor molecule, acceptor atom, score
      L1  H     4    27       P1  8028  0.94

> <Gold.Chemscore.Hbond.Weighted>
-3.3307

> <Gold.Chemscore.Metal.Weighted>
-0.0000

> <Gold.Chemscore.Lipo.Weighted>
-12.2502

> <Gold.Chemscore.Internal_Hbond.Weighted>
0.0000

> <Gold.Chemscore.DEClash.Weighted>
0.6686

> <Gold.Chemscore.DEInternal.Weighted>
1.4516

> <Gold.Chemscore.Rot.Weighted>
4.8338

> <Gold.Chemscore.Internal.Correction.Weighted>
   9.000000E+99

> <Gold.Protein.RotatedTorsions>
[ 6907 6896 6895 6894 ] final    7.28 input  -60.11 | X-H torsion
[ 7974 7965 7964 7962 ] final  111.82 input  175.53 | X-H torsion
[ 8008 7997 7996 7995 ] final -108.07 input   59.86 | X-H torsion
[ 10167 10162 10161 10158 ] final   67.26 input  -65.29 | X-H torsion
[ 10718 10713 10712 10709 ] final   73.65 input   66.30 | X-H torsion
[ 10763 10752 10751 10750 ] final  116.73 input  -60.55 | X-H torsion
[ 11005 11000 10999 10996 ] final -179.34 input  -57.11 | X-H torsion

> <Gold.Protein.ActiveResidues>
 VAL166  LYS551  ARG553  GLY616  TRP617  ASP618  TYR619  PRO620  LYS621  CYS622 
 ASP623  PHE694  ASN695  SER759  ASP760  ASP761  ALA762  ILE779  LEU786  VAL792 
 PHE793  MET794  SER795  GLU796  ALA797  LYS798  CYS799  TRP800  GLU811  SER814 

> <Gold.Protein.RotatedAtoms>
  151.6874  135.0952  160.0227 H   0  0  0  0  0  0  0  0  0  0  0  0  # atno 6907 bound_to 6896
  152.3799  133.6528  159.6161 H   0  0  0  0  0  0  0  0  0  0  0  0  # atno 6908 bound_to 6896
  150.7739  133.9048  159.3393 H   0  0  0  0  0  0  0  0  0  0  0  0  # atno 6909 bound_to 6896
  145.2373  139.2793  143.4136 H   0  0  0  0  0  0  0  0  0  0  0  0  # atno 7974 bound_to 7965
  154.9388  140.0403  157.2086 H   0  0  0  0  0  0  0  0  0  0  0  0  # atno 8008 bound_to 7997
  154.8089  140.2864  155.5845 H   0  0  0  0  0  0  0  0  0  0  0  0  # atno 8009 bound_to 7997
  156.2969  140.2540  156.2974 H   0  0  0  0  0  0  0  0  0  0  0  0  # atno 8010 bound_to 7997
  140.0915  144.4984  150.7095 H   0  0  0  0  0  0  0  0  0  0  0  0  # atno 10167 bound_to 10162
  157.6557  130.9639  150.1100 H   0  0  0  0  0  0  0  0  0  0  0  0  # atno 10718 bound_to 10713
  153.5417  135.3557  155.2721 H   0  0  0  0  0  0  0  0  0  0  0  0  # atno 10763 bound_to 10752
  154.8716  135.4092  154.3036 H   0  0  0  0  0  0  0  0  0  0  0  0  # atno 10764 bound_to 10752
  153.3745  135.7065  153.6681 H   0  0  0  0  0  0  0  0  0  0  0  0  # atno 10765 bound_to 10752
  140.4197  134.6616  157.4658 H   0  0  0  0  0  0  0  0  0  0  0  0  # atno 11005 bound_to 11000
  146.3337  140.2726  142.8606 LP  0  0  0  0  0  0  0  0  0  0  0  0  # atno 17320 bound_to 7965
  144.9621  140.8285  143.5507 LP  0  0  0  0  0  0  0  0  0  0  0  0  # atno 17321 bound_to 7965
  140.7026  143.2445  151.4821 LP  0  0  0  0  0  0  0  0  0  0  0  0  # atno 17342 bound_to 10162
  139.5722  144.1902  152.1852 LP  0  0  0  0  0  0  0  0  0  0  0  0  # atno 17343 bound_to 10162
  156.1999  130.3659  149.8801 LP  0  0  0  0  0  0  0  0  0  0  0  0  # atno 17370 bound_to 10713
  156.6708  130.8819  151.3562 LP  0  0  0  0  0  0  0  0  0  0  0  0  # atno 17371 bound_to 10713
  140.0208  134.6549  155.9242 LP  0  0  0  0  0  0  0  0  0  0  0  0  # atno 17394 bound_to 11000
  141.1789  133.6543  156.4938 LP  0  0  0  0  0  0  0  0  0  0  0  0  # atno 17395 bound_to 11000

$$$$
