AV-unprocessed.smi:686|AV-procd|sdf|3338|dock4
  -GOLD-   22720 0313D 1   1.00000     0.00000
 Structure written by MMmdl.
 41 42  0  0  0  0  0  0  0  0  2 V2000
  150.5501  132.9422  155.8902 C   0  0  0  0  0  0  0  0  0  0  0  0
  149.6807  133.8960  155.0534 C   0  0  1  0  0  0  0  0  0  0  0  0
  148.9123  133.2360  153.9112 C   0  0  0  0  0  0  0  0  0  0  0  0
  147.8969  134.2317  153.5000 N   0  3  1  0  0  0  0  0  0  0  0  0
  146.6998  133.6792  152.8047 C   0  0  0  0  0  0  0  0  0  0  0  0
  145.8214  134.7933  152.2030 C   0  0  0  0  0  0  0  0  0  0  0  0
  145.8504  132.8198  153.7611 C   0  0  0  0  0  0  0  0  0  0  0  0
  147.6034  135.0727  154.6902 C   0  0  0  0  0  0  0  0  0  0  0  0
  148.5839  134.6599  155.8039 C   0  0  1  0  0  0  0  0  0  0  0  0
  147.9139  133.7942  156.7816 N   0  0  0  0  0  0  0  0  0  0  0  0
  148.4743  133.7670  158.4132 S   0  0  0  0  0  0  0  0  0  0  0  0
  149.0297  132.4270  158.6556 O   0  0  0  0  0  0  0  0  0  0  0  0
  149.3110  134.9600  158.6154 O   0  0  0  0  0  0  0  0  0  0  0  0
  146.9054  133.9414  159.3672 C   0  0  0  0  0  0  0  0  0  0  0  0
  147.0847  134.9488  160.4682 C   0  0  0  0  0  0  0  0  0  0  0  0
  146.9984  134.7479  161.8734 C   0  0  0  0  0  0  0  0  0  0  0  0
  147.2512  135.9865  162.3888 C   0  0  0  0  0  0  0  0  0  0  0  0
  147.4745  136.8795  161.3918 O   0  0  0  0  0  0  0  0  0  0  0  0
  147.3630  136.2087  160.1688 N   0  0  0  0  0  0  0  0  0  0  0  0
  149.9677  132.1219  156.3104 H   0  0  0  0  0  0  0  0  0  0  0  0
  151.0267  133.4716  156.7156 H   0  0  0  0  0  0  0  0  0  0  0  0
  151.3389  132.5023  155.2796 H   0  0  0  0  0  0  0  0  0  0  0  0
  150.3463  134.6401  154.6119 H   0  0  0  0  0  0  0  0  0  0  0  0
  149.5647  132.9603  153.0820 H   0  0  0  0  0  0  0  0  0  0  0  0
  148.4184  132.3316  154.2715 H   0  0  0  0  0  0  0  0  0  0  0  0
  147.0462  133.0452  151.9867 H   0  0  0  0  0  0  0  0  0  0  0  0
  144.9249  134.3763  151.7434 H   0  0  0  0  0  0  0  0  0  0  0  0
  146.3410  135.3515  151.4241 H   0  0  0  0  0  0  0  0  0  0  0  0
  145.5006  135.5021  152.9671 H   0  0  0  0  0  0  0  0  0  0  0  0
  144.9658  132.4319  153.2552 H   0  0  0  0  0  0  0  0  0  0  0  0
  145.5098  133.4018  154.6182 H   0  0  0  0  0  0  0  0  0  0  0  0
  146.3981  131.9585  154.1422 H   0  0  0  0  0  0  0  0  0  0  0  0
  147.7540  136.1170  154.4150 H   0  0  0  0  0  0  0  0  0  0  0  0
  146.5672  134.9727  155.0138 H   0  0  0  0  0  0  0  0  0  0  0  0
  148.9962  135.5270  156.3216 H   0  0  0  0  0  0  0  0  0  0  0  0
  146.8981  133.8773  156.7380 H   0  0  0  0  0  0  0  0  0  0  0  0
  146.1043  134.2213  158.6825 H   0  0  0  0  0  0  0  0  0  0  0  0
  146.6574  132.9646  159.7826 H   0  0  0  0  0  0  0  0  0  0  0  0
  146.7870  133.8393  162.4177 H   0  0  0  0  0  0  0  0  0  0  0  0
  147.3059  136.3750  163.3952 H   0  0  0  0  0  0  0  0  0  0  0  0
  148.3627  134.8398  152.8415 H   0  0  0  0  0  0  0  0  0  0  0  0
  1  2  1  0  0  0  0
  1 20  1  0  0  0  0
  1 21  1  0  0  0  0
  1 22  1  0  0  0  0
  2  9  1  0  0  0  0
  2  3  1  0  0  0  0
  2 23  1  0  0  0  0
  3  4  1  0  0  0  0
  3 24  1  0  0  0  0
  3 25  1  0  0  0  0
  4  5  1  0  0  0  0
  4  8  1  0  0  0  0
  4 41  1  0  0  0  0
  5  6  1  0  0  0  0
  5  7  1  0  0  0  0
  5 26  1  0  0  0  0
  6 27  1  0  0  0  0
  6 28  1  0  0  0  0
  6 29  1  0  0  0  0
  7 30  1  0  0  0  0
  7 31  1  0  0  0  0
  7 32  1  0  0  0  0
  8  9  1  0  0  0  0
  8 33  1  0  0  0  0
  8 34  1  0  0  0  0
  9 10  1  0  0  0  0
  9 35  1  0  0  0  0
 10 11  1  0  0  0  0
 10 36  1  0  0  0  0
 11 12  2  0  0  0  0
 11 13  2  0  0  0  0
 11 14  1  0  0  0  0
 14 15  1  0  0  0  0
 14 37  1  0  0  0  0
 14 38  1  0  0  0  0
 15 19  2  0  0  0  0
 15 16  1  0  0  0  0
 16 17  2  0  0  0  0
 16 39  1  0  0  0  0
 17 18  1  0  0  0  0
 17 40  1  0  0  0  0
 18 19  1  0  0  0  0
M  CHG  1   4   1
M  END
> <s_m_source_file>
AV-unprocessed.smi

> <i_m_source_file_index>
686

> <i_lp_mmshare_version>
43012

> <i_f3d_flags>
0

> <s_epik_input>
W0NIM11bQ0BASF0xW0NIMl1OKFtDSF0oW0NIM10pW0NIM10pW0NIMl1bQ0BIXTFbTkhdUyg9TykoPU8pW0NIMl1jMltjSF1bY0hdb24y

> <s_epik_cmdline>
J2VwaWtfcHl0aG9uJywgJy1waCcsICc3LjAnLCAnLXRuJywgJzgnLCAnLW1hJywgJzIwMCcsICctbWV0YWxfYmluZGluZycsICctaW1hZScsICc8aW5maWxlLm1hZT4nLCAnLW9tYWUnLCAnPG91dGZpbGUubWFlPic=

> <r_epik_Ionization_Penalty>
0.00200818

> <r_epik_Ionization_Penalty_Charging>
0.000701289

> <r_epik_Ionization_Penalty_Neutral>
0.00130689

> <r_epik_State_Penalty>
0.00131314

> <r_epik_Charging_Adjusted_Penalty>
0.00201443

> <i_epik_Tot_Q>
1

> <i_epik_Tot_abs_Q>
1

> <r_epik_Metal_State_Penalty>
0.310831

> <b_epik_Metal_Only>
0

> <s_lp_Force_Field>
OPLS_2005

> <r_lp_Energy>
21.3818

> <b_lp_Chiralities_Consistent>
1

> <s_lp_Variant>
AV-unprocessed.smi:686-2

> <Gold.Version>
5.8.1

> <Gold.Id.Protein>
6NUR|6NUR_protein|mol2

> <Gold.PLP.Fitness>
40.4461

> <Gold.PLP.PLP>
-27.4853

> <Gold.PLP.part.hbond>
-5.0000

> <Gold.PLP.part.metal>
0.0000

> <Gold.PLP.part.buried>
-3.3534

> <Gold.PLP.part.nonpolar>
-19.2132

> <Gold.PLP.part.repulsive>
0.0000

> <Gold.PLP.ligand.clash>
0.0000

> <Gold.PLP.ligand.torsion>
0.9028

> <Gold.PLP.Chemscore.Hbond>
4.8640

> <Gold.PLP.Chemscore.CHOScore>
0.0000

> <Gold.PLP.Chemscore.Metal>
0.0000

> <Gold.Chemscore.Hbonds>
donor molecule, donor type, donor heavy atom, donor atom, acceptor molecule, acceptor atom, score
      L1  H     4    41       P1  7948  2.00
      P1  H  6896  6908       L1    13  1.00
      P1  H  6931  6943       L1    18  0.73
      P1  H  6934  6947       L1    18  0.52

> <Gold.PLP.Chemscore.Internal.Correction>
0.1744

> <Gold.Rescore>
     Score         DG    S(hbond)    S(metal)    S(lipo)     H(rot)  DE(clash)    DE(int)     intcor
     14.25     -16.86       2.82        0.00      58.61       1.91       0.00       2.62       ----

> <Gold.Chemscore.Fitness>
14.2454

> <Gold.Chemscore.DG>
-16.8648

> <Gold.Chemscore.ZeroCoef>
-5.4800

> <Gold.Chemscore.Hbond>
2.8206

> <Gold.Chemscore.Metal>
0.0000

> <Gold.Chemscore.Lipo>
58.6116

> <Gold.Chemscore.Internal_Hbond>
0.0000

> <Gold.Chemscore.DEClash>
0.0029

> <Gold.Chemscore.DEInternal>
2.6165

> <Gold.Chemscore.Rot>
1.9115

> <Gold.Chemscore.Internal.Correction>
   9.000000E+99

> <Gold.Chemscore.Hbonds>
donor molecule, donor type, donor heavy atom, donor atom, acceptor molecule, acceptor atom, score
      L1  H     4    41       P1  7948  0.60
      P1  H  6896  6908       L1    13  0.70
      P1  H  6931  6943       L1    18  0.55
      P1  H  6934  6947       L1    18  0.28

> <Gold.Chemscore.Hbond.Weighted>
-9.4207

> <Gold.Chemscore.Metal.Weighted>
-0.0000

> <Gold.Chemscore.Lipo.Weighted>
-6.8576

> <Gold.Chemscore.Internal_Hbond.Weighted>
0.0000

> <Gold.Chemscore.DEClash.Weighted>
0.0029

> <Gold.Chemscore.DEInternal.Weighted>
2.6165

> <Gold.Chemscore.Rot.Weighted>
4.8935

> <Gold.Chemscore.Internal.Correction.Weighted>
   9.000000E+99

> <Gold.Protein.RotatedTorsions>
[ 6907 6896 6895 6894 ] final  167.07 input  -60.11 | X-H torsion
[ 7974 7965 7964 7962 ] final   19.45 input  175.53 | X-H torsion
[ 8008 7997 7996 7995 ] final -130.61 input   59.86 | X-H torsion
[ 10167 10162 10161 10158 ] final  -47.09 input  -65.29 | X-H torsion
[ 10718 10713 10712 10709 ] final -150.65 input   66.30 | X-H torsion
[ 10763 10752 10751 10750 ] final  179.12 input  -60.55 | X-H torsion
[ 11005 11000 10999 10996 ] final  -62.36 input  -57.11 | X-H torsion

> <Gold.Protein.ActiveResidues>
 VAL166  LYS551  ARG553  GLY616  TRP617  ASP618  TYR619  PRO620  LYS621  CYS622 
 ASP623  PHE694  ASN695  SER759  ASP760  ASP761  ALA762  ILE779  LEU786  VAL792 
 PHE793  MET794  SER795  GLU796  ALA797  LYS798  CYS799  TRP800  GLU811  SER814 

> <Gold.Protein.RotatedAtoms>
  151.8690  133.3472  159.3728 H   0  0  0  0  0  0  0  0  0  0  0  0  # atno 6907 bound_to 6896
  150.7158  134.5131  159.5626 H   0  0  0  0  0  0  0  0  0  0  0  0  # atno 6908 bound_to 6896
  152.2660  134.7984  160.0473 H   0  0  0  0  0  0  0  0  0  0  0  0  # atno 6909 bound_to 6896
  146.2148  139.8311  142.8660 H   0  0  0  0  0  0  0  0  0  0  0  0  # atno 7974 bound_to 7965
  155.2986  140.0451  157.3028 H   0  0  0  0  0  0  0  0  0  0  0  0  # atno 8008 bound_to 7997
  154.5500  140.2314  155.8468 H   0  0  0  0  0  0  0  0  0  0  0  0  # atno 8009 bound_to 7997
  156.1958  140.3039  155.9431 H   0  0  0  0  0  0  0  0  0  0  0  0  # atno 8010 bound_to 7997
  140.6790  143.2800  151.3876 H   0  0  0  0  0  0  0  0  0  0  0  0  # atno 10167 bound_to 10162
  156.4489  130.8158  151.2389 H   0  0  0  0  0  0  0  0  0  0  0  0  # atno 10718 bound_to 10713
  154.5165  135.2791  155.1298 H   0  0  0  0  0  0  0  0  0  0  0  0  # atno 10763 bound_to 10752
  154.2873  135.6274  153.5374 H   0  0  0  0  0  0  0  0  0  0  0  0  # atno 10764 bound_to 10752
  152.9928  135.5665  154.5644 H   0  0  0  0  0  0  0  0  0  0  0  0  # atno 10765 bound_to 10752
  141.1357  133.6639  156.5516 H   0  0  0  0  0  0  0  0  0  0  0  0  # atno 11005 bound_to 11000
  145.2997  141.0190  143.3616 LP  0  0  0  0  0  0  0  0  0  0  0  0  # atno 17320 bound_to 7965
  144.9015  139.4643  143.6630 LP  0  0  0  0  0  0  0  0  0  0  0  0  # atno 17321 bound_to 7965
  139.6100  144.1118  152.2289 LP  0  0  0  0  0  0  0  0  0  0  0  0  # atno 17342 bound_to 10162
  140.0529  144.5918  150.7322 LP  0  0  0  0  0  0  0  0  0  0  0  0  # atno 17343 bound_to 10162
  157.7503  131.0144  150.3463 LP  0  0  0  0  0  0  0  0  0  0  0  0  # atno 17370 bound_to 10713
  156.3837  130.3885  149.7082 LP  0  0  0  0  0  0  0  0  0  0  0  0  # atno 17371 bound_to 10713
  140.4059  134.7315  157.4808 LP  0  0  0  0  0  0  0  0  0  0  0  0  # atno 17394 bound_to 11000
  140.0462  134.6196  155.8918 LP  0  0  0  0  0  0  0  0  0  0  0  0  # atno 17395 bound_to 11000

$$$$
