AV-unprocessed.smi:261|AV-procd|sdf|1996|dock10
  -GOLD-   2262021183D 1   1.00000     0.00000
 Structure written by MMmdl.
 51 54  0  0  0  0  0  0  0  0  1 V2000
  151.6355  144.4522  159.4272 C   0  0  0  0  0  0  0  0  0  0  0  0
  152.2657  144.3469  158.1610 O   0  0  0  0  0  0  0  0  0  0  0  0
  151.8685  143.2000  157.4240 C   0  0  2  0  0  0  0  0  0  0  0  0
  150.3569  143.1220  157.1877 C   0  0  0  0  0  0  0  0  0  0  0  0
  150.0769  141.6219  156.9967 C   0  0  1  0  0  0  0  0  0  0  0  0
  150.1635  141.2070  155.5172 C   0  0  0  0  0  0  0  0  0  0  0  0
  149.2775  141.7604  154.6862 N   0  0  0  0  0  0  0  0  0  0  0  0
  151.0180  140.4138  155.1253 O   0  0  0  0  0  0  0  0  0  0  0  0
  151.1152  140.9808  157.8072 N   0  0  0  0  0  0  0  0  0  0  0  0
  151.0159  139.7140  158.2969 C   0  0  0  0  0  0  0  0  0  0  0  0
  152.1249  139.1429  158.8388 N   0  0  0  0  0  0  0  0  0  0  0  0
  152.0832  137.9053  159.3384 C   0  0  0  0  0  0  0  0  0  0  0  0
  151.0493  137.0663  159.3987 N   0  0  0  0  0  0  0  0  0  0  0  0
  149.9306  137.6259  158.8574 C   0  0  0  0  0  0  0  0  0  0  0  0
  149.8232  138.9288  158.2886 C   0  0  0  0  0  0  0  0  0  0  0  0
  148.5198  139.1299  157.8435 N   0  0  0  0  0  0  0  0  0  0  0  0
  147.8986  138.0201  158.1325 C   0  0  0  0  0  0  0  0  0  0  0  0
  148.6716  137.0645  158.7485 N   0  0  0  0  0  0  0  0  0  0  0  0
  148.2462  135.7465  159.1864 C   0  0  0  0  0  0  0  0  0  0  0  0
  148.0370  135.6715  160.7144 C   0  0  1  0  0  0  0  0  0  0  0  0
  147.5935  136.9397  161.1585 O   0  0  0  0  0  0  0  0  0  0  0  0
  146.9813  134.6275  161.1298 C   0  0  1  0  0  0  0  0  0  0  0  0
  146.5388  134.7103  162.5924 C   0  0  0  0  0  0  0  0  0  0  0  0
  145.1536  134.0849  162.5853 C   0  0  0  0  0  0  0  0  0  0  0  0
  144.7378  134.1319  161.1135 C   0  0  0  0  0  0  0  0  0  0  0  0
  145.7529  134.8862  160.4658 O   0  0  0  0  0  0  0  0  0  0  0  0
  152.1482  141.9226  158.2169 C   0  0  0  0  0  0  0  0  0  0  0  0
  152.3991  143.1488  156.4712 H   0  0  0  0  0  0  0  0  0  0  0  0
  149.0825  141.3908  157.3836 H   0  0  0  0  0  0  0  0  0  0  0  0
  151.9633  145.3664  159.9218 H   0  0  0  0  0  0  0  0  0  0  0  0
  151.8923  143.6132  160.0745 H   0  0  0  0  0  0  0  0  0  0  0  0
  150.5505  144.4974  159.3253 H   0  0  0  0  0  0  0  0  0  0  0  0
  149.8287  143.4772  158.0738 H   0  0  0  0  0  0  0  0  0  0  0  0
  150.0302  143.7356  156.3469 H   0  0  0  0  0  0  0  0  0  0  0  0
  149.2930  141.5271  153.7041 H   0  0  0  0  0  0  0  0  0  0  0  0
  148.5973  142.4154  155.0438 H   0  0  0  0  0  0  0  0  0  0  0  0
  153.0108  137.5353  159.7494 H   0  0  0  0  0  0  0  0  0  0  0  0
  146.8522  137.8706  157.9086 H   0  0  0  0  0  0  0  0  0  0  0  0
  147.3261  135.4839  158.6623 H   0  0  0  0  0  0  0  0  0  0  0  0
  149.0031  135.0307  158.8647 H   0  0  0  0  0  0  0  0  0  0  0  0
  148.9870  135.4426  161.1989 H   0  0  0  0  0  0  0  0  0  0  0  0
  147.0636  136.8164  161.9313 H   0  0  0  0  0  0  0  0  0  0  0  0
  147.3193  133.6138  160.9042 H   0  0  0  0  0  0  0  0  0  0  0  0
  147.2257  134.2048  163.2717 H   0  0  0  0  0  0  0  0  0  0  0  0
  146.4640  135.7536  162.9029 H   0  0  0  0  0  0  0  0  0  0  0  0
  145.1818  133.0543  162.9407 H   0  0  0  0  0  0  0  0  0  0  0  0
  144.4670  134.6428  163.2226 H   0  0  0  0  0  0  0  0  0  0  0  0
  144.7092  133.1270  160.6898 H   0  0  0  0  0  0  0  0  0  0  0  0
  143.7595  134.5909  160.9692 H   0  0  0  0  0  0  0  0  0  0  0  0
  153.1507  141.5492  158.0072 H   0  0  0  0  0  0  0  0  0  0  0  0
  152.0587  142.1041  159.2891 H   0  0  0  0  0  0  0  0  0  0  0  0
  1  2  1  0  0  0  0
  1 30  1  0  0  0  0
  1 31  1  0  0  0  0
  1 32  1  0  0  0  0
  2  3  1  0  0  0  0
  3 28  1  0  0  0  0
  3 27  1  0  0  0  0
  3  4  1  0  0  0  0
  4  5  1  0  0  0  0
  4 33  1  0  0  0  0
  4 34  1  0  0  0  0
  5 29  1  0  0  0  0
  5  6  1  0  0  0  0
  5  9  1  0  0  0  0
  6  7  1  0  0  0  0
  6  8  2  0  0  0  0
  7 35  1  0  0  0  0
  7 36  1  0  0  0  0
  9 10  1  0  0  0  0
  9 27  1  0  0  0  0
 10 15  1  0  0  0  0
 10 11  2  0  0  0  0
 11 12  1  0  0  0  0
 12 13  2  0  0  0  0
 12 37  1  0  0  0  0
 13 14  1  0  0  0  0
 14 18  1  0  0  0  0
 14 15  2  0  0  0  0
 15 16  1  0  0  0  0
 16 17  2  0  0  0  0
 17 18  1  0  0  0  0
 17 38  1  0  0  0  0
 18 19  1  0  0  0  0
 19 20  1  0  0  0  0
 19 39  1  0  0  0  0
 19 40  1  0  0  0  0
 20 21  1  0  0  0  0
 20 22  1  0  0  0  0
 20 41  1  0  0  0  0
 21 42  1  0  0  0  0
 22 26  1  0  0  0  0
 22 23  1  0  0  0  0
 22 43  1  0  0  0  0
 23 24  1  0  0  0  0
 23 44  1  0  0  0  0
 23 45  1  0  0  0  0
 24 25  1  0  0  0  0
 24 46  1  0  0  0  0
 24 47  1  0  0  0  0
 25 26  1  0  0  0  0
 25 48  1  0  0  0  0
 25 49  1  0  0  0  0
 27 50  1  0  0  0  0
 27 51  1  0  0  0  0
M  END
> <s_m_source_file>
AV-unprocessed.smi

> <i_m_source_file_index>
261

> <i_lp_mmshare_version>
43012

> <i_f3d_flags>
0

> <s_epik_input>
W0NIM11PW0NASF0xW0NIMl1bQ0BASF0oQyg9TylbTkgyXSlOKFtDSDJdMSljKG5bY0hdbjIpYyhjMjMpbltjSF1uM1tDSDJdW0NASF0oW09IXSlbQ0BASF00W0NIMl1bQ0gyXVtDSDJdTzQ=

> <s_epik_cmdline>
J2VwaWtfcHl0aG9uJywgJy1waCcsICc3LjAnLCAnLXRuJywgJzgnLCAnLW1hJywgJzIwMCcsICctbWV0YWxfYmluZGluZycsICctaW1hZScsICc8aW5maWxlLm1hZT4nLCAnLW9tYWUnLCAnPG91dGZpbGUubWFlPic=

> <r_lp_tautomer_probability>
1

> <r_epik_Ionization_Penalty>
0.000713824

> <r_epik_Ionization_Penalty_Charging>
0

> <r_epik_Ionization_Penalty_Neutral>
0.000713824

> <r_epik_State_Penalty>
0.000402132

> <r_epik_Charging_Adjusted_Penalty>
0.000402132

> <i_epik_Tot_Q>
0

> <i_epik_Tot_abs_Q>
0

> <r_epik_Metal_State_Penalty>
-0

> <b_epik_Metal_Only>
0

> <s_lp_Force_Field>
OPLS_2005

> <r_lp_Energy>
41.8336

> <b_lp_Chiralities_Consistent>
1

> <s_lp_Variant>
AV-unprocessed.smi:261-14

> <Gold.Version>
5.8.1

> <Gold.Id.Protein>
6NUR|6NUR_protein|mol2

> <Gold.PLP.Fitness>
49.4234

> <Gold.PLP.PLP>
-39.5935

> <Gold.PLP.part.hbond>
-4.2079

> <Gold.PLP.part.metal>
0.0000

> <Gold.PLP.part.buried>
-5.9851

> <Gold.PLP.part.nonpolar>
-31.5434

> <Gold.PLP.part.repulsive>
0.3163

> <Gold.PLP.ligand.clash>
0.0000

> <Gold.PLP.ligand.torsion>
0.7833

> <Gold.PLP.Chemscore.Hbond>
3.7593

> <Gold.PLP.Chemscore.CHOScore>
0.0000

> <Gold.PLP.Chemscore.Metal>
0.0000

> <Gold.Chemscore.Hbonds>
donor molecule, donor type, donor heavy atom, donor atom, acceptor molecule, acceptor atom, score
      L1  H     7    36       P1  8028  0.07
      P1  H  6896  6908       L1    13  1.00
      P1  H  6931  6943       L1    21  0.86
      P1  H  6934  6947       L1    21  0.56
      P1  H  7989  7998       L1     8  1.00

> <Gold.PLP.Chemscore.Internal.Correction>
0.1186

> <Gold.Rescore>
     Score         DG    S(hbond)    S(metal)    S(lipo)     H(rot)  DE(clash)    DE(int)     intcor
     13.40     -15.93       2.52        0.00      86.87       3.18       0.83       1.70       ----

> <Gold.Chemscore.Fitness>
13.4009

> <Gold.Chemscore.DG>
-15.9274

> <Gold.Chemscore.ZeroCoef>
-5.4800

> <Gold.Chemscore.Hbond>
2.5246

> <Gold.Chemscore.Metal>
0.0000

> <Gold.Chemscore.Lipo>
86.8691

> <Gold.Chemscore.Internal_Hbond>
0.0000

> <Gold.Chemscore.DEClash>
0.8274

> <Gold.Chemscore.DEInternal>
1.6991

> <Gold.Chemscore.Rot>
3.1831

> <Gold.Chemscore.Internal.Correction>
   9.000000E+99

> <Gold.Chemscore.Hbonds>
donor molecule, donor type, donor heavy atom, donor atom, acceptor molecule, acceptor atom, score
      L1  H     7    36       P1  8028  0.09
      P1  H  6896  6908       L1    13  0.94
      P1  H  6931  6943       L1    21  0.20
      P1  H  6934  6947       L1    21  0.08
      P1  H  7989  7998       L1     8  0.75

> <Gold.Chemscore.Hbond.Weighted>
-8.4323

> <Gold.Chemscore.Metal.Weighted>
-0.0000

> <Gold.Chemscore.Lipo.Weighted>
-10.1637

> <Gold.Chemscore.Internal_Hbond.Weighted>
0.0000

> <Gold.Chemscore.DEClash.Weighted>
0.8274

> <Gold.Chemscore.DEInternal.Weighted>
1.6991

> <Gold.Chemscore.Rot.Weighted>
8.1486

> <Gold.Chemscore.Internal.Correction.Weighted>
   9.000000E+99

> <Gold.Protein.RotatedTorsions>
[ 6907 6896 6895 6894 ] final -139.56 input  -60.11 | X-H torsion
[ 7974 7965 7964 7962 ] final  -11.35 input  175.53 | X-H torsion
[ 8008 7997 7996 7995 ] final  121.50 input   59.86 | X-H torsion
[ 10167 10162 10161 10158 ] final  176.24 input  -65.29 | X-H torsion
[ 10718 10713 10712 10709 ] final -109.03 input   66.30 | X-H torsion
[ 10763 10752 10751 10750 ] final   40.29 input  -60.55 | X-H torsion
[ 11005 11000 10999 10996 ] final   81.04 input  -57.11 | X-H torsion

> <Gold.Protein.ActiveResidues>
 VAL166  LYS551  ARG553  GLY616  TRP617  ASP618  TYR619  PRO620  LYS621  CYS622 
 ASP623  PHE694  ASN695  SER759  ASP760  ASP761  ALA762  ILE779  LEU786  VAL792 
 PHE793  MET794  SER795  GLU796  ALA797  LYS798  CYS799  TRP800  GLU811  SER814 

> <Gold.Protein.RotatedAtoms>
  151.0493  133.5638  159.2643 H   0  0  0  0  0  0  0  0  0  0  0  0  # atno 6907 bound_to 6896
  151.2655  135.0667  159.9124 H   0  0  0  0  0  0  0  0  0  0  0  0  # atno 6908 bound_to 6896
  152.5379  134.0232  159.8045 H   0  0  0  0  0  0  0  0  0  0  0  0  # atno 6909 bound_to 6896
  146.2190  140.2898  142.8367 H   0  0  0  0  0  0  0  0  0  0  0  0  # atno 7974 bound_to 7965
  156.2689  140.2807  156.1318 H   0  0  0  0  0  0  0  0  0  0  0  0  # atno 8008 bound_to 7997
  155.1046  140.0390  157.2724 H   0  0  0  0  0  0  0  0  0  0  0  0  # atno 8009 bound_to 7997
  154.6789  140.2604  155.6935 H   0  0  0  0  0  0  0  0  0  0  0  0  # atno 8010 bound_to 7997
  139.5207  144.2938  152.0440 H   0  0  0  0  0  0  0  0  0  0  0  0  # atno 10167 bound_to 10162
  156.0516  130.5743  150.8043 H   0  0  0  0  0  0  0  0  0  0  0  0  # atno 10718 bound_to 10713
  152.9941  135.6196  154.2602 H   0  0  0  0  0  0  0  0  0  0  0  0  # atno 10763 bound_to 10752
  154.2338  135.2791  155.2881 H   0  0  0  0  0  0  0  0  0  0  0  0  # atno 10764 bound_to 10752
  154.5427  135.5756  153.6911 H   0  0  0  0  0  0  0  0  0  0  0  0  # atno 10765 bound_to 10752
  139.9112  134.7966  156.1989 H   0  0  0  0  0  0  0  0  0  0  0  0  # atno 11005 bound_to 11000
  144.9135  140.7785  143.5792 LP  0  0  0  0  0  0  0  0  0  0  0  0  # atno 17320 bound_to 7965
  145.2830  139.1911  143.4781 LP  0  0  0  0  0  0  0  0  0  0  0  0  # atno 17321 bound_to 7965
  140.2388  144.4291  150.6268 LP  0  0  0  0  0  0  0  0  0  0  0  0  # atno 17342 bound_to 10162
  140.6305  143.2187  151.6506 LP  0  0  0  0  0  0  0  0  0  0  0  0  # atno 17343 bound_to 10162
  157.5447  131.0942  150.9779 LP  0  0  0  0  0  0  0  0  0  0  0  0  # atno 17370 bound_to 10713
  157.0053  130.5616  149.5315 LP  0  0  0  0  0  0  0  0  0  0  0  0  # atno 17371 bound_to 10713
  141.0537  133.6876  156.1820 LP  0  0  0  0  0  0  0  0  0  0  0  0  # atno 17394 bound_to 11000
  140.6770  134.4807  157.5588 LP  0  0  0  0  0  0  0  0  0  0  0  0  # atno 17395 bound_to 11000

$$$$
