AV-unprocessed.smi:967|AV-procd|sdf|4285|dock6
  -GOLD-   22720 2193D 1   1.00000     0.00000
 Structure written by MMmdl.
 43 44  0  0  0  0  0  0  0  0  2 V2000
  153.6155  131.5424  156.8836 C   0  0  0  0  0  0  0  0  0  0  0  0
  152.2288  131.1339  157.0511 N   0  0  0  0  0  0  0  0  0  0  0  0
  151.7273  131.1196  158.4168 C   0  0  0  0  0  0  0  0  0  0  0  0
  151.3583  131.7735  156.1579 C   0  0  0  0  0  0  0  0  0  0  0  0
  150.6845  131.0529  155.1505 C   0  0  0  0  0  0  0  0  0  0  0  0
  149.8174  131.7367  154.2741 C   0  0  0  0  0  0  0  0  0  0  0  0
  149.6256  133.1277  154.4202 C   0  0  0  0  0  0  0  0  0  0  0  0
  148.7516  133.7737  153.5048 N   0  0  0  0  0  0  0  0  0  0  0  0
  147.7086  133.2552  152.8339 C   0  0  0  0  0  0  0  0  0  0  0  0
  147.3389  132.0828  152.8929 O   0  0  0  0  0  0  0  0  0  0  0  0
  147.1234  134.1839  152.0637 N   0  0  0  0  0  0  0  0  0  0  0  0
  145.9821  133.9704  151.1775 C   0  0  2  0  0  0  0  0  0  0  0  0
  144.7209  133.6936  152.0186 C   0  0  0  0  0  0  0  0  0  0  0  0
  143.5102  133.3629  151.1311 C   0  0  0  0  0  0  0  0  0  0  0  0
  143.8177  132.1844  150.1914 C   0  0  1  0  0  0  0  0  0  0  0  0
  142.7099  131.9520  149.3479 O   0  0  0  0  0  0  0  0  0  0  0  0
  145.0647  132.4703  149.3373 C   0  0  0  0  0  0  0  0  0  0  0  0
  146.2784  132.7979  150.2223 C   0  0  0  0  0  0  0  0  0  0  0  0
  150.3373  133.8017  155.4430 C   0  0  0  0  0  0  0  0  0  0  0  0
  151.1605  133.1093  156.2604 N   0  3  0  0  0  0  0  0  0  0  0  0
  153.9088  131.5003  155.8339 H   0  0  0  0  0  0  0  0  0  0  0  0
  154.2741  130.8779  157.4435 H   0  0  0  0  0  0  0  0  0  0  0  0
  153.7701  132.5598  157.2448 H   0  0  0  0  0  0  0  0  0  0  0  0
  150.6849  130.7998  158.4449 H   0  0  0  0  0  0  0  0  0  0  0  0
  151.7967  132.1096  158.8689 H   0  0  0  0  0  0  0  0  0  0  0  0
  152.3085  130.4252  159.0242 H   0  0  0  0  0  0  0  0  0  0  0  0
  150.8295  129.9872  155.0481 H   0  0  0  0  0  0  0  0  0  0  0  0
  149.2997  131.1910  153.4985 H   0  0  0  0  0  0  0  0  0  0  0  0
  148.9782  134.7348  153.2940 H   0  0  0  0  0  0  0  0  0  0  0  0
  147.5053  135.1183  152.0820 H   0  0  0  0  0  0  0  0  0  0  0  0
  145.7975  134.8597  150.5719 H   0  0  0  0  0  0  0  0  0  0  0  0
  144.9056  132.8600  152.6979 H   0  0  0  0  0  0  0  0  0  0  0  0
  144.4921  134.5571  152.6444 H   0  0  0  0  0  0  0  0  0  0  0  0
  142.6481  133.1291  151.7572 H   0  0  0  0  0  0  0  0  0  0  0  0
  143.2397  134.2437  150.5468 H   0  0  0  0  0  0  0  0  0  0  0  0
  143.9832  131.2832  150.7834 H   0  0  0  0  0  0  0  0  0  0  0  0
  142.0962  132.6624  149.4558 H   0  0  0  0  0  0  0  0  0  0  0  0
  145.2911  131.6115  148.7044 H   0  0  0  0  0  0  0  0  0  0  0  0
  144.8709  133.3080  148.6656 H   0  0  0  0  0  0  0  0  0  0  0  0
  147.1372  133.0358  149.5932 H   0  0  0  0  0  0  0  0  0  0  0  0
  146.5528  131.9121  150.7972 H   0  0  0  0  0  0  0  0  0  0  0  0
  150.2948  134.8629  155.6366 H   0  0  0  0  0  0  0  0  0  0  0  0
  151.6588  133.6199  156.9894 H   0  0  0  0  0  0  0  0  0  0  0  0
  1  2  1  0  0  0  0
  1 21  1  0  0  0  0
  1 22  1  0  0  0  0
  1 23  1  0  0  0  0
  2  3  1  0  0  0  0
  2  4  1  0  0  0  0
  3 24  1  0  0  0  0
  3 25  1  0  0  0  0
  3 26  1  0  0  0  0
  4 20  1  0  0  0  0
  4  5  2  0  0  0  0
  5  6  1  0  0  0  0
  5 27  1  0  0  0  0
  6  7  2  0  0  0  0
  6 28  1  0  0  0  0
  7  8  1  0  0  0  0
  7 19  1  0  0  0  0
  8  9  1  0  0  0  0
  8 29  1  0  0  0  0
  9 10  2  0  0  0  0
  9 11  1  0  0  0  0
 11 12  1  0  0  0  0
 11 30  1  0  0  0  0
 12 18  1  0  0  0  0
 12 13  1  0  0  0  0
 12 31  1  0  0  0  0
 13 14  1  0  0  0  0
 13 32  1  0  0  0  0
 13 33  1  0  0  0  0
 14 15  1  0  0  0  0
 14 34  1  0  0  0  0
 14 35  1  0  0  0  0
 15 16  1  0  0  0  0
 15 17  1  0  0  0  0
 15 36  1  0  0  0  0
 16 37  1  0  0  0  0
 17 18  1  0  0  0  0
 17 38  1  0  0  0  0
 17 39  1  0  0  0  0
 18 40  1  0  0  0  0
 18 41  1  0  0  0  0
 19 20  2  0  0  0  0
 19 42  1  0  0  0  0
 20 43  1  0  0  0  0
M  CHG  1  20   1
M  END
> <s_m_source_file>
AV-unprocessed.smi

> <i_m_source_file_index>
967

> <i_lp_mmshare_version>
43012

> <i_f3d_flags>
0

> <s_epik_input>
W0NIM11OKFtDSDNdKWMxW2NIXVtjSF1jKFtjSF1uMSlbTkhdQyg9TylbTkhdW0NAQEhdMltDSDJdW0NIMl1bQ0BASF0oW09IXSlbQ0gyXVtDSDJdMg==

> <s_epik_cmdline>
J2VwaWtfcHl0aG9uJywgJy1waCcsICc3LjAnLCAnLXRuJywgJzgnLCAnLW1hJywgJzIwMCcsICctbWV0YWxfYmluZGluZycsICctaW1hZScsICc8aW5maWxlLm1hZT4nLCAnLW9tYWUnLCAnPG91dGZpbGUubWFlPic=

> <r_lp_tautomer_probability>
0.999994

> <r_epik_Ionization_Penalty>
0.251848

> <r_epik_Ionization_Penalty_Charging>
0.251826

> <r_epik_Ionization_Penalty_Neutral>
2.16844e-05

> <r_epik_State_Penalty>
0.243201

> <r_epik_Charging_Adjusted_Penalty>
0.495027

> <i_epik_Tot_Q>
1

> <i_epik_Tot_abs_Q>
1

> <r_epik_Metal_State_Penalty>
0.534113

> <b_epik_Metal_Only>
0

> <s_lp_Force_Field>
OPLS_2005

> <r_lp_Energy>
22.3095

> <b_lp_Chiralities_Consistent>
1

> <s_lp_Variant>
AV-unprocessed.smi:967-1

> <Gold.Version>
5.8.1

> <Gold.Id.Protein>
6NUR|6NUR_protein|mol2

> <Gold.PLP.Fitness>
46.2348

> <Gold.PLP.PLP>
-35.5633

> <Gold.PLP.part.hbond>
-4.8196

> <Gold.PLP.part.metal>
0.0000

> <Gold.PLP.part.buried>
-3.2933

> <Gold.PLP.part.nonpolar>
-27.2704

> <Gold.PLP.part.repulsive>
0.2679

> <Gold.PLP.ligand.clash>
0.0000

> <Gold.PLP.ligand.torsion>
0.3028

> <Gold.PLP.Chemscore.Hbond>
3.6925

> <Gold.PLP.Chemscore.CHOScore>
0.0000

> <Gold.PLP.Chemscore.Metal>
0.0000

> <Gold.Chemscore.Hbonds>
donor molecule, donor type, donor heavy atom, donor atom, acceptor molecule, acceptor atom, score
      L1  H     8    29       P1  7948  0.78
      L1  H    11    30       P1  7948  0.94
      L1  H    16    37       P1 10186  0.93
      P1  H 10785 10796       L1    16  0.95

> <Gold.PLP.Chemscore.Internal.Correction>
0.1998

> <Gold.Rescore>
     Score         DG    S(hbond)    S(metal)    S(lipo)     H(rot)  DE(clash)    DE(int)     intcor
     14.12     -16.98       2.11        0.00      75.91       1.73       0.07       2.79       ----

> <Gold.Chemscore.Fitness>
14.1214

> <Gold.Chemscore.DG>
-16.9753

> <Gold.Chemscore.ZeroCoef>
-5.4800

> <Gold.Chemscore.Hbond>
2.1084

> <Gold.Chemscore.Metal>
0.0000

> <Gold.Chemscore.Lipo>
75.9121

> <Gold.Chemscore.Internal_Hbond>
0.0000

> <Gold.Chemscore.DEClash>
0.0659

> <Gold.Chemscore.DEInternal>
2.7879

> <Gold.Chemscore.Rot>
1.7299

> <Gold.Chemscore.Internal.Correction>
   9.000000E+99

> <Gold.Chemscore.Hbonds>
donor molecule, donor type, donor heavy atom, donor atom, acceptor molecule, acceptor atom, score
      L1  H     8    29       P1  7948  0.12
      L1  H    11    30       P1  7948  0.88
      L1  H    16    37       P1 10186  0.89
      P1  H 10785 10796       L1    16  0.21

> <Gold.Chemscore.Hbond.Weighted>
-7.0420

> <Gold.Chemscore.Metal.Weighted>
-0.0000

> <Gold.Chemscore.Lipo.Weighted>
-8.8817

> <Gold.Chemscore.Internal_Hbond.Weighted>
0.0000

> <Gold.Chemscore.DEClash.Weighted>
0.0659

> <Gold.Chemscore.DEInternal.Weighted>
2.7879

> <Gold.Chemscore.Rot.Weighted>
4.4285

> <Gold.Chemscore.Internal.Correction.Weighted>
   9.000000E+99

> <Gold.Protein.RotatedTorsions>
[ 6907 6896 6895 6894 ] final -175.17 input  -60.11 | X-H torsion
[ 7974 7965 7964 7962 ] final   86.63 input  175.53 | X-H torsion
[ 8008 7997 7996 7995 ] final   45.99 input   59.86 | X-H torsion
[ 10167 10162 10161 10158 ] final  120.53 input  -65.29 | X-H torsion
[ 10718 10713 10712 10709 ] final -126.59 input   66.30 | X-H torsion
[ 10763 10752 10751 10750 ] final  -41.76 input  -60.55 | X-H torsion
[ 11005 11000 10999 10996 ] final -130.67 input  -57.11 | X-H torsion

> <Gold.Protein.ActiveResidues>
 VAL166  LYS551  ARG553  GLY616  TRP617  ASP618  TYR619  PRO620  LYS621  CYS622 
 ASP623  PHE694  ASN695  SER759  ASP760  ASP761  ALA762  ILE779  LEU786  VAL792 
 PHE793  MET794  SER795  GLU796  ALA797  LYS798  CYS799  TRP800  GLU811  SER814 

> <Gold.Protein.RotatedAtoms>
  151.5842  133.3374  159.3014 H   0  0  0  0  0  0  0  0  0  0  0  0  # atno 6907 bound_to 6896
  150.8296  134.7546  159.6854 H   0  0  0  0  0  0  0  0  0  0  0  0  # atno 6908 bound_to 6896
  152.4381  134.5652  159.9957 H   0  0  0  0  0  0  0  0  0  0  0  0  # atno 6909 bound_to 6896
  145.5698  139.2312  143.2413 H   0  0  0  0  0  0  0  0  0  0  0  0  # atno 7974 bound_to 7965
  155.3450  140.3410  155.4239 H   0  0  0  0  0  0  0  0  0  0  0  0  # atno 8008 bound_to 7997
  156.1793  140.1658  156.8339 H   0  0  0  0  0  0  0  0  0  0  0  0  # atno 8009 bound_to 7997
  154.5317  140.0744  156.8338 H   0  0  0  0  0  0  0  0  0  0  0  0  # atno 8010 bound_to 7997
  139.5976  144.7046  151.3139 H   0  0  0  0  0  0  0  0  0  0  0  0  # atno 10167 bound_to 10162
  156.1779  130.6712  151.0267 H   0  0  0  0  0  0  0  0  0  0  0  0  # atno 10718 bound_to 10713
  153.9678  135.6732  153.4746 H   0  0  0  0  0  0  0  0  0  0  0  0  # atno 10763 bound_to 10752
  153.0807  135.4925  154.8494 H   0  0  0  0  0  0  0  0  0  0  0  0  # atno 10764 bound_to 10752
  154.7236  135.3122  154.8968 H   0  0  0  0  0  0  0  0  0  0  0  0  # atno 10765 bound_to 10752
  140.9326  134.1300  157.4222 H   0  0  0  0  0  0  0  0  0  0  0  0  # atno 11005 bound_to 11000
  146.1792  140.6524  142.9197 LP  0  0  0  0  0  0  0  0  0  0  0  0  # atno 17320 bound_to 7965
  144.7443  140.5027  143.6847 LP  0  0  0  0  0  0  0  0  0  0  0  0  # atno 17321 bound_to 7965
  140.7224  143.7098  150.7778 LP  0  0  0  0  0  0  0  0  0  0  0  0  # atno 17342 bound_to 10162
  140.0668  143.5101  152.2600 LP  0  0  0  0  0  0  0  0  0  0  0  0  # atno 17343 bound_to 10162
  157.6848  131.0828  150.7271 LP  0  0  0  0  0  0  0  0  0  0  0  0  # atno 17370 bound_to 10713
  156.7329  130.4715  149.5495 LP  0  0  0  0  0  0  0  0  0  0  0  0  # atno 17371 bound_to 10713
  139.8800  135.0010  156.6042 LP  0  0  0  0  0  0  0  0  0  0  0  0  # atno 17394 bound_to 11000
  140.7842  133.8635  155.8593 LP  0  0  0  0  0  0  0  0  0  0  0  0  # atno 17395 bound_to 11000

$$$$
