AV-unprocessed.smi:3311|AV-procd|sdf|12723|dock6
  -GOLD-   2272019 63D 1   1.00000     0.00000
 Structure written by MMmdl.
 43 44  0  0  0  0  0  0  0  0  1 V2000
  152.1623  139.7775  158.4449 C   0  0  0  0  0  0  0  0  0  0  0  0
  151.5544  141.1651  158.7129 C   0  0  2  0  0  0  0  0  0  0  0  0
  150.6512  141.4821  157.6014 N   0  0  0  0  0  0  0  0  0  0  0  0
  149.3969  140.7253  157.5888 C   0  0  0  0  0  0  0  0  0  0  0  0
  148.4681  141.1326  156.4233 C   0  0  0  0  0  0  0  0  0  0  0  0
  147.8364  142.3418  156.8037 O   0  0  0  0  0  0  0  0  0  0  0  0
  149.2299  141.3353  155.0890 C   0  0  0  0  0  0  0  0  0  0  0  0
  148.2922  141.6032  153.8983 C   0  0  0  0  0  0  0  0  0  0  0  0
  147.2344  140.5006  153.7563 C   0  0  0  0  0  0  0  0  0  0  0  0
  146.4344  140.3369  155.0559 C   0  0  0  0  0  0  0  0  0  0  0  0
  147.3624  140.0639  156.2533 C   0  0  0  0  0  0  0  0  0  0  0  0
  152.6488  142.2595  158.8838 C   0  0  2  0  0  0  0  0  0  0  0  0
  153.7126  141.9020  159.9390 C   0  0  0  0  0  0  0  0  0  0  0  0
  152.0771  143.5639  159.1981 N   0  0  0  0  0  0  0  0  0  0  0  0
  152.2542  144.3385  160.3282 C   0  0  0  0  0  0  0  0  0  0  0  0
  151.4919  145.4614  160.1777 C   0  0  0  0  0  0  0  0  0  0  0  0
  150.8721  145.2811  158.9101 C   0  0  0  0  0  0  0  0  0  0  0  0
  151.2253  144.1481  158.3263 N   0  0  0  0  0  0  0  0  0  0  0  0
  152.7349  139.4141  159.2978 H   0  0  0  0  0  0  0  0  0  0  0  0
  152.8223  139.7919  157.5770 H   0  0  0  0  0  0  0  0  0  0  0  0
  151.3816  139.0399  158.2547 H   0  0  0  0  0  0  0  0  0  0  0  0
  150.9804  141.0888  159.6379 H   0  0  0  0  0  0  0  0  0  0  0  0
  150.4305  142.4731  157.6254 H   0  0  0  0  0  0  0  0  0  0  0  0
  149.6275  139.6621  157.5141 H   0  0  0  0  0  0  0  0  0  0  0  0
  148.8595  140.8480  158.5273 H   0  0  0  0  0  0  0  0  0  0  0  0
  148.1477  143.0317  156.2383 H   0  0  0  0  0  0  0  0  0  0  0  0
  149.9402  142.1587  155.1722 H   0  0  0  0  0  0  0  0  0  0  0  0
  149.8226  140.4445  154.8768 H   0  0  0  0  0  0  0  0  0  0  0  0
  147.8005  142.5684  154.0260 H   0  0  0  0  0  0  0  0  0  0  0  0
  148.8751  141.6771  152.9799 H   0  0  0  0  0  0  0  0  0  0  0  0
  146.5609  140.7346  152.9313 H   0  0  0  0  0  0  0  0  0  0  0  0
  147.7197  139.5572  153.5027 H   0  0  0  0  0  0  0  0  0  0  0  0
  145.8449  141.2356  155.2401 H   0  0  0  0  0  0  0  0  0  0  0  0
  145.7202  139.5201  154.9491 H   0  0  0  0  0  0  0  0  0  0  0  0
  147.8278  139.0872  156.1129 H   0  0  0  0  0  0  0  0  0  0  0  0
  146.7695  139.9848  157.1658 H   0  0  0  0  0  0  0  0  0  0  0  0
  153.1734  142.3566  157.9308 H   0  0  0  0  0  0  0  0  0  0  0  0
  154.3077  141.0412  159.6359 H   0  0  0  0  0  0  0  0  0  0  0  0
  153.2588  141.6730  160.9034 H   0  0  0  0  0  0  0  0  0  0  0  0
  154.4085  142.7285  160.0868 H   0  0  0  0  0  0  0  0  0  0  0  0
  152.8956  144.0270  161.1391 H   0  0  0  0  0  0  0  0  0  0  0  0
  151.3883  146.2837  160.8699 H   0  0  0  0  0  0  0  0  0  0  0  0
  150.1797  145.9346  158.4002 H   0  0  0  0  0  0  0  0  0  0  0  0
  1  2  1  0  0  0  0
  1 19  1  0  0  0  0
  1 20  1  0  0  0  0
  1 21  1  0  0  0  0
  2  3  1  0  0  0  0
  2 12  1  0  0  0  0
  2 22  1  0  0  0  0
  3  4  1  0  0  0  0
  3 23  1  0  0  0  0
  4  5  1  0  0  0  0
  4 24  1  0  0  0  0
  4 25  1  0  0  0  0
  5 11  1  0  0  0  0
  5  6  1  0  0  0  0
  5  7  1  0  0  0  0
  6 26  1  0  0  0  0
  7  8  1  0  0  0  0
  7 27  1  0  0  0  0
  7 28  1  0  0  0  0
  8  9  1  0  0  0  0
  8 29  1  0  0  0  0
  8 30  1  0  0  0  0
  9 10  1  0  0  0  0
  9 31  1  0  0  0  0
  9 32  1  0  0  0  0
 10 11  1  0  0  0  0
 10 33  1  0  0  0  0
 10 34  1  0  0  0  0
 11 35  1  0  0  0  0
 11 36  1  0  0  0  0
 12 13  1  0  0  0  0
 12 14  1  0  0  0  0
 12 37  1  0  0  0  0
 13 38  1  0  0  0  0
 13 39  1  0  0  0  0
 13 40  1  0  0  0  0
 14 18  1  0  0  0  0
 14 15  1  0  0  0  0
 15 16  2  0  0  0  0
 15 41  1  0  0  0  0
 16 17  1  0  0  0  0
 16 42  1  0  0  0  0
 17 18  2  0  0  0  0
 17 43  1  0  0  0  0
M  END
> <s_m_source_file>
AV-unprocessed.smi

> <i_m_source_file_index>
3311

> <i_lp_mmshare_version>
43012

> <i_f3d_flags>
0

> <s_epik_input>
bjFbY0hdW2NIXVtjSF1uMVtDQEBIXShbQ0gzXSlbQ0BIXShbQ0gzXSlbTkhdW0NIMl1DMihbT0hdKVtDSDJdW0NIMl1bQ0gyXVtDSDJdW0NIMl0y

> <s_epik_cmdline>
J2VwaWtfcHl0aG9uJywgJy1waCcsICc3LjAnLCAnLXRuJywgJzgnLCAnLW1hJywgJzIwMCcsICctbWV0YWxfYmluZGluZycsICctaW1hZScsICc8aW5maWxlLm1hZT4nLCAnLW9tYWUnLCAnPG91dGZpbGUubWFlPic=

> <r_lp_tautomer_probability>
1

> <r_epik_Ionization_Penalty>
2.222

> <r_epik_Ionization_Penalty_Charging>
0

> <r_epik_Ionization_Penalty_Neutral>
2.222

> <r_epik_State_Penalty>
2.36562

> <r_epik_Charging_Adjusted_Penalty>
2.36562

> <i_epik_Tot_Q>
0

> <i_epik_Tot_abs_Q>
0

> <r_epik_Metal_State_Penalty>
2.36435

> <b_epik_Metal_Only>
0

> <s_lp_Force_Field>
OPLS_2005

> <r_lp_Energy>
30.3398

> <b_lp_Chiralities_Consistent>
1

> <s_lp_Variant>
AV-unprocessed.smi:3311-5

> <Gold.Version>
5.8.1

> <Gold.Id.Protein>
6NUR|6NUR_protein|mol2

> <Gold.PLP.Fitness>
42.1264

> <Gold.PLP.PLP>
-36.8594

> <Gold.PLP.part.hbond>
-1.0000

> <Gold.PLP.part.metal>
0.0000

> <Gold.PLP.part.buried>
-4.3806

> <Gold.PLP.part.nonpolar>
-31.0568

> <Gold.PLP.part.repulsive>
0.1364

> <Gold.PLP.ligand.clash>
0.0000

> <Gold.PLP.ligand.torsion>
0.4037

> <Gold.PLP.Chemscore.Hbond>
1.0000

> <Gold.PLP.Chemscore.CHOScore>
1.0000

> <Gold.PLP.Chemscore.Metal>
0.0000

> <Gold.Chemscore.Hbonds>
donor molecule, donor type, donor heavy atom, donor atom, acceptor molecule, acceptor atom, score
      L1  H     6    26       P1  8028  1.00
      L1  C    17    43       P1  8029  1.00

> <Gold.PLP.Chemscore.Internal.Correction>
0.0743

> <Gold.Rescore>
     Score         DG    S(hbond)    S(metal)    S(lipo)     H(rot)  DE(clash)    DE(int)     intcor
     12.83     -14.70       0.83        0.00     100.35       2.07       0.13       1.74       ----

> <Gold.Chemscore.Fitness>
12.8266

> <Gold.Chemscore.DG>
-14.6969

> <Gold.Chemscore.ZeroCoef>
-5.4800

> <Gold.Chemscore.Hbond>
0.8299

> <Gold.Chemscore.Metal>
0.0000

> <Gold.Chemscore.Lipo>
100.3475

> <Gold.Chemscore.Internal_Hbond>
0.0000

> <Gold.Chemscore.DEClash>
0.1309

> <Gold.Chemscore.DEInternal>
1.7394

> <Gold.Chemscore.Rot>
2.0686

> <Gold.Chemscore.Internal.Correction>
   9.000000E+99

> <Gold.Chemscore.Hbonds>
donor molecule, donor type, donor heavy atom, donor atom, acceptor molecule, acceptor atom, score
      L1  H     6    26       P1  8028  0.60

> <Gold.Chemscore.Hbond.Weighted>
-2.7719

> <Gold.Chemscore.Metal.Weighted>
-0.0000

> <Gold.Chemscore.Lipo.Weighted>
-11.7407

> <Gold.Chemscore.Internal_Hbond.Weighted>
0.0000

> <Gold.Chemscore.DEClash.Weighted>
0.1309

> <Gold.Chemscore.DEInternal.Weighted>
1.7394

> <Gold.Chemscore.Rot.Weighted>
5.2957

> <Gold.Chemscore.Internal.Correction.Weighted>
   9.000000E+99

> <Gold.Protein.RotatedTorsions>
[ 6907 6896 6895 6894 ] final    9.51 input  -60.11 | X-H torsion
[ 7974 7965 7964 7962 ] final  176.35 input  175.53 | X-H torsion
[ 8008 7997 7996 7995 ] final -175.38 input   59.86 | X-H torsion
[ 10167 10162 10161 10158 ] final   68.98 input  -65.29 | X-H torsion
[ 10718 10713 10712 10709 ] final   29.15 input   66.30 | X-H torsion
[ 10763 10752 10751 10750 ] final -148.26 input  -60.55 | X-H torsion
[ 11005 11000 10999 10996 ] final   -4.83 input  -57.11 | X-H torsion

> <Gold.Protein.ActiveResidues>
 VAL166  LYS551  ARG553  GLY616  TRP617  ASP618  TYR619  PRO620  LYS621  CYS622 
 ASP623  PHE694  ASN695  SER759  ASP760  ASP761  ALA762  ILE779  LEU786  VAL792 
 PHE793  MET794  SER795  GLU796  ALA797  LYS798  CYS799  TRP800  GLU811  SER814 

> <Gold.Protein.RotatedAtoms>
  151.7233  135.0890  160.0287 H   0  0  0  0  0  0  0  0  0  0  0  0  # atno 6907 bound_to 6896
  152.3588  133.6266  159.6008 H   0  0  0  0  0  0  0  0  0  0  0  0  # atno 6908 bound_to 6896
  150.7590  133.9373  159.3487 H   0  0  0  0  0  0  0  0  0  0  0  0  # atno 6909 bound_to 6896
  144.7186  140.0083  143.6440 H   0  0  0  0  0  0  0  0  0  0  0  0  # atno 7974 bound_to 7965
  155.9819  140.1183  157.0718 H   0  0  0  0  0  0  0  0  0  0  0  0  # atno 8008 bound_to 7997
  154.4185  140.1143  156.5515 H   0  0  0  0  0  0  0  0  0  0  0  0  # atno 8009 bound_to 7997
  155.6459  140.3473  155.4733 H   0  0  0  0  0  0  0  0  0  0  0  0  # atno 8010 bound_to 7997
  140.0727  144.5139  150.7216 H   0  0  0  0  0  0  0  0  0  0  0  0  # atno 10167 bound_to 10162
  157.2428  130.7077  149.6367 H   0  0  0  0  0  0  0  0  0  0  0  0  # atno 10718 bound_to 10713
  154.8242  135.3339  154.6946 H   0  0  0  0  0  0  0  0  0  0  0  0  # atno 10763 bound_to 10752
  153.7575  135.6935  153.4937 H   0  0  0  0  0  0  0  0  0  0  0  0  # atno 10764 bound_to 10752
  153.2133  135.4474  155.0355 H   0  0  0  0  0  0  0  0  0  0  0  0  # atno 10765 bound_to 10752
  140.6845  133.9124  155.8577 H   0  0  0  0  0  0  0  0  0  0  0  0  # atno 11005 bound_to 11000
  146.0279  139.3309  143.0773 LP  0  0  0  0  0  0  0  0  0  0  0  0  # atno 17320 bound_to 7965
  145.8488  140.9540  143.0760 LP  0  0  0  0  0  0  0  0  0  0  0  0  # atno 17321 bound_to 7965
  140.7117  143.2511  151.4560 LP  0  0  0  0  0  0  0  0  0  0  0  0  # atno 17342 bound_to 10162
  139.5826  144.1675  152.1988 LP  0  0  0  0  0  0  0  0  0  0  0  0  # atno 17343 bound_to 10162
  155.9669  130.4452  150.5494 LP  0  0  0  0  0  0  0  0  0  0  0  0  # atno 17370 bound_to 10713
  157.3360  131.0708  151.1824 LP  0  0  0  0  0  0  0  0  0  0  0  0  # atno 17371 bound_to 10713
  141.0291  134.0782  157.4035 LP  0  0  0  0  0  0  0  0  0  0  0  0  # atno 17394 bound_to 11000
  139.8941  135.0134  156.6936 LP  0  0  0  0  0  0  0  0  0  0  0  0  # atno 17395 bound_to 11000

$$$$
