AV-unprocessed.smi:2071|AV-procd|sdf|8440|dock4
  -GOLD-   2272011143D 1   1.00000     0.00000
 Structure written by MMmdl.
 45 47  0  0  0  0  0  0  0  0  1 V2000
  150.2924  140.4862  156.5070 O   0  0  0  0  0  0  0  0  0  0  0  0
  149.9381  141.6163  156.1725 C   0  0  0  0  0  0  0  0  0  0  0  0
  149.0915  141.8552  155.1608 N   0  0  0  0  0  0  0  0  0  0  0  0
  148.4836  140.8325  154.3174 C   0  0  0  0  0  0  0  0  0  0  0  0
  147.1038  141.2727  153.8039 C   0  0  0  0  0  0  0  0  0  0  0  0
  147.0035  142.7969  153.6258 C   0  0  0  0  0  0  0  0  0  0  0  0
  145.8888  143.3527  154.3979 N   0  0  0  0  0  0  0  0  0  0  0  0
  145.6306  143.0478  155.6827 C   0  0  0  0  0  0  0  0  0  0  0  0
  146.2614  142.2628  156.3891 O   0  0  0  0  0  0  0  0  0  0  0  0
  144.5619  143.7512  156.0785 N   0  0  0  0  0  0  0  0  0  0  0  0
  144.0394  144.6099  155.0345 C   0  0  0  0  0  0  0  0  0  0  0  0
  144.0472  146.0993  155.4021 C   0  0  0  0  0  0  0  0  0  0  0  0
  143.0115  146.7435  154.4705 C   0  0  0  0  0  0  0  0  0  0  0  0
  142.0632  145.6165  154.0224 C   0  0  0  0  0  0  0  0  0  0  0  0
  142.5759  144.3235  154.6736 C   0  0  0  0  0  0  0  0  0  0  0  0
  145.0212  144.2564  153.9231 C   0  0  0  0  0  0  0  0  0  0  0  0
  144.9988  144.7434  152.7921 O   0  0  0  0  0  0  0  0  0  0  0  0
  150.3217  142.7615  156.7629 N   0  0  0  0  0  0  0  0  0  0  0  0
  151.2056  142.9474  157.8609 C   0  0  0  0  0  0  0  0  0  0  0  0
  151.7905  141.8956  158.6077 C   0  0  0  0  0  0  0  0  0  0  0  0
  152.6637  142.2163  159.6652 C   0  0  0  0  0  0  0  0  0  0  0  0
  152.9264  143.5735  159.9332 C   0  0  0  0  0  0  0  0  0  0  0  0
  152.3866  144.5856  159.2226 N   0  0  0  0  0  0  0  0  0  0  0  0
  151.5502  144.2705  158.2106 C   0  0  0  0  0  0  0  0  0  0  0  0
  148.8501  142.8143  154.9579 H   0  0  0  0  0  0  0  0  0  0  0  0
  149.1442  140.5913  153.4828 H   0  0  0  0  0  0  0  0  0  0  0  0
  148.3858  139.9218  154.9085 H   0  0  0  0  0  0  0  0  0  0  0  0
  146.8976  140.7797  152.8528 H   0  0  0  0  0  0  0  0  0  0  0  0
  146.3315  140.9386  154.4983 H   0  0  0  0  0  0  0  0  0  0  0  0
  147.9392  143.2684  153.9313 H   0  0  0  0  0  0  0  0  0  0  0  0
  146.8819  143.0415  152.5692 H   0  0  0  0  0  0  0  0  0  0  0  0
  144.1604  143.7065  157.0039 H   0  0  0  0  0  0  0  0  0  0  0  0
  143.7348  146.2257  156.4397 H   0  0  0  0  0  0  0  0  0  0  0  0
  145.0301  146.5621  155.3012 H   0  0  0  0  0  0  0  0  0  0  0  0
  142.4770  147.5520  154.9699 H   0  0  0  0  0  0  0  0  0  0  0  0
  143.5077  147.1728  153.5992 H   0  0  0  0  0  0  0  0  0  0  0  0
  141.0305  145.8185  154.3086 H   0  0  0  0  0  0  0  0  0  0  0  0
  142.0864  145.5264  152.9356 H   0  0  0  0  0  0  0  0  0  0  0  0
  142.4562  143.4611  154.0158 H   0  0  0  0  0  0  0  0  0  0  0  0
  142.0042  144.1196  155.5803 H   0  0  0  0  0  0  0  0  0  0  0  0
  149.8890  143.6036  156.4127 H   0  0  0  0  0  0  0  0  0  0  0  0
  151.6018  140.8567  158.3876 H   0  0  0  0  0  0  0  0  0  0  0  0
  153.1251  141.4379  160.2550 H   0  0  0  0  0  0  0  0  0  0  0  0
  153.5918  143.8530  160.7366 H   0  0  0  0  0  0  0  0  0  0  0  0
  151.1387  145.1065  157.6634 H   0  0  0  0  0  0  0  0  0  0  0  0
  1  2  2  0  0  0  0
  2  3  1  0  0  0  0
  2 18  1  0  0  0  0
  3  4  1  0  0  0  0
  3 25  1  0  0  0  0
  4  5  1  0  0  0  0
  4 26  1  0  0  0  0
  4 27  1  0  0  0  0
  5  6  1  0  0  0  0
  5 28  1  0  0  0  0
  5 29  1  0  0  0  0
  6  7  1  0  0  0  0
  6 30  1  0  0  0  0
  6 31  1  0  0  0  0
  7 16  1  0  0  0  0
  7  8  1  0  0  0  0
  8  9  2  0  0  0  0
  8 10  1  0  0  0  0
 10 11  1  0  0  0  0
 10 32  1  0  0  0  0
 11 15  1  0  0  0  0
 11 12  1  0  0  0  0
 11 16  1  0  0  0  0
 12 13  1  0  0  0  0
 12 33  1  0  0  0  0
 12 34  1  0  0  0  0
 13 14  1  0  0  0  0
 13 35  1  0  0  0  0
 13 36  1  0  0  0  0
 14 15  1  0  0  0  0
 14 37  1  0  0  0  0
 14 38  1  0  0  0  0
 15 39  1  0  0  0  0
 15 40  1  0  0  0  0
 16 17  2  0  0  0  0
 18 19  1  0  0  0  0
 18 41  1  0  0  0  0
 19 24  1  0  0  0  0
 19 20  2  0  0  0  0
 20 21  1  0  0  0  0
 20 42  1  0  0  0  0
 21 22  2  0  0  0  0
 21 43  1  0  0  0  0
 22 23  1  0  0  0  0
 22 44  1  0  0  0  0
 23 24  2  0  0  0  0
 24 45  1  0  0  0  0
M  END
> <s_m_source_file>
AV-unprocessed.smi

> <i_m_source_file_index>
2071

> <i_lp_mmshare_version>
43012

> <i_f3d_flags>
0

> <s_epik_input>
W2NIXTFuW2NIXVtjSF1bY0hdYzFbTkhdQyg9TylbTkhdW0NIMl1bQ0gyXVtDSDJdTihDMj1PKUMoPU8pW05IXUMyM1tDSDJdW0NIMl1bQ0gyXVtDSDJdMw==

> <s_epik_cmdline>
J2VwaWtfcHl0aG9uJywgJy1waCcsICc3LjAnLCAnLXRuJywgJzgnLCAnLW1hJywgJzIwMCcsICctbWV0YWxfYmluZGluZycsICctaW1hZScsICc8aW5maWxlLm1hZT4nLCAnLW9tYWUnLCAnPG91dGZpbGUubWFlPic=

> <r_lp_tautomer_probability>
1

> <r_epik_Ionization_Penalty>
0.00482956

> <r_epik_Ionization_Penalty_Charging>
0

> <r_epik_Ionization_Penalty_Neutral>
0.00482956

> <r_epik_State_Penalty>
0.00344413

> <r_epik_Charging_Adjusted_Penalty>
0.00344413

> <i_epik_Tot_Q>
0

> <i_epik_Tot_abs_Q>
0

> <r_epik_Metal_State_Penalty>
0.0123255

> <b_epik_Metal_Only>
0

> <s_lp_Force_Field>
OPLS_2005

> <r_lp_Energy>
39.9018

> <b_lp_Chiralities_Consistent>
1

> <s_lp_Variant>
AV-unprocessed.smi:2071-1

> <Gold.Version>
5.8.1

> <Gold.Id.Protein>
6NUR|6NUR_protein|mol2

> <Gold.PLP.Fitness>
49.8826

> <Gold.PLP.PLP>
-45.8309

> <Gold.PLP.part.hbond>
-2.0000

> <Gold.PLP.part.metal>
0.0000

> <Gold.PLP.part.buried>
-9.8342

> <Gold.PLP.part.nonpolar>
-35.5301

> <Gold.PLP.part.repulsive>
0.5308

> <Gold.PLP.ligand.clash>
0.0000

> <Gold.PLP.ligand.torsion>
0.9215

> <Gold.PLP.Chemscore.Hbond>
1.9600

> <Gold.PLP.Chemscore.CHOScore>
0.0000

> <Gold.PLP.Chemscore.Metal>
0.0000

> <Gold.Chemscore.Hbonds>
donor molecule, donor type, donor heavy atom, donor atom, acceptor molecule, acceptor atom, score
      L1  H     3    25       P1  8028  0.93
      L1  H    18    41       P1  8028  1.00

> <Gold.PLP.Chemscore.Internal.Correction>
0.0148

> <Gold.Rescore>
     Score         DG    S(hbond)    S(metal)    S(lipo)     H(rot)  DE(clash)    DE(int)     intcor
     15.72     -19.20       1.93        0.00     105.10       1.96       0.24       3.23       ----

> <Gold.Chemscore.Fitness>
15.7240

> <Gold.Chemscore.DG>
-19.1997

> <Gold.Chemscore.ZeroCoef>
-5.4800

> <Gold.Chemscore.Hbond>
1.9311

> <Gold.Chemscore.Metal>
0.0000

> <Gold.Chemscore.Lipo>
105.0963

> <Gold.Chemscore.Internal_Hbond>
0.0000

> <Gold.Chemscore.DEClash>
0.2421

> <Gold.Chemscore.DEInternal>
3.2336

> <Gold.Chemscore.Rot>
1.9634

> <Gold.Chemscore.Internal.Correction>
   9.000000E+99

> <Gold.Chemscore.Hbonds>
donor molecule, donor type, donor heavy atom, donor atom, acceptor molecule, acceptor atom, score
      L1  H     3    25       P1  8028  0.85
      L1  H    18    41       P1  8028  1.00

> <Gold.Chemscore.Hbond.Weighted>
-6.4497

> <Gold.Chemscore.Metal.Weighted>
-0.0000

> <Gold.Chemscore.Lipo.Weighted>
-12.2963

> <Gold.Chemscore.Internal_Hbond.Weighted>
0.0000

> <Gold.Chemscore.DEClash.Weighted>
0.2421

> <Gold.Chemscore.DEInternal.Weighted>
3.2336

> <Gold.Chemscore.Rot.Weighted>
5.0263

> <Gold.Chemscore.Internal.Correction.Weighted>
   9.000000E+99

> <Gold.Protein.RotatedTorsions>
[ 6907 6896 6895 6894 ] final -134.49 input  -60.11 | X-H torsion
[ 7974 7965 7964 7962 ] final  128.64 input  175.53 | X-H torsion
[ 8008 7997 7996 7995 ] final   22.93 input   59.86 | X-H torsion
[ 10167 10162 10161 10158 ] final  -24.87 input  -65.29 | X-H torsion
[ 10718 10713 10712 10709 ] final  -15.74 input   66.30 | X-H torsion
[ 10763 10752 10751 10750 ] final  169.42 input  -60.55 | X-H torsion
[ 11005 11000 10999 10996 ] final    2.52 input  -57.11 | X-H torsion

> <Gold.Protein.ActiveResidues>
 VAL166  LYS551  ARG553  GLY616  TRP617  ASP618  TYR619  PRO620  LYS621  CYS622 
 ASP623  PHE694  ASN695  SER759  ASP760  ASP761  ALA762  ILE779  LEU786  VAL792 
 PHE793  MET794  SER795  GLU796  ALA797  LYS798  CYS799  TRP800  GLU811  SER814 

> <Gold.Protein.RotatedAtoms>
  150.9865  133.6193  159.2714 H   0  0  0  0  0  0  0  0  0  0  0  0  # atno 6907 bound_to 6896
  151.3429  135.0866  159.9387 H   0  0  0  0  0  0  0  0  0  0  0  0  # atno 6908 bound_to 6896
  152.5232  133.9472  159.7709 H   0  0  0  0  0  0  0  0  0  0  0  0  # atno 6909 bound_to 6896
  145.0373  139.3993  143.5119 H   0  0  0  0  0  0  0  0  0  0  0  0  # atno 7974 bound_to 7965
  154.9731  140.3092  155.4979 H   0  0  0  0  0  0  0  0  0  0  0  0  # atno 8008 bound_to 7997
  156.2963  140.2280  156.4764 H   0  0  0  0  0  0  0  0  0  0  0  0  # atno 8009 bound_to 7997
  154.7858  140.0443  157.1151 H   0  0  0  0  0  0  0  0  0  0  0  0  # atno 8010 bound_to 7997
  140.7287  143.4314  151.0795 H   0  0  0  0  0  0  0  0  0  0  0  0  # atno 10167 bound_to 10162
  156.5975  130.4815  149.6253 H   0  0  0  0  0  0  0  0  0  0  0  0  # atno 10718 bound_to 10713
  154.3829  135.2753  155.2201 H   0  0  0  0  0  0  0  0  0  0  0  0  # atno 10763 bound_to 10752
  154.4300  135.5979  153.6066 H   0  0  0  0  0  0  0  0  0  0  0  0  # atno 10764 bound_to 10752
  152.9834  135.5993  154.4074 H   0  0  0  0  0  0  0  0  0  0  0  0  # atno 10765 bound_to 10752
  140.6033  133.9815  155.8142 H   0  0  0  0  0  0  0  0  0  0  0  0  # atno 11005 bound_to 11000
  146.3505  139.9956  142.8681 LP  0  0  0  0  0  0  0  0  0  0  0  0  # atno 17320 bound_to 7965
  145.1693  140.9712  143.4331 LP  0  0  0  0  0  0  0  0  0  0  0  0  # atno 17321 bound_to 7965
  139.7972  143.8135  152.3159 LP  0  0  0  0  0  0  0  0  0  0  0  0  # atno 17342 bound_to 10162
  139.8139  144.7324  150.9661 LP  0  0  0  0  0  0  0  0  0  0  0  0  # atno 17343 bound_to 10162
  156.2497  130.6900  151.1633 LP  0  0  0  0  0  0  0  0  0  0  0  0  # atno 17370 bound_to 10713
  157.7288  131.0629  150.5803 LP  0  0  0  0  0  0  0  0  0  0  0  0  # atno 17371 bound_to 10713
  141.0857  133.9994  157.3317 LP  0  0  0  0  0  0  0  0  0  0  0  0  # atno 17394 bound_to 11000
  139.9223  135.0201  156.8108 LP  0  0  0  0  0  0  0  0  0  0  0  0  # atno 17395 bound_to 11000

$$$$
