AV-unprocessed.smi:779|AV-procd|sdf|3704|dock4
  -GOLD-   22720 1123D 1   1.00000     0.00000
 Structure written by MMmdl.
 21 21  0  0  0  0  0  0  0  0  2 V2000
  152.7785  139.9021  154.7227 O   0  0  0  0  0  0  0  0  0  0  0  0
  152.5408  138.6739  154.7011 C   0  0  0  0  0  0  0  0  0  0  0  0
  153.4025  137.7670  154.7335 O   0  5  0  0  0  0  0  0  0  0  0  0
  151.0025  138.2806  154.6189 C   0  0  0  0  0  0  0  0  0  0  0  0
  150.0228  139.1415  154.2361 C   0  0  0  0  0  0  0  0  0  0  0  0
  148.6829  138.7955  154.1604 N   0  0  0  0  0  0  0  0  0  0  0  0
  147.6664  139.7238  153.7301 C   0  0  0  0  0  0  0  0  0  0  0  0
  146.7918  139.1624  152.5967 C   0  0  0  0  0  0  0  0  0  0  0  0
  147.5894  138.4212  151.6990 O   0  0  0  0  0  0  0  0  0  0  0  0
  148.2823  137.4797  154.4767 C   0  0  0  0  0  0  0  0  0  0  0  0
  147.1146  137.0938  154.4136 O   0  0  0  0  0  0  0  0  0  0  0  0
  149.2849  136.5971  154.8731 N   0  0  0  0  0  0  0  0  0  0  0  0
  150.6487  136.8901  154.9780 C   0  0  0  0  0  0  0  0  0  0  0  0
  151.4010  135.9888  155.3478 O   0  0  0  0  0  0  0  0  0  0  0  0
  149.0018  135.6562  155.1043 H   0  0  0  0  0  0  0  0  0  0  0  0
  150.2948  140.1533  153.9708 H   0  0  0  0  0  0  0  0  0  0  0  0
  147.0862  140.0146  154.6088 H   0  0  0  0  0  0  0  0  0  0  0  0
  148.1949  140.6213  153.4046 H   0  0  0  0  0  0  0  0  0  0  0  0
  146.0159  138.5102  152.9988 H   0  0  0  0  0  0  0  0  0  0  0  0
  146.2938  139.9630  152.0492 H   0  0  0  0  0  0  0  0  0  0  0  0
  147.9795  137.7006  152.1697 H   0  0  0  0  0  0  0  0  0  0  0  0
  1  2  2  0  0  0  0
  2  3  1  0  0  0  0
  2  4  1  0  0  0  0
  4 13  1  0  0  0  0
  4  5  2  0  0  0  0
  5  6  1  0  0  0  0
  5 16  1  0  0  0  0
  6  7  1  0  0  0  0
  6 10  1  0  0  0  0
  7  8  1  0  0  0  0
  7 17  1  0  0  0  0
  7 18  1  0  0  0  0
  8  9  1  0  0  0  0
  8 19  1  0  0  0  0
  8 20  1  0  0  0  0
  9 21  1  0  0  0  0
 10 11  2  0  0  0  0
 10 12  1  0  0  0  0
 12 15  1  0  0  0  0
 12 13  1  0  0  0  0
 13 14  2  0  0  0  0
M  CHG  1   3  -1
M  END
> <s_m_source_file>
AV-unprocessed.smi

> <i_m_source_file_index>
779

> <i_lp_mmshare_version>
43012

> <i_f3d_flags>
0

> <s_epik_input>
Tz1DKFtPSF0pYzFbY0hdbihbQ0gyXVtDSDJdW09IXSljKD1PKVtuSF1jMT1P

> <s_epik_cmdline>
J2VwaWtfcHl0aG9uJywgJy1waCcsICc3LjAnLCAnLXRuJywgJzgnLCAnLW1hJywgJzIwMCcsICctbWV0YWxfYmluZGluZycsICctaW1hZScsICc8aW5maWxlLm1hZT4nLCAnLW9tYWUnLCAnPG91dGZpbGUubWFlPic=

> <r_lp_tautomer_probability>
1

> <r_epik_Ionization_Penalty>
0.00105006

> <r_epik_Ionization_Penalty_Charging>
0.0010499

> <r_epik_Ionization_Penalty_Neutral>
1.56052e-07

> <r_epik_State_Penalty>
-0

> <r_epik_Charging_Adjusted_Penalty>
0.0010499

> <i_epik_Tot_Q>
-1

> <i_epik_Tot_abs_Q>
1

> <r_epik_Metal_State_Penalty>
0.521421

> <b_epik_Metal_Only>
0

> <s_lp_Force_Field>
OPLS_2005

> <r_lp_Energy>
14.2726

> <b_lp_Chiralities_Consistent>
1

> <s_lp_Variant>
AV-unprocessed.smi:779-1

> <Gold.Version>
5.8.1

> <Gold.Id.Protein>
6NUR|6NUR_protein|mol2

> <Gold.PLP.Fitness>
39.5901

> <Gold.PLP.PLP>
-24.7943

> <Gold.PLP.part.hbond>
-7.8035

> <Gold.PLP.part.metal>
0.0000

> <Gold.PLP.part.buried>
0.4301

> <Gold.PLP.part.nonpolar>
-16.9381

> <Gold.PLP.part.repulsive>
0.2625

> <Gold.PLP.ligand.clash>
0.0000

> <Gold.PLP.ligand.torsion>
0.3060

> <Gold.PLP.Chemscore.Hbond>
5.1180

> <Gold.PLP.Chemscore.CHOScore>
0.0169

> <Gold.PLP.Chemscore.Metal>
0.0000

> <Gold.Chemscore.Hbonds>
donor molecule, donor type, donor heavy atom, donor atom, acceptor molecule, acceptor atom, score
      L1  H     9    21       P1  7948  0.77
      P1  H  7954  7966       L1     9  0.85
      P1  H  7989  7998       L1     1  0.42
      P1  H  7997  8008       L1     1  1.89
      P1  H 10752 10765       L1    14  1.00
      L1  C     5    16       P1  7957  0.04

> <Gold.PLP.Chemscore.Internal.Correction>
0.0031

> <Gold.Rescore>
     Score         DG    S(hbond)    S(metal)    S(lipo)     H(rot)  DE(clash)    DE(int)     intcor
     10.71     -13.90       3.14        0.00      30.37       2.19       0.14       3.05       ----

> <Gold.Chemscore.Fitness>
10.7133

> <Gold.Chemscore.DG>
-13.8988

> <Gold.Chemscore.ZeroCoef>
-5.4800

> <Gold.Chemscore.Hbond>
3.1354

> <Gold.Chemscore.Metal>
0.0000

> <Gold.Chemscore.Lipo>
30.3720

> <Gold.Chemscore.Internal_Hbond>
0.0000

> <Gold.Chemscore.DEClash>
0.1360

> <Gold.Chemscore.DEInternal>
3.0496

> <Gold.Chemscore.Rot>
2.1902

> <Gold.Chemscore.Internal.Correction>
   9.000000E+99

> <Gold.Chemscore.Hbonds>
donor molecule, donor type, donor heavy atom, donor atom, acceptor molecule, acceptor atom, score
      L1  H     9    21       P1  7948  0.76
      P1  H  7954  7966       L1     9  0.14
      P1  H  7989  7998       L1     1  0.34
      P1  H  7997  8008       L1     1  0.59
      P1  H 10752 10765       L1    14  1.00

> <Gold.Chemscore.Hbond.Weighted>
-10.4722

> <Gold.Chemscore.Metal.Weighted>
-0.0000

> <Gold.Chemscore.Lipo.Weighted>
-3.5535

> <Gold.Chemscore.Internal_Hbond.Weighted>
0.0000

> <Gold.Chemscore.DEClash.Weighted>
0.1360

> <Gold.Chemscore.DEInternal.Weighted>
3.0496

> <Gold.Chemscore.Rot.Weighted>
5.6069

> <Gold.Chemscore.Internal.Correction.Weighted>
   9.000000E+99

> <Gold.Protein.RotatedTorsions>
[ 6907 6896 6895 6894 ] final  127.16 input  -60.11 | X-H torsion
[ 7974 7965 7964 7962 ] final  105.95 input  175.53 | X-H torsion
[ 8008 7997 7996 7995 ] final  -12.55 input   59.86 | X-H torsion
[ 10167 10162 10161 10158 ] final  101.94 input  -65.29 | X-H torsion
[ 10718 10713 10712 10709 ] final   12.10 input   66.30 | X-H torsion
[ 10763 10752 10751 10750 ] final -177.80 input  -60.55 | X-H torsion
[ 11005 11000 10999 10996 ] final  -28.60 input  -57.11 | X-H torsion

> <Gold.Protein.ActiveResidues>
 VAL166  LYS551  ARG553  GLY616  TRP617  ASP618  TYR619  PRO620  LYS621  CYS622 
 ASP623  PHE694  ASN695  SER759  ASP760  ASP761  ALA762  ILE779  LEU786  VAL792 
 PHE793  MET794  SER795  GLU796  ALA797  LYS798  CYS799  TRP800  GLU811  SER814 

> <Gold.Protein.RotatedAtoms>
  152.3838  133.6582  159.6181 H   0  0  0  0  0  0  0  0  0  0  0  0  # atno 6907 bound_to 6896
  150.7762  133.9070  159.3367 H   0  0  0  0  0  0  0  0  0  0  0  0  # atno 6908 bound_to 6896
  151.6870  135.0954  160.0278 H   0  0  0  0  0  0  0  0  0  0  0  0  # atno 6909 bound_to 6896
  145.3130  139.2535  143.3753 H   0  0  0  0  0  0  0  0  0  0  0  0  # atno 7974 bound_to 7965
  154.5368  140.2273  155.8709 H   0  0  0  0  0  0  0  0  0  0  0  0  # atno 8008 bound_to 7997
  156.1819  140.3098  155.9127 H   0  0  0  0  0  0  0  0  0  0  0  0  # atno 8009 bound_to 7997
  155.3339  140.0447  157.3034 H   0  0  0  0  0  0  0  0  0  0  0  0  # atno 8010 bound_to 7997
  139.7394  144.7015  151.0599 H   0  0  0  0  0  0  0  0  0  0  0  0  # atno 10167 bound_to 10162
  157.0052  130.6095  149.5701 H   0  0  0  0  0  0  0  0  0  0  0  0  # atno 10718 bound_to 10713
  154.5556  135.2816  155.0968 H   0  0  0  0  0  0  0  0  0  0  0  0  # atno 10763 bound_to 10752
  154.2396  135.6359  153.5206 H   0  0  0  0  0  0  0  0  0  0  0  0  # atno 10764 bound_to 10752
  153.0015  135.5557  154.6135 H   0  0  0  0  0  0  0  0  0  0  0  0  # atno 10765 bound_to 10752
  140.9222  133.7391  156.0818 H   0  0  0  0  0  0  0  0  0  0  0  0  # atno 11005 bound_to 11000
  146.3111  140.3670  142.8670 LP  0  0  0  0  0  0  0  0  0  0  0  0  # atno 17320 bound_to 7965
  144.9001  140.7631  143.5872 LP  0  0  0  0  0  0  0  0  0  0  0  0  # atno 17321 bound_to 7965
  140.7783  143.4943  150.9852 LP  0  0  0  0  0  0  0  0  0  0  0  0  # atno 17342 bound_to 10162
  139.8632  143.7288  152.3172 LP  0  0  0  0  0  0  0  0  0  0  0  0  # atno 17343 bound_to 10162
  156.0156  130.5250  150.8124 LP  0  0  0  0  0  0  0  0  0  0  0  0  # atno 17370 bound_to 10713
  157.5361  131.0939  150.9891 LP  0  0  0  0  0  0  0  0  0  0  0  0  # atno 17371 bound_to 10713
  140.7972  134.3550  157.5449 LP  0  0  0  0  0  0  0  0  0  0  0  0  # atno 17394 bound_to 11000
  139.8778  134.9176  156.3182 LP  0  0  0  0  0  0  0  0  0  0  0  0  # atno 17395 bound_to 11000

$$$$
