AV-unprocessed.smi:1843|AV-procd|sdf|7500|dock5
  -GOLD-   22720 9203D 1   1.00000     0.00000
 Structure written by MMmdl.
 37 39  0  0  0  0  0  0  0  0  1 V2000
  145.7139  138.6307  154.0190 O   0  0  0  0  0  0  0  0  0  0  0  0
  146.6109  138.2547  153.2637 C   0  0  0  0  0  0  0  0  0  0  0  0
  147.8812  138.6944  153.2851 N   0  0  0  0  0  0  0  0  0  0  0  0
  148.4684  139.6457  154.1605 C   0  0  0  0  0  0  0  0  0  0  0  0
  147.8120  140.7006  154.6626 N   0  0  0  0  0  0  0  0  0  0  0  0
  148.6190  141.4654  155.4932 N   0  0  0  0  0  0  0  0  0  0  0  0
  149.8583  140.9700  155.5945 C   0  0  0  0  0  0  0  0  0  0  0  0
  150.9070  141.6166  156.4370 C   0  0  0  0  0  0  0  0  0  0  0  0
  150.8063  141.6000  157.9446 C   0  0  0  0  0  0  0  0  0  0  0  0
  150.6384  142.8977  157.1960 C   0  0  0  0  0  0  0  0  0  0  0  0
  150.1442  139.5037  154.6628 S   0  0  0  0  0  0  0  0  0  0  0  0
  146.4325  137.3347  152.3049 N   0  0  0  0  0  0  0  0  0  0  0  0
  145.1730  136.6531  152.0140 C   0  0  2  0  0  0  0  0  0  0  0  0
  144.7299  135.8626  153.2654 C   0  0  0  0  0  0  0  0  0  0  0  0
  143.4934  134.9926  152.9966 C   0  0  0  0  0  0  0  0  0  0  0  0
  143.7370  134.0405  151.8184 C   0  0  0  0  0  0  0  0  0  0  0  0
  144.1273  134.8261  150.5595 C   0  0  0  0  0  0  0  0  0  0  0  0
  145.3643  135.7123  150.8014 C   0  0  1  0  0  0  0  0  0  0  0  0
  145.5737  136.4799  149.6329 O   0  0  0  0  0  0  0  0  0  0  0  0
  148.5058  138.2904  152.6032 H   0  0  0  0  0  0  0  0  0  0  0  0
  151.8912  141.4867  155.9909 H   0  0  0  0  0  0  0  0  0  0  0  0
  149.9162  141.1576  158.3874 H   0  0  0  0  0  0  0  0  0  0  0  0
  151.7270  141.4574  158.5066 H   0  0  0  0  0  0  0  0  0  0  0  0
  151.4479  143.6220  157.2583 H   0  0  0  0  0  0  0  0  0  0  0  0
  149.6369  143.3214  157.1563 H   0  0  0  0  0  0  0  0  0  0  0  0
  147.2223  137.0902  151.7258 H   0  0  0  0  0  0  0  0  0  0  0  0
  144.4000  137.3853  151.7706 H   0  0  0  0  0  0  0  0  0  0  0  0
  145.5463  135.2223  153.6029 H   0  0  0  0  0  0  0  0  0  0  0  0
  144.5198  136.5484  154.0871 H   0  0  0  0  0  0  0  0  0  0  0  0
  143.2403  134.4212  153.8900 H   0  0  0  0  0  0  0  0  0  0  0  0
  142.6349  135.6307  152.7829 H   0  0  0  0  0  0  0  0  0  0  0  0
  144.5274  133.3327  152.0718 H   0  0  0  0  0  0  0  0  0  0  0  0
  142.8408  133.4503  151.6258 H   0  0  0  0  0  0  0  0  0  0  0  0
  144.3176  134.1335  149.7386 H   0  0  0  0  0  0  0  0  0  0  0  0
  143.2830  135.4450  150.2515 H   0  0  0  0  0  0  0  0  0  0  0  0
  146.2350  135.0739  150.9594 H   0  0  0  0  0  0  0  0  0  0  0  0
  145.6117  135.8941  148.8922 H   0  0  0  0  0  0  0  0  0  0  0  0
  1  2  2  0  0  0  0
  2  3  1  0  0  0  0
  2 12  1  0  0  0  0
  3  4  1  0  0  0  0
  3 20  1  0  0  0  0
  4 11  1  0  0  0  0
  4  5  2  0  0  0  0
  5  6  1  0  0  0  0
  6  7  2  0  0  0  0
  7  8  1  0  0  0  0
  7 11  1  0  0  0  0
  8 10  1  0  0  0  0
  8  9  1  0  0  0  0
  8 21  1  0  0  0  0
  9 10  1  0  0  0  0
  9 22  1  0  0  0  0
  9 23  1  0  0  0  0
 10 24  1  0  0  0  0
 10 25  1  0  0  0  0
 12 13  1  0  0  0  0
 12 26  1  0  0  0  0
 13 18  1  0  0  0  0
 13 14  1  0  0  0  0
 13 27  1  0  0  0  0
 14 15  1  0  0  0  0
 14 28  1  0  0  0  0
 14 29  1  0  0  0  0
 15 16  1  0  0  0  0
 15 30  1  0  0  0  0
 15 31  1  0  0  0  0
 16 17  1  0  0  0  0
 16 32  1  0  0  0  0
 16 33  1  0  0  0  0
 17 18  1  0  0  0  0
 17 34  1  0  0  0  0
 17 35  1  0  0  0  0
 18 19  1  0  0  0  0
 18 36  1  0  0  0  0
 19 37  1  0  0  0  0
M  END
> <s_m_source_file>
AV-unprocessed.smi

> <i_m_source_file_index>
1843

> <i_lp_mmshare_version>
43012

> <i_f3d_flags>
0

> <s_epik_input>
W09IXVtDQEBIXTFbQ0gyXVtDSDJdW0NIMl1bQ0gyXVtDQEhdMVtOSF1DKD1PKVtOSF1jMm5uYyhzMilbQ0hdM1tDSDJdW0NIMl0z

> <s_epik_cmdline>
J2VwaWtfcHl0aG9uJywgJy1waCcsICc3LjAnLCAnLXRuJywgJzgnLCAnLW1hJywgJzIwMCcsICctbWV0YWxfYmluZGluZycsICctaW1hZScsICc8aW5maWxlLm1hZT4nLCAnLW9tYWUnLCAnPG91dGZpbGUubWFlPic=

> <r_lp_tautomer_probability>
1

> <r_epik_Ionization_Penalty>
0.000257313

> <r_epik_Ionization_Penalty_Charging>
0

> <r_epik_Ionization_Penalty_Neutral>
0.000257313

> <r_epik_State_Penalty>
-0

> <r_epik_Charging_Adjusted_Penalty>
0

> <i_epik_Tot_Q>
0

> <i_epik_Tot_abs_Q>
0

> <r_epik_Metal_State_Penalty>
0.147479

> <b_epik_Metal_Only>
0

> <s_lp_Force_Field>
OPLS_2005

> <r_lp_Energy>
7.85459

> <b_lp_Chiralities_Consistent>
1

> <s_lp_Variant>
AV-unprocessed.smi:1843-1

> <Gold.Version>
5.8.1

> <Gold.Id.Protein>
6NUR|6NUR_protein|mol2

> <Gold.PLP.Fitness>
40.0319

> <Gold.PLP.PLP>
-33.0978

> <Gold.PLP.part.hbond>
-5.0000

> <Gold.PLP.part.metal>
0.0000

> <Gold.PLP.part.buried>
-4.5148

> <Gold.PLP.part.nonpolar>
-24.6534

> <Gold.PLP.part.repulsive>
0.4220

> <Gold.PLP.ligand.clash>
0.0000

> <Gold.PLP.ligand.torsion>
0.3210

> <Gold.PLP.Chemscore.Hbond>
2.4817

> <Gold.PLP.Chemscore.CHOScore>
0.0000

> <Gold.PLP.Chemscore.Metal>
0.0000

> <Gold.Chemscore.Hbonds>
donor molecule, donor type, donor heavy atom, donor atom, acceptor molecule, acceptor atom, score
      L1  H     3    20       P1  7948  0.43
      L1  H    12    26       P1  7948  0.83
      L1  H    19    37       P1  7921  1.00

> <Gold.PLP.Chemscore.Internal.Correction>
0.1310

> <Gold.Rescore>
     Score         DG    S(hbond)    S(metal)    S(lipo)     H(rot)  DE(clash)    DE(int)     intcor
     17.32     -17.83       2.80        0.00      63.73       1.74       0.02       0.49       ----

> <Gold.Chemscore.Fitness>
17.3221

> <Gold.Chemscore.DG>
-17.8284

> <Gold.Chemscore.ZeroCoef>
-5.4800

> <Gold.Chemscore.Hbond>
2.7987

> <Gold.Chemscore.Metal>
0.0000

> <Gold.Chemscore.Lipo>
63.7289

> <Gold.Chemscore.Internal_Hbond>
0.0000

> <Gold.Chemscore.DEClash>
0.0182

> <Gold.Chemscore.DEInternal>
0.4882

> <Gold.Chemscore.Rot>
1.7404

> <Gold.Chemscore.Internal.Correction>
   9.000000E+99

> <Gold.Chemscore.Hbonds>
donor molecule, donor type, donor heavy atom, donor atom, acceptor molecule, acceptor atom, score
      L1  H     3    20       P1  7948  0.42
      L1  H    12    26       P1  7948  0.83
      L1  H    19    37       P1  7921  1.00

> <Gold.Chemscore.Hbond.Weighted>
-9.3476

> <Gold.Chemscore.Metal.Weighted>
-0.0000

> <Gold.Chemscore.Lipo.Weighted>
-7.4563

> <Gold.Chemscore.Internal_Hbond.Weighted>
0.0000

> <Gold.Chemscore.DEClash.Weighted>
0.0182

> <Gold.Chemscore.DEInternal.Weighted>
0.4882

> <Gold.Chemscore.Rot.Weighted>
4.4555

> <Gold.Chemscore.Internal.Correction.Weighted>
   9.000000E+99

> <Gold.Protein.RotatedTorsions>
[ 6907 6896 6895 6894 ] final -135.50 input  -60.11 | X-H torsion
[ 7974 7965 7964 7962 ] final  -58.80 input  175.53 | X-H torsion
[ 8008 7997 7996 7995 ] final  -51.71 input   59.86 | X-H torsion
[ 10167 10162 10161 10158 ] final  178.53 input  -65.29 | X-H torsion
[ 10718 10713 10712 10709 ] final   97.44 input   66.30 | X-H torsion
[ 10763 10752 10751 10750 ] final  -62.90 input  -60.55 | X-H torsion
[ 11005 11000 10999 10996 ] final  -17.23 input  -57.11 | X-H torsion

> <Gold.Protein.ActiveResidues>
 VAL166  LYS551  ARG553  GLY616  TRP617  ASP618  TYR619  PRO620  LYS621  CYS622 
 ASP623  PHE694  ASN695  SER759  ASP760  ASP761  ALA762  ILE779  LEU786  VAL792 
 PHE793  MET794  SER795  GLU796  ALA797  LYS798  CYS799  TRP800  GLU811  SER814 

> <Gold.Protein.RotatedAtoms>
  150.9986  133.6078  159.2697 H   0  0  0  0  0  0  0  0  0  0  0  0  # atno 6907 bound_to 6896
  151.3272  135.0832  159.9336 H   0  0  0  0  0  0  0  0  0  0  0  0  # atno 6908 bound_to 6896
  152.5267  133.9622  159.7777 H   0  0  0  0  0  0  0  0  0  0  0  0  # atno 6909 bound_to 6896
  145.8351  140.8454  143.0063 H   0  0  0  0  0  0  0  0  0  0  0  0  # atno 7974 bound_to 7965
  154.4089  140.1241  156.4873 H   0  0  0  0  0  0  0  0  0  0  0  0  # atno 8008 bound_to 7997
  155.7025  140.3494  155.4920 H   0  0  0  0  0  0  0  0  0  0  0  0  # atno 8009 bound_to 7997
  155.9372  140.1080  157.1075 H   0  0  0  0  0  0  0  0  0  0  0  0  # atno 8010 bound_to 7997
  139.5298  144.2669  152.0660 H   0  0  0  0  0  0  0  0  0  0  0  0  # atno 10167 bound_to 10162
  157.6912  131.0609  150.4645 H   0  0  0  0  0  0  0  0  0  0  0  0  # atno 10718 bound_to 10713
  154.3069  135.6223  153.5449 H   0  0  0  0  0  0  0  0  0  0  0  0  # atno 10763 bound_to 10752
  152.9834  135.5692  154.5221 H   0  0  0  0  0  0  0  0  0  0  0  0  # atno 10764 bound_to 10752
  154.4863  135.2865  155.1508 H   0  0  0  0  0  0  0  0  0  0  0  0  # atno 10765 bound_to 10752
  140.8147  133.8113  155.9599 H   0  0  0  0  0  0  0  0  0  0  0  0  # atno 11005 bound_to 11000
  144.6737  140.0729  143.7472 LP  0  0  0  0  0  0  0  0  0  0  0  0  # atno 17320 bound_to 7965
  145.9528  139.2745  143.1202 LP  0  0  0  0  0  0  0  0  0  0  0  0  # atno 17321 bound_to 7965
  140.2131  144.4542  150.6376 LP  0  0  0  0  0  0  0  0  0  0  0  0  # atno 17342 bound_to 10162
  140.6467  143.2215  151.6169 LP  0  0  0  0  0  0  0  0  0  0  0  0  # atno 17343 bound_to 10162
  156.4987  130.4112  149.6365 LP  0  0  0  0  0  0  0  0  0  0  0  0  # atno 17370 bound_to 10713
  156.3349  130.7351  151.2287 LP  0  0  0  0  0  0  0  0  0  0  0  0  # atno 17371 bound_to 10713
  140.9161  134.2200  157.4956 LP  0  0  0  0  0  0  0  0  0  0  0  0  # atno 17394 bound_to 11000
  139.8712  134.9772  156.4949 LP  0  0  0  0  0  0  0  0  0  0  0  0  # atno 17395 bound_to 11000

$$$$
