AV-unprocessed.smi:384|AV-procd|sdf|2468|dock1
  -GOLD-   2262022403D 1   1.00000     0.00000
 Structure written by MMmdl.
 33 34  0  0  0  0  0  0  0  0  3 V2000
  145.1035  130.7823  151.2989 C   0  0  0  0  0  0  0  0  0  0  0  0
  145.7908  132.1348  151.5129 C   0  0  2  0  0  0  0  0  0  0  0  0
  146.8035  132.0888  152.6703 C   0  0  0  0  0  0  0  0  0  0  0  0
  147.3521  133.4171  152.9031 N   0  0  0  0  0  0  0  0  0  0  0  0
  148.3864  133.4282  153.8470 C   0  0  0  0  0  0  0  0  0  0  0  0
  148.6407  132.3602  154.7378 C   0  0  0  0  0  0  0  0  0  0  0  0
  149.7101  132.4615  155.6512 C   0  0  0  0  0  0  0  0  0  0  0  0
  150.5117  133.6268  155.6642 C   0  0  0  0  0  0  0  0  0  0  0  0
  151.6602  133.7635  156.6229 C   0  0  0  0  0  0  0  0  0  0  0  0
  152.2724  134.8531  156.6747 O   0  0  0  0  0  0  0  0  0  0  0  0
  151.9671  132.7834  157.3372 O   0  5  0  0  0  0  0  0  0  0  0  0
  150.2058  134.6611  154.7506 C   0  0  0  0  0  0  0  0  0  0  0  0
  149.1723  134.5257  153.8908 N   0  3  0  0  0  0  0  0  0  0  0  0
  146.3176  134.4057  153.1774 C   0  0  0  0  0  0  0  0  0  0  0  0
  145.2690  134.4263  152.0474 C   0  0  1  0  0  0  0  0  0  0  0  0
  145.7651  135.1053  150.7584 C   0  0  0  0  0  0  0  0  0  0  0  0
  144.7828  133.1030  151.8062 O   0  0  0  0  0  0  0  0  0  0  0  0
  145.8309  130.0045  151.0653 H   0  0  0  0  0  0  0  0  0  0  0  0
  144.3949  130.8328  150.4718 H   0  0  0  0  0  0  0  0  0  0  0  0
  144.5547  130.4718  152.1885 H   0  0  0  0  0  0  0  0  0  0  0  0
  146.3025  132.4037  150.5885 H   0  0  0  0  0  0  0  0  0  0  0  0
  146.3168  131.7268  153.5771 H   0  0  0  0  0  0  0  0  0  0  0  0
  147.6101  131.3925  152.4363 H   0  0  0  0  0  0  0  0  0  0  0  0
  148.0281  131.4707  154.7260 H   0  0  0  0  0  0  0  0  0  0  0  0
  149.9063  131.6456  156.3313 H   0  0  0  0  0  0  0  0  0  0  0  0
  150.7538  135.5898  154.6786 H   0  0  0  0  0  0  0  0  0  0  0  0
  145.8275  134.1600  154.1206 H   0  0  0  0  0  0  0  0  0  0  0  0
  146.7643  135.3934  153.2993 H   0  0  0  0  0  0  0  0  0  0  0  0
  144.4144  135.0051  152.3987 H   0  0  0  0  0  0  0  0  0  0  0  0
  146.0135  136.1506  150.9434 H   0  0  0  0  0  0  0  0  0  0  0  0
  144.9949  135.0822  149.9872 H   0  0  0  0  0  0  0  0  0  0  0  0
  146.6574  134.6281  150.3544 H   0  0  0  0  0  0  0  0  0  0  0  0
  148.9790  135.2896  153.2429 H   0  0  0  0  0  0  0  0  0  0  0  0
  1  2  1  0  0  0  0
  1 18  1  0  0  0  0
  1 19  1  0  0  0  0
  1 20  1  0  0  0  0
  2 17  1  0  0  0  0
  2  3  1  0  0  0  0
  2 21  1  0  0  0  0
  3  4  1  0  0  0  0
  3 22  1  0  0  0  0
  3 23  1  0  0  0  0
  4  5  1  0  0  0  0
  4 14  1  0  0  0  0
  5 13  1  0  0  0  0
  5  6  2  0  0  0  0
  6  7  1  0  0  0  0
  6 24  1  0  0  0  0
  7  8  2  0  0  0  0
  7 25  1  0  0  0  0
  8  9  1  0  0  0  0
  8 12  1  0  0  0  0
  9 10  2  0  0  0  0
  9 11  1  0  0  0  0
 12 13  2  0  0  0  0
 12 26  1  0  0  0  0
 13 33  1  0  0  0  0
 14 15  1  0  0  0  0
 14 27  1  0  0  0  0
 14 28  1  0  0  0  0
 15 16  1  0  0  0  0
 15 17  1  0  0  0  0
 15 29  1  0  0  0  0
 16 30  1  0  0  0  0
 16 31  1  0  0  0  0
 16 32  1  0  0  0  0
M  CHG  1  11  -1
M  CHG  1  13   1
M  END
> <s_m_source_file>
AV-unprocessed.smi

> <i_m_source_file_index>
384

> <i_lp_mmshare_version>
43012

> <i_f3d_flags>
0

> <s_epik_input>
W0NIM11bQ0BASF0xW0NIMl1OKFtDSDJdW0NASF0oTzEpW0NIM10pYzJbY0hdW2NIXWMoW2NIXW4yKUMoPU8pW09IXQ==

> <s_epik_cmdline>
J2VwaWtfcHl0aG9uJywgJy1waCcsICc3LjAnLCAnLXRuJywgJzgnLCAnLW1hJywgJzIwMCcsICctbWV0YWxfYmluZGluZycsICctaW1hZScsICc8aW5maWxlLm1hZT4nLCAnLW9tYWUnLCAnPG91dGZpbGUubWFlPic=

> <r_epik_Ionization_Penalty>
2.35185

> <r_epik_Ionization_Penalty_Charging>
2.35185

> <r_epik_Ionization_Penalty_Neutral>
3.18713e-12

> <r_epik_State_Penalty>
2.50619

> <r_epik_Charging_Adjusted_Penalty>
4.85804

> <i_epik_Tot_Q>
0

> <i_epik_Tot_abs_Q>
2

> <r_epik_Metal_State_Penalty>
6.59026

> <b_epik_Metal_Only>
0

> <s_lp_Force_Field>
OPLS_2005

> <r_lp_Energy>
19.905

> <b_lp_Chiralities_Consistent>
1

> <s_lp_Variant>
AV-unprocessed.smi:384-4

> <Gold.Version>
5.8.1

> <Gold.Id.Protein>
6NUR|6NUR_protein|mol2

> <Gold.PLP.Fitness>
43.1162

> <Gold.PLP.PLP>
-25.8958

> <Gold.PLP.part.hbond>
-3.2844

> <Gold.PLP.part.metal>
0.0000

> <Gold.PLP.part.buried>
-3.0902

> <Gold.PLP.part.nonpolar>
-20.0336

> <Gold.PLP.part.repulsive>
0.2527

> <Gold.PLP.ligand.clash>
0.0000

> <Gold.PLP.ligand.torsion>
0.2656

> <Gold.PLP.Chemscore.Hbond>
5.8880

> <Gold.PLP.Chemscore.CHOScore>
0.0000

> <Gold.PLP.Chemscore.Metal>
0.0000

> <Gold.Chemscore.Hbonds>
donor molecule, donor type, donor heavy atom, donor atom, acceptor molecule, acceptor atom, score
      L1  H    13    33       P1  7948  2.00
      P1  H  6896  6908       L1    11  1.86
      P1  H 10752 10763       L1    10  1.95

> <Gold.PLP.Chemscore.Internal.Correction>
0.0877

> <Gold.Rescore>
     Score         DG    S(hbond)    S(metal)    S(lipo)     H(rot)  DE(clash)    DE(int)     intcor
     17.57     -18.10       2.56        0.00      56.66       1.00       0.11       0.42       ----

> <Gold.Chemscore.Fitness>
17.5730

> <Gold.Chemscore.DG>
-18.1012

> <Gold.Chemscore.ZeroCoef>
-5.4800

> <Gold.Chemscore.Hbond>
2.5603

> <Gold.Chemscore.Metal>
0.0000

> <Gold.Chemscore.Lipo>
56.6646

> <Gold.Chemscore.Internal_Hbond>
0.0000

> <Gold.Chemscore.DEClash>
0.1103

> <Gold.Chemscore.DEInternal>
0.4180

> <Gold.Chemscore.Rot>
1.0000

> <Gold.Chemscore.Internal.Correction>
   9.000000E+99

> <Gold.Chemscore.Hbonds>
donor molecule, donor type, donor heavy atom, donor atom, acceptor molecule, acceptor atom, score
      L1  H    13    33       P1  7948  0.44
      P1  H  6896  6908       L1    11  0.51
      P1  H 10752 10763       L1    10  0.90

> <Gold.Chemscore.Hbond.Weighted>
-8.5515

> <Gold.Chemscore.Metal.Weighted>
-0.0000

> <Gold.Chemscore.Lipo.Weighted>
-6.6298

> <Gold.Chemscore.Internal_Hbond.Weighted>
0.0000

> <Gold.Chemscore.DEClash.Weighted>
0.1103

> <Gold.Chemscore.DEInternal.Weighted>
0.4180

> <Gold.Chemscore.Rot.Weighted>
2.5600

> <Gold.Chemscore.Internal.Correction.Weighted>
   9.000000E+99

> <Gold.Protein.RotatedTorsions>
[ 6907 6896 6895 6894 ] final   62.85 input  -60.11 | X-H torsion
[ 7974 7965 7964 7962 ] final   80.38 input  175.53 | X-H torsion
[ 8008 7997 7996 7995 ] final  159.53 input   59.86 | X-H torsion
[ 10167 10162 10161 10158 ] final   65.10 input  -65.29 | X-H torsion
[ 10718 10713 10712 10709 ] final  122.94 input   66.30 | X-H torsion
[ 10763 10752 10751 10750 ] final   99.85 input  -60.55 | X-H torsion
[ 11005 11000 10999 10996 ] final -159.72 input  -57.11 | X-H torsion

> <Gold.Protein.ActiveResidues>
 VAL166  LYS551  ARG553  GLY616  TRP617  ASP618  TYR619  PRO620  LYS621  CYS622 
 ASP623  PHE694  ASN695  SER759  ASP760  ASP761  ALA762  ILE779  LEU786  VAL792 
 PHE793  MET794  SER795  GLU796  ALA797  LYS798  CYS799  TRP800  GLU811  SER814 

> <Gold.Protein.RotatedAtoms>
  152.4205  134.5963  159.9987 H   0  0  0  0  0  0  0  0  0  0  0  0  # atno 6907 bound_to 6896
  151.6114  133.3341  159.3076 H   0  0  0  0  0  0  0  0  0  0  0  0  # atno 6908 bound_to 6896
  150.8094  134.7277  159.6739 H   0  0  0  0  0  0  0  0  0  0  0  0  # atno 6909 bound_to 6896
  145.6520  139.2450  143.1971 H   0  0  0  0  0  0  0  0  0  0  0  0  # atno 7974 bound_to 7965
  156.2233  140.1829  156.7425 H   0  0  0  0  0  0  0  0  0  0  0  0  # atno 8008 bound_to 7997
  154.5899  140.0652  156.9253 H   0  0  0  0  0  0  0  0  0  0  0  0  # atno 8009 bound_to 7997
  155.2354  140.3318  155.4301 H   0  0  0  0  0  0  0  0  0  0  0  0  # atno 8010 bound_to 7997
  140.1150  144.4784  150.6955 H   0  0  0  0  0  0  0  0  0  0  0  0  # atno 10167 bound_to 10162
  157.5704  131.1083  150.8378 H   0  0  0  0  0  0  0  0  0  0  0  0  # atno 10718 bound_to 10713
  153.3066  135.4099  155.1299 H   0  0  0  0  0  0  0  0  0  0  0  0  # atno 10763 bound_to 10752
  154.8564  135.3554  154.5780 H   0  0  0  0  0  0  0  0  0  0  0  0  # atno 10764 bound_to 10752
  153.6207  135.7064  153.5370 H   0  0  0  0  0  0  0  0  0  0  0  0  # atno 10765 bound_to 10752
  140.6394  134.4567  157.5233 H   0  0  0  0  0  0  0  0  0  0  0  0  # atno 11005 bound_to 11000
  146.1196  140.7326  142.9464 LP  0  0  0  0  0  0  0  0  0  0  0  0  # atno 17320 bound_to 7965
  144.7119  140.4071  143.7074 LP  0  0  0  0  0  0  0  0  0  0  0  0  # atno 17321 bound_to 7965
  140.6904  143.2373  151.5146 LP  0  0  0  0  0  0  0  0  0  0  0  0  # atno 17342 bound_to 10162
  139.5599  144.2183  152.1674 LP  0  0  0  0  0  0  0  0  0  0  0  0  # atno 17343 bound_to 10162
  156.8851  130.5193  149.5289 LP  0  0  0  0  0  0  0  0  0  0  0  0  # atno 17370 bound_to 10713
  156.0749  130.5774  150.9455 LP  0  0  0  0  0  0  0  0  0  0  0  0  # atno 17371 bound_to 10713
  139.9086  134.8395  156.1613 LP  0  0  0  0  0  0  0  0  0  0  0  0  # atno 17394 bound_to 11000
  141.0618  133.6838  156.1967 LP  0  0  0  0  0  0  0  0  0  0  0  0  # atno 17395 bound_to 11000

$$$$
