AV-unprocessed.smi:203|AV-procd|sdf|1597|dock7
  -GOLD-   2262019503D 1   1.00000     0.00000
 Structure written by MMmdl.
 57 61  0  0  0  0  0  0  0  0  1 V2000
  147.9771  141.6446  157.8977 O   0  0  0  0  0  0  0  0  0  0  0  0
  149.1155  141.4921  157.4612 C   0  0  0  0  0  0  0  0  0  0  0  0
  150.0219  140.3426  157.8661 C   0  0  0  0  0  0  0  0  0  0  0  0
  151.3844  140.7187  157.2486 C   0  0  2  0  0  0  0  0  0  0  0  0
  152.4852  141.0955  158.2908 C   0  0  1  0  0  0  0  0  0  0  0  0
  152.0752  142.2912  159.1913 C   0  0  0  0  0  0  0  0  0  0  0  0
  153.1706  142.6407  160.2074 C   0  0  0  0  0  0  0  0  0  0  0  0
  153.5209  141.4041  161.0413 C   0  0  0  0  0  0  0  0  0  0  0  0
  153.9302  140.2425  160.1265 C   0  0  0  0  0  0  0  0  0  0  0  0
  152.8954  139.9568  159.1329 N   0  0  0  0  0  0  0  0  0  0  0  0
  153.1679  138.7973  158.4936 C   0  0  0  0  0  0  0  0  0  0  0  0
  152.1136  138.0959  158.0101 N   0  0  0  0  0  0  0  0  0  0  0  0
  152.3189  136.9457  157.3611 C   0  0  0  0  0  0  0  0  0  0  0  0
  153.4739  136.3312  157.0949 N   0  0  0  0  0  0  0  0  0  0  0  0
  154.5345  137.0325  157.5882 C   0  0  0  0  0  0  0  0  0  0  0  0
  154.4733  138.2640  158.2984 C   0  0  0  0  0  0  0  0  0  0  0  0
  155.7543  138.6749  158.6478 N   0  0  0  0  0  0  0  0  0  0  0  0
  156.5295  137.7410  158.1676 C   0  0  0  0  0  0  0  0  0  0  0  0
  155.8797  136.7170  157.5166 N   0  0  0  0  0  0  0  0  0  0  0  0
  156.4958  135.5600  156.8900 C   0  0  0  0  0  0  0  0  0  0  0  0
  157.7972  135.9153  156.1393 C   0  0  1  0  0  0  0  0  0  0  0  0
  158.1684  134.8021  155.3490 O   0  0  0  0  0  0  0  0  0  0  0  0
  157.6405  137.1269  155.1982 C   0  0  1  0  0  0  0  0  0  0  0  0
  158.8257  137.3738  154.2624 C   0  0  0  0  0  0  0  0  0  0  0  0
  158.2132  138.1452  153.1052 C   0  0  0  0  0  0  0  0  0  0  0  0
  156.7155  137.8544  153.2244 C   0  0  0  0  0  0  0  0  0  0  0  0
  156.6067  136.8828  154.2557 O   0  0  0  0  0  0  0  0  0  0  0  0
  151.0691  141.8549  156.2517 C   0  0  0  0  0  0  0  0  0  0  0  0
  149.7251  142.2861  156.5835 N   0  0  0  0  0  0  0  0  0  0  0  0
  150.0550  140.2235  158.9493 H   0  0  0  0  0  0  0  0  0  0  0  0
  149.6398  139.4161  157.4368 H   0  0  0  0  0  0  0  0  0  0  0  0
  151.7358  139.8765  156.6519 H   0  0  0  0  0  0  0  0  0  0  0  0
  153.3669  141.4095  157.7314 H   0  0  0  0  0  0  0  0  0  0  0  0
  151.8585  143.1745  158.5918 H   0  0  0  0  0  0  0  0  0  0  0  0
  151.1586  142.0600  159.7339 H   0  0  0  0  0  0  0  0  0  0  0  0
  154.0586  143.0001  159.6858 H   0  0  0  0  0  0  0  0  0  0  0  0
  152.8375  143.4505  160.8567 H   0  0  0  0  0  0  0  0  0  0  0  0
  154.3277  141.6351  161.7372 H   0  0  0  0  0  0  0  0  0  0  0  0
  152.6613  141.1107  161.6455 H   0  0  0  0  0  0  0  0  0  0  0  0
  154.8634  140.4862  159.6169 H   0  0  0  0  0  0  0  0  0  0  0  0
  154.1214  139.3547  160.7317 H   0  0  0  0  0  0  0  0  0  0  0  0
  151.4306  136.4462  157.0034 H   0  0  0  0  0  0  0  0  0  0  0  0
  157.6039  137.7722  158.2769 H   0  0  0  0  0  0  0  0  0  0  0  0
  156.6901  134.8062  157.6542 H   0  0  0  0  0  0  0  0  0  0  0  0
  155.7640  135.1275  156.2074 H   0  0  0  0  0  0  0  0  0  0  0  0
  158.5884  136.1125  156.8638 H   0  0  0  0  0  0  0  0  0  0  0  0
  158.8492  134.3269  155.8002 H   0  0  0  0  0  0  0  0  0  0  0  0
  157.4217  138.0368  155.7616 H   0  0  0  0  0  0  0  0  0  0  0  0
  159.6409  137.9147  154.7439 H   0  0  0  0  0  0  0  0  0  0  0  0
  159.2198  136.4242  153.8974 H   0  0  0  0  0  0  0  0  0  0  0  0
  158.4014  139.2153  153.2003 H   0  0  0  0  0  0  0  0  0  0  0  0
  158.6214  137.8149  152.1493 H   0  0  0  0  0  0  0  0  0  0  0  0
  156.1717  138.7536  153.5164 H   0  0  0  0  0  0  0  0  0  0  0  0
  156.2860  137.4830  152.2939 H   0  0  0  0  0  0  0  0  0  0  0  0
  151.7767  142.6828  156.3007 H   0  0  0  0  0  0  0  0  0  0  0  0
  151.0721  141.4828  155.2265 H   0  0  0  0  0  0  0  0  0  0  0  0
  149.3038  143.1108  156.1804 H   0  0  0  0  0  0  0  0  0  0  0  0
  1  2  2  0  0  0  0
  2 29  1  0  0  0  0
  2  3  1  0  0  0  0
  3  4  1  0  0  0  0
  3 30  1  0  0  0  0
  3 31  1  0  0  0  0
  4  5  1  0  0  0  0
  4 28  1  0  0  0  0
  4 32  1  0  0  0  0
  5 10  1  0  0  0  0
  5  6  1  0  0  0  0
  5 33  1  0  0  0  0
  6  7  1  0  0  0  0
  6 34  1  0  0  0  0
  6 35  1  0  0  0  0
  7  8  1  0  0  0  0
  7 36  1  0  0  0  0
  7 37  1  0  0  0  0
  8  9  1  0  0  0  0
  8 38  1  0  0  0  0
  8 39  1  0  0  0  0
  9 10  1  0  0  0  0
  9 40  1  0  0  0  0
  9 41  1  0  0  0  0
 10 11  1  0  0  0  0
 11 16  1  0  0  0  0
 11 12  2  0  0  0  0
 12 13  1  0  0  0  0
 13 14  2  0  0  0  0
 13 42  1  0  0  0  0
 14 15  1  0  0  0  0
 15 19  1  0  0  0  0
 15 16  2  0  0  0  0
 16 17  1  0  0  0  0
 17 18  2  0  0  0  0
 18 19  1  0  0  0  0
 18 43  1  0  0  0  0
 19 20  1  0  0  0  0
 20 21  1  0  0  0  0
 20 44  1  0  0  0  0
 20 45  1  0  0  0  0
 21 22  1  0  0  0  0
 21 23  1  0  0  0  0
 21 46  1  0  0  0  0
 22 47  1  0  0  0  0
 23 27  1  0  0  0  0
 23 24  1  0  0  0  0
 23 48  1  0  0  0  0
 24 25  1  0  0  0  0
 24 49  1  0  0  0  0
 24 50  1  0  0  0  0
 25 26  1  0  0  0  0
 25 51  1  0  0  0  0
 25 52  1  0  0  0  0
 26 27  1  0  0  0  0
 26 53  1  0  0  0  0
 26 54  1  0  0  0  0
 28 29  1  0  0  0  0
 28 55  1  0  0  0  0
 28 56  1  0  0  0  0
 29 57  1  0  0  0  0
M  END
> <s_m_source_file>
AV-unprocessed.smi

> <i_m_source_file_index>
203

> <i_lp_mmshare_version>
43012

> <i_f3d_flags>
0

> <s_epik_input>
Tz1DMVtDSDJdW0NASF0oW0NIMl1bTkhdMSlbQ0BASF0yW0NIMl1bQ0gyXVtDSDJdW0NIMl1OMmMobltjSF1uMyljKGMzNCluW2NIXW40W0NIMl1bQ0BIXShbT0hdKVtDQEBIXTVbQ0gyXVtDSDJdW0NIMl1PNQ==

> <s_epik_cmdline>
J2VwaWtfcHl0aG9uJywgJy1waCcsICc3LjAnLCAnLXRuJywgJzgnLCAnLW1hJywgJzIwMCcsICctbWV0YWxfYmluZGluZycsICctaW1hZScsICc8aW5maWxlLm1hZT4nLCAnLW9tYWUnLCAnPG91dGZpbGUubWFlPic=

> <r_lp_tautomer_probability>
1

> <r_epik_Ionization_Penalty>
0.00175146

> <r_epik_Ionization_Penalty_Charging>
0

> <r_epik_Ionization_Penalty_Neutral>
0.00175146

> <r_epik_State_Penalty>
0.00109045

> <r_epik_Charging_Adjusted_Penalty>
0.00109045

> <i_epik_Tot_Q>
0

> <i_epik_Tot_abs_Q>
0

> <r_epik_Metal_State_Penalty>
-0

> <b_epik_Metal_Only>
0

> <s_lp_Force_Field>
OPLS_2005

> <r_lp_Energy>
57.64

> <b_lp_Chiralities_Consistent>
1

> <s_lp_Variant>
AV-unprocessed.smi:203-16

> <Gold.Version>
5.8.1

> <Gold.Id.Protein>
6NUR|6NUR_protein|mol2

> <Gold.PLP.Fitness>
51.9243

> <Gold.PLP.PLP>
-42.1625

> <Gold.PLP.part.hbond>
-4.3760

> <Gold.PLP.part.metal>
0.0000

> <Gold.PLP.part.buried>
-5.2803

> <Gold.PLP.part.nonpolar>
-32.4137

> <Gold.PLP.part.repulsive>
0.1002

> <Gold.PLP.ligand.clash>
0.0747

> <Gold.PLP.ligand.torsion>
0.9409

> <Gold.PLP.Chemscore.Hbond>
3.8032

> <Gold.PLP.Chemscore.CHOScore>
0.0000

> <Gold.PLP.Chemscore.Metal>
0.0000

> <Gold.Chemscore.Hbonds>
donor molecule, donor type, donor heavy atom, donor atom, acceptor molecule, acceptor atom, score
      L1  H    29    57       P1  8028  1.00
      P1  H  7997  8010       L1    17  0.55
      P1  H 10752 10763       L1    27  0.55
      P1  H 10752 10765       L1    14  1.00

> <Gold.PLP.Chemscore.Internal.Correction>
0.3086

> <Gold.Rescore>
     Score         DG    S(hbond)    S(metal)    S(lipo)     H(rot)  DE(clash)    DE(int)     intcor
     17.40     -21.12       2.84        0.00     112.18       2.72       0.08       3.64       ----

> <Gold.Chemscore.Fitness>
17.3995

> <Gold.Chemscore.DG>
-21.1226

> <Gold.Chemscore.ZeroCoef>
-5.4800

> <Gold.Chemscore.Hbond>
2.8364

> <Gold.Chemscore.Metal>
0.0000

> <Gold.Chemscore.Lipo>
112.1783

> <Gold.Chemscore.Internal_Hbond>
0.0000

> <Gold.Chemscore.DEClash>
0.0815

> <Gold.Chemscore.DEInternal>
3.6417

> <Gold.Chemscore.Rot>
2.7171

> <Gold.Chemscore.Internal.Correction>
   9.000000E+99

> <Gold.Chemscore.Hbonds>
donor molecule, donor type, donor heavy atom, donor atom, acceptor molecule, acceptor atom, score
      L1  H    29    57       P1  8028  1.00
      P1  H  7997  8010       L1    17  0.02
      P1  H 10752 10763       L1    27  0.54
      P1  H 10752 10765       L1    14  0.86

> <Gold.Chemscore.Hbond.Weighted>
-9.4735

> <Gold.Chemscore.Metal.Weighted>
-0.0000

> <Gold.Chemscore.Lipo.Weighted>
-13.1249

> <Gold.Chemscore.Internal_Hbond.Weighted>
0.0000

> <Gold.Chemscore.DEClash.Weighted>
0.0815

> <Gold.Chemscore.DEInternal.Weighted>
3.6417

> <Gold.Chemscore.Rot.Weighted>
6.9557

> <Gold.Chemscore.Internal.Correction.Weighted>
   9.000000E+99

> <Gold.Protein.RotatedTorsions>
[ 6907 6896 6895 6894 ] final  -27.12 input  -60.11 | X-H torsion
[ 7974 7965 7964 7962 ] final  146.79 input  175.53 | X-H torsion
[ 8008 7997 7996 7995 ] final  -36.35 input   59.86 | X-H torsion
[ 10167 10162 10161 10158 ] final  -37.12 input  -65.29 | X-H torsion
[ 10718 10713 10712 10709 ] final  -22.51 input   66.30 | X-H torsion
[ 10763 10752 10751 10750 ] final -122.58 input  -60.55 | X-H torsion
[ 11005 11000 10999 10996 ] final -120.31 input  -57.11 | X-H torsion

> <Gold.Protein.ActiveResidues>
 VAL166  LYS551  ARG553  GLY616  TRP617  ASP618  TYR619  PRO620  LYS621  CYS622 
 ASP623  PHE694  ASN695  SER759  ASP760  ASP761  ALA762  ILE779  LEU786  VAL792 
 PHE793  MET794  SER795  GLU796  ALA797  LYS798  CYS799  TRP800  GLU811  SER814 

> <Gold.Protein.RotatedAtoms>
  151.1514  135.0229  159.8669 H   0  0  0  0  0  0  0  0  0  0  0  0  # atno 6907 bound_to 6896
  152.5452  134.1384  159.8479 H   0  0  0  0  0  0  0  0  0  0  0  0  # atno 6908 bound_to 6896
  151.1470  133.4887  159.2628 H   0  0  0  0  0  0  0  0  0  0  0  0  # atno 6909 bound_to 6896
  144.8642  139.5949  143.5916 H   0  0  0  0  0  0  0  0  0  0  0  0  # atno 7974 bound_to 7965
  154.4075  140.1633  156.2360 H   0  0  0  0  0  0  0  0  0  0  0  0  # atno 8008 bound_to 7997
  155.9242  140.3419  155.6174 H   0  0  0  0  0  0  0  0  0  0  0  0  # atno 8009 bound_to 7997
  155.7185  140.0765  157.2331 H   0  0  0  0  0  0  0  0  0  0  0  0  # atno 8010 bound_to 7997
  140.7126  143.3363  151.2456 H   0  0  0  0  0  0  0  0  0  0  0  0  # atno 10167 bound_to 10162
  156.5036  130.4593  149.6687 H   0  0  0  0  0  0  0  0  0  0  0  0  # atno 10718 bound_to 10713
  154.8692  135.4128  154.2804 H   0  0  0  0  0  0  0  0  0  0  0  0  # atno 10763 bound_to 10752
  153.3698  135.7007  153.6652 H   0  0  0  0  0  0  0  0  0  0  0  0  # atno 10764 bound_to 10752
  153.5518  135.3627  155.2735 H   0  0  0  0  0  0  0  0  0  0  0  0  # atno 10765 bound_to 10752
  141.0153  134.0205  157.3359 H   0  0  0  0  0  0  0  0  0  0  0  0  # atno 11005 bound_to 11000
  146.2883  139.7068  142.9179 LP  0  0  0  0  0  0  0  0  0  0  0  0  # atno 17320 bound_to 7965
  145.4253  141.0410  143.2941 LP  0  0  0  0  0  0  0  0  0  0  0  0  # atno 17321 bound_to 7965
  139.6859  143.9775  152.2834 LP  0  0  0  0  0  0  0  0  0  0  0  0  # atno 17342 bound_to 10162
  139.9420  144.6675  150.8257 LP  0  0  0  0  0  0  0  0  0  0  0  0  # atno 17343 bound_to 10162
  156.3309  130.7331  151.2260 LP  0  0  0  0  0  0  0  0  0  0  0  0  # atno 17370 bound_to 10713
  157.7460  131.0430  150.4722 LP  0  0  0  0  0  0  0  0  0  0  0  0  # atno 17371 bound_to 10713
  139.9113  135.0190  156.7703 LP  0  0  0  0  0  0  0  0  0  0  0  0  # atno 17394 bound_to 11000
  140.6666  133.9597  155.7833 LP  0  0  0  0  0  0  0  0  0  0  0  0  # atno 17395 bound_to 11000

$$$$
