AV-unprocessed.smi:2802|AV-procd|sdf|10803|dock1
  -GOLD-   2272015233D 1   1.00000     0.00000
 Structure written by MMmdl.
 47 48  0  0  0  0  0  0  0  0  1 V2000
  151.0119  138.8095  154.7163 C   0  0  0  0  0  0  0  0  0  0  0  0
  150.7971  137.6246  155.6696 C   0  0  2  0  0  0  0  0  0  0  0  0
  152.0776  137.3156  156.4669 C   0  0  0  0  0  0  0  0  0  0  0  0
  151.9255  136.1251  157.4421 C   0  0  0  0  0  0  0  0  0  0  0  0
  153.3234  135.7463  157.9725 C   0  0  0  0  0  0  0  0  0  0  0  0
  151.0725  136.5215  158.6683 C   0  0  0  0  0  0  0  0  0  0  0  0
  151.3425  134.8968  156.6864 C   0  0  0  0  0  0  0  0  0  0  0  0
  150.0768  135.1439  155.8109 C   0  0  1  0  0  0  0  0  0  0  0  0
  149.8290  133.8935  154.9211 C   0  0  0  0  0  0  0  0  0  0  0  0
  148.7150  134.0566  154.0644 O   0  0  0  0  0  0  0  0  0  0  0  0
  148.8882  135.4147  156.6348 N   0  0  0  0  0  0  0  0  0  0  0  0
  148.3615  134.6757  157.6277 C   0  0  0  0  0  0  0  0  0  0  0  0
  148.8256  133.5995  158.0043 O   0  0  0  0  0  0  0  0  0  0  0  0
  147.1125  135.2566  158.2979 C   0  0  0  0  0  0  0  0  0  0  0  0
  147.2859  135.3562  159.8040 C   0  0  0  0  0  0  0  0  0  0  0  0
  146.5565  134.5201  160.6752 C   0  0  0  0  0  0  0  0  0  0  0  0
  146.7511  134.6518  162.0635 C   0  0  0  0  0  0  0  0  0  0  0  0
  147.6714  135.6152  162.5230 C   0  0  0  0  0  0  0  0  0  0  0  0
  148.3762  136.4203  161.6991 N   0  0  0  0  0  0  0  0  0  0  0  0
  148.1815  136.2894  160.3691 C   0  0  0  0  0  0  0  0  0  0  0  0
  150.3325  136.3725  154.9019 C   0  0  0  0  0  0  0  0  0  0  0  0
  151.7868  138.5923  153.9805 H   0  0  0  0  0  0  0  0  0  0  0  0
  151.3127  139.7040  155.2624 H   0  0  0  0  0  0  0  0  0  0  0  0
  150.0964  139.0485  154.1743 H   0  0  0  0  0  0  0  0  0  0  0  0
  150.0111  137.9191  156.3645 H   0  0  0  0  0  0  0  0  0  0  0  0
  152.8797  137.1003  155.7587 H   0  0  0  0  0  0  0  0  0  0  0  0
  152.3954  138.2041  157.0145 H   0  0  0  0  0  0  0  0  0  0  0  0
  153.2700  134.9076  158.6677 H   0  0  0  0  0  0  0  0  0  0  0  0
  153.7893  136.5798  158.4995 H   0  0  0  0  0  0  0  0  0  0  0  0
  153.9967  135.4577  157.1644 H   0  0  0  0  0  0  0  0  0  0  0  0
  150.9101  135.6685  159.3281 H   0  0  0  0  0  0  0  0  0  0  0  0
  150.0949  136.9153  158.3994 H   0  0  0  0  0  0  0  0  0  0  0  0
  151.5659  137.2966  159.2557 H   0  0  0  0  0  0  0  0  0  0  0  0
  152.1228  134.5271  156.0191 H   0  0  0  0  0  0  0  0  0  0  0  0
  151.1743  134.0795  157.3880 H   0  0  0  0  0  0  0  0  0  0  0  0
  150.7006  133.6963  154.2959 H   0  0  0  0  0  0  0  0  0  0  0  0
  149.6809  132.9950  155.5197 H   0  0  0  0  0  0  0  0  0  0  0  0
  148.8425  134.8410  153.5528 H   0  0  0  0  0  0  0  0  0  0  0  0
  148.4082  136.2762  156.4189 H   0  0  0  0  0  0  0  0  0  0  0  0
  146.8944  136.2482  157.8979 H   0  0  0  0  0  0  0  0  0  0  0  0
  146.2564  134.6241  158.0611 H   0  0  0  0  0  0  0  0  0  0  0  0
  145.8587  133.7924  160.2878 H   0  0  0  0  0  0  0  0  0  0  0  0
  146.2084  134.0299  162.7599 H   0  0  0  0  0  0  0  0  0  0  0  0
  147.8472  135.7415  163.5810 H   0  0  0  0  0  0  0  0  0  0  0  0
  148.7576  136.9500  159.7380 H   0  0  0  0  0  0  0  0  0  0  0  0
  149.4311  136.6124  154.3360 H   0  0  0  0  0  0  0  0  0  0  0  0
  151.0904  136.1179  154.1594 H   0  0  0  0  0  0  0  0  0  0  0  0
  1  2  1  0  0  0  0
  1 22  1  0  0  0  0
  1 23  1  0  0  0  0
  1 24  1  0  0  0  0
  2 21  1  0  0  0  0
  2  3  1  0  0  0  0
  2 25  1  0  0  0  0
  3  4  1  0  0  0  0
  3 26  1  0  0  0  0
  3 27  1  0  0  0  0
  4  5  1  0  0  0  0
  4  6  1  0  0  0  0
  4  7  1  0  0  0  0
  5 28  1  0  0  0  0
  5 29  1  0  0  0  0
  5 30  1  0  0  0  0
  6 31  1  0  0  0  0
  6 32  1  0  0  0  0
  6 33  1  0  0  0  0
  7  8  1  0  0  0  0
  7 34  1  0  0  0  0
  7 35  1  0  0  0  0
  8  9  1  0  0  0  0
  8 11  1  0  0  0  0
  8 21  1  0  0  0  0
  9 10  1  0  0  0  0
  9 36  1  0  0  0  0
  9 37  1  0  0  0  0
 10 38  1  0  0  0  0
 11 12  1  0  0  0  0
 11 39  1  0  0  0  0
 12 13  2  0  0  0  0
 12 14  1  0  0  0  0
 14 15  1  0  0  0  0
 14 40  1  0  0  0  0
 14 41  1  0  0  0  0
 15 20  1  0  0  0  0
 15 16  2  0  0  0  0
 16 17  1  0  0  0  0
 16 42  1  0  0  0  0
 17 18  2  0  0  0  0
 17 43  1  0  0  0  0
 18 19  1  0  0  0  0
 18 44  1  0  0  0  0
 19 20  2  0  0  0  0
 20 45  1  0  0  0  0
 21 46  1  0  0  0  0
 21 47  1  0  0  0  0
M  END
> <s_m_source_file>
AV-unprocessed.smi

> <i_m_source_file_index>
2802

> <i_lp_mmshare_version>
43012

> <i_f3d_flags>
0

> <s_epik_input>
W0NIM11DMShbQ0gzXSlbQ0gyXVtDQEBIXShbQ0gzXSlbQ0gyXVtDQF0oW0NIMl0xKShbQ0gyXVtPSF0pW05IXUMoPU8pW0NIMl1jMltjSF1bY0hdW2NIXW5bY0hdMg==

> <s_epik_cmdline>
J2VwaWtfcHl0aG9uJywgJy1waCcsICc3LjAnLCAnLXRuJywgJzgnLCAnLW1hJywgJzIwMCcsICctbWV0YWxfYmluZGluZycsICctaW1hZScsICc8aW5maWxlLm1hZT4nLCAnLW9tYWUnLCAnPG91dGZpbGUubWFlPic=

> <r_epik_Ionization_Penalty>
0.004793

> <r_epik_Ionization_Penalty_Charging>
0

> <r_epik_Ionization_Penalty_Neutral>
0.004793

> <r_epik_State_Penalty>
0.00347421

> <r_epik_Charging_Adjusted_Penalty>
0.00347421

> <i_epik_Tot_Q>
0

> <i_epik_Tot_abs_Q>
0

> <r_epik_Metal_State_Penalty>
-0

> <b_epik_Metal_Only>
0

> <s_lp_Force_Field>
OPLS_2005

> <r_lp_Energy>
18.2871

> <b_lp_Chiralities_Consistent>
1

> <s_lp_Variant>
AV-unprocessed.smi:2802-1

> <Gold.Version>
5.8.1

> <Gold.Id.Protein>
6NUR|6NUR_protein|mol2

> <Gold.PLP.Fitness>
39.8178

> <Gold.PLP.PLP>
-31.1482

> <Gold.PLP.part.hbond>
-3.1232

> <Gold.PLP.part.metal>
0.0000

> <Gold.PLP.part.buried>
-4.8588

> <Gold.PLP.part.nonpolar>
-22.9277

> <Gold.PLP.part.repulsive>
0.0299

> <Gold.PLP.ligand.clash>
0.0000

> <Gold.PLP.ligand.torsion>
0.1702

> <Gold.PLP.Chemscore.Hbond>
2.9913

> <Gold.PLP.Chemscore.CHOScore>
0.0000

> <Gold.PLP.Chemscore.Metal>
0.0000

> <Gold.Chemscore.Hbonds>
donor molecule, donor type, donor heavy atom, donor atom, acceptor molecule, acceptor atom, score
      L1  H    10    38       P1  7948  0.68
      P1  H  6896  6909       L1    13  0.26
      P1  H  6931  6943       L1    19  1.00

> <Gold.PLP.Chemscore.Internal.Correction>
0.0363

> <Gold.Rescore>
     Score         DG    S(hbond)    S(metal)    S(lipo)     H(rot)  DE(clash)    DE(int)     intcor
     18.98     -19.12       2.71        0.00      83.17       2.00       0.01       0.13       ----

> <Gold.Chemscore.Fitness>
18.9848

> <Gold.Chemscore.DG>
-19.1239

> <Gold.Chemscore.ZeroCoef>
-5.4800

> <Gold.Chemscore.Hbond>
2.7063

> <Gold.Chemscore.Metal>
0.0000

> <Gold.Chemscore.Lipo>
83.1745

> <Gold.Chemscore.Internal_Hbond>
0.0000

> <Gold.Chemscore.DEClash>
0.0073

> <Gold.Chemscore.DEInternal>
0.1317

> <Gold.Chemscore.Rot>
2.0026

> <Gold.Chemscore.Internal.Correction>
   9.000000E+99

> <Gold.Chemscore.Hbonds>
donor molecule, donor type, donor heavy atom, donor atom, acceptor molecule, acceptor atom, score
      L1  H    10    38       P1  7948  0.31
      P1  H  6896  6909       L1    13  0.22
      P1  H  6931  6943       L1    19  0.49

> <Gold.Chemscore.Hbond.Weighted>
-9.0391

> <Gold.Chemscore.Metal.Weighted>
-0.0000

> <Gold.Chemscore.Lipo.Weighted>
-9.7314

> <Gold.Chemscore.Internal_Hbond.Weighted>
0.0000

> <Gold.Chemscore.DEClash.Weighted>
0.0073

> <Gold.Chemscore.DEInternal.Weighted>
0.1317

> <Gold.Chemscore.Rot.Weighted>
5.1267

> <Gold.Chemscore.Internal.Correction.Weighted>
   9.000000E+99

> <Gold.Protein.RotatedTorsions>
[ 6907 6896 6895 6894 ] final    1.06 input  -60.11 | X-H torsion
[ 7974 7965 7964 7962 ] final   56.27 input  175.53 | X-H torsion
[ 8008 7997 7996 7995 ] final   91.94 input   59.86 | X-H torsion
[ 10167 10162 10161 10158 ] final -167.19 input  -65.29 | X-H torsion
[ 10718 10713 10712 10709 ] final   70.75 input   66.30 | X-H torsion
[ 10763 10752 10751 10750 ] final  168.81 input  -60.55 | X-H torsion
[ 11005 11000 10999 10996 ] final   34.37 input  -57.11 | X-H torsion

> <Gold.Protein.ActiveResidues>
 VAL166  LYS551  ARG553  GLY616  TRP617  ASP618  TYR619  PRO620  LYS621  CYS622 
 ASP623  PHE694  ASN695  SER759  ASP760  ASP761  ALA762  ILE779  LEU786  VAL792 
 PHE793  MET794  SER795  GLU796  ALA797  LYS798  CYS799  TRP800  GLU811  SER814 

> <Gold.Protein.RotatedAtoms>
  151.5865  135.1056  160.0028 H   0  0  0  0  0  0  0  0  0  0  0  0  # atno 6907 bound_to 6896
  152.4328  133.7303  159.6594 H   0  0  0  0  0  0  0  0  0  0  0  0  # atno 6908 bound_to 6896
  150.8222  133.8162  159.3157 H   0  0  0  0  0  0  0  0  0  0  0  0  # atno 6909 bound_to 6896
  145.9416  139.3893  143.0360 H   0  0  0  0  0  0  0  0  0  0  0  0  # atno 7974 bound_to 7965
  156.0296  140.3331  155.7125 H   0  0  0  0  0  0  0  0  0  0  0  0  # atno 8008 bound_to 7997
  155.5904  140.0645  157.2778 H   0  0  0  0  0  0  0  0  0  0  0  0  # atno 8009 bound_to 7997
  154.4348  140.1828  156.1057 H   0  0  0  0  0  0  0  0  0  0  0  0  # atno 8010 bound_to 7997
  139.6065  144.0902  152.1798 H   0  0  0  0  0  0  0  0  0  0  0  0  # atno 10167 bound_to 10162
  157.6416  130.9493  150.0694 H   0  0  0  0  0  0  0  0  0  0  0  0  # atno 10718 bound_to 10713
  154.3740  135.2753  155.2250 H   0  0  0  0  0  0  0  0  0  0  0  0  # atno 10763 bound_to 10752
  154.4385  135.5960  153.6117 H   0  0  0  0  0  0  0  0  0  0  0  0  # atno 10764 bound_to 10752
  152.9837  135.6013  154.3975 H   0  0  0  0  0  0  0  0  0  0  0  0  # atno 10765 bound_to 10752
  140.2536  134.3274  155.7882 H   0  0  0  0  0  0  0  0  0  0  0  0  # atno 11005 bound_to 11000
  145.8293  140.9639  143.0858 LP  0  0  0  0  0  0  0  0  0  0  0  0  # atno 17320 bound_to 7965
  144.6780  140.0141  143.7484 LP  0  0  0  0  0  0  0  0  0  0  0  0  # atno 17321 bound_to 7965
  140.0510  144.5932  150.7336 LP  0  0  0  0  0  0  0  0  0  0  0  0  # atno 17342 bound_to 10162
  140.7288  143.2666  151.4024 LP  0  0  0  0  0  0  0  0  0  0  0  0  # atno 17343 bound_to 10162
  156.1703  130.3646  149.9175 LP  0  0  0  0  0  0  0  0  0  0  0  0  # atno 17370 bound_to 10713
  156.7152  130.8985  151.3613 LP  0  0  0  0  0  0  0  0  0  0  0  0  # atno 17371 bound_to 10713
  141.2198  133.7368  156.9076 LP  0  0  0  0  0  0  0  0  0  0  0  0  # atno 17394 bound_to 11000
  140.1534  134.9215  157.2622 LP  0  0  0  0  0  0  0  0  0  0  0  0  # atno 17395 bound_to 11000

$$$$
