AV-unprocessed.smi:1645|AV-procd|sdf|6614|dock2
  -GOLD-   22720 7313D 1   1.00000     0.00000
 Structure written by MMmdl.
 56 59  0  0  0  0  0  0  0  0  3 V2000
  148.6928  135.5664  156.2791 O   0  0  0  0  0  0  0  0  0  0  0  0
  149.0087  135.7796  155.1091 C   0  0  0  0  0  0  0  0  0  0  0  0
  149.6272  136.8851  154.6592 N   0  0  0  0  0  0  0  0  0  0  0  0
  150.1080  137.9964  155.4043 C   0  0  0  0  0  0  0  0  0  0  0  0
  151.1232  138.7870  154.8269 C   0  0  0  0  0  0  0  0  0  0  0  0
  151.6451  139.8889  155.5350 C   0  0  0  0  0  0  0  0  0  0  0  0
  151.1552  140.1925  156.8305 C   0  0  0  0  0  0  0  0  0  0  0  0
  151.6133  141.2759  157.6142 N   0  0  0  0  0  0  0  0  0  0  0  0
  150.9831  142.5752  157.3578 C   0  0  0  0  0  0  0  0  0  0  0  0
  151.8231  143.7308  157.9280 C   0  0  0  0  0  0  0  0  0  0  0  0
  152.1388  143.5054  159.4130 C   0  0  0  0  0  0  0  0  0  0  0  0
  152.8263  142.1458  159.5976 C   0  0  0  0  0  0  0  0  0  0  0  0
  151.9766  141.0076  159.0071 C   0  0  0  0  0  0  0  0  0  0  0  0
  150.1867  139.3968  157.3455 N   0  3  0  0  0  0  0  0  0  0  0  0
  149.6570  138.3344  156.7023 C   0  0  0  0  0  0  0  0  0  0  0  0
  148.7461  134.9265  154.1081 N   0  0  0  0  0  0  0  0  0  0  0  0
  148.0987  133.6238  154.2598 C   0  0  2  0  0  0  0  0  0  0  0  0
  149.0557  132.4419  154.0130 C   0  0  0  0  0  0  0  0  0  0  0  0
  148.2141  131.4182  153.2439 C   0  0  0  0  0  0  0  0  0  0  0  0
  147.3254  132.2648  152.4398 N   0  3  1  0  0  0  0  0  0  0  0  0
  146.1913  131.6336  151.7352 C   0  0  0  0  0  0  0  0  0  0  0  0
  145.5384  132.6912  150.8191 C   0  0  0  0  0  0  0  0  0  0  0  0
  145.1796  133.9874  151.5817 C   0  0  0  0  0  0  0  0  0  0  0  0
  146.3730  134.5217  152.4037 C   0  0  0  0  0  0  0  0  0  0  0  0
  146.9103  133.3892  153.2967 C   0  0  2  0  0  0  0  0  0  0  0  0
  149.7458  136.9517  153.6589 H   0  0  0  0  0  0  0  0  0  0  0  0
  151.5034  138.5549  153.8426 H   0  0  0  0  0  0  0  0  0  0  0  0
  152.4247  140.4741  155.0712 H   0  0  0  0  0  0  0  0  0  0  0  0
  150.8363  142.7505  156.2922 H   0  0  0  0  0  0  0  0  0  0  0  0
  149.9926  142.5755  157.8148 H   0  0  0  0  0  0  0  0  0  0  0  0
  152.7541  143.8172  157.3662 H   0  0  0  0  0  0  0  0  0  0  0  0
  151.2942  144.6751  157.7969 H   0  0  0  0  0  0  0  0  0  0  0  0
  152.7772  144.3053  159.7891 H   0  0  0  0  0  0  0  0  0  0  0  0
  151.2179  143.5377  159.9967 H   0  0  0  0  0  0  0  0  0  0  0  0
  153.8018  142.1631  159.1096 H   0  0  0  0  0  0  0  0  0  0  0  0
  153.0133  141.9608  160.6556 H   0  0  0  0  0  0  0  0  0  0  0  0
  151.0666  140.8759  159.5941 H   0  0  0  0  0  0  0  0  0  0  0  0
  152.5487  140.0822  159.0779 H   0  0  0  0  0  0  0  0  0  0  0  0
  148.9062  137.7978  157.2624 H   0  0  0  0  0  0  0  0  0  0  0  0
  149.0341  135.1858  153.1757 H   0  0  0  0  0  0  0  0  0  0  0  0
  147.7271  133.5355  155.2829 H   0  0  0  0  0  0  0  0  0  0  0  0
  149.8945  132.7571  153.3902 H   0  0  0  0  0  0  0  0  0  0  0  0
  149.4674  132.0337  154.9367 H   0  0  0  0  0  0  0  0  0  0  0  0
  148.8186  130.7550  152.6244 H   0  0  0  0  0  0  0  0  0  0  0  0
  147.6235  130.8106  153.9315 H   0  0  0  0  0  0  0  0  0  0  0  0
  146.5482  130.7909  151.1420 H   0  0  0  0  0  0  0  0  0  0  0  0
  145.4711  131.2423  152.4552 H   0  0  0  0  0  0  0  0  0  0  0  0
  146.2279  132.9359  150.0099 H   0  0  0  0  0  0  0  0  0  0  0  0
  144.6474  132.2770  150.3461 H   0  0  0  0  0  0  0  0  0  0  0  0
  144.8344  134.7499  150.8829 H   0  0  0  0  0  0  0  0  0  0  0  0
  144.3435  133.7869  152.2530 H   0  0  0  0  0  0  0  0  0  0  0  0
  147.1557  134.8851  151.7361 H   0  0  0  0  0  0  0  0  0  0  0  0
  146.0506  135.3690  153.0095 H   0  0  0  0  0  0  0  0  0  0  0  0
  146.0835  133.0382  153.9181 H   0  0  0  0  0  0  0  0  0  0  0  0
  147.9160  132.6658  151.7253 H   0  0  0  0  0  0  0  0  0  0  0  0
  149.8347  139.6126  158.2785 H   0  0  0  0  0  0  0  0  0  0  0  0
  1  2  2  0  0  0  0
  2  3  1  0  0  0  0
  2 16  1  0  0  0  0
  3  4  1  0  0  0  0
  3 26  1  0  0  0  0
  4 15  1  0  0  0  0
  4  5  2  0  0  0  0
  5  6  1  0  0  0  0
  5 27  1  0  0  0  0
  6  7  2  0  0  0  0
  6 28  1  0  0  0  0
  7  8  1  0  0  0  0
  7 14  1  0  0  0  0
  8 13  1  0  0  0  0
  8  9  1  0  0  0  0
  9 10  1  0  0  0  0
  9 29  1  0  0  0  0
  9 30  1  0  0  0  0
 10 11  1  0  0  0  0
 10 31  1  0  0  0  0
 10 32  1  0  0  0  0
 11 12  1  0  0  0  0
 11 33  1  0  0  0  0
 11 34  1  0  0  0  0
 12 13  1  0  0  0  0
 12 35  1  0  0  0  0
 12 36  1  0  0  0  0
 13 37  1  0  0  0  0
 13 38  1  0  0  0  0
 14 15  2  0  0  0  0
 14 56  1  0  0  0  0
 15 39  1  0  0  0  0
 16 17  1  0  0  0  0
 16 40  1  0  0  0  0
 17 25  1  0  0  0  0
 17 18  1  0  0  0  0
 17 41  1  0  0  0  0
 18 19  1  0  0  0  0
 18 42  1  0  0  0  0
 18 43  1  0  0  0  0
 19 20  1  0  0  0  0
 19 44  1  0  0  0  0
 19 45  1  0  0  0  0
 20 25  1  0  0  0  0
 20 21  1  0  0  0  0
 20 55  1  0  0  0  0
 21 22  1  0  0  0  0
 21 46  1  0  0  0  0
 21 47  1  0  0  0  0
 22 23  1  0  0  0  0
 22 48  1  0  0  0  0
 22 49  1  0  0  0  0
 23 24  1  0  0  0  0
 23 50  1  0  0  0  0
 23 51  1  0  0  0  0
 24 25  1  0  0  0  0
 24 52  1  0  0  0  0
 24 53  1  0  0  0  0
 25 54  1  0  0  0  0
M  CHG  1  14   1
M  CHG  1  20   1
M  END
> <s_m_source_file>
AV-unprocessed.smi

> <i_m_source_file_index>
1645

> <i_lp_mmshare_version>
43012

> <i_f3d_flags>
0

> <s_epik_input>
W0NIMl0xW0NIMl1bQ0gyXVtDSDJdW0NASF0oTjEyKVtDQEBIXShbQ0gyXVtDSDJdMilbTkhdQyg9TylbTkhdYzNbY0hdW2NIXWMobltjSF0zKU40W0NIMl1bQ0gyXVtDSDJdW0NIMl1bQ0gyXTQ=

> <s_epik_cmdline>
J2VwaWtfcHl0aG9uJywgJy1waCcsICc3LjAnLCAnLXRuJywgJzgnLCAnLW1hJywgJzIwMCcsICctbWV0YWxfYmluZGluZycsICctaW1hZScsICc8aW5maWxlLm1hZT4nLCAnLW9tYWUnLCAnPG91dGZpbGUubWFlPic=

> <r_lp_tautomer_probability>
0.999994

> <r_epik_Ionization_Penalty>
1.26838

> <r_epik_Ionization_Penalty_Charging>
1.26836

> <r_epik_Ionization_Penalty_Neutral>
1.95562e-05

> <r_epik_State_Penalty>
1.33841

> <r_epik_Charging_Adjusted_Penalty>
2.60677

> <i_epik_Tot_Q>
2

> <i_epik_Tot_abs_Q>
2

> <r_epik_Metal_State_Penalty>
1.40601

> <b_epik_Metal_Only>
0

> <s_lp_Force_Field>
OPLS_2005

> <r_lp_Energy>
64.8366

> <b_lp_Chiralities_Consistent>
1

> <s_lp_Variant>
AV-unprocessed.smi:1645-15

> <Gold.Version>
5.8.1

> <Gold.Id.Protein>
6NUR|6NUR_protein|mol2

> <Gold.PLP.Fitness>
47.3524

> <Gold.PLP.PLP>
-42.6899

> <Gold.PLP.part.hbond>
-2.9240

> <Gold.PLP.part.metal>
0.0000

> <Gold.PLP.part.buried>
-1.9175

> <Gold.PLP.part.nonpolar>
-37.8548

> <Gold.PLP.part.repulsive>
0.0902

> <Gold.PLP.ligand.clash>
0.0000

> <Gold.PLP.ligand.torsion>
0.6525

> <Gold.PLP.Chemscore.Hbond>
1.8143

> <Gold.PLP.Chemscore.CHOScore>
0.0000

> <Gold.PLP.Chemscore.Metal>
0.0000

> <Gold.Chemscore.Hbonds>
donor molecule, donor type, donor heavy atom, donor atom, acceptor molecule, acceptor atom, score
      L1  H     3    26       P1  7948  0.80
      L1  H    16    40       P1  7948  1.00

> <Gold.PLP.Chemscore.Internal.Correction>
0.5245

> <Gold.Rescore>
     Score         DG    S(hbond)    S(metal)    S(lipo)     H(rot)  DE(clash)    DE(int)     intcor
     19.67     -21.63       1.83        0.00     111.66       1.18       0.05       1.91       ----

> <Gold.Chemscore.Fitness>
19.6715

> <Gold.Chemscore.DG>
-21.6341

> <Gold.Chemscore.ZeroCoef>
-5.4800

> <Gold.Chemscore.Hbond>
1.8320

> <Gold.Chemscore.Metal>
0.0000

> <Gold.Chemscore.Lipo>
111.6621

> <Gold.Chemscore.Internal_Hbond>
0.0000

> <Gold.Chemscore.DEClash>
0.0536

> <Gold.Chemscore.DEInternal>
1.9089

> <Gold.Chemscore.Rot>
1.1833

> <Gold.Chemscore.Internal.Correction>
   9.000000E+99

> <Gold.Chemscore.Hbonds>
donor molecule, donor type, donor heavy atom, donor atom, acceptor molecule, acceptor atom, score
      L1  H     3    26       P1  7948  0.49
      L1  H    16    40       P1  7948  0.25

> <Gold.Chemscore.Hbond.Weighted>
-6.1189

> <Gold.Chemscore.Metal.Weighted>
-0.0000

> <Gold.Chemscore.Lipo.Weighted>
-13.0645

> <Gold.Chemscore.Internal_Hbond.Weighted>
0.0000

> <Gold.Chemscore.DEClash.Weighted>
0.0536

> <Gold.Chemscore.DEInternal.Weighted>
1.9089

> <Gold.Chemscore.Rot.Weighted>
3.0293

> <Gold.Chemscore.Internal.Correction.Weighted>
   9.000000E+99

> <Gold.Protein.RotatedTorsions>
[ 6907 6896 6895 6894 ] final  149.69 input  -60.11 | X-H torsion
[ 7974 7965 7964 7962 ] final  -12.59 input  175.53 | X-H torsion
[ 8008 7997 7996 7995 ] final   93.99 input   59.86 | X-H torsion
[ 10167 10162 10161 10158 ] final   51.49 input  -65.29 | X-H torsion
[ 10718 10713 10712 10709 ] final   89.43 input   66.30 | X-H torsion
[ 10763 10752 10751 10750 ] final  134.71 input  -60.55 | X-H torsion
[ 11005 11000 10999 10996 ] final -126.38 input  -57.11 | X-H torsion

> <Gold.Protein.ActiveResidues>
 VAL166  LYS551  ARG553  GLY616  TRP617  ASP618  TYR619  PRO620  LYS621  CYS622 
 ASP623  PHE694  ASN695  SER759  ASP760  ASP761  ALA762  ILE779  LEU786  VAL792 
 PHE793  MET794  SER795  GLU796  ALA797  LYS798  CYS799  TRP800  GLU811  SER814 

> <Gold.Protein.RotatedAtoms>
  152.1245  133.4372  159.4691 H   0  0  0  0  0  0  0  0  0  0  0  0  # atno 6907 bound_to 6896
  150.6874  134.2495  159.4514 H   0  0  0  0  0  0  0  0  0  0  0  0  # atno 6908 bound_to 6896
  152.0374  134.9731  160.0624 H   0  0  0  0  0  0  0  0  0  0  0  0  # atno 6909 bound_to 6896
  146.2146  140.3080  142.8380 H   0  0  0  0  0  0  0  0  0  0  0  0  # atno 7974 bound_to 7965
  156.0530  140.3305  155.7372 H   0  0  0  0  0  0  0  0  0  0  0  0  # atno 8008 bound_to 7997
  155.5572  140.0615  157.2854 H   0  0  0  0  0  0  0  0  0  0  0  0  # atno 8009 bound_to 7997
  154.4444  140.1883  156.0735 H   0  0  0  0  0  0  0  0  0  0  0  0  # atno 8010 bound_to 7997
  140.2613  144.3369  150.6317 H   0  0  0  0  0  0  0  0  0  0  0  0  # atno 10167 bound_to 10162
  157.6955  131.0332  150.3424 H   0  0  0  0  0  0  0  0  0  0  0  0  # atno 10718 bound_to 10713
  153.8281  135.3107  155.3416 H   0  0  0  0  0  0  0  0  0  0  0  0  # atno 10763 bound_to 10752
  154.7985  135.4741  154.0220 H   0  0  0  0  0  0  0  0  0  0  0  0  # atno 10764 bound_to 10752
  153.1651  135.6868  153.8777 H   0  0  0  0  0  0  0  0  0  0  0  0  # atno 10765 bound_to 10752
  140.9686  134.0837  157.3893 H   0  0  0  0  0  0  0  0  0  0  0  0  # atno 11005 bound_to 11000
  144.9009  140.7641  143.5868 LP  0  0  0  0  0  0  0  0  0  0  0  0  # atno 17320 bound_to 7965
  145.3006  139.1851  143.4691 LP  0  0  0  0  0  0  0  0  0  0  0  0  # atno 17321 bound_to 7965
  140.5963  143.2167  151.7157 LP  0  0  0  0  0  0  0  0  0  0  0  0  # atno 17342 bound_to 10162
  139.5016  144.3862  152.0326 LP  0  0  0  0  0  0  0  0  0  0  0  0  # atno 17343 bound_to 10162
  156.3883  130.3893  149.7049 LP  0  0  0  0  0  0  0  0  0  0  0  0  # atno 17370 bound_to 10713
  156.4407  130.7860  151.2881 LP  0  0  0  0  0  0  0  0  0  0  0  0  # atno 17371 bound_to 10713
  139.8904  135.0111  156.6732 LP  0  0  0  0  0  0  0  0  0  0  0  0  # atno 17394 bound_to 11000
  140.7362  133.9016  155.8246 LP  0  0  0  0  0  0  0  0  0  0  0  0  # atno 17395 bound_to 11000

$$$$
