AV-unprocessed.smi:2706|AV-procd|sdf|10453|dock6
  -GOLD-   2272014493D 1   1.00000     0.00000
 Structure written by MMmdl.
 43 46  0  0  0  0  0  0  0  0  1 V2000
  151.0271  144.1728  159.0835 C   0  0  0  0  0  0  0  0  0  0  0  0
  151.8344  143.5150  160.1048 N   0  0  0  0  0  0  0  0  0  0  0  0
  152.0135  144.2877  161.3301 C   0  0  0  0  0  0  0  0  0  0  0  0
  152.4077  142.2609  159.8861 C   0  0  0  0  0  0  0  0  0  0  0  0
  153.1559  141.6608  160.8388 C   0  0  0  0  0  0  0  0  0  0  0  0
  153.7473  140.3626  160.5887 C   0  0  0  0  0  0  0  0  0  0  0  0
  153.5612  139.7246  159.4167 C   0  0  0  0  0  0  0  0  0  0  0  0
  152.7525  140.3178  158.3684 C   0  0  0  0  0  0  0  0  0  0  0  0
  152.5893  139.6953  157.2347 N   0  0  0  0  0  0  0  0  0  0  0  0
  151.7367  140.1485  156.2279 C   0  0  0  0  0  0  0  0  0  0  0  0
  151.8677  139.8172  155.0500 O   0  0  0  0  0  0  0  0  0  0  0  0
  150.6819  140.8859  156.6326 N   0  0  0  0  0  0  0  0  0  0  0  0
  149.6640  141.4265  155.7914 C   0  0  2  0  0  0  0  0  0  0  0  0
  148.2350  140.9943  156.0814 C   0  0  1  0  0  0  0  0  0  0  0  0
  146.9749  141.6391  155.5119 C   0  0  2  0  0  0  0  0  0  0  0  0
  146.0316  140.5074  155.0551 C   0  0  0  0  0  0  0  0  0  0  0  0
  146.7555  139.9533  153.8032 C   0  0  0  0  0  0  0  0  0  0  0  0
  148.0102  140.8474  153.7204 C   0  0  1  0  0  0  0  0  0  0  0  0
  147.4117  142.1871  154.1522 C   0  0  0  0  0  0  0  0  0  0  0  0
  148.9362  140.4601  154.8696 C   0  0  1  0  0  0  0  0  0  0  0  0
  152.2273  141.5881  158.6741 N   0  0  0  0  0  0  0  0  0  0  0  0
  151.6699  144.6032  158.3151 H   0  0  0  0  0  0  0  0  0  0  0  0
  150.4106  144.9703  159.4989 H   0  0  0  0  0  0  0  0  0  0  0  0
  150.3537  143.4606  158.6069 H   0  0  0  0  0  0  0  0  0  0  0  0
  151.4838  143.8131  162.1565 H   0  0  0  0  0  0  0  0  0  0  0  0
  151.6404  145.3077  161.2329 H   0  0  0  0  0  0  0  0  0  0  0  0
  153.0705  144.3533  161.5896 H   0  0  0  0  0  0  0  0  0  0  0  0
  153.3299  142.1243  161.7983 H   0  0  0  0  0  0  0  0  0  0  0  0
  154.3518  139.8998  161.3548 H   0  0  0  0  0  0  0  0  0  0  0  0
  154.0293  138.7593  159.2881 H   0  0  0  0  0  0  0  0  0  0  0  0
  150.5994  141.0783  157.6206 H   0  0  0  0  0  0  0  0  0  0  0  0
  149.8140  142.4457  155.4423 H   0  0  0  0  0  0  0  0  0  0  0  0
  148.0781  140.3088  156.9119 H   0  0  0  0  0  0  0  0  0  0  0  0
  146.5270  142.3652  156.1904 H   0  0  0  0  0  0  0  0  0  0  0  0
  145.8935  139.7483  155.8261 H   0  0  0  0  0  0  0  0  0  0  0  0
  145.0485  140.8994  154.7905 H   0  0  0  0  0  0  0  0  0  0  0  0
  147.0070  138.8965  153.9017 H   0  0  0  0  0  0  0  0  0  0  0  0
  146.1331  140.0687  152.9150 H   0  0  0  0  0  0  0  0  0  0  0  0
  148.5127  140.8465  152.7529 H   0  0  0  0  0  0  0  0  0  0  0  0
  146.5783  142.5132  153.5263 H   0  0  0  0  0  0  0  0  0  0  0  0
  148.1308  143.0038  154.2064 H   0  0  0  0  0  0  0  0  0  0  0  0
  149.2568  139.4197  154.8867 H   0  0  0  0  0  0  0  0  0  0  0  0
  151.6742  142.0816  157.9885 H   0  0  0  0  0  0  0  0  0  0  0  0
  1  2  1  0  0  0  0
  1 22  1  0  0  0  0
  1 23  1  0  0  0  0
  1 24  1  0  0  0  0
  2  3  1  0  0  0  0
  2  4  1  0  0  0  0
  3 25  1  0  0  0  0
  3 26  1  0  0  0  0
  3 27  1  0  0  0  0
  4 21  1  0  0  0  0
  4  5  2  0  0  0  0
  5  6  1  0  0  0  0
  5 28  1  0  0  0  0
  6  7  2  0  0  0  0
  6 29  1  0  0  0  0
  7  8  1  0  0  0  0
  7 30  1  0  0  0  0
  8  9  2  0  0  0  0
  8 21  1  0  0  0  0
  9 10  1  0  0  0  0
 10 11  2  0  0  0  0
 10 12  1  0  0  0  0
 12 13  1  0  0  0  0
 12 31  1  0  0  0  0
 13 20  1  0  0  0  0
 13 14  1  0  0  0  0
 13 32  1  0  0  0  0
 14 20  1  0  0  0  0
 14 15  1  0  0  0  0
 14 33  1  0  0  0  0
 15 19  1  0  0  0  0
 15 16  1  0  0  0  0
 15 34  1  0  0  0  0
 16 17  1  0  0  0  0
 16 35  1  0  0  0  0
 16 36  1  0  0  0  0
 17 18  1  0  0  0  0
 17 37  1  0  0  0  0
 17 38  1  0  0  0  0
 18 19  1  0  0  0  0
 18 20  1  0  0  0  0
 18 39  1  0  0  0  0
 19 40  1  0  0  0  0
 19 41  1  0  0  0  0
 20 42  1  0  0  0  0
 21 43  1  0  0  0  0
M  END
> <s_m_source_file>
AV-unprocessed.smi

> <i_m_source_file_index>
2706

> <i_lp_mmshare_version>
43012

> <i_f3d_flags>
0

> <s_epik_input>
W0NIM11OKFtDSDNdKWMxW2NIXVtjSF1bY0hdYyhuMSlbTkhdQyg9TylbTkhdW0NASF0yW0NAQEhdM1tDQEBIXShbQ0gyXTQpW0NIMl1bQ0gyXVtDQEBIXTRbQ0BIXTIz

> <s_epik_cmdline>
J2VwaWtfcHl0aG9uJywgJy1waCcsICc3LjAnLCAnLXRuJywgJzgnLCAnLW1hJywgJzIwMCcsICctbWV0YWxfYmluZGluZycsICctaW1hZScsICc8aW5maWxlLm1hZT4nLCAnLW9tYWUnLCAnPG91dGZpbGUubWFlPic=

> <r_lp_tautomer_probability>
0.999994

> <r_epik_Ionization_Penalty>
2.07242

> <r_epik_Ionization_Penalty_Charging>
2.07242

> <r_epik_Ionization_Penalty_Neutral>
9.73808e-07

> <r_epik_State_Penalty>
3.96009

> <r_epik_Charging_Adjusted_Penalty>
6.03251

> <i_epik_Tot_Q>
0

> <i_epik_Tot_abs_Q>
0

> <r_epik_Metal_State_Penalty>
3.98849

> <b_epik_Metal_Only>
1

> <s_lp_Force_Field>
OPLS_2005

> <r_lp_Energy>
89.4683

> <b_lp_Chiralities_Consistent>
1

> <s_lp_Variant>
AV-unprocessed.smi:2706-10

> <Gold.Version>
5.8.1

> <Gold.Id.Protein>
6NUR|6NUR_protein|mol2

> <Gold.PLP.Fitness>
47.6029

> <Gold.PLP.PLP>
-42.4977

> <Gold.PLP.part.hbond>
-2.0000

> <Gold.PLP.part.metal>
0.0000

> <Gold.PLP.part.buried>
-4.1321

> <Gold.PLP.part.nonpolar>
-36.9317

> <Gold.PLP.part.repulsive>
0.1952

> <Gold.PLP.ligand.clash>
0.0000

> <Gold.PLP.ligand.torsion>
0.1538

> <Gold.PLP.Chemscore.Hbond>
1.7940

> <Gold.PLP.Chemscore.CHOScore>
0.0000

> <Gold.PLP.Chemscore.Metal>
0.0000

> <Gold.Chemscore.Hbonds>
donor molecule, donor type, donor heavy atom, donor atom, acceptor molecule, acceptor atom, score
      P1  H  7989  7998       L1    11  0.96
      P1  H  7997  8008       L1     9  0.90

> <Gold.PLP.Chemscore.Internal.Correction>
0.0308

> <Gold.Rescore>
     Score         DG    S(hbond)    S(metal)    S(lipo)     H(rot)  DE(clash)    DE(int)     intcor
     14.66     -16.46       1.02        0.00      86.66       1.00       0.04       1.77       ----

> <Gold.Chemscore.Fitness>
14.6556

> <Gold.Chemscore.DG>
-16.4646

> <Gold.Chemscore.ZeroCoef>
-5.4800

> <Gold.Chemscore.Hbond>
1.0195

> <Gold.Chemscore.Metal>
0.0000

> <Gold.Chemscore.Lipo>
86.6627

> <Gold.Chemscore.Internal_Hbond>
0.0000

> <Gold.Chemscore.DEClash>
0.0402

> <Gold.Chemscore.DEInternal>
1.7687

> <Gold.Chemscore.Rot>
1.0000

> <Gold.Chemscore.Internal.Correction>
   9.000000E+99

> <Gold.Chemscore.Hbonds>
donor molecule, donor type, donor heavy atom, donor atom, acceptor molecule, acceptor atom, score
      P1  H  7989  7998       L1    11  0.92
      P1  H  7997  8008       L1     9  0.04

> <Gold.Chemscore.Hbond.Weighted>
-3.4051

> <Gold.Chemscore.Metal.Weighted>
-0.0000

> <Gold.Chemscore.Lipo.Weighted>
-10.1395

> <Gold.Chemscore.Internal_Hbond.Weighted>
0.0000

> <Gold.Chemscore.DEClash.Weighted>
0.0402

> <Gold.Chemscore.DEInternal.Weighted>
1.7687

> <Gold.Chemscore.Rot.Weighted>
2.5600

> <Gold.Chemscore.Internal.Correction.Weighted>
   9.000000E+99

> <Gold.Protein.RotatedTorsions>
[ 6907 6896 6895 6894 ] final  106.54 input  -60.11 | X-H torsion
[ 7974 7965 7964 7962 ] final   22.90 input  175.53 | X-H torsion
[ 8008 7997 7996 7995 ] final  -47.02 input   59.86 | X-H torsion
[ 10167 10162 10161 10158 ] final  121.50 input  -65.29 | X-H torsion
[ 10718 10713 10712 10709 ] final   81.22 input   66.30 | X-H torsion
[ 10763 10752 10751 10750 ] final  -27.33 input  -60.55 | X-H torsion
[ 11005 11000 10999 10996 ] final  152.04 input  -57.11 | X-H torsion

> <Gold.Protein.ActiveResidues>
 VAL166  LYS551  ARG553  GLY616  TRP617  ASP618  TYR619  PRO620  LYS621  CYS622 
 ASP623  PHE694  ASN695  SER759  ASP760  ASP761  ALA762  ILE779  LEU786  VAL792 
 PHE793  MET794  SER795  GLU796  ALA797  LYS798  CYS799  TRP800  GLU811  SER814 

> <Gold.Protein.RotatedAtoms>
  152.5189  133.9366  159.7605 H   0  0  0  0  0  0  0  0  0  0  0  0  # atno 6907 bound_to 6896
  150.9705  133.6341  159.2746 H   0  0  0  0  0  0  0  0  0  0  0  0  # atno 6908 bound_to 6896
  151.3554  135.0898  159.9470 H   0  0  0  0  0  0  0  0  0  0  0  0  # atno 6909 bound_to 6896
  146.2009  139.7821  142.8762 H   0  0  0  0  0  0  0  0  0  0  0  0  # atno 7974 bound_to 7965
  154.4012  140.1357  156.4107 H   0  0  0  0  0  0  0  0  0  0  0  0  # atno 8008 bound_to 7997
  155.7736  140.3483  155.5240 H   0  0  0  0  0  0  0  0  0  0  0  0  # atno 8009 bound_to 7997
  155.8743  140.0977  157.1519 H   0  0  0  0  0  0  0  0  0  0  0  0  # atno 8010 bound_to 7997
  139.5915  144.7027  151.3277 H   0  0  0  0  0  0  0  0  0  0  0  0  # atno 10167 bound_to 10162
  157.6827  130.9994  150.2194 H   0  0  0  0  0  0  0  0  0  0  0  0  # atno 10718 bound_to 10713
  153.7304  135.6939  153.4990 H   0  0  0  0  0  0  0  0  0  0  0  0  # atno 10763 bound_to 10752
  153.2140  135.4393  155.0411 H   0  0  0  0  0  0  0  0  0  0  0  0  # atno 10764 bound_to 10752
  154.8255  135.3444  154.6834 H   0  0  0  0  0  0  0  0  0  0  0  0  # atno 10765 bound_to 10752
  140.1273  134.8825  157.2155 H   0  0  0  0  0  0  0  0  0  0  0  0  # atno 11005 bound_to 11000
  145.3488  141.0303  143.3350 LP  0  0  0  0  0  0  0  0  0  0  0  0  # atno 17320 bound_to 7965
  144.8680  139.5079  143.6781 LP  0  0  0  0  0  0  0  0  0  0  0  0  # atno 17321 bound_to 7965
  140.7177  143.7221  150.7688 LP  0  0  0  0  0  0  0  0  0  0  0  0  # atno 17342 bound_to 10162
  140.0778  143.4999  152.2546 LP  0  0  0  0  0  0  0  0  0  0  0  0  # atno 17343 bound_to 10162
  156.2849  130.3738  149.7899 LP  0  0  0  0  0  0  0  0  0  0  0  0  # atno 17370 bound_to 10713
  156.5576  130.8369  151.3319 LP  0  0  0  0  0  0  0  0  0  0  0  0  # atno 17371 bound_to 10713
  140.2888  134.3265  155.7321 LP  0  0  0  0  0  0  0  0  0  0  0  0  # atno 17394 bound_to 11000
  141.2163  133.7522  156.9472 LP  0  0  0  0  0  0  0  0  0  0  0  0  # atno 17395 bound_to 11000

$$$$
