AV-unprocessed.smi:51|AV-procd|sdf|503|dock2
  -GOLD-   2262016373D 1   1.00000     0.00000
 Structure written by MMmdl.
 26 27  0  0  0  0  0  0  0  0  3 V2000
  153.7686  140.6237  159.9110 O   0  0  0  0  0  0  0  0  0  0  0  0
  153.1880  140.0852  158.9440 C   0  0  0  0  0  0  0  0  0  0  0  0
  153.6712  139.1911  158.2146 O   0  5  0  0  0  0  0  0  0  0  0  0
  151.7709  140.5864  158.6251 C   0  0  2  0  0  0  0  0  0  0  0  0
  151.1555  139.8738  157.4068 C   0  0  0  0  0  0  0  0  0  0  0  0
  151.4226  140.8337  156.2448 C   0  0  1  0  0  0  0  0  0  0  0  0
  150.5033  140.6714  155.1858 O   0  0  0  0  0  0  0  0  0  0  0  0
  151.3181  142.2110  156.9014 C   0  0  0  0  0  0  0  0  0  0  0  0
  151.7820  142.0032  158.2664 N   0  0  0  0  0  0  0  0  0  0  0  0
  151.8014  143.0444  159.2167 C   0  0  0  0  0  0  0  0  0  0  0  0
  152.1985  142.8366  160.5553 C   0  0  0  0  0  0  0  0  0  0  0  0
  152.1884  143.9510  161.4133 C   0  0  0  0  0  0  0  0  0  0  0  0
  151.8054  145.1662  160.9540 N   0  3  0  0  0  0  0  0  0  0  0  0
  151.4358  145.2994  159.6724 C   0  0  0  0  0  0  0  0  0  0  0  0
  151.4257  144.2783  158.8081 N   0  0  0  0  0  0  0  0  0  0  0  0
  151.1313  140.4204  159.4930 H   0  0  0  0  0  0  0  0  0  0  0  0
  151.5602  138.8763  157.2285 H   0  0  0  0  0  0  0  0  0  0  0  0
  150.0812  139.7659  157.5639 H   0  0  0  0  0  0  0  0  0  0  0  0
  152.4352  140.6813  155.8685 H   0  0  0  0  0  0  0  0  0  0  0  0
  149.7079  141.1302  155.4093 H   0  0  0  0  0  0  0  0  0  0  0  0
  151.9185  142.9514  156.3713 H   0  0  0  0  0  0  0  0  0  0  0  0
  150.2838  142.5579  156.9275 H   0  0  0  0  0  0  0  0  0  0  0  0
  152.5093  141.8712  160.9254 H   0  0  0  0  0  0  0  0  0  0  0  0
  152.4762  143.9094  162.4534 H   0  0  0  0  0  0  0  0  0  0  0  0
  151.1397  146.2871  159.3515 H   0  0  0  0  0  0  0  0  0  0  0  0
  151.8033  145.9678  161.5846 H   0  0  0  0  0  0  0  0  0  0  0  0
  1  2  2  0  0  0  0
  2  3  1  0  0  0  0
  2  4  1  0  0  0  0
  4  9  1  0  0  0  0
  4  5  1  0  0  0  0
  4 16  1  0  0  0  0
  5  6  1  0  0  0  0
  5 17  1  0  0  0  0
  5 18  1  0  0  0  0
  6  7  1  0  0  0  0
  6  8  1  0  0  0  0
  6 19  1  0  0  0  0
  7 20  1  0  0  0  0
  8  9  1  0  0  0  0
  8 21  1  0  0  0  0
  8 22  1  0  0  0  0
  9 10  1  0  0  0  0
 10 15  1  0  0  0  0
 10 11  2  0  0  0  0
 11 12  1  0  0  0  0
 11 23  1  0  0  0  0
 12 13  2  0  0  0  0
 12 24  1  0  0  0  0
 13 14  1  0  0  0  0
 13 26  1  0  0  0  0
 14 15  2  0  0  0  0
 14 25  1  0  0  0  0
M  CHG  1   3  -1
M  CHG  1  13   1
M  END
> <s_m_source_file>
AV-unprocessed.smi

> <i_m_source_file_index>
51

> <i_lp_mmshare_version>
43012

> <i_f3d_flags>
0

> <s_epik_input>
Tz1DKFtPSF0pW0NAQEhdMVtDSDJdW0NAQEhdKFtPSF0pW0NIMl1OMWMyW2NIXVtjSF1uW2NIXW4y

> <s_epik_cmdline>
J2VwaWtfcHl0aG9uJywgJy1waCcsICc3LjAnLCAnLXRuJywgJzgnLCAnLW1hJywgJzIwMCcsICctbWV0YWxfYmluZGluZycsICctaW1hZScsICc8aW5maWxlLm1hZT4nLCAnLW9tYWUnLCAnPG91dGZpbGUubWFlPic=

> <r_lp_tautomer_probability>
0.999336

> <r_epik_Ionization_Penalty>
0.688427

> <r_epik_Ionization_Penalty_Charging>
0.688427

> <r_epik_Ionization_Penalty_Neutral>
1.98379e-07

> <r_epik_State_Penalty>
0.709817

> <r_epik_Charging_Adjusted_Penalty>
1.39824

> <i_epik_Tot_Q>
0

> <i_epik_Tot_abs_Q>
2

> <r_epik_Metal_State_Penalty>
0.873261

> <b_epik_Metal_Only>
0

> <s_lp_Force_Field>
OPLS_2005

> <r_lp_Energy>
13.2296

> <b_lp_Chiralities_Consistent>
1

> <s_lp_Variant>
AV-unprocessed.smi:51-5

> <Gold.Version>
5.8.1

> <Gold.Id.Protein>
6NUR|6NUR_protein|mol2

> <Gold.PLP.Fitness>
39.9731

> <Gold.PLP.PLP>
-31.3659

> <Gold.PLP.part.hbond>
-3.0000

> <Gold.PLP.part.metal>
0.0000

> <Gold.PLP.part.buried>
-6.0117

> <Gold.PLP.part.nonpolar>
-21.6654

> <Gold.PLP.part.repulsive>
0.2029

> <Gold.PLP.ligand.clash>
0.0000

> <Gold.PLP.ligand.torsion>
0.0854

> <Gold.PLP.Chemscore.Hbond>
2.8882

> <Gold.PLP.Chemscore.CHOScore>
0.0000

> <Gold.PLP.Chemscore.Metal>
0.0000

> <Gold.Chemscore.Hbonds>
donor molecule, donor type, donor heavy atom, donor atom, acceptor molecule, acceptor atom, score
      P1  H  7989  7998       L1     7  0.89
      P1  H  7997  8010       L1     3  2.00

> <Gold.PLP.Chemscore.Internal.Correction>
0.1136

> <Gold.Rescore>
     Score         DG    S(hbond)    S(metal)    S(lipo)     H(rot)  DE(clash)    DE(int)     intcor
      9.36     -12.09       1.54        0.00      49.78       1.70       1.25       1.49       ----

> <Gold.Chemscore.Fitness>
9.3561

> <Gold.Chemscore.DG>
-12.0913

> <Gold.Chemscore.ZeroCoef>
-5.4800

> <Gold.Chemscore.Hbond>
1.5400

> <Gold.Chemscore.Metal>
0.0000

> <Gold.Chemscore.Lipo>
49.7836

> <Gold.Chemscore.Internal_Hbond>
0.0000

> <Gold.Chemscore.DEClash>
1.2500

> <Gold.Chemscore.DEInternal>
1.4852

> <Gold.Chemscore.Rot>
1.7020

> <Gold.Chemscore.Internal.Correction>
   9.000000E+99

> <Gold.Chemscore.Hbonds>
donor molecule, donor type, donor heavy atom, donor atom, acceptor molecule, acceptor atom, score
      P1  H  7989  7998       L1     7  0.36
      P1  H  7997  8010       L1     3  0.50

> <Gold.Chemscore.Hbond.Weighted>
-5.1438

> <Gold.Chemscore.Metal.Weighted>
-0.0000

> <Gold.Chemscore.Lipo.Weighted>
-5.8247

> <Gold.Chemscore.Internal_Hbond.Weighted>
0.0000

> <Gold.Chemscore.DEClash.Weighted>
1.2500

> <Gold.Chemscore.DEInternal.Weighted>
1.4852

> <Gold.Chemscore.Rot.Weighted>
4.3571

> <Gold.Chemscore.Internal.Correction.Weighted>
   9.000000E+99

> <Gold.Protein.RotatedTorsions>
[ 6907 6896 6895 6894 ] final   22.92 input  -60.11 | X-H torsion
[ 7974 7965 7964 7962 ] final  101.43 input  175.53 | X-H torsion
[ 8008 7997 7996 7995 ] final   15.62 input   59.86 | X-H torsion
[ 10167 10162 10161 10158 ] final  -46.33 input  -65.29 | X-H torsion
[ 10718 10713 10712 10709 ] final -103.59 input   66.30 | X-H torsion
[ 10763 10752 10751 10750 ] final  125.07 input  -60.55 | X-H torsion
[ 11005 11000 10999 10996 ] final   69.64 input  -57.11 | X-H torsion

> <Gold.Protein.ActiveResidues>
 VAL166  LYS551  ARG553  GLY616  TRP617  ASP618  TYR619  PRO620  LYS621  CYS622 
 ASP623  PHE694  ASN695  SER759  ASP760  ASP761  ALA762  ILE779  LEU786  VAL792 
 PHE793  MET794  SER795  GLU796  ALA797  LYS798  CYS799  TRP800  GLU811  SER814 

> <Gold.Protein.RotatedAtoms>
  151.9345  135.0241  160.0531 H   0  0  0  0  0  0  0  0  0  0  0  0  # atno 6907 bound_to 6896
  152.2089  133.4892  159.5108 H   0  0  0  0  0  0  0  0  0  0  0  0  # atno 6908 bound_to 6896
  150.6971  134.1409  159.4147 H   0  0  0  0  0  0  0  0  0  0  0  0  # atno 6909 bound_to 6896
  145.3725  139.2395  143.3448 H   0  0  0  0  0  0  0  0  0  0  0  0  # atno 7974 bound_to 7965
  154.8653  140.2950  155.5514 H   0  0  0  0  0  0  0  0  0  0  0  0  # atno 8008 bound_to 7997
  156.3020  140.2470  156.3566 H   0  0  0  0  0  0  0  0  0  0  0  0  # atno 8009 bound_to 7997
  154.8875  140.0395  157.1808 H   0  0  0  0  0  0  0  0  0  0  0  0  # atno 8010 bound_to 7997
  140.6822  143.2836  151.3767 H   0  0  0  0  0  0  0  0  0  0  0  0  # atno 10167 bound_to 10162
  156.0271  130.5474  150.7274 H   0  0  0  0  0  0  0  0  0  0  0  0  # atno 10718 bound_to 10713
  153.6715  135.3329  155.3154 H   0  0  0  0  0  0  0  0  0  0  0  0  # atno 10763 bound_to 10752
  154.8490  135.4387  154.1700 H   0  0  0  0  0  0  0  0  0  0  0  0  # atno 10764 bound_to 10752
  153.2693  135.6999  153.7573 H   0  0  0  0  0  0  0  0  0  0  0  0  # atno 10765 bound_to 10752
  139.9642  134.7009  156.0581 H   0  0  0  0  0  0  0  0  0  0  0  0  # atno 11005 bound_to 11000
  146.2879  140.4378  142.8751 LP  0  0  0  0  0  0  0  0  0  0  0  0  # atno 17320 bound_to 7965
  144.8566  140.7079  143.6134 LP  0  0  0  0  0  0  0  0  0  0  0  0  # atno 17321 bound_to 7965
  139.6152  144.1017  152.2339 LP  0  0  0  0  0  0  0  0  0  0  0  0  # atno 17342 bound_to 10162
  140.0443  144.5982  150.7386 LP  0  0  0  0  0  0  0  0  0  0  0  0  # atno 17343 bound_to 10162
  157.4875  131.0908  151.0465 LP  0  0  0  0  0  0  0  0  0  0  0  0  # atno 17370 bound_to 10713
  157.0881  130.5931  149.5434 LP  0  0  0  0  0  0  0  0  0  0  0  0  # atno 17371 bound_to 10713
  141.1321  133.6584  156.3493 LP  0  0  0  0  0  0  0  0  0  0  0  0  # atno 17394 bound_to 11000
  140.5433  134.6099  157.5386 LP  0  0  0  0  0  0  0  0  0  0  0  0  # atno 17395 bound_to 11000

$$$$
