AV-unprocessed.smi:2605|AV-procd|sdf|10195|dock5
  -GOLD-   2272014203D 1   1.00000     0.00000
 Structure written by MMmdl.
 26 27  0  0  0  0  0  0  0  0  2 V2000
  152.3688  142.8570  159.9948 C   0  0  0  0  0  0  0  0  0  0  0  0
  151.6082  141.9972  159.1771 C   0  0  0  0  0  0  0  0  0  0  0  0
  151.2156  142.4507  157.8999 C   0  0  0  0  0  0  0  0  0  0  0  0
  150.3832  141.5611  156.9898 C   0  0  2  0  0  0  0  0  0  0  0  0
  151.1360  141.1350  155.7079 C   0  0  0  0  0  0  0  0  0  0  0  0
  150.2899  140.2629  154.8982 N   0  0  0  0  0  0  0  0  0  0  0  0
  149.0985  141.0031  154.4940 C   0  0  0  0  0  0  0  0  0  0  0  0
  148.2919  141.4142  155.7401 C   0  0  0  0  0  0  0  0  0  0  0  0
  149.1239  142.2473  156.6317 N   0  3  0  0  0  0  0  0  0  0  0  0
  151.5980  143.7517  157.5051 C   0  0  0  0  0  0  0  0  0  0  0  0
  152.3592  144.5313  158.3991 C   0  0  0  0  0  0  0  0  0  0  0  0
  152.7397  144.0997  159.6201 N   0  0  0  0  0  0  0  0  0  0  0  0
  152.6859  142.5378  160.9765 H   0  0  0  0  0  0  0  0  0  0  0  0
  151.3376  141.0122  159.5284 H   0  0  0  0  0  0  0  0  0  0  0  0
  150.1205  140.6612  157.5494 H   0  0  0  0  0  0  0  0  0  0  0  0
  151.4389  141.9987  155.1148 H   0  0  0  0  0  0  0  0  0  0  0  0
  152.0447  140.5927  155.9709 H   0  0  0  0  0  0  0  0  0  0  0  0
  150.7986  139.9663  154.0765 H   0  0  0  0  0  0  0  0  0  0  0  0
  149.3829  141.8779  153.9075 H   0  0  0  0  0  0  0  0  0  0  0  0
  148.4908  140.3687  153.8482 H   0  0  0  0  0  0  0  0  0  0  0  0
  147.4059  141.9790  155.4500 H   0  0  0  0  0  0  0  0  0  0  0  0
  147.9462  140.5326  156.2820 H   0  0  0  0  0  0  0  0  0  0  0  0
  148.6081  142.4619  157.4729 H   0  0  0  0  0  0  0  0  0  0  0  0
  151.3168  144.1528  156.5427 H   0  0  0  0  0  0  0  0  0  0  0  0
  152.6673  145.5300  158.1267 H   0  0  0  0  0  0  0  0  0  0  0  0
  149.3523  143.1076  156.1545 H   0  0  0  0  0  0  0  0  0  0  0  0
  1 12  1  0  0  0  0
  1  2  2  0  0  0  0
  1 13  1  0  0  0  0
  2  3  1  0  0  0  0
  2 14  1  0  0  0  0
  3  4  1  0  0  0  0
  3 10  2  0  0  0  0
  4  9  1  0  0  0  0
  4  5  1  0  0  0  0
  4 15  1  0  0  0  0
  5  6  1  0  0  0  0
  5 16  1  0  0  0  0
  5 17  1  0  0  0  0
  6  7  1  0  0  0  0
  6 18  1  0  0  0  0
  7  8  1  0  0  0  0
  7 19  1  0  0  0  0
  7 20  1  0  0  0  0
  8  9  1  0  0  0  0
  8 21  1  0  0  0  0
  8 22  1  0  0  0  0
  9 23  1  0  0  0  0
  9 26  1  0  0  0  0
 10 11  1  0  0  0  0
 10 24  1  0  0  0  0
 11 12  2  0  0  0  0
 11 25  1  0  0  0  0
M  CHG  1   9   1
M  END
> <s_m_source_file>
AV-unprocessed.smi

> <i_m_source_file_index>
2605

> <i_lp_mmshare_version>
43012

> <i_f3d_flags>
0

> <s_epik_input>
W2NIXTFbY0hdbltjSF1bY0hdYzFbQ0BASF0yW0NIMl1bTkhdW0NIMl1bQ0gyXVtOSF0y

> <s_epik_cmdline>
J2VwaWtfcHl0aG9uJywgJy1waCcsICc3LjAnLCAnLXRuJywgJzgnLCAnLW1hJywgJzIwMCcsICctbWV0YWxfYmluZGluZycsICctaW1hZScsICc8aW5maWxlLm1hZT4nLCAnLW9tYWUnLCAnPG91dGZpbGUubWFlPic=

> <r_epik_Ionization_Penalty>
0.0246915

> <r_epik_Ionization_Penalty_Charging>
0.015072

> <r_epik_Ionization_Penalty_Neutral>
0.00961942

> <r_epik_State_Penalty>
0.518662

> <r_epik_Charging_Adjusted_Penalty>
0.533734

> <i_epik_Tot_Q>
1

> <i_epik_Tot_abs_Q>
1

> <r_epik_Metal_State_Penalty>
0.520249

> <b_epik_Metal_Only>
0

> <s_lp_Force_Field>
OPLS_2005

> <r_lp_Energy>
7.08803

> <b_lp_Chiralities_Consistent>
1

> <s_lp_Variant>
AV-unprocessed.smi:2605-3

> <Gold.Version>
5.8.1

> <Gold.Id.Protein>
6NUR|6NUR_protein|mol2

> <Gold.PLP.Fitness>
33.3908

> <Gold.PLP.PLP>
-27.5173

> <Gold.PLP.part.hbond>
-2.0000

> <Gold.PLP.part.metal>
0.0000

> <Gold.PLP.part.buried>
-2.7877

> <Gold.PLP.part.nonpolar>
-22.9526

> <Gold.PLP.part.repulsive>
0.0194

> <Gold.PLP.ligand.clash>
0.0000

> <Gold.PLP.ligand.torsion>
0.0452

> <Gold.PLP.Chemscore.Hbond>
1.9840

> <Gold.PLP.Chemscore.CHOScore>
0.0000

> <Gold.PLP.Chemscore.Metal>
0.0000

> <Gold.Chemscore.Hbonds>
donor molecule, donor type, donor heavy atom, donor atom, acceptor molecule, acceptor atom, score
      L1  H     9    26       P1  8028  1.95

> <Gold.PLP.Chemscore.Internal.Correction>
0.0118

> <Gold.Rescore>
     Score         DG    S(hbond)    S(metal)    S(lipo)     H(rot)  DE(clash)    DE(int)     intcor
     15.59     -15.67       0.99        0.00      80.65       1.00       0.08       0.01       ----

> <Gold.Chemscore.Fitness>
15.5888

> <Gold.Chemscore.DG>
-15.6741

> <Gold.Chemscore.ZeroCoef>
-5.4800

> <Gold.Chemscore.Hbond>
0.9936

> <Gold.Chemscore.Metal>
0.0000

> <Gold.Chemscore.Lipo>
80.6457

> <Gold.Chemscore.Internal_Hbond>
0.0000

> <Gold.Chemscore.DEClash>
0.0792

> <Gold.Chemscore.DEInternal>
0.0060

> <Gold.Chemscore.Rot>
1.0000

> <Gold.Chemscore.Internal.Correction>
   9.000000E+99

> <Gold.Chemscore.Hbonds>
donor molecule, donor type, donor heavy atom, donor atom, acceptor molecule, acceptor atom, score
      L1  H     9    26       P1  8028  0.93

> <Gold.Chemscore.Hbond.Weighted>
-3.3185

> <Gold.Chemscore.Metal.Weighted>
-0.0000

> <Gold.Chemscore.Lipo.Weighted>
-9.4356

> <Gold.Chemscore.Internal_Hbond.Weighted>
0.0000

> <Gold.Chemscore.DEClash.Weighted>
0.0792

> <Gold.Chemscore.DEInternal.Weighted>
0.0060

> <Gold.Chemscore.Rot.Weighted>
2.5600

> <Gold.Chemscore.Internal.Correction.Weighted>
   9.000000E+99

> <Gold.Protein.RotatedTorsions>
[ 6907 6896 6895 6894 ] final   45.26 input  -60.11 | X-H torsion
[ 7974 7965 7964 7962 ] final   23.72 input  175.53 | X-H torsion
[ 8008 7997 7996 7995 ] final  -58.06 input   59.86 | X-H torsion
[ 10167 10162 10161 10158 ] final -140.66 input  -65.29 | X-H torsion
[ 10718 10713 10712 10709 ] final -161.49 input   66.30 | X-H torsion
[ 10763 10752 10751 10750 ] final  109.04 input  -60.55 | X-H torsion
[ 11005 11000 10999 10996 ] final -170.91 input  -57.11 | X-H torsion

> <Gold.Protein.ActiveResidues>
 VAL166  LYS551  ARG553  GLY616  TRP617  ASP618  TYR619  PRO620  LYS621  CYS622 
 ASP623  PHE694  ASN695  SER759  ASP760  ASP761  ALA762  ILE779  LEU786  VAL792 
 PHE793  MET794  SER795  GLU796  ALA797  LYS798  CYS799  TRP800  GLU811  SER814 

> <Gold.Protein.RotatedAtoms>
  152.2424  134.8215  160.0458 H   0  0  0  0  0  0  0  0  0  0  0  0  # atno 6907 bound_to 6896
  151.8925  133.3514  159.3811 H   0  0  0  0  0  0  0  0  0  0  0  0  # atno 6908 bound_to 6896
  150.7058  134.4836  159.5526 H   0  0  0  0  0  0  0  0  0  0  0  0  # atno 6909 bound_to 6896
  146.1971  139.7704  142.8789 H   0  0  0  0  0  0  0  0  0  0  0  0  # atno 7974 bound_to 7965
  154.4293  140.1092  156.5897 H   0  0  0  0  0  0  0  0  0  0  0  0  # atno 8008 bound_to 7997
  155.6025  140.3493  155.4579 H   0  0  0  0  0  0  0  0  0  0  0  0  # atno 8009 bound_to 7997
  156.0162  140.1230  157.0393 H   0  0  0  0  0  0  0  0  0  0  0  0  # atno 8010 bound_to 7997
  139.8260  143.7511  152.2666 H   0  0  0  0  0  0  0  0  0  0  0  0  # atno 10167 bound_to 10162
  156.5970  130.8794  151.2904 H   0  0  0  0  0  0  0  0  0  0  0  0  # atno 10718 bound_to 10713
  153.4291  135.3792  155.2159 H   0  0  0  0  0  0  0  0  0  0  0  0  # atno 10763 bound_to 10752
  154.8749  135.3836  154.4289 H   0  0  0  0  0  0  0  0  0  0  0  0  # atno 10764 bound_to 10752
  153.4820  135.7088  153.5996 H   0  0  0  0  0  0  0  0  0  0  0  0  # atno 10765 bound_to 10752
  140.5141  134.5773  157.5028 H   0  0  0  0  0  0  0  0  0  0  0  0  # atno 11005 bound_to 11000
  145.3608  141.0325  143.3286 LP  0  0  0  0  0  0  0  0  0  0  0  0  # atno 17320 bound_to 7965
  144.8603  139.5187  143.6815 LP  0  0  0  0  0  0  0  0  0  0  0  0  # atno 17321 bound_to 7965
  139.7703  144.7478  151.0234 LP  0  0  0  0  0  0  0  0  0  0  0  0  # atno 17342 bound_to 10162
  140.7810  143.4652  151.0222 LP  0  0  0  0  0  0  0  0  0  0  0  0  # atno 17343 bound_to 10162
  157.7289  130.9664  150.1764 LP  0  0  0  0  0  0  0  0  0  0  0  0  # atno 17370 bound_to 10713
  156.2501  130.3699  149.8242 LP  0  0  0  0  0  0  0  0  0  0  0  0  # atno 17371 bound_to 10713
  139.9642  134.7401  156.0173 LP  0  0  0  0  0  0  0  0  0  0  0  0  # atno 17394 bound_to 11000
  141.1369  133.6573  156.3620 LP  0  0  0  0  0  0  0  0  0  0  0  0  # atno 17395 bound_to 11000

$$$$
