AV-unprocessed.smi:1583|AV-procd|sdf|6363|dock2
  -GOLD-   22720 6593D 1   1.00000     0.00000
 Structure written by MMmdl.
 36 37  0  0  0  0  0  0  0  0  1 V2000
  147.1120  140.8965  153.8251 C   0  0  0  0  0  0  0  0  0  0  0  0
  148.0248  141.3046  154.8819 N   0  0  0  0  0  0  0  0  0  0  0  0
  149.1604  140.6612  155.1894 C   0  0  0  0  0  0  0  0  0  0  0  0
  149.5451  139.6501  154.6022 O   0  0  0  0  0  0  0  0  0  0  0  0
  149.9921  141.2459  156.3280 C   0  0  0  0  0  0  0  0  0  0  0  0
  151.4945  140.2742  156.6462 S   0  0  0  0  0  0  0  0  0  0  0  0
  151.9912  140.9493  158.2061 C   0  0  0  0  0  0  0  0  0  0  0  0
  151.6979  142.1927  158.5943 N   0  0  0  0  0  0  0  0  0  0  0  0
  152.2907  142.2795  159.8377 C   0  0  0  0  0  0  0  0  0  0  0  0
  152.3417  143.3496  160.7595 C   0  0  0  0  0  0  0  0  0  0  0  0
  153.0229  143.2028  161.9857 C   0  0  0  0  0  0  0  0  0  0  0  0
  153.6604  141.9870  162.3070 C   0  0  0  0  0  0  0  0  0  0  0  0
  153.6198  140.9081  161.4028 C   0  0  0  0  0  0  0  0  0  0  0  0
  152.9385  141.0606  160.1803 C   0  0  0  0  0  0  0  0  0  0  0  0
  152.7163  140.2218  159.0936 N   0  0  0  0  0  0  0  0  0  0  0  0
  153.1919  138.8518  158.9654 C   0  0  0  0  0  0  0  0  0  0  0  0
  152.3537  137.8728  159.7991 C   0  0  0  0  0  0  0  0  0  0  0  0
  153.1749  136.8177  160.2719 O   0  0  0  0  0  0  0  0  0  0  0  0
  153.9836  137.2068  161.3674 C   0  0  0  0  0  0  0  0  0  0  0  0
  146.2492  141.5619  153.8019 H   0  0  0  0  0  0  0  0  0  0  0  0
  146.7539  139.8793  153.9899 H   0  0  0  0  0  0  0  0  0  0  0  0
  147.6028  140.9402  152.8519 H   0  0  0  0  0  0  0  0  0  0  0  0
  147.7815  142.1294  155.4111 H   0  0  0  0  0  0  0  0  0  0  0  0
  150.2684  142.2756  156.0961 H   0  0  0  0  0  0  0  0  0  0  0  0
  149.3807  141.2693  157.2307 H   0  0  0  0  0  0  0  0  0  0  0  0
  151.8576  144.2853  160.5218 H   0  0  0  0  0  0  0  0  0  0  0  0
  153.0574  144.0273  162.6825 H   0  0  0  0  0  0  0  0  0  0  0  0
  154.1813  141.8834  163.2477 H   0  0  0  0  0  0  0  0  0  0  0  0
  154.1079  139.9757  161.6449 H   0  0  0  0  0  0  0  0  0  0  0  0
  153.1526  138.5708  157.9125 H   0  0  0  0  0  0  0  0  0  0  0  0
  154.2414  138.7965  159.2528 H   0  0  0  0  0  0  0  0  0  0  0  0
  151.8996  138.3976  160.6411 H   0  0  0  0  0  0  0  0  0  0  0  0
  151.5423  137.4709  159.1907 H   0  0  0  0  0  0  0  0  0  0  0  0
  154.5874  136.3608  161.6950 H   0  0  0  0  0  0  0  0  0  0  0  0
  153.3746  137.5333  162.2114 H   0  0  0  0  0  0  0  0  0  0  0  0
  154.6607  138.0156  161.0894 H   0  0  0  0  0  0  0  0  0  0  0  0
  1  2  1  0  0  0  0
  1 20  1  0  0  0  0
  1 21  1  0  0  0  0
  1 22  1  0  0  0  0
  2  3  1  0  0  0  0
  2 23  1  0  0  0  0
  3  4  2  0  0  0  0
  3  5  1  0  0  0  0
  5  6  1  0  0  0  0
  5 24  1  0  0  0  0
  5 25  1  0  0  0  0
  6  7  1  0  0  0  0
  7 15  1  0  0  0  0
  7  8  2  0  0  0  0
  8  9  1  0  0  0  0
  9 14  2  0  0  0  0
  9 10  1  0  0  0  0
 10 11  2  0  0  0  0
 10 26  1  0  0  0  0
 11 12  1  0  0  0  0
 11 27  1  0  0  0  0
 12 13  2  0  0  0  0
 12 28  1  0  0  0  0
 13 14  1  0  0  0  0
 13 29  1  0  0  0  0
 14 15  1  0  0  0  0
 15 16  1  0  0  0  0
 16 17  1  0  0  0  0
 16 30  1  0  0  0  0
 16 31  1  0  0  0  0
 17 18  1  0  0  0  0
 17 32  1  0  0  0  0
 17 33  1  0  0  0  0
 18 19  1  0  0  0  0
 19 34  1  0  0  0  0
 19 35  1  0  0  0  0
 19 36  1  0  0  0  0
M  END
> <s_m_source_file>
AV-unprocessed.smi

> <i_m_source_file_index>
1583

> <i_lp_mmshare_version>
43012

> <i_f3d_flags>
0

> <s_epik_input>
W0NIM11bTkhdQyg9TylbQ0gyXVNjKG4xKW4oW0NIMl1bQ0gyXU9bQ0gzXSljKGMxMilbY0hdW2NIXVtjSF1bY0hdMg==

> <s_epik_cmdline>
J2VwaWtfcHl0aG9uJywgJy1waCcsICc3LjAnLCAnLXRuJywgJzgnLCAnLW1hJywgJzIwMCcsICctbWV0YWxfYmluZGluZycsICctaW1hZScsICc8aW5maWxlLm1hZT4nLCAnLW9tYWUnLCAnPG91dGZpbGUubWFlPic=

> <r_epik_Ionization_Penalty>
0.0356249

> <r_epik_Ionization_Penalty_Charging>
0

> <r_epik_Ionization_Penalty_Neutral>
0.0356249

> <r_epik_State_Penalty>
0.0297112

> <r_epik_Charging_Adjusted_Penalty>
0.0297112

> <i_epik_Tot_Q>
0

> <i_epik_Tot_abs_Q>
0

> <r_epik_Metal_State_Penalty>
0.0280118

> <b_epik_Metal_Only>
0

> <s_lp_Force_Field>
OPLS_2005

> <r_lp_Energy>
5.95406

> <b_lp_Chiralities_Consistent>
1

> <s_lp_Variant>
AV-unprocessed.smi:1583-1

> <Gold.Version>
5.8.1

> <Gold.Id.Protein>
6NUR|6NUR_protein|mol2

> <Gold.PLP.Fitness>
47.9257

> <Gold.PLP.PLP>
-41.6264

> <Gold.PLP.part.hbond>
-2.9267

> <Gold.PLP.part.metal>
0.0000

> <Gold.PLP.part.buried>
-6.4303

> <Gold.PLP.part.nonpolar>
-32.3095

> <Gold.PLP.part.repulsive>
0.3329

> <Gold.PLP.ligand.clash>
0.0000

> <Gold.PLP.ligand.torsion>
0.9087

> <Gold.PLP.Chemscore.Hbond>
2.6968

> <Gold.PLP.Chemscore.CHOScore>
0.0000

> <Gold.PLP.Chemscore.Metal>
0.0000

> <Gold.Chemscore.Hbonds>
donor molecule, donor type, donor heavy atom, donor atom, acceptor molecule, acceptor atom, score
      P1  H  6896  6908       L1    18  0.78

> <Gold.PLP.Chemscore.Internal.Correction>
0.0265

> <Gold.Rescore>
     Score         DG    S(hbond)    S(metal)    S(lipo)     H(rot)  DE(clash)    DE(int)     intcor
     16.38     -17.20       1.74        0.00      98.38       2.18       0.32       0.51       ----

> <Gold.Chemscore.Fitness>
16.3759

> <Gold.Chemscore.DG>
-17.1986

> <Gold.Chemscore.ZeroCoef>
-5.4800

> <Gold.Chemscore.Hbond>
1.7354

> <Gold.Chemscore.Metal>
0.0000

> <Gold.Chemscore.Lipo>
98.3754

> <Gold.Chemscore.Internal_Hbond>
0.0000

> <Gold.Chemscore.DEClash>
0.3154

> <Gold.Chemscore.DEInternal>
0.5074

> <Gold.Chemscore.Rot>
2.1826

> <Gold.Chemscore.Internal.Correction>
   9.000000E+99

> <Gold.Chemscore.Hbonds>
donor molecule, donor type, donor heavy atom, donor atom, acceptor molecule, acceptor atom, score
      P1  H  6896  6908       L1    18  0.38

> <Gold.Chemscore.Hbond.Weighted>
-5.7961

> <Gold.Chemscore.Metal.Weighted>
-0.0000

> <Gold.Chemscore.Lipo.Weighted>
-11.5099

> <Gold.Chemscore.Internal_Hbond.Weighted>
0.0000

> <Gold.Chemscore.DEClash.Weighted>
0.3154

> <Gold.Chemscore.DEInternal.Weighted>
0.5074

> <Gold.Chemscore.Rot.Weighted>
5.5874

> <Gold.Chemscore.Internal.Correction.Weighted>
   9.000000E+99

> <Gold.Protein.RotatedTorsions>
[ 6907 6896 6895 6894 ] final  -95.39 input  -60.11 | X-H torsion
[ 7974 7965 7964 7962 ] final    9.43 input  175.53 | X-H torsion
[ 8008 7997 7996 7995 ] final  -49.60 input   59.86 | X-H torsion
[ 10167 10162 10161 10158 ] final  -67.20 input  -65.29 | X-H torsion
[ 10718 10713 10712 10709 ] final -112.93 input   66.30 | X-H torsion
[ 10763 10752 10751 10750 ] final  -67.16 input  -60.55 | X-H torsion
[ 11005 11000 10999 10996 ] final  157.79 input  -57.11 | X-H torsion

> <Gold.Protein.ActiveResidues>
 VAL166  LYS551  ARG553  GLY616  TRP617  ASP618  TYR619  PRO620  LYS621  CYS622 
 ASP623  PHE694  ASN695  SER759  ASP760  ASP761  ALA762  ILE779  LEU786  VAL792 
 PHE793  MET794  SER795  GLU796  ALA797  LYS798  CYS799  TRP800  GLU811  SER814 

> <Gold.Protein.RotatedAtoms>
  150.6963  134.1665  159.4195 H   0  0  0  0  0  0  0  0  0  0  0  0  # atno 6907 bound_to 6896
  151.9644  135.0105  160.0558 H   0  0  0  0  0  0  0  0  0  0  0  0  # atno 6908 bound_to 6896
  152.1898  133.4730  159.5039 H   0  0  0  0  0  0  0  0  0  0  0  0  # atno 6909 bound_to 6896
  146.2403  139.9785  142.8439 H   0  0  0  0  0  0  0  0  0  0  0  0  # atno 7974 bound_to 7965
  154.4047  140.1293  156.4529 H   0  0  0  0  0  0  0  0  0  0  0  0  # atno 8008 bound_to 7997
  155.7348  140.3491  155.5056 H   0  0  0  0  0  0  0  0  0  0  0  0  # atno 8009 bound_to 7997
  155.9093  140.1033  157.1281 H   0  0  0  0  0  0  0  0  0  0  0  0  # atno 8010 bound_to 7997
  140.5601  143.2312  151.6745 H   0  0  0  0  0  0  0  0  0  0  0  0  # atno 10167 bound_to 10162
  156.0735  130.5946  150.8574 H   0  0  0  0  0  0  0  0  0  0  0  0  # atno 10718 bound_to 10713
  154.3704  135.6096  153.5737 H   0  0  0  0  0  0  0  0  0  0  0  0  # atno 10763 bound_to 10752
  152.9790  135.5836  154.4528 H   0  0  0  0  0  0  0  0  0  0  0  0  # atno 10764 bound_to 10752
  154.4281  135.2847  155.1908 H   0  0  0  0  0  0  0  0  0  0  0  0  # atno 10765 bound_to 10752
  140.1803  134.8481  157.2794 H   0  0  0  0  0  0  0  0  0  0  0  0  # atno 11005 bound_to 11000
  145.1614  140.9675  143.4375 LP  0  0  0  0  0  0  0  0  0  0  0  0  # atno 17320 bound_to 7965
  145.0112  139.3508  143.6119 LP  0  0  0  0  0  0  0  0  0  0  0  0  # atno 17321 bound_to 7965
  139.5066  144.3676  152.0501 LP  0  0  0  0  0  0  0  0  0  0  0  0  # atno 17342 bound_to 10162
  140.2802  144.3868  150.6121 LP  0  0  0  0  0  0  0  0  0  0  0  0  # atno 17343 bound_to 10162
  157.5819  131.0946  150.9258 LP  0  0  0  0  0  0  0  0  0  0  0  0  # atno 17370 bound_to 10713
  156.9452  130.5399  149.5281 LP  0  0  0  0  0  0  0  0  0  0  0  0  # atno 17371 bound_to 10713
  140.2275  134.3948  155.7537 LP  0  0  0  0  0  0  0  0  0  0  0  0  # atno 17394 bound_to 11000
  141.2222  133.7198  156.8589 LP  0  0  0  0  0  0  0  0  0  0  0  0  # atno 17395 bound_to 11000

$$$$
