AV-unprocessed.smi:2061|AV-procd|sdf|8389|dock6
  -GOLD-   2272011 73D 1   1.00000     0.00000
 Structure written by MMmdl.
 45 46  0  0  0  0  0  0  0  0  3 V2000
  153.8481  140.5822  160.4168 C   0  0  0  0  0  0  0  0  0  0  0  0
  152.9821  140.4415  159.2125 C   0  0  0  0  0  0  0  0  0  0  0  0
  151.7943  141.0112  158.8493 C   0  0  0  0  0  0  0  0  0  0  0  0
  151.5322  140.4271  157.5813 C   0  0  0  0  0  0  0  0  0  0  0  0
  150.3580  140.7646  156.8575 N   0  0  0  0  0  0  0  0  0  0  0  0
  150.1054  140.6125  155.5447 C   0  0  0  0  0  0  0  0  0  0  0  0
  150.9642  140.1339  154.7938 O   0  0  0  0  0  0  0  0  0  0  0  0
  148.8526  141.0270  155.2088 N   0  5  0  0  0  0  0  0  0  0  0  0
  148.4634  141.5264  153.8886 C   0  0  0  0  0  0  0  0  0  0  0  0
  147.1737  140.8212  153.3824 C   0  0  1  0  0  0  0  0  0  0  0  0
  147.3144  139.2864  153.2197 C   0  0  0  0  0  0  0  0  0  0  0  0
  145.9955  141.2119  154.2178 N   0  3  1  0  0  0  0  0  0  0  0  0
  145.9152  140.4823  155.5077 C   0  0  0  0  0  0  0  0  0  0  0  0
  144.5838  140.7936  156.2183 C   0  0  1  0  0  0  0  0  0  0  0  0
  144.4957  140.1303  157.5972 C   0  0  0  0  0  0  0  0  0  0  0  0
  144.4611  142.2009  156.3962 O   0  0  0  0  0  0  0  0  0  0  0  0
  144.4544  142.9123  155.1630 C   0  0  1  0  0  0  0  0  0  0  0  0
  144.2234  144.3964  155.4685 C   0  0  0  0  0  0  0  0  0  0  0  0
  145.7925  142.6700  154.4426 C   0  0  0  0  0  0  0  0  0  0  0  0
  152.4785  139.5799  157.2039 N   0  0  0  0  0  0  0  0  0  0  0  0
  153.4124  139.5856  158.2467 O   0  0  0  0  0  0  0  0  0  0  0  0
  153.3529  141.1753  161.1858 H   0  0  0  0  0  0  0  0  0  0  0  0
  154.7866  141.0743  160.1613 H   0  0  0  0  0  0  0  0  0  0  0  0
  154.0812  139.6058  160.8417 H   0  0  0  0  0  0  0  0  0  0  0  0
  151.2067  141.7276  159.4041 H   0  0  0  0  0  0  0  0  0  0  0  0
  149.6062  141.1569  157.4049 H   0  0  0  0  0  0  0  0  0  0  0  0
  148.2942  142.6031  153.9075 H   0  0  0  0  0  0  0  0  0  0  0  0
  149.2579  141.3792  153.1552 H   0  0  0  0  0  0  0  0  0  0  0  0
  146.9857  141.2233  152.3856 H   0  0  0  0  0  0  0  0  0  0  0  0
  148.0711  139.0257  152.4778 H   0  0  0  0  0  0  0  0  0  0  0  0
  146.3798  138.8439  152.8746 H   0  0  0  0  0  0  0  0  0  0  0  0
  147.5881  138.7867  154.1505 H   0  0  0  0  0  0  0  0  0  0  0  0
  145.9860  139.4077  155.3334 H   0  0  0  0  0  0  0  0  0  0  0  0
  146.7592  140.7620  156.1401 H   0  0  0  0  0  0  0  0  0  0  0  0
  143.7516  140.4366  155.6086 H   0  0  0  0  0  0  0  0  0  0  0  0
  144.5760  139.0459  157.5176 H   0  0  0  0  0  0  0  0  0  0  0  0
  143.5443  140.3584  158.0785 H   0  0  0  0  0  0  0  0  0  0  0  0
  145.2931  140.4778  158.2548 H   0  0  0  0  0  0  0  0  0  0  0  0
  143.6311  142.5530  154.5429 H   0  0  0  0  0  0  0  0  0  0  0  0
  144.2010  144.9871  154.5523 H   0  0  0  0  0  0  0  0  0  0  0  0
  145.0132  144.7965  156.1051 H   0  0  0  0  0  0  0  0  0  0  0  0
  143.2736  144.5451  155.9826 H   0  0  0  0  0  0  0  0  0  0  0  0
  146.6069  143.0731  155.0462 H   0  0  0  0  0  0  0  0  0  0  0  0
  145.7984  143.2085  153.4945 H   0  0  0  0  0  0  0  0  0  0  0  0
  145.1956  140.8965  153.6873 H   0  0  0  0  0  0  0  0  0  0  0  0
  1  2  1  0  0  0  0
  1 22  1  0  0  0  0
  1 23  1  0  0  0  0
  1 24  1  0  0  0  0
  2 21  1  0  0  0  0
  2  3  2  0  0  0  0
  3  4  1  0  0  0  0
  3 25  1  0  0  0  0
  4  5  1  0  0  0  0
  4 20  2  0  0  0  0
  5  6  1  0  0  0  0
  5 26  1  0  0  0  0
  6  7  2  0  0  0  0
  6  8  1  0  0  0  0
  8  9  1  0  0  0  0
  9 10  1  0  0  0  0
  9 27  1  0  0  0  0
  9 28  1  0  0  0  0
 10 11  1  0  0  0  0
 10 12  1  0  0  0  0
 10 29  1  0  0  0  0
 11 30  1  0  0  0  0
 11 31  1  0  0  0  0
 11 32  1  0  0  0  0
 12 19  1  0  0  0  0
 12 13  1  0  0  0  0
 12 45  1  0  0  0  0
 13 14  1  0  0  0  0
 13 33  1  0  0  0  0
 13 34  1  0  0  0  0
 14 15  1  0  0  0  0
 14 16  1  0  0  0  0
 14 35  1  0  0  0  0
 15 36  1  0  0  0  0
 15 37  1  0  0  0  0
 15 38  1  0  0  0  0
 16 17  1  0  0  0  0
 17 18  1  0  0  0  0
 17 19  1  0  0  0  0
 17 39  1  0  0  0  0
 18 40  1  0  0  0  0
 18 41  1  0  0  0  0
 18 42  1  0  0  0  0
 19 43  1  0  0  0  0
 19 44  1  0  0  0  0
 20 21  1  0  0  0  0
M  CHG  1   8  -1
M  CHG  1  12   1
M  END
> <s_m_source_file>
AV-unprocessed.smi

> <i_m_source_file_index>
2061

> <i_lp_mmshare_version>
43012

> <i_f3d_flags>
0

> <s_epik_input>
W0NIM11jMVtjSF1jKG5vMSlbTkhdQyg9TylbTkhdW0NIMl1bQ0BIXShbQ0gzXSlOMltDSDJdW0NAQEhdKFtDSDNdKU9bQ0BASF0oW0NIM10pW0NIMl0y

> <s_epik_cmdline>
J2VwaWtfcHl0aG9uJywgJy1waCcsICc3LjAnLCAnLXRuJywgJzgnLCAnLW1hJywgJzIwMCcsICctbWV0YWxfYmluZGluZycsICctaW1hZScsICc8aW5maWxlLm1hZT4nLCAnLW9tYWUnLCAnPG91dGZpbGUubWFlPic=

> <r_epik_Ionization_Penalty>
6.8073

> <r_epik_Ionization_Penalty_Charging>
6.80729

> <r_epik_Ionization_Penalty_Neutral>
5.65391e-06

> <r_epik_State_Penalty>
7.47323

> <r_epik_Charging_Adjusted_Penalty>
14.2805

> <i_epik_Tot_Q>
0

> <i_epik_Tot_abs_Q>
2

> <r_epik_Metal_State_Penalty>
3.40035

> <b_epik_Metal_Only>
1

> <s_lp_Force_Field>
OPLS_2005

> <r_lp_Energy>
16.6672

> <b_lp_Chiralities_Consistent>
1

> <s_lp_Variant>
AV-unprocessed.smi:2061-30

> <Gold.Version>
5.8.1

> <Gold.Id.Protein>
6NUR|6NUR_protein|mol2

> <Gold.PLP.Fitness>
42.0548

> <Gold.PLP.PLP>
-31.6000

> <Gold.PLP.part.hbond>
-4.0000

> <Gold.PLP.part.metal>
0.0000

> <Gold.PLP.part.buried>
-3.4027

> <Gold.PLP.part.nonpolar>
-24.5239

> <Gold.PLP.part.repulsive>
0.2687

> <Gold.PLP.ligand.clash>
0.0000

> <Gold.PLP.ligand.torsion>
0.4553

> <Gold.PLP.Chemscore.Hbond>
3.7360

> <Gold.PLP.Chemscore.CHOScore>
0.0000

> <Gold.PLP.Chemscore.Metal>
0.0000

> <Gold.Chemscore.Hbonds>
donor molecule, donor type, donor heavy atom, donor atom, acceptor molecule, acceptor atom, score
      L1  H    12    45       P1 10175  2.00
      P1  H  7989  7998       L1     7  1.00
      P1  H  7997  8008       L1    21  0.77

> <Gold.PLP.Chemscore.Internal.Correction>
0.1574

> <Gold.Rescore>
     Score         DG    S(hbond)    S(metal)    S(lipo)     H(rot)  DE(clash)    DE(int)     intcor
     14.68     -16.64       2.30        0.00      63.89       1.56       0.18       1.79       ----

> <Gold.Chemscore.Fitness>
14.6765

> <Gold.Chemscore.DG>
-16.6430

> <Gold.Chemscore.ZeroCoef>
-5.4800

> <Gold.Chemscore.Hbond>
2.2961

> <Gold.Chemscore.Metal>
0.0000

> <Gold.Chemscore.Lipo>
63.8891

> <Gold.Chemscore.Internal_Hbond>
0.0000

> <Gold.Chemscore.DEClash>
0.1799

> <Gold.Chemscore.DEInternal>
1.7867

> <Gold.Chemscore.Rot>
1.5550

> <Gold.Chemscore.Internal.Correction>
   9.000000E+99

> <Gold.Chemscore.Hbonds>
donor molecule, donor type, donor heavy atom, donor atom, acceptor molecule, acceptor atom, score
      L1  H    12    45       P1 10175  0.84
      P1  H  7989  7998       L1     7  0.99
      P1  H  7997  8008       L1    21  0.22

> <Gold.Chemscore.Hbond.Weighted>
-7.6689

> <Gold.Chemscore.Metal.Weighted>
-0.0000

> <Gold.Chemscore.Lipo.Weighted>
-7.4750

> <Gold.Chemscore.Internal_Hbond.Weighted>
0.0000

> <Gold.Chemscore.DEClash.Weighted>
0.1799

> <Gold.Chemscore.DEInternal.Weighted>
1.7867

> <Gold.Chemscore.Rot.Weighted>
3.9809

> <Gold.Chemscore.Internal.Correction.Weighted>
   9.000000E+99

> <Gold.Protein.RotatedTorsions>
[ 6907 6896 6895 6894 ] final   59.68 input  -60.11 | X-H torsion
[ 7974 7965 7964 7962 ] final  162.39 input  175.53 | X-H torsion
[ 8008 7997 7996 7995 ] final -116.22 input   59.86 | X-H torsion
[ 10167 10162 10161 10158 ] final  -97.19 input  -65.29 | X-H torsion
[ 10718 10713 10712 10709 ] final  169.87 input   66.30 | X-H torsion
[ 10763 10752 10751 10750 ] final   97.66 input  -60.55 | X-H torsion
[ 11005 11000 10999 10996 ] final   13.02 input  -57.11 | X-H torsion

> <Gold.Protein.ActiveResidues>
 VAL166  LYS551  ARG553  GLY616  TRP617  ASP618  TYR619  PRO620  LYS621  CYS622 
 ASP623  PHE694  ASN695  SER759  ASP760  ASP761  ALA762  ILE779  LEU786  VAL792 
 PHE793  MET794  SER795  GLU796  ALA797  LYS798  CYS799  TRP800  GLU811  SER814 

> <Gold.Protein.RotatedAtoms>
  152.3936  134.6401  160.0097 H   0  0  0  0  0  0  0  0  0  0  0  0  # atno 6907 bound_to 6896
  151.6627  133.3311  159.3186 H   0  0  0  0  0  0  0  0  0  0  0  0  # atno 6908 bound_to 6896
  150.7848  134.6867  159.6518 H   0  0  0  0  0  0  0  0  0  0  0  0  # atno 6909 bound_to 6896
  144.7639  139.8033  143.6322 H   0  0  0  0  0  0  0  0  0  0  0  0  # atno 7974 bound_to 7965
  155.0644  140.0393  157.2587 H   0  0  0  0  0  0  0  0  0  0  0  0  # atno 8008 bound_to 7997
  154.7033  140.2678  155.6674 H   0  0  0  0  0  0  0  0  0  0  0  0  # atno 8009 bound_to 7997
  156.2767  140.2736  156.1651 H   0  0  0  0  0  0  0  0  0  0  0  0  # atno 8010 bound_to 7997
  140.2859  143.3252  152.0394 H   0  0  0  0  0  0  0  0  0  0  0  0  # atno 10167 bound_to 10162
  157.0163  131.0219  151.2788 H   0  0  0  0  0  0  0  0  0  0  0  0  # atno 10718 bound_to 10713
  153.2796  135.4175  155.1066 H   0  0  0  0  0  0  0  0  0  0  0  0  # atno 10763 bound_to 10752
  154.8484  135.3492  154.6131 H   0  0  0  0  0  0  0  0  0  0  0  0  # atno 10764 bound_to 10752
  153.6551  135.7051  153.5253 H   0  0  0  0  0  0  0  0  0  0  0  0  # atno 10765 bound_to 10752
  140.4854  134.0893  155.7760 H   0  0  0  0  0  0  0  0  0  0  0  0  # atno 11005 bound_to 11000
  146.1729  139.4886  142.9916 LP  0  0  0  0  0  0  0  0  0  0  0  0  # atno 17320 bound_to 7965
  145.6531  141.0258  143.1749 LP  0  0  0  0  0  0  0  0  0  0  0  0  # atno 17321 bound_to 7965
  139.4950  144.6559  151.6574 LP  0  0  0  0  0  0  0  0  0  0  0  0  # atno 17342 bound_to 10162
  140.5773  144.0007  150.6248 LP  0  0  0  0  0  0  0  0  0  0  0  0  # atno 17343 bound_to 10162
  157.5283  130.8042  149.7887 LP  0  0  0  0  0  0  0  0  0  0  0  0  # atno 17370 bound_to 10713
  156.0118  130.3830  150.2240 LP  0  0  0  0  0  0  0  0  0  0  0  0  # atno 17371 bound_to 10713
  141.1510  133.8968  157.2097 LP  0  0  0  0  0  0  0  0  0  0  0  0  # atno 17394 bound_to 11000
  139.9801  135.0101  156.9728 LP  0  0  0  0  0  0  0  0  0  0  0  0  # atno 17395 bound_to 11000

$$$$
