AV-unprocessed.smi:2124|AV-procd|sdf|8662|dock2
  -GOLD-   2272011413D 1   1.00000     0.00000
 Structure written by MMmdl.
 47 49  0  0  0  0  0  0  0  0  1 V2000
  143.5734  140.8097  156.8991 C   0  0  0  0  0  0  0  0  0  0  0  0
  144.9321  140.9268  156.2433 C   0  0  0  0  0  0  0  0  0  0  0  0
  145.0116  141.9430  155.3053 N   0  0  0  0  0  0  0  0  0  0  0  0
  146.2125  142.1186  154.6407 C   0  0  0  0  0  0  0  0  0  0  0  0
  146.2104  143.2460  153.6228 C   0  0  0  0  0  0  0  0  0  0  0  0
  147.2830  141.3272  154.9051 C   0  0  0  0  0  0  0  0  0  0  0  0
  148.6305  141.4832  154.2025 C   0  0  0  0  0  0  0  0  0  0  0  0
  149.8691  141.3313  155.0892 C   0  0  0  0  0  0  0  0  0  0  0  0
  150.6200  140.3652  154.9545 O   0  0  0  0  0  0  0  0  0  0  0  0
  150.0692  142.3023  155.9931 N   0  0  0  0  0  0  0  0  0  0  0  0
  151.1944  142.3828  156.9228 C   0  0  2  0  0  0  0  0  0  0  0  0
  151.1863  141.1345  157.8239 C   0  0  0  0  0  0  0  0  0  0  0  0
  151.1046  143.7048  157.7252 C   0  0  2  0  0  0  0  0  0  0  0  0
  152.4811  144.3655  157.9931 C   0  0  0  0  0  0  0  0  0  0  0  0
  152.4856  144.5744  159.5173 C   0  0  1  0  0  0  0  0  0  0  0  0
  151.4634  145.6624  159.8929 C   0  0  0  0  0  0  0  0  0  0  0  0
  150.1163  144.9486  159.6762 C   0  0  0  0  0  0  0  0  0  0  0  0
  150.5449  143.5599  159.1637 C   0  0  2  0  0  0  0  0  0  0  0  0
  151.7960  143.3053  159.9988 C   0  0  0  0  0  0  0  0  0  0  0  0
  147.1429  140.2693  155.9329 C   0  0  0  0  0  0  0  0  0  0  0  0
  148.0851  139.5373  156.2341 O   0  0  0  0  0  0  0  0  0  0  0  0
  145.8986  140.1227  156.5672 N   0  0  0  0  0  0  0  0  0  0  0  0
  144.2404  142.5544  155.0789 H   0  0  0  0  0  0  0  0  0  0  0  0
  143.5559  139.9886  157.6171 H   0  0  0  0  0  0  0  0  0  0  0  0
  142.8040  140.6226  156.1493 H   0  0  0  0  0  0  0  0  0  0  0  0
  143.3265  141.7303  157.4289 H   0  0  0  0  0  0  0  0  0  0  0  0
  146.3814  142.8536  152.6203 H   0  0  0  0  0  0  0  0  0  0  0  0
  146.9953  143.9678  153.8498 H   0  0  0  0  0  0  0  0  0  0  0  0
  145.2591  143.7795  153.6149 H   0  0  0  0  0  0  0  0  0  0  0  0
  148.6821  142.4690  153.7410 H   0  0  0  0  0  0  0  0  0  0  0  0
  148.6914  140.7840  153.3669 H   0  0  0  0  0  0  0  0  0  0  0  0
  149.3992  143.0567  156.0288 H   0  0  0  0  0  0  0  0  0  0  0  0
  152.1249  142.3893  156.3528 H   0  0  0  0  0  0  0  0  0  0  0  0
  152.0501  141.1054  158.4864 H   0  0  0  0  0  0  0  0  0  0  0  0
  151.2131  140.2213  157.2286 H   0  0  0  0  0  0  0  0  0  0  0  0
  150.2896  141.0987  158.4435 H   0  0  0  0  0  0  0  0  0  0  0  0
  150.4767  144.3959  157.1602 H   0  0  0  0  0  0  0  0  0  0  0  0
  153.3048  143.7075  157.7125 H   0  0  0  0  0  0  0  0  0  0  0  0
  152.6060  145.3002  157.4450 H   0  0  0  0  0  0  0  0  0  0  0  0
  153.4797  144.7447  159.9317 H   0  0  0  0  0  0  0  0  0  0  0  0
  151.5762  145.9614  160.9359 H   0  0  0  0  0  0  0  0  0  0  0  0
  151.5659  146.5549  159.2745 H   0  0  0  0  0  0  0  0  0  0  0  0
  149.5754  144.8609  160.6193 H   0  0  0  0  0  0  0  0  0  0  0  0
  149.4717  145.4757  158.9719 H   0  0  0  0  0  0  0  0  0  0  0  0
  149.7630  142.8106  159.2783 H   0  0  0  0  0  0  0  0  0  0  0  0
  152.3272  142.3924  159.7251 H   0  0  0  0  0  0  0  0  0  0  0  0
  151.6051  143.2983  161.0736 H   0  0  0  0  0  0  0  0  0  0  0  0
  1 24  1  0  0  0  0
  1 25  1  0  0  0  0
  1 26  1  0  0  0  0
  1  2  1  0  0  0  0
  2  3  1  0  0  0  0
  2 22  2  0  0  0  0
  3  4  1  0  0  0  0
  3 23  1  0  0  0  0
  4  6  2  0  0  0  0
  4  5  1  0  0  0  0
  5 27  1  0  0  0  0
  5 28  1  0  0  0  0
  5 29  1  0  0  0  0
  6 20  1  0  0  0  0
  6  7  1  0  0  0  0
  7  8  1  0  0  0  0
  7 30  1  0  0  0  0
  7 31  1  0  0  0  0
  8  9  2  0  0  0  0
  8 10  1  0  0  0  0
 10 11  1  0  0  0  0
 10 32  1  0  0  0  0
 11 12  1  0  0  0  0
 11 13  1  0  0  0  0
 11 33  1  0  0  0  0
 12 34  1  0  0  0  0
 12 35  1  0  0  0  0
 12 36  1  0  0  0  0
 13 18  1  0  0  0  0
 13 14  1  0  0  0  0
 13 37  1  0  0  0  0
 14 15  1  0  0  0  0
 14 38  1  0  0  0  0
 14 39  1  0  0  0  0
 15 19  1  0  0  0  0
 15 16  1  0  0  0  0
 15 40  1  0  0  0  0
 16 17  1  0  0  0  0
 16 41  1  0  0  0  0
 16 42  1  0  0  0  0
 17 18  1  0  0  0  0
 17 43  1  0  0  0  0
 17 44  1  0  0  0  0
 18 19  1  0  0  0  0
 18 45  1  0  0  0  0
 19 46  1  0  0  0  0
 19 47  1  0  0  0  0
 20 21  2  0  0  0  0
 20 22  1  0  0  0  0
M  END
> <s_m_source_file>
AV-unprocessed.smi

> <i_m_source_file_index>
2124

> <i_lp_mmshare_version>
43012

> <i_f3d_flags>
0

> <s_epik_input>
W0NIM11jMW5jKFtDSDNdKWMoYyg9TylbbkhdMSlbQ0gyXUMoPU8pW05IXVtDQEhdKFtDSDNdKVtDQEhdKFtDSDJdW0NASF0yMylbQ0BIXShbQ0gyXTMpW0NIMl1bQ0gyXTI=

> <s_epik_cmdline>
J2VwaWtfcHl0aG9uJywgJy1waCcsICc3LjAnLCAnLXRuJywgJzgnLCAnLW1hJywgJzIwMCcsICctbWV0YWxfYmluZGluZycsICctaW1hZScsICc8aW5maWxlLm1hZT4nLCAnLW9tYWUnLCAnPG91dGZpbGUubWFlPic=

> <r_lp_tautomer_probability>
0.156392

> <r_epik_Ionization_Penalty>
0.0139374

> <r_epik_Ionization_Penalty_Charging>
0.0138122

> <r_epik_Ionization_Penalty_Neutral>
0.000125146

> <r_epik_State_Penalty>
1.15342

> <r_epik_Charging_Adjusted_Penalty>
1.16723

> <i_epik_Tot_Q>
0

> <i_epik_Tot_abs_Q>
0

> <r_epik_Metal_State_Penalty>
1.3173

> <b_epik_Metal_Only>
0

> <s_lp_Force_Field>
OPLS_2005

> <r_lp_Energy>
56.0301

> <b_lp_Chiralities_Consistent>
1

> <s_lp_Variant>
AV-unprocessed.smi:2124-13

> <Gold.Version>
5.8.1

> <Gold.Id.Protein>
6NUR|6NUR_protein|mol2

> <Gold.PLP.Fitness>
47.2945

> <Gold.PLP.PLP>
-44.1586

> <Gold.PLP.part.hbond>
-2.0000

> <Gold.PLP.part.metal>
0.0000

> <Gold.PLP.part.buried>
-5.6940

> <Gold.PLP.part.nonpolar>
-35.8803

> <Gold.PLP.part.repulsive>
0.1982

> <Gold.PLP.ligand.clash>
0.0000

> <Gold.PLP.ligand.torsion>
1.4262

> <Gold.PLP.Chemscore.Hbond>
1.9760

> <Gold.PLP.Chemscore.CHOScore>
0.0000

> <Gold.PLP.Chemscore.Metal>
0.0000

> <Gold.Chemscore.Hbonds>
donor molecule, donor type, donor heavy atom, donor atom, acceptor molecule, acceptor atom, score
      L1  H    10    32       P1  8028  1.00
      P1  H  7989  7998       L1     9  1.00

> <Gold.PLP.Chemscore.Internal.Correction>
0.0604

> <Gold.Rescore>
     Score         DG    S(hbond)    S(metal)    S(lipo)     H(rot)  DE(clash)    DE(int)     intcor
     16.13     -20.21       1.66        0.00     114.80       1.65       0.47       3.61       ----

> <Gold.Chemscore.Fitness>
16.1342

> <Gold.Chemscore.DG>
-20.2144

> <Gold.Chemscore.ZeroCoef>
-5.4800

> <Gold.Chemscore.Hbond>
1.6574

> <Gold.Chemscore.Metal>
0.0000

> <Gold.Chemscore.Lipo>
114.7986

> <Gold.Chemscore.Internal_Hbond>
0.0000

> <Gold.Chemscore.DEClash>
0.4742

> <Gold.Chemscore.DEInternal>
3.6061

> <Gold.Chemscore.Rot>
1.6534

> <Gold.Chemscore.Internal.Correction>
   9.000000E+99

> <Gold.Chemscore.Hbonds>
donor molecule, donor type, donor heavy atom, donor atom, acceptor molecule, acceptor atom, score
      L1  H    10    32       P1  8028  0.96
      P1  H  7989  7998       L1     9  0.29

> <Gold.Chemscore.Hbond.Weighted>
-5.5356

> <Gold.Chemscore.Metal.Weighted>
-0.0000

> <Gold.Chemscore.Lipo.Weighted>
-13.4314

> <Gold.Chemscore.Internal_Hbond.Weighted>
0.0000

> <Gold.Chemscore.DEClash.Weighted>
0.4742

> <Gold.Chemscore.DEInternal.Weighted>
3.6061

> <Gold.Chemscore.Rot.Weighted>
4.2326

> <Gold.Chemscore.Internal.Correction.Weighted>
   9.000000E+99

> <Gold.Protein.RotatedTorsions>
[ 6907 6896 6895 6894 ] final  100.75 input  -60.11 | X-H torsion
[ 7974 7965 7964 7962 ] final  -94.63 input  175.53 | X-H torsion
[ 8008 7997 7996 7995 ] final -140.79 input   59.86 | X-H torsion
[ 10167 10162 10161 10158 ] final   17.49 input  -65.29 | X-H torsion
[ 10718 10713 10712 10709 ] final  128.19 input   66.30 | X-H torsion
[ 10763 10752 10751 10750 ] final -105.61 input  -60.55 | X-H torsion
[ 11005 11000 10999 10996 ] final -175.68 input  -57.11 | X-H torsion

> <Gold.Protein.ActiveResidues>
 VAL166  LYS551  ARG553  GLY616  TRP617  ASP618  TYR619  PRO620  LYS621  CYS622 
 ASP623  PHE694  ASN695  SER759  ASP760  ASP761  ALA762  ILE779  LEU786  VAL792 
 PHE793  MET794  SER795  GLU796  ALA797  LYS798  CYS799  TRP800  GLU811  SER814 

> <Gold.Protein.RotatedAtoms>
  152.5365  134.0230  159.7990 H   0  0  0  0  0  0  0  0  0  0  0  0  # atno 6907 bound_to 6896
  151.0413  133.5696  159.2658 H   0  0  0  0  0  0  0  0  0  0  0  0  # atno 6908 bound_to 6896
  151.2664  135.0678  159.9171 H   0  0  0  0  0  0  0  0  0  0  0  0  # atno 6909 bound_to 6896
  145.3707  140.9505  143.2449 H   0  0  0  0  0  0  0  0  0  0  0  0  # atno 7974 bound_to 7965
  155.4672  140.0550  157.2984 H   0  0  0  0  0  0  0  0  0  0  0  0  # atno 8008 bound_to 7997
  154.4713  140.2041  155.9942 H   0  0  0  0  0  0  0  0  0  0  0  0  # atno 8009 bound_to 7997
  156.1060  140.3211  155.8011 H   0  0  0  0  0  0  0  0  0  0  0  0  # atno 8010 bound_to 7997
  140.5722  143.9139  150.6722 H   0  0  0  0  0  0  0  0  0  0  0  0  # atno 10167 bound_to 10162
  157.5266  131.1098  150.9073 H   0  0  0  0  0  0  0  0  0  0  0  0  # atno 10718 bound_to 10713
  154.7958  135.4742  154.0158 H   0  0  0  0  0  0  0  0  0  0  0  0  # atno 10763 bound_to 10752
  153.1701  135.6823  153.8626 H   0  0  0  0  0  0  0  0  0  0  0  0  # atno 10764 bound_to 10752
  153.8211  135.3204  155.3388 H   0  0  0  0  0  0  0  0  0  0  0  0  # atno 10765 bound_to 10752
  140.4606  134.6258  157.4841 H   0  0  0  0  0  0  0  0  0  0  0  0  # atno 11005 bound_to 11000
  144.8578  139.5222  143.6826 LP  0  0  0  0  0  0  0  0  0  0  0  0  # atno 17320 bound_to 7965
  146.2886  139.7076  142.9177 LP  0  0  0  0  0  0  0  0  0  0  0  0  # atno 17321 bound_to 7965
  140.2617  143.3519  152.1316 LP  0  0  0  0  0  0  0  0  0  0  0  0  # atno 17342 bound_to 10162
  139.5124  144.6915  151.5746 LP  0  0  0  0  0  0  0  0  0  0  0  0  # atno 17343 bound_to 10162
  156.9667  130.5475  149.5288 LP  0  0  0  0  0  0  0  0  0  0  0  0  # atno 17370 bound_to 10713
  156.0392  130.5476  150.8728 LP  0  0  0  0  0  0  0  0  0  0  0  0  # atno 17371 bound_to 10713
  139.9948  134.6929  155.9628 LP  0  0  0  0  0  0  0  0  0  0  0  0  # atno 17394 bound_to 11000
  141.1623  133.6538  156.4360 LP  0  0  0  0  0  0  0  0  0  0  0  0  # atno 17395 bound_to 11000

$$$$
