AV-unprocessed.smi:1844|AV-procd|sdf|7509|dock9
  -GOLD-   22720 9213D 1   1.00000     0.00000
 Structure written by MMmdl.
 45 46  0  0  0  0  0  0  0  0  1 V2000
  147.7316  139.2099  151.3077 C   0  0  0  0  0  0  0  0  0  0  0  0
  148.6001  138.6706  152.3431 N   0  0  0  0  0  0  0  0  0  0  0  0
  149.0337  139.3627  153.4095 C   0  0  0  0  0  0  0  0  0  0  0  0
  148.7163  140.5396  153.5895 O   0  0  0  0  0  0  0  0  0  0  0  0
  149.8995  138.5909  154.3045 C   0  0  0  0  0  0  0  0  0  0  0  0
  149.7778  137.1522  154.4857 C   0  0  0  0  0  0  0  0  0  0  0  0
  150.6209  136.4904  155.3023 C   0  0  0  0  0  0  0  0  0  0  0  0
  151.6860  137.1799  156.0357 C   0  0  0  0  0  0  0  0  0  0  0  0
  152.4768  136.5758  156.7602 O   0  0  0  0  0  0  0  0  0  0  0  0
  151.7527  138.5337  155.8527 N   0  0  0  0  0  0  0  0  0  0  0  0
  152.8045  139.3355  156.5063 C   0  0  0  0  0  0  0  0  0  0  0  0
  152.4000  139.9147  157.8735 C   0  0  0  0  0  0  0  0  0  0  0  0
  152.5398  139.2290  158.8852 O   0  0  0  0  0  0  0  0  0  0  0  0
  151.9086  141.1644  157.8993 N   0  0  0  0  0  0  0  0  0  0  0  0
  151.4792  141.9112  159.0780 C   0  0  1  0  0  0  0  0  0  0  0  0
  152.6895  142.2625  159.9700 C   0  0  0  0  0  0  0  0  0  0  0  0
  153.6230  143.2859  159.2999 C   0  0  0  0  0  0  0  0  0  0  0  0
  152.8548  144.5516  158.8908 C   0  0  0  0  0  0  0  0  0  0  0  0
  151.6553  144.2143  157.9904 C   0  0  0  0  0  0  0  0  0  0  0  0
  150.7122  143.1898  158.6573 C   0  0  1  0  0  0  0  0  0  0  0  0
  149.4934  142.8880  157.7674 C   0  0  0  0  0  0  0  0  0  0  0  0
  150.8712  139.2195  154.9942 C   0  0  0  0  0  0  0  0  0  0  0  0
  147.5232  138.4429  150.5618 H   0  0  0  0  0  0  0  0  0  0  0  0
  148.2043  140.0549  150.8053 H   0  0  0  0  0  0  0  0  0  0  0  0
  146.7826  139.5417  151.7304 H   0  0  0  0  0  0  0  0  0  0  0  0
  148.8922  137.7093  152.2448 H   0  0  0  0  0  0  0  0  0  0  0  0
  149.0140  136.5839  153.9754 H   0  0  0  0  0  0  0  0  0  0  0  0
  150.5109  135.4225  155.4207 H   0  0  0  0  0  0  0  0  0  0  0  0
  153.7004  138.7292  156.6480 H   0  0  0  0  0  0  0  0  0  0  0  0
  153.1203  140.1564  155.8605 H   0  0  0  0  0  0  0  0  0  0  0  0
  151.8287  141.6474  157.0162 H   0  0  0  0  0  0  0  0  0  0  0  0
  150.7978  141.2810  159.6525 H   0  0  0  0  0  0  0  0  0  0  0  0
  152.3299  142.6729  160.9145 H   0  0  0  0  0  0  0  0  0  0  0  0
  153.2480  141.3618  160.2274 H   0  0  0  0  0  0  0  0  0  0  0  0
  154.4340  143.5482  159.9800 H   0  0  0  0  0  0  0  0  0  0  0  0
  154.0918  142.8406  158.4212 H   0  0  0  0  0  0  0  0  0  0  0  0
  152.5050  145.0700  159.7845 H   0  0  0  0  0  0  0  0  0  0  0  0
  153.5239  145.2416  158.3758 H   0  0  0  0  0  0  0  0  0  0  0  0
  151.1072  145.1286  157.7606 H   0  0  0  0  0  0  0  0  0  0  0  0
  152.0145  143.8263  157.0361 H   0  0  0  0  0  0  0  0  0  0  0  0
  150.3289  143.6482  159.5702 H   0  0  0  0  0  0  0  0  0  0  0  0
  149.7879  142.4763  156.8013 H   0  0  0  0  0  0  0  0  0  0  0  0
  148.9176  143.7935  157.5752 H   0  0  0  0  0  0  0  0  0  0  0  0
  148.8268  142.1705  158.2466 H   0  0  0  0  0  0  0  0  0  0  0  0
  151.0568  140.2827  154.9259 H   0  0  0  0  0  0  0  0  0  0  0  0
  1  2  1  0  0  0  0
  1 23  1  0  0  0  0
  1 24  1  0  0  0  0
  1 25  1  0  0  0  0
  2  3  1  0  0  0  0
  2 26  1  0  0  0  0
  3  4  2  0  0  0  0
  3  5  1  0  0  0  0
  5 22  2  0  0  0  0
  5  6  1  0  0  0  0
  6  7  2  0  0  0  0
  6 27  1  0  0  0  0
  7  8  1  0  0  0  0
  7 28  1  0  0  0  0
  8  9  2  0  0  0  0
  8 10  1  0  0  0  0
 10 11  1  0  0  0  0
 10 22  1  0  0  0  0
 11 12  1  0  0  0  0
 11 29  1  0  0  0  0
 11 30  1  0  0  0  0
 12 13  2  0  0  0  0
 12 14  1  0  0  0  0
 14 15  1  0  0  0  0
 14 31  1  0  0  0  0
 15 20  1  0  0  0  0
 15 16  1  0  0  0  0
 15 32  1  0  0  0  0
 16 17  1  0  0  0  0
 16 33  1  0  0  0  0
 16 34  1  0  0  0  0
 17 18  1  0  0  0  0
 17 35  1  0  0  0  0
 17 36  1  0  0  0  0
 18 19  1  0  0  0  0
 18 37  1  0  0  0  0
 18 38  1  0  0  0  0
 19 20  1  0  0  0  0
 19 39  1  0  0  0  0
 19 40  1  0  0  0  0
 20 21  1  0  0  0  0
 20 41  1  0  0  0  0
 21 42  1  0  0  0  0
 21 43  1  0  0  0  0
 21 44  1  0  0  0  0
 22 45  1  0  0  0  0
M  END
> <s_m_source_file>
AV-unprocessed.smi

> <i_m_source_file_index>
1844

> <i_lp_mmshare_version>
43012

> <i_f3d_flags>
0

> <s_epik_input>
W0NIM11bTkhdQyg9TyljMVtjSF1bY0hdYyg9TyluKFtjSF0xKVtDSDJdQyg9TylbTkhdW0NAQEhdMltDSDJdW0NIMl1bQ0gyXVtDSDJdW0NASF0yW0NIM10=

> <s_epik_cmdline>
J2VwaWtfcHl0aG9uJywgJy1waCcsICc3LjAnLCAnLXRuJywgJzgnLCAnLW1hJywgJzIwMCcsICctbWV0YWxfYmluZGluZycsICctaW1hZScsICc8aW5maWxlLm1hZT4nLCAnLW9tYWUnLCAnPG91dGZpbGUubWFlPic=

> <r_lp_tautomer_probability>
1

> <r_epik_Ionization_Penalty>
3.66612e-07

> <r_epik_Ionization_Penalty_Charging>
5.18929e-08

> <r_epik_Ionization_Penalty_Neutral>
3.14719e-07

> <r_epik_State_Penalty>
-0

> <r_epik_Charging_Adjusted_Penalty>
5.18929e-08

> <i_epik_Tot_Q>
0

> <i_epik_Tot_abs_Q>
0

> <r_epik_Metal_State_Penalty>
-0

> <b_epik_Metal_Only>
0

> <s_lp_Force_Field>
OPLS_2005

> <r_lp_Energy>
21.2081

> <b_lp_Chiralities_Consistent>
1

> <s_lp_Variant>
AV-unprocessed.smi:1844-2

> <Gold.Version>
5.8.1

> <Gold.Id.Protein>
6NUR|6NUR_protein|mol2

> <Gold.PLP.Fitness>
40.4320

> <Gold.PLP.PLP>
-36.8535

> <Gold.PLP.part.hbond>
-3.0000

> <Gold.PLP.part.metal>
0.0000

> <Gold.PLP.part.buried>
1.9651

> <Gold.PLP.part.nonpolar>
-35.9583

> <Gold.PLP.part.repulsive>
0.2639

> <Gold.PLP.ligand.clash>
0.0000

> <Gold.PLP.ligand.torsion>
1.2165

> <Gold.PLP.Chemscore.Hbond>
2.0000

> <Gold.PLP.Chemscore.CHOScore>
0.0000

> <Gold.PLP.Chemscore.Metal>
0.0000

> <Gold.Chemscore.Hbonds>
donor molecule, donor type, donor heavy atom, donor atom, acceptor molecule, acceptor atom, score
      L1  H     2    26       P1  7948  0.89
      P1  H 10752 10765       L1     9  0.54

> <Gold.PLP.Chemscore.Internal.Correction>
0.0115

> <Gold.Rescore>
     Score         DG    S(hbond)    S(metal)    S(lipo)     H(rot)  DE(clash)    DE(int)     intcor
     17.61     -20.17       1.96        0.00     102.40       1.49       1.35       1.21       ----

> <Gold.Chemscore.Fitness>
17.6122

> <Gold.Chemscore.DG>
-20.1746

> <Gold.Chemscore.ZeroCoef>
-5.4800

> <Gold.Chemscore.Hbond>
1.9562

> <Gold.Chemscore.Metal>
0.0000

> <Gold.Chemscore.Lipo>
102.4045

> <Gold.Chemscore.Internal_Hbond>
0.0000

> <Gold.Chemscore.DEClash>
1.3515

> <Gold.Chemscore.DEInternal>
1.2109

> <Gold.Chemscore.Rot>
1.4923

> <Gold.Chemscore.Internal.Correction>
   9.000000E+99

> <Gold.Chemscore.Hbonds>
donor molecule, donor type, donor heavy atom, donor atom, acceptor molecule, acceptor atom, score
      L1  H     2    26       P1  7948  0.86
      P1  H  8011  8017       L1     4  0.01
      P1  H 10752 10765       L1     9  0.05

> <Gold.Chemscore.Hbond.Weighted>
-6.5337

> <Gold.Chemscore.Metal.Weighted>
-0.0000

> <Gold.Chemscore.Lipo.Weighted>
-11.9813

> <Gold.Chemscore.Internal_Hbond.Weighted>
0.0000

> <Gold.Chemscore.DEClash.Weighted>
1.3515

> <Gold.Chemscore.DEInternal.Weighted>
1.2109

> <Gold.Chemscore.Rot.Weighted>
3.8204

> <Gold.Chemscore.Internal.Correction.Weighted>
   9.000000E+99

> <Gold.Protein.RotatedTorsions>
[ 6907 6896 6895 6894 ] final   67.66 input  -60.11 | X-H torsion
[ 7974 7965 7964 7962 ] final  176.45 input  175.53 | X-H torsion
[ 8008 7997 7996 7995 ] final   98.09 input   59.86 | X-H torsion
[ 10167 10162 10161 10158 ] final -117.98 input  -65.29 | X-H torsion
[ 10718 10713 10712 10709 ] final  -22.80 input   66.30 | X-H torsion
[ 10763 10752 10751 10750 ] final -141.02 input  -60.55 | X-H torsion
[ 11005 11000 10999 10996 ] final   -5.50 input  -57.11 | X-H torsion

> <Gold.Protein.ActiveResidues>
 VAL166  LYS551  ARG553  GLY616  TRP617  ASP618  TYR619  PRO620  LYS621  CYS622 
 ASP623  PHE694  ASN695  SER759  ASP760  ASP761  ALA762  ILE779  LEU786  VAL792 
 PHE793  MET794  SER795  GLU796  ALA797  LYS798  CYS799  TRP800  GLU811  SER814 

> <Gold.Protein.RotatedAtoms>
  152.4567  134.5275  159.9800 H   0  0  0  0  0  0  0  0  0  0  0  0  # atno 6907 bound_to 6896
  151.5334  133.3439  159.2930 H   0  0  0  0  0  0  0  0  0  0  0  0  # atno 6908 bound_to 6896
  150.8514  134.7870  159.7074 H   0  0  0  0  0  0  0  0  0  0  0  0  # atno 6909 bound_to 6896
  144.7184  140.0098  143.6440 H   0  0  0  0  0  0  0  0  0  0  0  0  # atno 7974 bound_to 7965
  156.0969  140.3249  155.7889 H   0  0  0  0  0  0  0  0  0  0  0  0  # atno 8008 bound_to 7997
  155.4903  140.0561  157.2972 H   0  0  0  0  0  0  0  0  0  0  0  0  # atno 8009 bound_to 7997
  154.4672  140.1994  156.0103 H   0  0  0  0  0  0  0  0  0  0  0  0  # atno 8010 bound_to 7997
  140.0625  143.4954  152.2024 H   0  0  0  0  0  0  0  0  0  0  0  0  # atno 10167 bound_to 10162
  156.4997  130.4585  149.6708 H   0  0  0  0  0  0  0  0  0  0  0  0  # atno 10718 bound_to 10713
  154.8559  135.3536  154.5801 H   0  0  0  0  0  0  0  0  0  0  0  0  # atno 10763 bound_to 10752
  153.6412  135.6998  153.5246 H   0  0  0  0  0  0  0  0  0  0  0  0  # atno 10764 bound_to 10752
  153.2970  135.4218  155.1177 H   0  0  0  0  0  0  0  0  0  0  0  0  # atno 10765 bound_to 10752
  140.6918  133.9065  155.8623 H   0  0  0  0  0  0  0  0  0  0  0  0  # atno 11005 bound_to 11000
  146.0267  139.3299  143.0780 LP  0  0  0  0  0  0  0  0  0  0  0  0  # atno 17320 bound_to 7965
  145.8502  140.9533  143.0753 LP  0  0  0  0  0  0  0  0  0  0  0  0  # atno 17321 bound_to 7965
  139.5885  144.7541  151.3460 LP  0  0  0  0  0  0  0  0  0  0  0  0  # atno 17342 bound_to 10162
  140.7165  143.7252  150.7665 LP  0  0  0  0  0  0  0  0  0  0  0  0  # atno 17343 bound_to 10162
  156.3345  130.7349  151.2284 LP  0  0  0  0  0  0  0  0  0  0  0  0  # atno 17370 bound_to 10713
  157.7464  131.0420  150.4676 LP  0  0  0  0  0  0  0  0  0  0  0  0  # atno 17371 bound_to 10713
  141.0235  134.0855  157.4094 LP  0  0  0  0  0  0  0  0  0  0  0  0  # atno 17394 bound_to 11000
  139.8921  135.0123  156.6829 LP  0  0  0  0  0  0  0  0  0  0  0  0  # atno 17395 bound_to 11000

$$$$
