AV-unprocessed.smi:21|AV-procd|sdf|138|dock10
  -GOLD-   2262015343D 1   1.00000     0.00000
 Structure written by MMmdl.
 62 65  0  0  0  0  0  0  0  0  2 V2000
  145.4315  131.0603  151.0574 C   0  0  0  0  0  0  0  0  0  0  0  0
  146.1200  132.0691  151.7798 O   0  0  0  0  0  0  0  0  0  0  0  0
  145.7408  133.3919  151.4215 C   0  0  2  0  0  0  0  0  0  0  0  0
  146.0801  134.3304  152.5720 C   0  0  0  0  0  0  0  0  0  0  0  0
  144.9117  134.1629  153.5532 C   0  0  1  0  0  0  0  0  0  0  0  0
  144.7020  135.3760  154.4938 C   0  0  0  0  0  0  0  0  0  0  0  0
  145.2110  136.6244  153.9228 N   0  0  0  0  0  0  0  0  0  0  0  0
  144.4985  137.2147  152.7969 C   0  0  0  0  0  0  0  0  0  0  0  0
  146.0644  137.3929  154.6534 C   0  0  0  0  0  0  0  0  0  0  0  0
  146.1762  137.1338  155.9828 N   0  0  0  0  0  0  0  0  0  0  0  0
  146.9976  137.8534  156.7517 C   0  0  0  0  0  0  0  0  0  0  0  0
  147.7851  138.8710  156.4041 N   0  0  0  0  0  0  0  0  0  0  0  0
  147.6757  139.1473  155.0738 C   0  0  0  0  0  0  0  0  0  0  0  0
  146.8502  138.4656  154.1325 C   0  0  0  0  0  0  0  0  0  0  0  0
  147.0010  139.0485  152.8781 N   0  0  0  0  0  0  0  0  0  0  0  0
  147.8712  140.0025  153.0632 C   0  0  0  0  0  0  0  0  0  0  0  0
  148.3309  140.1299  154.3526 N   0  0  0  0  0  0  0  0  0  0  0  0
  149.2949  141.1033  154.8338 C   0  0  0  0  0  0  0  0  0  0  0  0
  149.8026  140.8253  156.2733 C   0  0  2  0  0  0  0  0  0  0  0  0
  150.2839  142.1143  156.9880 C   0  0  0  0  0  0  0  0  0  0  0  0
  149.2016  142.9144  157.4179 O   0  0  0  0  0  0  0  0  0  0  0  0
  150.9219  139.7518  156.2556 C   0  0  2  0  0  0  0  0  0  0  0  0
  152.2186  140.1829  155.5892 C   0  0  0  0  0  0  0  0  0  0  0  0
  152.8900  138.8461  155.3052 C   0  0  0  0  0  0  0  0  0  0  0  0
  151.8268  137.9689  154.9605 O   0  0  0  0  0  0  0  0  0  0  0  0
  150.5917  138.4910  155.4425 C   0  0  0  0  0  0  0  0  0  0  0  0
  143.7381  133.7762  152.7163 N   0  3  1  0  0  0  0  0  0  0  0  0
  142.5370  134.6428  152.7668 C   0  0  0  0  0  0  0  0  0  0  0  0
  144.2171  133.5252  151.3366 C   0  0  0  0  0  0  0  0  0  0  0  0
  146.2416  133.7032  150.5030 H   0  0  0  0  0  0  0  0  0  0  0  0
  145.1180  133.2856  154.1679 H   0  0  0  0  0  0  0  0  0  0  0  0
  145.7715  130.0794  151.3890 H   0  0  0  0  0  0  0  0  0  0  0  0
  145.6302  131.1377  149.9878 H   0  0  0  0  0  0  0  0  0  0  0  0
  144.3542  131.1100  151.2159 H   0  0  0  0  0  0  0  0  0  0  0  0
  147.0491  134.1133  153.0232 H   0  0  0  0  0  0  0  0  0  0  0  0
  146.1100  135.3562  152.2015 H   0  0  0  0  0  0  0  0  0  0  0  0
  143.6524  135.4667  154.7733 H   0  0  0  0  0  0  0  0  0  0  0  0
  145.2429  135.2138  155.4263 H   0  0  0  0  0  0  0  0  0  0  0  0
  145.1626  137.8402  152.1995 H   0  0  0  0  0  0  0  0  0  0  0  0
  143.6613  137.8208  153.1434 H   0  0  0  0  0  0  0  0  0  0  0  0
  144.1026  136.4369  152.1435 H   0  0  0  0  0  0  0  0  0  0  0  0
  147.0284  137.5732  157.7944 H   0  0  0  0  0  0  0  0  0  0  0  0
  148.2063  140.6425  152.2598 H   0  0  0  0  0  0  0  0  0  0  0  0
  150.1249  141.1064  154.1277 H   0  0  0  0  0  0  0  0  0  0  0  0
  148.8447  142.0952  154.7805 H   0  0  0  0  0  0  0  0  0  0  0  0
  148.9720  140.4128  156.8487 H   0  0  0  0  0  0  0  0  0  0  0  0
  150.8636  141.8814  157.8799 H   0  0  0  0  0  0  0  0  0  0  0  0
  150.9355  142.6978  156.3371 H   0  0  0  0  0  0  0  0  0  0  0  0
  149.0746  143.6099  156.7906 H   0  0  0  0  0  0  0  0  0  0  0  0
  151.1503  139.4524  157.2800 H   0  0  0  0  0  0  0  0  0  0  0  0
  152.0143  140.7056  154.6537 H   0  0  0  0  0  0  0  0  0  0  0  0
  152.8343  140.8281  156.2165 H   0  0  0  0  0  0  0  0  0  0  0  0
  153.6336  138.9077  154.5104 H   0  0  0  0  0  0  0  0  0  0  0  0
  153.3804  138.4678  156.2033 H   0  0  0  0  0  0  0  0  0  0  0  0
  150.0665  137.7430  156.0369 H   0  0  0  0  0  0  0  0  0  0  0  0
  149.9680  138.7331  154.5811 H   0  0  0  0  0  0  0  0  0  0  0  0
  142.7608  135.6567  152.4325 H   0  0  0  0  0  0  0  0  0  0  0  0
  142.1229  134.6860  153.7740 H   0  0  0  0  0  0  0  0  0  0  0  0
  141.7596  134.2393  152.1171 H   0  0  0  0  0  0  0  0  0  0  0  0
  143.9791  134.3855  150.7085 H   0  0  0  0  0  0  0  0  0  0  0  0
  143.7248  132.6580  150.8972 H   0  0  0  0  0  0  0  0  0  0  0  0
  143.4460  132.8782  153.0754 H   0  0  0  0  0  0  0  0  0  0  0  0
  1  2  1  0  0  0  0
  1 32  1  0  0  0  0
  1 33  1  0  0  0  0
  1 34  1  0  0  0  0
  2  3  1  0  0  0  0
  3 30  1  0  0  0  0
  3 29  1  0  0  0  0
  3  4  1  0  0  0  0
  4  5  1  0  0  0  0
  4 35  1  0  0  0  0
  4 36  1  0  0  0  0
  5 31  1  0  0  0  0
  5  6  1  0  0  0  0
  5 27  1  0  0  0  0
  6  7  1  0  0  0  0
  6 37  1  0  0  0  0
  6 38  1  0  0  0  0
  7  8  1  0  0  0  0
  7  9  1  0  0  0  0
  8 39  1  0  0  0  0
  8 40  1  0  0  0  0
  8 41  1  0  0  0  0
  9 14  1  0  0  0  0
  9 10  2  0  0  0  0
 10 11  1  0  0  0  0
 11 12  2  0  0  0  0
 11 42  1  0  0  0  0
 12 13  1  0  0  0  0
 13 17  1  0  0  0  0
 13 14  2  0  0  0  0
 14 15  1  0  0  0  0
 15 16  2  0  0  0  0
 16 17  1  0  0  0  0
 16 43  1  0  0  0  0
 17 18  1  0  0  0  0
 18 19  1  0  0  0  0
 18 44  1  0  0  0  0
 18 45  1  0  0  0  0
 19 20  1  0  0  0  0
 19 22  1  0  0  0  0
 19 46  1  0  0  0  0
 20 21  1  0  0  0  0
 20 47  1  0  0  0  0
 20 48  1  0  0  0  0
 21 49  1  0  0  0  0
 22 26  1  0  0  0  0
 22 23  1  0  0  0  0
 22 50  1  0  0  0  0
 23 24  1  0  0  0  0
 23 51  1  0  0  0  0
 23 52  1  0  0  0  0
 24 25  1  0  0  0  0
 24 53  1  0  0  0  0
 24 54  1  0  0  0  0
 25 26  1  0  0  0  0
 26 55  1  0  0  0  0
 26 56  1  0  0  0  0
 27 28  1  0  0  0  0
 27 29  1  0  0  0  0
 27 62  1  0  0  0  0
 28 57  1  0  0  0  0
 28 58  1  0  0  0  0
 28 59  1  0  0  0  0
 29 60  1  0  0  0  0
 29 61  1  0  0  0  0
M  CHG  1  27   1
M  END
> <s_m_source_file>
AV-unprocessed.smi

> <i_m_source_file_index>
21

> <i_lp_mmshare_version>
43012

> <i_f3d_flags>
0

> <s_epik_input>
W0NIM11PW0NASF0xW0NIMl1bQ0BIXShOKFtDSDNdKVtDSDJdMSlbQ0gyXU4oW0NIM10pYyhuW2NIXW4yKWMoYzIzKW5bY0hdbjNbQ0gyXVtDQEhdKFtDSDJdW09IXSlbQ0BASF00W0NIMl1bQ0gyXU9bQ0gyXTQ=

> <s_epik_cmdline>
J2VwaWtfcHl0aG9uJywgJy1waCcsICc3LjAnLCAnLXRuJywgJzgnLCAnLW1hJywgJzIwMCcsICctbWV0YWxfYmluZGluZycsICctaW1hZScsICc8aW5maWxlLm1hZT4nLCAnLW9tYWUnLCAnPG91dGZpbGUubWFlPic=

> <r_lp_tautomer_probability>
1

> <r_epik_Ionization_Penalty>
0.0157465

> <r_epik_Ionization_Penalty_Charging>
0.015354

> <r_epik_Ionization_Penalty_Neutral>
0.000392529

> <r_epik_State_Penalty>
0.0120612

> <r_epik_Charging_Adjusted_Penalty>
0.0274152

> <i_epik_Tot_Q>
1

> <i_epik_Tot_abs_Q>
1

> <r_epik_Metal_State_Penalty>
0.0121253

> <b_epik_Metal_Only>
0

> <s_lp_Force_Field>
OPLS_2005

> <r_lp_Energy>
61.8504

> <b_lp_Chiralities_Consistent>
1

> <s_lp_Variant>
AV-unprocessed.smi:21-18

> <Gold.Version>
5.8.1

> <Gold.Id.Protein>
6NUR|6NUR_protein|mol2

> <Gold.PLP.Fitness>
44.0313

> <Gold.PLP.PLP>
-35.1603

> <Gold.PLP.part.hbond>
-2.8149

> <Gold.PLP.part.metal>
0.0000

> <Gold.PLP.part.buried>
0.2656

> <Gold.PLP.part.nonpolar>
-35.0460

> <Gold.PLP.part.repulsive>
0.5390

> <Gold.PLP.ligand.clash>
0.0000

> <Gold.PLP.ligand.torsion>
1.5702

> <Gold.PLP.Chemscore.Hbond>
3.4535

> <Gold.PLP.Chemscore.CHOScore>
0.3794

> <Gold.PLP.Chemscore.Metal>
0.0000

> <Gold.Chemscore.Hbonds>
donor molecule, donor type, donor heavy atom, donor atom, acceptor molecule, acceptor atom, score
      L1  H    21    49       P1  8028  1.00
      L1  H    27    62       P1 10957  1.25
      L1  C    16    43       P1  7957  0.46

> <Gold.PLP.Chemscore.Internal.Correction>
0.5128

> <Gold.Rescore>
     Score         DG    S(hbond)    S(metal)    S(lipo)     H(rot)  DE(clash)    DE(int)     intcor
      9.91     -16.25       2.38        0.00      91.52       3.08       3.34       3.00       ----

> <Gold.Chemscore.Fitness>
9.9106

> <Gold.Chemscore.DG>
-16.2475

> <Gold.Chemscore.ZeroCoef>
-5.4800

> <Gold.Chemscore.Hbond>
2.3753

> <Gold.Chemscore.Metal>
0.0000

> <Gold.Chemscore.Lipo>
91.5223

> <Gold.Chemscore.Internal_Hbond>
0.0000

> <Gold.Chemscore.DEClash>
3.3359

> <Gold.Chemscore.DEInternal>
3.0010

> <Gold.Chemscore.Rot>
3.0758

> <Gold.Chemscore.Internal.Correction>
   9.000000E+99

> <Gold.Chemscore.Hbonds>
donor molecule, donor type, donor heavy atom, donor atom, acceptor molecule, acceptor atom, score
      L1  H    21    49       P1  8028  0.77
      L1  H    27    62       P1 10957  0.27

> <Gold.Chemscore.Hbond.Weighted>
-7.9336

> <Gold.Chemscore.Metal.Weighted>
-0.0000

> <Gold.Chemscore.Lipo.Weighted>
-10.7081

> <Gold.Chemscore.Internal_Hbond.Weighted>
0.0000

> <Gold.Chemscore.DEClash.Weighted>
3.3359

> <Gold.Chemscore.DEInternal.Weighted>
3.0010

> <Gold.Chemscore.Rot.Weighted>
7.8741

> <Gold.Chemscore.Internal.Correction.Weighted>
   9.000000E+99

> <Gold.Protein.RotatedTorsions>
[ 6907 6896 6895 6894 ] final   89.99 input  -60.11 | X-H torsion
[ 7974 7965 7964 7962 ] final   12.13 input  175.53 | X-H torsion
[ 8008 7997 7996 7995 ] final -173.02 input   59.86 | X-H torsion
[ 10167 10162 10161 10158 ] final  -71.74 input  -65.29 | X-H torsion
[ 10718 10713 10712 10709 ] final  -45.87 input   66.30 | X-H torsion
[ 10763 10752 10751 10750 ] final  162.09 input  -60.55 | X-H torsion
[ 11005 11000 10999 10996 ] final  -88.09 input  -57.11 | X-H torsion

> <Gold.Protein.ActiveResidues>
 VAL166  LYS551  ARG553  GLY616  TRP617  ASP618  TYR619  PRO620  LYS621  CYS622 
 ASP623  PHE694  ASN695  SER759  ASP760  ASP761  ALA762  ILE779  LEU786  VAL792 
 PHE793  MET794  SER795  GLU796  ALA797  LYS798  CYS799  TRP800  GLU811  SER814 

> <Gold.Protein.RotatedAtoms>
  152.5441  134.1880  159.8662 H   0  0  0  0  0  0  0  0  0  0  0  0  # atno 6907 bound_to 6896
  151.1878  133.4679  159.2602 H   0  0  0  0  0  0  0  0  0  0  0  0  # atno 6908 bound_to 6896
  151.1114  135.0040  159.8551 H   0  0  0  0  0  0  0  0  0  0  0  0  # atno 6909 bound_to 6896
  146.2357  139.9382  142.8487 H   0  0  0  0  0  0  0  0  0  0  0  0  # atno 7974 bound_to 7965
  155.9521  140.1128  157.0968 H   0  0  0  0  0  0  0  0  0  0  0  0  # atno 8008 bound_to 7997
  154.4112  140.1198  156.5132 H   0  0  0  0  0  0  0  0  0  0  0  0  # atno 8009 bound_to 7997
  155.6829  140.3473  155.4865 H   0  0  0  0  0  0  0  0  0  0  0  0  # atno 8010 bound_to 7997
  140.5248  143.2327  151.7366 H   0  0  0  0  0  0  0  0  0  0  0  0  # atno 10167 bound_to 10162
  156.2240  130.4168  149.8957 H   0  0  0  0  0  0  0  0  0  0  0  0  # atno 10718 bound_to 10713
  154.2730  135.2765  155.2730 H   0  0  0  0  0  0  0  0  0  0  0  0  # atno 10763 bound_to 10752
  154.5285  135.5736  153.6742 H   0  0  0  0  0  0  0  0  0  0  0  0  # atno 10764 bound_to 10752
  152.9942  135.6222  154.2886 H   0  0  0  0  0  0  0  0  0  0  0  0  # atno 10765 bound_to 10752
  141.1607  133.7549  156.9401 H   0  0  0  0  0  0  0  0  0  0  0  0  # atno 11005 bound_to 11000
  145.1978  140.9841  143.4173 LP  0  0  0  0  0  0  0  0  0  0  0  0  # atno 17320 bound_to 7965
  144.9800  139.3792  143.6266 LP  0  0  0  0  0  0  0  0  0  0  0  0  # atno 17321 bound_to 7965
  139.4935  144.4201  151.9987 LP  0  0  0  0  0  0  0  0  0  0  0  0  # atno 17342 bound_to 10162
  140.3300  144.3328  150.5989 LP  0  0  0  0  0  0  0  0  0  0  0  0  # atno 17343 bound_to 10162
  156.6594  130.8776  151.3545 LP  0  0  0  0  0  0  0  0  0  0  0  0  # atno 17370 bound_to 10713
  157.7101  130.9430  150.1061 LP  0  0  0  0  0  0  0  0  0  0  0  0  # atno 17371 bound_to 10713
  140.1328  134.9345  157.2360 LP  0  0  0  0  0  0  0  0  0  0  0  0  # atno 17394 bound_to 11000
  140.2932  134.3216  155.7309 LP  0  0  0  0  0  0  0  0  0  0  0  0  # atno 17395 bound_to 11000

$$$$
