AV-unprocessed.smi:72|AV-procd|sdf|752|dock4
  -GOLD-   2262017 83D 1   1.00000     0.00000
 Structure written by MMmdl.
 29 30  0  0  0  0  0  0  0  0  1 V2000
  139.8574  136.6758  154.9576 N   0  0  0  0  0  0  0  0  0  0  0  0
  140.9812  136.3231  154.2409 C   0  0  0  0  0  0  0  0  0  0  0  0
  141.1913  134.9515  154.0474 N   0  0  0  0  0  0  0  0  0  0  0  0
  142.2374  134.6157  153.3616 C   0  0  0  0  0  0  0  0  0  0  0  0
  143.1291  135.6182  152.7978 N   0  0  0  0  0  0  0  0  0  0  0  0
  144.3812  135.2586  152.0107 C   0  0  1  0  0  0  0  0  0  0  0  0
  144.8863  134.0273  152.4338 O   0  0  0  0  0  0  0  0  0  0  0  0
  144.3686  132.9902  151.6095 C   0  0  2  0  0  0  0  0  0  0  0  0
  145.2472  131.7363  151.7306 C   0  0  0  0  0  0  0  0  0  0  0  0
  146.5635  132.0284  151.3122 O   0  0  0  0  0  0  0  0  0  0  0  0
  144.4056  133.6371  150.2240 C   0  0  1  0  0  0  0  0  0  0  0  0
  143.4261  133.0578  149.3858 O   0  0  0  0  0  0  0  0  0  0  0  0
  144.0781  135.1035  150.5030 C   0  0  2  0  0  0  0  0  0  0  0  0
  144.9011  135.9426  149.7186 O   0  0  0  0  0  0  0  0  0  0  0  0
  142.8804  136.9907  153.0828 C   0  0  0  0  0  0  0  0  0  0  0  0
  143.6597  137.8560  152.6834 O   0  0  0  0  0  0  0  0  0  0  0  0
  141.7325  137.2997  153.8214 N   0  0  0  0  0  0  0  0  0  0  0  0
  145.0921  136.0516  152.2505 H   0  0  0  0  0  0  0  0  0  0  0  0
  143.3354  132.7713  151.8860 H   0  0  0  0  0  0  0  0  0  0  0  0
  145.3986  133.5308  149.7837 H   0  0  0  0  0  0  0  0  0  0  0  0
  143.0276  135.3221  150.3041 H   0  0  0  0  0  0  0  0  0  0  0  0
  139.6061  137.6323  155.1610 H   0  0  0  0  0  0  0  0  0  0  0  0
  139.2057  136.0040  155.3360 H   0  0  0  0  0  0  0  0  0  0  0  0
  142.5046  133.5758  153.1745 H   0  0  0  0  0  0  0  0  0  0  0  0
  145.2987  131.4140  152.7710 H   0  0  0  0  0  0  0  0  0  0  0  0
  144.8388  130.9066  151.1532 H   0  0  0  0  0  0  0  0  0  0  0  0
  146.9470  131.2423  150.9546 H   0  0  0  0  0  0  0  0  0  0  0  0
  142.6298  133.5609  149.4653 H   0  0  0  0  0  0  0  0  0  0  0  0
  144.5528  136.8205  149.7522 H   0  0  0  0  0  0  0  0  0  0  0  0
  1  2  1  0  0  0  0
  1 22  1  0  0  0  0
  1 23  1  0  0  0  0
  2 17  2  0  0  0  0
  2  3  1  0  0  0  0
  3  4  2  0  0  0  0
  4  5  1  0  0  0  0
  4 24  1  0  0  0  0
  5  6  1  0  0  0  0
  5 15  1  0  0  0  0
  6 18  1  0  0  0  0
  6 13  1  0  0  0  0
  6  7  1  0  0  0  0
  7  8  1  0  0  0  0
  8 19  1  0  0  0  0
  8  9  1  0  0  0  0
  8 11  1  0  0  0  0
  9 10  1  0  0  0  0
  9 25  1  0  0  0  0
  9 26  1  0  0  0  0
 10 27  1  0  0  0  0
 11 20  1  0  0  0  0
 11 12  1  0  0  0  0
 11 13  1  0  0  0  0
 12 28  1  0  0  0  0
 13 21  1  0  0  0  0
 13 14  1  0  0  0  0
 14 29  1  0  0  0  0
 15 16  2  0  0  0  0
 15 17  1  0  0  0  0
M  END
> <s_m_source_file>
AV-unprocessed.smi

> <i_m_source_file_index>
72

> <i_lp_mmshare_version>
43012

> <i_f3d_flags>
0

> <s_epik_input>
W05IMl1jMW5bY0hdbihjKD1PKW4xKVtDQEBIXTJPW0NASF0oW0NIMl1bT0hdKVtDQEBIXShbT0hdKVtDQEhdMltPSF0=

> <s_epik_cmdline>
J2VwaWtfcHl0aG9uJywgJy1waCcsICc3LjAnLCAnLXRuJywgJzgnLCAnLW1hJywgJzIwMCcsICctbWV0YWxfYmluZGluZycsICctaW1hZScsICc8aW5maWxlLm1hZT4nLCAnLW9tYWUnLCAnPG91dGZpbGUubWFlPic=

> <r_lp_tautomer_probability>
4.77166e-05

> <r_epik_Ionization_Penalty>
1.3546

> <r_epik_Ionization_Penalty_Charging>
1.46833e-10

> <r_epik_Ionization_Penalty_Neutral>
1.3546

> <r_epik_State_Penalty>
3.51908

> <r_epik_Charging_Adjusted_Penalty>
3.51908

> <i_epik_Tot_Q>
0

> <i_epik_Tot_abs_Q>
0

> <r_epik_Metal_State_Penalty>
3.44088

> <b_epik_Metal_Only>
1

> <s_epik_Chemistry_Notes>
This compound contains an acetal/aminal-like group ( X-CH(R)-Y where X, Y are N, S, or O) that may be acid/base labile, releasing an aldehyde.

> <s_lp_Force_Field>
OPLS_2005

> <r_lp_Energy>
23.1081

> <b_lp_Chiralities_Consistent>
1

> <s_lp_Variant>
AV-unprocessed.smi:72-90

> <Gold.Version>
5.8.1

> <Gold.Id.Protein>
6NUR|6NUR_protein|mol2

> <Gold.PLP.Fitness>
38.2138

> <Gold.PLP.PLP>
-26.8449

> <Gold.PLP.part.hbond>
-6.0627

> <Gold.PLP.part.metal>
0.0000

> <Gold.PLP.part.buried>
-8.2360

> <Gold.PLP.part.nonpolar>
-17.3211

> <Gold.PLP.part.repulsive>
4.1011

> <Gold.PLP.ligand.clash>
0.0000

> <Gold.PLP.ligand.torsion>
0.7375

> <Gold.PLP.Chemscore.Hbond>
3.3737

> <Gold.PLP.Chemscore.CHOScore>
0.8935

> <Gold.PLP.Chemscore.Metal>
0.0000

> <Gold.Chemscore.Hbonds>
donor molecule, donor type, donor heavy atom, donor atom, acceptor molecule, acceptor atom, score
      L1  H    10    27       P1 10747  0.40
      L1  H    12    28       P1 10186  1.00
      L1  H    14    29       P1 10171  1.00
      P1  H 11000 11005       L1     3  1.00
      L1  C     4    24       P1 10957  0.97

> <Gold.PLP.Chemscore.Internal.Correction>
0.0422

> <Gold.Rescore>
     Score         DG    S(hbond)    S(metal)    S(lipo)     H(rot)  DE(clash)    DE(int)     intcor
      6.09      -8.03       2.88        0.00      28.31       4.06       1.32       0.62       ----

> <Gold.Chemscore.Fitness>
6.0890

> <Gold.Chemscore.DG>
-8.0284

> <Gold.Chemscore.ZeroCoef>
-5.4800

> <Gold.Chemscore.Hbond>
2.8832

> <Gold.Chemscore.Metal>
0.0000

> <Gold.Chemscore.Lipo>
28.3073

> <Gold.Chemscore.Internal_Hbond>
0.0000

> <Gold.Chemscore.DEClash>
1.3156

> <Gold.Chemscore.DEInternal>
0.6238

> <Gold.Chemscore.Rot>
4.0600

> <Gold.Chemscore.Internal.Correction>
   9.000000E+99

> <Gold.Chemscore.Hbonds>
donor molecule, donor type, donor heavy atom, donor atom, acceptor molecule, acceptor atom, score
      L1  H    10    27       P1 10747  0.40
      L1  H    12    28       P1 10186  1.00
      L1  H    14    29       P1 10171  1.00
      P1  H 11000 11005       L1     3  0.42

> <Gold.Chemscore.Hbond.Weighted>
-9.6301

> <Gold.Chemscore.Metal.Weighted>
-0.0000

> <Gold.Chemscore.Lipo.Weighted>
-3.3120

> <Gold.Chemscore.Internal_Hbond.Weighted>
0.0000

> <Gold.Chemscore.DEClash.Weighted>
1.3156

> <Gold.Chemscore.DEInternal.Weighted>
0.6238

> <Gold.Chemscore.Rot.Weighted>
10.3936

> <Gold.Chemscore.Internal.Correction.Weighted>
   9.000000E+99

> <Gold.Protein.RotatedTorsions>
[ 6907 6896 6895 6894 ] final  -67.63 input  -60.11 | X-H torsion
[ 7974 7965 7964 7962 ] final  -51.96 input  175.53 | X-H torsion
[ 8008 7997 7996 7995 ] final   74.33 input   59.86 | X-H torsion
[ 10167 10162 10161 10158 ] final  -67.21 input  -65.29 | X-H torsion
[ 10718 10713 10712 10709 ] final   18.25 input   66.30 | X-H torsion
[ 10763 10752 10751 10750 ] final  -72.92 input  -60.55 | X-H torsion
[ 11005 11000 10999 10996 ] final   12.40 input  -57.11 | X-H torsion

> <Gold.Protein.ActiveResidues>
 VAL166  LYS551  ARG553  GLY616  TRP617  ASP618  TYR619  PRO620  LYS621  CYS622 
 ASP623  PHE694  ASN695  SER759  ASP760  ASP761  ALA762  ILE779  LEU786  VAL792 
 PHE793  MET794  SER795  GLU796  ALA797  LYS798  CYS799  TRP800  GLU811  SER814 

> <Gold.Protein.RotatedAtoms>
  150.7399  134.5854  159.5959 H   0  0  0  0  0  0  0  0  0  0  0  0  # atno 6907 bound_to 6896
  152.3256  134.7321  160.0311 H   0  0  0  0  0  0  0  0  0  0  0  0  # atno 6908 bound_to 6896
  151.7822  133.3315  159.3511 H   0  0  0  0  0  0  0  0  0  0  0  0  # atno 6909 bound_to 6896
  145.9132  140.7897  142.9685 H   0  0  0  0  0  0  0  0  0  0  0  0  # atno 7974 bound_to 7965
  155.7968  140.3477  155.5380 H   0  0  0  0  0  0  0  0  0  0  0  0  # atno 8008 bound_to 7997
  155.8579  140.0966  157.1653 H   0  0  0  0  0  0  0  0  0  0  0  0  # atno 8009 bound_to 7997
  154.4010  140.1364  156.3911 H   0  0  0  0  0  0  0  0  0  0  0  0  # atno 8010 bound_to 7997
  140.5600  143.2312  151.6747 H   0  0  0  0  0  0  0  0  0  0  0  0  # atno 10167 bound_to 10162
  157.0937  130.6438  149.5855 H   0  0  0  0  0  0  0  0  0  0  0  0  # atno 10718 bound_to 10713
  154.4524  135.5914  153.6200 H   0  0  0  0  0  0  0  0  0  0  0  0  # atno 10763 bound_to 10752
  152.9815  135.6024  154.3589 H   0  0  0  0  0  0  0  0  0  0  0  0  # atno 10764 bound_to 10752
  154.3451  135.2841  155.2381 H   0  0  0  0  0  0  0  0  0  0  0  0  # atno 10765 bound_to 10752
  140.4924  134.0827  155.7774 H   0  0  0  0  0  0  0  0  0  0  0  0  # atno 11005 bound_to 11000
  144.6745  140.1858  143.7401 LP  0  0  0  0  0  0  0  0  0  0  0  0  # atno 17320 bound_to 7965
  145.8645  139.2240  143.1697 LP  0  0  0  0  0  0  0  0  0  0  0  0  # atno 17321 bound_to 7965
  139.5065  144.3678  152.0500 LP  0  0  0  0  0  0  0  0  0  0  0  0  # atno 17342 bound_to 10162
  140.2803  144.3867  150.6121 LP  0  0  0  0  0  0  0  0  0  0  0  0  # atno 17343 bound_to 10162
  155.9891  130.4937  150.7201 LP  0  0  0  0  0  0  0  0  0  0  0  0  # atno 17370 bound_to 10713
  157.4700  131.0892  151.0653 LP  0  0  0  0  0  0  0  0  0  0  0  0  # atno 17371 bound_to 10713
  141.1477  133.9025  157.2175 LP  0  0  0  0  0  0  0  0  0  0  0  0  # atno 17394 bound_to 11000
  139.9761  135.0113  156.9634 LP  0  0  0  0  0  0  0  0  0  0  0  0  # atno 17395 bound_to 11000

$$$$
