AV-unprocessed.smi:3181|AV-procd|sdf|12142|dock9
  -GOLD-   2272017583D 1   1.00000     0.00000
 Structure written by MMmdl.
 42 43  0  0  0  0  0  0  0  0  2 V2000
  148.4226  141.2438  154.8369 C   0  0  0  0  0  0  0  0  0  0  0  0
  149.8021  140.9377  155.4435 C   0  0  1  0  0  0  0  0  0  0  0  0
  150.7373  140.2155  154.4491 C   0  0  0  0  0  0  0  0  0  0  0  0
  151.1723  138.9142  154.9228 N   0  0  0  0  0  0  0  0  0  0  0  0
  151.0879  137.7097  154.3553 C   0  0  0  0  0  0  0  0  0  0  0  0
  151.6067  136.7355  155.0892 N   0  0  0  0  0  0  0  0  0  0  0  0
  152.0296  137.4609  156.1669 C   0  0  0  0  0  0  0  0  0  0  0  0
  151.7965  138.7728  156.1153 N   0  0  0  0  0  0  0  0  0  0  0  0
  150.4278  142.1975  155.9060 N   0  3  0  0  0  0  0  0  0  0  0  0
  150.7050  142.2972  157.3575 C   0  0  1  0  0  0  0  0  0  0  0  0
  151.6856  141.2087  157.8325 C   0  0  0  0  0  0  0  0  0  0  0  0
  152.0036  141.3640  159.3263 C   0  0  0  0  0  0  0  0  0  0  0  0
  152.5654  142.7604  159.6620 C   0  0  2  0  0  0  0  0  0  0  0  0
  152.8745  142.8519  161.1672 C   0  0  0  0  0  0  0  0  0  0  0  0
  151.5950  143.8689  159.1759 C   0  0  1  0  0  0  0  0  0  0  0  0
  152.1317  145.2896  159.4277 C   0  0  0  0  0  0  0  0  0  0  0  0
  151.2727  143.6905  157.6778 C   0  0  0  0  0  0  0  0  0  0  0  0
  147.8952  140.3308  154.5595 H   0  0  0  0  0  0  0  0  0  0  0  0
  148.5093  141.8629  153.9433 H   0  0  0  0  0  0  0  0  0  0  0  0
  147.7909  141.7752  155.5496 H   0  0  0  0  0  0  0  0  0  0  0  0
  149.6365  140.2867  156.3035 H   0  0  0  0  0  0  0  0  0  0  0  0
  150.2332  140.0786  153.4914 H   0  0  0  0  0  0  0  0  0  0  0  0
  151.6257  140.8145  154.2472 H   0  0  0  0  0  0  0  0  0  0  0  0
  150.6358  137.5402  153.3890 H   0  0  0  0  0  0  0  0  0  0  0  0
  152.5242  137.0090  157.0139 H   0  0  0  0  0  0  0  0  0  0  0  0
  151.2836  142.3517  155.3921 H   0  0  0  0  0  0  0  0  0  0  0  0
  149.7595  142.1871  157.8915 H   0  0  0  0  0  0  0  0  0  0  0  0
  151.2677  140.2161  157.6633 H   0  0  0  0  0  0  0  0  0  0  0  0
  152.6094  141.2601  157.2545 H   0  0  0  0  0  0  0  0  0  0  0  0
  151.0987  141.1822  159.9081 H   0  0  0  0  0  0  0  0  0  0  0  0
  152.7175  140.5946  159.6236 H   0  0  0  0  0  0  0  0  0  0  0  0
  153.5090  142.8757  159.1261 H   0  0  0  0  0  0  0  0  0  0  0  0
  151.9624  142.8112  161.7633 H   0  0  0  0  0  0  0  0  0  0  0  0
  153.3991  143.7734  161.4181 H   0  0  0  0  0  0  0  0  0  0  0  0
  153.5146  142.0286  161.4857 H   0  0  0  0  0  0  0  0  0  0  0  0
  150.6603  143.7692  159.7301 H   0  0  0  0  0  0  0  0  0  0  0  0
  153.1073  145.4340  158.9622 H   0  0  0  0  0  0  0  0  0  0  0  0
  152.2324  145.5025  160.4915 H   0  0  0  0  0  0  0  0  0  0  0  0
  151.4559  146.0417  159.0193 H   0  0  0  0  0  0  0  0  0  0  0  0
  152.1762  143.8613  157.0901 H   0  0  0  0  0  0  0  0  0  0  0  0
  150.5571  144.4526  157.3660 H   0  0  0  0  0  0  0  0  0  0  0  0
  149.7864  142.9440  155.6795 H   0  0  0  0  0  0  0  0  0  0  0  0
  1  2  1  0  0  0  0
  1 18  1  0  0  0  0
  1 19  1  0  0  0  0
  1 20  1  0  0  0  0
  2  3  1  0  0  0  0
  2  9  1  0  0  0  0
  2 21  1  0  0  0  0
  3  4  1  0  0  0  0
  3 22  1  0  0  0  0
  3 23  1  0  0  0  0
  4  8  1  0  0  0  0
  4  5  1  0  0  0  0
  5  6  2  0  0  0  0
  5 24  1  0  0  0  0
  6  7  1  0  0  0  0
  7  8  2  0  0  0  0
  7 25  1  0  0  0  0
  9 10  1  0  0  0  0
  9 26  1  0  0  0  0
  9 42  1  0  0  0  0
 10 17  1  0  0  0  0
 10 11  1  0  0  0  0
 10 27  1  0  0  0  0
 11 12  1  0  0  0  0
 11 28  1  0  0  0  0
 11 29  1  0  0  0  0
 12 13  1  0  0  0  0
 12 30  1  0  0  0  0
 12 31  1  0  0  0  0
 13 14  1  0  0  0  0
 13 15  1  0  0  0  0
 13 32  1  0  0  0  0
 14 33  1  0  0  0  0
 14 34  1  0  0  0  0
 14 35  1  0  0  0  0
 15 16  1  0  0  0  0
 15 17  1  0  0  0  0
 15 36  1  0  0  0  0
 16 37  1  0  0  0  0
 16 38  1  0  0  0  0
 16 39  1  0  0  0  0
 17 40  1  0  0  0  0
 17 41  1  0  0  0  0
M  CHG  1   9   1
M  END
> <s_m_source_file>
AV-unprocessed.smi

> <i_m_source_file_index>
3181

> <i_lp_mmshare_version>
43012

> <i_f3d_flags>
0

> <s_epik_input>
bjFbY0hdbltjSF1uMVtDSDJdW0NAQEhdKFtDSDNdKVtOSF1bQ0BASF0yW0NIMl1bQ0gyXVtDQEBIXShbQ0gzXSlbQ0BASF0oW0NIM10pW0NIMl0y

> <s_epik_cmdline>
J2VwaWtfcHl0aG9uJywgJy1waCcsICc3LjAnLCAnLXRuJywgJzgnLCAnLW1hJywgJzIwMCcsICctbWV0YWxfYmluZGluZycsICctaW1hZScsICc8aW5maWxlLm1hZT4nLCAnLW9tYWUnLCAnPG91dGZpbGUubWFlPic=

> <r_lp_tautomer_probability>
1

> <r_epik_Ionization_Penalty>
0.000617007

> <r_epik_Ionization_Penalty_Charging>
0.000616215

> <r_epik_Ionization_Penalty_Neutral>
7.92544e-07

> <r_epik_State_Penalty>
0.000388807

> <r_epik_Charging_Adjusted_Penalty>
0.00100502

> <i_epik_Tot_Q>
1

> <i_epik_Tot_abs_Q>
1

> <r_epik_Metal_State_Penalty>
-0

> <b_epik_Metal_Only>
0

> <s_lp_Force_Field>
OPLS_2005

> <r_lp_Energy>
19.8676

> <b_lp_Chiralities_Consistent>
1

> <s_lp_Variant>
AV-unprocessed.smi:3181-8

> <Gold.Version>
5.8.1

> <Gold.Id.Protein>
6NUR|6NUR_protein|mol2

> <Gold.PLP.Fitness>
48.4299

> <Gold.PLP.PLP>
-38.8916

> <Gold.PLP.part.hbond>
-2.0000

> <Gold.PLP.part.metal>
0.0000

> <Gold.PLP.part.buried>
-0.6384

> <Gold.PLP.part.nonpolar>
-36.6107

> <Gold.PLP.part.repulsive>
0.2461

> <Gold.PLP.ligand.clash>
0.0000

> <Gold.PLP.ligand.torsion>
1.5219

> <Gold.PLP.Chemscore.Hbond>
3.0000

> <Gold.PLP.Chemscore.CHOScore>
1.1880

> <Gold.PLP.Chemscore.Metal>
0.0000

> <Gold.Chemscore.Hbonds>
donor molecule, donor type, donor heavy atom, donor atom, acceptor molecule, acceptor atom, score
      L1  H     9    42       P1  8028  2.00
      P1  H 10752 10763       L1     6  1.00
      L1  C     5    24       P1  7948  0.49
      L1  C     5    24       P1  7949  0.67

> <Gold.PLP.Chemscore.Internal.Correction>
0.0181

> <Gold.Rescore>
     Score         DG    S(hbond)    S(metal)    S(lipo)     H(rot)  DE(clash)    DE(int)     intcor
     15.38     -18.57       1.87        0.00     104.68       2.11       1.66       1.54       ----

> <Gold.Chemscore.Fitness>
15.3788

> <Gold.Chemscore.DG>
-18.5724

> <Gold.Chemscore.ZeroCoef>
-5.4800

> <Gold.Chemscore.Hbond>
1.8697

> <Gold.Chemscore.Metal>
0.0000

> <Gold.Chemscore.Lipo>
104.6827

> <Gold.Chemscore.Internal_Hbond>
0.0000

> <Gold.Chemscore.DEClash>
1.6567

> <Gold.Chemscore.DEInternal>
1.5369

> <Gold.Chemscore.Rot>
2.1095

> <Gold.Chemscore.Internal.Correction>
   9.000000E+99

> <Gold.Chemscore.Hbonds>
donor molecule, donor type, donor heavy atom, donor atom, acceptor molecule, acceptor atom, score
      L1  H     9    42       P1  8028  0.97
      P1  H 10752 10763       L1     6  0.82

> <Gold.Chemscore.Hbond.Weighted>
-6.2448

> <Gold.Chemscore.Metal.Weighted>
-0.0000

> <Gold.Chemscore.Lipo.Weighted>
-12.2479

> <Gold.Chemscore.Internal_Hbond.Weighted>
0.0000

> <Gold.Chemscore.DEClash.Weighted>
1.6567

> <Gold.Chemscore.DEInternal.Weighted>
1.5369

> <Gold.Chemscore.Rot.Weighted>
5.4003

> <Gold.Chemscore.Internal.Correction.Weighted>
   9.000000E+99

> <Gold.Protein.RotatedTorsions>
[ 6907 6896 6895 6894 ] final -119.95 input  -60.11 | X-H torsion
[ 7974 7965 7964 7962 ] final  -85.59 input  175.53 | X-H torsion
[ 8008 7997 7996 7995 ] final -101.61 input   59.86 | X-H torsion
[ 10167 10162 10161 10158 ] final  -88.72 input  -65.29 | X-H torsion
[ 10718 10713 10712 10709 ] final   98.94 input   66.30 | X-H torsion
[ 10763 10752 10751 10750 ] final   46.25 input  -60.55 | X-H torsion
[ 11005 11000 10999 10996 ] final    6.26 input  -57.11 | X-H torsion

> <Gold.Protein.ActiveResidues>
 VAL166  LYS551  ARG553  GLY616  TRP617  ASP618  TYR619  PRO620  LYS621  CYS622 
 ASP623  PHE694  ASN695  SER759  ASP760  ASP761  ALA762  ILE779  LEU786  VAL792 
 PHE793  MET794  SER795  GLU796  ALA797  LYS798  CYS799  TRP800  GLU811  SER814 

> <Gold.Protein.RotatedAtoms>
  150.8350  133.8028  159.3082 H   0  0  0  0  0  0  0  0  0  0  0  0  # atno 6907 bound_to 6896
  151.5746  135.1059  160.0012 H   0  0  0  0  0  0  0  0  0  0  0  0  # atno 6908 bound_to 6896
  152.4424  133.7431  159.6708 H   0  0  0  0  0  0  0  0  0  0  0  0  # atno 6909 bound_to 6896
  145.4912  140.9552  143.1811 H   0  0  0  0  0  0  0  0  0  0  0  0  # atno 7974 bound_to 7965
  154.8450  140.0433  157.1567 H   0  0  0  0  0  0  0  0  0  0  0  0  # atno 8008 bound_to 7997
  154.9005  140.2999  155.5300 H   0  0  0  0  0  0  0  0  0  0  0  0  # atno 8009 bound_to 7997
  156.2994  140.2377  156.4032 H   0  0  0  0  0  0  0  0  0  0  0  0  # atno 8010 bound_to 7997
  140.3719  143.2790  151.9490 H   0  0  0  0  0  0  0  0  0  0  0  0  # atno 10167 bound_to 10162
  157.6886  131.0655  150.4873 H   0  0  0  0  0  0  0  0  0  0  0  0  # atno 10718 bound_to 10713
  152.9813  135.6014  154.3568 H   0  0  0  0  0  0  0  0  0  0  0  0  # atno 10763 bound_to 10752
  154.3253  135.2769  155.2501 H   0  0  0  0  0  0  0  0  0  0  0  0  # atno 10764 bound_to 10752
  154.4649  135.5956  153.6337 H   0  0  0  0  0  0  0  0  0  0  0  0  # atno 10765 bound_to 10752
  140.5615  134.0188  155.7973 H   0  0  0  0  0  0  0  0  0  0  0  0  # atno 11005 bound_to 11000
  144.7833  139.6480  143.7145 LP  0  0  0  0  0  0  0  0  0  0  0  0  # atno 17320 bound_to 7965
  146.2283  139.5764  142.9572 LP  0  0  0  0  0  0  0  0  0  0  0  0  # atno 17321 bound_to 7965
  139.4803  144.5899  151.7789 LP  0  0  0  0  0  0  0  0  0  0  0  0  # atno 17342 bound_to 10162
  140.5025  144.1147  150.5974 LP  0  0  0  0  0  0  0  0  0  0  0  0  # atno 17343 bound_to 10162
  156.5202  130.4160  149.6255 LP  0  0  0  0  0  0  0  0  0  0  0  0  # atno 17370 bound_to 10713
  156.3161  130.7255  151.2158 LP  0  0  0  0  0  0  0  0  0  0  0  0  # atno 17371 bound_to 10713
  141.1112  133.9614  157.2907 LP  0  0  0  0  0  0  0  0  0  0  0  0  # atno 17394 bound_to 11000
  139.9405  135.0191  156.8694 LP  0  0  0  0  0  0  0  0  0  0  0  0  # atno 17395 bound_to 11000

$$$$
