AV-unprocessed.smi:236|AV-procd|sdf|1815|dock6
  -GOLD-   2262020403D 1   1.00000     0.00000
 Structure written by MMmdl.
 58 62  0  0  0  0  0  0  0  0  1 V2000
  154.9007  145.0411  165.0751 C   0  0  0  0  0  0  0  0  0  0  0  0
  154.9703  143.7854  165.9592 C   0  0  2  0  0  0  0  0  0  0  0  0
  155.4245  144.1145  167.2638 O   0  0  0  0  0  0  0  0  0  0  0  0
  155.8186  142.9028  167.8816 C   0  0  0  0  0  0  0  0  0  0  0  0
  156.6017  142.2005  166.7792 C   0  0  0  0  0  0  0  0  0  0  0  0
  155.9016  142.6375  165.4880 C   0  0  2  0  0  0  0  0  0  0  0  0
  156.8929  143.1026  164.5860 O   0  0  0  0  0  0  0  0  0  0  0  0
  155.1390  141.4695  164.8149 C   0  0  0  0  0  0  0  0  0  0  0  0
  154.4547  141.8501  163.5880 N   0  0  0  0  0  0  0  0  0  0  0  0
  153.5878  142.9073  163.4230 C   0  0  0  0  0  0  0  0  0  0  0  0
  153.1006  143.0468  162.2208 N   0  0  0  0  0  0  0  0  0  0  0  0
  153.6780  142.0094  161.4991 C   0  0  0  0  0  0  0  0  0  0  0  0
  153.5957  141.5707  160.1472 C   0  0  0  0  0  0  0  0  0  0  0  0
  152.8486  142.1581  159.1891 N   0  0  0  0  0  0  0  0  0  0  0  0
  152.6118  143.5747  159.4317 C   0  0  0  0  0  0  0  0  0  0  0  0
  151.8831  144.1955  158.2291 C   0  0  0  0  0  0  0  0  0  0  0  0
  150.6856  143.4674  157.9740 O   0  0  0  0  0  0  0  0  0  0  0  0
  150.9378  142.1029  157.6424 C   0  0  2  0  0  0  0  0  0  0  0  0
  149.5974  141.4328  157.3143 C   0  0  0  0  0  0  0  0  0  0  0  0
  149.8445  140.1319  156.8083 O   0  0  0  0  0  0  0  0  0  0  0  0
  150.6256  140.1401  155.6234 C   0  0  0  0  0  0  0  0  0  0  0  0
  151.5163  138.9135  155.5391 C   0  0  0  0  0  0  0  0  0  0  0  0
  152.7844  138.9231  154.7103 C   0  0  0  0  0  0  0  0  0  0  0  0
  151.6053  138.1027  154.2622 C   0  0  0  0  0  0  0  0  0  0  0  0
  151.6332  141.4313  158.8427 C   0  0  0  0  0  0  0  0  0  0  0  0
  154.3306  140.4924  159.7817 N   0  0  0  0  0  0  0  0  0  0  0  0
  155.1002  139.8731  160.6822 C   0  0  0  0  0  0  0  0  0  0  0  0
  155.2775  140.1660  161.9726 N   0  0  0  0  0  0  0  0  0  0  0  0
  154.5384  141.2514  162.3423 C   0  0  0  0  0  0  0  0  0  0  0  0
  154.5715  144.7943  164.0656 H   0  0  0  0  0  0  0  0  0  0  0  0
  155.8690  145.5369  165.0043 H   0  0  0  0  0  0  0  0  0  0  0  0
  154.1930  145.7612  165.4859 H   0  0  0  0  0  0  0  0  0  0  0  0
  153.9591  143.3980  166.0864 H   0  0  0  0  0  0  0  0  0  0  0  0
  156.4158  143.0804  168.7762 H   0  0  0  0  0  0  0  0  0  0  0  0
  154.9352  142.3273  168.1632 H   0  0  0  0  0  0  0  0  0  0  0  0
  157.6348  142.5514  166.8048 H   0  0  0  0  0  0  0  0  0  0  0  0
  156.6244  141.1190  166.9176 H   0  0  0  0  0  0  0  0  0  0  0  0
  157.3687  142.3576  164.2522 H   0  0  0  0  0  0  0  0  0  0  0  0
  155.8243  140.6535  164.5818 H   0  0  0  0  0  0  0  0  0  0  0  0
  154.4013  141.0573  165.5048 H   0  0  0  0  0  0  0  0  0  0  0  0
  153.3228  143.5751  164.2298 H   0  0  0  0  0  0  0  0  0  0  0  0
  152.0104  143.7002  160.3329 H   0  0  0  0  0  0  0  0  0  0  0  0
  153.5597  144.0878  159.6008 H   0  0  0  0  0  0  0  0  0  0  0  0
  151.6305  145.2352  158.4377 H   0  0  0  0  0  0  0  0  0  0  0  0
  152.5200  144.1925  157.3431 H   0  0  0  0  0  0  0  0  0  0  0  0
  151.5883  142.0482  156.7676 H   0  0  0  0  0  0  0  0  0  0  0  0
  148.9914  141.3537  158.2184 H   0  0  0  0  0  0  0  0  0  0  0  0
  149.0373  142.0314  156.5942 H   0  0  0  0  0  0  0  0  0  0  0  0
  149.9775  140.1634  154.7462 H   0  0  0  0  0  0  0  0  0  0  0  0
  151.2555  141.0302  155.5944 H   0  0  0  0  0  0  0  0  0  0  0  0
  151.5603  138.3440  156.4656 H   0  0  0  0  0  0  0  0  0  0  0  0
  153.0179  139.8200  154.1400 H   0  0  0  0  0  0  0  0  0  0  0  0
  153.6454  138.3890  155.1068 H   0  0  0  0  0  0  0  0  0  0  0  0
  151.6804  137.0216  154.3590 H   0  0  0  0  0  0  0  0  0  0  0  0
  151.0516  138.4529  153.3932 H   0  0  0  0  0  0  0  0  0  0  0  0
  151.8809  140.3964  158.6025 H   0  0  0  0  0  0  0  0  0  0  0  0
  150.9536  141.4114  159.6951 H   0  0  0  0  0  0  0  0  0  0  0  0
  155.6544  139.0214  160.3161 H   0  0  0  0  0  0  0  0  0  0  0  0
  1  2  1  0  0  0  0
  1 30  1  0  0  0  0
  1 31  1  0  0  0  0
  1 32  1  0  0  0  0
  2  6  1  0  0  0  0
  2  3  1  0  0  0  0
  2 33  1  0  0  0  0
  3  4  1  0  0  0  0
  4  5  1  0  0  0  0
  4 34  1  0  0  0  0
  4 35  1  0  0  0  0
  5  6  1  0  0  0  0
  5 36  1  0  0  0  0
  5 37  1  0  0  0  0
  6  7  1  0  0  0  0
  6  8  1  0  0  0  0
  7 38  1  0  0  0  0
  8  9  1  0  0  0  0
  8 39  1  0  0  0  0
  8 40  1  0  0  0  0
  9 29  1  0  0  0  0
  9 10  1  0  0  0  0
 10 11  2  0  0  0  0
 10 41  1  0  0  0  0
 11 12  1  0  0  0  0
 12 29  2  0  0  0  0
 12 13  1  0  0  0  0
 13 14  1  0  0  0  0
 13 26  2  0  0  0  0
 14 25  1  0  0  0  0
 14 15  1  0  0  0  0
 15 16  1  0  0  0  0
 15 42  1  0  0  0  0
 15 43  1  0  0  0  0
 16 17  1  0  0  0  0
 16 44  1  0  0  0  0
 16 45  1  0  0  0  0
 17 18  1  0  0  0  0
 18 19  1  0  0  0  0
 18 25  1  0  0  0  0
 18 46  1  0  0  0  0
 19 20  1  0  0  0  0
 19 47  1  0  0  0  0
 19 48  1  0  0  0  0
 20 21  1  0  0  0  0
 21 22  1  0  0  0  0
 21 49  1  0  0  0  0
 21 50  1  0  0  0  0
 22 24  1  0  0  0  0
 22 23  1  0  0  0  0
 22 51  1  0  0  0  0
 23 24  1  0  0  0  0
 23 52  1  0  0  0  0
 23 53  1  0  0  0  0
 24 54  1  0  0  0  0
 24 55  1  0  0  0  0
 25 56  1  0  0  0  0
 25 57  1  0  0  0  0
 26 27  1  0  0  0  0
 27 28  2  0  0  0  0
 27 58  1  0  0  0  0
 28 29  1  0  0  0  0
M  END
> <s_m_source_file>
AV-unprocessed.smi

> <i_m_source_file_index>
236

> <i_lp_mmshare_version>
43012

> <i_f3d_flags>
0

> <s_epik_input>
W0NIMl0xW0NIMl1PW0NAQEhdKFtDSDNdKVtDQEBdMShbT0hdKVtDSDJdbihbY0hdbjIpYyhjMjMpbltjSF1uYzNONFtDSDJdW0NIMl1PW0NASF0oW0NIMl00KVtDSDJdT1tDSDJdW0NIXTVbQ0gyXVtDSDJdNQ==

> <s_epik_cmdline>
J2VwaWtfcHl0aG9uJywgJy1waCcsICc3LjAnLCAnLXRuJywgJzgnLCAnLW1hJywgJzIwMCcsICctbWV0YWxfYmluZGluZycsICctaW1hZScsICc8aW5maWxlLm1hZT4nLCAnLW9tYWUnLCAnPG91dGZpbGUubWFlPic=

> <r_lp_tautomer_probability>
1

> <r_epik_Ionization_Penalty>
7.21838e-05

> <r_epik_Ionization_Penalty_Charging>
0

> <r_epik_Ionization_Penalty_Neutral>
7.21838e-05

> <r_epik_State_Penalty>
-0

> <r_epik_Charging_Adjusted_Penalty>
0

> <i_epik_Tot_Q>
0

> <i_epik_Tot_abs_Q>
0

> <r_epik_Metal_State_Penalty>
-0

> <b_epik_Metal_Only>
0

> <s_lp_Force_Field>
OPLS_2005

> <r_lp_Energy>
47.5689

> <b_lp_Chiralities_Consistent>
1

> <s_lp_Variant>
AV-unprocessed.smi:236-7

> <Gold.Version>
5.8.1

> <Gold.Id.Protein>
6NUR|6NUR_protein|mol2

> <Gold.PLP.Fitness>
56.5548

> <Gold.PLP.PLP>
-58.3510

> <Gold.PLP.part.hbond>
-0.8389

> <Gold.PLP.part.metal>
0.0000

> <Gold.PLP.part.buried>
-3.9949

> <Gold.PLP.part.nonpolar>
-52.4537

> <Gold.PLP.part.repulsive>
0.3233

> <Gold.PLP.ligand.clash>
0.0000

> <Gold.PLP.ligand.torsion>
1.3381

> <Gold.PLP.Chemscore.Hbond>
0.0000

> <Gold.PLP.Chemscore.CHOScore>
0.0000

> <Gold.PLP.Chemscore.Metal>
0.0000

> <Gold.PLP.Chemscore.Internal.Correction>
0.8799

> <Gold.Rescore>
     Score         DG    S(hbond)    S(metal)    S(lipo)     H(rot)  DE(clash)    DE(int)     intcor
      8.04     -13.36       0.00        0.00     130.07       2.87       1.88       3.44       ----

> <Gold.Chemscore.Fitness>
8.0443

> <Gold.Chemscore.DG>
-13.3630

> <Gold.Chemscore.ZeroCoef>
-5.4800

> <Gold.Chemscore.Hbond>
0.0000

> <Gold.Chemscore.Metal>
0.0000

> <Gold.Chemscore.Lipo>
130.0737

> <Gold.Chemscore.Internal_Hbond>
0.0000

> <Gold.Chemscore.DEClash>
1.8810

> <Gold.Chemscore.DEInternal>
3.4376

> <Gold.Chemscore.Rot>
2.8655

> <Gold.Chemscore.Internal.Correction>
   9.000000E+99

> <Gold.Chemscore.Hbond.Weighted>
-0.0001

> <Gold.Chemscore.Metal.Weighted>
-0.0000

> <Gold.Chemscore.Lipo.Weighted>
-15.2186

> <Gold.Chemscore.Internal_Hbond.Weighted>
0.0000

> <Gold.Chemscore.DEClash.Weighted>
1.8810

> <Gold.Chemscore.DEInternal.Weighted>
3.4376

> <Gold.Chemscore.Rot.Weighted>
7.3358

> <Gold.Chemscore.Internal.Correction.Weighted>
   9.000000E+99

> <Gold.Protein.RotatedTorsions>
[ 6907 6896 6895 6894 ] final  -39.96 input  -60.11 | X-H torsion
[ 7974 7965 7964 7962 ] final  151.80 input  175.53 | X-H torsion
[ 8008 7997 7996 7995 ] final -130.27 input   59.86 | X-H torsion
[ 10167 10162 10161 10158 ] final -154.10 input  -65.29 | X-H torsion
[ 10718 10713 10712 10709 ] final  -46.36 input   66.30 | X-H torsion
[ 10763 10752 10751 10750 ] final  148.40 input  -60.55 | X-H torsion
[ 11005 11000 10999 10996 ] final  -56.58 input  -57.11 | X-H torsion

> <Gold.Protein.ActiveResidues>
 VAL166  LYS551  ARG553  GLY616  TRP617  ASP618  TYR619  PRO620  LYS621  CYS622 
 ASP623  PHE694  ASN695  SER759  ASP760  ASP761  ALA762  ILE779  LEU786  VAL792 
 PHE793  MET794  SER795  GLU796  ALA797  LYS798  CYS799  TRP800  GLU811  SER814 

> <Gold.Protein.RotatedAtoms>
  150.9841  134.9190  159.7861 H   0  0  0  0  0  0  0  0  0  0  0  0  # atno 6907 bound_to 6896
  152.5231  134.3370  159.9213 H   0  0  0  0  0  0  0  0  0  0  0  0  # atno 6908 bound_to 6896
  151.3377  133.3934  159.2703 H   0  0  0  0  0  0  0  0  0  0  0  0  # atno 6909 bound_to 6896
  144.8267  139.6585  143.6077 H   0  0  0  0  0  0  0  0  0  0  0  0  # atno 7974 bound_to 7965
  155.2929  140.0449  157.3024 H   0  0  0  0  0  0  0  0  0  0  0  0  # atno 8008 bound_to 7997
  154.5530  140.2323  155.8421 H   0  0  0  0  0  0  0  0  0  0  0  0  # atno 8009 bound_to 7997
  156.1983  140.3032  155.9481 H   0  0  0  0  0  0  0  0  0  0  0  0  # atno 8010 bound_to 7997
  139.7041  143.9214  152.2441 H   0  0  0  0  0  0  0  0  0  0  0  0  # atno 10167 bound_to 10162
  156.2190  130.4165  149.9016 H   0  0  0  0  0  0  0  0  0  0  0  0  # atno 10718 bound_to 10713
  154.0542  135.2879  155.3335 H   0  0  0  0  0  0  0  0  0  0  0  0  # atno 10763 bound_to 10752
  154.6850  135.5249  153.8317 H   0  0  0  0  0  0  0  0  0  0  0  0  # atno 10764 bound_to 10752
  153.0548  135.6591  154.0736 H   0  0  0  0  0  0  0  0  0  0  0  0  # atno 10765 bound_to 10752
  141.1126  133.6610  156.4641 H   0  0  0  0  0  0  0  0  0  0  0  0  # atno 11005 bound_to 11000
  146.2572  139.6328  142.9387 LP  0  0  0  0  0  0  0  0  0  0  0  0  # atno 17320 bound_to 7965
  145.4985  141.0438  143.2554 LP  0  0  0  0  0  0  0  0  0  0  0  0  # atno 17321 bound_to 7965
  139.9065  144.6881  150.8608 LP  0  0  0  0  0  0  0  0  0  0  0  0  # atno 17342 bound_to 10162
  140.7717  143.3475  151.2082 LP  0  0  0  0  0  0  0  0  0  0  0  0  # atno 17343 bound_to 10162
  156.6669  130.8804  151.3556 LP  0  0  0  0  0  0  0  0  0  0  0  0  # atno 17370 bound_to 10713
  157.7078  130.9405  150.0988 LP  0  0  0  0  0  0  0  0  0  0  0  0  # atno 17371 bound_to 10713
  140.4733  134.6733  157.5139 LP  0  0  0  0  0  0  0  0  0  0  0  0  # atno 17394 bound_to 11000
  140.0029  134.6808  155.9501 LP  0  0  0  0  0  0  0  0  0  0  0  0  # atno 17395 bound_to 11000

$$$$
