AV-unprocessed.smi:2995|AV-procd|sdf|11408|dock4
  -GOLD-   2272016333D 1   1.00000     0.00000
 Structure written by MMmdl.
 50 52  0  0  0  0  0  0  0  0  3 V2000
  147.5010  133.0586  152.0957 C   0  0  0  0  0  0  0  0  0  0  0  0
  146.0798  133.3109  151.6226 C   0  0  0  0  0  0  0  0  0  0  0  0
  145.2727  132.2192  151.2322 C   0  0  0  0  0  0  0  0  0  0  0  0
  143.9535  132.4534  150.7984 C   0  0  0  0  0  0  0  0  0  0  0  0
  143.4741  133.7139  150.7636 N   0  3  0  0  0  0  0  0  0  0  0  0
  144.2076  134.7881  151.1251 C   0  0  0  0  0  0  0  0  0  0  0  0
  145.5473  134.6246  151.5607 C   0  0  0  0  0  0  0  0  0  0  0  0
  146.3638  135.7155  151.9757 N   0  0  0  0  0  0  0  0  0  0  0  0
  145.9895  136.8658  152.5622 C   0  0  0  0  0  0  0  0  0  0  0  0
  144.8281  137.1907  152.8072 O   0  0  0  0  0  0  0  0  0  0  0  0
  147.0511  137.6390  152.8344 N   0  0  0  0  0  0  0  0  0  0  0  0
  147.0050  138.9601  153.4573 C   0  0  2  0  0  0  0  0  0  0  0  0
  145.9516  138.9836  154.5734 C   0  0  0  0  0  0  0  0  0  0  0  0
  145.8170  140.3899  155.1822 C   0  0  0  0  0  0  0  0  0  0  0  0
  145.4913  141.4107  154.1464 N   0  3  1  0  0  0  0  0  0  0  0  0
  145.2535  142.7678  154.7201 C   0  0  0  0  0  0  0  0  0  0  0  0
  144.1151  142.8165  155.7512 C   0  0  0  0  0  0  0  0  0  0  0  0
  143.6692  144.2823  155.8066 C   0  0  0  0  0  0  0  0  0  0  0  0
  144.1537  144.9290  154.5023 C   0  0  0  0  0  0  0  0  0  0  0  0
  144.7954  143.8050  153.6846 C   0  0  0  0  0  0  0  0  0  0  0  0
  146.5110  141.4136  153.0600 C   0  0  0  0  0  0  0  0  0  0  0  0
  146.6553  140.0268  152.4108 C   0  0  0  0  0  0  0  0  0  0  0  0
  147.7471  131.9967  152.0680 H   0  0  0  0  0  0  0  0  0  0  0  0
  147.6283  133.4063  153.1212 H   0  0  0  0  0  0  0  0  0  0  0  0
  148.2138  133.5851  151.4604 H   0  0  0  0  0  0  0  0  0  0  0  0
  145.6564  131.2100  151.2659 H   0  0  0  0  0  0  0  0  0  0  0  0
  143.2709  131.6763  150.4868 H   0  0  0  0  0  0  0  0  0  0  0  0
  143.6840  135.7299  151.0630 H   0  0  0  0  0  0  0  0  0  0  0  0
  147.3453  135.6284  151.7558 H   0  0  0  0  0  0  0  0  0  0  0  0
  147.9653  137.2871  152.5898 H   0  0  0  0  0  0  0  0  0  0  0  0
  147.9743  139.2134  153.8910 H   0  0  0  0  0  0  0  0  0  0  0  0
  144.9847  138.6658  154.1798 H   0  0  0  0  0  0  0  0  0  0  0  0
  146.2180  138.2692  155.3535 H   0  0  0  0  0  0  0  0  0  0  0  0
  145.0380  140.3533  155.9429 H   0  0  0  0  0  0  0  0  0  0  0  0
  146.7415  140.6692  155.6900 H   0  0  0  0  0  0  0  0  0  0  0  0
  146.1716  143.1223  155.1928 H   0  0  0  0  0  0  0  0  0  0  0  0
  143.2800  142.2004  155.4142 H   0  0  0  0  0  0  0  0  0  0  0  0
  144.4191  142.4532  156.7333 H   0  0  0  0  0  0  0  0  0  0  0  0
  142.5874  144.3598  155.9195 H   0  0  0  0  0  0  0  0  0  0  0  0
  144.1220  144.7868  156.6611 H   0  0  0  0  0  0  0  0  0  0  0  0
  143.3428  145.4115  153.9555 H   0  0  0  0  0  0  0  0  0  0  0  0
  144.8968  145.6951  154.7277 H   0  0  0  0  0  0  0  0  0  0  0  0
  145.6110  144.1781  153.0646 H   0  0  0  0  0  0  0  0  0  0  0  0
  144.0470  143.3664  153.0227 H   0  0  0  0  0  0  0  0  0  0  0  0
  146.2387  142.1232  152.2797 H   0  0  0  0  0  0  0  0  0  0  0  0
  147.4708  141.7411  153.4630 H   0  0  0  0  0  0  0  0  0  0  0  0
  147.4265  140.0609  151.6399 H   0  0  0  0  0  0  0  0  0  0  0  0
  145.7243  139.7644  151.9059 H   0  0  0  0  0  0  0  0  0  0  0  0
  144.6202  141.1233  153.7237 H   0  0  0  0  0  0  0  0  0  0  0  0
  142.5135  133.8626  150.4537 H   0  0  0  0  0  0  0  0  0  0  0  0
  1  2  1  0  0  0  0
  1 23  1  0  0  0  0
  1 24  1  0  0  0  0
  1 25  1  0  0  0  0
  2  7  1  0  0  0  0
  2  3  2  0  0  0  0
  3  4  1  0  0  0  0
  3 26  1  0  0  0  0
  4  5  2  0  0  0  0
  4 27  1  0  0  0  0
  5  6  1  0  0  0  0
  5 50  1  0  0  0  0
  6  7  2  0  0  0  0
  6 28  1  0  0  0  0
  7  8  1  0  0  0  0
  8  9  1  0  0  0  0
  8 29  1  0  0  0  0
  9 10  2  0  0  0  0
  9 11  1  0  0  0  0
 11 12  1  0  0  0  0
 11 30  1  0  0  0  0
 12 22  1  0  0  0  0
 12 13  1  0  0  0  0
 12 31  1  0  0  0  0
 13 14  1  0  0  0  0
 13 32  1  0  0  0  0
 13 33  1  0  0  0  0
 14 15  1  0  0  0  0
 14 34  1  0  0  0  0
 14 35  1  0  0  0  0
 15 16  1  0  0  0  0
 15 21  1  0  0  0  0
 15 49  1  0  0  0  0
 16 20  1  0  0  0  0
 16 17  1  0  0  0  0
 16 36  1  0  0  0  0
 17 18  1  0  0  0  0
 17 37  1  0  0  0  0
 17 38  1  0  0  0  0
 18 19  1  0  0  0  0
 18 39  1  0  0  0  0
 18 40  1  0  0  0  0
 19 20  1  0  0  0  0
 19 41  1  0  0  0  0
 19 42  1  0  0  0  0
 20 43  1  0  0  0  0
 20 44  1  0  0  0  0
 21 22  1  0  0  0  0
 21 45  1  0  0  0  0
 21 46  1  0  0  0  0
 22 47  1  0  0  0  0
 22 48  1  0  0  0  0
M  CHG  1   5   1
M  CHG  1  15   1
M  END
> <s_m_source_file>
AV-unprocessed.smi

> <i_m_source_file_index>
2995

> <i_lp_mmshare_version>
43012

> <i_f3d_flags>
0

> <s_epik_input>
W0NIM11jMVtjSF1bY0hdbltjSF1jMVtOSF1DKD1PKVtOSF1bQ0hdMltDSDJdW0NIMl1OKFtDSDJdW0NIMl0yKVtDSF0zW0NIMl1bQ0gyXVtDSDJdW0NIMl0z

> <s_epik_cmdline>
J2VwaWtfcHl0aG9uJywgJy1waCcsICc3LjAnLCAnLXRuJywgJzgnLCAnLW1hJywgJzIwMCcsICctbWV0YWxfYmluZGluZycsICctaW1hZScsICc8aW5maWxlLm1hZT4nLCAnLW9tYWUnLCAnPG91dGZpbGUubWFlPic=

> <r_epik_Ionization_Penalty>
2.08537

> <r_epik_Ionization_Penalty_Charging>
2.08535

> <r_epik_Ionization_Penalty_Neutral>
2.13957e-05

> <r_epik_State_Penalty>
2.21824

> <r_epik_Charging_Adjusted_Penalty>
4.30358

> <i_epik_Tot_Q>
2

> <i_epik_Tot_abs_Q>
2

> <r_epik_Metal_State_Penalty>
2.23856

> <b_epik_Metal_Only>
0

> <s_lp_Force_Field>
OPLS_2005

> <r_lp_Energy>
48.7268

> <b_lp_Chiralities_Consistent>
1

> <s_lp_Variant>
AV-unprocessed.smi:2995-3

> <Gold.Version>
5.8.1

> <Gold.Id.Protein>
6NUR|6NUR_protein|mol2

> <Gold.PLP.Fitness>
51.9549

> <Gold.PLP.PLP>
-35.2397

> <Gold.PLP.part.hbond>
-4.0000

> <Gold.PLP.part.metal>
0.0000

> <Gold.PLP.part.buried>
-5.6501

> <Gold.PLP.part.nonpolar>
-27.1803

> <Gold.PLP.part.repulsive>
0.3353

> <Gold.PLP.ligand.clash>
0.0000

> <Gold.PLP.ligand.torsion>
0.5154

> <Gold.PLP.Chemscore.Hbond>
5.9040

> <Gold.PLP.Chemscore.CHOScore>
0.0000

> <Gold.PLP.Chemscore.Metal>
0.0000

> <Gold.Chemscore.Hbonds>
donor molecule, donor type, donor heavy atom, donor atom, acceptor molecule, acceptor atom, score
      L1  H     5    50       P1 10186  2.00
      L1  H     8    29       P1  7948  1.00
      L1  H    11    30       P1  7948  1.00
      L1  H    15    49       P1 10175  2.00

> <Gold.PLP.Chemscore.Internal.Correction>
0.0340

> <Gold.Rescore>
     Score         DG    S(hbond)    S(metal)    S(lipo)     H(rot)  DE(clash)    DE(int)     intcor
     21.64     -24.67       3.82        0.00      81.06       1.19       0.08       2.96       ----

> <Gold.Chemscore.Fitness>
21.6352

> <Gold.Chemscore.DG>
-24.6714

> <Gold.Chemscore.ZeroCoef>
-5.4800

> <Gold.Chemscore.Hbond>
3.8154

> <Gold.Chemscore.Metal>
0.0000

> <Gold.Chemscore.Lipo>
81.0627

> <Gold.Chemscore.Internal_Hbond>
0.0000

> <Gold.Chemscore.DEClash>
0.0789

> <Gold.Chemscore.DEInternal>
2.9573

> <Gold.Chemscore.Rot>
1.1861

> <Gold.Chemscore.Internal.Correction>
   9.000000E+99

> <Gold.Chemscore.Hbonds>
donor molecule, donor type, donor heavy atom, donor atom, acceptor molecule, acceptor atom, score
      L1  H     5    50       P1 10186  0.94
      L1  H     8    29       P1  7948  0.96
      L1  H    11    30       P1  7948  0.96
      L1  H    15    49       P1 10175  0.59

> <Gold.Chemscore.Hbond.Weighted>
-12.7435

> <Gold.Chemscore.Metal.Weighted>
-0.0000

> <Gold.Chemscore.Lipo.Weighted>
-9.4843

> <Gold.Chemscore.Internal_Hbond.Weighted>
0.0000

> <Gold.Chemscore.DEClash.Weighted>
0.0789

> <Gold.Chemscore.DEInternal.Weighted>
2.9573

> <Gold.Chemscore.Rot.Weighted>
3.0364

> <Gold.Chemscore.Internal.Correction.Weighted>
   9.000000E+99

> <Gold.Protein.RotatedTorsions>
[ 6907 6896 6895 6894 ] final   47.51 input  -60.11 | X-H torsion
[ 7974 7965 7964 7962 ] final   19.69 input  175.53 | X-H torsion
[ 8008 7997 7996 7995 ] final   98.89 input   59.86 | X-H torsion
[ 10167 10162 10161 10158 ] final   97.84 input  -65.29 | X-H torsion
[ 10718 10713 10712 10709 ] final -161.89 input   66.30 | X-H torsion
[ 10763 10752 10751 10750 ] final  150.72 input  -60.55 | X-H torsion
[ 11005 11000 10999 10996 ] final   86.20 input  -57.11 | X-H torsion

> <Gold.Protein.ActiveResidues>
 VAL166  LYS551  ARG553  GLY616  TRP617  ASP618  TYR619  PRO620  LYS621  CYS622 
 ASP623  PHE694  ASN695  SER759  ASP760  ASP761  ALA762  ILE779  LEU786  VAL792 
 PHE793  MET794  SER795  GLU796  ALA797  LYS798  CYS799  TRP800  GLU811  SER814 

> <Gold.Protein.RotatedAtoms>
  152.2689  134.7955  160.0417 H   0  0  0  0  0  0  0  0  0  0  0  0  # atno 6907 bound_to 6896
  151.8574  133.3446  159.3701 H   0  0  0  0  0  0  0  0  0  0  0  0  # atno 6908 bound_to 6896
  150.7144  134.5167  159.5678 H   0  0  0  0  0  0  0  0  0  0  0  0  # atno 6909 bound_to 6896
  146.2140  139.8277  142.8666 H   0  0  0  0  0  0  0  0  0  0  0  0  # atno 7974 bound_to 7965
  156.1050  140.3237  155.7994 H   0  0  0  0  0  0  0  0  0  0  0  0  # atno 8008 bound_to 7997
  155.4771  140.0551  157.2989 H   0  0  0  0  0  0  0  0  0  0  0  0  # atno 8009 bound_to 7997
  154.4722  140.2016  155.9982 H   0  0  0  0  0  0  0  0  0  0  0  0  # atno 8010 bound_to 7997
  139.7764  144.6904  151.0083 H   0  0  0  0  0  0  0  0  0  0  0  0  # atno 10167 bound_to 10162
  156.6027  130.8817  151.2917 H   0  0  0  0  0  0  0  0  0  0  0  0  # atno 10718 bound_to 10713
  154.0921  135.2851  155.3269 H   0  0  0  0  0  0  0  0  0  0  0  0  # atno 10763 bound_to 10752
  154.6613  135.5333  153.8024 H   0  0  0  0  0  0  0  0  0  0  0  0  # atno 10764 bound_to 10752
  153.0409  135.6534  154.1090 H   0  0  0  0  0  0  0  0  0  0  0  0  # atno 10765 bound_to 10752
  139.8951  134.8339  156.2688 H   0  0  0  0  0  0  0  0  0  0  0  0  # atno 11005 bound_to 11000
  145.3030  141.0199  143.3598 LP  0  0  0  0  0  0  0  0  0  0  0  0  # atno 17320 bound_to 7965
  144.8992  139.4672  143.6641 LP  0  0  0  0  0  0  0  0  0  0  0  0  # atno 17321 bound_to 7965
  140.7816  143.4531  151.0384 LP  0  0  0  0  0  0  0  0  0  0  0  0  # atno 17342 bound_to 10162
  139.8213  143.7816  152.3177 LP  0  0  0  0  0  0  0  0  0  0  0  0  # atno 17343 bound_to 10162
  157.7275  130.9644  150.1702 LP  0  0  0  0  0  0  0  0  0  0  0  0  # atno 17370 bound_to 10713
  156.2456  130.3695  149.8289 LP  0  0  0  0  0  0  0  0  0  0  0  0  # atno 17371 bound_to 10713
  141.0114  133.7093  156.1118 LP  0  0  0  0  0  0  0  0  0  0  0  0  # atno 17394 bound_to 11000
  140.7361  134.4201  157.5560 LP  0  0  0  0  0  0  0  0  0  0  0  0  # atno 17395 bound_to 11000

$$$$
