AV-unprocessed.smi:1726|AV-procd|sdf|6962|dock8
  -GOLD-   22720 8173D 1   1.00000     0.00000
 Structure written by MMmdl.
 42 43  0  0  0  0  0  0  0  0  3 V2000
  144.1696  134.3508  151.2295 C   0  0  0  0  0  0  0  0  0  0  0  0
  145.4527  135.1699  151.0266 C   0  0  0  0  0  0  0  0  0  0  0  0
  146.4592  134.9100  152.0856 N   0  3  2  0  0  0  0  0  0  0  0  0
  146.8330  133.4746  152.1772 C   0  0  0  0  0  0  0  0  0  0  0  0
  147.9898  133.2633  153.1699 C   0  0  0  0  0  0  0  0  0  0  0  0
  147.6630  133.8567  154.5511 C   0  0  0  0  0  0  0  0  0  0  0  0
  147.2236  135.3271  154.4303 C   0  0  1  0  0  0  0  0  0  0  0  0
  148.3652  136.1584  154.0464 N   0  0  0  0  0  0  0  0  0  0  0  0
  148.8393  137.1990  154.7468 C   0  0  0  0  0  0  0  0  0  0  0  0
  148.3525  137.5648  155.8159 O   0  0  0  0  0  0  0  0  0  0  0  0
  149.8908  137.7569  154.1204 N   0  0  0  0  0  0  0  0  0  0  0  0
  150.6490  138.8876  154.4709 C   0  0  0  0  0  0  0  0  0  0  0  0
  150.1361  140.0607  154.9371 C   0  0  0  0  0  0  0  0  0  0  0  0
  150.9804  141.2017  155.2698 C   0  0  0  0  0  0  0  0  0  0  0  0
  150.4624  142.5248  155.8040 C   0  0  0  0  0  0  0  0  0  0  0  0
  150.8397  143.5231  155.0060 F   0  0  0  0  0  0  0  0  0  0  0  0
  149.1306  142.5138  155.8487 F   0  0  0  0  0  0  0  0  0  0  0  0
  150.9226  142.7695  157.0311 F   0  0  0  0  0  0  0  0  0  0  0  0
  152.3189  140.9488  155.0469 C   0  0  0  0  0  0  0  0  0  0  0  0
  152.9057  139.8252  154.5800 N   0  5  0  0  0  0  0  0  0  0  0  0
  152.1087  138.7625  154.2761 C   0  0  0  0  0  0  0  0  0  0  0  0
  152.5775  137.7088  153.8438 O   0  0  0  0  0  0  0  0  0  0  0  0
  146.0640  135.4435  153.4160 C   0  0  0  0  0  0  0  0  0  0  0  0
  143.4221  134.6182  150.4822 H   0  0  0  0  0  0  0  0  0  0  0  0
  143.7345  134.5379  152.2118 H   0  0  0  0  0  0  0  0  0  0  0  0
  144.3457  133.2794  151.1398 H   0  0  0  0  0  0  0  0  0  0  0  0
  145.8835  134.9785  150.0428 H   0  0  0  0  0  0  0  0  0  0  0  0
  145.1767  136.2250  151.0423 H   0  0  0  0  0  0  0  0  0  0  0  0
  145.9632  132.8900  152.4816 H   0  0  0  0  0  0  0  0  0  0  0  0
  147.1346  133.1063  151.1957 H   0  0  0  0  0  0  0  0  0  0  0  0
  148.2067  132.1990  153.2660 H   0  0  0  0  0  0  0  0  0  0  0  0
  148.8961  133.7246  152.7755 H   0  0  0  0  0  0  0  0  0  0  0  0
  146.8608  133.2773  155.0100 H   0  0  0  0  0  0  0  0  0  0  0  0
  148.5235  133.7668  155.2153 H   0  0  0  0  0  0  0  0  0  0  0  0
  146.8760  135.6629  155.4089 H   0  0  0  0  0  0  0  0  0  0  0  0
  148.8360  135.9162  153.1866 H   0  0  0  0  0  0  0  0  0  0  0  0
  150.2070  137.2974  153.2789 H   0  0  0  0  0  0  0  0  0  0  0  0
  149.0749  140.1904  155.0629 H   0  0  0  0  0  0  0  0  0  0  0  0
  153.0226  141.7764  155.2802 H   0  0  0  0  0  0  0  0  0  0  0  0
  145.7505  136.4831  153.3325 H   0  0  0  0  0  0  0  0  0  0  0  0
  145.1939  134.8952  153.7813 H   0  0  0  0  0  0  0  0  0  0  0  0
  147.2961  135.4030  151.8083 H   0  0  0  0  0  0  0  0  0  0  0  0
  1  2  1  0  0  0  0
  1 24  1  0  0  0  0
  1 25  1  0  0  0  0
  1 26  1  0  0  0  0
  2  3  1  0  0  0  0
  2 27  1  0  0  0  0
  2 28  1  0  0  0  0
  3 23  1  0  0  0  0
  3  4  1  0  0  0  0
  3 42  1  0  0  0  0
  4  5  1  0  0  0  0
  4 29  1  0  0  0  0
  4 30  1  0  0  0  0
  5  6  1  0  0  0  0
  5 31  1  0  0  0  0
  5 32  1  0  0  0  0
  6  7  1  0  0  0  0
  6 33  1  0  0  0  0
  6 34  1  0  0  0  0
  7  8  1  0  0  0  0
  7 23  1  0  0  0  0
  7 35  1  0  0  0  0
  8  9  1  0  0  0  0
  8 36  1  0  0  0  0
  9 10  2  0  0  0  0
  9 11  1  0  0  0  0
 11 12  1  0  0  0  0
 11 37  1  0  0  0  0
 12 21  1  0  0  0  0
 12 13  2  0  0  0  0
 13 14  1  0  0  0  0
 13 38  1  0  0  0  0
 14 15  1  0  0  0  0
 14 19  2  0  0  0  0
 15 16  1  0  0  0  0
 15 17  1  0  0  0  0
 15 18  1  0  0  0  0
 19 20  1  0  0  0  0
 19 39  1  0  0  0  0
 20 21  1  0  0  0  0
 21 22  2  0  0  0  0
 23 40  1  0  0  0  0
 23 41  1  0  0  0  0
M  CHG  1   3   1
M  CHG  1  20  -1
M  END
> <s_m_source_file>
AV-unprocessed.smi

> <i_m_source_file_index>
1726

> <i_lp_mmshare_version>
43012

> <i_f3d_flags>
0

> <s_epik_input>
W0NIM11bQ0gyXU4xW0NIMl1bQ0gyXVtDSDJdW0NASF0oW0NIMl0xKVtOSF1DKD1PKVtOSF1jMltjSF1jKEMoRikoRilGKVtjSF1bbkhdYzI9Tw==

> <s_epik_cmdline>
J2VwaWtfcHl0aG9uJywgJy1waCcsICc3LjAnLCAnLXRuJywgJzgnLCAnLW1hJywgJzIwMCcsICctbWV0YWxfYmluZGluZycsICctaW1hZScsICc8aW5maWxlLm1hZT4nLCAnLW9tYWUnLCAnPG91dGZpbGUubWFlPic=

> <r_lp_tautomer_probability>
1

> <r_epik_Ionization_Penalty>
3.01007

> <r_epik_Ionization_Penalty_Charging>
0.14897

> <r_epik_Ionization_Penalty_Neutral>
2.8611

> <r_epik_State_Penalty>
2.85632

> <r_epik_Charging_Adjusted_Penalty>
3.00529

> <i_epik_Tot_Q>
0

> <i_epik_Tot_abs_Q>
2

> <r_epik_Metal_State_Penalty>
0.443826

> <b_epik_Metal_Only>
1

> <s_lp_Force_Field>
OPLS_2005

> <r_lp_Energy>
34.8935

> <b_lp_Chiralities_Consistent>
1

> <s_lp_Variant>
AV-unprocessed.smi:1726-6

> <Gold.Version>
5.8.1

> <Gold.Id.Protein>
6NUR|6NUR_protein|mol2

> <Gold.PLP.Fitness>
46.9256

> <Gold.PLP.PLP>
-31.4897

> <Gold.PLP.part.hbond>
-4.9338

> <Gold.PLP.part.metal>
0.0000

> <Gold.PLP.part.buried>
-1.4362

> <Gold.PLP.part.nonpolar>
-27.3329

> <Gold.PLP.part.repulsive>
0.2006

> <Gold.PLP.ligand.clash>
0.0000

> <Gold.PLP.ligand.torsion>
0.3974

> <Gold.PLP.Chemscore.Hbond>
5.4019

> <Gold.PLP.Chemscore.CHOScore>
0.0000

> <Gold.PLP.Chemscore.Metal>
0.0000

> <Gold.Chemscore.Hbonds>
donor molecule, donor type, donor heavy atom, donor atom, acceptor molecule, acceptor atom, score
      L1  H     3    42       P1  7948  2.00
      L1  H     8    36       P1  7948  0.50
      L1  H    11    37       P1  7948  0.35
      P1  H  7997  8008       L1    20  0.75
      P1  H 10752 10763       L1    22  0.63

> <Gold.PLP.Chemscore.Internal.Correction>
0.0249

> <Gold.Rescore>
     Score         DG    S(hbond)    S(metal)    S(lipo)     H(rot)  DE(clash)    DE(int)     intcor
     17.57     -18.69       2.88        0.00      58.74       1.28       0.75       0.36       ----

> <Gold.Chemscore.Fitness>
17.5742

> <Gold.Chemscore.DG>
-18.6889

> <Gold.Chemscore.ZeroCoef>
-5.4800

> <Gold.Chemscore.Hbond>
2.8780

> <Gold.Chemscore.Metal>
0.0000

> <Gold.Chemscore.Lipo>
58.7377

> <Gold.Chemscore.Internal_Hbond>
0.0000

> <Gold.Chemscore.DEClash>
0.7527

> <Gold.Chemscore.DEInternal>
0.3620

> <Gold.Chemscore.Rot>
1.2796

> <Gold.Chemscore.Internal.Correction>
   9.000000E+99

> <Gold.Chemscore.Hbonds>
donor molecule, donor type, donor heavy atom, donor atom, acceptor molecule, acceptor atom, score
      L1  H     3    42       P1  7948  0.99
      L1  H     8    36       P1  7948  0.48
      L1  H    11    37       P1  7948  0.05
      P1  H  7997  8008       L1    20  0.01
      P1  H 10752 10763       L1    22  0.59

> <Gold.Chemscore.Hbond.Weighted>
-9.6125

> <Gold.Chemscore.Metal.Weighted>
-0.0000

> <Gold.Chemscore.Lipo.Weighted>
-6.8723

> <Gold.Chemscore.Internal_Hbond.Weighted>
0.0000

> <Gold.Chemscore.DEClash.Weighted>
0.7527

> <Gold.Chemscore.DEInternal.Weighted>
0.3620

> <Gold.Chemscore.Rot.Weighted>
3.2759

> <Gold.Chemscore.Internal.Correction.Weighted>
   9.000000E+99

> <Gold.Protein.RotatedTorsions>
[ 6907 6896 6895 6894 ] final   88.67 input  -60.11 | X-H torsion
[ 7974 7965 7964 7962 ] final   27.18 input  175.53 | X-H torsion
[ 8008 7997 7996 7995 ] final  -15.19 input   59.86 | X-H torsion
[ 10167 10162 10161 10158 ] final  146.45 input  -65.29 | X-H torsion
[ 10718 10713 10712 10709 ] final   70.04 input   66.30 | X-H torsion
[ 10763 10752 10751 10750 ] final   26.95 input  -60.55 | X-H torsion
[ 11005 11000 10999 10996 ] final -170.25 input  -57.11 | X-H torsion

> <Gold.Protein.ActiveResidues>
 VAL166  LYS551  ARG553  GLY616  TRP617  ASP618  TYR619  PRO620  LYS621  CYS622 
 ASP623  PHE694  ASN695  SER759  ASP760  ASP761  ALA762  ILE779  LEU786  VAL792 
 PHE793  MET794  SER795  GLU796  ALA797  LYS798  CYS799  TRP800  GLU811  SER814 

> <Gold.Protein.RotatedAtoms>
  152.5428  134.2086  159.8740 H   0  0  0  0  0  0  0  0  0  0  0  0  # atno 6907 bound_to 6896
  151.2070  133.4571  159.2605 H   0  0  0  0  0  0  0  0  0  0  0  0  # atno 6908 bound_to 6896
  151.0934  134.9942  159.8469 H   0  0  0  0  0  0  0  0  0  0  0  0  # atno 6909 bound_to 6896
  146.1798  139.7227  142.8908 H   0  0  0  0  0  0  0  0  0  0  0  0  # atno 7974 bound_to 7965
  154.5150  140.2203  155.9084 H   0  0  0  0  0  0  0  0  0  0  0  0  # atno 8008 bound_to 7997
  156.1596  140.3145  155.8751 H   0  0  0  0  0  0  0  0  0  0  0  0  # atno 8009 bound_to 7997
  155.3777  140.0470  157.3035 H   0  0  0  0  0  0  0  0  0  0  0  0  # atno 8010 bound_to 7997
  139.4907  144.5828  151.6837 H   0  0  0  0  0  0  0  0  0  0  0  0  # atno 10167 bound_to 10162
  157.6379  130.9457  150.0597 H   0  0  0  0  0  0  0  0  0  0  0  0  # atno 10718 bound_to 10713
  153.0588  135.6548  154.0512 H   0  0  0  0  0  0  0  0  0  0  0  0  # atno 10763 bound_to 10752
  154.0185  135.2922  155.3385 H   0  0  0  0  0  0  0  0  0  0  0  0  # atno 10764 bound_to 10752
  154.6916  135.5280  153.8468 H   0  0  0  0  0  0  0  0  0  0  0  0  # atno 10765 bound_to 10752
  140.5216  134.5703  157.5049 H   0  0  0  0  0  0  0  0  0  0  0  0  # atno 11005 bound_to 11000
  145.4108  141.0396  143.3018 LP  0  0  0  0  0  0  0  0  0  0  0  0  # atno 17320 bound_to 7965
  144.8296  139.5651  143.6950 LP  0  0  0  0  0  0  0  0  0  0  0  0  # atno 17321 bound_to 7965
  140.5438  144.0536  150.6099 LP  0  0  0  0  0  0  0  0  0  0  0  0  # atno 17342 bound_to 10162
  140.3567  143.2931  152.0428 LP  0  0  0  0  0  0  0  0  0  0  0  0  # atno 17343 bound_to 10162
  156.1633  130.3644  149.9268 LP  0  0  0  0  0  0  0  0  0  0  0  0  # atno 17370 bound_to 10713
  156.7261  130.9025  151.3622 LP  0  0  0  0  0  0  0  0  0  0  0  0  # atno 17371 bound_to 10713
  139.9602  134.7465  156.0253 LP  0  0  0  0  0  0  0  0  0  0  0  0  # atno 17394 bound_to 11000
  141.1331  133.6581  156.3518 LP  0  0  0  0  0  0  0  0  0  0  0  0  # atno 17395 bound_to 11000

$$$$
