AV-unprocessed.smi:431|AV-procd|sdf|2548|dock10
  -GOLD-   2262022513D 1   1.00000     0.00000
 Structure written by MMmdl.
 43 44  0  0  0  0  0  0  0  0  1 V2000
  153.5553  132.5231  164.5007 C   0  0  0  0  0  0  0  0  0  0  0  0
  154.3241  133.5026  163.6002 C   0  0  0  0  0  0  0  0  0  0  0  0
  154.3160  134.9641  164.1005 C   0  0  1  0  0  0  0  0  0  0  0  0
  154.6680  135.0360  165.5963 C   0  0  0  0  0  0  0  0  0  0  0  0
  155.2747  135.8539  163.2949 C   0  0  0  0  0  0  0  0  0  0  0  0
  155.8981  135.3877  162.3407 O   0  0  0  0  0  0  0  0  0  0  0  0
  155.3862  137.1298  163.6963 N   0  0  0  0  0  0  0  0  0  0  0  0
  156.2640  138.1347  163.1048 C   0  0  0  0  0  0  0  0  0  0  0  0
  155.4994  139.2693  162.4438 C   0  0  0  0  0  0  0  0  0  0  0  0
  154.6671  139.0278  161.3335 C   0  0  0  0  0  0  0  0  0  0  0  0
  153.9696  140.1050  160.7543 C   0  0  0  0  0  0  0  0  0  0  0  0
  154.1273  141.4031  161.2969 C   0  0  0  0  0  0  0  0  0  0  0  0
  153.4358  142.4994  160.7359 N   0  0  0  0  0  0  0  0  0  0  0  0
  152.6710  142.2747  159.5101 C   0  0  0  0  0  0  0  0  0  0  0  0
  152.2457  143.6159  158.8895 C   0  0  0  0  0  0  0  0  0  0  0  0
  151.5296  144.3836  159.8509 O   0  0  0  0  0  0  0  0  0  0  0  0
  152.3301  144.6864  160.9885 C   0  0  0  0  0  0  0  0  0  0  0  0
  152.7625  143.3841  161.6841 C   0  0  0  0  0  0  0  0  0  0  0  0
  154.9307  141.6299  162.3658 N   0  0  0  0  0  0  0  0  0  0  0  0
  155.5967  140.5940  162.9175 C   0  0  0  0  0  0  0  0  0  0  0  0
  153.6486  131.5030  164.1280 H   0  0  0  0  0  0  0  0  0  0  0  0
  152.4920  132.7603  164.5409 H   0  0  0  0  0  0  0  0  0  0  0  0
  153.9427  132.5399  165.5195 H   0  0  0  0  0  0  0  0  0  0  0  0
  155.3569  133.1598  163.5284 H   0  0  0  0  0  0  0  0  0  0  0  0
  153.9241  133.4507  162.5864 H   0  0  0  0  0  0  0  0  0  0  0  0
  153.3034  135.3544  163.9843 H   0  0  0  0  0  0  0  0  0  0  0  0
  154.6682  136.0661  165.9556 H   0  0  0  0  0  0  0  0  0  0  0  0
  155.6529  134.6126  165.7978 H   0  0  0  0  0  0  0  0  0  0  0  0
  153.9432  134.4836  166.1948 H   0  0  0  0  0  0  0  0  0  0  0  0
  154.8319  137.4233  164.4875 H   0  0  0  0  0  0  0  0  0  0  0  0
  156.9450  138.5517  163.8487 H   0  0  0  0  0  0  0  0  0  0  0  0
  156.8926  137.6368  162.3659 H   0  0  0  0  0  0  0  0  0  0  0  0
  154.5545  138.0311  160.9329 H   0  0  0  0  0  0  0  0  0  0  0  0
  153.3138  139.9195  159.9172 H   0  0  0  0  0  0  0  0  0  0  0  0
  153.2679  141.7173  158.7870 H   0  0  0  0  0  0  0  0  0  0  0  0
  151.7905  141.6732  159.7401 H   0  0  0  0  0  0  0  0  0  0  0  0
  153.1146  144.1737  158.5362 H   0  0  0  0  0  0  0  0  0  0  0  0
  151.6053  143.4433  158.0244 H   0  0  0  0  0  0  0  0  0  0  0  0
  153.1997  145.2739  160.6891 H   0  0  0  0  0  0  0  0  0  0  0  0
  151.7509  145.3037  161.6751 H   0  0  0  0  0  0  0  0  0  0  0  0
  151.8890  142.8686  162.0853 H   0  0  0  0  0  0  0  0  0  0  0  0
  153.3997  143.6327  162.5312 H   0  0  0  0  0  0  0  0  0  0  0  0
  156.2245  140.8341  163.7625 H   0  0  0  0  0  0  0  0  0  0  0  0
  1  2  1  0  0  0  0
  1 21  1  0  0  0  0
  1 22  1  0  0  0  0
  1 23  1  0  0  0  0
  2  3  1  0  0  0  0
  2 24  1  0  0  0  0
  2 25  1  0  0  0  0
  3  4  1  0  0  0  0
  3  5  1  0  0  0  0
  3 26  1  0  0  0  0
  4 27  1  0  0  0  0
  4 28  1  0  0  0  0
  4 29  1  0  0  0  0
  5  6  2  0  0  0  0
  5  7  1  0  0  0  0
  7  8  1  0  0  0  0
  7 30  1  0  0  0  0
  8  9  1  0  0  0  0
  8 31  1  0  0  0  0
  8 32  1  0  0  0  0
  9 20  1  0  0  0  0
  9 10  2  0  0  0  0
 10 11  1  0  0  0  0
 10 33  1  0  0  0  0
 11 12  2  0  0  0  0
 11 34  1  0  0  0  0
 12 13  1  0  0  0  0
 12 19  1  0  0  0  0
 13 18  1  0  0  0  0
 13 14  1  0  0  0  0
 14 15  1  0  0  0  0
 14 35  1  0  0  0  0
 14 36  1  0  0  0  0
 15 16  1  0  0  0  0
 15 37  1  0  0  0  0
 15 38  1  0  0  0  0
 16 17  1  0  0  0  0
 17 18  1  0  0  0  0
 17 39  1  0  0  0  0
 17 40  1  0  0  0  0
 18 41  1  0  0  0  0
 18 42  1  0  0  0  0
 19 20  2  0  0  0  0
 20 43  1  0  0  0  0
M  END
> <s_m_source_file>
AV-unprocessed.smi

> <i_m_source_file_index>
431

> <i_lp_mmshare_version>
43012

> <i_f3d_flags>
0

> <s_epik_input>
W0NIM11bQ0gyXVtDQEhdKFtDSDNdKUMoPU8pW05IXVtDSDJdYzFbY0hdW2NIXWMobltjSF0xKU4yW0NIMl1bQ0gyXU9bQ0gyXVtDSDJdMg==

> <s_epik_cmdline>
J2VwaWtfcHl0aG9uJywgJy1waCcsICc3LjAnLCAnLXRuJywgJzgnLCAnLW1hJywgJzIwMCcsICctbWV0YWxfYmluZGluZycsICctaW1hZScsICc8aW5maWxlLm1hZT4nLCAnLW9tYWUnLCAnPG91dGZpbGUubWFlPic=

> <r_lp_tautomer_probability>
1

> <r_epik_Ionization_Penalty>
0.00513882

> <r_epik_Ionization_Penalty_Charging>
0

> <r_epik_Ionization_Penalty_Neutral>
0.00513882

> <r_epik_State_Penalty>
0.00374265

> <r_epik_Charging_Adjusted_Penalty>
0.00374265

> <i_epik_Tot_Q>
0

> <i_epik_Tot_abs_Q>
0

> <r_epik_Metal_State_Penalty>
-0

> <b_epik_Metal_Only>
0

> <s_lp_Force_Field>
OPLS_2005

> <r_lp_Energy>
17.352

> <b_lp_Chiralities_Consistent>
1

> <s_lp_Variant>
AV-unprocessed.smi:431-2

> <Gold.Version>
5.8.1

> <Gold.Id.Protein>
6NUR|6NUR_protein|mol2

> <Gold.PLP.Fitness>
37.2866

> <Gold.PLP.PLP>
-37.5536

> <Gold.PLP.part.hbond>
-1.0000

> <Gold.PLP.part.metal>
0.0000

> <Gold.PLP.part.buried>
-4.1186

> <Gold.PLP.part.nonpolar>
-32.5821

> <Gold.PLP.part.repulsive>
0.0599

> <Gold.PLP.ligand.clash>
0.0000

> <Gold.PLP.ligand.torsion>
0.3296

> <Gold.PLP.Chemscore.Hbond>
0.0000

> <Gold.PLP.Chemscore.CHOScore>
0.0000

> <Gold.PLP.Chemscore.Metal>
0.0000

> <Gold.PLP.Chemscore.Internal.Correction>
0.3922

> <Gold.Rescore>
     Score         DG    S(hbond)    S(metal)    S(lipo)     H(rot)  DE(clash)    DE(int)     intcor
     12.54     -13.34       0.00        0.00     103.08       1.64       0.04       0.75       ----

> <Gold.Chemscore.Fitness>
12.5437

> <Gold.Chemscore.DG>
-13.3404

> <Gold.Chemscore.ZeroCoef>
-5.4800

> <Gold.Chemscore.Hbond>
0.0000

> <Gold.Chemscore.Metal>
0.0000

> <Gold.Chemscore.Lipo>
103.0814

> <Gold.Chemscore.Internal_Hbond>
0.0000

> <Gold.Chemscore.DEClash>
0.0443

> <Gold.Chemscore.DEInternal>
0.7524

> <Gold.Chemscore.Rot>
1.6407

> <Gold.Chemscore.Internal.Correction>
   9.000000E+99

> <Gold.Chemscore.Hbond.Weighted>
-0.0000

> <Gold.Chemscore.Metal.Weighted>
-0.0000

> <Gold.Chemscore.Lipo.Weighted>
-12.0605

> <Gold.Chemscore.Internal_Hbond.Weighted>
0.0000

> <Gold.Chemscore.DEClash.Weighted>
0.0443

> <Gold.Chemscore.DEInternal.Weighted>
0.7524

> <Gold.Chemscore.Rot.Weighted>
4.2001

> <Gold.Chemscore.Internal.Correction.Weighted>
   9.000000E+99

> <Gold.Protein.RotatedTorsions>
[ 6907 6896 6895 6894 ] final   49.41 input  -60.11 | X-H torsion
[ 7974 7965 7964 7962 ] final  -18.47 input  175.53 | X-H torsion
[ 8008 7997 7996 7995 ] final -134.64 input   59.86 | X-H torsion
[ 10167 10162 10161 10158 ] final  120.42 input  -65.29 | X-H torsion
[ 10718 10713 10712 10709 ] final    4.01 input   66.30 | X-H torsion
[ 10763 10752 10751 10750 ] final  -98.55 input  -60.55 | X-H torsion
[ 11005 11000 10999 10996 ] final    2.21 input  -57.11 | X-H torsion

> <Gold.Protein.ActiveResidues>
 VAL166  LYS551  ARG553  GLY616  TRP617  ASP618  TYR619  PRO620  LYS621  CYS622 
 ASP623  PHE694  ASN695  SER759  ASP760  ASP761  ALA762  ILE779  LEU786  VAL792 
 PHE793  MET794  SER795  GLU796  ALA797  LYS798  CYS799  TRP800  GLU811  SER814 

> <Gold.Protein.RotatedAtoms>
  152.2904  134.7727  160.0378 H   0  0  0  0  0  0  0  0  0  0  0  0  # atno 6907 bound_to 6896
  151.8275  133.3398  159.3611 H   0  0  0  0  0  0  0  0  0  0  0  0  # atno 6908 bound_to 6896
  150.7228  134.5443  159.5807 H   0  0  0  0  0  0  0  0  0  0  0  0  # atno 6909 bound_to 6896
  146.1890  140.3926  142.8465 H   0  0  0  0  0  0  0  0  0  0  0  0  # atno 7974 bound_to 7965
  155.3654  140.0485  157.3046 H   0  0  0  0  0  0  0  0  0  0  0  0  # atno 8008 bound_to 7997
  154.5157  140.2207  155.9034 H   0  0  0  0  0  0  0  0  0  0  0  0  # atno 8009 bound_to 7997
  156.1633  140.3111  155.8851 H   0  0  0  0  0  0  0  0  0  0  0  0  # atno 8010 bound_to 7997
  139.5983  144.7049  151.3123 H   0  0  0  0  0  0  0  0  0  0  0  0  # atno 10167 bound_to 10162
  156.8863  130.5672  149.5651 H   0  0  0  0  0  0  0  0  0  0  0  0  # atno 10718 bound_to 10713
  154.7423  135.5005  153.9144 H   0  0  0  0  0  0  0  0  0  0  0  0  # atno 10763 bound_to 10752
  153.1056  135.6696  153.9601 H   0  0  0  0  0  0  0  0  0  0  0  0  # atno 10764 bound_to 10752
  153.9374  135.3071  155.3423 H   0  0  0  0  0  0  0  0  0  0  0  0  # atno 10765 bound_to 10752
  140.6068  133.9785  155.8158 H   0  0  0  0  0  0  0  0  0  0  0  0  # atno 11005 bound_to 11000
  144.8451  140.6917  143.6204 LP  0  0  0  0  0  0  0  0  0  0  0  0  # atno 17320 bound_to 7965
  145.3850  139.1628  143.4260 LP  0  0  0  0  0  0  0  0  0  0  0  0  # atno 17321 bound_to 7965
  140.7229  143.7084  150.7789 LP  0  0  0  0  0  0  0  0  0  0  0  0  # atno 17342 bound_to 10162
  140.0655  143.5112  152.2606 LP  0  0  0  0  0  0  0  0  0  0  0  0  # atno 17343 bound_to 10162
  156.0651  130.5696  150.9272 LP  0  0  0  0  0  0  0  0  0  0  0  0  # atno 17370 bound_to 10713
  157.6110  131.0936  150.8795 LP  0  0  0  0  0  0  0  0  0  0  0  0  # atno 17371 bound_to 10713
  141.0835  134.0026  157.3350 LP  0  0  0  0  0  0  0  0  0  0  0  0  # atno 17394 bound_to 11000
  139.9209  135.0200  156.8059 LP  0  0  0  0  0  0  0  0  0  0  0  0  # atno 17395 bound_to 11000

$$$$
