AV-unprocessed.smi:1824|AV-procd|sdf|7402|dock2
  -GOLD-   22720 9 73D 1   1.00000     0.00000
 Structure written by MMmdl.
 45 47  0  0  0  0  0  0  0  0  2 V2000
  147.0310  137.9446  154.2326 C   0  0  0  0  0  0  0  0  0  0  0  0
  147.5132  139.2988  154.7632 C   0  0  1  0  0  0  0  0  0  0  0  0
  149.0492  139.4354  154.6877 C   0  0  0  0  0  0  0  0  0  0  0  0
  149.5006  140.7958  155.0777 N   0  3  2  0  0  0  0  0  0  0  0  0
  149.5345  141.0493  156.5440 C   0  0  0  0  0  0  0  0  0  0  0  0
  150.9653  141.2892  157.0653 C   0  0  1  0  0  0  0  0  0  0  0  0
  151.8674  140.5154  156.2970 O   0  0  0  0  0  0  0  0  0  0  0  0
  151.3692  142.7738  156.9801 C   0  0  0  0  0  0  0  0  0  0  0  0
  151.3257  143.4328  158.2732 N   0  0  0  0  0  0  0  0  0  0  0  0
  150.6837  144.5752  158.5853 C   0  0  0  0  0  0  0  0  0  0  0  0
  150.7831  145.0071  159.8391 N   0  0  0  0  0  0  0  0  0  0  0  0
  151.5798  144.0294  160.4097 C   0  0  0  0  0  0  0  0  0  0  0  0
  152.0622  143.8941  161.7310 C   0  0  0  0  0  0  0  0  0  0  0  0
  152.8700  142.7944  162.0883 C   0  0  0  0  0  0  0  0  0  0  0  0
  153.3216  142.6788  163.3596 F   0  0  0  0  0  0  0  0  0  0  0  0
  153.2085  141.8155  161.1302 C   0  0  0  0  0  0  0  0  0  0  0  0
  153.9841  140.7626  161.4813 F   0  0  0  0  0  0  0  0  0  0  0  0
  152.7419  141.9303  159.8067 C   0  0  0  0  0  0  0  0  0  0  0  0
  151.9352  143.0284  159.4557 C   0  0  0  0  0  0  0  0  0  0  0  0
  148.7638  141.8282  154.3087 C   0  0  0  0  0  0  0  0  0  0  0  0
  147.2388  141.6309  154.4234 C   0  0  1  0  0  0  0  0  0  0  0  0
  146.4609  142.6349  153.5654 C   0  0  0  0  0  0  0  0  0  0  0  0
  146.9107  140.3203  153.9756 O   0  0  0  0  0  0  0  0  0  0  0  0
  147.4572  137.1225  154.8081 H   0  0  0  0  0  0  0  0  0  0  0  0
  147.3141  137.8054  153.1888 H   0  0  0  0  0  0  0  0  0  0  0  0
  145.9453  137.8662  154.2954 H   0  0  0  0  0  0  0  0  0  0  0  0
  147.1748  139.3976  155.7953 H   0  0  0  0  0  0  0  0  0  0  0  0
  149.5328  138.6711  155.2946 H   0  0  0  0  0  0  0  0  0  0  0  0
  149.3762  139.2578  153.6620 H   0  0  0  0  0  0  0  0  0  0  0  0
  148.9324  141.9283  156.7790 H   0  0  0  0  0  0  0  0  0  0  0  0
  149.0719  140.2190  157.0777 H   0  0  0  0  0  0  0  0  0  0  0  0
  151.0462  140.9694  158.1038 H   0  0  0  0  0  0  0  0  0  0  0  0
  151.4810  140.3482  155.4507 H   0  0  0  0  0  0  0  0  0  0  0  0
  152.3741  142.8771  156.5679 H   0  0  0  0  0  0  0  0  0  0  0  0
  150.6996  143.3088  156.3054 H   0  0  0  0  0  0  0  0  0  0  0  0
  150.1148  145.1238  157.8489 H   0  0  0  0  0  0  0  0  0  0  0  0
  151.8100  144.6375  162.4726 H   0  0  0  0  0  0  0  0  0  0  0  0
  153.0001  141.1825  159.0720 H   0  0  0  0  0  0  0  0  0  0  0  0
  149.0550  142.8280  154.6327 H   0  0  0  0  0  0  0  0  0  0  0  0
  149.0629  141.7494  153.2625 H   0  0  0  0  0  0  0  0  0  0  0  0
  146.9228  141.7480  155.4613 H   0  0  0  0  0  0  0  0  0  0  0  0
  146.6704  143.6596  153.8734 H   0  0  0  0  0  0  0  0  0  0  0  0
  145.3863  142.4747  153.6558 H   0  0  0  0  0  0  0  0  0  0  0  0
  146.7228  142.5418  152.5110 H   0  0  0  0  0  0  0  0  0  0  0  0
  150.4645  140.8736  154.7841 H   0  0  0  0  0  0  0  0  0  0  0  0
  1  2  1  0  0  0  0
  1 24  1  0  0  0  0
  1 25  1  0  0  0  0
  1 26  1  0  0  0  0
  2 23  1  0  0  0  0
  2  3  1  0  0  0  0
  2 27  1  0  0  0  0
  3  4  1  0  0  0  0
  3 28  1  0  0  0  0
  3 29  1  0  0  0  0
  4  5  1  0  0  0  0
  4 20  1  0  0  0  0
  4 45  1  0  0  0  0
  5  6  1  0  0  0  0
  5 30  1  0  0  0  0
  5 31  1  0  0  0  0
  6  7  1  0  0  0  0
  6  8  1  0  0  0  0
  6 32  1  0  0  0  0
  7 33  1  0  0  0  0
  8  9  1  0  0  0  0
  8 34  1  0  0  0  0
  8 35  1  0  0  0  0
  9 19  1  0  0  0  0
  9 10  1  0  0  0  0
 10 11  2  0  0  0  0
 10 36  1  0  0  0  0
 11 12  1  0  0  0  0
 12 19  2  0  0  0  0
 12 13  1  0  0  0  0
 13 14  2  0  0  0  0
 13 37  1  0  0  0  0
 14 15  1  0  0  0  0
 14 16  1  0  0  0  0
 16 17  1  0  0  0  0
 16 18  2  0  0  0  0
 18 19  1  0  0  0  0
 18 38  1  0  0  0  0
 20 21  1  0  0  0  0
 20 39  1  0  0  0  0
 20 40  1  0  0  0  0
 21 22  1  0  0  0  0
 21 23  1  0  0  0  0
 21 41  1  0  0  0  0
 22 42  1  0  0  0  0
 22 43  1  0  0  0  0
 22 44  1  0  0  0  0
M  CHG  1   4   1
M  END
> <s_m_source_file>
AV-unprocessed.smi

> <i_m_source_file_index>
1824

> <i_lp_mmshare_version>
43012

> <i_f3d_flags>
0

> <s_epik_input>
W0NIM11bQ0BASF0xW0NIMl1OKFtDSDJdW0NASF0oTzEpW0NIM10pW0NIMl1bQ0BIXShbT0hdKVtDSDJdbihbY0hdbjIpYyhjMjMpW2NIXWMoRiljKEYpW2NIXTM=

> <s_epik_cmdline>
J2VwaWtfcHl0aG9uJywgJy1waCcsICc3LjAnLCAnLXRuJywgJzgnLCAnLW1hJywgJzIwMCcsICctbWV0YWxfYmluZGluZycsICctaW1hZScsICc8aW5maWxlLm1hZT4nLCAnLW9tYWUnLCAnPG91dGZpbGUubWFlPic=

> <r_epik_Ionization_Penalty>
0.61967

> <r_epik_Ionization_Penalty_Charging>
0.608065

> <r_epik_Ionization_Penalty_Neutral>
0.0116057

> <r_epik_State_Penalty>
0.664205

> <r_epik_Charging_Adjusted_Penalty>
1.27227

> <i_epik_Tot_Q>
1

> <i_epik_Tot_abs_Q>
1

> <r_epik_Metal_State_Penalty>
0.654947

> <b_epik_Metal_Only>
0

> <s_lp_Force_Field>
OPLS_2005

> <r_lp_Energy>
21.9473

> <b_lp_Chiralities_Consistent>
1

> <s_lp_Variant>
AV-unprocessed.smi:1824-10

> <Gold.Version>
5.8.1

> <Gold.Id.Protein>
6NUR|6NUR_protein|mol2

> <Gold.PLP.Fitness>
50.7663

> <Gold.PLP.PLP>
-51.1239

> <Gold.PLP.part.hbond>
0.0000

> <Gold.PLP.part.metal>
0.0000

> <Gold.PLP.part.buried>
-6.4775

> <Gold.PLP.part.nonpolar>
-44.7670

> <Gold.PLP.part.repulsive>
0.3920

> <Gold.PLP.ligand.clash>
0.0000

> <Gold.PLP.ligand.torsion>
1.7499

> <Gold.PLP.Chemscore.Hbond>
0.0000

> <Gold.PLP.Chemscore.CHOScore>
1.0062

> <Gold.PLP.Chemscore.Metal>
0.0000

> <Gold.Chemscore.Hbonds>
donor molecule, donor type, donor heavy atom, donor atom, acceptor molecule, acceptor atom, score
      L1  C    10    36       P1  8028  0.37
      L1  C    10    36       P1  8029  0.55

> <Gold.PLP.Chemscore.Internal.Correction>
0.1237

> <Gold.Rescore>
     Score         DG    S(hbond)    S(metal)    S(lipo)     H(rot)  DE(clash)    DE(int)     intcor
     11.47     -13.36       0.00        0.00     118.26       2.33       0.26       1.63       ----

> <Gold.Chemscore.Fitness>
11.4692

> <Gold.Chemscore.DG>
-13.3637

> <Gold.Chemscore.ZeroCoef>
-5.4800

> <Gold.Chemscore.Hbond>
0.0000

> <Gold.Chemscore.Metal>
0.0000

> <Gold.Chemscore.Lipo>
118.2568

> <Gold.Chemscore.Internal_Hbond>
0.0000

> <Gold.Chemscore.DEClash>
0.2597

> <Gold.Chemscore.DEInternal>
1.6349

> <Gold.Chemscore.Rot>
2.3251

> <Gold.Chemscore.Internal.Correction>
   9.000000E+99

> <Gold.Chemscore.Hbond.Weighted>
-0.0000

> <Gold.Chemscore.Metal.Weighted>
-0.0000

> <Gold.Chemscore.Lipo.Weighted>
-13.8360

> <Gold.Chemscore.Internal_Hbond.Weighted>
0.0000

> <Gold.Chemscore.DEClash.Weighted>
0.2597

> <Gold.Chemscore.DEInternal.Weighted>
1.6349

> <Gold.Chemscore.Rot.Weighted>
5.9523

> <Gold.Chemscore.Internal.Correction.Weighted>
   9.000000E+99

> <Gold.Protein.RotatedTorsions>
[ 6907 6896 6895 6894 ] final  -32.08 input  -60.11 | X-H torsion
[ 7974 7965 7964 7962 ] final  121.51 input  175.53 | X-H torsion
[ 8008 7997 7996 7995 ] final  118.30 input   59.86 | X-H torsion
[ 10167 10162 10161 10158 ] final    1.59 input  -65.29 | X-H torsion
[ 10718 10713 10712 10709 ] final  113.33 input   66.30 | X-H torsion
[ 10763 10752 10751 10750 ] final   38.19 input  -60.55 | X-H torsion
[ 11005 11000 10999 10996 ] final  154.02 input  -57.11 | X-H torsion

> <Gold.Protein.ActiveResidues>
 VAL166  LYS551  ARG553  GLY616  TRP617  ASP618  TYR619  PRO620  LYS621  CYS622 
 ASP623  PHE694  ASN695  SER759  ASP760  ASP761  ALA762  ILE779  LEU786  VAL792 
 PHE793  MET794  SER795  GLU796  ALA797  LYS798  CYS799  TRP800  GLU811  SER814 

> <Gold.Protein.RotatedAtoms>
  151.0835  134.9873  159.8367 H   0  0  0  0  0  0  0  0  0  0  0  0  # atno 6907 bound_to 6896
  152.5422  134.2153  159.8776 H   0  0  0  0  0  0  0  0  0  0  0  0  # atno 6908 bound_to 6896
  151.2184  133.4472  159.2633 H   0  0  0  0  0  0  0  0  0  0  0  0  # atno 6909 bound_to 6896
  145.1184  139.3405  143.4727 H   0  0  0  0  0  0  0  0  0  0  0  0  # atno 7974 bound_to 7965
  156.2539  140.2878  156.0813 H   0  0  0  0  0  0  0  0  0  0  0  0  # atno 8008 bound_to 7997
  155.1564  140.0398  157.2850 H   0  0  0  0  0  0  0  0  0  0  0  0  # atno 8009 bound_to 7997
  154.6424  140.2525  155.7313 H   0  0  0  0  0  0  0  0  0  0  0  0  # atno 8010 bound_to 7997
  140.6675  143.7139  150.7857 H   0  0  0  0  0  0  0  0  0  0  0  0  # atno 10167 bound_to 10162
  157.6344  131.0982  150.7025 H   0  0  0  0  0  0  0  0  0  0  0  0  # atno 10718 bound_to 10713
  153.0010  135.6256  154.2265 H   0  0  0  0  0  0  0  0  0  0  0  0  # atno 10763 bound_to 10752
  154.2008  135.2804  155.2993 H   0  0  0  0  0  0  0  0  0  0  0  0  # atno 10764 bound_to 10752
  154.5685  135.5683  153.7132 H   0  0  0  0  0  0  0  0  0  0  0  0  # atno 10765 bound_to 10752
  140.1451  134.8712  157.2382 H   0  0  0  0  0  0  0  0  0  0  0  0  # atno 11005 bound_to 11000
  146.3522  140.1134  142.8603 LP  0  0  0  0  0  0  0  0  0  0  0  0  # atno 17320 bound_to 7965
  145.0767  140.9193  143.4849 LP  0  0  0  0  0  0  0  0  0  0  0  0  # atno 17321 bound_to 7965
  140.0818  143.4961  152.2526 LP  0  0  0  0  0  0  0  0  0  0  0  0  # atno 17342 bound_to 10162
  139.5930  144.7557  151.3354 LP  0  0  0  0  0  0  0  0  0  0  0  0  # atno 17343 bound_to 10162
  156.7359  130.4724  149.5489 LP  0  0  0  0  0  0  0  0  0  0  0  0  # atno 17370 bound_to 10713
  156.1572  130.6349  151.0672 LP  0  0  0  0  0  0  0  0  0  0  0  0  # atno 17371 bound_to 10713
  140.2673  134.3501  155.7385 LP  0  0  0  0  0  0  0  0  0  0  0  0  # atno 17394 bound_to 11000
  141.2191  133.7403  156.9171 LP  0  0  0  0  0  0  0  0  0  0  0  0  # atno 17395 bound_to 11000

$$$$
