AV-unprocessed.smi:2066|AV-procd|sdf|8420|dock1
  -GOLD-   2272011113D 1   1.00000     0.00000
 Structure written by MMmdl.
 40 41  0  0  0  0  0  0  0  0  2 V2000
  148.3097  139.5483  154.1397 C   0  0  0  0  0  0  0  0  0  0  0  0
  146.8478  139.5784  153.6295 C   0  0  0  0  0  0  0  0  0  0  0  0
  146.8882  139.7424  152.0868 C   0  0  0  0  0  0  0  0  0  0  0  0
  146.1206  138.2335  153.9415 C   0  0  0  0  0  0  0  0  0  0  0  0
  146.4720  137.1352  153.0406 N   0  0  0  0  0  0  0  0  0  0  0  0
  145.6100  136.2556  152.5095 C   0  0  0  0  0  0  0  0  0  0  0  0
  144.4002  136.2686  152.7389 O   0  0  0  0  0  0  0  0  0  0  0  0
  146.2416  135.3759  151.7130 N   0  0  0  0  0  0  0  0  0  0  0  0
  145.6827  134.2905  150.9888 C   0  0  0  0  0  0  0  0  0  0  0  0
  144.3859  134.1782  150.6789 N   0  0  0  0  0  0  0  0  0  0  0  0
  144.1174  133.0090  149.9627 C   0  0  0  0  0  0  0  0  0  0  0  0
  145.2292  132.2369  149.7354 C   0  0  0  0  0  0  0  0  0  0  0  0
  146.6663  132.9509  150.4173 S   0  0  0  0  0  0  0  0  0  0  0  0
  146.0711  140.7008  154.2765 N   0  3  0  0  0  0  0  0  0  0  0  0
  145.7956  140.5286  155.7327 C   0  0  0  0  0  0  0  0  0  0  0  0
  144.8379  141.6179  156.2386 C   0  0  0  0  0  0  0  0  0  0  0  0
  145.4162  142.8935  156.0060 O   0  0  0  0  0  0  0  0  0  0  0  0
  145.6142  143.1312  154.6202 C   0  0  0  0  0  0  0  0  0  0  0  0
  146.5759  142.0830  154.0321 C   0  0  0  0  0  0  0  0  0  0  0  0
  148.9132  138.8325  153.5811 H   0  0  0  0  0  0  0  0  0  0  0  0
  148.3717  139.2581  155.1887 H   0  0  0  0  0  0  0  0  0  0  0  0
  148.7957  140.5181  154.0328 H   0  0  0  0  0  0  0  0  0  0  0  0
  147.3622  138.8921  151.5963 H   0  0  0  0  0  0  0  0  0  0  0  0
  147.4700  140.6115  151.7794 H   0  0  0  0  0  0  0  0  0  0  0  0
  145.8856  139.8385  151.6686 H   0  0  0  0  0  0  0  0  0  0  0  0
  146.2935  137.9066  154.9657 H   0  0  0  0  0  0  0  0  0  0  0  0
  145.0426  138.3785  153.8631 H   0  0  0  0  0  0  0  0  0  0  0  0
  147.4473  137.0457  152.7953 H   0  0  0  0  0  0  0  0  0  0  0  0
  147.2390  135.4941  151.6134 H   0  0  0  0  0  0  0  0  0  0  0  0
  143.1033  132.8048  149.6530 H   0  0  0  0  0  0  0  0  0  0  0  0
  145.2894  131.2951  149.2106 H   0  0  0  0  0  0  0  0  0  0  0  0
  145.3536  139.5589  155.9497 H   0  0  0  0  0  0  0  0  0  0  0  0
  146.7246  140.5882  156.3010 H   0  0  0  0  0  0  0  0  0  0  0  0
  143.8648  141.5445  155.7501 H   0  0  0  0  0  0  0  0  0  0  0  0
  144.6677  141.4995  157.3089 H   0  0  0  0  0  0  0  0  0  0  0  0
  144.6565  143.1144  154.0975 H   0  0  0  0  0  0  0  0  0  0  0  0
  146.0265  144.1322  154.4910 H   0  0  0  0  0  0  0  0  0  0  0  0
  147.5685  142.2008  154.4686 H   0  0  0  0  0  0  0  0  0  0  0  0
  146.6600  142.2988  152.9683 H   0  0  0  0  0  0  0  0  0  0  0  0
  145.1677  140.6765  153.8256 H   0  0  0  0  0  0  0  0  0  0  0  0
  1  2  1  0  0  0  0
  1 20  1  0  0  0  0
  1 21  1  0  0  0  0
  1 22  1  0  0  0  0
  2  3  1  0  0  0  0
  2  4  1  0  0  0  0
  2 14  1  0  0  0  0
  3 23  1  0  0  0  0
  3 24  1  0  0  0  0
  3 25  1  0  0  0  0
  4  5  1  0  0  0  0
  4 26  1  0  0  0  0
  4 27  1  0  0  0  0
  5  6  1  0  0  0  0
  5 28  1  0  0  0  0
  6  7  2  0  0  0  0
  6  8  1  0  0  0  0
  8  9  1  0  0  0  0
  8 29  1  0  0  0  0
  9 13  1  0  0  0  0
  9 10  2  0  0  0  0
 10 11  1  0  0  0  0
 11 12  2  0  0  0  0
 11 30  1  0  0  0  0
 12 13  1  0  0  0  0
 12 31  1  0  0  0  0
 14 19  1  0  0  0  0
 14 15  1  0  0  0  0
 14 40  1  0  0  0  0
 15 16  1  0  0  0  0
 15 32  1  0  0  0  0
 15 33  1  0  0  0  0
 16 17  1  0  0  0  0
 16 34  1  0  0  0  0
 16 35  1  0  0  0  0
 17 18  1  0  0  0  0
 18 19  1  0  0  0  0
 18 36  1  0  0  0  0
 18 37  1  0  0  0  0
 19 38  1  0  0  0  0
 19 39  1  0  0  0  0
M  CHG  1  14   1
M  END
> <s_m_source_file>
AV-unprocessed.smi

> <i_m_source_file_index>
2066

> <i_lp_mmshare_version>
43012

> <i_f3d_flags>
0

> <s_epik_input>
W0NIMl0xW0NIMl1PW0NIMl1bQ0gyXU4xQyhbQ0gzXSkoW0NIM10pW0NIMl1bTkhdQyg9TylbTkhdYzJuW2NIXVtjSF1zMg==

> <s_epik_cmdline>
J2VwaWtfcHl0aG9uJywgJy1waCcsICc3LjAnLCAnLXRuJywgJzgnLCAnLW1hJywgJzIwMCcsICctbWV0YWxfYmluZGluZycsICctaW1hZScsICc8aW5maWxlLm1hZT4nLCAnLW9tYWUnLCAnPG91dGZpbGUubWFlPic=

> <r_lp_tautomer_probability>
0.999

> <r_epik_Ionization_Penalty>
0.695839

> <r_epik_Ionization_Penalty_Charging>
0.695697

> <r_epik_Ionization_Penalty_Neutral>
0.000141498

> <r_epik_State_Penalty>
0.717972

> <r_epik_Charging_Adjusted_Penalty>
1.41367

> <i_epik_Tot_Q>
1

> <i_epik_Tot_abs_Q>
1

> <r_epik_Metal_State_Penalty>
0.756569

> <b_epik_Metal_Only>
0

> <s_lp_Force_Field>
OPLS_2005

> <r_lp_Energy>
24.1099

> <b_lp_Chiralities_Consistent>
1

> <s_lp_Variant>
AV-unprocessed.smi:2066-2

> <Gold.Version>
5.8.1

> <Gold.Id.Protein>
6NUR|6NUR_protein|mol2

> <Gold.PLP.Fitness>
44.9593

> <Gold.PLP.PLP>
-30.8975

> <Gold.PLP.part.hbond>
-3.0000

> <Gold.PLP.part.metal>
0.0000

> <Gold.PLP.part.buried>
-1.5919

> <Gold.PLP.part.nonpolar>
-26.6005

> <Gold.PLP.part.repulsive>
0.6209

> <Gold.PLP.ligand.clash>
0.0000

> <Gold.PLP.ligand.torsion>
0.5138

> <Gold.PLP.Chemscore.Hbond>
4.0000

> <Gold.PLP.Chemscore.CHOScore>
1.0000

> <Gold.PLP.Chemscore.Metal>
0.0000

> <Gold.Chemscore.Hbonds>
donor molecule, donor type, donor heavy atom, donor atom, acceptor molecule, acceptor atom, score
      L1  H     5    28       P1  7948  1.00
      L1  H     8    29       P1  7948  1.00
      L1  H    14    40       P1 10175  2.00
      L1  C    11    30       P1 10186  0.71

> <Gold.PLP.Chemscore.Internal.Correction>
0.0893

> <Gold.Rescore>
     Score         DG    S(hbond)    S(metal)    S(lipo)     H(rot)  DE(clash)    DE(int)     intcor
     16.45     -19.67       2.85        0.00      75.47       1.62       1.57       1.65       ----

> <Gold.Chemscore.Fitness>
16.4523

> <Gold.Chemscore.DG>
-19.6709

> <Gold.Chemscore.ZeroCoef>
-5.4800

> <Gold.Chemscore.Hbond>
2.8496

> <Gold.Chemscore.Metal>
0.0000

> <Gold.Chemscore.Lipo>
75.4714

> <Gold.Chemscore.Internal_Hbond>
0.0000

> <Gold.Chemscore.DEClash>
1.5681

> <Gold.Chemscore.DEInternal>
1.6505

> <Gold.Chemscore.Rot>
1.6238

> <Gold.Chemscore.Internal.Correction>
   9.000000E+99

> <Gold.Chemscore.Hbonds>
donor molecule, donor type, donor heavy atom, donor atom, acceptor molecule, acceptor atom, score
      L1  H     5    28       P1  7948  0.97
      L1  H     8    29       P1  7948  0.98
      L1  H    14    40       P1 10175  0.93

> <Gold.Chemscore.Hbond.Weighted>
-9.5178

> <Gold.Chemscore.Metal.Weighted>
-0.0000

> <Gold.Chemscore.Lipo.Weighted>
-8.8302

> <Gold.Chemscore.Internal_Hbond.Weighted>
0.0000

> <Gold.Chemscore.DEClash.Weighted>
1.5681

> <Gold.Chemscore.DEInternal.Weighted>
1.6505

> <Gold.Chemscore.Rot.Weighted>
4.1570

> <Gold.Chemscore.Internal.Correction.Weighted>
   9.000000E+99

> <Gold.Protein.RotatedTorsions>
[ 6907 6896 6895 6894 ] final   74.64 input  -60.11 | X-H torsion
[ 7974 7965 7964 7962 ] final -112.85 input  175.53 | X-H torsion
[ 8008 7997 7996 7995 ] final  -73.65 input   59.86 | X-H torsion
[ 10167 10162 10161 10158 ] final -101.64 input  -65.29 | X-H torsion
[ 10718 10713 10712 10709 ] final  140.05 input   66.30 | X-H torsion
[ 10763 10752 10751 10750 ] final  110.17 input  -60.55 | X-H torsion
[ 11005 11000 10999 10996 ] final -112.26 input  -57.11 | X-H torsion

> <Gold.Protein.ActiveResidues>
 VAL166  LYS551  ARG553  GLY616  TRP617  ASP618  TYR619  PRO620  LYS621  CYS622 
 ASP623  PHE694  ASN695  SER759  ASP760  ASP761  ALA762  ILE779  LEU786  VAL792 
 PHE793  MET794  SER795  GLU796  ALA797  LYS798  CYS799  TRP800  GLU811  SER814 

> <Gold.Protein.RotatedAtoms>
  152.4986  134.4241  159.9490 H   0  0  0  0  0  0  0  0  0  0  0  0  # atno 6907 bound_to 6896
  151.4216  133.3690  159.2764 H   0  0  0  0  0  0  0  0  0  0  0  0  # atno 6908 bound_to 6896
  150.9219  134.8658  159.7554 H   0  0  0  0  0  0  0  0  0  0  0  0  # atno 6909 bound_to 6896
  145.1391  140.8767  143.3713 H   0  0  0  0  0  0  0  0  0  0  0  0  # atno 7974 bound_to 7965
  154.5264  140.0775  156.8267 H   0  0  0  0  0  0  0  0  0  0  0  0  # atno 8008 bound_to 7997
  155.3466  140.3410  155.4221 H   0  0  0  0  0  0  0  0  0  0  0  0  # atno 8009 bound_to 7997
  156.1736  140.1628  156.8389 H   0  0  0  0  0  0  0  0  0  0  0  0  # atno 8010 bound_to 7997
  140.2391  143.3552  152.0818 H   0  0  0  0  0  0  0  0  0  0  0  0  # atno 10167 bound_to 10162
  157.4076  131.1024  151.0487 H   0  0  0  0  0  0  0  0  0  0  0  0  # atno 10718 bound_to 10713
  153.4452  135.3757  155.2251 H   0  0  0  0  0  0  0  0  0  0  0  0  # atno 10763 bound_to 10752
  154.8755  135.3872  154.4105 H   0  0  0  0  0  0  0  0  0  0  0  0  # atno 10764 bound_to 10752
  153.4656  135.7087  153.6087 H   0  0  0  0  0  0  0  0  0  0  0  0  # atno 10765 bound_to 10752
  141.0685  133.9418  157.2531 H   0  0  0  0  0  0  0  0  0  0  0  0  # atno 11005 bound_to 11000
  145.0552  139.3149  143.5908 LP  0  0  0  0  0  0  0  0  0  0  0  0  # atno 17320 bound_to 7965
  146.3507  139.9975  142.8679 LP  0  0  0  0  0  0  0  0  0  0  0  0  # atno 17321 bound_to 7965
  139.5083  144.6848  151.5916 LP  0  0  0  0  0  0  0  0  0  0  0  0  # atno 17342 bound_to 10162
  140.6127  143.9406  150.6465 LP  0  0  0  0  0  0  0  0  0  0  0  0  # atno 17343 bound_to 10162
  157.1464  130.6165  149.5569 LP  0  0  0  0  0  0  0  0  0  0  0  0  # atno 17370 bound_to 10713
  155.9841  130.4864  150.6966 LP  0  0  0  0  0  0  0  0  0  0  0  0  # atno 17371 bound_to 10713
  139.9500  135.0177  156.8966 LP  0  0  0  0  0  0  0  0  0  0  0  0  # atno 17394 bound_to 11000
  140.5722  134.0432  155.7434 LP  0  0  0  0  0  0  0  0  0  0  0  0  # atno 17395 bound_to 11000

$$$$
