AV-unprocessed.smi:2568|AV-procd|sdf|10098|dock6
  -GOLD-   2272014113D 1   1.00000     0.00000
 Structure written by MMmdl.
 24 25  0  0  0  0  0  0  0  0  3 V2000
  155.0360  138.7561  160.0828 C   0  0  0  0  0  0  0  0  0  0  0  0
  154.0178  139.6760  159.4498 C   0  0  0  0  0  0  0  0  0  0  0  0
  153.5025  139.5529  158.2140 N   0  5  0  0  0  0  0  0  0  0  0  0
  152.6433  140.5259  157.9896 N   0  0  0  0  0  0  0  0  0  0  0  0
  152.6261  141.2528  159.1172 C   0  0  0  0  0  0  0  0  0  0  0  0
  151.8020  142.5080  159.3135 C   0  0  2  0  0  0  0  0  0  0  0  0
  151.1636  142.9653  157.9872 C   0  0  0  0  0  0  0  0  0  0  0  0
  150.3759  144.1953  158.1973 N   0  3  0  0  0  0  0  0  0  0  0  0
  151.1868  145.2590  158.8204 C   0  0  0  0  0  0  0  0  0  0  0  0
  151.8294  144.7401  160.1177 C   0  0  0  0  0  0  0  0  0  0  0  0
  152.5936  143.5727  159.8380 O   0  0  0  0  0  0  0  0  0  0  0  0
  153.4784  140.7480  160.0210 N   0  0  0  0  0  0  0  0  0  0  0  0
  155.3231  137.9642  159.3907 H   0  0  0  0  0  0  0  0  0  0  0  0
  154.6227  138.2967  160.9807 H   0  0  0  0  0  0  0  0  0  0  0  0
  155.9305  139.3147  160.3585 H   0  0  0  0  0  0  0  0  0  0  0  0
  151.0175  142.2701  160.0343 H   0  0  0  0  0  0  0  0  0  0  0  0
  151.9353  143.1570  157.2400 H   0  0  0  0  0  0  0  0  0  0  0  0
  150.5129  142.1884  157.5845 H   0  0  0  0  0  0  0  0  0  0  0  0
  150.0179  144.5194  157.3102 H   0  0  0  0  0  0  0  0  0  0  0  0
  151.9588  145.5783  158.1190 H   0  0  0  0  0  0  0  0  0  0  0  0
  150.5560  146.1247  159.0226 H   0  0  0  0  0  0  0  0  0  0  0  0
  152.4867  145.4996  160.5413 H   0  0  0  0  0  0  0  0  0  0  0  0
  151.0700  144.5206  160.8699 H   0  0  0  0  0  0  0  0  0  0  0  0
  149.6008  143.9792  158.8077 H   0  0  0  0  0  0  0  0  0  0  0  0
  1 13  1  0  0  0  0
  1 14  1  0  0  0  0
  1 15  1  0  0  0  0
  1  2  1  0  0  0  0
  2 12  2  0  0  0  0
  2  3  1  0  0  0  0
  3  4  1  0  0  0  0
  4  5  2  0  0  0  0
  5 12  1  0  0  0  0
  5  6  1  0  0  0  0
  6 11  1  0  0  0  0
  6  7  1  0  0  0  0
  6 16  1  0  0  0  0
  7  8  1  0  0  0  0
  7 17  1  0  0  0  0
  7 18  1  0  0  0  0
  8  9  1  0  0  0  0
  8 19  1  0  0  0  0
  8 24  1  0  0  0  0
  9 10  1  0  0  0  0
  9 20  1  0  0  0  0
  9 21  1  0  0  0  0
 10 11  1  0  0  0  0
 10 22  1  0  0  0  0
 10 23  1  0  0  0  0
M  CHG  1   3  -1
M  CHG  1   8   1
M  END
> <s_m_source_file>
AV-unprocessed.smi

> <i_m_source_file_index>
2568

> <i_lp_mmshare_version>
43012

> <i_f3d_flags>
0

> <s_epik_input>
W0NIM11jMW5bbkhdYyhuMSlbQ0BASF0yW0NIMl1bTkhdW0NIMl1bQ0gyXU8y

> <s_epik_cmdline>
J2VwaWtfcHl0aG9uJywgJy1waCcsICc3LjAnLCAnLXRuJywgJzgnLCAnLW1hJywgJzIwMCcsICctbWV0YWxfYmluZGluZycsICctaW1hZScsICc8aW5maWxlLm1hZT4nLCAnLW9tYWUnLCAnPG91dGZpbGUubWFlPic=

> <r_lp_tautomer_probability>
0.948284

> <r_epik_Ionization_Penalty>
5.18319

> <r_epik_Ionization_Penalty_Charging>
5.18319

> <r_epik_Ionization_Penalty_Neutral>
2.73247e-13

> <r_epik_State_Penalty>
2.89074

> <r_epik_Charging_Adjusted_Penalty>
8.07392

> <i_epik_Tot_Q>
0

> <i_epik_Tot_abs_Q>
2

> <r_epik_Metal_State_Penalty>
0.548499

> <b_epik_Metal_Only>
1

> <s_lp_Force_Field>
OPLS_2005

> <r_lp_Energy>
8.28058

> <b_lp_Chiralities_Consistent>
1

> <s_lp_Variant>
AV-unprocessed.smi:2568-11

> <Gold.Version>
5.8.1

> <Gold.Id.Protein>
6NUR|6NUR_protein|mol2

> <Gold.PLP.Fitness>
32.5902

> <Gold.PLP.PLP>
-21.0436

> <Gold.PLP.part.hbond>
-3.6147

> <Gold.PLP.part.metal>
0.0000

> <Gold.PLP.part.buried>
-2.9136

> <Gold.PLP.part.nonpolar>
-14.6081

> <Gold.PLP.part.repulsive>
0.0795

> <Gold.PLP.ligand.clash>
0.0000

> <Gold.PLP.ligand.torsion>
0.2326

> <Gold.PLP.Chemscore.Hbond>
4.0000

> <Gold.PLP.Chemscore.CHOScore>
0.0000

> <Gold.PLP.Chemscore.Metal>
0.0000

> <Gold.Chemscore.Hbonds>
donor molecule, donor type, donor heavy atom, donor atom, acceptor molecule, acceptor atom, score
      L1  H     8    19       P1  8028  2.00
      P1  H  7997  8009       L1     3  1.50

> <Gold.PLP.Chemscore.Internal.Correction>
0.0117

> <Gold.Rescore>
     Score         DG    S(hbond)    S(metal)    S(lipo)     H(rot)  DE(clash)    DE(int)     intcor
     11.51     -11.71       0.93        0.00      48.70       1.00       0.01       0.19       ----

> <Gold.Chemscore.Fitness>
11.5147

> <Gold.Chemscore.DG>
-11.7083

> <Gold.Chemscore.ZeroCoef>
-5.4800

> <Gold.Chemscore.Hbond>
0.9254

> <Gold.Chemscore.Metal>
0.0000

> <Gold.Chemscore.Lipo>
48.6977

> <Gold.Chemscore.Internal_Hbond>
0.0000

> <Gold.Chemscore.DEClash>
0.0060

> <Gold.Chemscore.DEInternal>
0.1877

> <Gold.Chemscore.Rot>
1.0000

> <Gold.Chemscore.Internal.Correction>
   9.000000E+99

> <Gold.Chemscore.Hbonds>
donor molecule, donor type, donor heavy atom, donor atom, acceptor molecule, acceptor atom, score
      L1  H     8    19       P1  8028  0.34
      P1  H  7997  8009       L1     3  0.07

> <Gold.Chemscore.Hbond.Weighted>
-3.0907

> <Gold.Chemscore.Metal.Weighted>
-0.0000

> <Gold.Chemscore.Lipo.Weighted>
-5.6976

> <Gold.Chemscore.Internal_Hbond.Weighted>
0.0000

> <Gold.Chemscore.DEClash.Weighted>
0.0060

> <Gold.Chemscore.DEInternal.Weighted>
0.1877

> <Gold.Chemscore.Rot.Weighted>
2.5600

> <Gold.Chemscore.Internal.Correction.Weighted>
   9.000000E+99

> <Gold.Protein.RotatedTorsions>
[ 6907 6896 6895 6894 ] final  -91.33 input  -60.11 | X-H torsion
[ 7974 7965 7964 7962 ] final -104.18 input  175.53 | X-H torsion
[ 8008 7997 7996 7995 ] final  154.27 input   59.86 | X-H torsion
[ 10167 10162 10161 10158 ] final -160.20 input  -65.29 | X-H torsion
[ 10718 10713 10712 10709 ] final  -45.59 input   66.30 | X-H torsion
[ 10763 10752 10751 10750 ] final  -46.27 input  -60.55 | X-H torsion
[ 11005 11000 10999 10996 ] final   63.93 input  -57.11 | X-H torsion

> <Gold.Protein.ActiveResidues>
 VAL166  LYS551  ARG553  GLY616  TRP617  ASP618  TYR619  PRO620  LYS621  CYS622 
 ASP623  PHE694  ASN695  SER759  ASP760  ASP761  ALA762  ILE779  LEU786  VAL792 
 PHE793  MET794  SER795  GLU796  ALA797  LYS798  CYS799  TRP800  GLU811  SER814 

> <Gold.Protein.RotatedAtoms>
  150.6891  134.2294  159.4428 H   0  0  0  0  0  0  0  0  0  0  0  0  # atno 6907 bound_to 6896
  152.0245  134.9801  160.0580 H   0  0  0  0  0  0  0  0  0  0  0  0  # atno 6908 bound_to 6896
  152.1364  133.4403  159.4782 H   0  0  0  0  0  0  0  0  0  0  0  0  # atno 6909 bound_to 6896
  145.2464  140.9223  143.3120 H   0  0  0  0  0  0  0  0  0  0  0  0  # atno 7974 bound_to 7965
  156.2540  140.1971  156.6619 H   0  0  0  0  0  0  0  0  0  0  0  0  # atno 8008 bound_to 7997
  154.6458  140.0578  156.9923 H   0  0  0  0  0  0  0  0  0  0  0  0  # atno 8009 bound_to 7997
  155.1494  140.3250  155.4437 H   0  0  0  0  0  0  0  0  0  0  0  0  # atno 8010 bound_to 7997
  139.6557  144.0002  152.2192 H   0  0  0  0  0  0  0  0  0  0  0  0  # atno 10167 bound_to 10162
  156.2268  130.4170  149.8923 H   0  0  0  0  0  0  0  0  0  0  0  0  # atno 10718 bound_to 10713
  154.0422  135.6642  153.4791 H   0  0  0  0  0  0  0  0  0  0  0  0  # atno 10763 bound_to 10752
  153.0497  135.5092  154.7831 H   0  0  0  0  0  0  0  0  0  0  0  0  # atno 10764 bound_to 10752
  154.6811  135.3045  154.9578 H   0  0  0  0  0  0  0  0  0  0  0  0  # atno 10765 bound_to 10752
  139.9992  134.6469  155.9959 H   0  0  0  0  0  0  0  0  0  0  0  0  # atno 11005 bound_to 11000
  144.9542  139.4049  143.6387 LP  0  0  0  0  0  0  0  0  0  0  0  0  # atno 17320 bound_to 7965
  146.3314  139.8565  142.8864 LP  0  0  0  0  0  0  0  0  0  0  0  0  # atno 17321 bound_to 7965
  139.9728  144.6482  150.7973 LP  0  0  0  0  0  0  0  0  0  0  0  0  # atno 17342 bound_to 10162
  140.7558  143.3053  151.2977 LP  0  0  0  0  0  0  0  0  0  0  0  0  # atno 17343 bound_to 10162
  156.6551  130.8759  151.3538 LP  0  0  0  0  0  0  0  0  0  0  0  0  # atno 17370 bound_to 10713
  157.7114  130.9445  150.1104 LP  0  0  0  0  0  0  0  0  0  0  0  0  # atno 17371 bound_to 10713
  141.1628  133.6538  156.4377 LP  0  0  0  0  0  0  0  0  0  0  0  0  # atno 17394 bound_to 11000
  140.4761  134.6708  157.5150 LP  0  0  0  0  0  0  0  0  0  0  0  0  # atno 17395 bound_to 11000

$$$$
