AV-unprocessed.smi:3049|AV-procd|sdf|11630|dock10
  -GOLD-   2272017 23D 1   1.00000     0.00000
 Structure written by MMmdl.
 52 53  0  0  0  0  0  0  0  0  2 V2000
  153.0063  142.1766  160.1121 C   0  0  0  0  0  0  0  0  0  0  0  0
  152.3893  141.9174  158.7278 C   0  0  0  0  0  0  0  0  0  0  0  0
  151.1834  140.9438  158.7439 C   0  0  0  0  0  0  0  0  0  0  0  0
  151.6360  139.4666  158.6971 C   0  0  0  0  0  0  0  0  0  0  0  0
  152.9152  139.1825  159.4969 C   0  0  0  0  0  0  0  0  0  0  0  0
  150.1997  141.2166  157.5813 C   0  0  0  0  0  0  0  0  0  0  0  0
  149.0535  141.5712  157.8624 O   0  0  0  0  0  0  0  0  0  0  0  0
  150.5951  141.0334  156.2962 N   0  0  0  0  0  0  0  0  0  0  0  0
  151.9487  140.6954  155.8412 C   0  0  0  0  0  0  0  0  0  0  0  0
  151.9558  139.2234  155.3944 C   0  0  0  0  0  0  0  0  0  0  0  0
  150.9076  138.9796  154.2854 C   0  0  0  0  0  0  0  0  0  0  0  0
  150.7945  137.5483  154.0230 N   0  0  0  0  0  0  0  0  0  0  0  0
  150.4137  136.6246  154.9169 C   0  0  0  0  0  0  0  0  0  0  0  0
  150.1000  136.8966  156.0754 O   0  0  0  0  0  0  0  0  0  0  0  0
  150.4467  135.3934  154.3758 N   0  0  0  0  0  0  0  0  0  0  0  0
  150.0903  134.1690  154.9574 C   0  0  0  0  0  0  0  0  0  0  0  0
  150.2146  133.8001  156.2900 C   0  0  0  0  0  0  0  0  0  0  0  0
  149.8573  132.6343  156.8733 N   0  5  0  0  0  0  0  0  0  0  0  0
  149.2950  131.6654  156.0955 C   0  0  0  0  0  0  0  0  0  0  0  0
  148.9469  130.5811  156.5614 O   0  0  0  0  0  0  0  0  0  0  0  0
  149.1013  131.9324  154.6566 C   0  0  0  0  0  0  0  0  0  0  0  0
  148.4759  130.8530  153.7897 C   0  0  0  0  0  0  0  0  0  0  0  0
  149.4857  133.1264  154.1421 C   0  0  0  0  0  0  0  0  0  0  0  0
  149.5273  139.5708  154.6616 C   0  0  0  0  0  0  0  0  0  0  0  0
  149.6490  141.0178  155.1743 C   0  0  0  0  0  0  0  0  0  0  0  0
  153.8818  142.8206  160.0286 H   0  0  0  0  0  0  0  0  0  0  0  0
  153.3247  141.2448  160.5805 H   0  0  0  0  0  0  0  0  0  0  0  0
  152.3035  142.6671  160.7857 H   0  0  0  0  0  0  0  0  0  0  0  0
  152.1060  142.8670  158.2718 H   0  0  0  0  0  0  0  0  0  0  0  0
  153.1736  141.5116  158.0896 H   0  0  0  0  0  0  0  0  0  0  0  0
  150.6806  141.1282  159.6915 H   0  0  0  0  0  0  0  0  0  0  0  0
  150.8487  138.8239  159.0949 H   0  0  0  0  0  0  0  0  0  0  0  0
  151.7789  139.1551  157.6614 H   0  0  0  0  0  0  0  0  0  0  0  0
  153.1518  138.1186  159.4774 H   0  0  0  0  0  0  0  0  0  0  0  0
  152.8004  139.4758  160.5407 H   0  0  0  0  0  0  0  0  0  0  0  0
  153.7747  139.7146  159.0901 H   0  0  0  0  0  0  0  0  0  0  0  0
  152.2122  141.3346  154.9970 H   0  0  0  0  0  0  0  0  0  0  0  0
  152.7240  140.8875  156.5807 H   0  0  0  0  0  0  0  0  0  0  0  0
  152.9485  138.9458  155.0385 H   0  0  0  0  0  0  0  0  0  0  0  0
  151.7452  138.5866  156.2553 H   0  0  0  0  0  0  0  0  0  0  0  0
  151.2618  139.4839  153.3842 H   0  0  0  0  0  0  0  0  0  0  0  0
  151.0377  137.2352  153.0948 H   0  0  0  0  0  0  0  0  0  0  0  0
  150.7800  135.3291  153.4253 H   0  0  0  0  0  0  0  0  0  0  0  0
  150.6270  134.5380  157.0065 H   0  0  0  0  0  0  0  0  0  0  0  0
  148.3809  131.1806  152.7541 H   0  0  0  0  0  0  0  0  0  0  0  0
  147.4808  130.5987  154.1555 H   0  0  0  0  0  0  0  0  0  0  0  0
  149.0893  129.9516  153.8031 H   0  0  0  0  0  0  0  0  0  0  0  0
  149.3420  133.3130  153.0878 H   0  0  0  0  0  0  0  0  0  0  0  0
  148.8565  139.5377  153.8023 H   0  0  0  0  0  0  0  0  0  0  0  0
  149.0641  138.9583  155.4370 H   0  0  0  0  0  0  0  0  0  0  0  0
  148.6625  141.3984  155.4420 H   0  0  0  0  0  0  0  0  0  0  0  0
  150.0106  141.6703  154.3783 H   0  0  0  0  0  0  0  0  0  0  0  0
  1  2  1  0  0  0  0
  1 26  1  0  0  0  0
  1 27  1  0  0  0  0
  1 28  1  0  0  0  0
  2  3  1  0  0  0  0
  2 29  1  0  0  0  0
  2 30  1  0  0  0  0
  3  4  1  0  0  0  0
  3  6  1  0  0  0  0
  3 31  1  0  0  0  0
  4  5  1  0  0  0  0
  4 32  1  0  0  0  0
  4 33  1  0  0  0  0
  5 34  1  0  0  0  0
  5 35  1  0  0  0  0
  5 36  1  0  0  0  0
  6  7  2  0  0  0  0
  6  8  1  0  0  0  0
  8 25  1  0  0  0  0
  8  9  1  0  0  0  0
  9 10  1  0  0  0  0
  9 37  1  0  0  0  0
  9 38  1  0  0  0  0
 10 11  1  0  0  0  0
 10 39  1  0  0  0  0
 10 40  1  0  0  0  0
 11 12  1  0  0  0  0
 11 24  1  0  0  0  0
 11 41  1  0  0  0  0
 12 13  1  0  0  0  0
 12 42  1  0  0  0  0
 13 14  2  0  0  0  0
 13 15  1  0  0  0  0
 15 16  1  0  0  0  0
 15 43  1  0  0  0  0
 16 23  1  0  0  0  0
 16 17  2  0  0  0  0
 17 18  1  0  0  0  0
 17 44  1  0  0  0  0
 18 19  1  0  0  0  0
 19 20  2  0  0  0  0
 19 21  1  0  0  0  0
 21 22  1  0  0  0  0
 21 23  2  0  0  0  0
 22 45  1  0  0  0  0
 22 46  1  0  0  0  0
 22 47  1  0  0  0  0
 23 48  1  0  0  0  0
 24 25  1  0  0  0  0
 24 49  1  0  0  0  0
 24 50  1  0  0  0  0
 25 51  1  0  0  0  0
 25 52  1  0  0  0  0
M  CHG  1  18  -1
M  END
> <s_m_source_file>
AV-unprocessed.smi

> <i_m_source_file_index>
3049

> <i_lp_mmshare_version>
43012

> <i_f3d_flags>
0

> <s_epik_input>
W0NIM11bQ0gyXVtDSF0oW0NIMl1bQ0gzXSlDKD1PKU4xW0NIMl1bQ0gyXVtDSF0oW0NIMl1bQ0gyXTEpW05IXUMoPU8pW05IXWMyW2NIXVtuSF1jKD1PKWMoW0NIM10pW2NIXTI=

> <s_epik_cmdline>
J2VwaWtfcHl0aG9uJywgJy1waCcsICc3LjAnLCAnLXRuJywgJzgnLCAnLW1hJywgJzIwMCcsICctbWV0YWxfYmluZGluZycsICctaW1hZScsICc8aW5maWxlLm1hZT4nLCAnLW9tYWUnLCAnPG91dGZpbGUubWFlPic=

> <r_lp_tautomer_probability>
1

> <r_epik_Ionization_Penalty>
7.58311

> <r_epik_Ionization_Penalty_Charging>
1.51652

> <r_epik_Ionization_Penalty_Neutral>
6.06659

> <r_epik_State_Penalty>
6.06654

> <r_epik_Charging_Adjusted_Penalty>
7.58305

> <i_epik_Tot_Q>
-1

> <i_epik_Tot_abs_Q>
1

> <r_epik_Metal_State_Penalty>
2.01464

> <b_epik_Metal_Only>
1

> <s_lp_Force_Field>
OPLS_2005

> <r_lp_Energy>
39.554

> <b_lp_Chiralities_Consistent>
1

> <s_lp_Variant>
AV-unprocessed.smi:3049-2

> <Gold.Version>
5.8.1

> <Gold.Id.Protein>
6NUR|6NUR_protein|mol2

> <Gold.PLP.Fitness>
44.6089

> <Gold.PLP.PLP>
-41.6724

> <Gold.PLP.part.hbond>
-3.7992

> <Gold.PLP.part.metal>
0.0000

> <Gold.PLP.part.buried>
-3.6234

> <Gold.PLP.part.nonpolar>
-34.9369

> <Gold.PLP.part.repulsive>
0.3012

> <Gold.PLP.ligand.clash>
0.0000

> <Gold.PLP.ligand.torsion>
0.7834

> <Gold.PLP.Chemscore.Hbond>
1.4544

> <Gold.PLP.Chemscore.CHOScore>
0.0000

> <Gold.PLP.Chemscore.Metal>
0.0000

> <Gold.Chemscore.Hbonds>
donor molecule, donor type, donor heavy atom, donor atom, acceptor molecule, acceptor atom, score
      L1  H    12    42       P1  7949  0.99
      L1  H    15    43       P1  7949  0.42

> <Gold.PLP.Chemscore.Internal.Correction>
0.1401

> <Gold.Rescore>
     Score         DG    S(hbond)    S(metal)    S(lipo)     H(rot)  DE(clash)    DE(int)     intcor
     12.09     -14.06       0.31        0.00      98.04       1.54       0.11       1.86       ----

> <Gold.Chemscore.Fitness>
12.0900

> <Gold.Chemscore.DG>
-14.0575

> <Gold.Chemscore.ZeroCoef>
-5.4800

> <Gold.Chemscore.Hbond>
0.3117

> <Gold.Chemscore.Metal>
0.0000

> <Gold.Chemscore.Lipo>
98.0387

> <Gold.Chemscore.Internal_Hbond>
0.0000

> <Gold.Chemscore.DEClash>
0.1057

> <Gold.Chemscore.DEInternal>
1.8618

> <Gold.Chemscore.Rot>
1.5367

> <Gold.Chemscore.Internal.Correction>
   9.000000E+99

> <Gold.Chemscore.Hbonds>
donor molecule, donor type, donor heavy atom, donor atom, acceptor molecule, acceptor atom, score
      L1  H    12    42       P1  7949  0.32
      L1  H    15    43       P1  7949  0.01

> <Gold.Chemscore.Hbond.Weighted>
-1.0410

> <Gold.Chemscore.Metal.Weighted>
-0.0000

> <Gold.Chemscore.Lipo.Weighted>
-11.4705

> <Gold.Chemscore.Internal_Hbond.Weighted>
0.0000

> <Gold.Chemscore.DEClash.Weighted>
0.1057

> <Gold.Chemscore.DEInternal.Weighted>
1.8618

> <Gold.Chemscore.Rot.Weighted>
3.9340

> <Gold.Chemscore.Internal.Correction.Weighted>
   9.000000E+99

> <Gold.Protein.RotatedTorsions>
[ 6907 6896 6895 6894 ] final  -60.10 input  -60.11 | X-H torsion
[ 7974 7965 7964 7962 ] final   32.50 input  175.53 | X-H torsion
[ 8008 7997 7996 7995 ] final  132.80 input   59.86 | X-H torsion
[ 10167 10162 10161 10158 ] final  -20.00 input  -65.29 | X-H torsion
[ 10718 10713 10712 10709 ] final  -12.95 input   66.30 | X-H torsion
[ 10763 10752 10751 10750 ] final   48.60 input  -60.55 | X-H torsion
[ 11005 11000 10999 10996 ] final  139.80 input  -57.11 | X-H torsion

> <Gold.Protein.ActiveResidues>
 VAL166  LYS551  ARG553  GLY616  TRP617  ASP618  TYR619  PRO620  LYS621  CYS622 
 ASP623  PHE694  ASN695  SER759  ASP760  ASP761  ALA762  ILE779  LEU786  VAL792 
 PHE793  MET794  SER795  GLU796  ALA797  LYS798  CYS799  TRP800  GLU811  SER814 

> <Gold.Protein.RotatedAtoms>
  150.7881  134.6882  159.6481 H   0  0  0  0  0  0  0  0  0  0  0  0  # atno 6907 bound_to 6896
  152.3981  134.6328  160.0090 H   0  0  0  0  0  0  0  0  0  0  0  0  # atno 6908 bound_to 6896
  151.6608  133.3280  159.3210 H   0  0  0  0  0  0  0  0  0  0  0  0  # atno 6909 bound_to 6896
  146.1482  139.6518  142.9116 H   0  0  0  0  0  0  0  0  0  0  0  0  # atno 7974 bound_to 7965
  156.2986  140.2537  156.3149 H   0  0  0  0  0  0  0  0  0  0  0  0  # atno 8008 bound_to 7997
  154.9290  140.0399  157.2057 H   0  0  0  0  0  0  0  0  0  0  0  0  # atno 8009 bound_to 7997
  154.8236  140.2864  155.5774 H   0  0  0  0  0  0  0  0  0  0  0  0  # atno 8010 bound_to 7997
  140.7273  143.4765  151.0176 H   0  0  0  0  0  0  0  0  0  0  0  0  # atno 10167 bound_to 10162
  156.6373  130.4918  149.6107 H   0  0  0  0  0  0  0  0  0  0  0  0  # atno 10718 bound_to 10713
  152.9791  135.5939  154.3953 H   0  0  0  0  0  0  0  0  0  0  0  0  # atno 10763 bound_to 10752
  154.3604  135.2767  155.2325 H   0  0  0  0  0  0  0  0  0  0  0  0  # atno 10764 bound_to 10752
  154.4325  135.6033  153.6132 H   0  0  0  0  0  0  0  0  0  0  0  0  # atno 10765 bound_to 10752
  140.0281  134.9365  157.0608 H   0  0  0  0  0  0  0  0  0  0  0  0  # atno 11005 bound_to 11000
  145.4886  141.0438  143.2606 LP  0  0  0  0  0  0  0  0  0  0  0  0  # atno 17320 bound_to 7965
  144.7872  139.6402  143.7129 LP  0  0  0  0  0  0  0  0  0  0  0  0  # atno 17321 bound_to 7965
  139.8460  143.7501  152.3179 LP  0  0  0  0  0  0  0  0  0  0  0  0  # atno 17342 bound_to 10162
  139.7666  144.7490  151.0285 LP  0  0  0  0  0  0  0  0  0  0  0  0  # atno 17343 bound_to 10162
  156.2187  130.6724  151.1346 LP  0  0  0  0  0  0  0  0  0  0  0  0  # atno 17370 bound_to 10713
  157.7182  131.0697  150.6244 LP  0  0  0  0  0  0  0  0  0  0  0  0  # atno 17371 bound_to 10713
  140.4272  134.1818  155.7166 LP  0  0  0  0  0  0  0  0  0  0  0  0  # atno 17394 bound_to 11000
  141.1815  133.8404  157.1242 LP  0  0  0  0  0  0  0  0  0  0  0  0  # atno 17395 bound_to 11000

$$$$
