AV-unprocessed.smi:249|AV-procd|sdf|1917|dock6
  -GOLD-   2262021 13D 1   1.00000     0.00000
 Structure written by MMmdl.
 64 67  0  0  0  0  0  0  0  0  2 V2000
  144.1728  134.8233  151.2170 C   0  0  0  0  0  0  0  0  0  0  0  0
  145.6085  135.3034  150.9470 C   0  0  0  0  0  0  0  0  0  0  0  0
  146.2000  136.0760  152.0781 N   0  3  1  0  0  0  0  0  0  0  0  0
  145.5565  137.4134  152.2308 C   0  0  0  0  0  0  0  0  0  0  0  0
  146.2437  138.2685  153.3040 C   0  0  0  0  0  0  0  0  0  0  0  0
  146.2408  137.5380  154.6540 C   0  0  2  0  0  0  0  0  0  0  0  0
  146.8580  138.3288  155.7276 N   0  0  0  0  0  0  0  0  0  0  0  0
  146.4575  138.1215  157.1177 C   0  0  0  0  0  0  0  0  0  0  0  0
  148.0625  138.9323  155.5214 C   0  0  0  0  0  0  0  0  0  0  0  0
  148.7525  138.6728  154.3779 N   0  0  0  0  0  0  0  0  0  0  0  0
  149.9405  139.2403  154.1532 C   0  0  0  0  0  0  0  0  0  0  0  0
  150.6157  140.0928  154.9244 N   0  0  0  0  0  0  0  0  0  0  0  0
  149.9297  140.3717  156.0684 C   0  0  0  0  0  0  0  0  0  0  0  0
  148.6627  139.8396  156.4456 C   0  0  0  0  0  0  0  0  0  0  0  0
  148.2864  140.3640  157.6779 N   0  0  0  0  0  0  0  0  0  0  0  0
  149.2741  141.1478  158.0128 C   0  0  0  0  0  0  0  0  0  0  0  0
  150.2942  141.2277  157.0930 N   0  0  0  0  0  0  0  0  0  0  0  0
  151.5080  142.0169  157.2097 C   0  0  0  0  0  0  0  0  0  0  0  0
  151.7181  142.6968  158.5923 C   0  0  2  0  0  0  0  0  0  0  0  0
  151.6962  144.2340  158.4094 C   0  0  0  0  0  0  0  0  0  0  0  0
  150.3832  144.7099  158.1954 O   0  0  0  0  0  0  0  0  0  0  0  0
  153.0174  142.2273  159.3140 C   0  0  2  0  0  0  0  0  0  0  0  0
  153.2215  140.7129  159.3999 C   0  0  0  0  0  0  0  0  0  0  0  0
  153.9014  140.4727  160.7506 C   0  0  0  0  0  0  0  0  0  0  0  0
  154.1326  141.7633  161.2909 O   0  0  0  0  0  0  0  0  0  0  0  0
  153.1189  142.6158  160.7926 C   0  0  0  0  0  0  0  0  0  0  0  0
  146.9115  136.1671  154.4799 C   0  0  0  0  0  0  0  0  0  0  0  0
  146.2269  135.3279  153.3787 C   0  0  2  0  0  0  0  0  0  0  0  0
  146.9415  133.9634  153.2854 C   0  0  0  0  0  0  0  0  0  0  0  0
  143.7346  134.4108  150.3078 H   0  0  0  0  0  0  0  0  0  0  0  0
  143.5353  135.6452  151.5444 H   0  0  0  0  0  0  0  0  0  0  0  0
  144.1307  134.0362  151.9691 H   0  0  0  0  0  0  0  0  0  0  0  0
  146.2515  134.4588  150.6956 H   0  0  0  0  0  0  0  0  0  0  0  0
  145.5466  135.9226  150.0551 H   0  0  0  0  0  0  0  0  0  0  0  0
  145.5935  137.9698  151.2959 H   0  0  0  0  0  0  0  0  0  0  0  0
  144.5014  137.2829  152.4770 H   0  0  0  0  0  0  0  0  0  0  0  0
  147.2629  138.4942  152.9894 H   0  0  0  0  0  0  0  0  0  0  0  0
  145.7288  139.2257  153.3909 H   0  0  0  0  0  0  0  0  0  0  0  0
  145.2054  137.3314  154.9284 H   0  0  0  0  0  0  0  0  0  0  0  0
  145.8922  138.9812  157.4777 H   0  0  0  0  0  0  0  0  0  0  0  0
  147.3246  137.9828  157.7647 H   0  0  0  0  0  0  0  0  0  0  0  0
  145.8279  137.2399  157.2311 H   0  0  0  0  0  0  0  0  0  0  0  0
  150.4189  138.9739  153.2222 H   0  0  0  0  0  0  0  0  0  0  0  0
  149.2779  141.7039  158.9390 H   0  0  0  0  0  0  0  0  0  0  0  0
  152.3602  141.3762  156.9798 H   0  0  0  0  0  0  0  0  0  0  0  0
  151.4703  142.7647  156.4169 H   0  0  0  0  0  0  0  0  0  0  0  0
  150.8749  142.4442  159.2364 H   0  0  0  0  0  0  0  0  0  0  0  0
  152.0657  144.7483  159.2956 H   0  0  0  0  0  0  0  0  0  0  0  0
  152.3310  144.5349  157.5753 H   0  0  0  0  0  0  0  0  0  0  0  0
  150.1674  144.5974  157.2820 H   0  0  0  0  0  0  0  0  0  0  0  0
  153.8809  142.6598  158.8056 H   0  0  0  0  0  0  0  0  0  0  0  0
  152.2732  140.1756  159.3713 H   0  0  0  0  0  0  0  0  0  0  0  0
  153.8394  140.3463  158.5808 H   0  0  0  0  0  0  0  0  0  0  0  0
  153.2440  139.9130  161.4174 H   0  0  0  0  0  0  0  0  0  0  0  0
  154.8380  139.9227  160.6546 H   0  0  0  0  0  0  0  0  0  0  0  0
  153.3917  143.6612  160.9394 H   0  0  0  0  0  0  0  0  0  0  0  0
  152.1842  142.4218  161.3217 H   0  0  0  0  0  0  0  0  0  0  0  0
  147.9670  136.2860  154.2325 H   0  0  0  0  0  0  0  0  0  0  0  0
  146.8775  135.6297  155.4287 H   0  0  0  0  0  0  0  0  0  0  0  0
  145.1941  135.1463  153.6818 H   0  0  0  0  0  0  0  0  0  0  0  0
  147.0861  133.5316  154.2764 H   0  0  0  0  0  0  0  0  0  0  0  0
  147.9248  134.0581  152.8236 H   0  0  0  0  0  0  0  0  0  0  0  0
  146.3657  133.2301  152.7222 H   0  0  0  0  0  0  0  0  0  0  0  0
  147.1649  136.2450  151.8317 H   0  0  0  0  0  0  0  0  0  0  0  0
  1  2  1  0  0  0  0
  1 30  1  0  0  0  0
  1 31  1  0  0  0  0
  1 32  1  0  0  0  0
  2  3  1  0  0  0  0
  2 33  1  0  0  0  0
  2 34  1  0  0  0  0
  3 28  1  0  0  0  0
  3  4  1  0  0  0  0
  3 64  1  0  0  0  0
  4  5  1  0  0  0  0
  4 35  1  0  0  0  0
  4 36  1  0  0  0  0
  5  6  1  0  0  0  0
  5 37  1  0  0  0  0
  5 38  1  0  0  0  0
  6  7  1  0  0  0  0
  6 27  1  0  0  0  0
  6 39  1  0  0  0  0
  7  8  1  0  0  0  0
  7  9  1  0  0  0  0
  8 40  1  0  0  0  0
  8 41  1  0  0  0  0
  8 42  1  0  0  0  0
  9 14  1  0  0  0  0
  9 10  2  0  0  0  0
 10 11  1  0  0  0  0
 11 12  2  0  0  0  0
 11 43  1  0  0  0  0
 12 13  1  0  0  0  0
 13 17  1  0  0  0  0
 13 14  2  0  0  0  0
 14 15  1  0  0  0  0
 15 16  2  0  0  0  0
 16 17  1  0  0  0  0
 16 44  1  0  0  0  0
 17 18  1  0  0  0  0
 18 19  1  0  0  0  0
 18 45  1  0  0  0  0
 18 46  1  0  0  0  0
 19 20  1  0  0  0  0
 19 22  1  0  0  0  0
 19 47  1  0  0  0  0
 20 21  1  0  0  0  0
 20 48  1  0  0  0  0
 20 49  1  0  0  0  0
 21 50  1  0  0  0  0
 22 26  1  0  0  0  0
 22 23  1  0  0  0  0
 22 51  1  0  0  0  0
 23 24  1  0  0  0  0
 23 52  1  0  0  0  0
 23 53  1  0  0  0  0
 24 25  1  0  0  0  0
 24 54  1  0  0  0  0
 24 55  1  0  0  0  0
 25 26  1  0  0  0  0
 26 56  1  0  0  0  0
 26 57  1  0  0  0  0
 27 28  1  0  0  0  0
 27 58  1  0  0  0  0
 27 59  1  0  0  0  0
 28 29  1  0  0  0  0
 28 60  1  0  0  0  0
 29 61  1  0  0  0  0
 29 62  1  0  0  0  0
 29 63  1  0  0  0  0
M  CHG  1   3   1
M  END
> <s_m_source_file>
AV-unprocessed.smi

> <i_m_source_file_index>
249

> <i_lp_mmshare_version>
43012

> <i_f3d_flags>
0

> <s_epik_input>
W0NIM11bQ0gyXU4xW0NIMl1bQ0gyXVtDQEhdKFtDSDJdW0NASF0xW0NIM10pTihbQ0gzXSljKG5bY0hdbjIpYyhjMjMpbltjSF1uM1tDSDJdW0NASF0oW0NIMl1bT0hdKVtDQEBIXTRbQ0gyXVtDSDJdT1tDSDJdNA==

> <s_epik_cmdline>
J2VwaWtfcHl0aG9uJywgJy1waCcsICc3LjAnLCAnLXRuJywgJzgnLCAnLW1hJywgJzIwMCcsICctbWV0YWxfYmluZGluZycsICctaW1hZScsICc8aW5maWxlLm1hZT4nLCAnLW9tYWUnLCAnPG91dGZpbGUubWFlPic=

> <r_lp_tautomer_probability>
1

> <r_epik_Ionization_Penalty>
0.00294688

> <r_epik_Ionization_Penalty_Charging>
0.00169971

> <r_epik_Ionization_Penalty_Neutral>
0.00124717

> <r_epik_State_Penalty>
-0

> <r_epik_Charging_Adjusted_Penalty>
0.00169971

> <i_epik_Tot_Q>
1

> <i_epik_Tot_abs_Q>
1

> <r_epik_Metal_State_Penalty>
-0

> <b_epik_Metal_Only>
0

> <s_lp_Force_Field>
OPLS_2005

> <r_lp_Energy>
53.9477

> <b_lp_Chiralities_Consistent>
1

> <s_lp_Variant>
AV-unprocessed.smi:249-20

> <Gold.Version>
5.8.1

> <Gold.Id.Protein>
6NUR|6NUR_protein|mol2

> <Gold.PLP.Fitness>
53.5016

> <Gold.PLP.PLP>
-42.5990

> <Gold.PLP.part.hbond>
-4.8008

> <Gold.PLP.part.metal>
0.0000

> <Gold.PLP.part.buried>
-5.0306

> <Gold.PLP.part.nonpolar>
-33.3496

> <Gold.PLP.part.repulsive>
0.2705

> <Gold.PLP.ligand.clash>
0.0000

> <Gold.PLP.ligand.torsion>
1.7839

> <Gold.PLP.Chemscore.Hbond>
3.8000

> <Gold.PLP.Chemscore.CHOScore>
0.7716

> <Gold.PLP.Chemscore.Metal>
0.0000

> <Gold.Chemscore.Hbonds>
donor molecule, donor type, donor heavy atom, donor atom, acceptor molecule, acceptor atom, score
      L1  H     3    64       P1  7948  2.00
      L1  H    21    50       P1  8028  0.99
      P1  H  7989  7998       L1    12  0.80
      L1  C    11    43       P1  7957  0.78

> <Gold.PLP.Chemscore.Internal.Correction>
0.7557

> <Gold.Rescore>
     Score         DG    S(hbond)    S(metal)    S(lipo)     H(rot)  DE(clash)    DE(int)     intcor
     12.24     -16.70       1.90        0.00      99.76       2.65       0.08       4.38       ----

> <Gold.Chemscore.Fitness>
12.2351

> <Gold.Chemscore.DG>
-16.6952

> <Gold.Chemscore.ZeroCoef>
-5.4800

> <Gold.Chemscore.Hbond>
1.8957

> <Gold.Chemscore.Metal>
0.0000

> <Gold.Chemscore.Lipo>
99.7571

> <Gold.Chemscore.Internal_Hbond>
0.0000

> <Gold.Chemscore.DEClash>
0.0809

> <Gold.Chemscore.DEInternal>
4.3791

> <Gold.Chemscore.Rot>
2.6515

> <Gold.Chemscore.Internal.Correction>
   9.000000E+99

> <Gold.Chemscore.Hbonds>
donor molecule, donor type, donor heavy atom, donor atom, acceptor molecule, acceptor atom, score
      L1  H     3    64       P1  7948  1.00
      L1  H    21    50       P1  8028  0.35
      P1  H  7989  7998       L1    12  0.12

> <Gold.Chemscore.Hbond.Weighted>
-6.3315

> <Gold.Chemscore.Metal.Weighted>
-0.0000

> <Gold.Chemscore.Lipo.Weighted>
-11.6716

> <Gold.Chemscore.Internal_Hbond.Weighted>
0.0000

> <Gold.Chemscore.DEClash.Weighted>
0.0809

> <Gold.Chemscore.DEInternal.Weighted>
4.3791

> <Gold.Chemscore.Rot.Weighted>
6.7880

> <Gold.Chemscore.Internal.Correction.Weighted>
   9.000000E+99

> <Gold.Protein.RotatedTorsions>
[ 6907 6896 6895 6894 ] final  107.65 input  -60.11 | X-H torsion
[ 7974 7965 7964 7962 ] final -177.59 input  175.53 | X-H torsion
[ 8008 7997 7996 7995 ] final   27.74 input   59.86 | X-H torsion
[ 10167 10162 10161 10158 ] final   98.77 input  -65.29 | X-H torsion
[ 10718 10713 10712 10709 ] final  178.57 input   66.30 | X-H torsion
[ 10763 10752 10751 10750 ] final  -47.84 input  -60.55 | X-H torsion
[ 11005 11000 10999 10996 ] final  -20.20 input  -57.11 | X-H torsion

> <Gold.Protein.ActiveResidues>
 VAL166  LYS551  ARG553  GLY616  TRP617  ASP618  TYR619  PRO620  LYS621  CYS622 
 ASP623  PHE694  ASN695  SER759  ASP760  ASP761  ALA762  ILE779  LEU786  VAL792 
 PHE793  MET794  SER795  GLU796  ALA797  LYS798  CYS799  TRP800  GLU811  SER814 

> <Gold.Protein.RotatedAtoms>
  152.5145  133.9203  159.7530 H   0  0  0  0  0  0  0  0  0  0  0  0  # atno 6907 bound_to 6896
  150.9576  133.6471  159.2767 H   0  0  0  0  0  0  0  0  0  0  0  0  # atno 6908 bound_to 6896
  151.3728  135.0931  159.9523 H   0  0  0  0  0  0  0  0  0  0  0  0  # atno 6909 bound_to 6896
  144.7128  140.0996  143.6417 H   0  0  0  0  0  0  0  0  0  0  0  0  # atno 7974 bound_to 7965
  155.0477  140.3176  155.4702 H   0  0  0  0  0  0  0  0  0  0  0  0  # atno 8008 bound_to 7997
  156.2841  140.2151  156.5546 H   0  0  0  0  0  0  0  0  0  0  0  0  # atno 8009 bound_to 7997
  154.7236  140.0487  157.0650 H   0  0  0  0  0  0  0  0  0  0  0  0  # atno 8010 bound_to 7997
  139.7678  144.6933  151.0199 H   0  0  0  0  0  0  0  0  0  0  0  0  # atno 10167 bound_to 10162
  156.8886  130.9840  151.3052 H   0  0  0  0  0  0  0  0  0  0  0  0  # atno 10718 bound_to 10713
  154.0679  135.6609  153.4820 H   0  0  0  0  0  0  0  0  0  0  0  0  # atno 10763 bound_to 10752
  153.0402  135.5150  154.7595 H   0  0  0  0  0  0  0  0  0  0  0  0  # atno 10764 bound_to 10752
  154.6652  135.3021  154.9782 H   0  0  0  0  0  0  0  0  0  0  0  0  # atno 10765 bound_to 10752
  140.8441  133.7904  155.9893 H   0  0  0  0  0  0  0  0  0  0  0  0  # atno 11005 bound_to 11000
  145.9549  139.2759  143.1190 LP  0  0  0  0  0  0  0  0  0  0  0  0  # atno 17320 bound_to 7965
  145.9283  140.9066  143.0369 LP  0  0  0  0  0  0  0  0  0  0  0  0  # atno 17321 bound_to 7965
  140.7812  143.4623  151.0261 LP  0  0  0  0  0  0  0  0  0  0  0  0  # atno 17342 bound_to 10162
  139.8307  143.7694  152.3179 LP  0  0  0  0  0  0  0  0  0  0  0  0  # atno 17343 bound_to 10162
  157.6097  130.8574  149.8932 LP  0  0  0  0  0  0  0  0  0  0  0  0  # atno 17370 bound_to 10713
  156.0640  130.3695  150.0918 LP  0  0  0  0  0  0  0  0  0  0  0  0  # atno 17371 bound_to 10713
  140.8862  134.2550  157.5118 LP  0  0  0  0  0  0  0  0  0  0  0  0  # atno 17394 bound_to 11000
  139.8703  134.9639  156.4479 LP  0  0  0  0  0  0  0  0  0  0  0  0  # atno 17395 bound_to 11000

$$$$
