AV-unprocessed.smi:1856|AV-procd|sdf|7538|dock2
  -GOLD-   22720 9253D 1   1.00000     0.00000
 Structure written by MMmdl.
 45 46  0  0  0  0  0  0  0  0  2 V2000
  148.1398  136.3052  161.2047 C   0  0  0  0  0  0  0  0  0  0  0  0
  148.3720  135.7872  159.7813 C   0  0  0  0  0  0  0  0  0  0  0  0
  148.6608  136.9226  158.7816 C   0  0  0  0  0  0  0  0  0  0  0  0
  150.1190  137.3933  158.7877 C   0  0  0  0  0  0  0  0  0  0  0  0
  150.9438  136.8978  159.5564 O   0  0  0  0  0  0  0  0  0  0  0  0
  150.4229  138.3729  157.9213 N   0  0  0  0  0  0  0  0  0  0  0  0
  151.7476  138.9670  157.7542 C   0  0  1  0  0  0  0  0  0  0  0  0
  152.2057  138.8119  156.2985 C   0  0  0  0  0  0  0  0  0  0  0  0
  151.7901  140.4108  158.1670 C   0  0  0  0  0  0  0  0  0  0  0  0
  152.1987  140.8881  159.3785 N   0  3  0  0  0  0  0  0  0  0  0  0
  152.1122  142.2798  159.3945 C   0  0  0  0  0  0  0  0  0  0  0  0
  152.4255  143.2013  160.3886 C   0  0  0  0  0  0  0  0  0  0  0  0
  152.2208  144.5617  160.0773 C   0  0  0  0  0  0  0  0  0  0  0  0
  151.7211  144.9601  158.8204 C   0  0  0  0  0  0  0  0  0  0  0  0
  151.4050  144.0157  157.8213 C   0  0  0  0  0  0  0  0  0  0  0  0
  151.6127  142.6732  158.1368 C   0  0  0  0  0  0  0  0  0  0  0  0
  151.4207  141.4894  157.4161 N   0  0  0  0  0  0  0  0  0  0  0  0
  150.8851  141.5676  156.0480 C   0  0  0  0  0  0  0  0  0  0  0  0
  149.3693  141.3005  155.9794 C   0  0  2  0  0  0  0  0  0  0  0  0
  148.8346  141.3838  154.5448 C   0  0  0  0  0  0  0  0  0  0  0  0
  148.6740  142.2410  156.7720 O   0  0  0  0  0  0  0  0  0  0  0  0
  147.9365  135.4809  161.8887 H   0  0  0  0  0  0  0  0  0  0  0  0
  147.2892  136.9862  161.2422 H   0  0  0  0  0  0  0  0  0  0  0  0
  149.0148  136.8383  161.5771 H   0  0  0  0  0  0  0  0  0  0  0  0
  149.2036  135.0812  159.7936 H   0  0  0  0  0  0  0  0  0  0  0  0
  147.4932  135.2259  159.4605 H   0  0  0  0  0  0  0  0  0  0  0  0
  148.4067  136.5957  157.7725 H   0  0  0  0  0  0  0  0  0  0  0  0
  148.0229  137.7788  159.0046 H   0  0  0  0  0  0  0  0  0  0  0  0
  149.6880  138.7215  157.3229 H   0  0  0  0  0  0  0  0  0  0  0  0
  152.4379  138.4062  158.3859 H   0  0  0  0  0  0  0  0  0  0  0  0
  153.2201  139.1896  156.1659 H   0  0  0  0  0  0  0  0  0  0  0  0
  151.5553  139.3586  155.6147 H   0  0  0  0  0  0  0  0  0  0  0  0
  152.2039  137.7644  155.9951 H   0  0  0  0  0  0  0  0  0  0  0  0
  152.8088  142.8983  161.3519 H   0  0  0  0  0  0  0  0  0  0  0  0
  152.4521  145.3148  160.8170 H   0  0  0  0  0  0  0  0  0  0  0  0
  151.5777  146.0117  158.6179 H   0  0  0  0  0  0  0  0  0  0  0  0
  151.0247  144.3312  156.8608 H   0  0  0  0  0  0  0  0  0  0  0  0
  151.1167  142.5569  155.6521 H   0  0  0  0  0  0  0  0  0  0  0  0
  151.4317  140.8592  155.4245 H   0  0  0  0  0  0  0  0  0  0  0  0
  149.1543  140.3082  156.3765 H   0  0  0  0  0  0  0  0  0  0  0  0
  149.3284  140.6555  153.9011 H   0  0  0  0  0  0  0  0  0  0  0  0
  148.9994  142.3728  154.1154 H   0  0  0  0  0  0  0  0  0  0  0  0
  147.7636  141.1805  154.5111 H   0  0  0  0  0  0  0  0  0  0  0  0
  148.8060  143.1030  156.4072 H   0  0  0  0  0  0  0  0  0  0  0  0
  152.5253  140.2988  160.1333 H   0  0  0  0  0  0  0  0  0  0  0  0
  1  2  1  0  0  0  0
  1 22  1  0  0  0  0
  1 23  1  0  0  0  0
  1 24  1  0  0  0  0
  2  3  1  0  0  0  0
  2 25  1  0  0  0  0
  2 26  1  0  0  0  0
  3  4  1  0  0  0  0
  3 27  1  0  0  0  0
  3 28  1  0  0  0  0
  4  5  2  0  0  0  0
  4  6  1  0  0  0  0
  6  7  1  0  0  0  0
  6 29  1  0  0  0  0
  7  8  1  0  0  0  0
  7  9  1  0  0  0  0
  7 30  1  0  0  0  0
  8 31  1  0  0  0  0
  8 32  1  0  0  0  0
  8 33  1  0  0  0  0
  9 17  1  0  0  0  0
  9 10  2  0  0  0  0
 10 11  1  0  0  0  0
 10 45  1  0  0  0  0
 11 16  2  0  0  0  0
 11 12  1  0  0  0  0
 12 13  2  0  0  0  0
 12 34  1  0  0  0  0
 13 14  1  0  0  0  0
 13 35  1  0  0  0  0
 14 15  2  0  0  0  0
 14 36  1  0  0  0  0
 15 16  1  0  0  0  0
 15 37  1  0  0  0  0
 16 17  1  0  0  0  0
 17 18  1  0  0  0  0
 18 19  1  0  0  0  0
 18 38  1  0  0  0  0
 18 39  1  0  0  0  0
 19 20  1  0  0  0  0
 19 21  1  0  0  0  0
 19 40  1  0  0  0  0
 20 41  1  0  0  0  0
 20 42  1  0  0  0  0
 20 43  1  0  0  0  0
 21 44  1  0  0  0  0
M  CHG  1  10   1
M  END
> <s_m_source_file>
AV-unprocessed.smi

> <i_m_source_file_index>
1856

> <i_lp_mmshare_version>
43012

> <i_f3d_flags>
0

> <s_epik_input>
W0NIM11bQ0gyXVtDSDJdQyg9TylbTkhdW0NASF0oW0NIM10pYyhuMSluKFtDSDJdW0NASF0oW0NIM10pW09IXSljKGMxMilbY0hdW2NIXVtjSF1bY0hdMg==

> <s_epik_cmdline>
J2VwaWtfcHl0aG9uJywgJy1waCcsICc3LjAnLCAnLXRuJywgJzgnLCAnLW1hJywgJzIwMCcsICctbWV0YWxfYmluZGluZycsICctaW1hZScsICc8aW5maWxlLm1hZT4nLCAnLW9tYWUnLCAnPG91dGZpbGUubWFlPic=

> <r_epik_Ionization_Penalty>
0.945588

> <r_epik_Ionization_Penalty_Charging>
0.945588

> <r_epik_Ionization_Penalty_Neutral>
8.64698e-08

> <r_epik_State_Penalty>
0.989378

> <r_epik_Charging_Adjusted_Penalty>
1.93497

> <i_epik_Tot_Q>
1

> <i_epik_Tot_abs_Q>
1

> <r_epik_Metal_State_Penalty>
1.10045

> <b_epik_Metal_Only>
0

> <s_lp_Force_Field>
OPLS_2005

> <r_lp_Energy>
6.55933

> <b_lp_Chiralities_Consistent>
1

> <s_lp_Variant>
AV-unprocessed.smi:1856-6

> <Gold.Version>
5.8.1

> <Gold.Id.Protein>
6NUR|6NUR_protein|mol2

> <Gold.PLP.Fitness>
49.3311

> <Gold.PLP.PLP>
-45.3606

> <Gold.PLP.part.hbond>
-2.0000

> <Gold.PLP.part.metal>
0.0000

> <Gold.PLP.part.buried>
-5.9914

> <Gold.PLP.part.nonpolar>
-37.3460

> <Gold.PLP.part.repulsive>
0.2000

> <Gold.PLP.ligand.clash>
0.0000

> <Gold.PLP.ligand.torsion>
1.0496

> <Gold.PLP.Chemscore.Hbond>
2.0000

> <Gold.PLP.Chemscore.CHOScore>
0.0000

> <Gold.PLP.Chemscore.Metal>
0.0000

> <Gold.Chemscore.Hbonds>
donor molecule, donor type, donor heavy atom, donor atom, acceptor molecule, acceptor atom, score
      L1  H    21    44       P1  8028  1.00
      P1  H  6896  6907       L1     5  1.00

> <Gold.PLP.Chemscore.Internal.Correction>
0.0696

> <Gold.Rescore>
     Score         DG    S(hbond)    S(metal)    S(lipo)     H(rot)  DE(clash)    DE(int)     intcor
     17.07     -19.41       1.99        0.00     117.39       2.52       0.09       2.25       ----

> <Gold.Chemscore.Fitness>
17.0721

> <Gold.Chemscore.DG>
-19.4132

> <Gold.Chemscore.ZeroCoef>
-5.4800

> <Gold.Chemscore.Hbond>
1.9878

> <Gold.Chemscore.Metal>
0.0000

> <Gold.Chemscore.Lipo>
117.3925

> <Gold.Chemscore.Internal_Hbond>
0.0000

> <Gold.Chemscore.DEClash>
0.0875

> <Gold.Chemscore.DEInternal>
2.2535

> <Gold.Chemscore.Rot>
2.5161

> <Gold.Chemscore.Internal.Correction>
   9.000000E+99

> <Gold.Chemscore.Hbonds>
donor molecule, donor type, donor heavy atom, donor atom, acceptor molecule, acceptor atom, score
      L1  H    21    44       P1  8028  0.97
      P1  H  6896  6907       L1     5  0.99

> <Gold.Chemscore.Hbond.Weighted>
-6.6394

> <Gold.Chemscore.Metal.Weighted>
-0.0000

> <Gold.Chemscore.Lipo.Weighted>
-13.7349

> <Gold.Chemscore.Internal_Hbond.Weighted>
0.0000

> <Gold.Chemscore.DEClash.Weighted>
0.0875

> <Gold.Chemscore.DEInternal.Weighted>
2.2535

> <Gold.Chemscore.Rot.Weighted>
6.4412

> <Gold.Chemscore.Internal.Correction.Weighted>
   9.000000E+99

> <Gold.Protein.RotatedTorsions>
[ 6907 6896 6895 6894 ] final  -28.40 input  -60.11 | X-H torsion
[ 7974 7965 7964 7962 ] final  -56.82 input  175.53 | X-H torsion
[ 8008 7997 7996 7995 ] final -149.28 input   59.86 | X-H torsion
[ 10167 10162 10161 10158 ] final -148.88 input  -65.29 | X-H torsion
[ 10718 10713 10712 10709 ] final   57.26 input   66.30 | X-H torsion
[ 10763 10752 10751 10750 ] final  -83.85 input  -60.55 | X-H torsion
[ 11005 11000 10999 10996 ] final  102.41 input  -57.11 | X-H torsion

> <Gold.Protein.ActiveResidues>
 VAL166  LYS551  ARG553  GLY616  TRP617  ASP618  TYR619  PRO620  LYS621  CYS622 
 ASP623  PHE694  ASN695  SER759  ASP760  ASP761  ALA762  ILE779  LEU786  VAL792 
 PHE793  MET794  SER795  GLU796  ALA797  LYS798  CYS799  TRP800  GLU811  SER814 

> <Gold.Protein.RotatedAtoms>
  151.1335  135.0143  159.8593 H   0  0  0  0  0  0  0  0  0  0  0  0  # atno 6907 bound_to 6896
  152.5451  134.1582  159.8557 H   0  0  0  0  0  0  0  0  0  0  0  0  # atno 6908 bound_to 6896
  151.1651  133.4775  159.2627 H   0  0  0  0  0  0  0  0  0  0  0  0  # atno 6909 bound_to 6896
  145.8583  140.8304  142.9950 H   0  0  0  0  0  0  0  0  0  0  0  0  # atno 7974 bound_to 7965
  155.6050  140.0666  157.2722 H   0  0  0  0  0  0  0  0  0  0  0  0  # atno 8008 bound_to 7997
  154.4268  140.1811  156.1261 H   0  0  0  0  0  0  0  0  0  0  0  0  # atno 8009 bound_to 7997
  156.0129  140.3325  155.6963 H   0  0  0  0  0  0  0  0  0  0  0  0  # atno 8010 bound_to 7997
  139.7492  143.8544  152.2582 H   0  0  0  0  0  0  0  0  0  0  0  0  # atno 10167 bound_to 10162
  157.5500  130.8759  149.8949 H   0  0  0  0  0  0  0  0  0  0  0  0  # atno 10718 bound_to 10713
  154.5926  135.5541  153.7294 H   0  0  0  0  0  0  0  0  0  0  0  0  # atno 10763 bound_to 10752
  153.0123  135.6347  154.1827 H   0  0  0  0  0  0  0  0  0  0  0  0  # atno 10764 bound_to 10752
  154.1768  135.2889  155.3044 H   0  0  0  0  0  0  0  0  0  0  0  0  # atno 10765 bound_to 10752
  139.8777  134.9223  156.5053 H   0  0  0  0  0  0  0  0  0  0  0  0  # atno 11005 bound_to 11000
  144.6727  140.1056  143.7458 LP  0  0  0  0  0  0  0  0  0  0  0  0  # atno 17320 bound_to 7965
  145.9278  139.2587  143.1343 LP  0  0  0  0  0  0  0  0  0  0  0  0  # atno 17321 bound_to 7965
  139.8517  144.7161  150.9206 LP  0  0  0  0  0  0  0  0  0  0  0  0  # atno 17342 bound_to 10162
  140.7796  143.3893  151.1338 LP  0  0  0  0  0  0  0  0  0  0  0  0  # atno 17343 bound_to 10162
  156.0568  130.3707  150.1072 LP  0  0  0  0  0  0  0  0  0  0  0  0  # atno 17370 bound_to 10713
  156.9245  130.9694  151.3543 LP  0  0  0  0  0  0  0  0  0  0  0  0  # atno 17371 bound_to 10713
  140.8559  133.8096  155.9216 LP  0  0  0  0  0  0  0  0  0  0  0  0  # atno 17394 bound_to 11000
  140.9097  134.2275  157.4993 LP  0  0  0  0  0  0  0  0  0  0  0  0  # atno 17395 bound_to 11000

$$$$
