AV-unprocessed.smi:852|AV-procd|sdf|3951|dock2
  -GOLD-   22720 1423D 1   1.00000     0.00000
 Structure written by MMmdl.
 30 31  0  0  0  0  0  0  0  0  1 V2000
  146.1583  135.6253  153.5302 C   0  0  0  0  0  0  0  0  0  0  0  0
  145.5427  136.5490  152.4600 C   0  0  1  0  0  0  0  0  0  0  0  0
  144.1178  136.7783  152.7800 C   0  0  0  0  0  0  0  0  0  0  0  0
  143.0020  136.9573  153.0306 N   0  0  0  0  0  0  0  0  0  0  0  0
  146.2765  137.8167  152.4369 N   0  0  0  0  0  0  0  0  0  0  0  0
  146.3789  138.7188  153.4284 C   0  0  0  0  0  0  0  0  0  0  0  0
  145.8544  138.5832  154.5328 O   0  0  0  0  0  0  0  0  0  0  0  0
  147.2093  139.9670  153.1287 C   0  0  0  0  0  0  0  0  0  0  0  0
  148.5602  139.8283  153.6407 N   0  0  0  0  0  0  0  0  0  0  0  0
  149.3918  140.7394  154.1576 C   0  0  0  0  0  0  0  0  0  0  0  0
  150.5693  140.2489  154.5247 N   0  0  0  0  0  0  0  0  0  0  0  0
  150.3718  138.9434  154.1790 C   0  0  0  0  0  0  0  0  0  0  0  0
  151.4022  137.9392  154.3833 C   0  0  0  0  0  0  0  0  0  0  0  0
  152.2226  137.1394  154.5464 N   0  0  0  0  0  0  0  0  0  0  0  0
  149.1924  138.6291  153.6472 N   0  0  0  0  0  0  0  0  0  0  0  0
  145.6556  135.8561  151.1034 C   0  0  0  0  0  0  0  0  0  0  0  0
  144.4887  135.1601  150.4385 C   0  0  0  0  0  0  0  0  0  0  0  0
  145.6568  134.3502  150.9570 C   0  0  0  0  0  0  0  0  0  0  0  0
  145.6649  134.6527  153.5371 H   0  0  0  0  0  0  0  0  0  0  0  0
  146.0592  136.0397  154.5337 H   0  0  0  0  0  0  0  0  0  0  0  0
  147.2199  135.4541  153.3462 H   0  0  0  0  0  0  0  0  0  0  0  0
  146.7472  138.0339  151.5706 H   0  0  0  0  0  0  0  0  0  0  0  0
  147.2583  140.1488  152.0540 H   0  0  0  0  0  0  0  0  0  0  0  0
  146.7367  140.8407  153.5806 H   0  0  0  0  0  0  0  0  0  0  0  0
  149.1304  141.7819  154.2658 H   0  0  0  0  0  0  0  0  0  0  0  0
  146.3243  136.3797  150.4221 H   0  0  0  0  0  0  0  0  0  0  0  0
  143.5484  135.0918  150.9817 H   0  0  0  0  0  0  0  0  0  0  0  0
  144.3921  135.2671  149.3601 H   0  0  0  0  0  0  0  0  0  0  0  0
  146.3338  133.9196  150.2221 H   0  0  0  0  0  0  0  0  0  0  0  0
  145.4929  133.7442  151.8455 H   0  0  0  0  0  0  0  0  0  0  0  0
  1  2  1  0  0  0  0
  1 19  1  0  0  0  0
  1 20  1  0  0  0  0
  1 21  1  0  0  0  0
  2  3  1  0  0  0  0
  2  5  1  0  0  0  0
  2 16  1  0  0  0  0
  3  4  3  0  0  0  0
  5  6  1  0  0  0  0
  5 22  1  0  0  0  0
  6  7  2  0  0  0  0
  6  8  1  0  0  0  0
  8  9  1  0  0  0  0
  8 23  1  0  0  0  0
  8 24  1  0  0  0  0
  9 15  1  0  0  0  0
  9 10  1  0  0  0  0
 10 11  2  0  0  0  0
 10 25  1  0  0  0  0
 11 12  1  0  0  0  0
 12 13  1  0  0  0  0
 12 15  2  0  0  0  0
 13 14  3  0  0  0  0
 16 18  1  0  0  0  0
 16 17  1  0  0  0  0
 16 26  1  0  0  0  0
 17 18  1  0  0  0  0
 17 27  1  0  0  0  0
 17 28  1  0  0  0  0
 18 29  1  0  0  0  0
 18 30  1  0  0  0  0
M  END
> <s_m_source_file>
AV-unprocessed.smi

> <i_m_source_file_index>
852

> <i_lp_mmshare_version>
43012

> <i_f3d_flags>
0

> <s_epik_input>
W0NIMl0xW0NIMl1bQ0hdMVtDQF0oW0NIM10pKEMjTilbTkhdQyg9TylbQ0gyXW4yW2NIXW5jKG4yKUMjTg==

> <s_epik_cmdline>
J2VwaWtfcHl0aG9uJywgJy1waCcsICc3LjAnLCAnLXRuJywgJzgnLCAnLW1hJywgJzIwMCcsICctbWV0YWxfYmluZGluZycsICctaW1hZScsICc8aW5maWxlLm1hZT4nLCAnLW9tYWUnLCAnPG91dGZpbGUubWFlPic=

> <r_lp_tautomer_probability>
1

> <r_epik_Ionization_Penalty>
2.64294e-06

> <r_epik_Ionization_Penalty_Charging>
0

> <r_epik_Ionization_Penalty_Neutral>
2.64294e-06

> <r_epik_State_Penalty>
-0

> <r_epik_Charging_Adjusted_Penalty>
0

> <i_epik_Tot_Q>
0

> <i_epik_Tot_abs_Q>
0

> <r_epik_Metal_State_Penalty>
-0

> <b_epik_Metal_Only>
0

> <s_lp_Force_Field>
OPLS_2005

> <r_lp_Energy>
16.8811

> <b_lp_Chiralities_Consistent>
1

> <s_lp_Variant>
AV-unprocessed.smi:852-1

> <Gold.Version>
5.8.1

> <Gold.Id.Protein>
6NUR|6NUR_protein|mol2

> <Gold.PLP.Fitness>
32.4611

> <Gold.PLP.PLP>
-29.5409

> <Gold.PLP.part.hbond>
-2.0768

> <Gold.PLP.part.metal>
0.0000

> <Gold.PLP.part.buried>
-2.8550

> <Gold.PLP.part.nonpolar>
-26.0127

> <Gold.PLP.part.repulsive>
1.6002

> <Gold.PLP.ligand.clash>
0.0000

> <Gold.PLP.ligand.torsion>
2.1642

> <Gold.PLP.Chemscore.Hbond>
1.8960

> <Gold.PLP.Chemscore.CHOScore>
0.0000

> <Gold.PLP.Chemscore.Metal>
0.0000

> <Gold.Chemscore.Hbonds>
donor molecule, donor type, donor heavy atom, donor atom, acceptor molecule, acceptor atom, score
      P1  H  7989  7998       L1    11  1.00
      P1  H 10752 10764       L1    14  0.83

> <Gold.PLP.Chemscore.Internal.Correction>
1.5606

> <Gold.Rescore>
     Score         DG    S(hbond)    S(metal)    S(lipo)     H(rot)  DE(clash)    DE(int)     intcor
      5.22      -8.07       1.49        0.00      33.35       2.46       0.06       2.79       ----

> <Gold.Chemscore.Fitness>
5.2238

> <Gold.Chemscore.DG>
-8.0682

> <Gold.Chemscore.ZeroCoef>
-5.4800

> <Gold.Chemscore.Hbond>
1.4901

> <Gold.Chemscore.Metal>
0.0000

> <Gold.Chemscore.Lipo>
33.3456

> <Gold.Chemscore.Internal_Hbond>
0.0000

> <Gold.Chemscore.DEClash>
0.0579

> <Gold.Chemscore.DEInternal>
2.7866

> <Gold.Chemscore.Rot>
2.4571

> <Gold.Chemscore.Internal.Correction>
   9.000000E+99

> <Gold.Chemscore.Hbonds>
donor molecule, donor type, donor heavy atom, donor atom, acceptor molecule, acceptor atom, score
      P1  H  7989  7998       L1    11  0.32
      P1  H 10752 10764       L1    14  0.81

> <Gold.Chemscore.Hbond.Weighted>
-4.9769

> <Gold.Chemscore.Metal.Weighted>
-0.0000

> <Gold.Chemscore.Lipo.Weighted>
-3.9014

> <Gold.Chemscore.Internal_Hbond.Weighted>
0.0000

> <Gold.Chemscore.DEClash.Weighted>
0.0579

> <Gold.Chemscore.DEInternal.Weighted>
2.7866

> <Gold.Chemscore.Rot.Weighted>
6.2901

> <Gold.Chemscore.Internal.Correction.Weighted>
   9.000000E+99

> <Gold.Protein.RotatedTorsions>
[ 6907 6896 6895 6894 ] final  131.18 input  -60.11 | X-H torsion
[ 7974 7965 7964 7962 ] final -166.43 input  175.53 | X-H torsion
[ 8008 7997 7996 7995 ] final  123.67 input   59.86 | X-H torsion
[ 10167 10162 10161 10158 ] final  -42.25 input  -65.29 | X-H torsion
[ 10718 10713 10712 10709 ] final  125.61 input   66.30 | X-H torsion
[ 10763 10752 10751 10750 ] final  -70.29 input  -60.55 | X-H torsion
[ 11005 11000 10999 10996 ] final  149.51 input  -57.11 | X-H torsion

> <Gold.Protein.ActiveResidues>
 VAL166  LYS551  ARG553  GLY616  TRP617  ASP618  TYR619  PRO620  LYS621  CYS622 
 ASP623  PHE694  ASN695  SER759  ASP760  ASP761  ALA762  ILE779  LEU786  VAL792 
 PHE793  MET794  SER795  GLU796  ALA797  LYS798  CYS799  TRP800  GLU811  SER814 

> <Gold.Protein.RotatedAtoms>
  152.3452  133.6114  159.5904 H   0  0  0  0  0  0  0  0  0  0  0  0  # atno 6907 bound_to 6896
  150.7503  133.9660  159.3539 H   0  0  0  0  0  0  0  0  0  0  0  0  # atno 6908 bound_to 6896
  151.7519  135.0831  160.0383 H   0  0  0  0  0  0  0  0  0  0  0  0  # atno 6909 bound_to 6896
  144.7245  140.2667  143.6257 H   0  0  0  0  0  0  0  0  0  0  0  0  # atno 7974 bound_to 7965
  156.2774  140.2757  156.1665 H   0  0  0  0  0  0  0  0  0  0  0  0  # atno 8008 bound_to 7997
  155.0699  140.0387  157.2623 H   0  0  0  0  0  0  0  0  0  0  0  0  # atno 8009 bound_to 7997
  154.7048  140.2656  155.6690 H   0  0  0  0  0  0  0  0  0  0  0  0  # atno 8010 bound_to 7997
  140.6975  143.3048  151.3182 H   0  0  0  0  0  0  0  0  0  0  0  0  # atno 10167 bound_to 10162
  157.5488  131.1095  150.8736 H   0  0  0  0  0  0  0  0  0  0  0  0  # atno 10718 bound_to 10713
  154.4155  135.5999  153.5978 H   0  0  0  0  0  0  0  0  0  0  0  0  # atno 10763 bound_to 10752
  152.9792  135.5939  154.4018 H   0  0  0  0  0  0  0  0  0  0  0  0  # atno 10764 bound_to 10752
  154.3836  135.2841  155.2175 H   0  0  0  0  0  0  0  0  0  0  0  0  # atno 10765 bound_to 10752
  140.1051  134.8959  157.1854 H   0  0  0  0  0  0  0  0  0  0  0  0  # atno 11005 bound_to 11000
  145.8083  139.1992  143.2008 LP  0  0  0  0  0  0  0  0  0  0  0  0  # atno 17320 bound_to 7965
  146.0618  140.7963  142.9731 LP  0  0  0  0  0  0  0  0  0  0  0  0  # atno 17321 bound_to 7965
  139.6450  144.0468  152.2584 LP  0  0  0  0  0  0  0  0  0  0  0  0  # atno 17342 bound_to 10162
  139.9986  144.6310  150.7750 LP  0  0  0  0  0  0  0  0  0  0  0  0  # atno 17343 bound_to 10162
  156.9267  130.5335  149.5279 LP  0  0  0  0  0  0  0  0  0  0  0  0  # atno 17370 bound_to 10713
  156.0559  130.5620  150.9090 LP  0  0  0  0  0  0  0  0  0  0  0  0  # atno 17371 bound_to 10713
  140.3166  134.2963  155.7255 LP  0  0  0  0  0  0  0  0  0  0  0  0  # atno 17394 bound_to 11000
  141.2116  133.7684  156.9852 LP  0  0  0  0  0  0  0  0  0  0  0  0  # atno 17395 bound_to 11000

$$$$
