AV-unprocessed.smi:1982|AV-procd|sdf|8020|dock1
  -GOLD-   2272010213D 1   1.00000     0.00000
 Structure written by MMmdl.
 36 37  0  0  0  0  0  0  0  0  1 V2000
  151.8107  145.9402  160.2913 C   0  0  0  0  0  0  0  0  0  0  0  0
  151.9051  144.4043  160.2595 C   0  0  2  0  0  0  0  0  0  0  0  0
  152.3626  143.8817  161.6372 C   0  0  0  0  0  0  0  0  0  0  0  0
  152.4601  142.3506  161.6728 C   0  0  0  0  0  0  0  0  0  0  0  0
  153.3958  141.8346  160.5705 C   0  0  0  0  0  0  0  0  0  0  0  0
  152.9671  142.3320  159.1769 C   0  0  1  0  0  0  0  0  0  0  0  0
  151.7171  141.6965  158.7630 N   0  0  0  0  0  0  0  0  0  0  0  0
  151.5958  140.6746  157.9020 C   0  0  0  0  0  0  0  0  0  0  0  0
  152.5541  140.0944  157.3932 O   0  0  0  0  0  0  0  0  0  0  0  0
  150.1687  140.2452  157.5573 C   0  0  0  0  0  0  0  0  0  0  0  0
  149.9164  140.3701  156.1329 N   0  0  0  0  0  0  0  0  0  0  0  0
  149.9101  141.4394  155.3344 C   0  0  0  0  0  0  0  0  0  0  0  0
  149.6008  141.1165  154.0879 N   0  0  0  0  0  0  0  0  0  0  0  0
  149.4099  139.7462  154.1554 N   0  0  0  0  0  0  0  0  0  0  0  0
  149.5964  139.2973  155.3661 N   0  0  0  0  0  0  0  0  0  0  0  0
  152.8383  143.8772  159.1335 C   0  0  1  0  0  0  0  0  0  0  0  0
  152.4209  144.3617  157.7292 C   0  0  0  0  0  0  0  0  0  0  0  0
  152.7952  146.3968  160.3987 H   0  0  0  0  0  0  0  0  0  0  0  0
  151.1974  146.2767  161.1276 H   0  0  0  0  0  0  0  0  0  0  0  0
  151.3528  146.3365  159.3853 H   0  0  0  0  0  0  0  0  0  0  0  0
  150.8991  144.0230  160.0779 H   0  0  0  0  0  0  0  0  0  0  0  0
  153.3334  144.3106  161.8894 H   0  0  0  0  0  0  0  0  0  0  0  0
  151.6702  144.2153  162.4110 H   0  0  0  0  0  0  0  0  0  0  0  0
  152.8228  142.0252  162.6481 H   0  0  0  0  0  0  0  0  0  0  0  0
  151.4674  141.9151  161.5533 H   0  0  0  0  0  0  0  0  0  0  0  0
  154.4112  142.1757  160.7757 H   0  0  0  0  0  0  0  0  0  0  0  0
  153.4335  140.7447  160.5909 H   0  0  0  0  0  0  0  0  0  0  0  0
  153.7477  142.0491  158.4682 H   0  0  0  0  0  0  0  0  0  0  0  0
  150.8676  142.1002  159.1310 H   0  0  0  0  0  0  0  0  0  0  0  0
  150.0061  139.2073  157.8508 H   0  0  0  0  0  0  0  0  0  0  0  0
  149.4536  140.8559  158.1106 H   0  0  0  0  0  0  0  0  0  0  0  0
  150.1223  142.4456  155.6655 H   0  0  0  0  0  0  0  0  0  0  0  0
  153.8346  144.2809  159.3214 H   0  0  0  0  0  0  0  0  0  0  0  0
  151.3822  144.1138  157.5080 H   0  0  0  0  0  0  0  0  0  0  0  0
  153.0413  143.9040  156.9579 H   0  0  0  0  0  0  0  0  0  0  0  0
  152.5339  145.4405  157.6257 H   0  0  0  0  0  0  0  0  0  0  0  0
  1  2  1  0  0  0  0
  1 18  1  0  0  0  0
  1 19  1  0  0  0  0
  1 20  1  0  0  0  0
  2 16  1  0  0  0  0
  2  3  1  0  0  0  0
  2 21  1  0  0  0  0
  3  4  1  0  0  0  0
  3 22  1  0  0  0  0
  3 23  1  0  0  0  0
  4  5  1  0  0  0  0
  4 24  1  0  0  0  0
  4 25  1  0  0  0  0
  5  6  1  0  0  0  0
  5 26  1  0  0  0  0
  5 27  1  0  0  0  0
  6  7  1  0  0  0  0
  6 16  1  0  0  0  0
  6 28  1  0  0  0  0
  7  8  1  0  0  0  0
  7 29  1  0  0  0  0
  8  9  2  0  0  0  0
  8 10  1  0  0  0  0
 10 11  1  0  0  0  0
 10 30  1  0  0  0  0
 10 31  1  0  0  0  0
 11 15  1  0  0  0  0
 11 12  1  0  0  0  0
 12 13  2  0  0  0  0
 12 32  1  0  0  0  0
 13 14  1  0  0  0  0
 14 15  2  0  0  0  0
 16 17  1  0  0  0  0
 16 33  1  0  0  0  0
 17 34  1  0  0  0  0
 17 35  1  0  0  0  0
 17 36  1  0  0  0  0
M  END
> <s_m_source_file>
AV-unprocessed.smi

> <i_m_source_file_index>
1982

> <i_lp_mmshare_version>
43012

> <i_f3d_flags>
0

> <s_epik_input>
W0NIM11bQ0BASF0xW0NIMl1bQ0gyXVtDSDJdW0NASF0oW0NASF0xW0NIM10pW05IXUMoPU8pW0NIMl1uMltjSF1ubm4y

> <s_epik_cmdline>
J2VwaWtfcHl0aG9uJywgJy1waCcsICc3LjAnLCAnLXRuJywgJzgnLCAnLW1hJywgJzIwMCcsICctbWV0YWxfYmluZGluZycsICctaW1hZScsICc8aW5maWxlLm1hZT4nLCAnLW9tYWUnLCAnPG91dGZpbGUubWFlPic=

> <r_lp_tautomer_probability>
1

> <r_epik_Ionization_Penalty>
5.03816e-07

> <r_epik_Ionization_Penalty_Charging>
0

> <r_epik_Ionization_Penalty_Neutral>
5.03816e-07

> <r_epik_State_Penalty>
-0

> <r_epik_Charging_Adjusted_Penalty>
0

> <i_epik_Tot_Q>
0

> <i_epik_Tot_abs_Q>
0

> <r_epik_Metal_State_Penalty>
-0

> <b_epik_Metal_Only>
0

> <s_lp_Force_Field>
OPLS_2005

> <r_lp_Energy>
12.4205

> <b_lp_Chiralities_Consistent>
1

> <s_lp_Variant>
AV-unprocessed.smi:1982-1

> <Gold.Version>
5.8.1

> <Gold.Id.Protein>
6NUR|6NUR_protein|mol2

> <Gold.PLP.Fitness>
48.2701

> <Gold.PLP.PLP>
-40.6855

> <Gold.PLP.part.hbond>
-3.0000

> <Gold.PLP.part.metal>
0.0000

> <Gold.PLP.part.buried>
-4.3742

> <Gold.PLP.part.nonpolar>
-34.4837

> <Gold.PLP.part.repulsive>
1.5567

> <Gold.PLP.ligand.clash>
0.0000

> <Gold.PLP.ligand.torsion>
0.2148

> <Gold.PLP.Chemscore.Hbond>
1.6668

> <Gold.PLP.Chemscore.CHOScore>
1.0000

> <Gold.PLP.Chemscore.Metal>
0.0000

> <Gold.Chemscore.Hbonds>
donor molecule, donor type, donor heavy atom, donor atom, acceptor molecule, acceptor atom, score
      P1  H  7989  7998       L1    13  0.17
      P1  H  7997  8008       L1     9  1.00
      P1  H  8011  8017       L1    13  0.48
      L1  C    12    32       P1  8028  0.86

> <Gold.PLP.Chemscore.Internal.Correction>
0.0138

> <Gold.Rescore>
     Score         DG    S(hbond)    S(metal)    S(lipo)     H(rot)  DE(clash)    DE(int)     intcor
     17.31     -17.90       1.57        0.00     102.93       1.91       0.39       0.21       ----

> <Gold.Chemscore.Fitness>
17.3050

> <Gold.Chemscore.DG>
-17.9039

> <Gold.Chemscore.ZeroCoef>
-5.4800

> <Gold.Chemscore.Hbond>
1.5748

> <Gold.Chemscore.Metal>
0.0000

> <Gold.Chemscore.Lipo>
102.9312

> <Gold.Chemscore.Internal_Hbond>
0.0000

> <Gold.Chemscore.DEClash>
0.3883

> <Gold.Chemscore.DEInternal>
0.2105

> <Gold.Chemscore.Rot>
1.9058

> <Gold.Chemscore.Internal.Correction>
   9.000000E+99

> <Gold.Chemscore.Hbonds>
donor molecule, donor type, donor heavy atom, donor atom, acceptor molecule, acceptor atom, score
      P1  H  7997  8008       L1     9  0.95
      P1  H  8011  8017       L1    13  0.48

> <Gold.Chemscore.Hbond.Weighted>
-5.2598

> <Gold.Chemscore.Metal.Weighted>
-0.0000

> <Gold.Chemscore.Lipo.Weighted>
-12.0429

> <Gold.Chemscore.Internal_Hbond.Weighted>
0.0000

> <Gold.Chemscore.DEClash.Weighted>
0.3883

> <Gold.Chemscore.DEInternal.Weighted>
0.2105

> <Gold.Chemscore.Rot.Weighted>
4.8788

> <Gold.Chemscore.Internal.Correction.Weighted>
   9.000000E+99

> <Gold.Protein.RotatedTorsions>
[ 6907 6896 6895 6894 ] final  111.33 input  -60.11 | X-H torsion
[ 7974 7965 7964 7962 ] final  -89.42 input  175.53 | X-H torsion
[ 8008 7997 7996 7995 ] final  -56.98 input   59.86 | X-H torsion
[ 10167 10162 10161 10158 ] final  -71.67 input  -65.29 | X-H torsion
[ 10718 10713 10712 10709 ] final  -55.38 input   66.30 | X-H torsion
[ 10763 10752 10751 10750 ] final   87.62 input  -60.55 | X-H torsion
[ 11005 11000 10999 10996 ] final   64.27 input  -57.11 | X-H torsion

> <Gold.Protein.ActiveResidues>
 VAL166  LYS551  ARG553  GLY616  TRP617  ASP618  TYR619  PRO620  LYS621  CYS622 
 ASP623  PHE694  ASN695  SER759  ASP760  ASP761  ALA762  ILE779  LEU786  VAL792 
 PHE793  MET794  SER795  GLU796  ALA797  LYS798  CYS799  TRP800  GLU811  SER814 

> <Gold.Protein.RotatedAtoms>
  152.4975  133.8673  159.7280 H   0  0  0  0  0  0  0  0  0  0  0  0  # atno 6907 bound_to 6896
  150.9169  133.6920  159.2848 H   0  0  0  0  0  0  0  0  0  0  0  0  # atno 6908 bound_to 6896
  151.4310  135.1014  159.9694 H   0  0  0  0  0  0  0  0  0  0  0  0  # atno 6909 bound_to 6896
  145.4400  140.9558  143.2080 H   0  0  0  0  0  0  0  0  0  0  0  0  # atno 7974 bound_to 7965
  154.4250  140.1117  156.5724 H   0  0  0  0  0  0  0  0  0  0  0  0  # atno 8008 bound_to 7997
  155.6198  140.3495  155.4629 H   0  0  0  0  0  0  0  0  0  0  0  0  # atno 8009 bound_to 7997
  156.0033  140.1203  157.0516 H   0  0  0  0  0  0  0  0  0  0  0  0  # atno 8010 bound_to 7997
  140.5254  143.2327  151.7356 H   0  0  0  0  0  0  0  0  0  0  0  0  # atno 10167 bound_to 10162
  156.1373  130.4156  150.0163 H   0  0  0  0  0  0  0  0  0  0  0  0  # atno 10718 bound_to 10713
  153.1686  135.4537  154.9872 H   0  0  0  0  0  0  0  0  0  0  0  0  # atno 10763 bound_to 10752
  154.7950  135.3234  154.7691 H   0  0  0  0  0  0  0  0  0  0  0  0  # atno 10764 bound_to 10752
  153.8170  135.6950  153.4887 H   0  0  0  0  0  0  0  0  0  0  0  0  # atno 10765 bound_to 10752
  139.9969  134.6502  155.9994 H   0  0  0  0  0  0  0  0  0  0  0  0  # atno 11005 bound_to 11000
  144.8128  139.5932  143.7022 LP  0  0  0  0  0  0  0  0  0  0  0  0  # atno 17320 bound_to 7965
  146.2561  139.6306  142.9394 LP  0  0  0  0  0  0  0  0  0  0  0  0  # atno 17321 bound_to 7965
  139.4936  144.4193  151.9995 LP  0  0  0  0  0  0  0  0  0  0  0  0  # atno 17342 bound_to 10162
  140.3292  144.3336  150.5991 LP  0  0  0  0  0  0  0  0  0  0  0  0  # atno 17343 bound_to 10162
  156.8059  130.9307  151.3645 LP  0  0  0  0  0  0  0  0  0  0  0  0  # atno 17370 bound_to 10713
  157.6544  130.8912  149.9698 LP  0  0  0  0  0  0  0  0  0  0  0  0  # atno 17371 bound_to 10713
  141.1612  133.6539  156.4324 LP  0  0  0  0  0  0  0  0  0  0  0  0  # atno 17394 bound_to 11000
  140.4800  134.6673  157.5167 LP  0  0  0  0  0  0  0  0  0  0  0  0  # atno 17395 bound_to 11000

$$$$
