AV-unprocessed.smi:910|AV-procd|sdf|4117|dock2
  -GOLD-   22720 2 13D 1   1.00000     0.00000
 Structure written by MMmdl.
 46 47  0  0  0  0  0  0  0  0  1 V2000
  147.8660  128.8703  151.3607 C   0  0  0  0  0  0  0  0  0  0  0  0
  147.7778  130.3638  151.3962 C   0  0  0  0  0  0  0  0  0  0  0  0
  148.5824  131.1329  152.2248 N   0  0  0  0  0  0  0  0  0  0  0  0
  148.2145  132.3907  151.9756 C   0  0  0  0  0  0  0  0  0  0  0  0
  148.7402  133.5598  152.5796 N   0  0  0  0  0  0  0  0  0  0  0  0
  149.4070  133.6508  153.7420 C   0  0  0  0  0  0  0  0  0  0  0  0
  149.7155  132.6997  154.4606 O   0  0  0  0  0  0  0  0  0  0  0  0
  149.6918  134.9267  154.0385 N   0  0  0  0  0  0  0  0  0  0  0  0
  150.3258  135.3871  155.2699 C   0  0  0  0  0  0  0  0  0  0  0  0
  150.9894  136.7609  155.0884 C   0  0  0  0  0  0  0  0  0  0  0  0
  150.9431  137.4523  156.3275 O   0  0  0  0  0  0  0  0  0  0  0  0
  151.7793  138.6005  156.3996 C   0  0  1  0  0  0  0  0  0  0  0  0
  151.5148  139.5244  155.1937 C   0  0  0  0  0  0  0  0  0  0  0  0
  150.0912  140.1050  155.2225 C   0  0  0  0  0  0  0  0  0  0  0  0
  149.8110  140.8283  156.5486 C   0  0  0  0  0  0  0  0  0  0  0  0
  150.0616  139.9055  157.7521 C   0  0  0  0  0  0  0  0  0  0  0  0
  151.4902  139.3258  157.7323 C   0  0  1  0  0  0  0  0  0  0  0  0
  151.7582  138.4217  158.9469 C   0  0  0  0  0  0  0  0  0  0  0  0
  147.2288  132.5019  151.0459 O   0  0  0  0  0  0  0  0  0  0  0  0
  146.9600  131.2076  150.6881 C   0  0  0  0  0  0  0  0  0  0  0  0
  145.9016  130.9744  149.6643 C   0  0  0  0  0  0  0  0  0  0  0  0
  146.9617  128.4151  151.7647 H   0  0  0  0  0  0  0  0  0  0  0  0
  148.7105  128.5042  151.9453 H   0  0  0  0  0  0  0  0  0  0  0  0
  147.9908  128.5090  150.3398 H   0  0  0  0  0  0  0  0  0  0  0  0
  148.5626  134.4230  152.0882 H   0  0  0  0  0  0  0  0  0  0  0  0
  149.4033  135.6412  153.3864 H   0  0  0  0  0  0  0  0  0  0  0  0
  149.5933  135.4215  156.0776 H   0  0  0  0  0  0  0  0  0  0  0  0
  151.0769  134.6517  155.5592 H   0  0  0  0  0  0  0  0  0  0  0  0
  152.0219  136.6352  154.7596 H   0  0  0  0  0  0  0  0  0  0  0  0
  150.4703  137.3285  154.3159 H   0  0  0  0  0  0  0  0  0  0  0  0
  152.8287  138.3006  156.4001 H   0  0  0  0  0  0  0  0  0  0  0  0
  152.2345  140.3437  155.2059 H   0  0  0  0  0  0  0  0  0  0  0  0
  151.6809  138.9918  154.2575 H   0  0  0  0  0  0  0  0  0  0  0  0
  149.9547  140.7936  154.3883 H   0  0  0  0  0  0  0  0  0  0  0  0
  149.3654  139.3029  155.0828 H   0  0  0  0  0  0  0  0  0  0  0  0
  150.4485  141.7099  156.6255 H   0  0  0  0  0  0  0  0  0  0  0  0
  148.7823  141.1886  156.5648 H   0  0  0  0  0  0  0  0  0  0  0  0
  149.8978  140.4605  158.6763 H   0  0  0  0  0  0  0  0  0  0  0  0
  149.3322  139.0944  157.7479 H   0  0  0  0  0  0  0  0  0  0  0  0
  152.1835  140.1653  157.8030 H   0  0  0  0  0  0  0  0  0  0  0  0
  151.0829  137.5658  158.9660 H   0  0  0  0  0  0  0  0  0  0  0  0
  151.6245  138.9691  159.8800 H   0  0  0  0  0  0  0  0  0  0  0  0
  152.7785  138.0376  158.9337 H   0  0  0  0  0  0  0  0  0  0  0  0
  146.3466  130.7541  148.6940 H   0  0  0  0  0  0  0  0  0  0  0  0
  145.2640  131.8516  149.5529 H   0  0  0  0  0  0  0  0  0  0  0  0
  145.2696  130.1322  149.9463 H   0  0  0  0  0  0  0  0  0  0  0  0
  1  2  1  0  0  0  0
  1 22  1  0  0  0  0
  1 23  1  0  0  0  0
  1 24  1  0  0  0  0
  2 20  2  0  0  0  0
  2  3  1  0  0  0  0
  3  4  2  0  0  0  0
  4  5  1  0  0  0  0
  4 19  1  0  0  0  0
  5  6  1  0  0  0  0
  5 25  1  0  0  0  0
  6  7  2  0  0  0  0
  6  8  1  0  0  0  0
  8  9  1  0  0  0  0
  8 26  1  0  0  0  0
  9 10  1  0  0  0  0
  9 27  1  0  0  0  0
  9 28  1  0  0  0  0
 10 11  1  0  0  0  0
 10 29  1  0  0  0  0
 10 30  1  0  0  0  0
 11 12  1  0  0  0  0
 12 17  1  0  0  0  0
 12 13  1  0  0  0  0
 12 31  1  0  0  0  0
 13 14  1  0  0  0  0
 13 32  1  0  0  0  0
 13 33  1  0  0  0  0
 14 15  1  0  0  0  0
 14 34  1  0  0  0  0
 14 35  1  0  0  0  0
 15 16  1  0  0  0  0
 15 36  1  0  0  0  0
 15 37  1  0  0  0  0
 16 17  1  0  0  0  0
 16 38  1  0  0  0  0
 16 39  1  0  0  0  0
 17 18  1  0  0  0  0
 17 40  1  0  0  0  0
 18 41  1  0  0  0  0
 18 42  1  0  0  0  0
 18 43  1  0  0  0  0
 19 20  1  0  0  0  0
 20 21  1  0  0  0  0
 21 44  1  0  0  0  0
 21 45  1  0  0  0  0
 21 46  1  0  0  0  0
M  END
> <s_m_source_file>
AV-unprocessed.smi

> <i_m_source_file_index>
910

> <i_lp_mmshare_version>
43012

> <i_f3d_flags>
0

> <s_epik_input>
W0NIM11jMW5jKG9jMVtDSDNdKVtOSF1DKD1PKVtOSF1bQ0gyXVtDSDJdT1tDQEBIXTJbQ0gyXVtDSDJdW0NIMl1bQ0gyXVtDQEhdMltDSDNd

> <s_epik_cmdline>
J2VwaWtfcHl0aG9uJywgJy1waCcsICc3LjAnLCAnLXRuJywgJzgnLCAnLW1hJywgJzIwMCcsICctbWV0YWxfYmluZGluZycsICctaW1hZScsICc8aW5maWxlLm1hZT4nLCAnLW9tYWUnLCAnPG91dGZpbGUubWFlPic=

> <r_lp_tautomer_probability>
0.785861

> <r_epik_Ionization_Penalty>
4.15957e-05

> <r_epik_Ionization_Penalty_Charging>
0

> <r_epik_Ionization_Penalty_Neutral>
4.15957e-05

> <r_epik_State_Penalty>
0.0240523

> <r_epik_Charging_Adjusted_Penalty>
0.0240523

> <i_epik_Tot_Q>
0

> <i_epik_Tot_abs_Q>
0

> <r_epik_Metal_State_Penalty>
0.057053

> <b_epik_Metal_Only>
0

> <s_lp_Force_Field>
OPLS_2005

> <r_lp_Energy>
9.72379

> <b_lp_Chiralities_Consistent>
1

> <s_lp_Variant>
AV-unprocessed.smi:910-2

> <Gold.Version>
5.8.1

> <Gold.Id.Protein>
6NUR|6NUR_protein|mol2

> <Gold.PLP.Fitness>
40.2419

> <Gold.PLP.PLP>
-35.2857

> <Gold.PLP.part.hbond>
-2.0000

> <Gold.PLP.part.metal>
0.0000

> <Gold.PLP.part.buried>
-4.1758

> <Gold.PLP.part.nonpolar>
-29.0917

> <Gold.PLP.part.repulsive>
0.3058

> <Gold.PLP.ligand.clash>
0.0000

> <Gold.PLP.ligand.torsion>
0.5160

> <Gold.PLP.Chemscore.Hbond>
1.9760

> <Gold.PLP.Chemscore.CHOScore>
0.0000

> <Gold.PLP.Chemscore.Metal>
0.0000

> <Gold.Chemscore.Hbonds>
donor molecule, donor type, donor heavy atom, donor atom, acceptor molecule, acceptor atom, score
      L1  H     5    25       P1  7948  0.24
      L1  H     8    26       P1  7948  1.00

> <Gold.PLP.Chemscore.Internal.Correction>
0.0603

> <Gold.Rescore>
     Score         DG    S(hbond)    S(metal)    S(lipo)     H(rot)  DE(clash)    DE(int)     intcor
     14.27     -15.96       1.52        0.00      82.51       1.66       0.02       1.67       ----

> <Gold.Chemscore.Fitness>
14.2740

> <Gold.Chemscore.DG>
-15.9623

> <Gold.Chemscore.ZeroCoef>
-5.4800

> <Gold.Chemscore.Hbond>
1.5185

> <Gold.Chemscore.Metal>
0.0000

> <Gold.Chemscore.Lipo>
82.5129

> <Gold.Chemscore.Internal_Hbond>
0.0000

> <Gold.Chemscore.DEClash>
0.0162

> <Gold.Chemscore.DEInternal>
1.6721

> <Gold.Chemscore.Rot>
1.6576

> <Gold.Chemscore.Internal.Correction>
   9.000000E+99

> <Gold.Chemscore.Hbonds>
donor molecule, donor type, donor heavy atom, donor atom, acceptor molecule, acceptor atom, score
      L1  H     8    26       P1  7948  0.25

> <Gold.Chemscore.Hbond.Weighted>
-5.0718

> <Gold.Chemscore.Metal.Weighted>
-0.0000

> <Gold.Chemscore.Lipo.Weighted>
-9.6540

> <Gold.Chemscore.Internal_Hbond.Weighted>
0.0000

> <Gold.Chemscore.DEClash.Weighted>
0.0162

> <Gold.Chemscore.DEInternal.Weighted>
1.6721

> <Gold.Chemscore.Rot.Weighted>
4.2436

> <Gold.Chemscore.Internal.Correction.Weighted>
   9.000000E+99

> <Gold.Protein.RotatedTorsions>
[ 6907 6896 6895 6894 ] final -156.43 input  -60.11 | X-H torsion
[ 7974 7965 7964 7962 ] final  -17.80 input  175.53 | X-H torsion
[ 8008 7997 7996 7995 ] final   12.88 input   59.86 | X-H torsion
[ 10167 10162 10161 10158 ] final  -35.84 input  -65.29 | X-H torsion
[ 10718 10713 10712 10709 ] final  103.20 input   66.30 | X-H torsion
[ 10763 10752 10751 10750 ] final  173.75 input  -60.55 | X-H torsion
[ 11005 11000 10999 10996 ] final  165.80 input  -57.11 | X-H torsion

> <Gold.Protein.ActiveResidues>
 VAL166  LYS551  ARG553  GLY616  TRP617  ASP618  TYR619  PRO620  LYS621  CYS622 
 ASP623  PHE694  ASN695  SER759  ASP760  ASP761  ALA762  ILE779  LEU786  VAL792 
 PHE793  MET794  SER795  GLU796  ALA797  LYS798  CYS799  TRP800  GLU811  SER814 

> <Gold.Protein.RotatedAtoms>
  151.2876  133.4180  159.2630 H   0  0  0  0  0  0  0  0  0  0  0  0  # atno 6907 bound_to 6896
  151.0306  134.9537  159.8119 H   0  0  0  0  0  0  0  0  0  0  0  0  # atno 6908 bound_to 6896
  152.5345  134.2837  159.9069 H   0  0  0  0  0  0  0  0  0  0  0  0  # atno 6909 bound_to 6896
  146.1924  140.3830  142.8453 H   0  0  0  0  0  0  0  0  0  0  0  0  # atno 7974 bound_to 7965
  154.8267  140.2892  155.5750 H   0  0  0  0  0  0  0  0  0  0  0  0  # atno 8008 bound_to 7997
  156.3002  140.2540  156.3115 H   0  0  0  0  0  0  0  0  0  0  0  0  # atno 8009 bound_to 7997
  154.9278  140.0384  157.2021 H   0  0  0  0  0  0  0  0  0  0  0  0  # atno 8010 bound_to 7997
  140.7156  143.3449  151.2277 H   0  0  0  0  0  0  0  0  0  0  0  0  # atno 10167 bound_to 10162
  157.6779  131.0773  150.5520 H   0  0  0  0  0  0  0  0  0  0  0  0  # atno 10718 bound_to 10713
  154.4444  135.2763  155.1825 H   0  0  0  0  0  0  0  0  0  0  0  0  # atno 10763 bound_to 10752
  154.3678  135.6115  153.5727 H   0  0  0  0  0  0  0  0  0  0  0  0  # atno 10764 bound_to 10752
  152.9843  135.5850  154.4778 H   0  0  0  0  0  0  0  0  0  0  0  0  # atno 10765 bound_to 10752
  140.2599  134.7910  157.3580 H   0  0  0  0  0  0  0  0  0  0  0  0  # atno 11005 bound_to 11000
  144.8512  140.7003  143.6167 LP  0  0  0  0  0  0  0  0  0  0  0  0  # atno 17320 bound_to 7965
  145.3752  139.1649  143.4310 LP  0  0  0  0  0  0  0  0  0  0  0  0  # atno 17321 bound_to 7965
  139.6966  143.9602  152.2885 LP  0  0  0  0  0  0  0  0  0  0  0  0  # atno 17342 bound_to 10162
  139.9282  144.6758  150.8391 LP  0  0  0  0  0  0  0  0  0  0  0  0  # atno 17343 bound_to 10162
  156.5824  130.4308  149.5971 LP  0  0  0  0  0  0  0  0  0  0  0  0  # atno 17370 bound_to 10713
  156.2650  130.6984  151.1765 LP  0  0  0  0  0  0  0  0  0  0  0  0  # atno 17371 bound_to 10713
  140.1475  134.4892  155.7985 LP  0  0  0  0  0  0  0  0  0  0  0  0  # atno 17394 bound_to 11000
  141.2191  133.6849  156.7319 LP  0  0  0  0  0  0  0  0  0  0  0  0  # atno 17395 bound_to 11000

$$$$
