AV-unprocessed.smi:8|AV-procd|sdf|47|dock6
  -GOLD-   2262015163D 1   1.00000     0.00000
 Structure written by MMmdl.
 33 34  0  0  0  0  0  0  0  0  2 V2000
  152.2867  143.2339  159.4899 C   0  0  0  0  0  0  0  0  0  0  0  0
  152.0813  141.7183  159.6218 C   0  0  0  0  0  0  0  0  0  0  0  0
  152.0371  141.0662  158.3065 N   0  0  0  0  0  0  0  0  0  0  0  0
  150.9521  141.3707  157.4687 C   0  0  0  0  0  0  0  0  0  0  0  0
  150.8042  140.8223  156.2454 C   0  0  0  0  0  0  0  0  0  0  0  0
  149.6237  141.1604  155.3445 C   0  0  0  0  0  0  0  0  0  0  0  0
  148.6889  142.1067  155.9437 N   0  0  0  0  0  0  0  0  0  0  0  0
  147.3818  141.6737  156.2143 C   0  0  0  0  0  0  0  0  0  0  0  0
  147.0778  141.2524  157.4655 N   0  0  0  0  0  0  0  0  0  0  0  0
  145.8270  140.8430  157.6871 C   0  0  0  0  0  0  0  0  0  0  0  0
  144.8298  140.8079  156.8012 N   0  0  0  0  0  0  0  0  0  0  0  0
  145.1162  141.2266  155.5503 C   0  0  0  0  0  0  0  0  0  0  0  0
  146.4032  141.6817  155.1920 C   0  0  0  0  0  0  0  0  0  0  0  0
  146.7080  142.1377  153.7771 C   0  0  0  0  0  0  0  0  0  0  0  0
  151.8470  139.8939  155.7944 C   0  0  0  0  0  0  0  0  0  0  0  0
  151.7640  139.3735  154.6820 O   0  0  0  0  0  0  0  0  0  0  0  0
  152.8864  139.6393  156.6416 N   0  5  0  0  0  0  0  0  0  0  0  0
  153.0062  140.2036  157.8819 C   0  0  0  0  0  0  0  0  0  0  0  0
  153.9573  139.9620  158.6257 O   0  0  0  0  0  0  0  0  0  0  0  0
  152.3050  143.7086  160.4710 H   0  0  0  0  0  0  0  0  0  0  0  0
  151.4829  143.6924  158.9131 H   0  0  0  0  0  0  0  0  0  0  0  0
  153.2294  143.4639  158.9927 H   0  0  0  0  0  0  0  0  0  0  0  0
  152.8711  141.2884  160.2400 H   0  0  0  0  0  0  0  0  0  0  0  0
  151.1568  141.5227  160.1670 H   0  0  0  0  0  0  0  0  0  0  0  0
  150.2432  142.0727  157.8831 H   0  0  0  0  0  0  0  0  0  0  0  0
  149.9799  141.5386  154.3855 H   0  0  0  0  0  0  0  0  0  0  0  0
  149.0831  140.2401  155.1224 H   0  0  0  0  0  0  0  0  0  0  0  0
  148.7701  143.0572  155.6114 H   0  0  0  0  0  0  0  0  0  0  0  0
  145.5979  140.5075  158.6877 H   0  0  0  0  0  0  0  0  0  0  0  0
  144.3112  141.1953  154.8310 H   0  0  0  0  0  0  0  0  0  0  0  0
  145.8335  142.0376  153.1336 H   0  0  0  0  0  0  0  0  0  0  0  0
  147.5134  141.5387  153.3503 H   0  0  0  0  0  0  0  0  0  0  0  0
  147.0152  143.1838  153.7730 H   0  0  0  0  0  0  0  0  0  0  0  0
  1  2  1  0  0  0  0
  1 20  1  0  0  0  0
  1 21  1  0  0  0  0
  1 22  1  0  0  0  0
  2  3  1  0  0  0  0
  2 23  1  0  0  0  0
  2 24  1  0  0  0  0
  3 18  1  0  0  0  0
  3  4  1  0  0  0  0
  4  5  2  0  0  0  0
  4 25  1  0  0  0  0
  5  6  1  0  0  0  0
  5 15  1  0  0  0  0
  6  7  1  0  0  0  0
  6 26  1  0  0  0  0
  6 27  1  0  0  0  0
  7  8  1  0  0  0  0
  7 28  1  0  0  0  0
  8 13  1  0  0  0  0
  8  9  2  0  0  0  0
  9 10  1  0  0  0  0
 10 11  2  0  0  0  0
 10 29  1  0  0  0  0
 11 12  1  0  0  0  0
 12 13  2  0  0  0  0
 12 30  1  0  0  0  0
 13 14  1  0  0  0  0
 14 31  1  0  0  0  0
 14 32  1  0  0  0  0
 14 33  1  0  0  0  0
 15 16  2  0  0  0  0
 15 17  1  0  0  0  0
 17 18  1  0  0  0  0
 18 19  2  0  0  0  0
M  CHG  1  17  -1
M  END
> <s_m_source_file>
AV-unprocessed.smi

> <i_m_source_file_index>
8

> <i_lp_mmshare_version>
43012

> <i_f3d_flags>
0

> <s_epik_input>
W0NIM11bQ0gyXW4xW2NIXWMoYyg9TylbbkhdYzE9TylbQ0gyXVtOSF1jMm5bY0hdbltjSF1jMltDSDNd

> <s_epik_cmdline>
J2VwaWtfcHl0aG9uJywgJy1waCcsICc3LjAnLCAnLXRuJywgJzgnLCAnLW1hJywgJzIwMCcsICctbWV0YWxfYmluZGluZycsICctaW1hZScsICc8aW5maWxlLm1hZT4nLCAnLW9tYWUnLCAnPG91dGZpbGUubWFlPic=

> <r_lp_tautomer_probability>
0.999537

> <r_epik_Ionization_Penalty>
4.00162

> <r_epik_Ionization_Penalty_Charging>
4.85554e-07

> <r_epik_Ionization_Penalty_Neutral>
4.00162

> <r_epik_State_Penalty>
4.01059

> <r_epik_Charging_Adjusted_Penalty>
4.01059

> <i_epik_Tot_Q>
-1

> <i_epik_Tot_abs_Q>
1

> <r_epik_Metal_State_Penalty>
0.642438

> <b_epik_Metal_Only>
1

> <s_lp_Force_Field>
OPLS_2005

> <r_lp_Energy>
12.8082

> <b_lp_Chiralities_Consistent>
1

> <s_lp_Variant>
AV-unprocessed.smi:8-3

> <Gold.Version>
5.8.1

> <Gold.Id.Protein>
6NUR|6NUR_protein|mol2

> <Gold.PLP.Fitness>
40.3463

> <Gold.PLP.PLP>
-28.5896

> <Gold.PLP.part.hbond>
-3.8815

> <Gold.PLP.part.metal>
0.0000

> <Gold.PLP.part.buried>
-2.1517

> <Gold.PLP.part.nonpolar>
-21.7963

> <Gold.PLP.part.repulsive>
0.1685

> <Gold.PLP.ligand.clash>
0.0000

> <Gold.PLP.ligand.torsion>
0.7448

> <Gold.PLP.Chemscore.Hbond>
3.4137

> <Gold.PLP.Chemscore.CHOScore>
0.9999

> <Gold.PLP.Chemscore.Metal>
0.0000

> <Gold.Chemscore.Hbonds>
donor molecule, donor type, donor heavy atom, donor atom, acceptor molecule, acceptor atom, score
      L1  H     7    28       P1  8028  1.00
      P1  H  7989  7998       L1    16  1.00
      P1  H  7997  8009       L1    19  0.50
      P1  H  7997  8010       L1    17  0.94
      L1  C    12    30       P1 10175  1.00

> <Gold.PLP.Chemscore.Internal.Correction>
0.0058

> <Gold.Rescore>
     Score         DG    S(hbond)    S(metal)    S(lipo)     H(rot)  DE(clash)    DE(int)     intcor
     12.02     -12.78       2.04        0.00      49.83       2.09       0.06       0.70       ----

> <Gold.Chemscore.Fitness>
12.0224

> <Gold.Chemscore.DG>
-12.7808

> <Gold.Chemscore.ZeroCoef>
-5.4800

> <Gold.Chemscore.Hbond>
2.0404

> <Gold.Chemscore.Metal>
0.0000

> <Gold.Chemscore.Lipo>
49.8288

> <Gold.Chemscore.Internal_Hbond>
0.0000

> <Gold.Chemscore.DEClash>
0.0585

> <Gold.Chemscore.DEInternal>
0.6999

> <Gold.Chemscore.Rot>
2.0876

> <Gold.Chemscore.Internal.Correction>
   9.000000E+99

> <Gold.Chemscore.Hbonds>
donor molecule, donor type, donor heavy atom, donor atom, acceptor molecule, acceptor atom, score
      L1  H     7    28       P1  8028  0.99
      P1  H  7989  7998       L1    16  0.43
      P1  H  7997  8009       L1    19  0.10
      P1  H  7997  8010       L1    17  0.08

> <Gold.Chemscore.Hbond.Weighted>
-6.8150

> <Gold.Chemscore.Metal.Weighted>
-0.0000

> <Gold.Chemscore.Lipo.Weighted>
-5.8300

> <Gold.Chemscore.Internal_Hbond.Weighted>
0.0000

> <Gold.Chemscore.DEClash.Weighted>
0.0585

> <Gold.Chemscore.DEInternal.Weighted>
0.6999

> <Gold.Chemscore.Rot.Weighted>
5.3442

> <Gold.Chemscore.Internal.Correction.Weighted>
   9.000000E+99

> <Gold.Protein.RotatedTorsions>
[ 6907 6896 6895 6894 ] final -106.60 input  -60.11 | X-H torsion
[ 7974 7965 7964 7962 ] final -168.43 input  175.53 | X-H torsion
[ 8008 7997 7996 7995 ] final  106.66 input   59.86 | X-H torsion
[ 10167 10162 10161 10158 ] final  111.07 input  -65.29 | X-H torsion
[ 10718 10713 10712 10709 ] final   52.20 input   66.30 | X-H torsion
[ 10763 10752 10751 10750 ] final  -34.97 input  -60.55 | X-H torsion
[ 11005 11000 10999 10996 ] final  -98.22 input  -57.11 | X-H torsion

> <Gold.Protein.ActiveResidues>
 VAL166  LYS551  ARG553  GLY616  TRP617  ASP618  TYR619  PRO620  LYS621  CYS622 
 ASP623  PHE694  ASN695  SER759  ASP760  ASP761  ALA762  ILE779  LEU786  VAL792 
 PHE793  MET794  SER795  GLU796  ALA797  LYS798  CYS799  TRP800  GLU811  SER814 

> <Gold.Protein.RotatedAtoms>
  150.7398  133.9952  159.3619 H   0  0  0  0  0  0  0  0  0  0  0  0  # atno 6907 bound_to 6896
  151.7903  135.0735  160.0395 H   0  0  0  0  0  0  0  0  0  0  0  0  # atno 6908 bound_to 6896
  152.3212  133.5820  159.5782 H   0  0  0  0  0  0  0  0  0  0  0  0  # atno 6909 bound_to 6896
  144.7203  140.2371  143.6296 H   0  0  0  0  0  0  0  0  0  0  0  0  # atno 7974 bound_to 7965
  156.1761  140.3109  155.9062 H   0  0  0  0  0  0  0  0  0  0  0  0  # atno 8008 bound_to 7997
  155.3484  140.0469  157.3063 H   0  0  0  0  0  0  0  0  0  0  0  0  # atno 8009 bound_to 7997
  154.5292  140.2224  155.8845 H   0  0  0  0  0  0  0  0  0  0  0  0  # atno 8010 bound_to 7997
  139.6640  144.7128  151.1812 H   0  0  0  0  0  0  0  0  0  0  0  0  # atno 10167 bound_to 10162
  157.5052  130.8464  149.8366 H   0  0  0  0  0  0  0  0  0  0  0  0  # atno 10718 bound_to 10713
  153.8555  135.6845  153.4788 H   0  0  0  0  0  0  0  0  0  0  0  0  # atno 10763 bound_to 10752
  153.1372  135.4672  154.9438 H   0  0  0  0  0  0  0  0  0  0  0  0  # atno 10764 bound_to 10752
  154.7783  135.3260  154.7994 H   0  0  0  0  0  0  0  0  0  0  0  0  # atno 10765 bound_to 10752
  141.1352  133.8229  157.0810 H   0  0  0  0  0  0  0  0  0  0  0  0  # atno 11005 bound_to 11000
  145.8355  139.2105  143.1858 LP  0  0  0  0  0  0  0  0  0  0  0  0  # atno 17320 bound_to 7965
  146.0393  140.8181  142.9837 LP  0  0  0  0  0  0  0  0  0  0  0  0  # atno 17321 bound_to 7965
  140.7591  143.5949  150.8758 LP  0  0  0  0  0  0  0  0  0  0  0  0  # atno 17342 bound_to 10162
  139.9609  143.6165  152.3002 LP  0  0  0  0  0  0  0  0  0  0  0  0  # atno 17343 bound_to 10162
  156.0254  130.3781  150.1839 LP  0  0  0  0  0  0  0  0  0  0  0  0  # atno 17370 bound_to 10713
  157.0029  130.9927  151.3386 LP  0  0  0  0  0  0  0  0  0  0  0  0  # atno 17371 bound_to 10713
  140.0451  134.9834  157.1034 LP  0  0  0  0  0  0  0  0  0  0  0  0  # atno 17394 bound_to 11000
  140.4075  134.2017  155.7163 LP  0  0  0  0  0  0  0  0  0  0  0  0  # atno 17395 bound_to 11000

$$$$
