AV-unprocessed.smi:34|AV-procd|sdf|217|dock6
  -GOLD-   2262015533D 1   1.00000     0.00000
 Structure written by MMmdl.
 55 59  0  0  0  0  0  0  0  0  1 V2000
  153.3752  140.2070  157.9001 O   0  0  0  0  0  0  0  0  0  0  0  0
  152.4174  140.9721  157.7843 C   0  0  0  0  0  0  0  0  0  0  0  0
  151.3438  140.7275  156.8369 N   0  0  0  0  0  0  0  0  0  0  0  0
  151.1747  139.6593  156.0223 C   0  0  0  0  0  0  0  0  0  0  0  0
  150.7879  139.7846  154.7255 N   0  0  0  0  0  0  0  0  0  0  0  0
  150.6313  138.6992  153.9624 C   0  0  0  0  0  0  0  0  0  0  0  0
  150.8049  137.4178  154.2913 N   0  0  0  0  0  0  0  0  0  0  0  0
  151.1956  137.2816  155.5906 C   0  0  0  0  0  0  0  0  0  0  0  0
  151.4017  138.3465  156.5119 C   0  0  0  0  0  0  0  0  0  0  0  0
  151.7973  137.8350  157.7406 N   0  0  0  0  0  0  0  0  0  0  0  0
  151.8229  136.5431  157.5511 C   0  0  0  0  0  0  0  0  0  0  0  0
  151.4677  136.1223  156.2886 N   0  0  0  0  0  0  0  0  0  0  0  0
  151.4062  134.7154  155.7878 C   0  0  2  0  0  0  0  0  0  0  0  0
  150.0783  134.4196  155.4702 O   0  0  0  0  0  0  0  0  0  0  0  0
  149.7385  133.1040  155.9159 C   0  0  2  0  0  0  0  0  0  0  0  0
  148.6562  133.1984  157.0008 C   0  0  0  0  0  0  0  0  0  0  0  0
  149.2676  133.4141  158.2624 O   0  0  0  0  0  0  0  0  0  0  0  0
  149.2072  134.6298  158.8411 C   0  0  0  0  0  0  0  0  0  0  0  0
  149.1284  135.6840  158.2070 O   0  0  0  0  0  0  0  0  0  0  0  0
  149.2482  134.5668  160.3308 C   0  0  0  0  0  0  0  0  0  0  0  0
  149.3269  135.7683  161.0731 C   0  0  0  0  0  0  0  0  0  0  0  0
  149.3693  135.7405  162.4809 C   0  0  0  0  0  0  0  0  0  0  0  0
  149.3340  134.5107  163.1634 C   0  0  0  0  0  0  0  0  0  0  0  0
  149.2561  133.3084  162.4365 C   0  0  0  0  0  0  0  0  0  0  0  0
  149.2133  133.3342  161.0287 C   0  0  0  0  0  0  0  0  0  0  0  0
  151.0491  132.4935  156.4214 C   0  0  1  0  0  0  0  0  0  0  0  0
  151.6427  131.8935  155.3854 F   0  0  0  0  0  0  0  0  0  0  0  0
  151.8353  133.7167  156.8619 C   0  0  1  0  0  0  0  0  0  0  0  0
  153.2222  133.4438  156.8669 O   0  0  0  0  0  0  0  0  0  0  0  0
  152.3357  142.2556  158.5589 C   0  0  0  0  0  0  0  0  0  0  0  0
  152.9921  142.3716  159.8051 C   0  0  0  0  0  0  0  0  0  0  0  0
  152.9060  143.5646  160.5485 C   0  0  0  0  0  0  0  0  0  0  0  0
  152.1579  144.6502  160.0555 C   0  0  0  0  0  0  0  0  0  0  0  0
  151.4920  144.5401  158.8202 C   0  0  0  0  0  0  0  0  0  0  0  0
  151.5764  143.3470  158.0762 C   0  0  0  0  0  0  0  0  0  0  0  0
  150.6259  141.4359  156.7912 H   0  0  0  0  0  0  0  0  0  0  0  0
  150.3221  138.8835  152.9441 H   0  0  0  0  0  0  0  0  0  0  0  0
  152.1005  135.8550  158.3364 H   0  0  0  0  0  0  0  0  0  0  0  0
  152.0228  134.6871  154.8880 H   0  0  0  0  0  0  0  0  0  0  0  0
  149.3446  132.5403  155.0687 H   0  0  0  0  0  0  0  0  0  0  0  0
  147.9582  134.0064  156.7807 H   0  0  0  0  0  0  0  0  0  0  0  0
  148.0856  132.2694  157.0372 H   0  0  0  0  0  0  0  0  0  0  0  0
  149.3557  136.7247  160.5711 H   0  0  0  0  0  0  0  0  0  0  0  0
  149.4294  136.6645  163.0370 H   0  0  0  0  0  0  0  0  0  0  0  0
  149.3665  134.4896  164.2428 H   0  0  0  0  0  0  0  0  0  0  0  0
  149.2295  132.3635  162.9591 H   0  0  0  0  0  0  0  0  0  0  0  0
  149.1542  132.3930  160.5019 H   0  0  0  0  0  0  0  0  0  0  0  0
  150.9194  131.7468  157.2057 H   0  0  0  0  0  0  0  0  0  0  0  0
  151.5024  134.0493  157.8457 H   0  0  0  0  0  0  0  0  0  0  0  0
  153.5286  133.4349  155.9728 H   0  0  0  0  0  0  0  0  0  0  0  0
  153.5698  141.5471  160.1983 H   0  0  0  0  0  0  0  0  0  0  0  0
  153.4140  143.6462  161.4981 H   0  0  0  0  0  0  0  0  0  0  0  0
  152.0919  145.5651  160.6257 H   0  0  0  0  0  0  0  0  0  0  0  0
  150.9124  145.3706  158.4446 H   0  0  0  0  0  0  0  0  0  0  0  0
  151.0489  143.2810  157.1358 H   0  0  0  0  0  0  0  0  0  0  0  0
  1  2  2  0  0  0  0
  2  3  1  0  0  0  0
  2 30  1  0  0  0  0
  3  4  1  0  0  0  0
  3 36  1  0  0  0  0
  4  9  1  0  0  0  0
  4  5  2  0  0  0  0
  5  6  1  0  0  0  0
  6  7  2  0  0  0  0
  6 37  1  0  0  0  0
  7  8  1  0  0  0  0
  8 12  1  0  0  0  0
  8  9  2  0  0  0  0
  9 10  1  0  0  0  0
 10 11  2  0  0  0  0
 11 12  1  0  0  0  0
 11 38  1  0  0  0  0
 12 13  1  0  0  0  0
 13 28  1  0  0  0  0
 13 14  1  0  0  0  0
 13 39  1  0  0  0  0
 14 15  1  0  0  0  0
 15 16  1  0  0  0  0
 15 26  1  0  0  0  0
 15 40  1  0  0  0  0
 16 17  1  0  0  0  0
 16 41  1  0  0  0  0
 16 42  1  0  0  0  0
 17 18  1  0  0  0  0
 18 19  2  0  0  0  0
 18 20  1  0  0  0  0
 20 25  1  0  0  0  0
 20 21  2  0  0  0  0
 21 22  1  0  0  0  0
 21 43  1  0  0  0  0
 22 23  2  0  0  0  0
 22 44  1  0  0  0  0
 23 24  1  0  0  0  0
 23 45  1  0  0  0  0
 24 25  2  0  0  0  0
 24 46  1  0  0  0  0
 25 47  1  0  0  0  0
 26 27  1  0  0  0  0
 26 28  1  0  0  0  0
 26 48  1  0  0  0  0
 28 29  1  0  0  0  0
 28 49  1  0  0  0  0
 29 50  1  0  0  0  0
 30 35  1  0  0  0  0
 30 31  2  0  0  0  0
 31 32  1  0  0  0  0
 31 51  1  0  0  0  0
 32 33  2  0  0  0  0
 32 52  1  0  0  0  0
 33 34  1  0  0  0  0
 33 53  1  0  0  0  0
 34 35  2  0  0  0  0
 34 54  1  0  0  0  0
 35 55  1  0  0  0  0
M  END
> <s_m_source_file>
AV-unprocessed.smi

> <i_m_source_file_index>
34

> <i_lp_mmshare_version>
43012

> <i_f3d_flags>
0

> <s_epik_input>
W2NIXTFbY0hdW2NIXVtjSF1bY0hdYzFDKD1PKVtOSF1jKG5bY0hdbjIpYyhjMjMpbltjSF1uM1tDQEBIXTRPW0NASF0oW0NAQEhdKEYpW0NASF00W09IXSlbQ0gyXU9DKD1PKWM1W2NIXVtjSF1bY0hdW2NIXVtjSF01

> <s_epik_cmdline>
J2VwaWtfcHl0aG9uJywgJy1waCcsICc3LjAnLCAnLXRuJywgJzgnLCAnLW1hJywgJzIwMCcsICctbWV0YWxfYmluZGluZycsICctaW1hZScsICc8aW5maWxlLm1hZT4nLCAnLW9tYWUnLCAnPG91dGZpbGUubWFlPic=

> <r_lp_tautomer_probability>
1

> <r_epik_Ionization_Penalty>
0.00257489

> <r_epik_Ionization_Penalty_Charging>
0

> <r_epik_Ionization_Penalty_Neutral>
0.00257489

> <r_epik_State_Penalty>
0.00519398

> <r_epik_Charging_Adjusted_Penalty>
0.00519398

> <i_epik_Tot_Q>
0

> <i_epik_Tot_abs_Q>
0

> <r_epik_Metal_State_Penalty>
0.335891

> <b_epik_Metal_Only>
0

> <s_epik_Chemistry_Notes>
This compound has an ester and may undergo hydrolysis at high or low pH. This compound contains an acetal/aminal-like group ( X-CH(R)-Y where X, Y are N, S, or O) that may be acid/base labile, releasing an aldehyde.

> <s_lp_Force_Field>
OPLS_2005

> <r_lp_Energy>
51.1648

> <b_lp_Chiralities_Consistent>
1

> <s_lp_Variant>
AV-unprocessed.smi:34-3

> <Gold.Version>
5.8.1

> <Gold.Id.Protein>
6NUR|6NUR_protein|mol2

> <Gold.PLP.Fitness>
63.4563

> <Gold.PLP.PLP>
-56.2301

> <Gold.PLP.part.hbond>
-3.0000

> <Gold.PLP.part.metal>
0.0000

> <Gold.PLP.part.buried>
-6.8473

> <Gold.PLP.part.nonpolar>
-48.4423

> <Gold.PLP.part.repulsive>
0.4864

> <Gold.PLP.ligand.clash>
0.0000

> <Gold.PLP.ligand.torsion>
1.6611

> <Gold.PLP.Chemscore.Hbond>
2.4624

> <Gold.PLP.Chemscore.CHOScore>
0.9775

> <Gold.PLP.Chemscore.Metal>
0.0000

> <Gold.Chemscore.Hbonds>
donor molecule, donor type, donor heavy atom, donor atom, acceptor molecule, acceptor atom, score
      P1  H  7989  7998       L1     5  0.90
      P1  H  7997  8008       L1     1  0.86
      L1  C     6    37       P1  7957  1.00

> <Gold.PLP.Chemscore.Internal.Correction>
0.2285

> <Gold.Rescore>
     Score         DG    S(hbond)    S(metal)    S(lipo)     H(rot)  DE(clash)    DE(int)     intcor
     15.98     -19.01       1.63        0.00     128.81       2.72       0.29       2.74       ----

> <Gold.Chemscore.Fitness>
15.9764

> <Gold.Chemscore.DG>
-19.0125

> <Gold.Chemscore.ZeroCoef>
-5.4800

> <Gold.Chemscore.Hbond>
1.6254

> <Gold.Chemscore.Metal>
0.0000

> <Gold.Chemscore.Lipo>
128.8107

> <Gold.Chemscore.Internal_Hbond>
0.0000

> <Gold.Chemscore.DEClash>
0.2948

> <Gold.Chemscore.DEInternal>
2.7413

> <Gold.Chemscore.Rot>
2.7215

> <Gold.Chemscore.Internal.Correction>
   9.000000E+99

> <Gold.Chemscore.Hbonds>
donor molecule, donor type, donor heavy atom, donor atom, acceptor molecule, acceptor atom, score
      P1  H  7989  7998       L1     5  0.18
      P1  H  7997  8008       L1     1  0.80

> <Gold.Chemscore.Hbond.Weighted>
-5.4287

> <Gold.Chemscore.Metal.Weighted>
-0.0000

> <Gold.Chemscore.Lipo.Weighted>
-15.0709

> <Gold.Chemscore.Internal_Hbond.Weighted>
0.0000

> <Gold.Chemscore.DEClash.Weighted>
0.2948

> <Gold.Chemscore.DEInternal.Weighted>
2.7413

> <Gold.Chemscore.Rot.Weighted>
6.9670

> <Gold.Chemscore.Internal.Correction.Weighted>
   9.000000E+99

> <Gold.Protein.RotatedTorsions>
[ 6907 6896 6895 6894 ] final   38.68 input  -60.11 | X-H torsion
[ 7974 7965 7964 7962 ] final -178.67 input  175.53 | X-H torsion
[ 8008 7997 7996 7995 ] final  -90.12 input   59.86 | X-H torsion
[ 10167 10162 10161 10158 ] final  117.96 input  -65.29 | X-H torsion
[ 10718 10713 10712 10709 ] final   20.38 input   66.30 | X-H torsion
[ 10763 10752 10751 10750 ] final  -21.26 input  -60.55 | X-H torsion
[ 11005 11000 10999 10996 ] final  -46.49 input  -57.11 | X-H torsion

> <Gold.Protein.ActiveResidues>
 VAL166  LYS551  ARG553  GLY616  TRP617  ASP618  TYR619  PRO620  LYS621  CYS622 
 ASP623  PHE694  ASN695  SER759  ASP760  ASP761  ALA762  ILE779  LEU786  VAL792 
 PHE793  MET794  SER795  GLU796  ALA797  LYS798  CYS799  TRP800  GLU811  SER814 

> <Gold.Protein.RotatedAtoms>
  152.1596  134.8922  160.0542 H   0  0  0  0  0  0  0  0  0  0  0  0  # atno 6907 bound_to 6896
  151.9923  133.3790  159.4157 H   0  0  0  0  0  0  0  0  0  0  0  0  # atno 6908 bound_to 6896
  150.6886  134.3846  159.5093 H   0  0  0  0  0  0  0  0  0  0  0  0  # atno 6909 bound_to 6896
  144.7132  140.0833  143.6424 H   0  0  0  0  0  0  0  0  0  0  0  0  # atno 7974 bound_to 7965
  154.6948  140.0534  157.0399 H   0  0  0  0  0  0  0  0  0  0  0  0  # atno 8008 bound_to 7997
  155.0767  140.3205  155.4595 H   0  0  0  0  0  0  0  0  0  0  0  0  # atno 8009 bound_to 7997
  156.2740  140.2072  156.5894 H   0  0  0  0  0  0  0  0  0  0  0  0  # atno 8010 bound_to 7997
  139.6143  144.7088  151.2774 H   0  0  0  0  0  0  0  0  0  0  0  0  # atno 10167 bound_to 10162
  157.1236  130.6560  149.5931 H   0  0  0  0  0  0  0  0  0  0  0  0  # atno 10718 bound_to 10713
  153.6333  135.6988  153.5268 H   0  0  0  0  0  0  0  0  0  0  0  0  # atno 10763 bound_to 10752
  153.2842  135.4176  155.1106 H   0  0  0  0  0  0  0  0  0  0  0  0  # atno 10764 bound_to 10752
  154.8517  135.3609  154.5876 H   0  0  0  0  0  0  0  0  0  0  0  0  # atno 10765 bound_to 10752
  141.0582  133.6718  156.3162 H   0  0  0  0  0  0  0  0  0  0  0  0  # atno 11005 bound_to 11000
  145.9683  139.2851  143.1114 LP  0  0  0  0  0  0  0  0  0  0  0  0  # atno 17320 bound_to 7965
  145.9145  140.9158  143.0437 LP  0  0  0  0  0  0  0  0  0  0  0  0  # atno 17321 bound_to 7965
  140.7340  143.6777  150.8027 LP  0  0  0  0  0  0  0  0  0  0  0  0  # atno 17342 bound_to 10162
  140.0378  143.5377  152.2732 LP  0  0  0  0  0  0  0  0  0  0  0  0  # atno 17343 bound_to 10162
  155.9823  130.4836  150.6874 LP  0  0  0  0  0  0  0  0  0  0  0  0  # atno 17370 bound_to 10713
  157.4454  131.0866  151.0900 LP  0  0  0  0  0  0  0  0  0  0  0  0  # atno 17371 bound_to 10713
  140.5922  134.5639  157.5501 LP  0  0  0  0  0  0  0  0  0  0  0  0  # atno 17394 bound_to 11000
  139.9409  134.7789  156.0682 LP  0  0  0  0  0  0  0  0  0  0  0  0  # atno 17395 bound_to 11000

$$$$
