AV-unprocessed.smi:2335|AV-procd|sdf|9326|dock8
  -GOLD-   2272012543D 1   1.00000     0.00000
 Structure written by MMmdl.
 41 42  0  0  0  0  0  0  0  0  2 V2000
  147.8603  141.0446  154.3814 C   0  0  0  0  0  0  0  0  0  0  0  0
  148.8809  140.8491  155.5079 C   0  0  0  0  0  0  0  0  0  0  0  0
  149.8331  139.7341  155.2308 C   0  0  0  0  0  0  0  0  0  0  0  0
  151.1572  139.9044  155.1909 N   0  0  0  0  0  0  0  0  0  0  0  0
  151.8303  138.7154  154.9504 N   0  0  0  0  0  0  0  0  0  0  0  0
  151.0089  137.6645  154.8162 C   0  0  0  0  0  0  0  0  0  0  0  0
  151.4597  136.4204  154.5862 N   0  5  0  0  0  0  0  0  0  0  0  0
  150.7647  135.3545  155.0433 C   0  0  0  0  0  0  0  0  0  0  0  0
  151.1039  134.5981  155.9560 O   0  0  0  0  0  0  0  0  0  0  0  0
  149.6084  135.1506  154.3972 N   0  0  0  0  0  0  0  0  0  0  0  0
  148.6599  134.0668  154.6481 C   0  0  1  0  0  0  0  0  0  0  0  0
  147.2545  134.4566  154.2356 C   0  0  0  0  0  0  0  0  0  0  0  0
  146.5732  133.1041  153.9979 C   0  0  0  0  0  0  0  0  0  0  0  0
  145.9240  132.5531  155.2791 C   0  0  0  0  0  0  0  0  0  0  0  0
  145.5579  133.1581  152.8462 C   0  0  0  0  0  0  0  0  0  0  0  0
  147.6236  132.2098  153.6346 O   0  0  0  0  0  0  0  0  0  0  0  0
  148.9137  132.7984  153.8027 C   0  0  0  0  0  0  0  0  0  0  0  0
  149.4545  133.0770  152.3848 C   0  0  0  0  0  0  0  0  0  0  0  0
  149.8014  131.7763  154.5305 C   0  0  0  0  0  0  0  0  0  0  0  0
  149.3045  138.0755  155.0028 S   0  0  0  0  0  0  0  0  0  0  0  0
  147.1818  141.8665  154.6101 H   0  0  0  0  0  0  0  0  0  0  0  0
  147.2600  140.1464  154.2341 H   0  0  0  0  0  0  0  0  0  0  0  0
  148.3566  141.2739  153.4379 H   0  0  0  0  0  0  0  0  0  0  0  0
  149.4516  141.7664  155.6548 H   0  0  0  0  0  0  0  0  0  0  0  0
  148.3655  140.6481  156.4480 H   0  0  0  0  0  0  0  0  0  0  0  0
  149.3743  135.7968  153.6581 H   0  0  0  0  0  0  0  0  0  0  0  0
  148.6427  133.8162  155.7107 H   0  0  0  0  0  0  0  0  0  0  0  0
  146.7476  135.0681  154.9827 H   0  0  0  0  0  0  0  0  0  0  0  0
  147.2854  135.0327  153.3091 H   0  0  0  0  0  0  0  0  0  0  0  0
  145.1236  133.2062  155.6281 H   0  0  0  0  0  0  0  0  0  0  0  0
  146.6500  132.4580  156.0869 H   0  0  0  0  0  0  0  0  0  0  0  0
  145.4948  131.5654  155.1085 H   0  0  0  0  0  0  0  0  0  0  0  0
  144.7448  133.8489  153.0702 H   0  0  0  0  0  0  0  0  0  0  0  0
  145.1202  132.1766  152.6609 H   0  0  0  0  0  0  0  0  0  0  0  0
  146.0288  133.4863  151.9189 H   0  0  0  0  0  0  0  0  0  0  0  0
  150.4650  133.4861  152.4140 H   0  0  0  0  0  0  0  0  0  0  0  0
  148.8240  133.7842  151.8456 H   0  0  0  0  0  0  0  0  0  0  0  0
  149.4931  132.1604  151.7957 H   0  0  0  0  0  0  0  0  0  0  0  0
  150.8121  132.1590  154.6728 H   0  0  0  0  0  0  0  0  0  0  0  0
  149.8781  130.8479  153.9638 H   0  0  0  0  0  0  0  0  0  0  0  0
  149.3972  131.5288  155.5122 H   0  0  0  0  0  0  0  0  0  0  0  0
  1  2  1  0  0  0  0
  1 21  1  0  0  0  0
  1 22  1  0  0  0  0
  1 23  1  0  0  0  0
  2  3  1  0  0  0  0
  2 24  1  0  0  0  0
  2 25  1  0  0  0  0
  3 20  1  0  0  0  0
  3  4  2  0  0  0  0
  4  5  1  0  0  0  0
  5  6  2  0  0  0  0
  6  7  1  0  0  0  0
  6 20  1  0  0  0  0
  7  8  1  0  0  0  0
  8  9  2  0  0  0  0
  8 10  1  0  0  0  0
 10 11  1  0  0  0  0
 10 26  1  0  0  0  0
 11 17  1  0  0  0  0
 11 12  1  0  0  0  0
 11 27  1  0  0  0  0
 12 13  1  0  0  0  0
 12 28  1  0  0  0  0
 12 29  1  0  0  0  0
 13 14  1  0  0  0  0
 13 15  1  0  0  0  0
 13 16  1  0  0  0  0
 14 30  1  0  0  0  0
 14 31  1  0  0  0  0
 14 32  1  0  0  0  0
 15 33  1  0  0  0  0
 15 34  1  0  0  0  0
 15 35  1  0  0  0  0
 16 17  1  0  0  0  0
 17 18  1  0  0  0  0
 17 19  1  0  0  0  0
 18 36  1  0  0  0  0
 18 37  1  0  0  0  0
 18 38  1  0  0  0  0
 19 39  1  0  0  0  0
 19 40  1  0  0  0  0
 19 41  1  0  0  0  0
M  CHG  1   7  -1
M  END
> <s_m_source_file>
AV-unprocessed.smi

> <i_m_source_file_index>
2335

> <i_lp_mmshare_version>
43012

> <i_f3d_flags>
0

> <s_epik_input>
W0NIM11bQ0gyXWMxbm5jKHMxKVtOSF1DKD1PKVtOSF1bQ0BASF0oQyhPMikoW0NIM10pW0NIM10pW0NIMl1DMihbQ0gzXSlbQ0gzXQ==

> <s_epik_cmdline>
J2VwaWtfcHl0aG9uJywgJy1waCcsICc3LjAnLCAnLXRuJywgJzgnLCAnLW1hJywgJzIwMCcsICctbWV0YWxfYmluZGluZycsICctaW1hZScsICc8aW5maWxlLm1hZT4nLCAnLW9tYWUnLCAnPG91dGZpbGUubWFlPic=

> <r_lp_tautomer_probability>
1

> <r_epik_Ionization_Penalty>
4.33319

> <r_epik_Ionization_Penalty_Charging>
4.17028

> <r_epik_Ionization_Penalty_Neutral>
0.162913

> <r_epik_State_Penalty>
4.16976

> <r_epik_Charging_Adjusted_Penalty>
8.34004

> <i_epik_Tot_Q>
-1

> <i_epik_Tot_abs_Q>
1

> <r_epik_Metal_State_Penalty>
0.677358

> <b_epik_Metal_Only>
1

> <s_lp_Force_Field>
OPLS_2005

> <r_lp_Energy>
10.6877

> <b_lp_Chiralities_Consistent>
1

> <s_lp_Variant>
AV-unprocessed.smi:2335-4

> <Gold.Version>
5.8.1

> <Gold.Id.Protein>
6NUR|6NUR_protein|mol2

> <Gold.PLP.Fitness>
37.0769

> <Gold.PLP.PLP>
-27.4864

> <Gold.PLP.part.hbond>
-3.0000

> <Gold.PLP.part.metal>
0.0000

> <Gold.PLP.part.buried>
-4.1242

> <Gold.PLP.part.nonpolar>
-20.7337

> <Gold.PLP.part.repulsive>
0.3772

> <Gold.PLP.ligand.clash>
0.0000

> <Gold.PLP.ligand.torsion>
1.2162

> <Gold.PLP.Chemscore.Hbond>
4.0000

> <Gold.PLP.Chemscore.CHOScore>
0.0000

> <Gold.PLP.Chemscore.Metal>
0.0000

> <Gold.Chemscore.Hbonds>
donor molecule, donor type, donor heavy atom, donor atom, acceptor molecule, acceptor atom, score
      L1  H    10    26       P1  7948  1.00
      P1  H  7989  7998       L1     4  0.95
      P1  H 10752 10765       L1     7  1.50

> <Gold.PLP.Chemscore.Internal.Correction>
0.0229

> <Gold.Rescore>
     Score         DG    S(hbond)    S(metal)    S(lipo)     H(rot)  DE(clash)    DE(int)     intcor
     15.85     -16.93       2.67        0.00      47.77       1.19       0.04       1.04       ----

> <Gold.Chemscore.Fitness>
15.8531

> <Gold.Chemscore.DG>
-16.9312

> <Gold.Chemscore.ZeroCoef>
-5.4800

> <Gold.Chemscore.Hbond>
2.6704

> <Gold.Chemscore.Metal>
0.0000

> <Gold.Chemscore.Lipo>
47.7714

> <Gold.Chemscore.Internal_Hbond>
0.0000

> <Gold.Chemscore.DEClash>
0.0376

> <Gold.Chemscore.DEInternal>
1.0405

> <Gold.Chemscore.Rot>
1.1942

> <Gold.Chemscore.Internal.Correction>
   9.000000E+99

> <Gold.Chemscore.Hbonds>
donor molecule, donor type, donor heavy atom, donor atom, acceptor molecule, acceptor atom, score
      L1  H    10    26       P1  7948  0.48
      P1  H  7989  7998       L1     4  0.14
      P1  H 10752 10765       L1     7  0.09

> <Gold.Chemscore.Hbond.Weighted>
-8.9192

> <Gold.Chemscore.Metal.Weighted>
-0.0000

> <Gold.Chemscore.Lipo.Weighted>
-5.5893

> <Gold.Chemscore.Internal_Hbond.Weighted>
0.0000

> <Gold.Chemscore.DEClash.Weighted>
0.0376

> <Gold.Chemscore.DEInternal.Weighted>
1.0405

> <Gold.Chemscore.Rot.Weighted>
3.0573

> <Gold.Chemscore.Internal.Correction.Weighted>
   9.000000E+99

> <Gold.Protein.RotatedTorsions>
[ 6907 6896 6895 6894 ] final  -90.60 input  -60.11 | X-H torsion
[ 7974 7965 7964 7962 ] final   92.30 input  175.53 | X-H torsion
[ 8008 7997 7996 7995 ] final -164.64 input   59.86 | X-H torsion
[ 10167 10162 10161 10158 ] final  -75.25 input  -65.29 | X-H torsion
[ 10718 10713 10712 10709 ] final  -93.13 input   66.30 | X-H torsion
[ 10763 10752 10751 10750 ] final  174.07 input  -60.55 | X-H torsion
[ 11005 11000 10999 10996 ] final   -2.88 input  -57.11 | X-H torsion

> <Gold.Protein.ActiveResidues>
 VAL166  LYS551  ARG553  GLY616  TRP617  ASP618  TYR619  PRO620  LYS621  CYS622 
 ASP623  PHE694  ASN695  SER759  ASP760  ASP761  ALA762  ILE779  LEU786  VAL792 
 PHE793  MET794  SER795  GLU796  ALA797  LYS798  CYS799  TRP800  GLU811  SER814 

> <Gold.Protein.RotatedAtoms>
  150.6883  134.2406  159.4470 H   0  0  0  0  0  0  0  0  0  0  0  0  # atno 6907 bound_to 6896
  152.0351  134.9742  160.0582 H   0  0  0  0  0  0  0  0  0  0  0  0  # atno 6908 bound_to 6896
  152.1266  133.4349  159.4738 H   0  0  0  0  0  0  0  0  0  0  0  0  # atno 6909 bound_to 6896
  145.4941  139.2276  143.2813 H   0  0  0  0  0  0  0  0  0  0  0  0  # atno 7974 bound_to 7965
  155.8385  140.0944  157.1749 H   0  0  0  0  0  0  0  0  0  0  0  0  # atno 8008 bound_to 7997
  154.3981  140.1405  156.3761 H   0  0  0  0  0  0  0  0  0  0  0  0  # atno 8009 bound_to 7997
  155.8090  140.3450  155.5449 H   0  0  0  0  0  0  0  0  0  0  0  0  # atno 8010 bound_to 7997
  140.4958  143.2371  151.7832 H   0  0  0  0  0  0  0  0  0  0  0  0  # atno 10167 bound_to 10162
  156.0010  130.5014  150.5729 H   0  0  0  0  0  0  0  0  0  0  0  0  # atno 10718 bound_to 10713
  154.4489  135.2764  155.1795 H   0  0  0  0  0  0  0  0  0  0  0  0  # atno 10763 bound_to 10752
  154.3631  135.6125  153.5704 H   0  0  0  0  0  0  0  0  0  0  0  0  # atno 10764 bound_to 10752
  152.9845  135.5839  154.4830 H   0  0  0  0  0  0  0  0  0  0  0  0  # atno 10765 bound_to 10752
  140.6632  133.9301  155.8449 H   0  0  0  0  0  0  0  0  0  0  0  0  # atno 11005 bound_to 11000
  146.2266  140.5738  142.8994 LP  0  0  0  0  0  0  0  0  0  0  0  0  # atno 17320 bound_to 7965
  144.7817  140.5853  143.6601 LP  0  0  0  0  0  0  0  0  0  0  0  0  # atno 17321 bound_to 7965
  139.4861  144.4588  151.9566 LP  0  0  0  0  0  0  0  0  0  0  0  0  # atno 17342 bound_to 10162
  140.3676  144.2896  150.5924 LP  0  0  0  0  0  0  0  0  0  0  0  0  # atno 17343 bound_to 10162
  157.3621  131.0751  151.1628 LP  0  0  0  0  0  0  0  0  0  0  0  0  # atno 17370 bound_to 10713
  157.2409  130.6569  149.5889 LP  0  0  0  0  0  0  0  0  0  0  0  0  # atno 17371 bound_to 10713
  141.0449  134.0568  157.3856 LP  0  0  0  0  0  0  0  0  0  0  0  0  # atno 17394 bound_to 11000
  139.9006  135.0163  156.7249 LP  0  0  0  0  0  0  0  0  0  0  0  0  # atno 17395 bound_to 11000

$$$$
