AV-unprocessed.smi:2481|AV-procd|sdf|9771|dock6
  -GOLD-   2272013413D 1   1.00000     0.00000
 Structure written by MMmdl.
 37 38  0  0  0  0  0  0  0  0  1 V2000
  150.7847  136.8290  154.6885 C   0  0  0  0  0  0  0  0  0  0  0  0
  150.7531  135.4846  155.2311 N   0  0  0  0  0  0  0  0  0  0  0  0
  151.5972  135.1143  156.2226 N   0  0  0  0  0  0  0  0  0  0  0  0
  151.2621  133.8411  156.4331 C   0  0  0  0  0  0  0  0  0  0  0  0
  150.2581  133.3484  155.6491 N   0  0  0  0  0  0  0  0  0  0  0  0
  149.9906  134.4306  154.9247 C   0  0  0  0  0  0  0  0  0  0  0  0
  149.0036  134.5348  153.9081 N   0  0  0  0  0  0  0  0  0  0  0  0
  147.9313  133.7475  153.7178 C   0  0  0  0  0  0  0  0  0  0  0  0
  147.6313  132.7781  154.4152 O   0  0  0  0  0  0  0  0  0  0  0  0
  147.2132  134.1554  152.6607 N   0  0  0  0  0  0  0  0  0  0  0  0
  145.9944  133.5241  152.1540 C   0  0  2  0  0  0  0  0  0  0  0  0
  146.2448  132.0064  152.0443 C   0  0  0  0  0  0  0  0  0  0  0  0
  145.0352  131.2675  151.4566 C   0  0  0  0  0  0  0  0  0  0  0  0
  144.6490  131.8546  150.0939 C   0  0  0  0  0  0  0  0  0  0  0  0
  144.3722  133.3609  150.2046 C   0  0  0  0  0  0  0  0  0  0  0  0
  145.5762  134.1357  150.7890 C   0  0  1  0  0  0  0  0  0  0  0  0
  145.2645  135.6459  150.8923 C   0  0  0  0  0  0  0  0  0  0  0  0
  145.0401  136.2045  149.6143 O   0  0  0  0  0  0  0  0  0  0  0  0
  149.7905  137.2724  154.7464 H   0  0  0  0  0  0  0  0  0  0  0  0
  151.1011  136.7953  153.6458 H   0  0  0  0  0  0  0  0  0  0  0  0
  151.4814  137.4527  155.2500 H   0  0  0  0  0  0  0  0  0  0  0  0
  151.7607  133.2439  157.1822 H   0  0  0  0  0  0  0  0  0  0  0  0
  149.1291  135.2937  153.2549 H   0  0  0  0  0  0  0  0  0  0  0  0
  147.5391  134.9662  152.1554 H   0  0  0  0  0  0  0  0  0  0  0  0
  145.1727  133.6728  152.8575 H   0  0  0  0  0  0  0  0  0  0  0  0
  147.1178  131.8202  151.4169 H   0  0  0  0  0  0  0  0  0  0  0  0
  146.4792  131.5956  153.0271 H   0  0  0  0  0  0  0  0  0  0  0  0
  145.2604  130.2055  151.3548 H   0  0  0  0  0  0  0  0  0  0  0  0
  144.1899  131.3417  152.1420 H   0  0  0  0  0  0  0  0  0  0  0  0
  145.4517  131.6800  149.3763 H   0  0  0  0  0  0  0  0  0  0  0  0
  143.7685  131.3422  149.7047 H   0  0  0  0  0  0  0  0  0  0  0  0
  144.1171  133.7463  149.2171 H   0  0  0  0  0  0  0  0  0  0  0  0
  143.4941  133.5211  150.8315 H   0  0  0  0  0  0  0  0  0  0  0  0
  146.4157  134.0149  150.1017 H   0  0  0  0  0  0  0  0  0  0  0  0
  144.3907  135.8189  151.5213 H   0  0  0  0  0  0  0  0  0  0  0  0
  146.0936  136.1917  151.3415 H   0  0  0  0  0  0  0  0  0  0  0  0
  144.7766  137.1056  149.7225 H   0  0  0  0  0  0  0  0  0  0  0  0
  1  2  1  0  0  0  0
  1 19  1  0  0  0  0
  1 20  1  0  0  0  0
  1 21  1  0  0  0  0
  2  6  1  0  0  0  0
  2  3  1  0  0  0  0
  3  4  2  0  0  0  0
  4  5  1  0  0  0  0
  4 22  1  0  0  0  0
  5  6  2  0  0  0  0
  6  7  1  0  0  0  0
  7  8  1  0  0  0  0
  7 23  1  0  0  0  0
  8  9  2  0  0  0  0
  8 10  1  0  0  0  0
 10 11  1  0  0  0  0
 10 24  1  0  0  0  0
 11 16  1  0  0  0  0
 11 12  1  0  0  0  0
 11 25  1  0  0  0  0
 12 13  1  0  0  0  0
 12 26  1  0  0  0  0
 12 27  1  0  0  0  0
 13 14  1  0  0  0  0
 13 28  1  0  0  0  0
 13 29  1  0  0  0  0
 14 15  1  0  0  0  0
 14 30  1  0  0  0  0
 14 31  1  0  0  0  0
 15 16  1  0  0  0  0
 15 32  1  0  0  0  0
 15 33  1  0  0  0  0
 16 17  1  0  0  0  0
 16 34  1  0  0  0  0
 17 18  1  0  0  0  0
 17 35  1  0  0  0  0
 17 36  1  0  0  0  0
 18 37  1  0  0  0  0
M  END
> <s_m_source_file>
AV-unprocessed.smi

> <i_m_source_file_index>
2481

> <i_lp_mmshare_version>
43012

> <i_f3d_flags>
0

> <s_epik_input>
W0NIM11uMW5bY0hdbmMxW05IXUMoPU8pW05IXVtDQEBIXTJbQ0gyXVtDSDJdW0NIMl1bQ0gyXVtDQEhdMltDSDJdW09IXQ==

> <s_epik_cmdline>
J2VwaWtfcHl0aG9uJywgJy1waCcsICc3LjAnLCAnLXRuJywgJzgnLCAnLW1hJywgJzIwMCcsICctbWV0YWxfYmluZGluZycsICctaW1hZScsICc8aW5maWxlLm1hZT4nLCAnLW9tYWUnLCAnPG91dGZpbGUubWFlPic=

> <r_lp_tautomer_probability>
1

> <r_epik_Ionization_Penalty>
2.32704e-05

> <r_epik_Ionization_Penalty_Charging>
0

> <r_epik_Ionization_Penalty_Neutral>
2.32704e-05

> <r_epik_State_Penalty>
-0

> <r_epik_Charging_Adjusted_Penalty>
0

> <i_epik_Tot_Q>
0

> <i_epik_Tot_abs_Q>
0

> <r_epik_Metal_State_Penalty>
-0

> <b_epik_Metal_Only>
0

> <s_lp_Force_Field>
OPLS_2005

> <r_lp_Energy>
13.3573

> <b_lp_Chiralities_Consistent>
1

> <s_lp_Variant>
AV-unprocessed.smi:2481-1

> <Gold.Version>
5.8.1

> <Gold.Id.Protein>
6NUR|6NUR_protein|mol2

> <Gold.PLP.Fitness>
44.1039

> <Gold.PLP.PLP>
-33.0947

> <Gold.PLP.part.hbond>
-5.0000

> <Gold.PLP.part.metal>
0.0000

> <Gold.PLP.part.buried>
-4.0573

> <Gold.PLP.part.nonpolar>
-23.7811

> <Gold.PLP.part.repulsive>
0.0516

> <Gold.PLP.ligand.clash>
0.0000

> <Gold.PLP.ligand.torsion>
0.2092

> <Gold.PLP.Chemscore.Hbond>
3.8064

> <Gold.PLP.Chemscore.CHOScore>
0.0000

> <Gold.PLP.Chemscore.Metal>
0.0000

> <Gold.Chemscore.Hbonds>
donor molecule, donor type, donor heavy atom, donor atom, acceptor molecule, acceptor atom, score
      L1  H     7    23       P1  7948  1.00
      L1  H    10    24       P1  7948  0.96
      L1  H    18    37       P1 10171  1.00
      P1  H 10752 10763       L1     3  0.76

> <Gold.PLP.Chemscore.Internal.Correction>
0.0083

> <Gold.Rescore>
     Score         DG    S(hbond)    S(metal)    S(lipo)     H(rot)  DE(clash)    DE(int)     intcor
     13.89     -16.45       2.70        0.00      60.27       1.99       0.00       2.55       ----

> <Gold.Chemscore.Fitness>
13.8942

> <Gold.Chemscore.DG>
-16.4491

> <Gold.Chemscore.ZeroCoef>
-5.4800

> <Gold.Chemscore.Hbond>
2.6963

> <Gold.Chemscore.Metal>
0.0000

> <Gold.Chemscore.Lipo>
60.2724

> <Gold.Chemscore.Internal_Hbond>
0.0000

> <Gold.Chemscore.DEClash>
0.0038

> <Gold.Chemscore.DEInternal>
2.5511

> <Gold.Chemscore.Rot>
1.9877

> <Gold.Chemscore.Internal.Correction>
   9.000000E+99

> <Gold.Chemscore.Hbonds>
donor molecule, donor type, donor heavy atom, donor atom, acceptor molecule, acceptor atom, score
      L1  H     7    23       P1  7948  0.25
      L1  H    10    24       P1  7948  0.85
      L1  H    18    37       P1 10171  1.00
      P1  H 10752 10763       L1     3  0.09

> <Gold.Chemscore.Hbond.Weighted>
-9.0058

> <Gold.Chemscore.Metal.Weighted>
-0.0000

> <Gold.Chemscore.Lipo.Weighted>
-7.0519

> <Gold.Chemscore.Internal_Hbond.Weighted>
0.0000

> <Gold.Chemscore.DEClash.Weighted>
0.0038

> <Gold.Chemscore.DEInternal.Weighted>
2.5511

> <Gold.Chemscore.Rot.Weighted>
5.0885

> <Gold.Chemscore.Internal.Correction.Weighted>
   9.000000E+99

> <Gold.Protein.RotatedTorsions>
[ 6907 6896 6895 6894 ] final  -58.29 input  -60.11 | X-H torsion
[ 7974 7965 7964 7962 ] final  -59.90 input  175.53 | X-H torsion
[ 8008 7997 7996 7995 ] final  129.93 input   59.86 | X-H torsion
[ 10167 10162 10161 10158 ] final -168.01 input  -65.29 | X-H torsion
[ 10718 10713 10712 10709 ] final -126.12 input   66.30 | X-H torsion
[ 10763 10752 10751 10750 ] final  102.81 input  -60.55 | X-H torsion
[ 11005 11000 10999 10996 ] final  139.55 input  -57.11 | X-H torsion

> <Gold.Protein.ActiveResidues>
 VAL166  LYS551  ARG553  GLY616  TRP617  ASP618  TYR619  PRO620  LYS621  CYS622 
 ASP623  PHE694  ASN695  SER759  ASP760  ASP761  ALA762  ILE779  LEU786  VAL792 
 PHE793  MET794  SER795  GLU796  ALA797  LYS798  CYS799  TRP800  GLU811  SER814 

> <Gold.Protein.RotatedAtoms>
  150.8018  134.7117  159.6607 H   0  0  0  0  0  0  0  0  0  0  0  0  # atno 6907 bound_to 6896
  152.4136  134.6078  160.0027 H   0  0  0  0  0  0  0  0  0  0  0  0  # atno 6908 bound_to 6896
  151.6314  133.3295  159.3146 H   0  0  0  0  0  0  0  0  0  0  0  0  # atno 6909 bound_to 6896
  145.8220  140.8534  143.0128 H   0  0  0  0  0  0  0  0  0  0  0  0  # atno 7974 bound_to 7965
  156.2945  140.2608  156.2678 H   0  0  0  0  0  0  0  0  0  0  0  0  # atno 8008 bound_to 7997
  154.9725  140.0391  157.2259 H   0  0  0  0  0  0  0  0  0  0  0  0  # atno 8009 bound_to 7997
  154.7846  140.2801  155.6042 H   0  0  0  0  0  0  0  0  0  0  0  0  # atno 8010 bound_to 7997
  139.6013  144.1006  152.1745 H   0  0  0  0  0  0  0  0  0  0  0  0  # atno 10167 bound_to 10162
  156.1737  130.6685  151.0214 H   0  0  0  0  0  0  0  0  0  0  0  0  # atno 10718 bound_to 10713
  153.3444  135.3998  155.1597 H   0  0  0  0  0  0  0  0  0  0  0  0  # atno 10763 bound_to 10752
  154.8650  135.3641  154.5303 H   0  0  0  0  0  0  0  0  0  0  0  0  # atno 10764 bound_to 10752
  153.5751  135.7078  153.5547 H   0  0  0  0  0  0  0  0  0  0  0  0  # atno 10765 bound_to 10752
  140.0262  134.9373  157.0573 H   0  0  0  0  0  0  0  0  0  0  0  0  # atno 11005 bound_to 11000
  144.6747  140.0547  143.7478 LP  0  0  0  0  0  0  0  0  0  0  0  0  # atno 17320 bound_to 7965
  145.9665  139.2838  143.1124 LP  0  0  0  0  0  0  0  0  0  0  0  0  # atno 17321 bound_to 7965
  140.0602  144.5862  150.7268 LP  0  0  0  0  0  0  0  0  0  0  0  0  # atno 17342 bound_to 10162
  140.7251  143.2628  151.4147 LP  0  0  0  0  0  0  0  0  0  0  0  0  # atno 17343 bound_to 10162
  157.6821  131.0835  150.7343 LP  0  0  0  0  0  0  0  0  0  0  0  0  # atno 17370 bound_to 10713
  156.7401  130.4736  149.5479 LP  0  0  0  0  0  0  0  0  0  0  0  0  # atno 17371 bound_to 10713
  140.4302  134.1789  155.7168 LP  0  0  0  0  0  0  0  0  0  0  0  0  # atno 17394 bound_to 11000
  141.1804  133.8425  157.1277 LP  0  0  0  0  0  0  0  0  0  0  0  0  # atno 17395 bound_to 11000

$$$$
