AV-unprocessed.smi:753|AV-procd|sdf|3600|dock5
  -GOLD-   22720 0593D 1   1.00000     0.00000
 Structure written by MMmdl.
 43 45  0  0  0  0  0  0  0  0  1 V2000
  152.6475  141.9606  158.8874 C   0  0  0  0  0  0  0  0  0  0  0  0
  151.9518  141.3263  157.7012 C   0  0  0  0  0  0  0  0  0  0  0  0
  150.8373  141.9468  157.0984 C   0  0  0  0  0  0  0  0  0  0  0  0
  150.2286  141.3104  155.9996 C   0  0  0  0  0  0  0  0  0  0  0  0
  150.7568  140.0843  155.5462 C   0  0  0  0  0  0  0  0  0  0  0  0
  150.1352  139.3575  154.3703 C   0  0  0  0  0  0  0  0  0  0  0  0
  148.6274  139.1329  154.5624 C   0  0  0  0  0  0  0  0  0  0  0  0
  148.1274  138.0921  153.6738 N   0  0  0  0  0  0  0  0  0  0  0  0
  146.8471  137.6920  153.5970 C   0  0  0  0  0  0  0  0  0  0  0  0
  145.9470  138.1616  154.2906 O   0  0  0  0  0  0  0  0  0  0  0  0
  146.6145  136.7281  152.6890 N   0  0  0  0  0  0  0  0  0  0  0  0
  145.3371  136.0856  152.3683 C   0  0  1  0  0  0  0  0  0  0  0  0
  145.1668  135.9105  150.8429 C   0  0  0  0  0  0  0  0  0  0  0  0
  144.9624  134.3924  150.6857 C   0  0  1  0  0  0  0  0  0  0  0  0
  146.2929  133.6627  150.9513 C   0  0  0  0  0  0  0  0  0  0  0  0
  146.4510  133.7873  152.4783 C   0  0  0  0  0  0  0  0  0  0  0  0
  145.2175  134.6256  152.8779 C   0  0  2  0  0  0  0  0  0  0  0  0
  144.1617  134.0557  151.9364 C   0  0  0  0  0  0  0  0  0  0  0  0
  151.8746  139.5483  156.2194 C   0  0  0  0  0  0  0  0  0  0  0  0
  152.4637  140.1504  157.2749 N   0  0  0  0  0  0  0  0  0  0  0  0
  152.1994  142.9217  159.1413 H   0  0  0  0  0  0  0  0  0  0  0  0
  153.7021  142.1257  158.6657 H   0  0  0  0  0  0  0  0  0  0  0  0
  152.5767  141.3108  159.7601 H   0  0  0  0  0  0  0  0  0  0  0  0
  150.4548  142.8873  157.4671 H   0  0  0  0  0  0  0  0  0  0  0  0
  149.3715  141.7563  155.5162 H   0  0  0  0  0  0  0  0  0  0  0  0
  150.3200  139.9323  153.4616 H   0  0  0  0  0  0  0  0  0  0  0  0
  150.6429  138.4011  154.2378 H   0  0  0  0  0  0  0  0  0  0  0  0
  148.4245  138.8264  155.5890 H   0  0  0  0  0  0  0  0  0  0  0  0
  148.0775  140.0615  154.3999 H   0  0  0  0  0  0  0  0  0  0  0  0
  148.7998  137.6494  153.0645 H   0  0  0  0  0  0  0  0  0  0  0  0
  147.4145  136.3980  152.1688 H   0  0  0  0  0  0  0  0  0  0  0  0
  144.5106  136.6883  152.7494 H   0  0  0  0  0  0  0  0  0  0  0  0
  144.2885  136.4556  150.4946 H   0  0  0  0  0  0  0  0  0  0  0  0
  146.0226  136.2668  150.2672 H   0  0  0  0  0  0  0  0  0  0  0  0
  144.4887  134.1108  149.7449 H   0  0  0  0  0  0  0  0  0  0  0  0
  146.2295  132.6146  150.6568 H   0  0  0  0  0  0  0  0  0  0  0  0
  147.1250  134.1135  150.4093 H   0  0  0  0  0  0  0  0  0  0  0  0
  146.4065  132.8017  152.9436 H   0  0  0  0  0  0  0  0  0  0  0  0
  147.4001  134.2380  152.7683 H   0  0  0  0  0  0  0  0  0  0  0  0
  144.9682  134.5508  153.9367 H   0  0  0  0  0  0  0  0  0  0  0  0
  143.2048  134.5778  151.9919 H   0  0  0  0  0  0  0  0  0  0  0  0
  143.9930  132.9853  152.0681 H   0  0  0  0  0  0  0  0  0  0  0  0
  152.3065  138.6092  155.9056 H   0  0  0  0  0  0  0  0  0  0  0  0
  1  2  1  0  0  0  0
  1 21  1  0  0  0  0
  1 22  1  0  0  0  0
  1 23  1  0  0  0  0
  2 20  1  0  0  0  0
  2  3  2  0  0  0  0
  3  4  1  0  0  0  0
  3 24  1  0  0  0  0
  4  5  2  0  0  0  0
  4 25  1  0  0  0  0
  5  6  1  0  0  0  0
  5 19  1  0  0  0  0
  6  7  1  0  0  0  0
  6 26  1  0  0  0  0
  6 27  1  0  0  0  0
  7  8  1  0  0  0  0
  7 28  1  0  0  0  0
  7 29  1  0  0  0  0
  8  9  1  0  0  0  0
  8 30  1  0  0  0  0
  9 10  2  0  0  0  0
  9 11  1  0  0  0  0
 11 12  1  0  0  0  0
 11 31  1  0  0  0  0
 12 17  1  0  0  0  0
 12 13  1  0  0  0  0
 12 32  1  0  0  0  0
 13 14  1  0  0  0  0
 13 33  1  0  0  0  0
 13 34  1  0  0  0  0
 14 18  1  0  0  0  0
 14 15  1  0  0  0  0
 14 35  1  0  0  0  0
 15 16  1  0  0  0  0
 15 36  1  0  0  0  0
 15 37  1  0  0  0  0
 16 17  1  0  0  0  0
 16 38  1  0  0  0  0
 16 39  1  0  0  0  0
 17 18  1  0  0  0  0
 17 40  1  0  0  0  0
 18 41  1  0  0  0  0
 18 42  1  0  0  0  0
 19 20  2  0  0  0  0
 19 43  1  0  0  0  0
M  END
> <s_m_source_file>
AV-unprocessed.smi

> <i_m_source_file_index>
753

> <i_lp_mmshare_version>
43012

> <i_f3d_flags>
0

> <s_epik_input>
W0NIM11jMVtjSF1bY0hdYyhbY0hdbjEpW0NIMl1bQ0gyXVtOSF1DKD1PKVtOSF1bQ0BIXShbQ0gyXVtDQEBIXTIzKVtDQEBIXShbQ0gyXTMpW0NIMl1bQ0gyXTI=

> <s_epik_cmdline>
J2VwaWtfcHl0aG9uJywgJy1waCcsICc3LjAnLCAnLXRuJywgJzgnLCAnLW1hJywgJzIwMCcsICctbWV0YWxfYmluZGluZycsICctaW1hZScsICc8aW5maWxlLm1hZT4nLCAnLW9tYWUnLCAnPG91dGZpbGUubWFlPic=

> <r_epik_Ionization_Penalty>
0.0569047

> <r_epik_Ionization_Penalty_Charging>
0

> <r_epik_Ionization_Penalty_Neutral>
0.0569047

> <r_epik_State_Penalty>
0.0490541

> <r_epik_Charging_Adjusted_Penalty>
0.0490541

> <i_epik_Tot_Q>
0

> <i_epik_Tot_abs_Q>
0

> <r_epik_Metal_State_Penalty>
0.0447357

> <b_epik_Metal_Only>
0

> <s_lp_Force_Field>
OPLS_2005

> <r_lp_Energy>
50.4095

> <b_lp_Chiralities_Consistent>
1

> <s_lp_Variant>
AV-unprocessed.smi:753-2

> <Gold.Version>
5.8.1

> <Gold.Id.Protein>
6NUR|6NUR_protein|mol2

> <Gold.PLP.Fitness>
41.8789

> <Gold.PLP.PLP>
-33.9372

> <Gold.PLP.part.hbond>
-2.9633

> <Gold.PLP.part.metal>
0.0000

> <Gold.PLP.part.buried>
-3.4845

> <Gold.PLP.part.nonpolar>
-28.3429

> <Gold.PLP.part.repulsive>
0.1493

> <Gold.PLP.ligand.clash>
0.0000

> <Gold.PLP.ligand.torsion>
0.3098

> <Gold.PLP.Chemscore.Hbond>
2.8480

> <Gold.PLP.Chemscore.CHOScore>
0.0000

> <Gold.PLP.Chemscore.Metal>
0.0000

> <Gold.Chemscore.Hbonds>
donor molecule, donor type, donor heavy atom, donor atom, acceptor molecule, acceptor atom, score
      L1  H     8    30       P1  7948  0.85
      L1  H    11    31       P1  7948  1.00
      P1  H  7997  8008       L1    20  1.00

> <Gold.PLP.Chemscore.Internal.Correction>
0.0172

> <Gold.Rescore>
     Score         DG    S(hbond)    S(metal)    S(lipo)     H(rot)  DE(clash)    DE(int)     intcor
     20.43     -21.08       2.54        0.00      92.09       1.43       0.32       0.33       ----

> <Gold.Chemscore.Fitness>
20.4343

> <Gold.Chemscore.DG>
-21.0818

> <Gold.Chemscore.ZeroCoef>
-5.4800

> <Gold.Chemscore.Hbond>
2.5405

> <Gold.Chemscore.Metal>
0.0000

> <Gold.Chemscore.Lipo>
92.0947

> <Gold.Chemscore.Internal_Hbond>
0.0000

> <Gold.Chemscore.DEClash>
0.3193

> <Gold.Chemscore.DEInternal>
0.3282

> <Gold.Chemscore.Rot>
1.4291

> <Gold.Chemscore.Internal.Correction>
   9.000000E+99

> <Gold.Chemscore.Hbonds>
donor molecule, donor type, donor heavy atom, donor atom, acceptor molecule, acceptor atom, score
      L1  H     8    30       P1  7948  0.83
      L1  H    11    31       P1  7948  0.95
      P1  H  7997  8008       L1    20  0.30

> <Gold.Chemscore.Hbond.Weighted>
-8.4853

> <Gold.Chemscore.Metal.Weighted>
-0.0000

> <Gold.Chemscore.Lipo.Weighted>
-10.7751

> <Gold.Chemscore.Internal_Hbond.Weighted>
0.0000

> <Gold.Chemscore.DEClash.Weighted>
0.3193

> <Gold.Chemscore.DEInternal.Weighted>
0.3282

> <Gold.Chemscore.Rot.Weighted>
3.6585

> <Gold.Chemscore.Internal.Correction.Weighted>
   9.000000E+99

> <Gold.Protein.RotatedTorsions>
[ 6907 6896 6895 6894 ] final    7.94 input  -60.11 | X-H torsion
[ 7974 7965 7964 7962 ] final -168.49 input  175.53 | X-H torsion
[ 8008 7997 7996 7995 ] final  -68.59 input   59.86 | X-H torsion
[ 10167 10162 10161 10158 ] final  -67.28 input  -65.29 | X-H torsion
[ 10718 10713 10712 10709 ] final -120.69 input   66.30 | X-H torsion
[ 10763 10752 10751 10750 ] final -132.40 input  -60.55 | X-H torsion
[ 11005 11000 10999 10996 ] final  -37.54 input  -57.11 | X-H torsion

> <Gold.Protein.ActiveResidues>
 VAL166  LYS551  ARG553  GLY616  TRP617  ASP618  TYR619  PRO620  LYS621  CYS622 
 ASP623  PHE694  ASN695  SER759  ASP760  ASP761  ALA762  ILE779  LEU786  VAL792 
 PHE793  MET794  SER795  GLU796  ALA797  LYS798  CYS799  TRP800  GLU811  SER814 

> <Gold.Protein.RotatedAtoms>
  151.6980  135.0935  160.0245 H   0  0  0  0  0  0  0  0  0  0  0  0  # atno 6907 bound_to 6896
  152.3738  133.6450  159.6116 H   0  0  0  0  0  0  0  0  0  0  0  0  # atno 6908 bound_to 6896
  150.7693  133.9143  159.3420 H   0  0  0  0  0  0  0  0  0  0  0  0  # atno 6909 bound_to 6896
  144.7202  140.2362  143.6297 H   0  0  0  0  0  0  0  0  0  0  0  0  # atno 7974 bound_to 7965
  154.4879  140.0870  156.7528 H   0  0  0  0  0  0  0  0  0  0  0  0  # atno 8008 bound_to 7997
  155.4304  140.3449  155.4261 H   0  0  0  0  0  0  0  0  0  0  0  0  # atno 8009 bound_to 7997
  156.1288  140.1495  156.9085 H   0  0  0  0  0  0  0  0  0  0  0  0  # atno 8010 bound_to 7997
  140.5595  143.2312  151.6756 H   0  0  0  0  0  0  0  0  0  0  0  0  # atno 10167 bound_to 10162
  156.1278  130.6372  150.9572 H   0  0  0  0  0  0  0  0  0  0  0  0  # atno 10718 bound_to 10713
  154.8743  135.3799  154.4404 H   0  0  0  0  0  0  0  0  0  0  0  0  # atno 10763 bound_to 10752
  153.5089  135.7030  153.5796 H   0  0  0  0  0  0  0  0  0  0  0  0  # atno 10764 bound_to 10752
  153.4094  135.3928  155.2007 H   0  0  0  0  0  0  0  0  0  0  0  0  # atno 10765 bound_to 10752
  140.9960  133.6980  156.1935 H   0  0  0  0  0  0  0  0  0  0  0  0  # atno 11005 bound_to 11000
  145.8363  139.2109  143.1853 LP  0  0  0  0  0  0  0  0  0  0  0  0  # atno 17320 bound_to 7965
  146.0386  140.8187  142.9840 LP  0  0  0  0  0  0  0  0  0  0  0  0  # atno 17321 bound_to 7965
  139.5063  144.3686  152.0493 LP  0  0  0  0  0  0  0  0  0  0  0  0  # atno 17342 bound_to 10162
  140.2810  144.3859  150.6119 LP  0  0  0  0  0  0  0  0  0  0  0  0  # atno 17343 bound_to 10162
  157.6458  131.0904  150.8155 LP  0  0  0  0  0  0  0  0  0  0  0  0  # atno 17370 bound_to 10713
  156.8244  130.4994  149.5339 LP  0  0  0  0  0  0  0  0  0  0  0  0  # atno 17371 bound_to 10713
  140.6966  134.4609  157.5587 LP  0  0  0  0  0  0  0  0  0  0  0  0  # atno 17394 bound_to 11000
  139.9015  134.8546  156.1878 LP  0  0  0  0  0  0  0  0  0  0  0  0  # atno 17395 bound_to 11000

$$$$
