AV-unprocessed.smi:2784|AV-procd|sdf|10740|dock8
  -GOLD-   2272015173D 1   1.00000     0.00000
 Structure written by MMmdl.
 31 32  0  0  0  0  0  0  0  0  1 V2000
  149.8481  140.2426  158.4953 C   0  0  0  0  0  0  0  0  0  0  0  0
  150.2254  141.5869  158.7432 O   0  0  0  0  0  0  0  0  0  0  0  0
  151.5584  141.8927  158.3422 C   0  0  2  0  0  0  0  0  0  0  0  0
  152.1769  142.7183  159.4716 C   0  0  0  0  0  0  0  0  0  0  0  0
  151.6897  144.1403  159.2089 C   0  0  0  0  0  0  0  0  0  0  0  0
  151.6856  144.2719  157.6839 C   0  0  0  0  0  0  0  0  0  0  0  0
  151.5733  142.8412  157.1203 C   0  0  2  0  0  0  0  0  0  0  0  0
  150.3900  142.7028  156.2729 N   0  0  0  0  0  0  0  0  0  0  0  0
  150.0559  141.6091  155.5720 C   0  0  0  0  0  0  0  0  0  0  0  0
  150.7608  140.5949  155.5854 O   0  0  0  0  0  0  0  0  0  0  0  0
  148.8616  141.8244  154.8998 N   0  0  0  0  0  0  0  0  0  0  0  0
  148.2305  140.8221  154.3709 C   0  0  0  0  0  0  0  0  0  0  0  0
  147.0325  140.8502  153.6751 N   0  0  0  0  0  0  0  0  0  0  0  0
  146.7321  139.5723  153.2921 C   0  0  0  0  0  0  0  0  0  0  0  0
  147.7000  138.7714  153.7283 C   0  0  0  0  0  0  0  0  0  0  0  0
  148.6337  139.5066  154.3942 O   0  0  0  0  0  0  0  0  0  0  0  0
  148.8094  140.0942  158.7896 H   0  0  0  0  0  0  0  0  0  0  0  0
  150.4639  139.5518  159.0726 H   0  0  0  0  0  0  0  0  0  0  0  0
  149.9386  139.9906  157.4383 H   0  0  0  0  0  0  0  0  0  0  0  0
  152.1450  140.9901  158.1582 H   0  0  0  0  0  0  0  0  0  0  0  0
  151.9048  142.3537  160.4627 H   0  0  0  0  0  0  0  0  0  0  0  0
  153.2646  142.6867  159.3948 H   0  0  0  0  0  0  0  0  0  0  0  0
  150.6739  144.2535  159.5899 H   0  0  0  0  0  0  0  0  0  0  0  0
  152.3117  144.8935  159.6932 H   0  0  0  0  0  0  0  0  0  0  0  0
  150.8802  144.9277  157.3497 H   0  0  0  0  0  0  0  0  0  0  0  0
  152.6210  144.7218  157.3489 H   0  0  0  0  0  0  0  0  0  0  0  0
  152.4730  142.6477  156.5330 H   0  0  0  0  0  0  0  0  0  0  0  0
  149.7684  143.4973  156.2296 H   0  0  0  0  0  0  0  0  0  0  0  0
  146.4495  141.6478  153.4662 H   0  0  0  0  0  0  0  0  0  0  0  0
  145.8316  139.3671  152.7321 H   0  0  0  0  0  0  0  0  0  0  0  0
  147.8627  137.7067  153.6503 H   0  0  0  0  0  0  0  0  0  0  0  0
  1  2  1  0  0  0  0
  1 17  1  0  0  0  0
  1 18  1  0  0  0  0
  1 19  1  0  0  0  0
  2  3  1  0  0  0  0
  3  7  1  0  0  0  0
  3  4  1  0  0  0  0
  3 20  1  0  0  0  0
  4  5  1  0  0  0  0
  4 21  1  0  0  0  0
  4 22  1  0  0  0  0
  5  6  1  0  0  0  0
  5 23  1  0  0  0  0
  5 24  1  0  0  0  0
  6  7  1  0  0  0  0
  6 25  1  0  0  0  0
  6 26  1  0  0  0  0
  7  8  1  0  0  0  0
  7 27  1  0  0  0  0
  8 28  1  0  0  0  0
  8  9  1  0  0  0  0
  9 11  1  0  0  0  0
  9 10  2  0  0  0  0
 11 12  2  0  0  0  0
 12 16  1  0  0  0  0
 12 13  1  0  0  0  0
 13 29  1  0  0  0  0
 13 14  1  0  0  0  0
 14 30  1  0  0  0  0
 14 15  2  0  0  0  0
 15 31  1  0  0  0  0
 15 16  1  0  0  0  0
M  END
> <s_m_source_file>
AV-unprocessed.smi

> <i_m_source_file_index>
2784

> <i_lp_mmshare_version>
43012

> <i_f3d_flags>
0

> <s_epik_input>
W0NIM11PW0NAQEhdMVtDSDJdW0NIMl1bQ0gyXVtDQEhdMVtOSF1DKD1PKVtOSF1jMm5bY0hdW2NIXW8y

> <s_epik_cmdline>
J2VwaWtfcHl0aG9uJywgJy1waCcsICc3LjAnLCAnLXRuJywgJzgnLCAnLW1hJywgJzIwMCcsICctbWV0YWxfYmluZGluZycsICctaW1hZScsICc8aW5maWxlLm1hZT4nLCAnLW9tYWUnLCAnPG91dGZpbGUubWFlPic=

> <r_lp_tautomer_probability>
0.107061

> <r_epik_Ionization_Penalty>
1.29244

> <r_epik_Ionization_Penalty_Charging>
1.29208

> <r_epik_Ionization_Penalty_Neutral>
0.000359742

> <r_epik_State_Penalty>
2.59896

> <r_epik_Charging_Adjusted_Penalty>
3.89105

> <i_epik_Tot_Q>
0

> <i_epik_Tot_abs_Q>
0

> <r_epik_Metal_State_Penalty>
3.62496

> <b_epik_Metal_Only>
0

> <s_lp_Force_Field>
OPLS_2005

> <r_lp_Energy>
45.4205

> <b_lp_Chiralities_Consistent>
1

> <s_lp_Variant>
AV-unprocessed.smi:2784-15

> <Gold.Version>
5.8.1

> <Gold.Id.Protein>
6NUR|6NUR_protein|mol2

> <Gold.PLP.Fitness>
36.9400

> <Gold.PLP.PLP>
-26.8288

> <Gold.PLP.part.hbond>
-1.9976

> <Gold.PLP.part.metal>
0.0000

> <Gold.PLP.part.buried>
-4.1949

> <Gold.PLP.part.nonpolar>
-21.7218

> <Gold.PLP.part.repulsive>
1.6221

> <Gold.PLP.ligand.clash>
0.0000

> <Gold.PLP.ligand.torsion>
0.7228

> <Gold.PLP.Chemscore.Hbond>
1.8480

> <Gold.PLP.Chemscore.CHOScore>
2.0000

> <Gold.PLP.Chemscore.Metal>
0.0000

> <Gold.Chemscore.Hbonds>
donor molecule, donor type, donor heavy atom, donor atom, acceptor molecule, acceptor atom, score
      L1  H     8    28       P1  8028  1.00
      P1  H  7989  7998       L1    10  0.28
      L1  C    14    30       P1 10175  1.00
      L1  C    15    31       P1  7948  0.93

> <Gold.PLP.Chemscore.Internal.Correction>
0.0129

> <Gold.Rescore>
     Score         DG    S(hbond)    S(metal)    S(lipo)     H(rot)  DE(clash)    DE(int)     intcor
     10.17     -14.44       1.08        0.00      74.79       1.32       1.96       2.32       ----

> <Gold.Chemscore.Fitness>
10.1733

> <Gold.Chemscore.DG>
-14.4447

> <Gold.Chemscore.ZeroCoef>
-5.4800

> <Gold.Chemscore.Hbond>
1.0784

> <Gold.Chemscore.Metal>
0.0000

> <Gold.Chemscore.Lipo>
74.7947

> <Gold.Chemscore.Internal_Hbond>
0.0000

> <Gold.Chemscore.DEClash>
1.9551

> <Gold.Chemscore.DEInternal>
2.3163

> <Gold.Chemscore.Rot>
1.3235

> <Gold.Chemscore.Internal.Correction>
   9.000000E+99

> <Gold.Chemscore.Hbonds>
donor molecule, donor type, donor heavy atom, donor atom, acceptor molecule, acceptor atom, score
      L1  H     8    28       P1  8028  0.99
      P1  H  7989  7998       L1    10  0.04

> <Gold.Chemscore.Hbond.Weighted>
-3.6019

> <Gold.Chemscore.Metal.Weighted>
-0.0000

> <Gold.Chemscore.Lipo.Weighted>
-8.7510

> <Gold.Chemscore.Internal_Hbond.Weighted>
0.0000

> <Gold.Chemscore.DEClash.Weighted>
1.9551

> <Gold.Chemscore.DEInternal.Weighted>
2.3163

> <Gold.Chemscore.Rot.Weighted>
3.3882

> <Gold.Chemscore.Internal.Correction.Weighted>
   9.000000E+99

> <Gold.Protein.RotatedTorsions>
[ 6907 6896 6895 6894 ] final -147.51 input  -60.11 | X-H torsion
[ 7974 7965 7964 7962 ] final  150.16 input  175.53 | X-H torsion
[ 8008 7997 7996 7995 ] final  123.53 input   59.86 | X-H torsion
[ 10167 10162 10161 10158 ] final  -27.44 input  -65.29 | X-H torsion
[ 10718 10713 10712 10709 ] final  -37.88 input   66.30 | X-H torsion
[ 10763 10752 10751 10750 ] final  143.78 input  -60.55 | X-H torsion
[ 11005 11000 10999 10996 ] final -110.58 input  -57.11 | X-H torsion

> <Gold.Protein.ActiveResidues>
 VAL166  LYS551  ARG553  GLY616  TRP617  ASP618  TYR619  PRO620  LYS621  CYS622 
 ASP623  PHE694  ASN695  SER759  ASP760  ASP761  ALA762  ILE779  LEU786  VAL792 
 PHE793  MET794  SER795  GLU796  ALA797  LYS798  CYS799  TRP800  GLU811  SER814 

> <Gold.Protein.RotatedAtoms>
  151.1567  133.4871  159.2594 H   0  0  0  0  0  0  0  0  0  0  0  0  # atno 6907 bound_to 6896
  151.1497  135.0220  159.8672 H   0  0  0  0  0  0  0  0  0  0  0  0  # atno 6908 bound_to 6896
  152.5463  134.1453  159.8549 H   0  0  0  0  0  0  0  0  0  0  0  0  # atno 6909 bound_to 6896
  144.8384  139.6373  143.6027 H   0  0  0  0  0  0  0  0  0  0  0  0  # atno 7974 bound_to 7965
  156.2769  140.2760  156.1643 H   0  0  0  0  0  0  0  0  0  0  0  0  # atno 8008 bound_to 7997
  155.0721  140.0387  157.2630 H   0  0  0  0  0  0  0  0  0  0  0  0  # atno 8009 bound_to 7997
  154.7032  140.2653  155.6705 H   0  0  0  0  0  0  0  0  0  0  0  0  # atno 8010 bound_to 7997
  140.7277  143.4093  151.1133 H   0  0  0  0  0  0  0  0  0  0  0  0  # atno 10167 bound_to 10162
  156.3102  130.4251  149.8058 H   0  0  0  0  0  0  0  0  0  0  0  0  # atno 10718 bound_to 10713
  153.9780  135.2944  155.3422 H   0  0  0  0  0  0  0  0  0  0  0  0  # atno 10763 bound_to 10752
  154.7285  135.5078  153.8928 H   0  0  0  0  0  0  0  0  0  0  0  0  # atno 10764 bound_to 10752
  153.0868  135.6696  154.0047 H   0  0  0  0  0  0  0  0  0  0  0  0  # atno 10765 bound_to 10752
  141.0783  133.9263  157.2342 H   0  0  0  0  0  0  0  0  0  0  0  0  # atno 11005 bound_to 11000
  146.2680  139.6566  142.9316 LP  0  0  0  0  0  0  0  0  0  0  0  0  # atno 17320 bound_to 7965
  145.4745  141.0437  143.2680 LP  0  0  0  0  0  0  0  0  0  0  0  0  # atno 17321 bound_to 7965
  139.7724  143.8475  152.3123 LP  0  0  0  0  0  0  0  0  0  0  0  0  # atno 17342 bound_to 10162
  139.8398  144.7215  150.9345 LP  0  0  0  0  0  0  0  0  0  0  0  0  # atno 17343 bound_to 10162
  156.5404  130.8297  151.3267 LP  0  0  0  0  0  0  0  0  0  0  0  0  # atno 17370 bound_to 10713
  157.7389  130.9822  150.2280 LP  0  0  0  0  0  0  0  0  0  0  0  0  # atno 17371 bound_to 10713
  139.9596  135.0157  156.9225 LP  0  0  0  0  0  0  0  0  0  0  0  0  # atno 17394 bound_to 11000
  140.5524  134.0614  155.7373 LP  0  0  0  0  0  0  0  0  0  0  0  0  # atno 17395 bound_to 11000

$$$$
