AV-unprocessed.smi:2667|AV-procd|sdf|10335|dock7
  -GOLD-   2272014353D 1   1.00000     0.00000
 Structure written by MMmdl.
 44 46  0  0  0  0  0  0  0  0  1 V2000
  150.8444  144.3903  158.9735 C   0  0  0  0  0  0  0  0  0  0  0  0
  152.3708  144.2672  158.8441 C   0  0  0  0  0  0  0  0  0  0  0  0
  152.9212  142.8877  159.2384 C   0  0  0  0  0  0  0  0  0  0  0  0
  153.6410  142.7771  160.2319 O   0  0  0  0  0  0  0  0  0  0  0  0
  152.5532  141.7301  158.3724 C   0  0  0  0  0  0  0  0  0  0  0  0
  153.4909  140.7316  158.0201 C   0  0  0  0  0  0  0  0  0  0  0  0
  153.1091  139.6495  157.2044 C   0  0  0  0  0  0  0  0  0  0  0  0
  151.7907  139.5346  156.7223 C   0  0  0  0  0  0  0  0  0  0  0  0
  151.5034  138.4368  155.9400 O   0  0  0  0  0  0  0  0  0  0  0  0
  150.1528  138.2230  155.5521 C   0  0  0  0  0  0  0  0  0  0  0  0
  150.1071  137.0556  154.5494 C   0  0  1  0  0  0  0  0  0  0  0  0
  150.8803  137.4105  153.4217 O   0  0  0  0  0  0  0  0  0  0  0  0
  150.6900  135.7390  155.1000 C   0  0  0  0  0  0  0  0  0  0  0  0
  150.3711  134.5906  154.2712 N   0  0  0  0  0  0  0  0  0  0  0  0
  149.2080  134.3509  153.6360 C   0  0  0  0  0  0  0  0  0  0  0  0
  149.1230  133.2331  152.9205 N   0  0  0  0  0  0  0  0  0  0  0  0
  150.3789  132.6832  153.1114 C   0  0  0  0  0  0  0  0  0  0  0  0
  150.9398  131.4842  152.6164 C   0  0  0  0  0  0  0  0  0  0  0  0
  152.2615  131.1224  152.9508 C   0  0  0  0  0  0  0  0  0  0  0  0
  153.0410  131.9511  153.7838 C   0  0  0  0  0  0  0  0  0  0  0  0
  152.5040  133.1509  154.2885 C   0  0  0  0  0  0  0  0  0  0  0  0
  151.1855  133.5092  153.9514 C   0  0  0  0  0  0  0  0  0  0  0  0
  150.8526  140.5390  157.0651 C   0  0  0  0  0  0  0  0  0  0  0  0
  151.2332  141.6231  157.8794 C   0  0  0  0  0  0  0  0  0  0  0  0
  150.5172  145.3935  158.7007 H   0  0  0  0  0  0  0  0  0  0  0  0
  150.5152  144.2039  159.9965 H   0  0  0  0  0  0  0  0  0  0  0  0
  150.3298  143.6868  158.3179 H   0  0  0  0  0  0  0  0  0  0  0  0
  152.6643  144.4784  157.8155 H   0  0  0  0  0  0  0  0  0  0  0  0
  152.8431  145.0220  159.4732 H   0  0  0  0  0  0  0  0  0  0  0  0
  154.5134  140.7728  158.3641 H   0  0  0  0  0  0  0  0  0  0  0  0
  153.8385  138.8949  156.9487 H   0  0  0  0  0  0  0  0  0  0  0  0
  149.5115  138.0165  156.4108 H   0  0  0  0  0  0  0  0  0  0  0  0
  149.7943  139.1380  155.0802 H   0  0  0  0  0  0  0  0  0  0  0  0
  149.0783  136.8839  154.2295 H   0  0  0  0  0  0  0  0  0  0  0  0
  150.3603  137.2655  152.6460 H   0  0  0  0  0  0  0  0  0  0  0  0
  151.7765  135.8096  155.1728 H   0  0  0  0  0  0  0  0  0  0  0  0
  150.3238  135.5537  156.1106 H   0  0  0  0  0  0  0  0  0  0  0  0
  148.3761  135.0368  153.7042 H   0  0  0  0  0  0  0  0  0  0  0  0
  150.3521  130.8417  151.9777 H   0  0  0  0  0  0  0  0  0  0  0  0
  152.6791  130.2035  152.5660 H   0  0  0  0  0  0  0  0  0  0  0  0
  154.0519  131.6652  154.0350 H   0  0  0  0  0  0  0  0  0  0  0  0
  153.0980  133.7867  154.9283 H   0  0  0  0  0  0  0  0  0  0  0  0
  149.8319  140.5023  156.7159 H   0  0  0  0  0  0  0  0  0  0  0  0
  150.4928  142.3708  158.1247 H   0  0  0  0  0  0  0  0  0  0  0  0
  1  2  1  0  0  0  0
  1 25  1  0  0  0  0
  1 26  1  0  0  0  0
  1 27  1  0  0  0  0
  2  3  1  0  0  0  0
  2 28  1  0  0  0  0
  2 29  1  0  0  0  0
  3  4  2  0  0  0  0
  3  5  1  0  0  0  0
  5 24  1  0  0  0  0
  5  6  2  0  0  0  0
  6  7  1  0  0  0  0
  6 30  1  0  0  0  0
  7  8  2  0  0  0  0
  7 31  1  0  0  0  0
  8  9  1  0  0  0  0
  8 23  1  0  0  0  0
  9 10  1  0  0  0  0
 10 11  1  0  0  0  0
 10 32  1  0  0  0  0
 10 33  1  0  0  0  0
 11 12  1  0  0  0  0
 11 13  1  0  0  0  0
 11 34  1  0  0  0  0
 12 35  1  0  0  0  0
 13 14  1  0  0  0  0
 13 36  1  0  0  0  0
 13 37  1  0  0  0  0
 14 22  1  0  0  0  0
 14 15  1  0  0  0  0
 15 16  2  0  0  0  0
 15 38  1  0  0  0  0
 16 17  1  0  0  0  0
 17 22  2  0  0  0  0
 17 18  1  0  0  0  0
 18 19  2  0  0  0  0
 18 39  1  0  0  0  0
 19 20  1  0  0  0  0
 19 40  1  0  0  0  0
 20 21  2  0  0  0  0
 20 41  1  0  0  0  0
 21 22  1  0  0  0  0
 21 42  1  0  0  0  0
 23 24  2  0  0  0  0
 23 43  1  0  0  0  0
 24 44  1  0  0  0  0
M  END
> <s_m_source_file>
AV-unprocessed.smi

> <i_m_source_file_index>
2667

> <i_lp_mmshare_version>
43012

> <i_f3d_flags>
0

> <s_epik_input>
W0NIM11bQ0gyXUMoPU8pYzFbY0hdW2NIXWMoW2NIXVtjSF0xKU9bQ0gyXVtDQEhdKFtPSF0pW0NIMl1uKFtjSF1uMiljKGMyMylbY0hdW2NIXVtjSF1bY0hdMw==

> <s_epik_cmdline>
J2VwaWtfcHl0aG9uJywgJy1waCcsICc3LjAnLCAnLXRuJywgJzgnLCAnLW1hJywgJzIwMCcsICctbWV0YWxfYmluZGluZycsICctaW1hZScsICc8aW5maWxlLm1hZT4nLCAnLW9tYWUnLCAnPG91dGZpbGUubWFlPic=

> <r_lp_tautomer_probability>
0.9999

> <r_epik_Ionization_Penalty>
0.0583018

> <r_epik_Ionization_Penalty_Charging>
0

> <r_epik_Ionization_Penalty_Neutral>
0.0583018

> <r_epik_State_Penalty>
0.0504087

> <r_epik_Charging_Adjusted_Penalty>
0.0504087

> <i_epik_Tot_Q>
0

> <i_epik_Tot_abs_Q>
0

> <r_epik_Metal_State_Penalty>
5.26129e-05

> <b_epik_Metal_Only>
0

> <s_lp_Force_Field>
OPLS_2005

> <r_lp_Energy>
23.9231

> <b_lp_Chiralities_Consistent>
1

> <s_lp_Variant>
AV-unprocessed.smi:2667-2

> <Gold.Version>
5.8.1

> <Gold.Id.Protein>
6NUR|6NUR_protein|mol2

> <Gold.PLP.Fitness>
52.8303

> <Gold.PLP.PLP>
-45.9557

> <Gold.PLP.part.hbond>
-2.0000

> <Gold.PLP.part.metal>
0.0000

> <Gold.PLP.part.buried>
-6.0804

> <Gold.PLP.part.nonpolar>
-38.1446

> <Gold.PLP.part.repulsive>
0.1705

> <Gold.PLP.ligand.clash>
0.0000

> <Gold.PLP.ligand.torsion>
1.1306

> <Gold.PLP.Chemscore.Hbond>
2.0000

> <Gold.PLP.Chemscore.CHOScore>
0.9998

> <Gold.PLP.Chemscore.Metal>
0.0000

> <Gold.Chemscore.Hbonds>
donor molecule, donor type, donor heavy atom, donor atom, acceptor molecule, acceptor atom, score
      L1  H    12    35       P1  7948  0.14
      L1  C    15    38       P1  7948  0.28

> <Gold.PLP.Chemscore.Internal.Correction>
0.1365

> <Gold.Rescore>
     Score         DG    S(hbond)    S(metal)    S(lipo)     H(rot)  DE(clash)    DE(int)     intcor
     15.30     -16.99       1.61        0.00     106.93       2.49       0.58       1.11       ----

> <Gold.Chemscore.Fitness>
15.2963

> <Gold.Chemscore.DG>
-16.9856

> <Gold.Chemscore.ZeroCoef>
-5.4800

> <Gold.Chemscore.Hbond>
1.6099

> <Gold.Chemscore.Metal>
0.0000

> <Gold.Chemscore.Lipo>
106.9331

> <Gold.Chemscore.Internal_Hbond>
0.0000

> <Gold.Chemscore.DEClash>
0.5782

> <Gold.Chemscore.DEInternal>
1.1111

> <Gold.Chemscore.Rot>
2.4932

> <Gold.Chemscore.Internal.Correction>
   9.000000E+99

> <Gold.Chemscore.Hbond.Weighted>
-5.3771

> <Gold.Chemscore.Metal.Weighted>
-0.0000

> <Gold.Chemscore.Lipo.Weighted>
-12.5112

> <Gold.Chemscore.Internal_Hbond.Weighted>
0.0000

> <Gold.Chemscore.DEClash.Weighted>
0.5782

> <Gold.Chemscore.DEInternal.Weighted>
1.1111

> <Gold.Chemscore.Rot.Weighted>
6.3826

> <Gold.Chemscore.Internal.Correction.Weighted>
   9.000000E+99

> <Gold.Protein.RotatedTorsions>
[ 6907 6896 6895 6894 ] final   46.35 input  -60.11 | X-H torsion
[ 7974 7965 7964 7962 ] final  -96.36 input  175.53 | X-H torsion
[ 8008 7997 7996 7995 ] final   64.96 input   59.86 | X-H torsion
[ 10167 10162 10161 10158 ] final   65.91 input  -65.29 | X-H torsion
[ 10718 10713 10712 10709 ] final  -15.42 input   66.30 | X-H torsion
[ 10763 10752 10751 10750 ] final  -62.35 input  -60.55 | X-H torsion
[ 11005 11000 10999 10996 ] final  165.04 input  -57.11 | X-H torsion

> <Gold.Protein.ActiveResidues>
 VAL166  LYS551  ARG553  GLY616  TRP617  ASP618  TYR619  PRO620  LYS621  CYS622 
 ASP623  PHE694  ASN695  SER759  ASP760  ASP761  ALA762  ILE779  LEU786  VAL792 
 PHE793  MET794  SER795  GLU796  ALA797  LYS798  CYS799  TRP800  GLU811  SER814 

> <Gold.Protein.RotatedAtoms>
  152.2553  134.8090  160.0439 H   0  0  0  0  0  0  0  0  0  0  0  0  # atno 6907 bound_to 6896
  151.8756  133.3479  159.3757 H   0  0  0  0  0  0  0  0  0  0  0  0  # atno 6908 bound_to 6896
  150.7098  134.4997  159.5599 H   0  0  0  0  0  0  0  0  0  0  0  0  # atno 6909 bound_to 6896
  145.3479  140.9471  143.2571 H   0  0  0  0  0  0  0  0  0  0  0  0  # atno 7974 bound_to 7965
  155.6542  140.3497  155.4759 H   0  0  0  0  0  0  0  0  0  0  0  0  # atno 8008 bound_to 7997
  155.9822  140.1177  157.0739 H   0  0  0  0  0  0  0  0  0  0  0  0  # atno 8009 bound_to 7997
  154.4195  140.1136  156.5437 H   0  0  0  0  0  0  0  0  0  0  0  0  # atno 8010 bound_to 7997
  140.1062  144.4859  150.7006 H   0  0  0  0  0  0  0  0  0  0  0  0  # atno 10167 bound_to 10162
  156.6020  130.4826  149.6236 H   0  0  0  0  0  0  0  0  0  0  0  0  # atno 10718 bound_to 10713
  154.2986  135.6239  153.5415 H   0  0  0  0  0  0  0  0  0  0  0  0  # atno 10763 bound_to 10752
  152.9843  135.5673  154.5309 H   0  0  0  0  0  0  0  0  0  0  0  0  # atno 10764 bound_to 10752
  154.4935  135.2868  155.1454 H   0  0  0  0  0  0  0  0  0  0  0  0  # atno 10765 bound_to 10752
  140.2521  134.7969  157.3511 H   0  0  0  0  0  0  0  0  0  0  0  0  # atno 11005 bound_to 11000
  144.8740  139.4997  143.6754 LP  0  0  0  0  0  0  0  0  0  0  0  0  # atno 17320 bound_to 7965
  146.2980  139.7338  142.9112 LP  0  0  0  0  0  0  0  0  0  0  0  0  # atno 17321 bound_to 7965
  140.6951  143.2399  151.5024 LP  0  0  0  0  0  0  0  0  0  0  0  0  # atno 17342 bound_to 10162
  139.5644  144.2078  152.1742 LP  0  0  0  0  0  0  0  0  0  0  0  0  # atno 17343 bound_to 10162
  156.2461  130.6880  151.1601 LP  0  0  0  0  0  0  0  0  0  0  0  0  # atno 17370 bound_to 10713
  157.7277  131.0637  150.5854 LP  0  0  0  0  0  0  0  0  0  0  0  0  # atno 17371 bound_to 10713
  140.1548  134.4804  155.7936 LP  0  0  0  0  0  0  0  0  0  0  0  0  # atno 17394 bound_to 11000
  141.2200  133.6877  156.7441 LP  0  0  0  0  0  0  0  0  0  0  0  0  # atno 17395 bound_to 11000

$$$$
