AV-unprocessed.smi:2584|AV-procd|sdf|10143|dock1
  -GOLD-   2272014153D 1   1.00000     0.00000
 Structure written by MMmdl.
 35 36  0  0  0  0  0  0  0  0  2 V2000
  149.7265  135.6233  156.3895 O   0  0  0  0  0  0  0  0  0  0  0  0
  149.4989  135.7851  155.1901 C   0  0  0  0  0  0  0  0  0  0  0  0
  148.8184  134.9031  154.4438 N   0  0  0  0  0  0  0  0  0  0  0  0
  148.2823  133.6380  154.9329 C   0  0  0  0  0  0  0  0  0  0  0  0
  148.8239  132.4408  154.1270 C   0  0  0  0  0  0  0  0  0  0  0  0
  147.9541  132.0940  152.9747 N   0  3  0  0  0  0  0  0  0  0  0  0
  147.4699  133.3011  152.2544 C   0  0  0  0  0  0  0  0  0  0  0  0
  146.6854  132.9181  150.9880 C   0  0  0  0  0  0  0  0  0  0  0  0
  145.5176  131.9828  151.3262 C   0  0  0  0  0  0  0  0  0  0  0  0
  146.0331  130.7615  152.0976 C   0  0  0  0  0  0  0  0  0  0  0  0
  146.8298  131.1903  153.3414 C   0  0  0  0  0  0  0  0  0  0  0  0
  149.8889  136.8450  154.4625 N   0  0  0  0  0  0  0  0  0  0  0  0
  150.5963  137.9231  154.8843 C   0  0  0  0  0  0  0  0  0  0  0  0
  150.8811  139.1258  154.2850 C   0  0  0  0  0  0  0  0  0  0  0  0
  151.6603  139.9838  155.0771 N   0  0  0  0  0  0  0  0  0  0  0  0
  151.9771  139.4939  156.2396 N   0  0  0  0  0  0  0  0  0  0  0  0
  151.3463  137.9557  156.4388 S   0  0  0  0  0  0  0  0  0  0  0  0
  148.6764  135.1137  153.4664 H   0  0  0  0  0  0  0  0  0  0  0  0
  148.5615  133.5355  155.9818 H   0  0  0  0  0  0  0  0  0  0  0  0
  147.1934  133.6811  154.9054 H   0  0  0  0  0  0  0  0  0  0  0  0
  149.8391  132.6273  153.7732 H   0  0  0  0  0  0  0  0  0  0  0  0
  148.8871  131.5851  154.8011 H   0  0  0  0  0  0  0  0  0  0  0  0
  146.8436  133.8969  152.9205 H   0  0  0  0  0  0  0  0  0  0  0  0
  148.3170  133.9273  151.9713 H   0  0  0  0  0  0  0  0  0  0  0  0
  146.3120  133.8160  150.4946 H   0  0  0  0  0  0  0  0  0  0  0  0
  147.3531  132.4294  150.2771 H   0  0  0  0  0  0  0  0  0  0  0  0
  144.7799  132.5155  151.9278 H   0  0  0  0  0  0  0  0  0  0  0  0
  145.0093  131.6672  150.4146 H   0  0  0  0  0  0  0  0  0  0  0  0
  145.1965  130.1264  152.3910 H   0  0  0  0  0  0  0  0  0  0  0  0
  146.6667  130.1569  151.4472 H   0  0  0  0  0  0  0  0  0  0  0  0
  147.2047  130.2981  153.8411 H   0  0  0  0  0  0  0  0  0  0  0  0
  146.1725  131.6950  154.0514 H   0  0  0  0  0  0  0  0  0  0  0  0
  149.6374  136.8434  153.4847 H   0  0  0  0  0  0  0  0  0  0  0  0
  150.5819  139.4687  153.3060 H   0  0  0  0  0  0  0  0  0  0  0  0
  148.5346  131.5915  152.3185 H   0  0  0  0  0  0  0  0  0  0  0  0
  1  2  2  0  0  0  0
  2  3  1  0  0  0  0
  2 12  1  0  0  0  0
  3  4  1  0  0  0  0
  3 18  1  0  0  0  0
  4  5  1  0  0  0  0
  4 19  1  0  0  0  0
  4 20  1  0  0  0  0
  5  6  1  0  0  0  0
  5 21  1  0  0  0  0
  5 22  1  0  0  0  0
  6 11  1  0  0  0  0
  6  7  1  0  0  0  0
  6 35  1  0  0  0  0
  7  8  1  0  0  0  0
  7 23  1  0  0  0  0
  7 24  1  0  0  0  0
  8  9  1  0  0  0  0
  8 25  1  0  0  0  0
  8 26  1  0  0  0  0
  9 10  1  0  0  0  0
  9 27  1  0  0  0  0
  9 28  1  0  0  0  0
 10 11  1  0  0  0  0
 10 29  1  0  0  0  0
 10 30  1  0  0  0  0
 11 31  1  0  0  0  0
 11 32  1  0  0  0  0
 12 13  1  0  0  0  0
 12 33  1  0  0  0  0
 13 17  1  0  0  0  0
 13 14  2  0  0  0  0
 14 15  1  0  0  0  0
 14 34  1  0  0  0  0
 15 16  2  0  0  0  0
 16 17  1  0  0  0  0
M  CHG  1   6   1
M  END
> <s_m_source_file>
AV-unprocessed.smi

> <i_m_source_file_index>
2584

> <i_lp_mmshare_version>
43012

> <i_f3d_flags>
0

> <s_epik_input>
czFubltjSF1jMVtOSF1DKD1PKVtOSF1bQ0gyXVtDSDJdTjJbQ0gyXVtDSDJdW0NIMl1bQ0gyXVtDSDJdMg==

> <s_epik_cmdline>
J2VwaWtfcHl0aG9uJywgJy1waCcsICc3LjAnLCAnLXRuJywgJzgnLCAnLW1hJywgJzIwMCcsICctbWV0YWxfYmluZGluZycsICctaW1hZScsICc8aW5maWxlLm1hZT4nLCAnLW9tYWUnLCAnPG91dGZpbGUubWFlPic=

> <r_lp_tautomer_probability>
1

> <r_epik_Ionization_Penalty>
0.00255984

> <r_epik_Ionization_Penalty_Charging>
0.0025387

> <r_epik_Ionization_Penalty_Neutral>
2.11374e-05

> <r_epik_State_Penalty>
0.00176242

> <r_epik_Charging_Adjusted_Penalty>
0.00430112

> <i_epik_Tot_Q>
1

> <i_epik_Tot_abs_Q>
1

> <r_epik_Metal_State_Penalty>
-0

> <b_epik_Metal_Only>
0

> <s_lp_Force_Field>
OPLS_2005

> <r_lp_Energy>
17.0629

> <b_lp_Chiralities_Consistent>
1

> <s_lp_Variant>
AV-unprocessed.smi:2584-1

> <Gold.Version>
5.8.1

> <Gold.Id.Protein>
6NUR|6NUR_protein|mol2

> <Gold.PLP.Fitness>
44.8340

> <Gold.PLP.PLP>
-30.6536

> <Gold.PLP.part.hbond>
-5.8526

> <Gold.PLP.part.metal>
0.0000

> <Gold.PLP.part.buried>
-4.3972

> <Gold.PLP.part.nonpolar>
-20.5676

> <Gold.PLP.part.repulsive>
0.1407

> <Gold.PLP.ligand.clash>
0.0000

> <Gold.PLP.ligand.torsion>
0.4442

> <Gold.PLP.Chemscore.Hbond>
4.0000

> <Gold.PLP.Chemscore.CHOScore>
1.0000

> <Gold.PLP.Chemscore.Metal>
0.0000

> <Gold.Chemscore.Hbonds>
donor molecule, donor type, donor heavy atom, donor atom, acceptor molecule, acceptor atom, score
      L1  H     3    18       P1  7948  1.00
      L1  H     6    35       P1 10747  0.59
      L1  H    12    33       P1  7948  1.00
      L1  C    14    34       P1  7957  1.00

> <Gold.PLP.Chemscore.Internal.Correction>
0.0687

> <Gold.Rescore>
     Score         DG    S(hbond)    S(metal)    S(lipo)     H(rot)  DE(clash)    DE(int)     intcor
     15.86     -18.99       3.11        0.00      62.72       1.65       0.29       2.85       ----

> <Gold.Chemscore.Fitness>
15.8568

> <Gold.Chemscore.DG>
-18.9935

> <Gold.Chemscore.ZeroCoef>
-5.4800

> <Gold.Chemscore.Hbond>
3.1132

> <Gold.Chemscore.Metal>
0.0000

> <Gold.Chemscore.Lipo>
62.7218

> <Gold.Chemscore.Internal_Hbond>
0.0000

> <Gold.Chemscore.DEClash>
0.2876

> <Gold.Chemscore.DEInternal>
2.8490

> <Gold.Chemscore.Rot>
1.6497

> <Gold.Chemscore.Internal.Correction>
   9.000000E+99

> <Gold.Chemscore.Hbonds>
donor molecule, donor type, donor heavy atom, donor atom, acceptor molecule, acceptor atom, score
      L1  H     3    18       P1  7948  0.71
      L1  H     6    35       P1 10747  0.56
      L1  H    12    33       P1  7948  0.65
      P1  H  7997  8009       L1    16  0.01

> <Gold.Chemscore.Hbond.Weighted>
-10.3982

> <Gold.Chemscore.Metal.Weighted>
-0.0000

> <Gold.Chemscore.Lipo.Weighted>
-7.3384

> <Gold.Chemscore.Internal_Hbond.Weighted>
0.0000

> <Gold.Chemscore.DEClash.Weighted>
0.2876

> <Gold.Chemscore.DEInternal.Weighted>
2.8490

> <Gold.Chemscore.Rot.Weighted>
4.2232

> <Gold.Chemscore.Internal.Correction.Weighted>
   9.000000E+99

> <Gold.Protein.RotatedTorsions>
[ 6907 6896 6895 6894 ] final   -9.40 input  -60.11 | X-H torsion
[ 7974 7965 7964 7962 ] final  173.62 input  175.53 | X-H torsion
[ 8008 7997 7996 7995 ] final -158.84 input   59.86 | X-H torsion
[ 10167 10162 10161 10158 ] final -141.95 input  -65.29 | X-H torsion
[ 10718 10713 10712 10709 ] final  -11.58 input   66.30 | X-H torsion
[ 10763 10752 10751 10750 ] final -161.73 input  -60.55 | X-H torsion
[ 11005 11000 10999 10996 ] final   85.38 input  -57.11 | X-H torsion

> <Gold.Protein.ActiveResidues>
 VAL166  LYS551  ARG553  GLY616  TRP617  ASP618  TYR619  PRO620  LYS621  CYS622 
 ASP623  PHE694  ASN695  SER759  ASP760  ASP761  ALA762  ILE779  LEU786  VAL792 
 PHE793  MET794  SER795  GLU796  ALA797  LYS798  CYS799  TRP800  GLU811  SER814 

> <Gold.Protein.RotatedAtoms>
  151.4183  135.0994  159.9605 H   0  0  0  0  0  0  0  0  0  0  0  0  # atno 6907 bound_to 6896
  152.4997  133.8731  159.7319 H   0  0  0  0  0  0  0  0  0  0  0  0  # atno 6908 bound_to 6896
  150.9241  133.6787  159.2853 H   0  0  0  0  0  0  0  0  0  0  0  0  # atno 6909 bound_to 6896
  144.7239  139.9675  143.6436 H   0  0  0  0  0  0  0  0  0  0  0  0  # atno 7974 bound_to 7965
  155.7536  140.0830  157.2189 H   0  0  0  0  0  0  0  0  0  0  0  0  # atno 8008 bound_to 7997
  154.4010  140.1556  156.2808 H   0  0  0  0  0  0  0  0  0  0  0  0  # atno 8009 bound_to 7997
  155.8906  140.3415  155.5956 H   0  0  0  0  0  0  0  0  0  0  0  0  # atno 8010 bound_to 7997
  139.8135  143.7670  152.2664 H   0  0  0  0  0  0  0  0  0  0  0  0  # atno 10167 bound_to 10162
  156.6570  130.4971  149.6043 H   0  0  0  0  0  0  0  0  0  0  0  0  # atno 10718 bound_to 10713
  154.7278  135.3039  154.8942 H   0  0  0  0  0  0  0  0  0  0  0  0  # atno 10763 bound_to 10752
  153.9794  135.6732  153.4753 H   0  0  0  0  0  0  0  0  0  0  0  0  # atno 10764 bound_to 10752
  153.0890  135.4969  154.8574 H   0  0  0  0  0  0  0  0  0  0  0  0  # atno 10765 bound_to 10752
  139.8973  134.8282  156.2574 H   0  0  0  0  0  0  0  0  0  0  0  0  # atno 11005 bound_to 11000
  146.0589  139.3584  143.0593 LP  0  0  0  0  0  0  0  0  0  0  0  0  # atno 17320 bound_to 7965
  145.8118  140.9722  143.0944 LP  0  0  0  0  0  0  0  0  0  0  0  0  # atno 17321 bound_to 7965
  139.7826  144.7439  151.0067 LP  0  0  0  0  0  0  0  0  0  0  0  0  # atno 17342 bound_to 10162
  140.7817  143.4526  151.0391 LP  0  0  0  0  0  0  0  0  0  0  0  0  # atno 17343 bound_to 10162
  156.2040  130.6638  151.1199 LP  0  0  0  0  0  0  0  0  0  0  0  0  # atno 17370 bound_to 10713
  157.7122  131.0728  150.6458 LP  0  0  0  0  0  0  0  0  0  0  0  0  # atno 17371 bound_to 10713
  141.0184  133.7055  156.1228 LP  0  0  0  0  0  0  0  0  0  0  0  0  # atno 17394 bound_to 11000
  140.7268  134.4298  157.5570 LP  0  0  0  0  0  0  0  0  0  0  0  0  # atno 17395 bound_to 11000

$$$$
