AV-unprocessed.smi:221|AV-procd|sdf|1693|dock4
  -GOLD-   2262020143D 1   1.00000     0.00000
 Structure written by MMmdl.
 50 53  0  0  0  0  0  0  0  0  1 V2000
  142.4297  134.5938  154.6408 N   0  0  0  0  0  0  0  0  0  0  0  0
  143.0628  135.4217  153.8068 C   0  0  0  0  0  0  0  0  0  0  0  0
  142.8053  136.6235  153.7578 O   0  0  0  0  0  0  0  0  0  0  0  0
  144.1261  134.7993  152.8876 C   0  0  1  0  0  0  0  0  0  0  0  0
  143.5100  133.7405  151.9582 C   0  0  0  0  0  0  0  0  0  0  0  0
  144.4205  133.7552  150.7343 C   0  0  2  0  0  0  0  0  0  0  0  0
  145.5035  133.0149  150.9771 F   0  0  0  0  0  0  0  0  0  0  0  0
  144.8243  135.2245  150.6144 C   0  0  0  0  0  0  0  0  0  0  0  0
  144.7124  135.7730  151.9609 N   0  0  0  0  0  0  0  0  0  0  0  0
  145.5848  136.7355  152.3635 C   0  0  0  0  0  0  0  0  0  0  0  0
  145.9294  137.7291  151.5013 N   0  0  0  0  0  0  0  0  0  0  0  0
  146.7850  138.6850  151.8733 C   0  0  0  0  0  0  0  0  0  0  0  0
  147.4102  138.8359  153.0415 N   0  0  0  0  0  0  0  0  0  0  0  0
  147.0783  137.8387  153.9101 C   0  0  0  0  0  0  0  0  0  0  0  0
  146.1820  136.7608  153.6575 C   0  0  0  0  0  0  0  0  0  0  0  0
  146.1090  135.9400  154.7780 N   0  0  0  0  0  0  0  0  0  0  0  0
  146.9144  136.4982  155.6395 C   0  0  0  0  0  0  0  0  0  0  0  0
  147.5420  137.6400  155.1986 N   0  0  0  0  0  0  0  0  0  0  0  0
  148.4906  138.4485  155.9435 C   0  0  0  0  0  0  0  0  0  0  0  0
  149.9755  138.0785  155.6827 C   0  0  1  0  0  0  0  0  0  0  0  0
  150.4281  138.4343  154.2428 C   0  0  0  0  0  0  0  0  0  0  0  0
  150.1279  139.7754  153.9139 O   0  0  0  0  0  0  0  0  0  0  0  0
  150.8875  138.7504  156.7430 C   0  0  2  0  0  0  0  0  0  0  0  0
  150.7942  140.2667  156.8118 C   0  0  0  0  0  0  0  0  0  0  0  0
  152.0799  140.6430  157.5396 C   0  0  0  0  0  0  0  0  0  0  0  0
  153.0365  139.6594  157.1653 O   0  0  0  0  0  0  0  0  0  0  0  0
  152.3910  138.5866  156.4881 C   0  0  0  0  0  0  0  0  0  0  0  0
  144.9200  134.3391  153.4794 H   0  0  0  0  0  0  0  0  0  0  0  0
  143.9472  133.3624  149.8343 H   0  0  0  0  0  0  0  0  0  0  0  0
  141.7272  134.9571  155.2683 H   0  0  0  0  0  0  0  0  0  0  0  0
  142.6587  133.6106  154.6458 H   0  0  0  0  0  0  0  0  0  0  0  0
  143.4485  132.7560  152.4235 H   0  0  0  0  0  0  0  0  0  0  0  0
  142.5012  134.0267  151.6548 H   0  0  0  0  0  0  0  0  0  0  0  0
  145.8254  135.3270  150.1921 H   0  0  0  0  0  0  0  0  0  0  0  0
  144.1270  135.7582  149.9676 H   0  0  0  0  0  0  0  0  0  0  0  0
  147.0003  139.4358  151.1274 H   0  0  0  0  0  0  0  0  0  0  0  0
  147.0808  136.0858  156.6240 H   0  0  0  0  0  0  0  0  0  0  0  0
  148.3181  139.4975  155.6993 H   0  0  0  0  0  0  0  0  0  0  0  0
  148.2462  138.3376  156.9999 H   0  0  0  0  0  0  0  0  0  0  0  0
  150.0807  136.9995  155.8081 H   0  0  0  0  0  0  0  0  0  0  0  0
  151.4961  138.2546  154.1160 H   0  0  0  0  0  0  0  0  0  0  0  0
  149.9196  137.8223  153.5001 H   0  0  0  0  0  0  0  0  0  0  0  0
  149.6496  139.7856  153.0988 H   0  0  0  0  0  0  0  0  0  0  0  0
  150.6569  138.3451  157.7298 H   0  0  0  0  0  0  0  0  0  0  0  0
  150.7938  140.6950  155.8084 H   0  0  0  0  0  0  0  0  0  0  0  0
  149.9106  140.6272  157.3381 H   0  0  0  0  0  0  0  0  0  0  0  0
  152.4211  141.6480  157.2905 H   0  0  0  0  0  0  0  0  0  0  0  0
  151.9345  140.5921  158.6193 H   0  0  0  0  0  0  0  0  0  0  0  0
  152.7722  137.6259  156.8348 H   0  0  0  0  0  0  0  0  0  0  0  0
  152.6148  138.6738  155.4241 H   0  0  0  0  0  0  0  0  0  0  0  0
  1  2  1  0  0  0  0
  1 30  1  0  0  0  0
  1 31  1  0  0  0  0
  2  3  2  0  0  0  0
  2  4  1  0  0  0  0
  4 28  1  0  0  0  0
  4  9  1  0  0  0  0
  4  5  1  0  0  0  0
  5  6  1  0  0  0  0
  5 32  1  0  0  0  0
  5 33  1  0  0  0  0
  6 29  1  0  0  0  0
  6  7  1  0  0  0  0
  6  8  1  0  0  0  0
  8  9  1  0  0  0  0
  8 34  1  0  0  0  0
  8 35  1  0  0  0  0
  9 10  1  0  0  0  0
 10 15  1  0  0  0  0
 10 11  2  0  0  0  0
 11 12  1  0  0  0  0
 12 13  2  0  0  0  0
 12 36  1  0  0  0  0
 13 14  1  0  0  0  0
 14 18  1  0  0  0  0
 14 15  2  0  0  0  0
 15 16  1  0  0  0  0
 16 17  2  0  0  0  0
 17 18  1  0  0  0  0
 17 37  1  0  0  0  0
 18 19  1  0  0  0  0
 19 20  1  0  0  0  0
 19 38  1  0  0  0  0
 19 39  1  0  0  0  0
 20 21  1  0  0  0  0
 20 23  1  0  0  0  0
 20 40  1  0  0  0  0
 21 22  1  0  0  0  0
 21 41  1  0  0  0  0
 21 42  1  0  0  0  0
 22 43  1  0  0  0  0
 23 27  1  0  0  0  0
 23 24  1  0  0  0  0
 23 44  1  0  0  0  0
 24 25  1  0  0  0  0
 24 45  1  0  0  0  0
 24 46  1  0  0  0  0
 25 26  1  0  0  0  0
 25 47  1  0  0  0  0
 25 48  1  0  0  0  0
 26 27  1  0  0  0  0
 27 49  1  0  0  0  0
 27 50  1  0  0  0  0
M  END
> <s_m_source_file>
AV-unprocessed.smi

> <i_m_source_file_index>
221

> <i_lp_mmshare_version>
43012

> <i_f3d_flags>
0

> <s_epik_input>
W05IMl1DKD1PKVtDQEBIXTFbQ0gyXVtDQEBIXShGKVtDSDJdTjFjKG5bY0hdbjIpYyhjMjMpbltjSF1uM1tDSDJdW0NASF0oW0NIMl1bT0hdKVtDQEBIXTRbQ0gyXVtDSDJdT1tDSDJdNA==

> <s_epik_cmdline>
J2VwaWtfcHl0aG9uJywgJy1waCcsICc3LjAnLCAnLXRuJywgJzgnLCAnLW1hJywgJzIwMCcsICctbWV0YWxfYmluZGluZycsICctaW1hZScsICc8aW5maWxlLm1hZT4nLCAnLW9tYWUnLCAnPG91dGZpbGUubWFlPic=

> <r_lp_tautomer_probability>
1

> <r_epik_Ionization_Penalty>
0.000818822

> <r_epik_Ionization_Penalty_Charging>
0

> <r_epik_Ionization_Penalty_Neutral>
0.000818822

> <r_epik_State_Penalty>
0.000440551

> <r_epik_Charging_Adjusted_Penalty>
0.000440551

> <i_epik_Tot_Q>
0

> <i_epik_Tot_abs_Q>
0

> <r_epik_Metal_State_Penalty>
-0

> <b_epik_Metal_Only>
0

> <s_lp_Force_Field>
OPLS_2005

> <r_lp_Energy>
48.2465

> <b_lp_Chiralities_Consistent>
1

> <s_lp_Variant>
AV-unprocessed.smi:221-8

> <Gold.Version>
5.8.1

> <Gold.Id.Protein>
6NUR|6NUR_protein|mol2

> <Gold.PLP.Fitness>
48.2261

> <Gold.PLP.PLP>
-34.5534

> <Gold.PLP.part.hbond>
-4.9445

> <Gold.PLP.part.metal>
0.0000

> <Gold.PLP.part.buried>
-6.5549

> <Gold.PLP.part.nonpolar>
-26.2501

> <Gold.PLP.part.repulsive>
2.8497

> <Gold.PLP.ligand.clash>
0.0000

> <Gold.PLP.ligand.torsion>
0.8982

> <Gold.PLP.Chemscore.Hbond>
4.6145

> <Gold.PLP.Chemscore.CHOScore>
0.4124

> <Gold.PLP.Chemscore.Metal>
0.0000

> <Gold.Chemscore.Hbonds>
donor molecule, donor type, donor heavy atom, donor atom, acceptor molecule, acceptor atom, score
      L1  H     1    30       P1 11000  0.53
      L1  H     1    31       P1 10957  1.00
      L1  H    22    43       P1  7957  0.99
      P1  H  7989  7998       L1    22  0.96
      P1  H  7997  8008       L1    26  0.98
      L1  C    12    36       P1  7957  0.48

> <Gold.PLP.Chemscore.Internal.Correction>
0.3884

> <Gold.Rescore>
     Score         DG    S(hbond)    S(metal)    S(lipo)     H(rot)  DE(clash)    DE(int)     intcor
     12.11     -16.11       3.67        0.00      58.64       3.31       1.78       2.22       ----

> <Gold.Chemscore.Fitness>
12.1087

> <Gold.Chemscore.DG>
-16.1118

> <Gold.Chemscore.ZeroCoef>
-5.4800

> <Gold.Chemscore.Hbond>
3.6651

> <Gold.Chemscore.Metal>
0.0000

> <Gold.Chemscore.Lipo>
58.6445

> <Gold.Chemscore.Internal_Hbond>
0.0000

> <Gold.Chemscore.DEClash>
1.7821

> <Gold.Chemscore.DEInternal>
2.2210

> <Gold.Chemscore.Rot>
3.3089

> <Gold.Chemscore.Internal.Correction>
   9.000000E+99

> <Gold.Chemscore.Hbonds>
donor molecule, donor type, donor heavy atom, donor atom, acceptor molecule, acceptor atom, score
      L1  H     1    30       P1 11000  0.12
      L1  H     1    31       P1 10957  1.00
      L1  H    22    43       P1  7957  0.93
      P1  H  7989  7998       L1    22  0.26
      P1  H  7997  8008       L1    26  0.88

> <Gold.Chemscore.Hbond.Weighted>
-12.2413

> <Gold.Chemscore.Metal.Weighted>
-0.0000

> <Gold.Chemscore.Lipo.Weighted>
-6.8614

> <Gold.Chemscore.Internal_Hbond.Weighted>
0.0000

> <Gold.Chemscore.DEClash.Weighted>
1.7821

> <Gold.Chemscore.DEInternal.Weighted>
2.2210

> <Gold.Chemscore.Rot.Weighted>
8.4709

> <Gold.Chemscore.Internal.Correction.Weighted>
   9.000000E+99

> <Gold.Protein.RotatedTorsions>
[ 6907 6896 6895 6894 ] final  -59.68 input  -60.11 | X-H torsion
[ 7974 7965 7964 7962 ] final  121.04 input  175.53 | X-H torsion
[ 8008 7997 7996 7995 ] final  -74.60 input   59.86 | X-H torsion
[ 10167 10162 10161 10158 ] final    5.51 input  -65.29 | X-H torsion
[ 10718 10713 10712 10709 ] final  -83.93 input   66.30 | X-H torsion
[ 10763 10752 10751 10750 ] final  174.76 input  -60.55 | X-H torsion
[ 11005 11000 10999 10996 ] final -149.51 input  -57.11 | X-H torsion

> <Gold.Protein.ActiveResidues>
 VAL166  LYS551  ARG553  GLY616  TRP617  ASP618  TYR619  PRO620  LYS621  CYS622 
 ASP623  PHE694  ASN695  SER759  ASP760  ASP761  ALA762  ILE779  LEU786  VAL792 
 PHE793  MET794  SER795  GLU796  ALA797  LYS798  CYS799  TRP800  GLU811  SER814 

> <Gold.Protein.RotatedAtoms>
  150.7912  134.6937  159.6510 H   0  0  0  0  0  0  0  0  0  0  0  0  # atno 6907 bound_to 6896
  152.4018  134.6270  160.0075 H   0  0  0  0  0  0  0  0  0  0  0  0  # atno 6908 bound_to 6896
  151.6539  133.3283  159.3194 H   0  0  0  0  0  0  0  0  0  0  0  0  # atno 6909 bound_to 6896
  145.1240  139.3370  143.4699 H   0  0  0  0  0  0  0  0  0  0  0  0  # atno 7974 bound_to 7965
  154.5345  140.0758  156.8403 H   0  0  0  0  0  0  0  0  0  0  0  0  # atno 8008 bound_to 7997
  155.3307  140.3401  155.4221 H   0  0  0  0  0  0  0  0  0  0  0  0  # atno 8009 bound_to 7997
  156.1814  140.1653  156.8253 H   0  0  0  0  0  0  0  0  0  0  0  0  # atno 8010 bound_to 7997
  140.6478  143.7620  150.7526 H   0  0  0  0  0  0  0  0  0  0  0  0  # atno 10167 bound_to 10162
  156.0012  130.4681  150.4332 H   0  0  0  0  0  0  0  0  0  0  0  0  # atno 10718 bound_to 10713
  154.4583  135.2767  155.1731 H   0  0  0  0  0  0  0  0  0  0  0  0  # atno 10763 bound_to 10752
  154.3530  135.6146  153.5656 H   0  0  0  0  0  0  0  0  0  0  0  0  # atno 10764 bound_to 10752
  152.9852  135.5816  154.4941 H   0  0  0  0  0  0  0  0  0  0  0  0  # atno 10765 bound_to 10752
  140.7500  134.3418  157.5128 H   0  0  0  0  0  0  0  0  0  0  0  0  # atno 11005 bound_to 11000
  146.3519  140.1211  142.8600 LP  0  0  0  0  0  0  0  0  0  0  0  0  # atno 17320 bound_to 7965
  145.0709  140.9154  143.4883 LP  0  0  0  0  0  0  0  0  0  0  0  0  # atno 17321 bound_to 7965
  140.1264  143.4565  152.2281 LP  0  0  0  0  0  0  0  0  0  0  0  0  # atno 17342 bound_to 10162
  139.5690  144.7452  151.3943 LP  0  0  0  0  0  0  0  0  0  0  0  0  # atno 17343 bound_to 10162
  157.2379  131.0519  151.2454 LP  0  0  0  0  0  0  0  0  0  0  0  0  # atno 17370 bound_to 10713
  157.3649  130.7150  149.6526 LP  0  0  0  0  0  0  0  0  0  0  0  0  # atno 17371 bound_to 10713
  139.8789  134.9136  156.3086 LP  0  0  0  0  0  0  0  0  0  0  0  0  # atno 17394 bound_to 11000
  140.9760  133.7297  156.0602 LP  0  0  0  0  0  0  0  0  0  0  0  0  # atno 17395 bound_to 11000

$$$$
