AV-unprocessed.smi:1712|AV-procd|sdf|6904|dock10
  -GOLD-   22720 8113D 1   1.00000     0.00000
 Structure written by MMmdl.
 38 39  0  0  0  0  0  0  0  0  2 V2000
  147.4469  139.5851  153.4858 C   0  0  0  0  0  0  0  0  0  0  0  0
  147.5800  138.4048  154.4802 C   0  0  1  0  0  0  0  0  0  0  0  0
  146.4281  137.3838  154.2816 C   0  0  0  0  0  0  0  0  0  0  0  0
  146.6712  136.4491  153.1849 N   0  0  0  0  0  0  0  0  0  0  0  0
  145.7471  135.6590  152.6189 C   0  0  0  0  0  0  0  0  0  0  0  0
  144.5710  135.6203  152.9807 O   0  0  0  0  0  0  0  0  0  0  0  0
  146.2749  134.9224  151.6279 N   0  0  0  0  0  0  0  0  0  0  0  0
  145.6067  133.9764  150.8104 C   0  0  0  0  0  0  0  0  0  0  0  0
  146.2110  132.8154  150.2563 C   0  0  0  0  0  0  0  0  0  0  0  0
  145.3459  132.1178  149.5340 N   0  0  0  0  0  0  0  0  0  0  0  0
  144.1954  132.8231  149.6211 N   0  0  0  0  0  0  0  0  0  0  0  0
  144.3069  133.9617  150.3882 C   0  0  0  0  0  0  0  0  0  0  0  0
  148.9065  137.7074  154.3982 N   0  3  0  0  0  0  0  0  0  0  0  0
  150.1034  138.5780  154.5680 C   0  0  0  0  0  0  0  0  0  0  0  0
  151.4046  137.7681  154.4343 C   0  0  0  0  0  0  0  0  0  0  0  0
  151.4127  136.7042  155.3742 O   0  0  0  0  0  0  0  0  0  0  0  0
  150.3387  135.8045  155.1476 C   0  0  0  0  0  0  0  0  0  0  0  0
  149.0039  136.5458  155.3248 C   0  0  0  0  0  0  0  0  0  0  0  0
  143.3521  132.5184  149.1560 H   0  0  0  0  0  0  0  0  0  0  0  0
  146.4775  140.0753  153.5662 H   0  0  0  0  0  0  0  0  0  0  0  0
  147.5603  139.2515  152.4538 H   0  0  0  0  0  0  0  0  0  0  0  0
  148.1786  140.3700  153.6761 H   0  0  0  0  0  0  0  0  0  0  0  0
  147.4929  138.8314  155.4810 H   0  0  0  0  0  0  0  0  0  0  0  0
  146.2396  136.8511  155.2155 H   0  0  0  0  0  0  0  0  0  0  0  0
  145.4948  137.8852  154.0337 H   0  0  0  0  0  0  0  0  0  0  0  0
  147.6126  136.4104  152.8214 H   0  0  0  0  0  0  0  0  0  0  0  0
  147.2581  135.0493  151.4375 H   0  0  0  0  0  0  0  0  0  0  0  0
  147.2274  132.4629  150.3520 H   0  0  0  0  0  0  0  0  0  0  0  0
  143.4758  134.6314  150.5530 H   0  0  0  0  0  0  0  0  0  0  0  0
  150.1295  139.3563  153.8059 H   0  0  0  0  0  0  0  0  0  0  0  0
  150.0655  139.0697  155.5413 H   0  0  0  0  0  0  0  0  0  0  0  0
  151.5164  137.3758  153.4220 H   0  0  0  0  0  0  0  0  0  0  0  0
  152.2657  138.4099  154.6218 H   0  0  0  0  0  0  0  0  0  0  0  0
  150.4139  135.3647  154.1516 H   0  0  0  0  0  0  0  0  0  0  0  0
  150.4093  134.9850  155.8631 H   0  0  0  0  0  0  0  0  0  0  0  0
  148.9099  136.8922  156.3553 H   0  0  0  0  0  0  0  0  0  0  0  0
  148.1971  135.8356  155.1564 H   0  0  0  0  0  0  0  0  0  0  0  0
  148.9705  137.3390  153.4598 H   0  0  0  0  0  0  0  0  0  0  0  0
  1  2  1  0  0  0  0
  1 20  1  0  0  0  0
  1 21  1  0  0  0  0
  1 22  1  0  0  0  0
  2  3  1  0  0  0  0
  2 13  1  0  0  0  0
  2 23  1  0  0  0  0
  3  4  1  0  0  0  0
  3 24  1  0  0  0  0
  3 25  1  0  0  0  0
  4  5  1  0  0  0  0
  4 26  1  0  0  0  0
  5  6  2  0  0  0  0
  5  7  1  0  0  0  0
  7  8  1  0  0  0  0
  7 27  1  0  0  0  0
  8 12  2  0  0  0  0
  8  9  1  0  0  0  0
  9 10  2  0  0  0  0
  9 28  1  0  0  0  0
 10 11  1  0  0  0  0
 11 19  1  0  0  0  0
 11 12  1  0  0  0  0
 12 29  1  0  0  0  0
 13 18  1  0  0  0  0
 13 14  1  0  0  0  0
 13 38  1  0  0  0  0
 14 15  1  0  0  0  0
 14 30  1  0  0  0  0
 14 31  1  0  0  0  0
 15 16  1  0  0  0  0
 15 32  1  0  0  0  0
 15 33  1  0  0  0  0
 16 17  1  0  0  0  0
 17 18  1  0  0  0  0
 17 34  1  0  0  0  0
 17 35  1  0  0  0  0
 18 36  1  0  0  0  0
 18 37  1  0  0  0  0
M  CHG  1  13   1
M  END
> <s_m_source_file>
AV-unprocessed.smi

> <i_m_source_file_index>
1712

> <i_lp_mmshare_version>
43012

> <i_f3d_flags>
0

> <s_epik_input>
W0NIMl0xW0NIMl1PW0NIMl1bQ0gyXU4xW0NASF0oW0NIM10pW0NIMl1bTkhdQyg9TylbTkhdYzJbY0hdbltuSF1bY0hdMg==

> <s_epik_cmdline>
J2VwaWtfcHl0aG9uJywgJy1waCcsICc3LjAnLCAnLXRuJywgJzgnLCAnLW1hJywgJzIwMCcsICctbWV0YWxfYmluZGluZycsICctaW1hZScsICc8aW5maWxlLm1hZT4nLCAnLW9tYWUnLCAnPG91dGZpbGUubWFlPic=

> <r_lp_tautomer_probability>
0.5

> <r_epik_Ionization_Penalty>
0.646007

> <r_epik_Ionization_Penalty_Charging>
0.645968

> <r_epik_Ionization_Penalty_Neutral>
3.91929e-05

> <r_epik_State_Penalty>
0.664063

> <r_epik_Charging_Adjusted_Penalty>
1.31003

> <i_epik_Tot_Q>
1

> <i_epik_Tot_abs_Q>
1

> <r_epik_Metal_State_Penalty>
0.664064

> <b_epik_Metal_Only>
0

> <s_lp_Force_Field>
OPLS_2005

> <r_lp_Energy>
23.8856

> <b_lp_Chiralities_Consistent>
1

> <s_lp_Variant>
AV-unprocessed.smi:1712-4

> <Gold.Version>
5.8.1

> <Gold.Id.Protein>
6NUR|6NUR_protein|mol2

> <Gold.PLP.Fitness>
43.5910

> <Gold.PLP.PLP>
-24.8664

> <Gold.PLP.part.hbond>
-4.0000

> <Gold.PLP.part.metal>
0.0000

> <Gold.PLP.part.buried>
-4.9954

> <Gold.PLP.part.nonpolar>
-17.3566

> <Gold.PLP.part.repulsive>
0.4903

> <Gold.PLP.ligand.clash>
0.0000

> <Gold.PLP.ligand.torsion>
0.4839

> <Gold.PLP.Chemscore.Hbond>
4.8746

> <Gold.PLP.Chemscore.CHOScore>
1.6721

> <Gold.PLP.Chemscore.Metal>
0.0000

> <Gold.Chemscore.Hbonds>
donor molecule, donor type, donor heavy atom, donor atom, acceptor molecule, acceptor atom, score
      L1  H     4    26       P1  7948  1.00
      L1  H     7    27       P1  7948  0.87
      L1  H    13    38       P1  7948  2.00
      P1  H 10752 10765       L1    16  0.99
      L1  C     9    28       P1 10747  1.00
      L1  C    12    29       P1 10186  0.64

> <Gold.PLP.Chemscore.Internal.Correction>
0.0523

> <Gold.Rescore>
     Score         DG    S(hbond)    S(metal)    S(lipo)     H(rot)  DE(clash)    DE(int)     intcor
     20.38     -21.23       4.09        0.00      54.71       1.68       0.18       0.67       ----

> <Gold.Chemscore.Fitness>
20.3803

> <Gold.Chemscore.DG>
-21.2318

> <Gold.Chemscore.ZeroCoef>
-5.4800

> <Gold.Chemscore.Hbond>
4.0852

> <Gold.Chemscore.Metal>
0.0000

> <Gold.Chemscore.Lipo>
54.7063

> <Gold.Chemscore.Internal_Hbond>
0.0000

> <Gold.Chemscore.DEClash>
0.1797

> <Gold.Chemscore.DEInternal>
0.6718

> <Gold.Chemscore.Rot>
1.6771

> <Gold.Chemscore.Internal.Correction>
   9.000000E+99

> <Gold.Chemscore.Hbonds>
donor molecule, donor type, donor heavy atom, donor atom, acceptor molecule, acceptor atom, score
      L1  H     4    26       P1  7948  1.00
      L1  H     7    27       P1  7948  0.60
      L1  H    13    38       P1  7948  1.00
      P1  H 10752 10765       L1    16  0.07

> <Gold.Chemscore.Hbond.Weighted>
-13.6446

> <Gold.Chemscore.Metal.Weighted>
-0.0000

> <Gold.Chemscore.Lipo.Weighted>
-6.4006

> <Gold.Chemscore.Internal_Hbond.Weighted>
0.0000

> <Gold.Chemscore.DEClash.Weighted>
0.1797

> <Gold.Chemscore.DEInternal.Weighted>
0.6718

> <Gold.Chemscore.Rot.Weighted>
4.2935

> <Gold.Chemscore.Internal.Correction.Weighted>
   9.000000E+99

> <Gold.Protein.RotatedTorsions>
[ 6907 6896 6895 6894 ] final -178.28 input  -60.11 | X-H torsion
[ 7974 7965 7964 7962 ] final -156.59 input  175.53 | X-H torsion
[ 8008 7997 7996 7995 ] final   78.82 input   59.86 | X-H torsion
[ 10167 10162 10161 10158 ] final  -62.29 input  -65.29 | X-H torsion
[ 10718 10713 10712 10709 ] final -147.14 input   66.30 | X-H torsion
[ 10763 10752 10751 10750 ] final -174.66 input  -60.55 | X-H torsion
[ 11005 11000 10999 10996 ] final  -22.11 input  -57.11 | X-H torsion

> <Gold.Protein.ActiveResidues>
 VAL166  LYS551  ARG553  GLY616  TRP617  ASP618  TYR619  PRO620  LYS621  CYS622 
 ASP623  PHE694  ASN695  SER759  ASP760  ASP761  ALA762  ILE779  LEU786  VAL792 
 PHE793  MET794  SER795  GLU796  ALA797  LYS798  CYS799  TRP800  GLU811  SER814 

> <Gold.Protein.RotatedAtoms>
  151.6346  133.3330  159.3116 H   0  0  0  0  0  0  0  0  0  0  0  0  # atno 6907 bound_to 6896
  150.8039  134.7154  159.6637 H   0  0  0  0  0  0  0  0  0  0  0  0  # atno 6908 bound_to 6896
  152.4133  134.6091  160.0072 H   0  0  0  0  0  0  0  0  0  0  0  0  # atno 6909 bound_to 6896
  144.7586  140.4089  143.5993 H   0  0  0  0  0  0  0  0  0  0  0  0  # atno 7974 bound_to 7965
  155.8611  140.3453  155.5757 H   0  0  0  0  0  0  0  0  0  0  0  0  # atno 8008 bound_to 7997
  155.7932  140.0874  157.2017 H   0  0  0  0  0  0  0  0  0  0  0  0  # atno 8009 bound_to 7997
  154.4012  140.1479  156.3174 H   0  0  0  0  0  0  0  0  0  0  0  0  # atno 8010 bound_to 7997
  140.5949  143.2349  151.6059 H   0  0  0  0  0  0  0  0  0  0  0  0  # atno 10167 bound_to 10162
  156.4038  130.7947  151.2160 H   0  0  0  0  0  0  0  0  0  0  0  0  # atno 10718 bound_to 10713
  154.5936  135.2847  155.0610 H   0  0  0  0  0  0  0  0  0  0  0  0  # atno 10763 bound_to 10752
  154.1901  135.6442  153.5061 H   0  0  0  0  0  0  0  0  0  0  0  0  # atno 10764 bound_to 10752
  153.0130  135.5444  154.6630 H   0  0  0  0  0  0  0  0  0  0  0  0  # atno 10765 bound_to 10752
  140.8626  133.7777  156.0092 H   0  0  0  0  0  0  0  0  0  0  0  0  # atno 11005 bound_to 11000
  145.6694  139.1596  143.2763 LP  0  0  0  0  0  0  0  0  0  0  0  0  # atno 17320 bound_to 7965
  146.1625  140.6767  142.9271 LP  0  0  0  0  0  0  0  0  0  0  0  0  # atno 17321 bound_to 7965
  139.5251  144.3084  152.1014 LP  0  0  0  0  0  0  0  0  0  0  0  0  # atno 17342 bound_to 10162
  140.2254  144.4423  150.6323 LP  0  0  0  0  0  0  0  0  0  0  0  0  # atno 17343 bound_to 10162
  157.7505  131.0278  150.4024 LP  0  0  0  0  0  0  0  0  0  0  0  0  # atno 17370 bound_to 10713
  156.4308  130.3971  149.6761 LP  0  0  0  0  0  0  0  0  0  0  0  0  # atno 17371 bound_to 10713
  140.8666  134.2777  157.5210 LP  0  0  0  0  0  0  0  0  0  0  0  0  # atno 17394 bound_to 11000
  139.8707  134.9545  156.4179 LP  0  0  0  0  0  0  0  0  0  0  0  0  # atno 17395 bound_to 11000

$$$$
