AV-unprocessed.smi:1959|AV-procd|sdf|7912|dock9
  -GOLD-   2272010 73D 1   1.00000     0.00000
 Structure written by MMmdl.
 44 45  0  0  0  0  0  0  0  0  1 V2000
  154.0398  141.4705  161.2171 C   0  0  0  0  0  0  0  0  0  0  0  0
  153.1241  142.2536  160.3238 C   0  0  0  0  0  0  0  0  0  0  0  0
  152.6544  143.5858  160.4924 C   0  0  0  0  0  0  0  0  0  0  0  0
  151.8477  143.7989  159.4103 C   0  0  0  0  0  0  0  0  0  0  0  0
  151.0554  145.0060  159.0287 C   0  0  0  0  0  0  0  0  0  0  0  0
  151.8631  142.6345  158.6610 N   0  0  0  0  0  0  0  0  0  0  0  0
  151.1537  142.3191  157.4279 C   0  0  0  0  0  0  0  0  0  0  0  0
  151.4156  140.8753  156.9931 C   0  0  0  0  0  0  0  0  0  0  0  0
  151.4588  139.9755  157.8313 O   0  0  0  0  0  0  0  0  0  0  0  0
  151.5658  140.6692  155.6757 N   0  0  0  0  0  0  0  0  0  0  0  0
  151.6365  139.3672  155.0206 C   0  0  2  0  0  0  0  0  0  0  0  0
  153.0056  139.2184  154.3385 C   0  0  0  0  0  0  0  0  0  0  0  0
  150.4808  139.2367  154.0039 C   0  0  0  0  0  0  0  0  0  0  0  0
  149.1563  139.6372  154.4870 N   0  0  0  0  0  0  0  0  0  0  0  0
  148.9048  141.0709  154.3441 C   0  0  0  0  0  0  0  0  0  0  0  0
  147.4911  141.4656  154.8036 C   0  0  0  0  0  0  0  0  0  0  0  0
  146.5234  140.7026  154.0920 O   0  0  0  0  0  0  0  0  0  0  0  0
  146.7012  139.3009  154.2640 C   0  0  0  0  0  0  0  0  0  0  0  0
  148.1080  138.9018  153.7868 C   0  0  0  0  0  0  0  0  0  0  0  0
  152.6504  141.6916  159.2245 N   0  0  0  0  0  0  0  0  0  0  0  0
  154.9088  141.1061  160.6688 H   0  0  0  0  0  0  0  0  0  0  0  0
  153.5268  140.6080  161.6431 H   0  0  0  0  0  0  0  0  0  0  0  0
  154.4017  142.0822  162.0436 H   0  0  0  0  0  0  0  0  0  0  0  0
  152.8722  144.2784  161.2918 H   0  0  0  0  0  0  0  0  0  0  0  0
  151.1932  145.8062  159.7562 H   0  0  0  0  0  0  0  0  0  0  0  0
  149.9910  144.7765  158.9837 H   0  0  0  0  0  0  0  0  0  0  0  0
  151.3654  145.3835  158.0545 H   0  0  0  0  0  0  0  0  0  0  0  0
  150.0843  142.4743  157.5693 H   0  0  0  0  0  0  0  0  0  0  0  0
  151.4746  143.0098  156.6465 H   0  0  0  0  0  0  0  0  0  0  0  0
  151.5280  141.4755  155.0695 H   0  0  0  0  0  0  0  0  0  0  0  0
  151.5412  138.5700  155.7604 H   0  0  0  0  0  0  0  0  0  0  0  0
  153.0998  138.2454  153.8557 H   0  0  0  0  0  0  0  0  0  0  0  0
  153.8180  139.3023  155.0613 H   0  0  0  0  0  0  0  0  0  0  0  0
  153.1563  139.9844  153.5770 H   0  0  0  0  0  0  0  0  0  0  0  0
  150.7257  139.7715  153.0845 H   0  0  0  0  0  0  0  0  0  0  0  0
  150.4204  138.1860  153.7172 H   0  0  0  0  0  0  0  0  0  0  0  0
  149.6199  141.6400  154.9356 H   0  0  0  0  0  0  0  0  0  0  0  0
  149.0437  141.3695  153.3039 H   0  0  0  0  0  0  0  0  0  0  0  0
  147.3756  141.3042  155.8764 H   0  0  0  0  0  0  0  0  0  0  0  0
  147.3163  142.5255  154.6185 H   0  0  0  0  0  0  0  0  0  0  0  0
  146.5558  139.0327  155.3116 H   0  0  0  0  0  0  0  0  0  0  0  0
  145.9415  138.7721  153.6886 H   0  0  0  0  0  0  0  0  0  0  0  0
  148.1857  139.0799  152.7130 H   0  0  0  0  0  0  0  0  0  0  0  0
  148.2455  137.8301  153.9353 H   0  0  0  0  0  0  0  0  0  0  0  0
  1  2  1  0  0  0  0
  1 21  1  0  0  0  0
  1 22  1  0  0  0  0
  1 23  1  0  0  0  0
  2 20  2  0  0  0  0
  2  3  1  0  0  0  0
  3  4  2  0  0  0  0
  3 24  1  0  0  0  0
  4  5  1  0  0  0  0
  4  6  1  0  0  0  0
  5 25  1  0  0  0  0
  5 26  1  0  0  0  0
  5 27  1  0  0  0  0
  6  7  1  0  0  0  0
  6 20  1  0  0  0  0
  7  8  1  0  0  0  0
  7 28  1  0  0  0  0
  7 29  1  0  0  0  0
  8  9  2  0  0  0  0
  8 10  1  0  0  0  0
 10 11  1  0  0  0  0
 10 30  1  0  0  0  0
 11 12  1  0  0  0  0
 11 13  1  0  0  0  0
 11 31  1  0  0  0  0
 12 32  1  0  0  0  0
 12 33  1  0  0  0  0
 12 34  1  0  0  0  0
 13 14  1  0  0  0  0
 13 35  1  0  0  0  0
 13 36  1  0  0  0  0
 14 19  1  0  0  0  0
 14 15  1  0  0  0  0
 15 16  1  0  0  0  0
 15 37  1  0  0  0  0
 15 38  1  0  0  0  0
 16 17  1  0  0  0  0
 16 39  1  0  0  0  0
 16 40  1  0  0  0  0
 17 18  1  0  0  0  0
 18 19  1  0  0  0  0
 18 41  1  0  0  0  0
 18 42  1  0  0  0  0
 19 43  1  0  0  0  0
 19 44  1  0  0  0  0
M  END
> <s_m_source_file>
AV-unprocessed.smi

> <i_m_source_file_index>
1959

> <i_lp_mmshare_version>
43012

> <i_f3d_flags>
0

> <s_epik_input>
W0NIM11jMVtjSF1jKFtDSDNdKW4objEpW0NIMl1DKD1PKVtOSF1bQ0BIXShbQ0gzXSlbQ0gyXU4yW0NIMl1bQ0gyXU9bQ0gyXVtDSDJdMg==

> <s_epik_cmdline>
J2VwaWtfcHl0aG9uJywgJy1waCcsICc3LjAnLCAnLXRuJywgJzgnLCAnLW1hJywgJzIwMCcsICctbWV0YWxfYmluZGluZycsICctaW1hZScsICc8aW5maWxlLm1hZT4nLCAnLW9tYWUnLCAnPG91dGZpbGUubWFlPic=

> <r_lp_tautomer_probability>
1

> <r_epik_Ionization_Penalty>
0.197284

> <r_epik_Ionization_Penalty_Charging>
0

> <r_epik_Ionization_Penalty_Neutral>
0.197284

> <r_epik_State_Penalty>
0.186684

> <r_epik_Charging_Adjusted_Penalty>
0.186684

> <i_epik_Tot_Q>
0

> <i_epik_Tot_abs_Q>
0

> <r_epik_Metal_State_Penalty>
0.186639

> <b_epik_Metal_Only>
0

> <s_lp_Force_Field>
OPLS_2005

> <r_lp_Energy>
23.1408

> <b_lp_Chiralities_Consistent>
1

> <s_lp_Variant>
AV-unprocessed.smi:1959-1

> <Gold.Version>
5.8.1

> <Gold.Id.Protein>
6NUR|6NUR_protein|mol2

> <Gold.PLP.Fitness>
43.7746

> <Gold.PLP.PLP>
-45.1327

> <Gold.PLP.part.hbond>
0.0000

> <Gold.PLP.part.metal>
0.0000

> <Gold.PLP.part.buried>
-5.7851

> <Gold.PLP.part.nonpolar>
-39.8499

> <Gold.PLP.part.repulsive>
0.4552

> <Gold.PLP.ligand.clash>
0.0000

> <Gold.PLP.ligand.torsion>
0.6938

> <Gold.PLP.Chemscore.Hbond>
0.0000

> <Gold.PLP.Chemscore.CHOScore>
0.0000

> <Gold.PLP.Chemscore.Metal>
0.0000

> <Gold.PLP.Chemscore.Internal.Correction>
0.0294

> <Gold.Rescore>
     Score         DG    S(hbond)    S(metal)    S(lipo)     H(rot)  DE(clash)    DE(int)     intcor
     12.39     -14.80       0.00        0.00     116.73       1.70       0.08       2.33       ----

> <Gold.Chemscore.Fitness>
12.3914

> <Gold.Chemscore.DG>
-14.7975

> <Gold.Chemscore.ZeroCoef>
-5.4800

> <Gold.Chemscore.Hbond>
0.0000

> <Gold.Chemscore.Metal>
0.0000

> <Gold.Chemscore.Lipo>
116.7297

> <Gold.Chemscore.Internal_Hbond>
0.0000

> <Gold.Chemscore.DEClash>
0.0799

> <Gold.Chemscore.DEInternal>
2.3263

> <Gold.Chemscore.Rot>
1.6952

> <Gold.Chemscore.Internal.Correction>
   9.000000E+99

> <Gold.Chemscore.Hbond.Weighted>
-0.0000

> <Gold.Chemscore.Metal.Weighted>
-0.0000

> <Gold.Chemscore.Lipo.Weighted>
-13.6574

> <Gold.Chemscore.Internal_Hbond.Weighted>
0.0000

> <Gold.Chemscore.DEClash.Weighted>
0.0799

> <Gold.Chemscore.DEInternal.Weighted>
2.3263

> <Gold.Chemscore.Rot.Weighted>
4.3398

> <Gold.Chemscore.Internal.Correction.Weighted>
   9.000000E+99

> <Gold.Protein.RotatedTorsions>
[ 6907 6896 6895 6894 ] final  133.30 input  -60.11 | X-H torsion
[ 7974 7965 7964 7962 ] final  130.56 input  175.53 | X-H torsion
[ 8008 7997 7996 7995 ] final  111.43 input   59.86 | X-H torsion
[ 10167 10162 10161 10158 ] final   45.93 input  -65.29 | X-H torsion
[ 10718 10713 10712 10709 ] final  125.99 input   66.30 | X-H torsion
[ 10763 10752 10751 10750 ] final    8.97 input  -60.55 | X-H torsion
[ 11005 11000 10999 10996 ] final  -89.82 input  -57.11 | X-H torsion

> <Gold.Protein.ActiveResidues>
 VAL166  LYS551  ARG553  GLY616  TRP617  ASP618  TYR619  PRO620  LYS621  CYS622 
 ASP623  PHE694  ASN695  SER759  ASP760  ASP761  ALA762  ILE779  LEU786  VAL792 
 PHE793  MET794  SER795  GLU796  ALA797  LYS798  CYS799  TRP800  GLU811  SER814 

> <Gold.Protein.RotatedAtoms>
  152.3234  133.5878  159.5759 H   0  0  0  0  0  0  0  0  0  0  0  0  # atno 6907 bound_to 6896
  150.7383  133.9977  159.3637 H   0  0  0  0  0  0  0  0  0  0  0  0  # atno 6908 bound_to 6896
  151.7859  135.0749  160.0431 H   0  0  0  0  0  0  0  0  0  0  0  0  # atno 6909 bound_to 6896
  145.0166  139.4171  143.5218 H   0  0  0  0  0  0  0  0  0  0  0  0  # atno 7974 bound_to 7965
  156.2123  140.3019  155.9761 H   0  0  0  0  0  0  0  0  0  0  0  0  # atno 8008 bound_to 7997
  155.2692  140.0433  157.3022 H   0  0  0  0  0  0  0  0  0  0  0  0  # atno 8009 bound_to 7997
  154.5717  140.2350  155.8190 H   0  0  0  0  0  0  0  0  0  0  0  0  # atno 8010 bound_to 7997
  140.3191  144.2728  150.6186 H   0  0  0  0  0  0  0  0  0  0  0  0  # atno 10167 bound_to 10162
  157.5457  131.1095  150.8785 H   0  0  0  0  0  0  0  0  0  0  0  0  # atno 10718 bound_to 10713
  153.2192  135.6879  153.8021 H   0  0  0  0  0  0  0  0  0  0  0  0  # atno 10763 bound_to 10752
  153.7226  135.3265  155.3270 H   0  0  0  0  0  0  0  0  0  0  0  0  # atno 10764 bound_to 10752
  154.8261  135.4616  154.1032 H   0  0  0  0  0  0  0  0  0  0  0  0  # atno 10765 bound_to 10752
  141.1577  133.7654  156.9650 H   0  0  0  0  0  0  0  0  0  0  0  0  # atno 11005 bound_to 11000
  146.3479  139.9640  142.8714 LP  0  0  0  0  0  0  0  0  0  0  0  0  # atno 17320 bound_to 7965
  145.1952  140.9830  143.4188 LP  0  0  0  0  0  0  0  0  0  0  0  0  # atno 17321 bound_to 7965
  140.5500  143.2208  151.7943 LP  0  0  0  0  0  0  0  0  0  0  0  0  # atno 17342 bound_to 10162
  139.4878  144.4489  151.9677 LP  0  0  0  0  0  0  0  0  0  0  0  0  # atno 17343 bound_to 10162
  156.9325  130.5355  149.5279 LP  0  0  0  0  0  0  0  0  0  0  0  0  # atno 17370 bound_to 10713
  156.0534  130.5599  150.9038 LP  0  0  0  0  0  0  0  0  0  0  0  0  # atno 17371 bound_to 10713
  140.1168  134.9442  157.2145 LP  0  0  0  0  0  0  0  0  0  0  0  0  # atno 17394 bound_to 11000
  140.3123  134.3009  155.7264 LP  0  0  0  0  0  0  0  0  0  0  0  0  # atno 17395 bound_to 11000

$$$$
