AV-unprocessed.smi:36|AV-procd|sdf|289|dock9
  -GOLD-   2262016 73D 1   1.00000     0.00000
 Structure written by MMmdl.
 64 67  0  0  0  0  0  0  0  0  1 V2000
  142.1245  138.5784  155.4714 C   0  0  0  0  0  0  0  0  0  0  0  0
  141.5442  137.5544  154.4818 C   0  0  0  0  0  0  0  0  0  0  0  0
  140.2486  136.9514  155.0511 C   0  0  0  0  0  0  0  0  0  0  0  0
  141.2495  138.2357  153.1352 C   0  0  0  0  0  0  0  0  0  0  0  0
  142.8089  136.1498  154.2066 Si  0  0  0  0  0  0  0  0  0  0  0  0
  143.3133  135.3455  155.8519 C   0  0  0  0  0  0  0  0  0  0  0  0
  142.1071  134.8238  153.0391 C   0  0  0  0  0  0  0  0  0  0  0  0
  144.1927  136.8350  153.5115 O   0  0  0  0  0  0  0  0  0  0  0  0
  145.1451  137.6019  154.2201 C   0  0  0  0  0  0  0  0  0  0  0  0
  146.4243  137.7404  153.3832 C   0  0  2  0  0  0  0  0  0  0  0  0
  147.5051  138.0762  154.2480 O   0  0  0  0  0  0  0  0  0  0  0  0
  148.3787  138.8834  153.5358 C   0  0  2  0  0  0  0  0  0  0  0  0
  149.2097  139.6603  154.4999 N   0  0  0  0  0  0  0  0  0  0  0  0
  149.3422  140.9986  154.5732 C   0  0  0  0  0  0  0  0  0  0  0  0
  150.1565  141.4375  155.5295 N   0  0  0  0  0  0  0  0  0  0  0  0
  150.5908  140.2572  156.1243 C   0  0  0  0  0  0  0  0  0  0  0  0
  151.5214  140.0404  157.2529 C   0  0  0  0  0  0  0  0  0  0  0  0
  152.0367  141.0898  157.8181 N   0  0  0  0  0  0  0  0  0  0  0  0
  152.9180  140.9473  158.8817 C   0  0  0  0  0  0  0  0  0  0  0  0
  153.8333  140.1321  159.0253 O   0  0  0  0  0  0  0  0  0  0  0  0
  152.6897  141.9425  159.9720 C   0  0  0  0  0  0  0  0  0  0  0  0
  152.0138  143.1503  159.6974 C   0  0  0  0  0  0  0  0  0  0  0  0
  151.8085  144.0933  160.7236 C   0  0  0  0  0  0  0  0  0  0  0  0
  152.2799  143.8329  162.0250 C   0  0  0  0  0  0  0  0  0  0  0  0
  152.9565  142.6289  162.3010 C   0  0  0  0  0  0  0  0  0  0  0  0
  153.1625  141.6848  161.2761 C   0  0  0  0  0  0  0  0  0  0  0  0
  151.6646  138.6679  157.4946 N   0  0  0  0  0  0  0  0  0  0  0  0
  151.0300  137.6364  156.7849 C   0  0  0  0  0  0  0  0  0  0  0  0
  150.2047  137.8133  155.7877 N   0  0  0  0  0  0  0  0  0  0  0  0
  150.0272  139.1608  155.5079 C   0  0  0  0  0  0  0  0  0  0  0  0
  147.4903  139.8072  152.7171 C   0  0  0  0  0  0  0  0  0  0  0  0
  146.3597  138.8676  152.3290 C   0  0  1  0  0  0  0  0  0  0  0  0
  146.5831  138.3421  151.0352 O   0  0  0  0  0  0  0  0  0  0  0  0
  141.4249  139.3954  155.6519 H   0  0  0  0  0  0  0  0  0  0  0  0
  143.0497  139.0151  155.0944 H   0  0  0  0  0  0  0  0  0  0  0  0
  142.3464  138.1182  156.4346 H   0  0  0  0  0  0  0  0  0  0  0  0
  140.4223  136.4706  156.0140 H   0  0  0  0  0  0  0  0  0  0  0  0
  139.8330  136.1991  154.3795 H   0  0  0  0  0  0  0  0  0  0  0  0
  139.4866  137.7171  155.2001 H   0  0  0  0  0  0  0  0  0  0  0  0
  140.5121  139.0314  153.2465 H   0  0  0  0  0  0  0  0  0  0  0  0
  140.8577  137.5228  152.4090 H   0  0  0  0  0  0  0  0  0  0  0  0
  142.1488  138.6798  152.7081 H   0  0  0  0  0  0  0  0  0  0  0  0
  142.4576  134.9010  156.3597 H   0  0  0  0  0  0  0  0  0  0  0  0
  143.7561  136.0707  156.5342 H   0  0  0  0  0  0  0  0  0  0  0  0
  144.0471  134.5540  155.7003 H   0  0  0  0  0  0  0  0  0  0  0  0
  141.2253  134.3446  153.4636 H   0  0  0  0  0  0  0  0  0  0  0  0
  142.8363  134.0386  152.8404 H   0  0  0  0  0  0  0  0  0  0  0  0
  141.8149  135.2469  152.0785 H   0  0  0  0  0  0  0  0  0  0  0  0
  144.7220  138.5818  154.4424 H   0  0  0  0  0  0  0  0  0  0  0  0
  145.3661  137.1252  155.1759 H   0  0  0  0  0  0  0  0  0  0  0  0
  146.6690  136.7881  152.9115 H   0  0  0  0  0  0  0  0  0  0  0  0
  149.0704  138.2861  152.9396 H   0  0  0  0  0  0  0  0  0  0  0  0
  148.8271  141.6715  153.9033 H   0  0  0  0  0  0  0  0  0  0  0  0
  151.6521  143.3585  158.7007 H   0  0  0  0  0  0  0  0  0  0  0  0
  151.2905  145.0171  160.5116 H   0  0  0  0  0  0  0  0  0  0  0  0
  152.1236  144.5570  162.8109 H   0  0  0  0  0  0  0  0  0  0  0  0
  153.3190  142.4303  163.2987 H   0  0  0  0  0  0  0  0  0  0  0  0
  153.6857  140.7649  161.4945 H   0  0  0  0  0  0  0  0  0  0  0  0
  151.2829  136.6354  157.1370 H   0  0  0  0  0  0  0  0  0  0  0  0
  147.1115  140.6048  153.3582 H   0  0  0  0  0  0  0  0  0  0  0  0
  148.0325  140.2477  151.8793 H   0  0  0  0  0  0  0  0  0  0  0  0
  145.4024  139.3905  152.3333 H   0  0  0  0  0  0  0  0  0  0  0  0
  145.7755  138.3937  150.5471 H   0  0  0  0  0  0  0  0  0  0  0  0
  152.2803  138.3975  158.2480 H   0  0  0  0  0  0  0  0  0  0  0  0
  1  2  1  0  0  0  0
  1 34  1  0  0  0  0
  1 35  1  0  0  0  0
  1 36  1  0  0  0  0
  2  3  1  0  0  0  0
  2  4  1  0  0  0  0
  2  5  1  0  0  0  0
  3 37  1  0  0  0  0
  3 38  1  0  0  0  0
  3 39  1  0  0  0  0
  4 40  1  0  0  0  0
  4 41  1  0  0  0  0
  4 42  1  0  0  0  0
  5  6  1  0  0  0  0
  5  7  1  0  0  0  0
  5  8  1  0  0  0  0
  6 43  1  0  0  0  0
  6 44  1  0  0  0  0
  6 45  1  0  0  0  0
  7 46  1  0  0  0  0
  7 47  1  0  0  0  0
  7 48  1  0  0  0  0
  8  9  1  0  0  0  0
  9 10  1  0  0  0  0
  9 49  1  0  0  0  0
  9 50  1  0  0  0  0
 10 32  1  0  0  0  0
 10 11  1  0  0  0  0
 10 51  1  0  0  0  0
 11 12  1  0  0  0  0
 12 13  1  0  0  0  0
 12 31  1  0  0  0  0
 12 52  1  0  0  0  0
 13 30  1  0  0  0  0
 13 14  1  0  0  0  0
 14 15  2  0  0  0  0
 14 53  1  0  0  0  0
 15 16  1  0  0  0  0
 16 30  2  0  0  0  0
 16 17  1  0  0  0  0
 17 18  2  0  0  0  0
 17 27  1  0  0  0  0
 18 19  1  0  0  0  0
 19 20  2  0  0  0  0
 19 21  1  0  0  0  0
 21 26  1  0  0  0  0
 21 22  2  0  0  0  0
 22 23  1  0  0  0  0
 22 54  1  0  0  0  0
 23 24  2  0  0  0  0
 23 55  1  0  0  0  0
 24 25  1  0  0  0  0
 24 56  1  0  0  0  0
 25 26  2  0  0  0  0
 25 57  1  0  0  0  0
 26 58  1  0  0  0  0
 27 28  1  0  0  0  0
 27 64  1  0  0  0  0
 28 29  2  0  0  0  0
 28 59  1  0  0  0  0
 29 30  1  0  0  0  0
 31 32  1  0  0  0  0
 31 60  1  0  0  0  0
 31 61  1  0  0  0  0
 32 33  1  0  0  0  0
 32 62  1  0  0  0  0
 33 63  1  0  0  0  0
M  END
> <s_m_source_file>
AV-unprocessed.smi

> <i_m_source_file_index>
36

> <i_lp_mmshare_version>
43012

> <i_f3d_flags>
0

> <s_epik_input>
W0NIM11DKFtDSDNdKShbQ0gzXSlbU2ldKFtDSDNdKShbQ0gzXSlPW0NIMl1bQ0BASF0xT1tDQEhdKFtDSDJdW0NASF0xW09IXSluKFtjSF1uMiljKGMyMyluW2NIXW5jM1tOSF1DKD1PKWM0W2NIXVtjSF1bY0hdW2NIXVtjSF00

> <s_epik_cmdline>
J2VwaWtfcHl0aG9uJywgJy1waCcsICc3LjAnLCAnLXRuJywgJzgnLCAnLW1hJywgJzIwMCcsICctbWV0YWxfYmluZGluZycsICctaW1hZScsICc8aW5maWxlLm1hZT4nLCAnLW9tYWUnLCAnPG91dGZpbGUubWFlPic=

> <r_epik_Ionization_Penalty>
0.0850405

> <r_epik_Ionization_Penalty_Charging>
0.0850403

> <r_epik_Ionization_Penalty_Neutral>
1.47497e-07

> <r_epik_State_Penalty>
2.6133

> <r_epik_Charging_Adjusted_Penalty>
2.69834

> <i_epik_Tot_Q>
0

> <i_epik_Tot_abs_Q>
0

> <r_epik_Metal_State_Penalty>
2.92945

> <b_epik_Metal_Only>
0

> <s_epik_Chemistry_Notes>
This compound contains an acetal/aminal-like group ( X-CH(R)-Y where X, Y are N, S, or O) that may be acid/base labile, releasing an aldehyde.

> <s_lp_Force_Field>
OPLS_2005

> <r_lp_Energy>
44.9546

> <b_lp_Chiralities_Consistent>
1

> <s_lp_Variant>
AV-unprocessed.smi:36-11

> <Gold.Version>
5.8.1

> <Gold.Id.Protein>
6NUR|6NUR_protein|mol2

> <Gold.PLP.Fitness>
58.0302

> <Gold.PLP.PLP>
-50.8568

> <Gold.PLP.part.hbond>
-3.8621

> <Gold.PLP.part.metal>
0.0000

> <Gold.PLP.part.buried>
2.9374

> <Gold.PLP.part.nonpolar>
-49.1719

> <Gold.PLP.part.repulsive>
0.4219

> <Gold.PLP.ligand.clash>
0.0000

> <Gold.PLP.ligand.torsion>
1.0770

> <Gold.PLP.Chemscore.Hbond>
2.9913

> <Gold.PLP.Chemscore.CHOScore>
0.0000

> <Gold.PLP.Chemscore.Metal>
0.0000

> <Gold.Chemscore.Hbonds>
donor molecule, donor type, donor heavy atom, donor atom, acceptor molecule, acceptor atom, score
      L1  H    33    63       P1 10171  0.99
      P1  H  7954  7966       L1    33  1.00
      P1  H  7997  8010       L1    20  0.90

> <Gold.PLP.Chemscore.Internal.Correction>
0.3538

> <Gold.Rescore>
     Score         DG    S(hbond)    S(metal)    S(lipo)     H(rot)  DE(clash)    DE(int)     intcor
     17.03     -21.42       2.63        0.00     120.23       2.70       3.37       1.02       ----

> <Gold.Chemscore.Fitness>
17.0262

> <Gold.Chemscore.DG>
-21.4173

> <Gold.Chemscore.ZeroCoef>
-5.4800

> <Gold.Chemscore.Hbond>
2.6325

> <Gold.Chemscore.Metal>
0.0000

> <Gold.Chemscore.Lipo>
120.2319

> <Gold.Chemscore.Internal_Hbond>
0.0000

> <Gold.Chemscore.DEClash>
3.3747

> <Gold.Chemscore.DEInternal>
1.0164

> <Gold.Chemscore.Rot>
2.7041

> <Gold.Chemscore.Internal.Correction>
   9.000000E+99

> <Gold.Chemscore.Hbonds>
donor molecule, donor type, donor heavy atom, donor atom, acceptor molecule, acceptor atom, score
      L1  H    33    63       P1 10171  0.92
      P1  H  7954  7966       L1    33  0.80
      P1  H  7997  8010       L1    20  0.50

> <Gold.Chemscore.Hbond.Weighted>
-8.7926

> <Gold.Chemscore.Metal.Weighted>
-0.0000

> <Gold.Chemscore.Lipo.Weighted>
-14.0671

> <Gold.Chemscore.Internal_Hbond.Weighted>
0.0000

> <Gold.Chemscore.DEClash.Weighted>
3.3747

> <Gold.Chemscore.DEInternal.Weighted>
1.0164

> <Gold.Chemscore.Rot.Weighted>
6.9225

> <Gold.Chemscore.Internal.Correction.Weighted>
   9.000000E+99

> <Gold.Protein.RotatedTorsions>
[ 6907 6896 6895 6894 ] final  115.24 input  -60.11 | X-H torsion
[ 7974 7965 7964 7962 ] final -120.09 input  175.53 | X-H torsion
[ 8008 7997 7996 7995 ] final   15.67 input   59.86 | X-H torsion
[ 10167 10162 10161 10158 ] final  -34.03 input  -65.29 | X-H torsion
[ 10718 10713 10712 10709 ] final  113.74 input   66.30 | X-H torsion
[ 10763 10752 10751 10750 ] final  -49.70 input  -60.55 | X-H torsion
[ 11005 11000 10999 10996 ] final   25.12 input  -57.11 | X-H torsion

> <Gold.Protein.ActiveResidues>
 VAL166  LYS551  ARG553  GLY616  TRP617  ASP618  TYR619  PRO620  LYS621  CYS622 
 ASP623  PHE694  ASN695  SER759  ASP760  ASP761  ALA762  ILE779  LEU786  VAL792 
 PHE793  MET794  SER795  GLU796  ALA797  LYS798  CYS799  TRP800  GLU811  SER814 

> <Gold.Protein.RotatedAtoms>
  152.4753  133.8125  159.7010 H   0  0  0  0  0  0  0  0  0  0  0  0  # atno 6907 bound_to 6896
  150.8767  133.7419  159.2951 H   0  0  0  0  0  0  0  0  0  0  0  0  # atno 6908 bound_to 6896
  151.4937  135.1062  159.9862 H   0  0  0  0  0  0  0  0  0  0  0  0  # atno 6909 bound_to 6896
  145.0552  140.8249  143.4185 H   0  0  0  0  0  0  0  0  0  0  0  0  # atno 7974 bound_to 7965
  154.8659  140.2951  155.5510 H   0  0  0  0  0  0  0  0  0  0  0  0  # atno 8008 bound_to 7997
  156.3021  140.2469  156.3574 H   0  0  0  0  0  0  0  0  0  0  0  0  # atno 8009 bound_to 7997
  154.8868  140.0396  157.1804 H   0  0  0  0  0  0  0  0  0  0  0  0  # atno 8010 bound_to 7997
  140.7193  143.3578  151.2025 H   0  0  0  0  0  0  0  0  0  0  0  0  # atno 10167 bound_to 10162
  157.6321  131.0988  150.7085 H   0  0  0  0  0  0  0  0  0  0  0  0  # atno 10718 bound_to 10713
  154.0984  135.6567  153.4864 H   0  0  0  0  0  0  0  0  0  0  0  0  # atno 10763 bound_to 10752
  153.0297  135.5219  154.7311 H   0  0  0  0  0  0  0  0  0  0  0  0  # atno 10764 bound_to 10752
  154.6455  135.2994  155.0020 H   0  0  0  0  0  0  0  0  0  0  0  0  # atno 10765 bound_to 10752
  140.3513  134.2226  155.7680 H   0  0  0  0  0  0  0  0  0  0  0  0  # atno 11005 bound_to 11000
  145.1477  139.2533  143.5457 LP  0  0  0  0  0  0  0  0  0  0  0  0  # atno 17320 bound_to 7965
  146.3521  140.1171  142.8601 LP  0  0  0  0  0  0  0  0  0  0  0  0  # atno 17321 bound_to 7965
  139.7123  143.9357  152.2952 LP  0  0  0  0  0  0  0  0  0  0  0  0  # atno 17342 bound_to 10162
  139.9086  144.6870  150.8587 LP  0  0  0  0  0  0  0  0  0  0  0  0  # atno 17343 bound_to 10162
  156.7423  130.4743  149.5475 LP  0  0  0  0  0  0  0  0  0  0  0  0  # atno 17370 bound_to 10713
  156.1532  130.6324  151.0623 LP  0  0  0  0  0  0  0  0  0  0  0  0  # atno 17371 bound_to 10713
  141.2011  133.7970  157.0456 LP  0  0  0  0  0  0  0  0  0  0  0  0  # atno 17394 bound_to 11000
  140.0701  134.9707  157.1452 LP  0  0  0  0  0  0  0  0  0  0  0  0  # atno 17395 bound_to 11000

$$$$
