AV-unprocessed.smi:55|AV-procd|sdf|567|dock10
  -GOLD-   2262016473D 1   1.00000     0.00000
 Structure written by MMmdl.
 31 32  0  0  0  0  0  0  0  0  1 V2000
  152.9487  143.1783  160.4714 C   0  0  0  0  0  0  0  0  0  0  0  0
  152.1929  142.8279  159.2003 C   0  0  0  0  0  0  0  0  0  0  0  0
  152.1055  141.5566  158.7324 C   0  0  0  0  0  0  0  0  0  0  0  0
  151.4186  141.2047  157.5788 N   0  0  0  0  0  0  0  0  0  0  0  0
  151.3531  139.7669  157.1162 C   0  0  2  0  0  0  0  0  0  0  0  0
  150.7389  138.8768  158.1981 C   0  0  0  0  0  0  0  0  0  0  0  0
  151.5754  137.6210  158.0695 C   0  0  2  0  0  0  0  0  0  0  0  0
  151.5907  136.9054  159.2876 O   0  0  0  0  0  0  0  0  0  0  0  0
  152.9494  138.1915  157.7045 C   0  0  1  0  0  0  0  0  0  0  0  0
  153.8692  137.2214  156.9470 C   0  0  0  0  0  0  0  0  0  0  0  0
  155.1554  137.7805  156.7860 O   0  0  0  0  0  0  0  0  0  0  0  0
  152.6508  139.3087  156.8693 O   0  0  0  0  0  0  0  0  0  0  0  0
  150.7450  142.2029  156.8445 C   0  0  0  0  0  0  0  0  0  0  0  0
  150.0897  141.9650  155.8308 O   0  0  0  0  0  0  0  0  0  0  0  0
  150.8383  143.5093  157.3213 N   0  0  0  0  0  0  0  0  0  0  0  0
  151.5307  143.9099  158.4666 C   0  0  0  0  0  0  0  0  0  0  0  0
  151.5432  145.0980  158.7840 O   0  0  0  0  0  0  0  0  0  0  0  0
  150.8104  139.7374  156.1702 H   0  0  0  0  0  0  0  0  0  0  0  0
  151.1889  136.9935  157.2652 H   0  0  0  0  0  0  0  0  0  0  0  0
  153.4500  138.5710  158.5970 H   0  0  0  0  0  0  0  0  0  0  0  0
  150.3601  144.2275  156.7969 H   0  0  0  0  0  0  0  0  0  0  0  0
  153.4120  142.3000  160.9216 H   0  0  0  0  0  0  0  0  0  0  0  0
  152.2726  143.6142  161.2078 H   0  0  0  0  0  0  0  0  0  0  0  0
  153.7376  143.9009  160.2603 H   0  0  0  0  0  0  0  0  0  0  0  0
  152.5935  140.7765  159.2966 H   0  0  0  0  0  0  0  0  0  0  0  0
  150.8789  139.3380  159.1776 H   0  0  0  0  0  0  0  0  0  0  0  0
  149.6734  138.7207  158.0265 H   0  0  0  0  0  0  0  0  0  0  0  0
  151.7499  137.5166  159.9912 H   0  0  0  0  0  0  0  0  0  0  0  0
  153.9462  136.2662  157.4672 H   0  0  0  0  0  0  0  0  0  0  0  0
  153.4615  137.0166  155.9569 H   0  0  0  0  0  0  0  0  0  0  0  0
  155.2920  137.9603  155.8683 H   0  0  0  0  0  0  0  0  0  0  0  0
  1  2  1  0  0  0  0
  1 22  1  0  0  0  0
  1 23  1  0  0  0  0
  1 24  1  0  0  0  0
  2 16  1  0  0  0  0
  2  3  2  0  0  0  0
  3  4  1  0  0  0  0
  3 25  1  0  0  0  0
  4  5  1  0  0  0  0
  4 13  1  0  0  0  0
  5 18  1  0  0  0  0
  5 12  1  0  0  0  0
  5  6  1  0  0  0  0
  6  7  1  0  0  0  0
  6 26  1  0  0  0  0
  6 27  1  0  0  0  0
  7 19  1  0  0  0  0
  7  8  1  0  0  0  0
  7  9  1  0  0  0  0
  8 28  1  0  0  0  0
  9 20  1  0  0  0  0
  9 10  1  0  0  0  0
  9 12  1  0  0  0  0
 10 11  1  0  0  0  0
 10 29  1  0  0  0  0
 10 30  1  0  0  0  0
 11 31  1  0  0  0  0
 13 14  2  0  0  0  0
 13 15  1  0  0  0  0
 15 21  1  0  0  0  0
 15 16  1  0  0  0  0
 16 17  2  0  0  0  0
M  END
> <s_m_source_file>
AV-unprocessed.smi

> <i_m_source_file_index>
55

> <i_lp_mmshare_version>
43012

> <i_f3d_flags>
0

> <s_epik_input>
Tz1jMVtuSF1jKD1PKW4oW2NIXWMxW0NIM10pW0NAQEhdMltDSDJdW0NAQEhdKFtPSF0pW0NAQEhdKE8yKVtDSDJdW09IXQ==

> <s_epik_cmdline>
J2VwaWtfcHl0aG9uJywgJy1waCcsICc3LjAnLCAnLXRuJywgJzgnLCAnLW1hJywgJzIwMCcsICctbWV0YWxfYmluZGluZycsICctaW1hZScsICc8aW5maWxlLm1hZT4nLCAnLW9tYWUnLCAnPG91dGZpbGUubWFlPic=

> <r_lp_tautomer_probability>
0.999537

> <r_epik_Ionization_Penalty>
0.00121888

> <r_epik_Ionization_Penalty_Charging>
0.00121876

> <r_epik_Ionization_Penalty_Neutral>
1.19946e-07

> <r_epik_State_Penalty>
0.000805124

> <r_epik_Charging_Adjusted_Penalty>
0.00202389

> <i_epik_Tot_Q>
0

> <i_epik_Tot_abs_Q>
0

> <r_epik_Metal_State_Penalty>
0.662472

> <b_epik_Metal_Only>
0

> <s_epik_Chemistry_Notes>
This compound contains an acetal/aminal-like group ( X-CH(R)-Y where X, Y are N, S, or O) that may be acid/base labile, releasing an aldehyde.

> <s_lp_Force_Field>
OPLS_2005

> <r_lp_Energy>
24.0727

> <b_lp_Chiralities_Consistent>
1

> <s_lp_Variant>
AV-unprocessed.smi:55-7

> <Gold.Version>
5.8.1

> <Gold.Id.Protein>
6NUR|6NUR_protein|mol2

> <Gold.PLP.Fitness>
37.6897

> <Gold.PLP.PLP>
-28.7821

> <Gold.PLP.part.hbond>
-4.0000

> <Gold.PLP.part.metal>
0.0000

> <Gold.PLP.part.buried>
-6.1983

> <Gold.PLP.part.nonpolar>
-19.3291

> <Gold.PLP.part.repulsive>
0.2117

> <Gold.PLP.ligand.clash>
0.0000

> <Gold.PLP.ligand.torsion>
0.0380

> <Gold.PLP.Chemscore.Hbond>
2.9920

> <Gold.PLP.Chemscore.CHOScore>
0.0000

> <Gold.PLP.Chemscore.Metal>
0.0000

> <Gold.Chemscore.Hbonds>
donor molecule, donor type, donor heavy atom, donor atom, acceptor molecule, acceptor atom, score
      L1  H    15    21       P1  8028  0.99
      P1  H  6896  6908       L1     8  1.00
      P1  H  7997  8009       L1    12  1.00

> <Gold.PLP.Chemscore.Internal.Correction>
0.0077

> <Gold.Rescore>
     Score         DG    S(hbond)    S(metal)    S(lipo)     H(rot)  DE(clash)    DE(int)     intcor
     13.86     -13.91       2.96        0.00      47.13       2.73       0.00       0.05       ----

> <Gold.Chemscore.Fitness>
13.8636

> <Gold.Chemscore.DG>
-13.9130

> <Gold.Chemscore.ZeroCoef>
-5.4800

> <Gold.Chemscore.Hbond>
2.9629

> <Gold.Chemscore.Metal>
0.0000

> <Gold.Chemscore.Lipo>
47.1264

> <Gold.Chemscore.Internal_Hbond>
0.0000

> <Gold.Chemscore.DEClash>
0.0000

> <Gold.Chemscore.DEInternal>
0.0494

> <Gold.Chemscore.Rot>
2.7253

> <Gold.Chemscore.Internal.Correction>
   9.000000E+99

> <Gold.Chemscore.Hbonds>
donor molecule, donor type, donor heavy atom, donor atom, acceptor molecule, acceptor atom, score
      L1  H    15    21       P1  8028  0.92
      P1  H  6896  6908       L1     8  0.69
      P1  H  7997  8009       L1    12  0.55

> <Gold.Chemscore.Hbond.Weighted>
-9.8961

> <Gold.Chemscore.Metal.Weighted>
-0.0000

> <Gold.Chemscore.Lipo.Weighted>
-5.5138

> <Gold.Chemscore.Internal_Hbond.Weighted>
0.0000

> <Gold.Chemscore.DEClash.Weighted>
0.0000

> <Gold.Chemscore.DEInternal.Weighted>
0.0494

> <Gold.Chemscore.Rot.Weighted>
6.9769

> <Gold.Chemscore.Internal.Correction.Weighted>
   9.000000E+99

> <Gold.Protein.RotatedTorsions>
[ 6907 6896 6895 6894 ] final -119.91 input  -60.11 | X-H torsion
[ 7974 7965 7964 7962 ] final    8.37 input  175.53 | X-H torsion
[ 8008 7997 7996 7995 ] final -165.80 input   59.86 | X-H torsion
[ 10167 10162 10161 10158 ] final  -75.08 input  -65.29 | X-H torsion
[ 10718 10713 10712 10709 ] final  177.81 input   66.30 | X-H torsion
[ 10763 10752 10751 10750 ] final  141.30 input  -60.55 | X-H torsion
[ 11005 11000 10999 10996 ] final  159.98 input  -57.11 | X-H torsion

> <Gold.Protein.ActiveResidues>
 VAL166  LYS551  ARG553  GLY616  TRP617  ASP618  TYR619  PRO620  LYS621  CYS622 
 ASP623  PHE694  ASN695  SER759  ASP760  ASP761  ALA762  ILE779  LEU786  VAL792 
 PHE793  MET794  SER795  GLU796  ALA797  LYS798  CYS799  TRP800  GLU811  SER814 

> <Gold.Protein.RotatedAtoms>
  150.8347  133.8033  159.3084 H   0  0  0  0  0  0  0  0  0  0  0  0  # atno 6907 bound_to 6896
  151.5753  135.1059  160.0014 H   0  0  0  0  0  0  0  0  0  0  0  0  # atno 6908 bound_to 6896
  152.4421  133.7426  159.6705 H   0  0  0  0  0  0  0  0  0  0  0  0  # atno 6909 bound_to 6896
  146.2417  139.9943  142.8422 H   0  0  0  0  0  0  0  0  0  0  0  0  # atno 7974 bound_to 7965
  155.8549  140.0969  157.1651 H   0  0  0  0  0  0  0  0  0  0  0  0  # atno 8008 bound_to 7997
  154.3987  140.1376  156.3951 H   0  0  0  0  0  0  0  0  0  0  0  0  # atno 8009 bound_to 7997
  155.7921  140.3455  155.5357 H   0  0  0  0  0  0  0  0  0  0  0  0  # atno 8010 bound_to 7997
  140.4973  143.2368  151.7810 H   0  0  0  0  0  0  0  0  0  0  0  0  # atno 10167 bound_to 10162
  156.8998  130.9875  151.3037 H   0  0  0  0  0  0  0  0  0  0  0  0  # atno 10718 bound_to 10713
  153.9370  135.2984  155.3444 H   0  0  0  0  0  0  0  0  0  0  0  0  # atno 10763 bound_to 10752
  154.7497  135.4986  153.9270 H   0  0  0  0  0  0  0  0  0  0  0  0  # atno 10764 bound_to 10752
  153.1062  135.6747  153.9688 H   0  0  0  0  0  0  0  0  0  0  0  0  # atno 10765 bound_to 10752
  140.2015  134.8334  157.3023 H   0  0  0  0  0  0  0  0  0  0  0  0  # atno 11005 bound_to 11000
  145.1474  140.9604  143.4453 LP  0  0  0  0  0  0  0  0  0  0  0  0  # atno 17320 bound_to 7965
  145.0238  139.3401  143.6059 LP  0  0  0  0  0  0  0  0  0  0  0  0  # atno 17321 bound_to 7965
  139.4864  144.4569  151.9587 LP  0  0  0  0  0  0  0  0  0  0  0  0  # atno 17342 bound_to 10162
  140.3657  144.2917  150.5927 LP  0  0  0  0  0  0  0  0  0  0  0  0  # atno 17343 bound_to 10162
  157.6033  130.8528  149.8835 LP  0  0  0  0  0  0  0  0  0  0  0  0  # atno 17370 bound_to 10713
  156.0587  130.3703  150.1031 LP  0  0  0  0  0  0  0  0  0  0  0  0  # atno 17371 bound_to 10713
  140.2049  134.4209  155.7643 LP  0  0  0  0  0  0  0  0  0  0  0  0  # atno 17394 bound_to 11000
  141.2227  133.7090  156.8244 LP  0  0  0  0  0  0  0  0  0  0  0  0  # atno 17395 bound_to 11000

$$$$
