AV-unprocessed.smi:2910|AV-procd|sdf|11176|dock10
  -GOLD-   2272016 73D 1   1.00000     0.00000
 Structure written by MMmdl.
 47 48  0  0  0  0  0  0  0  0  1 V2000
  149.8204  142.0974  155.9037 C   0  0  0  0  0  0  0  0  0  0  0  0
  149.6160  140.7746  155.2263 C   0  0  0  0  0  0  0  0  0  0  0  0
  148.4099  140.2446  154.6827 C   0  0  0  0  0  0  0  0  0  0  0  0
  148.8053  139.0251  154.2047 C   0  0  0  0  0  0  0  0  0  0  0  0
  148.0647  138.0694  153.5829 N   0  0  0  0  0  0  0  0  0  0  0  0
  146.7971  137.6962  153.8302 C   0  0  0  0  0  0  0  0  0  0  0  0
  146.0575  138.2006  154.6752 O   0  0  0  0  0  0  0  0  0  0  0  0
  146.4267  136.6884  153.0254 N   0  0  0  0  0  0  0  0  0  0  0  0
  145.1217  136.0212  153.0239 C   0  0  1  0  0  0  0  0  0  0  0  0
  144.0114  137.0879  152.8667 C   0  0  0  0  0  0  0  0  0  0  0  0
  142.8236  136.9089  153.8288 C   0  0  0  0  0  0  0  0  0  0  0  0
  142.1030  138.1182  153.9265 O   0  0  0  0  0  0  0  0  0  0  0  0
  145.0888  134.9189  151.9253 C   0  0  0  0  0  0  0  0  0  0  0  0
  143.7925  134.0722  151.9724 C   0  0  0  0  0  0  0  0  0  0  0  0
  143.7703  132.9704  150.9005 C   0  0  0  0  0  0  0  0  0  0  0  0
  144.9968  132.0568  151.0114 C   0  0  0  0  0  0  0  0  0  0  0  0
  146.2888  132.8783  150.9312 C   0  0  0  0  0  0  0  0  0  0  0  0
  146.3180  133.9763  152.0057 C   0  0  0  0  0  0  0  0  0  0  0  0
  150.1494  138.8633  154.4566 N   0  0  0  0  0  0  0  0  0  0  0  0
  151.0173  137.7453  154.1414 C   0  0  0  0  0  0  0  0  0  0  0  0
  150.6471  139.9489  155.0874 N   0  0  0  0  0  0  0  0  0  0  0  0
  148.8952  142.6734  155.9296 H   0  0  0  0  0  0  0  0  0  0  0  0
  150.5689  142.6948  155.3826 H   0  0  0  0  0  0  0  0  0  0  0  0
  150.1559  141.9633  156.9323 H   0  0  0  0  0  0  0  0  0  0  0  0
  147.4309  140.6989  154.6609 H   0  0  0  0  0  0  0  0  0  0  0  0
  148.5390  137.5715  152.8443 H   0  0  0  0  0  0  0  0  0  0  0  0
  147.1056  136.3429  152.3629 H   0  0  0  0  0  0  0  0  0  0  0  0
  144.9615  135.5272  153.9840 H   0  0  0  0  0  0  0  0  0  0  0  0
  144.4385  138.0832  152.9984 H   0  0  0  0  0  0  0  0  0  0  0  0
  143.6148  137.0576  151.8528 H   0  0  0  0  0  0  0  0  0  0  0  0
  142.1551  136.1245  153.4727 H   0  0  0  0  0  0  0  0  0  0  0  0
  143.1589  136.6258  154.8266 H   0  0  0  0  0  0  0  0  0  0  0  0
  142.4966  138.7507  153.3447 H   0  0  0  0  0  0  0  0  0  0  0  0
  145.1221  135.4168  150.9549 H   0  0  0  0  0  0  0  0  0  0  0  0
  143.6844  133.6205  152.9596 H   0  0  0  0  0  0  0  0  0  0  0  0
  142.9143  134.6981  151.8216 H   0  0  0  0  0  0  0  0  0  0  0  0
  142.8589  132.3796  150.9952 H   0  0  0  0  0  0  0  0  0  0  0  0
  143.7417  133.4255  149.9096 H   0  0  0  0  0  0  0  0  0  0  0  0
  144.9654  131.5108  151.9552 H   0  0  0  0  0  0  0  0  0  0  0  0
  144.9793  131.3087  150.2184 H   0  0  0  0  0  0  0  0  0  0  0  0
  147.1526  132.2231  151.0471 H   0  0  0  0  0  0  0  0  0  0  0  0
  146.3745  133.3315  149.9426 H   0  0  0  0  0  0  0  0  0  0  0  0
  147.2456  134.5364  151.8892 H   0  0  0  0  0  0  0  0  0  0  0  0
  146.3612  133.5162  152.9938 H   0  0  0  0  0  0  0  0  0  0  0  0
  150.5991  136.8287  154.5584 H   0  0  0  0  0  0  0  0  0  0  0  0
  152.0128  137.9010  154.5601 H   0  0  0  0  0  0  0  0  0  0  0  0
  151.0998  137.6407  153.0593 H   0  0  0  0  0  0  0  0  0  0  0  0
  1  2  1  0  0  0  0
  1 22  1  0  0  0  0
  1 23  1  0  0  0  0
  1 24  1  0  0  0  0
  2 21  2  0  0  0  0
  2  3  1  0  0  0  0
  3  4  2  0  0  0  0
  3 25  1  0  0  0  0
  4  5  1  0  0  0  0
  4 19  1  0  0  0  0
  5  6  1  0  0  0  0
  5 26  1  0  0  0  0
  6  7  2  0  0  0  0
  6  8  1  0  0  0  0
  8  9  1  0  0  0  0
  8 27  1  0  0  0  0
  9 10  1  0  0  0  0
  9 13  1  0  0  0  0
  9 28  1  0  0  0  0
 10 11  1  0  0  0  0
 10 29  1  0  0  0  0
 10 30  1  0  0  0  0
 11 12  1  0  0  0  0
 11 31  1  0  0  0  0
 11 32  1  0  0  0  0
 12 33  1  0  0  0  0
 13 18  1  0  0  0  0
 13 14  1  0  0  0  0
 13 34  1  0  0  0  0
 14 15  1  0  0  0  0
 14 35  1  0  0  0  0
 14 36  1  0  0  0  0
 15 16  1  0  0  0  0
 15 37  1  0  0  0  0
 15 38  1  0  0  0  0
 16 17  1  0  0  0  0
 16 39  1  0  0  0  0
 16 40  1  0  0  0  0
 17 18  1  0  0  0  0
 17 41  1  0  0  0  0
 17 42  1  0  0  0  0
 18 43  1  0  0  0  0
 18 44  1  0  0  0  0
 19 20  1  0  0  0  0
 19 21  1  0  0  0  0
 20 45  1  0  0  0  0
 20 46  1  0  0  0  0
 20 47  1  0  0  0  0
M  END
> <s_m_source_file>
AV-unprocessed.smi

> <i_m_source_file_index>
2910

> <i_lp_mmshare_version>
43012

> <i_f3d_flags>
0

> <s_epik_input>
W0NIM11jMVtjSF1jKG4objEpW0NIM10pW05IXUMoPU8pW05IXVtDQEhdKFtDSDJdW0NIMl1bT0hdKVtDSF0yW0NIMl1bQ0gyXVtDSDJdW0NIMl1bQ0gyXTI=

> <s_epik_cmdline>
J2VwaWtfcHl0aG9uJywgJy1waCcsICc3LjAnLCAnLXRuJywgJzgnLCAnLW1hJywgJzIwMCcsICctbWV0YWxfYmluZGluZycsICctaW1hZScsICc8aW5maWxlLm1hZT4nLCAnLW9tYWUnLCAnPG91dGZpbGUubWFlPic=

> <r_lp_tautomer_probability>
1

> <r_epik_Ionization_Penalty>
0.000101449

> <r_epik_Ionization_Penalty_Charging>
0

> <r_epik_Ionization_Penalty_Neutral>
0.000101449

> <r_epik_State_Penalty>
-0

> <r_epik_Charging_Adjusted_Penalty>
0

> <i_epik_Tot_Q>
0

> <i_epik_Tot_abs_Q>
0

> <r_epik_Metal_State_Penalty>
-0

> <b_epik_Metal_Only>
0

> <s_lp_Force_Field>
OPLS_2005

> <r_lp_Energy>
16.2271

> <b_lp_Chiralities_Consistent>
1

> <s_lp_Variant>
AV-unprocessed.smi:2910-2

> <Gold.Version>
5.8.1

> <Gold.Id.Protein>
6NUR|6NUR_protein|mol2

> <Gold.PLP.Fitness>
44.9629

> <Gold.PLP.PLP>
-35.0558

> <Gold.PLP.part.hbond>
-4.0000

> <Gold.PLP.part.metal>
0.0000

> <Gold.PLP.part.buried>
-0.3353

> <Gold.PLP.part.nonpolar>
-31.4841

> <Gold.PLP.part.repulsive>
0.1969

> <Gold.PLP.ligand.clash>
0.0000

> <Gold.PLP.ligand.torsion>
1.0585

> <Gold.PLP.Chemscore.Hbond>
3.9760

> <Gold.PLP.Chemscore.CHOScore>
0.0000

> <Gold.PLP.Chemscore.Metal>
0.0000

> <Gold.Chemscore.Hbonds>
donor molecule, donor type, donor heavy atom, donor atom, acceptor molecule, acceptor atom, score
      L1  H     5    26       P1  7948  1.00
      L1  H     8    27       P1  7948  0.96
      L1  H    12    33       P1 10175  0.57
      P1  H  7989  7998       L1    21  0.86

> <Gold.PLP.Chemscore.Internal.Correction>
0.0962

> <Gold.Rescore>
     Score         DG    S(hbond)    S(metal)    S(lipo)     H(rot)  DE(clash)    DE(int)     intcor
     16.75     -17.91       2.85        0.00      74.70       2.27       0.15       1.02       ----

> <Gold.Chemscore.Fitness>
16.7477

> <Gold.Chemscore.DG>
-17.9112

> <Gold.Chemscore.ZeroCoef>
-5.4800

> <Gold.Chemscore.Hbond>
2.8485

> <Gold.Chemscore.Metal>
0.0000

> <Gold.Chemscore.Lipo>
74.6959

> <Gold.Chemscore.Internal_Hbond>
0.0000

> <Gold.Chemscore.DEClash>
0.1465

> <Gold.Chemscore.DEInternal>
1.0170

> <Gold.Chemscore.Rot>
2.2743

> <Gold.Chemscore.Internal.Correction>
   9.000000E+99

> <Gold.Chemscore.Hbonds>
donor molecule, donor type, donor heavy atom, donor atom, acceptor molecule, acceptor atom, score
      L1  H     5    26       P1  7948  0.99
      L1  H     8    27       P1  7948  0.92
      L1  H    12    33       P1 10175  0.58
      P1  H  7989  7998       L1    21  0.05

> <Gold.Chemscore.Hbond.Weighted>
-9.5141

> <Gold.Chemscore.Metal.Weighted>
-0.0000

> <Gold.Chemscore.Lipo.Weighted>
-8.7394

> <Gold.Chemscore.Internal_Hbond.Weighted>
0.0000

> <Gold.Chemscore.DEClash.Weighted>
0.1465

> <Gold.Chemscore.DEInternal.Weighted>
1.0170

> <Gold.Chemscore.Rot.Weighted>
5.8223

> <Gold.Chemscore.Internal.Correction.Weighted>
   9.000000E+99

> <Gold.Protein.RotatedTorsions>
[ 6907 6896 6895 6894 ] final   17.53 input  -60.11 | X-H torsion
[ 7974 7965 7964 7962 ] final   74.96 input  175.53 | X-H torsion
[ 8008 7997 7996 7995 ] final  -58.80 input   59.86 | X-H torsion
[ 10167 10162 10161 10158 ] final  -51.88 input  -65.29 | X-H torsion
[ 10718 10713 10712 10709 ] final -176.86 input   66.30 | X-H torsion
[ 10763 10752 10751 10750 ] final  145.39 input  -60.55 | X-H torsion
[ 11005 11000 10999 10996 ] final  -99.66 input  -57.11 | X-H torsion

> <Gold.Protein.ActiveResidues>
 VAL166  LYS551  ARG553  GLY616  TRP617  ASP618  TYR619  PRO620  LYS621  CYS622 
 ASP623  PHE694  ASN695  SER759  ASP760  ASP761  ALA762  ILE779  LEU786  VAL792 
 PHE793  MET794  SER795  GLU796  ALA797  LYS798  CYS799  TRP800  GLU811  SER814 

> <Gold.Protein.RotatedAtoms>
  151.8511  135.0557  160.0458 H   0  0  0  0  0  0  0  0  0  0  0  0  # atno 6907 bound_to 6896
  152.2736  133.5400  159.5462 H   0  0  0  0  0  0  0  0  0  0  0  0  # atno 6908 bound_to 6896
  150.7161  134.0579  159.3863 H   0  0  0  0  0  0  0  0  0  0  0  0  # atno 6909 bound_to 6896
  145.7216  139.2650  143.1593 H   0  0  0  0  0  0  0  0  0  0  0  0  # atno 7974 bound_to 7965
  154.4324  140.1076  156.6015 H   0  0  0  0  0  0  0  0  0  0  0  0  # atno 8008 bound_to 7997
  155.5906  140.3492  155.4546 H   0  0  0  0  0  0  0  0  0  0  0  0  # atno 8009 bound_to 7997
  156.0249  140.1248  157.0308 H   0  0  0  0  0  0  0  0  0  0  0  0  # atno 8010 bound_to 7997
  140.6566  143.2604  151.4567 H   0  0  0  0  0  0  0  0  0  0  0  0  # atno 10167 bound_to 10162
  156.8210  130.9620  151.3111 H   0  0  0  0  0  0  0  0  0  0  0  0  # atno 10718 bound_to 10713
  154.0046  135.2920  155.3399 H   0  0  0  0  0  0  0  0  0  0  0  0  # atno 10763 bound_to 10752
  154.7139  135.5138  153.8711 H   0  0  0  0  0  0  0  0  0  0  0  0  # atno 10764 bound_to 10752
  153.0750  135.6660  154.0284 H   0  0  0  0  0  0  0  0  0  0  0  0  # atno 10765 bound_to 10752
  141.1300  133.8339  157.1001 H   0  0  0  0  0  0  0  0  0  0  0  0  # atno 11005 bound_to 11000
  146.0620  140.7960  142.9730 LP  0  0  0  0  0  0  0  0  0  0  0  0  # atno 17320 bound_to 7965
  144.6915  140.3212  143.7232 LP  0  0  0  0  0  0  0  0  0  0  0  0  # atno 17321 bound_to 7965
  139.5790  144.1753  152.1942 LP  0  0  0  0  0  0  0  0  0  0  0  0  # atno 17342 bound_to 10162
  140.1072  144.5488  150.6949 LP  0  0  0  0  0  0  0  0  0  0  0  0  # atno 17343 bound_to 10162
  157.6457  130.8842  149.9533 LP  0  0  0  0  0  0  0  0  0  0  0  0  # atno 17370 bound_to 10713
  156.0989  130.3657  150.0255 LP  0  0  0  0  0  0  0  0  0  0  0  0  # atno 17371 bound_to 10713
  140.0339  134.9888  157.0833 LP  0  0  0  0  0  0  0  0  0  0  0  0  # atno 17394 bound_to 11000
  140.4242  134.1848  155.7165 LP  0  0  0  0  0  0  0  0  0  0  0  0  # atno 17395 bound_to 11000

$$$$
