AV-unprocessed.smi:1662|AV-procd|sdf|6658|dock8
  -GOLD-   22720 7363D 1   1.00000     0.00000
 Structure written by MMmdl.
 47 48  0  0  0  0  0  0  0  0  1 V2000
  152.5918  143.5190  162.4180 C   0  0  0  0  0  0  0  0  0  0  0  0
  152.4581  142.7899  161.1082 C   0  0  0  0  0  0  0  0  0  0  0  0
  151.5337  143.2047  160.3057 N   0  0  0  0  0  0  0  0  0  0  0  0
  151.3219  142.6035  159.0802 N   0  0  0  0  0  0  0  0  0  0  0  0
  150.2195  143.1915  158.3050 C   0  0  0  0  0  0  0  0  0  0  0  0
  149.2667  142.1397  157.7193 C   0  0  0  0  0  0  0  0  0  0  0  0
  148.8402  141.2195  158.4181 O   0  0  0  0  0  0  0  0  0  0  0  0
  148.9339  142.3002  156.4296 N   0  0  0  0  0  0  0  0  0  0  0  0
  148.0716  141.4056  155.6608 C   0  0  1  0  0  0  0  0  0  0  0  0
  147.8219  141.9984  154.2606 C   0  0  0  0  0  0  0  0  0  0  0  0
  146.8912  141.0993  153.4332 C   0  0  0  0  0  0  0  0  0  0  0  0
  147.4251  139.6609  153.3475 C   0  0  0  0  0  0  0  0  0  0  0  0
  147.6825  139.0699  154.7484 C   0  0  1  0  0  0  0  0  0  0  0  0
  148.1200  137.5974  154.6752 C   0  0  0  0  0  0  0  0  0  0  0  0
  148.6433  139.9625  155.5789 C   0  0  1  0  0  0  0  0  0  0  0  0
  150.1103  139.9149  155.0903 C   0  0  0  0  0  0  0  0  0  0  0  0
  152.0443  141.5522  158.5954 C   0  0  0  0  0  0  0  0  0  0  0  0
  151.8258  141.0516  157.4909 O   0  0  0  0  0  0  0  0  0  0  0  0
  153.0894  141.0873  159.5100 C   0  0  0  0  0  0  0  0  0  0  0  0
  153.8641  139.9824  159.0449 C   0  0  0  0  0  0  0  0  0  0  0  0
  154.4976  139.0972  158.6508 N   0  0  0  0  0  0  0  0  0  0  0  0
  153.3052  141.6674  160.7173 C   0  0  0  0  0  0  0  0  0  0  0  0
  154.3774  141.2220  161.7022 C   0  0  0  0  0  0  0  0  0  0  0  0
  153.5437  144.0474  162.4697 H   0  0  0  0  0  0  0  0  0  0  0  0
  152.5438  142.8243  163.2564 H   0  0  0  0  0  0  0  0  0  0  0  0
  151.7978  144.2539  162.5571 H   0  0  0  0  0  0  0  0  0  0  0  0
  149.6321  143.8668  158.9297 H   0  0  0  0  0  0  0  0  0  0  0  0
  150.6234  143.8122  157.5026 H   0  0  0  0  0  0  0  0  0  0  0  0
  149.3257  143.0881  155.9347 H   0  0  0  0  0  0  0  0  0  0  0  0
  147.1049  141.3602  156.1667 H   0  0  0  0  0  0  0  0  0  0  0  0
  147.3793  142.9912  154.3504 H   0  0  0  0  0  0  0  0  0  0  0  0
  148.7663  142.1325  153.7320 H   0  0  0  0  0  0  0  0  0  0  0  0
  145.8987  141.0917  153.8855 H   0  0  0  0  0  0  0  0  0  0  0  0
  146.7694  141.5115  152.4312 H   0  0  0  0  0  0  0  0  0  0  0  0
  146.7056  139.0420  152.8102 H   0  0  0  0  0  0  0  0  0  0  0  0
  148.3413  139.6428  152.7566 H   0  0  0  0  0  0  0  0  0  0  0  0
  146.7251  139.0717  155.2720 H   0  0  0  0  0  0  0  0  0  0  0  0
  149.0219  137.4707  154.0761 H   0  0  0  0  0  0  0  0  0  0  0  0
  147.3415  136.9839  154.2212 H   0  0  0  0  0  0  0  0  0  0  0  0
  148.3160  137.1949  155.6695 H   0  0  0  0  0  0  0  0  0  0  0  0
  148.6494  139.5606  156.5932 H   0  0  0  0  0  0  0  0  0  0  0  0
  150.2145  140.2750  154.0673 H   0  0  0  0  0  0  0  0  0  0  0  0
  150.5100  138.9021  155.1254 H   0  0  0  0  0  0  0  0  0  0  0  0
  150.7626  140.5207  155.7192 H   0  0  0  0  0  0  0  0  0  0  0  0
  155.0188  140.4435  161.2900 H   0  0  0  0  0  0  0  0  0  0  0  0
  153.9193  140.8256  162.6091 H   0  0  0  0  0  0  0  0  0  0  0  0
  155.0198  142.0589  161.9783 H   0  0  0  0  0  0  0  0  0  0  0  0
  1  2  1  0  0  0  0
  1 24  1  0  0  0  0
  1 25  1  0  0  0  0
  1 26  1  0  0  0  0
  2 22  1  0  0  0  0
  2  3  2  0  0  0  0
  3  4  1  0  0  0  0
  4  5  1  0  0  0  0
  4 17  1  0  0  0  0
  5  6  1  0  0  0  0
  5 27  1  0  0  0  0
  5 28  1  0  0  0  0
  6  7  2  0  0  0  0
  6  8  1  0  0  0  0
  8  9  1  0  0  0  0
  8 29  1  0  0  0  0
  9 15  1  0  0  0  0
  9 10  1  0  0  0  0
  9 30  1  0  0  0  0
 10 11  1  0  0  0  0
 10 31  1  0  0  0  0
 10 32  1  0  0  0  0
 11 12  1  0  0  0  0
 11 33  1  0  0  0  0
 11 34  1  0  0  0  0
 12 13  1  0  0  0  0
 12 35  1  0  0  0  0
 12 36  1  0  0  0  0
 13 14  1  0  0  0  0
 13 15  1  0  0  0  0
 13 37  1  0  0  0  0
 14 38  1  0  0  0  0
 14 39  1  0  0  0  0
 14 40  1  0  0  0  0
 15 16  1  0  0  0  0
 15 41  1  0  0  0  0
 16 42  1  0  0  0  0
 16 43  1  0  0  0  0
 16 44  1  0  0  0  0
 17 18  2  0  0  0  0
 17 19  1  0  0  0  0
 19 20  1  0  0  0  0
 19 22  2  0  0  0  0
 20 21  3  0  0  0  0
 22 23  1  0  0  0  0
 23 45  1  0  0  0  0
 23 46  1  0  0  0  0
 23 47  1  0  0  0  0
M  END
> <s_m_source_file>
AV-unprocessed.smi

> <i_m_source_file_index>
1662

> <i_lp_mmshare_version>
43012

> <i_f3d_flags>
0

> <s_epik_input>
TiNDYyhjMVtDSDNdKWMoPU8pbihuYzFbQ0gzXSlbQ0gyXUMoPU8pW05IXVtDQEBIXTJbQ0gyXVtDSDJdW0NIMl1bQ0BASF0oW0NIM10pW0NASF0yW0NIM10=

> <s_epik_cmdline>
J2VwaWtfcHl0aG9uJywgJy1waCcsICc3LjAnLCAnLXRuJywgJzgnLCAnLW1hJywgJzIwMCcsICctbWV0YWxfYmluZGluZycsICctaW1hZScsICc8aW5maWxlLm1hZT4nLCAnLW9tYWUnLCAnPG91dGZpbGUubWFlPic=

> <r_lp_tautomer_probability>
1

> <r_epik_Ionization_Penalty>
1.90709e-08

> <r_epik_Ionization_Penalty_Charging>
2.37982e-11

> <r_epik_Ionization_Penalty_Neutral>
1.90471e-08

> <r_epik_State_Penalty>
-0

> <r_epik_Charging_Adjusted_Penalty>
2.37982e-11

> <i_epik_Tot_Q>
0

> <i_epik_Tot_abs_Q>
0

> <r_epik_Metal_State_Penalty>
-0

> <b_epik_Metal_Only>
0

> <s_lp_Force_Field>
OPLS_2005

> <r_lp_Energy>
29.2459

> <b_lp_Chiralities_Consistent>
1

> <s_lp_Variant>
AV-unprocessed.smi:1662-2

> <Gold.Version>
5.8.1

> <Gold.Id.Protein>
6NUR|6NUR_protein|mol2

> <Gold.PLP.Fitness>
42.6182

> <Gold.PLP.PLP>
-38.7690

> <Gold.PLP.part.hbond>
-3.1780

> <Gold.PLP.part.metal>
0.0000

> <Gold.PLP.part.buried>
-0.6255

> <Gold.PLP.part.nonpolar>
-35.1346

> <Gold.PLP.part.repulsive>
0.1260

> <Gold.PLP.ligand.clash>
0.0000

> <Gold.PLP.ligand.torsion>
0.3137

> <Gold.PLP.Chemscore.Hbond>
1.4880

> <Gold.PLP.Chemscore.CHOScore>
0.0000

> <Gold.PLP.Chemscore.Metal>
0.0000

> <Gold.Chemscore.Hbonds>
donor molecule, donor type, donor heavy atom, donor atom, acceptor molecule, acceptor atom, score
      L1  H     8    29       P1  8028  0.72
      P1  H  7997  8009       L1    21  0.79

> <Gold.PLP.Chemscore.Internal.Correction>
0.0127

> <Gold.Rescore>
     Score         DG    S(hbond)    S(metal)    S(lipo)     H(rot)  DE(clash)    DE(int)     intcor
     15.56     -18.00       1.34        0.00     100.56       1.45       0.77       1.67       ----

> <Gold.Chemscore.Fitness>
15.5608

> <Gold.Chemscore.DG>
-18.0028

> <Gold.Chemscore.ZeroCoef>
-5.4800

> <Gold.Chemscore.Hbond>
1.3383

> <Gold.Chemscore.Metal>
0.0000

> <Gold.Chemscore.Lipo>
100.5621

> <Gold.Chemscore.Internal_Hbond>
0.0000

> <Gold.Chemscore.DEClash>
0.7697

> <Gold.Chemscore.DEInternal>
1.6724

> <Gold.Chemscore.Rot>
1.4504

> <Gold.Chemscore.Internal.Correction>
   9.000000E+99

> <Gold.Chemscore.Hbonds>
donor molecule, donor type, donor heavy atom, donor atom, acceptor molecule, acceptor atom, score
      L1  H     8    29       P1  8028  0.72
      P1  H  7997  8009       L1    21  0.11

> <Gold.Chemscore.Hbond.Weighted>
-4.4699

> <Gold.Chemscore.Metal.Weighted>
-0.0000

> <Gold.Chemscore.Lipo.Weighted>
-11.7658

> <Gold.Chemscore.Internal_Hbond.Weighted>
0.0000

> <Gold.Chemscore.DEClash.Weighted>
0.7697

> <Gold.Chemscore.DEInternal.Weighted>
1.6724

> <Gold.Chemscore.Rot.Weighted>
3.7129

> <Gold.Chemscore.Internal.Correction.Weighted>
   9.000000E+99

> <Gold.Protein.RotatedTorsions>
[ 6907 6896 6895 6894 ] final   20.32 input  -60.11 | X-H torsion
[ 7974 7965 7964 7962 ] final   -5.92 input  175.53 | X-H torsion
[ 8008 7997 7996 7995 ] final  105.89 input   59.86 | X-H torsion
[ 10167 10162 10161 10158 ] final  154.92 input  -65.29 | X-H torsion
[ 10718 10713 10712 10709 ] final   56.74 input   66.30 | X-H torsion
[ 10763 10752 10751 10750 ] final -158.82 input  -60.55 | X-H torsion
[ 11005 11000 10999 10996 ] final   66.23 input  -57.11 | X-H torsion

> <Gold.Protein.ActiveResidues>
 VAL166  LYS551  ARG553  GLY616  TRP617  ASP618  TYR619  PRO620  LYS621  CYS622 
 ASP623  PHE694  ASN695  SER759  ASP760  ASP761  ALA762  ILE779  LEU786  VAL792 
 PHE793  MET794  SER795  GLU796  ALA797  LYS798  CYS799  TRP800  GLU811  SER814 

> <Gold.Protein.RotatedAtoms>
  151.8946  135.0403  160.0500 H   0  0  0  0  0  0  0  0  0  0  0  0  # atno 6907 bound_to 6896
  152.2408  133.5129  159.5277 H   0  0  0  0  0  0  0  0  0  0  0  0  # atno 6908 bound_to 6896
  150.7053  134.1008  159.4007 H   0  0  0  0  0  0  0  0  0  0  0  0  # atno 6909 bound_to 6896
  146.2342  140.2093  142.8335 H   0  0  0  0  0  0  0  0  0  0  0  0  # atno 7974 bound_to 7965
  156.1697  140.3122  155.8951 H   0  0  0  0  0  0  0  0  0  0  0  0  # atno 8008 bound_to 7997
  155.3613  140.0476  157.3063 H   0  0  0  0  0  0  0  0  0  0  0  0  # atno 8009 bound_to 7997
  154.5228  140.2204  155.8955 H   0  0  0  0  0  0  0  0  0  0  0  0  # atno 8010 bound_to 7997
  139.4822  144.5144  151.7975 H   0  0  0  0  0  0  0  0  0  0  0  0  # atno 10167 bound_to 10162
  157.5456  130.8728  149.8886 H   0  0  0  0  0  0  0  0  0  0  0  0  # atno 10718 bound_to 10713
  154.7525  135.3096  154.8531 H   0  0  0  0  0  0  0  0  0  0  0  0  # atno 10763 bound_to 10752
  153.9314  135.6785  153.4749 H   0  0  0  0  0  0  0  0  0  0  0  0  # atno 10764 bound_to 10752
  153.1121  135.4861  154.8982 H   0  0  0  0  0  0  0  0  0  0  0  0  # atno 10765 bound_to 10752
  139.9845  134.6691  156.0202 H   0  0  0  0  0  0  0  0  0  0  0  0  # atno 11005 bound_to 11000
  144.9720  140.8377  143.5450 LP  0  0  0  0  0  0  0  0  0  0  0  0  # atno 17320 bound_to 7965
  145.2075  139.2221  143.5160 LP  0  0  0  0  0  0  0  0  0  0  0  0  # atno 17321 bound_to 7965
  140.4650  144.1667  150.5911 LP  0  0  0  0  0  0  0  0  0  0  0  0  # atno 17342 bound_to 10162
  140.4443  143.2513  151.9431 LP  0  0  0  0  0  0  0  0  0  0  0  0  # atno 17343 bound_to 10162
  156.0533  130.3713  150.1150 LP  0  0  0  0  0  0  0  0  0  0  0  0  # atno 17370 bound_to 10713
  156.9327  130.9719  151.3530 LP  0  0  0  0  0  0  0  0  0  0  0  0  # atno 17371 bound_to 10713
  141.1512  133.6548  156.4019 LP  0  0  0  0  0  0  0  0  0  0  0  0  # atno 17394 bound_to 11000
  140.5031  134.6467  157.5256 LP  0  0  0  0  0  0  0  0  0  0  0  0  # atno 17395 bound_to 11000

$$$$
