AV-unprocessed.smi:2602|AV-procd|sdf|10184|dock10
  -GOLD-   2272014203D 1   1.00000     0.00000
 Structure written by MMmdl.
 46 47  0  0  0  0  0  0  0  0  1 V2000
  152.3063  140.4021  157.8620 C   0  0  0  0  0  0  0  0  0  0  0  0
  152.5162  139.7138  156.6321 O   0  0  0  0  0  0  0  0  0  0  0  0
  151.4612  139.1037  156.0428 C   0  0  0  0  0  0  0  0  0  0  0  0
  151.1584  139.5722  154.8312 N   0  0  0  0  0  0  0  0  0  0  0  0
  150.1108  138.9989  154.2036 C   0  0  0  0  0  0  0  0  0  0  0  0
  149.3698  137.9553  154.7942 C   0  0  0  0  0  0  0  0  0  0  0  0
  149.7689  137.5265  156.0796 C   0  0  0  0  0  0  0  0  0  0  0  0
  149.0031  136.4757  156.6495 N   0  0  0  0  0  0  0  0  0  0  0  0
  149.1579  135.9006  157.8548 C   0  0  0  0  0  0  0  0  0  0  0  0
  150.0367  136.1838  158.6693 O   0  0  0  0  0  0  0  0  0  0  0  0
  148.2182  134.9683  158.0712 N   0  0  0  0  0  0  0  0  0  0  0  0
  148.0589  134.1792  159.2935 C   0  0  0  0  0  0  0  0  0  0  0  0
  147.1697  134.8893  160.3612 C   0  0  0  0  0  0  0  0  0  0  0  0
  145.7399  135.2267  159.8173 C   0  0  0  0  0  0  0  0  0  0  0  0
  145.3816  136.4073  159.8254 O   0  0  0  0  0  0  0  0  0  0  0  0
  144.8867  134.2664  159.3676 N   0  0  0  0  0  0  0  0  0  0  0  0
  145.3417  132.8738  159.2987 C   0  0  0  0  0  0  0  0  0  0  0  0
  143.5071  134.4307  158.8981 C   0  0  0  0  0  0  0  0  0  0  0  0
  147.0928  133.9654  161.6097 C   0  0  0  0  0  0  0  0  0  0  0  0
  146.7796  134.8553  162.8166 C   0  0  0  0  0  0  0  0  0  0  0  0
  147.2819  136.2492  162.4356 C   0  0  0  0  0  0  0  0  0  0  0  0
  147.8332  136.1316  161.0077 C   0  0  0  0  0  0  0  0  0  0  0  0
  150.8243  138.1182  156.6908 N   0  0  0  0  0  0  0  0  0  0  0  0
  153.2479  140.8367  158.1972 H   0  0  0  0  0  0  0  0  0  0  0  0
  151.9569  139.7259  158.6440 H   0  0  0  0  0  0  0  0  0  0  0  0
  151.5892  141.2164  157.7472 H   0  0  0  0  0  0  0  0  0  0  0  0
  149.8602  139.3749  153.2227 H   0  0  0  0  0  0  0  0  0  0  0  0
  148.5328  137.5079  154.2785 H   0  0  0  0  0  0  0  0  0  0  0  0
  148.2421  136.1340  156.0816 H   0  0  0  0  0  0  0  0  0  0  0  0
  147.5399  134.8055  157.3415 H   0  0  0  0  0  0  0  0  0  0  0  0
  147.5898  133.2404  158.9979 H   0  0  0  0  0  0  0  0  0  0  0  0
  149.0293  133.8783  159.6805 H   0  0  0  0  0  0  0  0  0  0  0  0
  146.2451  132.7917  158.6920 H   0  0  0  0  0  0  0  0  0  0  0  0
  144.5973  132.2132  158.8520 H   0  0  0  0  0  0  0  0  0  0  0  0
  145.5627  132.4921  160.2965 H   0  0  0  0  0  0  0  0  0  0  0  0
  143.0531  135.3951  159.0973 H   0  0  0  0  0  0  0  0  0  0  0  0
  142.8615  133.6901  159.3715 H   0  0  0  0  0  0  0  0  0  0  0  0
  143.4612  134.2658  157.8214 H   0  0  0  0  0  0  0  0  0  0  0  0
  146.3815  133.1442  161.5111 H   0  0  0  0  0  0  0  0  0  0  0  0
  148.0633  133.4971  161.7815 H   0  0  0  0  0  0  0  0  0  0  0  0
  145.7049  134.8846  162.9997 H   0  0  0  0  0  0  0  0  0  0  0  0
  147.2549  134.4810  163.7239 H   0  0  0  0  0  0  0  0  0  0  0  0
  146.4543  136.9590  162.4645 H   0  0  0  0  0  0  0  0  0  0  0  0
  148.0450  136.6103  163.1258 H   0  0  0  0  0  0  0  0  0  0  0  0
  148.9134  135.9866  161.0533 H   0  0  0  0  0  0  0  0  0  0  0  0
  147.6684  137.0680  160.4792 H   0  0  0  0  0  0  0  0  0  0  0  0
  1  2  1  0  0  0  0
  1 24  1  0  0  0  0
  1 25  1  0  0  0  0
  1 26  1  0  0  0  0
  2  3  1  0  0  0  0
  3 23  1  0  0  0  0
  3  4  2  0  0  0  0
  4  5  1  0  0  0  0
  5  6  2  0  0  0  0
  5 27  1  0  0  0  0
  6  7  1  0  0  0  0
  6 28  1  0  0  0  0
  7  8  1  0  0  0  0
  7 23  2  0  0  0  0
  8  9  1  0  0  0  0
  8 29  1  0  0  0  0
  9 10  2  0  0  0  0
  9 11  1  0  0  0  0
 11 12  1  0  0  0  0
 11 30  1  0  0  0  0
 12 13  1  0  0  0  0
 12 31  1  0  0  0  0
 12 32  1  0  0  0  0
 13 22  1  0  0  0  0
 13 14  1  0  0  0  0
 13 19  1  0  0  0  0
 14 15  2  0  0  0  0
 14 16  1  0  0  0  0
 16 17  1  0  0  0  0
 16 18  1  0  0  0  0
 17 33  1  0  0  0  0
 17 34  1  0  0  0  0
 17 35  1  0  0  0  0
 18 36  1  0  0  0  0
 18 37  1  0  0  0  0
 18 38  1  0  0  0  0
 19 20  1  0  0  0  0
 19 39  1  0  0  0  0
 19 40  1  0  0  0  0
 20 21  1  0  0  0  0
 20 41  1  0  0  0  0
 20 42  1  0  0  0  0
 21 22  1  0  0  0  0
 21 43  1  0  0  0  0
 21 44  1  0  0  0  0
 22 45  1  0  0  0  0
 22 46  1  0  0  0  0
M  END
> <s_m_source_file>
AV-unprocessed.smi

> <i_m_source_file_index>
2602

> <i_lp_mmshare_version>
43012

> <i_f3d_flags>
0

> <s_epik_input>
W0NIM11PYzFuW2NIXVtjSF1jKG4xKVtOSF1DKD1PKVtOSF1bQ0gyXUMyKEMoPU8pTihbQ0gzXSlbQ0gzXSlbQ0gyXVtDSDJdW0NIMl1bQ0gyXTI=

> <s_epik_cmdline>
J2VwaWtfcHl0aG9uJywgJy1waCcsICc3LjAnLCAnLXRuJywgJzgnLCAnLW1hJywgJzIwMCcsICctbWV0YWxfYmluZGluZycsICctaW1hZScsICc8aW5maWxlLm1hZT4nLCAnLW9tYWUnLCAnPG91dGZpbGUubWFlPic=

> <r_lp_tautomer_probability>
1

> <r_epik_Ionization_Penalty>
0.00154328

> <r_epik_Ionization_Penalty_Charging>
0

> <r_epik_Ionization_Penalty_Neutral>
0.00154328

> <r_epik_State_Penalty>
-0

> <r_epik_Charging_Adjusted_Penalty>
0

> <i_epik_Tot_Q>
0

> <i_epik_Tot_abs_Q>
0

> <r_epik_Metal_State_Penalty>
-0

> <b_epik_Metal_Only>
0

> <s_lp_Force_Field>
OPLS_2005

> <r_lp_Energy>
36.1441

> <b_lp_Chiralities_Consistent>
1

> <s_lp_Variant>
AV-unprocessed.smi:2602-1

> <Gold.Version>
5.8.1

> <Gold.Id.Protein>
6NUR|6NUR_protein|mol2

> <Gold.PLP.Fitness>
40.7377

> <Gold.PLP.PLP>
-29.1279

> <Gold.PLP.part.hbond>
-3.0000

> <Gold.PLP.part.metal>
0.0000

> <Gold.PLP.part.buried>
-2.8160

> <Gold.PLP.part.nonpolar>
-22.3329

> <Gold.PLP.part.repulsive>
0.1571

> <Gold.PLP.ligand.clash>
0.0000

> <Gold.PLP.ligand.torsion>
0.2897

> <Gold.PLP.Chemscore.Hbond>
3.0000

> <Gold.PLP.Chemscore.CHOScore>
1.0000

> <Gold.PLP.Chemscore.Metal>
0.0000

> <Gold.Chemscore.Hbonds>
donor molecule, donor type, donor heavy atom, donor atom, acceptor molecule, acceptor atom, score
      P1  H  6896  6909       L1    10  1.00
      P1  H  7989  7998       L1     4  0.95
      P1  H  7997  8008       L1     2  1.00
      L1  C     5    27       P1  7957  1.00

> <Gold.PLP.Chemscore.Internal.Correction>
0.1892

> <Gold.Rescore>
     Score         DG    S(hbond)    S(metal)    S(lipo)     H(rot)  DE(clash)    DE(int)     intcor
     11.51     -14.36       1.90        0.00      63.43       1.91       0.01       2.84       ----

> <Gold.Chemscore.Fitness>
11.5097

> <Gold.Chemscore.DG>
-14.3588

> <Gold.Chemscore.ZeroCoef>
-5.4800

> <Gold.Chemscore.Hbond>
1.8983

> <Gold.Chemscore.Metal>
0.0000

> <Gold.Chemscore.Lipo>
63.4264

> <Gold.Chemscore.Internal_Hbond>
0.0000

> <Gold.Chemscore.DEClash>
0.0059

> <Gold.Chemscore.DEInternal>
2.8432

> <Gold.Chemscore.Rot>
1.9072

> <Gold.Chemscore.Internal.Correction>
   9.000000E+99

> <Gold.Chemscore.Hbonds>
donor molecule, donor type, donor heavy atom, donor atom, acceptor molecule, acceptor atom, score
      P1  H  6896  6909       L1    10  0.93
      P1  H  7989  7998       L1     4  0.21
      P1  H  7997  8008       L1     2  0.30

> <Gold.Chemscore.Hbond.Weighted>
-6.3403

> <Gold.Chemscore.Metal.Weighted>
-0.0000

> <Gold.Chemscore.Lipo.Weighted>
-7.4209

> <Gold.Chemscore.Internal_Hbond.Weighted>
0.0000

> <Gold.Chemscore.DEClash.Weighted>
0.0059

> <Gold.Chemscore.DEInternal.Weighted>
2.8432

> <Gold.Chemscore.Rot.Weighted>
4.8824

> <Gold.Chemscore.Internal.Correction.Weighted>
   9.000000E+99

> <Gold.Protein.RotatedTorsions>
[ 6907 6896 6895 6894 ] final   62.21 input  -60.11 | X-H torsion
[ 7974 7965 7964 7962 ] final  -35.79 input  175.53 | X-H torsion
[ 8008 7997 7996 7995 ] final  -38.10 input   59.86 | X-H torsion
[ 10167 10162 10161 10158 ] final   -4.95 input  -65.29 | X-H torsion
[ 10718 10713 10712 10709 ] final   36.96 input   66.30 | X-H torsion
[ 10763 10752 10751 10750 ] final   40.40 input  -60.55 | X-H torsion
[ 11005 11000 10999 10996 ] final   14.77 input  -57.11 | X-H torsion

> <Gold.Protein.ActiveResidues>
 VAL166  LYS551  ARG553  GLY616  TRP617  ASP618  TYR619  PRO620  LYS621  CYS622 
 ASP623  PHE694  ASN695  SER759  ASP760  ASP761  ALA762  ILE779  LEU786  VAL792 
 PHE793  MET794  SER795  GLU796  ALA797  LYS798  CYS799  TRP800  GLU811  SER814 

> <Gold.Protein.RotatedAtoms>
  152.4153  134.6051  160.0010 H   0  0  0  0  0  0  0  0  0  0  0  0  # atno 6907 bound_to 6896
  151.6217  133.3333  159.3097 H   0  0  0  0  0  0  0  0  0  0  0  0  # atno 6908 bound_to 6896
  150.8042  134.7196  159.6695 H   0  0  0  0  0  0  0  0  0  0  0  0  # atno 6909 bound_to 6896
  146.0717  140.6201  142.8949 H   0  0  0  0  0  0  0  0  0  0  0  0  # atno 7974 bound_to 7965
  154.4042  140.1587  156.2644 H   0  0  0  0  0  0  0  0  0  0  0  0  # atno 8008 bound_to 7997
  155.9008  140.3433  155.6002 H   0  0  0  0  0  0  0  0  0  0  0  0  # atno 8009 bound_to 7997
  155.7450  140.0797  157.2218 H   0  0  0  0  0  0  0  0  0  0  0  0  # atno 8010 bound_to 7997
  140.6946  143.6364  150.8475 H   0  0  0  0  0  0  0  0  0  0  0  0  # atno 10167 bound_to 10162
  157.3412  130.7549  149.6913 H   0  0  0  0  0  0  0  0  0  0  0  0  # atno 10718 bound_to 10713
  152.9937  135.6192  154.2620 H   0  0  0  0  0  0  0  0  0  0  0  0  # atno 10763 bound_to 10752
  154.2356  135.2790  155.2875 H   0  0  0  0  0  0  0  0  0  0  0  0  # atno 10764 bound_to 10752
  154.5413  135.5760  153.6899 H   0  0  0  0  0  0  0  0  0  0  0  0  # atno 10765 bound_to 10752
  140.4658  134.1081  155.7724 H   0  0  0  0  0  0  0  0  0  0  0  0  # atno 11005 bound_to 11000
  144.7235  140.4452  143.6990 LP  0  0  0  0  0  0  0  0  0  0  0  0  # atno 17320 bound_to 7965
  145.6380  139.1546  143.2932 LP  0  0  0  0  0  0  0  0  0  0  0  0  # atno 17321 bound_to 7965
  140.0081  143.5672  152.2850 LP  0  0  0  0  0  0  0  0  0  0  0  0  # atno 17342 bound_to 10162
  139.6386  144.7652  151.2386 LP  0  0  0  0  0  0  0  0  0  0  0  0  # atno 17343 bound_to 10162
  155.9708  130.4167  150.4243 LP  0  0  0  0  0  0  0  0  0  0  0  0  # atno 17370 bound_to 10713
  157.2291  131.0500  151.2502 LP  0  0  0  0  0  0  0  0  0  0  0  0  # atno 17371 bound_to 10713
  141.1600  133.8810  157.1873 LP  0  0  0  0  0  0  0  0  0  0  0  0  # atno 17394 bound_to 11000
  139.9916  135.0062  156.9989 LP  0  0  0  0  0  0  0  0  0  0  0  0  # atno 17395 bound_to 11000

$$$$
