AV-unprocessed.smi:1204|AV-procd|sdf|5038|dock3
  -GOLD-   22720 4 63D 1   1.00000     0.00000
 Structure written by MMmdl.
 27 28  0  0  0  0  0  0  0  0  1 V2000
  152.6614  140.0735  157.9863 O   0  0  0  0  0  0  0  0  0  0  0  0
  151.9556  141.0073  157.6026 C   0  0  0  0  0  0  0  0  0  0  0  0
  151.6883  142.1071  158.3329 N   0  0  0  0  0  0  0  0  0  0  0  0
  152.1098  142.4149  159.6537 C   0  0  0  0  0  0  0  0  0  0  0  0
  153.2520  141.7105  160.0971 C   0  0  0  0  0  0  0  0  0  0  0  0
  153.7521  141.9457  161.3927 C   0  0  0  0  0  0  0  0  0  0  0  0
  153.0964  142.8813  162.2127 C   0  0  0  0  0  0  0  0  0  0  0  0
  151.9657  143.5390  161.6945 C   0  0  0  0  0  0  0  0  0  0  0  0
  151.4844  143.3146  160.4535 N   0  0  0  0  0  0  0  0  0  0  0  0
  151.3361  140.9800  156.1976 C   0  0  1  0  0  0  0  0  0  0  0  0
  151.4307  139.5943  155.5168 C   0  0  0  0  0  0  0  0  0  0  0  0
  150.7992  139.6514  154.2440 O   0  0  0  0  0  0  0  0  0  0  0  0
  149.4295  140.0095  154.3610 C   0  0  0  0  0  0  0  0  0  0  0  0
  149.3312  141.3918  155.0266 C   0  0  0  0  0  0  0  0  0  0  0  0
  149.9602  141.3397  156.3001 O   0  0  0  0  0  0  0  0  0  0  0  0
  151.1043  142.8009  157.8895 H   0  0  0  0  0  0  0  0  0  0  0  0
  153.7438  140.9953  159.4535 H   0  0  0  0  0  0  0  0  0  0  0  0
  154.6235  141.4174  161.7502 H   0  0  0  0  0  0  0  0  0  0  0  0
  153.4497  143.0891  163.2117 H   0  0  0  0  0  0  0  0  0  0  0  0
  151.4331  144.2643  162.2916 H   0  0  0  0  0  0  0  0  0  0  0  0
  151.8589  141.7225  155.5921 H   0  0  0  0  0  0  0  0  0  0  0  0
  152.4724  139.3073  155.3688 H   0  0  0  0  0  0  0  0  0  0  0  0
  150.9660  138.8186  156.1284 H   0  0  0  0  0  0  0  0  0  0  0  0
  148.9811  140.0342  153.3676 H   0  0  0  0  0  0  0  0  0  0  0  0
  148.8900  139.2581  154.9397 H   0  0  0  0  0  0  0  0  0  0  0  0
  149.7995  142.1575  154.4062 H   0  0  0  0  0  0  0  0  0  0  0  0
  148.2871  141.6768  155.1564 H   0  0  0  0  0  0  0  0  0  0  0  0
  1  2  2  0  0  0  0
  2  3  1  0  0  0  0
  2 10  1  0  0  0  0
  3  4  1  0  0  0  0
  3 16  1  0  0  0  0
  4  9  1  0  0  0  0
  4  5  2  0  0  0  0
  5  6  1  0  0  0  0
  5 17  1  0  0  0  0
  6  7  2  0  0  0  0
  6 18  1  0  0  0  0
  7  8  1  0  0  0  0
  7 19  1  0  0  0  0
  8  9  2  0  0  0  0
  8 20  1  0  0  0  0
 10 15  1  0  0  0  0
 10 11  1  0  0  0  0
 10 21  1  0  0  0  0
 11 12  1  0  0  0  0
 11 22  1  0  0  0  0
 11 23  1  0  0  0  0
 12 13  1  0  0  0  0
 13 14  1  0  0  0  0
 13 24  1  0  0  0  0
 13 25  1  0  0  0  0
 14 15  1  0  0  0  0
 14 26  1  0  0  0  0
 14 27  1  0  0  0  0
M  END
> <s_m_source_file>
AV-unprocessed.smi

> <i_m_source_file_index>
1204

> <i_lp_mmshare_version>
43012

> <i_f3d_flags>
0

> <s_epik_input>
TzFbQ0gyXVtDSDJdT1tDSDJdW0NASF0xQyg9TylbTkhdYzJbY0hdW2NIXVtjSF1bY0hdbjI=

> <s_epik_cmdline>
J2VwaWtfcHl0aG9uJywgJy1waCcsICc3LjAnLCAnLXRuJywgJzgnLCAnLW1hJywgJzIwMCcsICctbWV0YWxfYmluZGluZycsICctaW1hZScsICc8aW5maWxlLm1hZT4nLCAnLW9tYWUnLCAnPG91dGZpbGUubWFlPic=

> <r_epik_Ionization_Penalty>
0.0014012

> <r_epik_Ionization_Penalty_Charging>
0

> <r_epik_Ionization_Penalty_Neutral>
0.0014012

> <r_epik_State_Penalty>
0.00242437

> <r_epik_Charging_Adjusted_Penalty>
0.00242437

> <i_epik_Tot_Q>
0

> <i_epik_Tot_abs_Q>
0

> <r_epik_Metal_State_Penalty>
-0

> <b_epik_Metal_Only>
0

> <s_lp_Force_Field>
OPLS_2005

> <r_lp_Energy>
11.5738

> <b_lp_Chiralities_Consistent>
1

> <s_lp_Variant>
AV-unprocessed.smi:1204-2

> <Gold.Version>
5.8.1

> <Gold.Id.Protein>
6NUR|6NUR_protein|mol2

> <Gold.PLP.Fitness>
38.0186

> <Gold.PLP.PLP>
-33.6914

> <Gold.PLP.part.hbond>
-2.4923

> <Gold.PLP.part.metal>
0.0000

> <Gold.PLP.part.buried>
-2.9728

> <Gold.PLP.part.nonpolar>
-27.4117

> <Gold.PLP.part.repulsive>
0.3611

> <Gold.PLP.ligand.clash>
0.5203

> <Gold.PLP.ligand.torsion>
0.3691

> <Gold.PLP.Chemscore.Hbond>
1.8613

> <Gold.PLP.Chemscore.CHOScore>
0.0000

> <Gold.PLP.Chemscore.Metal>
0.0000

> <Gold.Chemscore.Hbonds>
donor molecule, donor type, donor heavy atom, donor atom, acceptor molecule, acceptor atom, score
      P1  H  7989  7998       L1    12  1.00
      P1  H  7997  8010       L1     1  0.76

> <Gold.PLP.Chemscore.Internal.Correction>
0.0019

> <Gold.Rescore>
     Score         DG    S(hbond)    S(metal)    S(lipo)     H(rot)  DE(clash)    DE(int)     intcor
     14.55     -16.26       1.41        0.00      73.66       1.00       0.03       1.68       ----

> <Gold.Chemscore.Fitness>
14.5515

> <Gold.Chemscore.DG>
-16.2611

> <Gold.Chemscore.ZeroCoef>
-5.4800

> <Gold.Chemscore.Hbond>
1.4140

> <Gold.Chemscore.Metal>
0.0000

> <Gold.Chemscore.Lipo>
73.6600

> <Gold.Chemscore.Internal_Hbond>
0.0000

> <Gold.Chemscore.DEClash>
0.0277

> <Gold.Chemscore.DEInternal>
1.6819

> <Gold.Chemscore.Rot>
1.0000

> <Gold.Chemscore.Internal.Correction>
   9.000000E+99

> <Gold.Chemscore.Hbonds>
donor molecule, donor type, donor heavy atom, donor atom, acceptor molecule, acceptor atom, score
      P1  H  7989  7998       L1    12  0.29
      P1  H  7997  8010       L1     1  0.51

> <Gold.Chemscore.Hbond.Weighted>
-4.7229

> <Gold.Chemscore.Metal.Weighted>
-0.0000

> <Gold.Chemscore.Lipo.Weighted>
-8.6182

> <Gold.Chemscore.Internal_Hbond.Weighted>
0.0000

> <Gold.Chemscore.DEClash.Weighted>
0.0277

> <Gold.Chemscore.DEInternal.Weighted>
1.6819

> <Gold.Chemscore.Rot.Weighted>
2.5600

> <Gold.Chemscore.Internal.Correction.Weighted>
   9.000000E+99

> <Gold.Protein.RotatedTorsions>
[ 6907 6896 6895 6894 ] final -125.76 input  -60.11 | X-H torsion
[ 7974 7965 7964 7962 ] final  155.12 input  175.53 | X-H torsion
[ 8008 7997 7996 7995 ] final   44.52 input   59.86 | X-H torsion
[ 10167 10162 10161 10158 ] final   62.83 input  -65.29 | X-H torsion
[ 10718 10713 10712 10709 ] final   72.40 input   66.30 | X-H torsion
[ 10763 10752 10751 10750 ] final  150.05 input  -60.55 | X-H torsion
[ 11005 11000 10999 10996 ] final   67.73 input  -57.11 | X-H torsion

> <Gold.Protein.ActiveResidues>
 VAL166  LYS551  ARG553  GLY616  TRP617  ASP618  TYR619  PRO620  LYS621  CYS622 
 ASP623  PHE694  ASN695  SER759  ASP760  ASP761  ALA762  ILE779  LEU786  VAL792 
 PHE793  MET794  SER795  GLU796  ALA797  LYS798  CYS799  TRP800  GLU811  SER814 

> <Gold.Protein.RotatedAtoms>
  150.8900  133.7256  159.2907 H   0  0  0  0  0  0  0  0  0  0  0  0  # atno 6907 bound_to 6896
  151.4809  135.1050  159.9787 H   0  0  0  0  0  0  0  0  0  0  0  0  # atno 6908 bound_to 6896
  152.4814  133.8217  159.7112 H   0  0  0  0  0  0  0  0  0  0  0  0  # atno 6909 bound_to 6896
  144.8045  139.7025  143.6168 H   0  0  0  0  0  0  0  0  0  0  0  0  # atno 7974 bound_to 7965
  155.3206  140.3396  155.4241 H   0  0  0  0  0  0  0  0  0  0  0  0  # atno 8008 bound_to 7997
  156.1911  140.1698  156.8128 H   0  0  0  0  0  0  0  0  0  0  0  0  # atno 8009 bound_to 7997
  154.5443  140.0718  156.8546 H   0  0  0  0  0  0  0  0  0  0  0  0  # atno 8010 bound_to 7997
  140.1397  144.4565  150.6818 H   0  0  0  0  0  0  0  0  0  0  0  0  # atno 10167 bound_to 10162
  157.6499  130.9577  150.0923 H   0  0  0  0  0  0  0  0  0  0  0  0  # atno 10718 bound_to 10713
  154.0812  135.2859  155.3290 H   0  0  0  0  0  0  0  0  0  0  0  0  # atno 10763 bound_to 10752
  154.6682  135.5309  153.8108 H   0  0  0  0  0  0  0  0  0  0  0  0  # atno 10764 bound_to 10752
  153.0448  135.6551  154.0987 H   0  0  0  0  0  0  0  0  0  0  0  0  # atno 10765 bound_to 10752
  139.9753  134.6832  156.0365 H   0  0  0  0  0  0  0  0  0  0  0  0  # atno 11005 bound_to 11000
  146.2333  139.5857  142.9540 LP  0  0  0  0  0  0  0  0  0  0  0  0  # atno 17320 bound_to 7965
  145.5472  141.0416  143.2298 LP  0  0  0  0  0  0  0  0  0  0  0  0  # atno 17321 bound_to 7965
  140.6768  143.2308  151.5487 LP  0  0  0  0  0  0  0  0  0  0  0  0  # atno 17342 bound_to 10162
  139.5478  144.2475  152.1475 LP  0  0  0  0  0  0  0  0  0  0  0  0  # atno 17343 bound_to 10162
  156.1869  130.3652  149.8961 LP  0  0  0  0  0  0  0  0  0  0  0  0  # atno 17370 bound_to 10713
  156.6899  130.8891  151.3587 LP  0  0  0  0  0  0  0  0  0  0  0  0  # atno 17371 bound_to 10713
  141.1431  133.6561  156.3787 LP  0  0  0  0  0  0  0  0  0  0  0  0  # atno 17394 bound_to 11000
  140.5207  134.6307  157.5317 LP  0  0  0  0  0  0  0  0  0  0  0  0  # atno 17395 bound_to 11000

$$$$
