AV-unprocessed.smi:890|AV-procd|sdf|4057|dock4
  -GOLD-   22720 1543D 1   1.00000     0.00000
 Structure written by MMmdl.
 52 55  0  0  0  0  0  0  0  0  2 V2000
  150.1046  134.4581  155.8589 O   0  0  0  0  0  0  0  0  0  0  0  0
  149.7480  134.9242  154.7772 C   0  0  0  0  0  0  0  0  0  0  0  0
  149.0815  134.2556  153.8216 N   0  0  0  0  0  0  0  0  0  0  0  0
  148.6826  132.8879  153.8056 C   0  0  0  0  0  0  0  0  0  0  0  0
  149.2859  131.9060  154.6295 C   0  0  0  0  0  0  0  0  0  0  0  0
  148.8146  130.5823  154.5789 C   0  0  0  0  0  0  0  0  0  0  0  0
  147.7480  130.2864  153.7127 C   0  0  0  0  0  0  0  0  0  0  0  0
  147.1533  131.2116  152.9330 N   0  0  0  0  0  0  0  0  0  0  0  0
  147.5980  132.4915  152.9765 C   0  0  0  0  0  0  0  0  0  0  0  0
  146.9750  133.4304  152.1269 N   0  0  0  0  0  0  0  0  0  0  0  0
  146.1658  132.8184  151.0759 C   0  0  0  0  0  0  0  0  0  0  0  0
  144.9277  133.7020  150.9084 C   0  0  0  0  0  0  0  0  0  0  0  0
  144.7763  134.3489  152.2795 C   0  0  0  0  0  0  0  0  0  0  0  0
  146.2282  134.5431  152.7117 C   0  0  0  0  0  0  0  0  0  0  0  0
  150.0020  136.1850  154.3974 N   0  0  0  0  0  0  0  0  0  0  0  0
  150.7098  137.1777  155.2008 C   0  0  2  0  0  0  0  0  0  0  0  0
  149.8974  137.5037  156.4650 C   0  0  0  0  0  0  0  0  0  0  0  0
  150.5804  138.6039  157.2949 C   0  0  0  0  0  0  0  0  0  0  0  0
  150.7963  139.8277  156.4836 N   0  3  1  0  0  0  0  0  0  0  0  0
  151.3545  140.9383  157.2855 C   0  0  0  0  0  0  0  0  0  0  0  0
  150.3057  141.7902  157.9620 C   0  0  0  0  0  0  0  0  0  0  0  0
  151.0260  142.3070  156.7363 C   0  0  0  0  0  0  0  0  0  0  0  0
  151.6110  139.5498  155.2749 C   0  0  0  0  0  0  0  0  0  0  0  0
  150.9529  138.4711  154.3991 C   0  0  0  0  0  0  0  0  0  0  0  0
  148.9251  134.7548  152.9581 H   0  0  0  0  0  0  0  0  0  0  0  0
  150.0882  132.1442  155.3103 H   0  0  0  0  0  0  0  0  0  0  0  0
  149.2574  129.8134  155.1944 H   0  0  0  0  0  0  0  0  0  0  0  0
  147.3583  129.2815  153.6472 H   0  0  0  0  0  0  0  0  0  0  0  0
  146.7262  132.7414  150.1439 H   0  0  0  0  0  0  0  0  0  0  0  0
  145.8666  131.8106  151.3691 H   0  0  0  0  0  0  0  0  0  0  0  0
  145.1193  134.4707  150.1585 H   0  0  0  0  0  0  0  0  0  0  0  0
  144.0453  133.1409  150.5999 H   0  0  0  0  0  0  0  0  0  0  0  0
  144.2111  135.2809  152.2545 H   0  0  0  0  0  0  0  0  0  0  0  0
  144.2732  133.6619  152.9615 H   0  0  0  0  0  0  0  0  0  0  0  0
  146.3220  134.6324  153.7941 H   0  0  0  0  0  0  0  0  0  0  0  0
  146.6220  135.4659  152.2845 H   0  0  0  0  0  0  0  0  0  0  0  0
  149.6749  136.4808  153.4892 H   0  0  0  0  0  0  0  0  0  0  0  0
  151.6715  136.7614  155.5082 H   0  0  0  0  0  0  0  0  0  0  0  0
  148.8935  137.8303  156.1882 H   0  0  0  0  0  0  0  0  0  0  0  0
  149.7742  136.6067  157.0732 H   0  0  0  0  0  0  0  0  0  0  0  0
  149.9615  138.8433  158.1603 H   0  0  0  0  0  0  0  0  0  0  0  0
  151.5372  138.2466  157.6789 H   0  0  0  0  0  0  0  0  0  0  0  0
  152.3119  140.7524  157.7695 H   0  0  0  0  0  0  0  0  0  0  0  0
  149.2602  141.5097  157.8486 H   0  0  0  0  0  0  0  0  0  0  0  0
  150.5647  142.2404  158.9182 H   0  0  0  0  0  0  0  0  0  0  0  0
  151.7595  143.0969  156.8854 H   0  0  0  0  0  0  0  0  0  0  0  0
  150.4580  142.3690  155.8096 H   0  0  0  0  0  0  0  0  0  0  0  0
  151.7304  140.4660  154.6954 H   0  0  0  0  0  0  0  0  0  0  0  0
  152.6113  139.2317  155.5737 H   0  0  0  0  0  0  0  0  0  0  0  0
  151.5874  138.2687  153.5356 H   0  0  0  0  0  0  0  0  0  0  0  0
  150.0077  138.8486  154.0060 H   0  0  0  0  0  0  0  0  0  0  0  0
  149.8878  140.1301  156.1619 H   0  0  0  0  0  0  0  0  0  0  0  0
  1  2  2  0  0  0  0
  2  3  1  0  0  0  0
  2 15  1  0  0  0  0
  3  4  1  0  0  0  0
  3 25  1  0  0  0  0
  4  9  1  0  0  0  0
  4  5  2  0  0  0  0
  5  6  1  0  0  0  0
  5 26  1  0  0  0  0
  6  7  2  0  0  0  0
  6 27  1  0  0  0  0
  7  8  1  0  0  0  0
  7 28  1  0  0  0  0
  8  9  2  0  0  0  0
  9 10  1  0  0  0  0
 10 14  1  0  0  0  0
 10 11  1  0  0  0  0
 11 12  1  0  0  0  0
 11 29  1  0  0  0  0
 11 30  1  0  0  0  0
 12 13  1  0  0  0  0
 12 31  1  0  0  0  0
 12 32  1  0  0  0  0
 13 14  1  0  0  0  0
 13 33  1  0  0  0  0
 13 34  1  0  0  0  0
 14 35  1  0  0  0  0
 14 36  1  0  0  0  0
 15 16  1  0  0  0  0
 15 37  1  0  0  0  0
 16 24  1  0  0  0  0
 16 17  1  0  0  0  0
 16 38  1  0  0  0  0
 17 18  1  0  0  0  0
 17 39  1  0  0  0  0
 17 40  1  0  0  0  0
 18 19  1  0  0  0  0
 18 41  1  0  0  0  0
 18 42  1  0  0  0  0
 19 20  1  0  0  0  0
 19 23  1  0  0  0  0
 19 52  1  0  0  0  0
 20 22  1  0  0  0  0
 20 21  1  0  0  0  0
 20 43  1  0  0  0  0
 21 22  1  0  0  0  0
 21 44  1  0  0  0  0
 21 45  1  0  0  0  0
 22 46  1  0  0  0  0
 22 47  1  0  0  0  0
 23 24  1  0  0  0  0
 23 48  1  0  0  0  0
 23 49  1  0  0  0  0
 24 50  1  0  0  0  0
 24 51  1  0  0  0  0
M  CHG  1  19   1
M  END
> <s_m_source_file>
AV-unprocessed.smi

> <i_m_source_file_index>
890

> <i_lp_mmshare_version>
43012

> <i_f3d_flags>
0

> <s_epik_input>
W0NIMl0xW0NIMl1bQ0hdMU4oW0NIMl1bQ0gyXTIpW0NIMl1bQ0gyXVtDSF0yW05IXUMoPU8pW05IXWMzW2NIXVtjSF1bY0hdbmMzTjRbQ0gyXVtDSDJdW0NIMl1bQ0gyXTQ=

> <s_epik_cmdline>
J2VwaWtfcHl0aG9uJywgJy1waCcsICc3LjAnLCAnLXRuJywgJzgnLCAnLW1hJywgJzIwMCcsICctbWV0YWxfYmluZGluZycsICctaW1hZScsICc8aW5maWxlLm1hZT4nLCAnLW9tYWUnLCAnPG91dGZpbGUubWFlPic=

> <r_lp_tautomer_probability>
1

> <r_epik_Ionization_Penalty>
0.193768

> <r_epik_Ionization_Penalty_Charging>
0.115549

> <r_epik_Ionization_Penalty_Neutral>
0.078219

> <r_epik_State_Penalty>
0.174811

> <r_epik_Charging_Adjusted_Penalty>
0.29036

> <i_epik_Tot_Q>
1

> <i_epik_Tot_abs_Q>
1

> <r_epik_Metal_State_Penalty>
0.169761

> <b_epik_Metal_Only>
0

> <s_lp_Force_Field>
OPLS_2005

> <r_lp_Energy>
54.8622

> <b_lp_Chiralities_Consistent>
1

> <s_lp_Variant>
AV-unprocessed.smi:890-1

> <Gold.Version>
5.8.1

> <Gold.Id.Protein>
6NUR|6NUR_protein|mol2

> <Gold.PLP.Fitness>
42.1256

> <Gold.PLP.PLP>
-37.7780

> <Gold.PLP.part.hbond>
-2.7090

> <Gold.PLP.part.metal>
0.0000

> <Gold.PLP.part.buried>
-3.8881

> <Gold.PLP.part.nonpolar>
-31.1695

> <Gold.PLP.part.repulsive>
0.4435

> <Gold.PLP.ligand.clash>
0.0000

> <Gold.PLP.ligand.torsion>
0.9972

> <Gold.PLP.Chemscore.Hbond>
1.6500

> <Gold.PLP.Chemscore.CHOScore>
0.0000

> <Gold.PLP.Chemscore.Metal>
0.0000

> <Gold.Chemscore.Hbonds>
donor molecule, donor type, donor heavy atom, donor atom, acceptor molecule, acceptor atom, score
      L1  H     3    25       P1  7948  0.70
      L1  H    15    37       P1  7948  1.00

> <Gold.PLP.Chemscore.Internal.Correction>
1.3920

> <Gold.Rescore>
     Score         DG    S(hbond)    S(metal)    S(lipo)     H(rot)  DE(clash)    DE(int)     intcor
     14.38     -16.70       1.60        0.00      79.48       1.33       0.09       2.23       ----

> <Gold.Chemscore.Fitness>
14.3760

> <Gold.Chemscore.DG>
-16.7031

> <Gold.Chemscore.ZeroCoef>
-5.4800

> <Gold.Chemscore.Hbond>
1.5951

> <Gold.Chemscore.Metal>
0.0000

> <Gold.Chemscore.Lipo>
79.4762

> <Gold.Chemscore.Internal_Hbond>
0.0000

> <Gold.Chemscore.DEClash>
0.0947

> <Gold.Chemscore.DEInternal>
2.2324

> <Gold.Chemscore.Rot>
1.3294

> <Gold.Chemscore.Internal.Correction>
   9.000000E+99

> <Gold.Chemscore.Hbonds>
donor molecule, donor type, donor heavy atom, donor atom, acceptor molecule, acceptor atom, score
      L1  H     3    25       P1  7948  0.07
      L1  H    15    37       P1  7948  0.44

> <Gold.Chemscore.Hbond.Weighted>
-5.3275

> <Gold.Chemscore.Metal.Weighted>
-0.0000

> <Gold.Chemscore.Lipo.Weighted>
-9.2987

> <Gold.Chemscore.Internal_Hbond.Weighted>
0.0000

> <Gold.Chemscore.DEClash.Weighted>
0.0947

> <Gold.Chemscore.DEInternal.Weighted>
2.2324

> <Gold.Chemscore.Rot.Weighted>
3.4032

> <Gold.Chemscore.Internal.Correction.Weighted>
   9.000000E+99

> <Gold.Protein.RotatedTorsions>
[ 6907 6896 6895 6894 ] final  171.27 input  -60.11 | X-H torsion
[ 7974 7965 7964 7962 ] final  101.51 input  175.53 | X-H torsion
[ 8008 7997 7996 7995 ] final  140.24 input   59.86 | X-H torsion
[ 10167 10162 10161 10158 ] final -155.00 input  -65.29 | X-H torsion
[ 10718 10713 10712 10709 ] final   29.64 input   66.30 | X-H torsion
[ 10763 10752 10751 10750 ] final  -94.72 input  -60.55 | X-H torsion
[ 11005 11000 10999 10996 ] final -122.27 input  -57.11 | X-H torsion

> <Gold.Protein.ActiveResidues>
 VAL166  LYS551  ARG553  GLY616  TRP617  ASP618  TYR619  PRO620  LYS621  CYS622 
 ASP623  PHE694  ASN695  SER759  ASP760  ASP761  ALA762  ILE779  LEU786  VAL792 
 PHE793  MET794  SER795  GLU796  ALA797  LYS798  CYS799  TRP800  GLU811  SER814 

> <Gold.Protein.RotatedAtoms>
  151.8029  133.3372  159.3532 H   0  0  0  0  0  0  0  0  0  0  0  0  # atno 6907 bound_to 6896
  150.7352  134.5737  159.5912 H   0  0  0  0  0  0  0  0  0  0  0  0  # atno 6908 bound_to 6896
  152.3130  134.7475  160.0383 H   0  0  0  0  0  0  0  0  0  0  0  0  # atno 6909 bound_to 6896
  145.3713  139.2397  143.3453 H   0  0  0  0  0  0  0  0  0  0  0  0  # atno 7974 bound_to 7965
  156.2981  140.2346  156.4368 H   0  0  0  0  0  0  0  0  0  0  0  0  # atno 8008 bound_to 7997
  154.8221  140.0437  157.1438 H   0  0  0  0  0  0  0  0  0  0  0  0  # atno 8009 bound_to 7997
  154.9303  140.3016  155.5175 H   0  0  0  0  0  0  0  0  0  0  0  0  # atno 8010 bound_to 7997
  139.6967  143.9331  152.2410 H   0  0  0  0  0  0  0  0  0  0  0  0  # atno 10167 bound_to 10162
  157.2492  130.7107  149.6397 H   0  0  0  0  0  0  0  0  0  0  0  0  # atno 10718 bound_to 10713
  154.7081  135.5147  153.8625 H   0  0  0  0  0  0  0  0  0  0  0  0  # atno 10763 bound_to 10752
  153.0758  135.6616  154.0158 H   0  0  0  0  0  0  0  0  0  0  0  0  # atno 10764 bound_to 10752
  154.0005  135.3011  155.3382 H   0  0  0  0  0  0  0  0  0  0  0  0  # atno 10765 bound_to 10752
  141.0008  134.0406  157.3540 H   0  0  0  0  0  0  0  0  0  0  0  0  # atno 11005 bound_to 11000
  146.2884  140.4365  142.8749 LP  0  0  0  0  0  0  0  0  0  0  0  0  # atno 17320 bound_to 7965
  144.8574  140.7090  143.6129 LP  0  0  0  0  0  0  0  0  0  0  0  0  # atno 17321 bound_to 7965
  139.9162  144.6827  150.8510 LP  0  0  0  0  0  0  0  0  0  0  0  0  # atno 17342 bound_to 10162
  140.7698  143.3408  151.2213 LP  0  0  0  0  0  0  0  0  0  0  0  0  # atno 17343 bound_to 10162
  155.9667  130.4433  150.5416 LP  0  0  0  0  0  0  0  0  0  0  0  0  # atno 17370 bound_to 10713
  157.3296  131.0697  151.1871 LP  0  0  0  0  0  0  0  0  0  0  0  0  # atno 17371 bound_to 10713
  139.9037  135.0173  156.7390 LP  0  0  0  0  0  0  0  0  0  0  0  0  # atno 17394 bound_to 11000
  140.6892  133.9405  155.7956 LP  0  0  0  0  0  0  0  0  0  0  0  0  # atno 17395 bound_to 11000

$$$$
