AV-unprocessed.smi:3100|AV-procd|sdf|11804|dock4
  -GOLD-   2272017183D 1   1.00000     0.00000
 Structure written by MMmdl.
 28 29  0  0  0  0  0  0  0  0  1 V2000
  152.1778  144.0170  161.3696 C   0  0  0  0  0  0  0  0  0  0  0  0
  152.1757  143.6059  159.8939 C   0  0  2  0  0  0  0  0  0  0  0  0
  152.2252  144.7747  158.9176 C   0  0  0  0  0  0  0  0  0  0  0  0
  151.6760  144.1641  157.6402 C   0  0  0  0  0  0  0  0  0  0  0  0
  150.8033  142.9886  158.1269 C   0  0  1  0  0  0  0  0  0  0  0  0
  151.2169  141.6281  157.5363 C   0  0  0  0  0  0  0  0  0  0  0  0
  151.9153  140.8658  158.2052 O   0  0  0  0  0  0  0  0  0  0  0  0
  150.7971  141.3660  156.2837 N   0  0  0  0  0  0  0  0  0  0  0  0
  151.0188  140.1988  155.5073 C   0  0  0  0  0  0  0  0  0  0  0  0
  152.1505  139.4290  155.8657 C   0  0  0  0  0  0  0  0  0  0  0  0
  152.4933  138.2918  155.2202 N   0  0  0  0  0  0  0  0  0  0  0  0
  151.6956  137.9134  154.1988 C   0  0  0  0  0  0  0  0  0  0  0  0
  150.5648  138.6678  153.8276 C   0  0  0  0  0  0  0  0  0  0  0  0
  150.2278  139.8033  154.4771 N   0  0  0  0  0  0  0  0  0  0  0  0
  150.9504  142.9777  159.5493 O   0  0  0  0  0  0  0  0  0  0  0  0
  153.1007  144.5358  161.6293 H   0  0  0  0  0  0  0  0  0  0  0  0
  152.0932  143.1435  162.0164 H   0  0  0  0  0  0  0  0  0  0  0  0
  151.3436  144.6814  161.5968 H   0  0  0  0  0  0  0  0  0  0  0  0
  152.9973  142.9159  159.6942 H   0  0  0  0  0  0  0  0  0  0  0  0
  151.5667  145.5767  159.2543 H   0  0  0  0  0  0  0  0  0  0  0  0
  153.2277  145.1864  158.7971 H   0  0  0  0  0  0  0  0  0  0  0  0
  151.1007  144.8897  157.0643 H   0  0  0  0  0  0  0  0  0  0  0  0
  152.5028  143.8307  157.0111 H   0  0  0  0  0  0  0  0  0  0  0  0
  149.7533  143.1629  157.8898 H   0  0  0  0  0  0  0  0  0  0  0  0
  150.2418  142.0857  155.8435 H   0  0  0  0  0  0  0  0  0  0  0  0
  152.7920  139.7274  156.6824 H   0  0  0  0  0  0  0  0  0  0  0  0
  151.9599  137.0064  153.6757 H   0  0  0  0  0  0  0  0  0  0  0  0
  149.9304  138.3608  153.0091 H   0  0  0  0  0  0  0  0  0  0  0  0
  1  2  1  0  0  0  0
  1 16  1  0  0  0  0
  1 17  1  0  0  0  0
  1 18  1  0  0  0  0
  2 15  1  0  0  0  0
  2  3  1  0  0  0  0
  2 19  1  0  0  0  0
  3  4  1  0  0  0  0
  3 20  1  0  0  0  0
  3 21  1  0  0  0  0
  4  5  1  0  0  0  0
  4 22  1  0  0  0  0
  4 23  1  0  0  0  0
  5  6  1  0  0  0  0
  5 15  1  0  0  0  0
  5 24  1  0  0  0  0
  6  7  2  0  0  0  0
  6  8  1  0  0  0  0
  8  9  1  0  0  0  0
  8 25  1  0  0  0  0
  9 14  1  0  0  0  0
  9 10  2  0  0  0  0
 10 11  1  0  0  0  0
 10 26  1  0  0  0  0
 11 12  2  0  0  0  0
 12 13  1  0  0  0  0
 12 27  1  0  0  0  0
 13 14  2  0  0  0  0
 13 28  1  0  0  0  0
M  END
> <s_m_source_file>
AV-unprocessed.smi

> <i_m_source_file_index>
3100

> <i_lp_mmshare_version>
43012

> <i_f3d_flags>
0

> <s_epik_input>
W0NIM11bQ0BASF0xW0NIMl1bQ0gyXVtDQEhdKE8xKUMoPU8pW05IXWMyW2NIXW5bY0hdW2NIXW4y

> <s_epik_cmdline>
J2VwaWtfcHl0aG9uJywgJy1waCcsICc3LjAnLCAnLXRuJywgJzgnLCAnLW1hJywgJzIwMCcsICctbWV0YWxfYmluZGluZycsICctaW1hZScsICc8aW5maWxlLm1hZT4nLCAnLW9tYWUnLCAnPG91dGZpbGUubWFlPic=

> <r_lp_tautomer_probability>
1

> <r_epik_Ionization_Penalty>
2.81186e-06

> <r_epik_Ionization_Penalty_Charging>
0

> <r_epik_Ionization_Penalty_Neutral>
2.81186e-06

> <r_epik_State_Penalty>
-0

> <r_epik_Charging_Adjusted_Penalty>
0

> <i_epik_Tot_Q>
0

> <i_epik_Tot_abs_Q>
0

> <r_epik_Metal_State_Penalty>
-0

> <b_epik_Metal_Only>
0

> <s_lp_Force_Field>
OPLS_2005

> <r_lp_Energy>
25.8402

> <b_lp_Chiralities_Consistent>
1

> <s_lp_Variant>
AV-unprocessed.smi:3100-1

> <Gold.Version>
5.8.1

> <Gold.Id.Protein>
6NUR|6NUR_protein|mol2

> <Gold.PLP.Fitness>
42.1976

> <Gold.PLP.PLP>
-35.4531

> <Gold.PLP.part.hbond>
-1.5624

> <Gold.PLP.part.metal>
0.0000

> <Gold.PLP.part.buried>
-4.1583

> <Gold.PLP.part.nonpolar>
-29.7698

> <Gold.PLP.part.repulsive>
0.2473

> <Gold.PLP.ligand.clash>
0.0000

> <Gold.PLP.ligand.torsion>
0.6539

> <Gold.PLP.Chemscore.Hbond>
0.0000

> <Gold.PLP.Chemscore.CHOScore>
2.6818

> <Gold.PLP.Chemscore.Metal>
0.0000

> <Gold.Chemscore.Hbonds>
donor molecule, donor type, donor heavy atom, donor atom, acceptor molecule, acceptor atom, score
      L1  C    12    27       P1  7949  0.99
      L1  C    13    28       P1  7948  0.93
      L1  C    13    28       P1  7957  0.74

> <Gold.PLP.Chemscore.Internal.Correction>
0.0069

> <Gold.Rescore>
     Score         DG    S(hbond)    S(metal)    S(lipo)     H(rot)  DE(clash)    DE(int)     intcor
     11.29     -13.16       0.00        0.00      87.53       1.00       0.02       1.85       ----

> <Gold.Chemscore.Fitness>
11.2947

> <Gold.Chemscore.DG>
-13.1607

> <Gold.Chemscore.ZeroCoef>
-5.4800

> <Gold.Chemscore.Hbond>
0.0000

> <Gold.Chemscore.Metal>
0.0000

> <Gold.Chemscore.Lipo>
87.5276

> <Gold.Chemscore.Internal_Hbond>
0.0000

> <Gold.Chemscore.DEClash>
0.0158

> <Gold.Chemscore.DEInternal>
1.8502

> <Gold.Chemscore.Rot>
1.0000

> <Gold.Chemscore.Internal.Correction>
   9.000000E+99

> <Gold.Chemscore.Hbond.Weighted>
-0.0000

> <Gold.Chemscore.Metal.Weighted>
-0.0000

> <Gold.Chemscore.Lipo.Weighted>
-10.2407

> <Gold.Chemscore.Internal_Hbond.Weighted>
0.0000

> <Gold.Chemscore.DEClash.Weighted>
0.0158

> <Gold.Chemscore.DEInternal.Weighted>
1.8502

> <Gold.Chemscore.Rot.Weighted>
2.5600

> <Gold.Chemscore.Internal.Correction.Weighted>
   9.000000E+99

> <Gold.Protein.RotatedTorsions>
[ 6907 6896 6895 6894 ] final  117.58 input  -60.11 | X-H torsion
[ 7974 7965 7964 7962 ] final  -79.84 input  175.53 | X-H torsion
[ 8008 7997 7996 7995 ] final   82.96 input   59.86 | X-H torsion
[ 10167 10162 10161 10158 ] final -179.92 input  -65.29 | X-H torsion
[ 10718 10713 10712 10709 ] final  -95.48 input   66.30 | X-H torsion
[ 10763 10752 10751 10750 ] final  162.89 input  -60.55 | X-H torsion
[ 11005 11000 10999 10996 ] final -153.02 input  -57.11 | X-H torsion

> <Gold.Protein.ActiveResidues>
 VAL166  LYS551  ARG553  GLY616  TRP617  ASP618  TYR619  PRO620  LYS621  CYS622 
 ASP623  PHE694  ASN695  SER759  ASP760  ASP761  ALA762  ILE779  LEU786  VAL792 
 PHE793  MET794  SER795  GLU796  ALA797  LYS798  CYS799  TRP800  GLU811  SER814 

> <Gold.Protein.RotatedAtoms>
  152.4602  133.7806  159.6848 H   0  0  0  0  0  0  0  0  0  0  0  0  # atno 6907 bound_to 6896
  150.8543  133.7729  159.3020 H   0  0  0  0  0  0  0  0  0  0  0  0  # atno 6908 bound_to 6896
  151.5315  135.1071  159.9955 H   0  0  0  0  0  0  0  0  0  0  0  0  # atno 6909 bound_to 6896
  145.5679  140.9471  143.1411 H   0  0  0  0  0  0  0  0  0  0  0  0  # atno 7974 bound_to 7965
  155.9176  140.3423  155.6147 H   0  0  0  0  0  0  0  0  0  0  0  0  # atno 8008 bound_to 7997
  155.7313  140.0796  157.2306 H   0  0  0  0  0  0  0  0  0  0  0  0  # atno 8009 bound_to 7997
  154.4064  140.1587  156.2499 H   0  0  0  0  0  0  0  0  0  0  0  0  # atno 8010 bound_to 7997
  139.5365  144.2484  152.0804 H   0  0  0  0  0  0  0  0  0  0  0  0  # atno 10167 bound_to 10162
  156.0044  130.5111  150.6083 H   0  0  0  0  0  0  0  0  0  0  0  0  # atno 10718 bound_to 10713
  154.2852  135.2762  155.2679 H   0  0  0  0  0  0  0  0  0  0  0  0  # atno 10763 bound_to 10752
  154.5182  135.5763  153.6663 H   0  0  0  0  0  0  0  0  0  0  0  0  # atno 10764 bound_to 10752
  152.9923  135.6198  154.3014 H   0  0  0  0  0  0  0  0  0  0  0  0  # atno 10765 bound_to 10752
  140.7126  134.3815  157.5195 H   0  0  0  0  0  0  0  0  0  0  0  0  # atno 11005 bound_to 11000
  144.7451  139.7341  143.7295 LP  0  0  0  0  0  0  0  0  0  0  0  0  # atno 17320 bound_to 7965
  146.1805  139.4995  142.9870 LP  0  0  0  0  0  0  0  0  0  0  0  0  # atno 17321 bound_to 7965
  140.1955  144.4710  150.6457 LP  0  0  0  0  0  0  0  0  0  0  0  0  # atno 17342 bound_to 10162
  140.6574  143.2241  151.5937 LP  0  0  0  0  0  0  0  0  0  0  0  0  # atno 17343 bound_to 10162
  157.3920  131.0797  151.1385 LP  0  0  0  0  0  0  0  0  0  0  0  0  # atno 17370 bound_to 10713
  157.2074  130.6422  149.5761 LP  0  0  0  0  0  0  0  0  0  0  0  0  # atno 17371 bound_to 10713
  139.8868  134.8901  156.2566 LP  0  0  0  0  0  0  0  0  0  0  0  0  # atno 17394 bound_to 11000
  141.0071  133.7117  156.1052 LP  0  0  0  0  0  0  0  0  0  0  0  0  # atno 17395 bound_to 11000

$$$$
