AV-unprocessed.smi:2166|AV-procd|sdf|8815|dock1
  -GOLD-   2272012 03D 1   1.00000     0.00000
 Structure written by MMmdl.
 38 39  0  0  0  0  0  0  0  0  1 V2000
  145.1066  136.3015  151.7842 C   0  0  0  0  0  0  0  0  0  0  0  0
  145.2377  137.7183  152.9093 S   0  0  0  0  0  0  0  0  0  0  0  0
  146.8183  138.4427  152.3774 C   0  0  1  0  0  0  0  0  0  0  0  0
  146.6822  139.0366  150.9661 C   0  0  0  0  0  0  0  0  0  0  0  0
  147.3334  139.4868  153.3772 C   0  0  0  0  0  0  0  0  0  0  0  0
  146.5832  140.3808  153.7704 O   0  0  0  0  0  0  0  0  0  0  0  0
  148.6128  139.3367  153.7700 N   0  0  0  0  0  0  0  0  0  0  0  0
  149.3463  140.1175  154.7014 C   0  0  0  0  0  0  0  0  0  0  0  0
  150.4849  139.4863  155.2449 C   0  0  0  0  0  0  0  0  0  0  0  0
  151.2739  140.1726  156.1871 C   0  0  0  0  0  0  0  0  0  0  0  0
  150.9158  141.4822  156.5778 C   0  0  0  0  0  0  0  0  0  0  0  0
  151.6906  142.1847  157.5261 N   0  0  0  0  0  0  0  0  0  0  0  0
  151.5351  143.6344  157.6054 C   0  0  0  0  0  0  0  0  0  0  0  0
  152.6538  144.2472  158.4655 C   0  0  0  0  0  0  0  0  0  0  0  0
  152.6687  143.6256  159.7462 O   0  0  0  0  0  0  0  0  0  0  0  0
  152.9335  142.2297  159.6531 C   0  0  0  0  0  0  0  0  0  0  0  0
  151.8292  141.5423  158.8309 C   0  0  0  0  0  0  0  0  0  0  0  0
  149.7621  142.0329  155.9684 C   0  0  0  0  0  0  0  0  0  0  0  0
  149.0035  141.3759  155.0661 N   0  0  0  0  0  0  0  0  0  0  0  0
  144.1645  135.7794  151.9502 H   0  0  0  0  0  0  0  0  0  0  0  0
  145.9204  135.5963  151.9519 H   0  0  0  0  0  0  0  0  0  0  0  0
  145.1393  136.6333  150.7465 H   0  0  0  0  0  0  0  0  0  0  0  0
  147.5426  137.6286  152.3185 H   0  0  0  0  0  0  0  0  0  0  0  0
  147.6165  139.4904  150.6334 H   0  0  0  0  0  0  0  0  0  0  0  0
  145.9051  139.8009  150.9241 H   0  0  0  0  0  0  0  0  0  0  0  0
  146.4203  138.2627  150.2439 H   0  0  0  0  0  0  0  0  0  0  0  0
  149.1136  138.5591  153.3660 H   0  0  0  0  0  0  0  0  0  0  0  0
  150.7563  138.4842  154.9461 H   0  0  0  0  0  0  0  0  0  0  0  0
  152.1515  139.6898  156.5906 H   0  0  0  0  0  0  0  0  0  0  0  0
  151.5672  144.0727  156.6072 H   0  0  0  0  0  0  0  0  0  0  0  0
  150.5625  143.8716  158.0393 H   0  0  0  0  0  0  0  0  0  0  0  0
  153.6250  144.1317  157.9813 H   0  0  0  0  0  0  0  0  0  0  0  0
  152.4864  145.3169  158.5918 H   0  0  0  0  0  0  0  0  0  0  0  0
  153.9135  142.0638  159.2025 H   0  0  0  0  0  0  0  0  0  0  0  0
  152.9704  141.8081  160.6576 H   0  0  0  0  0  0  0  0  0  0  0  0
  150.8766  141.6098  159.3584 H   0  0  0  0  0  0  0  0  0  0  0  0
  152.0646  140.4830  158.7373 H   0  0  0  0  0  0  0  0  0  0  0  0
  149.4106  143.0248  156.2095 H   0  0  0  0  0  0  0  0  0  0  0  0
  1  2  1  0  0  0  0
  1 20  1  0  0  0  0
  1 21  1  0  0  0  0
  1 22  1  0  0  0  0
  2  3  1  0  0  0  0
  3  4  1  0  0  0  0
  3  5  1  0  0  0  0
  3 23  1  0  0  0  0
  4 24  1  0  0  0  0
  4 25  1  0  0  0  0
  4 26  1  0  0  0  0
  5  6  2  0  0  0  0
  5  7  1  0  0  0  0
  7  8  1  0  0  0  0
  7 27  1  0  0  0  0
  8 19  1  0  0  0  0
  8  9  2  0  0  0  0
  9 10  1  0  0  0  0
  9 28  1  0  0  0  0
 10 11  2  0  0  0  0
 10 29  1  0  0  0  0
 11 12  1  0  0  0  0
 11 18  1  0  0  0  0
 12 17  1  0  0  0  0
 12 13  1  0  0  0  0
 13 14  1  0  0  0  0
 13 30  1  0  0  0  0
 13 31  1  0  0  0  0
 14 15  1  0  0  0  0
 14 32  1  0  0  0  0
 14 33  1  0  0  0  0
 15 16  1  0  0  0  0
 16 17  1  0  0  0  0
 16 34  1  0  0  0  0
 16 35  1  0  0  0  0
 17 36  1  0  0  0  0
 17 37  1  0  0  0  0
 18 19  2  0  0  0  0
 18 38  1  0  0  0  0
M  END
> <s_m_source_file>
AV-unprocessed.smi

> <i_m_source_file_index>
2166

> <i_lp_mmshare_version>
43012

> <i_f3d_flags>
0

> <s_epik_input>
W0NIM11TW0NASF0oW0NIM10pQyg9TylbTkhdYzFbY0hdW2NIXWMoW2NIXW4xKU4yW0NIMl1bQ0gyXU9bQ0gyXVtDSDJdMg==

> <s_epik_cmdline>
J2VwaWtfcHl0aG9uJywgJy1waCcsICc3LjAnLCAnLXRuJywgJzgnLCAnLW1hJywgJzIwMCcsICctbWV0YWxfYmluZGluZycsICctaW1hZScsICc8aW5maWxlLm1hZT4nLCAnLW9tYWUnLCAnPG91dGZpbGUubWFlPic=

> <r_lp_tautomer_probability>
1

> <r_epik_Ionization_Penalty>
0.0038652

> <r_epik_Ionization_Penalty_Charging>
0

> <r_epik_Ionization_Penalty_Neutral>
0.0038652

> <r_epik_State_Penalty>
0.00681294

> <r_epik_Charging_Adjusted_Penalty>
0.00681294

> <i_epik_Tot_Q>
0

> <i_epik_Tot_abs_Q>
0

> <r_epik_Metal_State_Penalty>
-0

> <b_epik_Metal_Only>
0

> <s_lp_Force_Field>
OPLS_2005

> <r_lp_Energy>
24.7489

> <b_lp_Chiralities_Consistent>
1

> <s_lp_Variant>
AV-unprocessed.smi:2166-2

> <Gold.Version>
5.8.1

> <Gold.Id.Protein>
6NUR|6NUR_protein|mol2

> <Gold.PLP.Fitness>
37.7602

> <Gold.PLP.PLP>
-35.6691

> <Gold.PLP.part.hbond>
-1.0000

> <Gold.PLP.part.metal>
0.0000

> <Gold.PLP.part.buried>
2.8095

> <Gold.PLP.part.nonpolar>
-38.3061

> <Gold.PLP.part.repulsive>
0.3784

> <Gold.PLP.ligand.clash>
0.0000

> <Gold.PLP.ligand.torsion>
0.6488

> <Gold.PLP.Chemscore.Hbond>
0.0000

> <Gold.PLP.Chemscore.CHOScore>
1.0000

> <Gold.PLP.Chemscore.Metal>
0.0000

> <Gold.Chemscore.Hbonds>
donor molecule, donor type, donor heavy atom, donor atom, acceptor molecule, acceptor atom, score
      L1  C    18    38       P1  8028  0.57

> <Gold.PLP.Chemscore.Internal.Correction>
0.3887

> <Gold.Rescore>
     Score         DG    S(hbond)    S(metal)    S(lipo)     H(rot)  DE(clash)    DE(int)     intcor
     11.40     -13.46       0.00        0.00      96.84       1.31       0.21       1.85       ----

> <Gold.Chemscore.Fitness>
11.4046

> <Gold.Chemscore.DG>
-13.4556

> <Gold.Chemscore.ZeroCoef>
-5.4800

> <Gold.Chemscore.Hbond>
0.0000

> <Gold.Chemscore.Metal>
0.0000

> <Gold.Chemscore.Lipo>
96.8421

> <Gold.Chemscore.Internal_Hbond>
0.0000

> <Gold.Chemscore.DEClash>
0.2052

> <Gold.Chemscore.DEInternal>
1.8458

> <Gold.Chemscore.Rot>
1.3105

> <Gold.Chemscore.Internal.Correction>
   9.000000E+99

> <Gold.Chemscore.Hbond.Weighted>
-0.0000

> <Gold.Chemscore.Metal.Weighted>
-0.0000

> <Gold.Chemscore.Lipo.Weighted>
-11.3305

> <Gold.Chemscore.Internal_Hbond.Weighted>
0.0000

> <Gold.Chemscore.DEClash.Weighted>
0.2052

> <Gold.Chemscore.DEInternal.Weighted>
1.8458

> <Gold.Chemscore.Rot.Weighted>
3.3549

> <Gold.Chemscore.Internal.Correction.Weighted>
   9.000000E+99

> <Gold.Protein.RotatedTorsions>
[ 6907 6896 6895 6894 ] final -114.23 input  -60.11 | X-H torsion
[ 7974 7965 7964 7962 ] final  -82.27 input  175.53 | X-H torsion
[ 8008 7997 7996 7995 ] final  172.96 input   59.86 | X-H torsion
[ 10167 10162 10161 10158 ] final -168.85 input  -65.29 | X-H torsion
[ 10718 10713 10712 10709 ] final  -16.02 input   66.30 | X-H torsion
[ 10763 10752 10751 10750 ] final  -17.48 input  -60.55 | X-H torsion
[ 11005 11000 10999 10996 ] final  140.02 input  -57.11 | X-H torsion

> <Gold.Protein.ActiveResidues>
 VAL166  LYS551  ARG553  GLY616  TRP617  ASP618  TYR619  PRO620  LYS621  CYS622 
 ASP623  PHE694  ASN695  SER759  ASP760  ASP761  ALA762  ILE779  LEU786  VAL792 
 PHE793  MET794  SER795  GLU796  ALA797  LYS798  CYS799  TRP800  GLU811  SER814 

> <Gold.Protein.RotatedAtoms>
  150.7887  133.8831  159.3291 H   0  0  0  0  0  0  0  0  0  0  0  0  # atno 6907 bound_to 6896
  151.6675  135.0979  160.0201 H   0  0  0  0  0  0  0  0  0  0  0  0  # atno 6908 bound_to 6896
  152.3956  133.6703  159.6309 H   0  0  0  0  0  0  0  0  0  0  0  0  # atno 6909 bound_to 6896
  145.5356  140.9516  143.1579 H   0  0  0  0  0  0  0  0  0  0  0  0  # atno 7974 bound_to 7965
  156.1123  140.1472  156.9321 H   0  0  0  0  0  0  0  0  0  0  0  0  # atno 8008 bound_to 7997
  154.4775  140.0889  156.7341 H   0  0  0  0  0  0  0  0  0  0  0  0  # atno 8009 bound_to 7997
  155.4575  140.3437  155.4310 H   0  0  0  0  0  0  0  0  0  0  0  0  # atno 8010 bound_to 7997
  139.5959  144.1113  152.1688 H   0  0  0  0  0  0  0  0  0  0  0  0  # atno 10167 bound_to 10162
  156.5934  130.4805  149.6269 H   0  0  0  0  0  0  0  0  0  0  0  0  # atno 10718 bound_to 10713
  153.5746  135.7006  153.5490 H   0  0  0  0  0  0  0  0  0  0  0  0  # atno 10763 bound_to 10752
  153.3314  135.4046  155.1498 H   0  0  0  0  0  0  0  0  0  0  0  0  # atno 10764 bound_to 10752
  154.8627  135.3720  154.5270 H   0  0  0  0  0  0  0  0  0  0  0  0  # atno 10765 bound_to 10752
  140.0297  134.9358  157.0637 H   0  0  0  0  0  0  0  0  0  0  0  0  # atno 11005 bound_to 11000
  144.7603  139.6972  143.7237 LP  0  0  0  0  0  0  0  0  0  0  0  0  # atno 17320 bound_to 7965
  146.2015  139.5313  142.9740 LP  0  0  0  0  0  0  0  0  0  0  0  0  # atno 17321 bound_to 7965
  140.0698  144.5788  150.7200 LP  0  0  0  0  0  0  0  0  0  0  0  0  # atno 17342 bound_to 10162
  140.7211  143.2590  151.4274 LP  0  0  0  0  0  0  0  0  0  0  0  0  # atno 17343 bound_to 10162
  156.2530  130.6918  151.1662 LP  0  0  0  0  0  0  0  0  0  0  0  0  # atno 17370 bound_to 10713
  157.7298  131.0621  150.5758 LP  0  0  0  0  0  0  0  0  0  0  0  0  # atno 17371 bound_to 10713
  140.4247  134.1843  155.7165 LP  0  0  0  0  0  0  0  0  0  0  0  0  # atno 17394 bound_to 11000
  141.1823  133.8387  157.1212 LP  0  0  0  0  0  0  0  0  0  0  0  0  # atno 17395 bound_to 11000

$$$$
