AV-unprocessed.smi:3113|AV-procd|sdf|11854|dock8
  -GOLD-   2272017233D 1   1.00000     0.00000
 Structure written by MMmdl.
 34 35  0  0  0  0  0  0  0  0  1 V2000
  150.5733  137.5694  154.7014 C   0  0  0  0  0  0  0  0  0  0  0  0
  149.9753  138.5681  153.8830 C   0  0  0  0  0  0  0  0  0  0  0  0
  150.2061  139.7943  154.3236 N   0  0  0  0  0  0  0  0  0  0  0  0
  150.9550  139.6196  155.4341 N   0  0  0  0  0  0  0  0  0  0  0  0
  151.3960  140.7729  156.1942 C   0  0  0  0  0  0  0  0  0  0  0  0
  150.4066  141.9399  156.0710 C   0  0  0  0  0  0  0  0  0  0  0  0
  150.6848  142.9712  157.0641 N   0  0  0  0  0  0  0  0  0  0  0  0
  150.4736  142.5208  158.4359 C   0  0  0  0  0  0  0  0  0  0  0  0
  151.6915  142.8356  159.3165 C   0  0  2  0  0  0  0  0  0  0  0  0
  152.3982  141.5499  159.7877 C   0  0  0  0  0  0  0  0  0  0  0  0
  153.5537  141.8861  160.7373 C   0  0  0  0  0  0  0  0  0  0  0  0
  153.0433  142.7727  161.8781 C   0  0  0  0  0  0  0  0  0  0  0  0
  152.2928  143.9895  161.3140 C   0  0  0  0  0  0  0  0  0  0  0  0
  151.2372  143.5556  160.4614 O   0  0  0  0  0  0  0  0  0  0  0  0
  151.1937  138.2851  155.6854 C   0  0  0  0  0  0  0  0  0  0  0  0
  150.5501  136.4961  154.5839 H   0  0  0  0  0  0  0  0  0  0  0  0
  149.3842  138.4391  152.9884 H   0  0  0  0  0  0  0  0  0  0  0  0
  151.5078  140.4773  157.2383 H   0  0  0  0  0  0  0  0  0  0  0  0
  152.3852  141.0670  155.8396 H   0  0  0  0  0  0  0  0  0  0  0  0
  150.4677  142.3647  155.0682 H   0  0  0  0  0  0  0  0  0  0  0  0
  149.3876  141.5708  156.1939 H   0  0  0  0  0  0  0  0  0  0  0  0
  150.1063  143.7857  156.8834 H   0  0  0  0  0  0  0  0  0  0  0  0
  149.5813  142.9835  158.8596 H   0  0  0  0  0  0  0  0  0  0  0  0
  150.2963  141.4447  158.4352 H   0  0  0  0  0  0  0  0  0  0  0  0
  152.3983  143.4472  158.7520 H   0  0  0  0  0  0  0  0  0  0  0  0
  151.6834  140.9022  160.2975 H   0  0  0  0  0  0  0  0  0  0  0  0
  152.7734  140.9884  158.9315 H   0  0  0  0  0  0  0  0  0  0  0  0
  153.9996  140.9735  161.1332 H   0  0  0  0  0  0  0  0  0  0  0  0
  154.3391  142.4078  160.1890 H   0  0  0  0  0  0  0  0  0  0  0  0
  152.3736  142.1971  162.5180 H   0  0  0  0  0  0  0  0  0  0  0  0
  153.8743  143.0973  162.5048 H   0  0  0  0  0  0  0  0  0  0  0  0
  151.8686  144.5780  162.1275 H   0  0  0  0  0  0  0  0  0  0  0  0
  152.9703  144.6459  160.7661 H   0  0  0  0  0  0  0  0  0  0  0  0
  151.7768  137.9595  156.5343 H   0  0  0  0  0  0  0  0  0  0  0  0
  1 15  2  0  0  0  0
  1  2  1  0  0  0  0
  1 16  1  0  0  0  0
  2  3  2  0  0  0  0
  2 17  1  0  0  0  0
  3  4  1  0  0  0  0
  4  5  1  0  0  0  0
  4 15  1  0  0  0  0
  5  6  1  0  0  0  0
  5 18  1  0  0  0  0
  5 19  1  0  0  0  0
  6  7  1  0  0  0  0
  6 20  1  0  0  0  0
  6 21  1  0  0  0  0
  7  8  1  0  0  0  0
  7 22  1  0  0  0  0
  8  9  1  0  0  0  0
  8 23  1  0  0  0  0
  8 24  1  0  0  0  0
  9 14  1  0  0  0  0
  9 10  1  0  0  0  0
  9 25  1  0  0  0  0
 10 11  1  0  0  0  0
 10 26  1  0  0  0  0
 10 27  1  0  0  0  0
 11 12  1  0  0  0  0
 11 28  1  0  0  0  0
 11 29  1  0  0  0  0
 12 13  1  0  0  0  0
 12 30  1  0  0  0  0
 12 31  1  0  0  0  0
 13 14  1  0  0  0  0
 13 32  1  0  0  0  0
 13 33  1  0  0  0  0
 15 34  1  0  0  0  0
M  END
> <s_m_source_file>
AV-unprocessed.smi

> <i_m_source_file_index>
3113

> <i_lp_mmshare_version>
43012

> <i_f3d_flags>
0

> <s_epik_input>
W2NIXTFbY0hdW2NIXW5uMVtDSDJdW0NIMl1bTkhdW0NIMl1bQ0BASF0yW0NIMl1bQ0gyXVtDSDJdW0NIMl1PMg==

> <s_epik_cmdline>
J2VwaWtfcHl0aG9uJywgJy1waCcsICc3LjAnLCAnLXRuJywgJzgnLCAnLW1hJywgJzIwMCcsICctbWV0YWxfYmluZGluZycsICctaW1hZScsICc8aW5maWxlLm1hZT4nLCAnLW9tYWUnLCAnPG91dGZpbGUubWFlPic=

> <r_lp_tautomer_probability>
1

> <r_epik_Ionization_Penalty>
2.521

> <r_epik_Ionization_Penalty_Charging>
0

> <r_epik_Ionization_Penalty_Neutral>
2.521

> <r_epik_State_Penalty>
2.68614

> <r_epik_Charging_Adjusted_Penalty>
2.68614

> <i_epik_Tot_Q>
0

> <i_epik_Tot_abs_Q>
0

> <r_epik_Metal_State_Penalty>
2.68493

> <b_epik_Metal_Only>
0

> <s_lp_Force_Field>
OPLS_2005

> <r_lp_Energy>
11.6104

> <b_lp_Chiralities_Consistent>
1

> <s_lp_Variant>
AV-unprocessed.smi:3113-3

> <Gold.Version>
5.8.1

> <Gold.Id.Protein>
6NUR|6NUR_protein|mol2

> <Gold.PLP.Fitness>
46.5144

> <Gold.PLP.PLP>
-37.9097

> <Gold.PLP.part.hbond>
-2.9046

> <Gold.PLP.part.metal>
0.0000

> <Gold.PLP.part.buried>
-5.5160

> <Gold.PLP.part.nonpolar>
-28.7900

> <Gold.PLP.part.repulsive>
0.2315

> <Gold.PLP.ligand.clash>
0.0000

> <Gold.PLP.ligand.torsion>
1.5039

> <Gold.PLP.Chemscore.Hbond>
1.9588

> <Gold.PLP.Chemscore.CHOScore>
1.9039

> <Gold.PLP.Chemscore.Metal>
0.0000

> <Gold.Chemscore.Hbonds>
donor molecule, donor type, donor heavy atom, donor atom, acceptor molecule, acceptor atom, score
      L1  H     7    22       P1  8028  0.98
      P1  H  7989  7998       L1     3  0.60
      L1  C     2    17       P1  7948  0.90
      L1  C     2    17       P1  7957  0.80

> <Gold.PLP.Chemscore.Internal.Correction>
0.0246

> <Gold.Rescore>
     Score         DG    S(hbond)    S(metal)    S(lipo)     H(rot)  DE(clash)    DE(int)     intcor
     17.96     -19.29       1.96        0.00      97.51       1.62       0.05       1.28       ----

> <Gold.Chemscore.Fitness>
17.9597

> <Gold.Chemscore.DG>
-19.2922

> <Gold.Chemscore.ZeroCoef>
-5.4800

> <Gold.Chemscore.Hbond>
1.9623

> <Gold.Chemscore.Metal>
0.0000

> <Gold.Chemscore.Lipo>
97.5102

> <Gold.Chemscore.Internal_Hbond>
0.0000

> <Gold.Chemscore.DEClash>
0.0531

> <Gold.Chemscore.DEInternal>
1.2794

> <Gold.Chemscore.Rot>
1.6213

> <Gold.Chemscore.Internal.Correction>
   9.000000E+99

> <Gold.Chemscore.Hbonds>
donor molecule, donor type, donor heavy atom, donor atom, acceptor molecule, acceptor atom, score
      L1  H     7    22       P1  8028  0.92
      P1  H  7989  7998       L1     3  0.04

> <Gold.Chemscore.Hbond.Weighted>
-6.5541

> <Gold.Chemscore.Metal.Weighted>
-0.0000

> <Gold.Chemscore.Lipo.Weighted>
-11.4087

> <Gold.Chemscore.Internal_Hbond.Weighted>
0.0000

> <Gold.Chemscore.DEClash.Weighted>
0.0531

> <Gold.Chemscore.DEInternal.Weighted>
1.2794

> <Gold.Chemscore.Rot.Weighted>
4.1505

> <Gold.Chemscore.Internal.Correction.Weighted>
   9.000000E+99

> <Gold.Protein.RotatedTorsions>
[ 6907 6896 6895 6894 ] final   28.07 input  -60.11 | X-H torsion
[ 7974 7965 7964 7962 ] final   17.06 input  175.53 | X-H torsion
[ 8008 7997 7996 7995 ] final  -44.24 input   59.86 | X-H torsion
[ 10167 10162 10161 10158 ] final   84.07 input  -65.29 | X-H torsion
[ 10718 10713 10712 10709 ] final -156.96 input   66.30 | X-H torsion
[ 10763 10752 10751 10750 ] final  -28.55 input  -60.55 | X-H torsion
[ 11005 11000 10999 10996 ] final  -55.61 input  -57.11 | X-H torsion

> <Gold.Protein.ActiveResidues>
 VAL166  LYS551  ARG553  GLY616  TRP617  ASP618  TYR619  PRO620  LYS621  CYS622 
 ASP623  PHE694  ASN695  SER759  ASP760  ASP761  ALA762  ILE779  LEU786  VAL792 
 PHE793  MET794  SER795  GLU796  ALA797  LYS798  CYS799  TRP800  GLU811  SER814 

> <Gold.Protein.RotatedAtoms>
  152.0115  134.9873  160.0567 H   0  0  0  0  0  0  0  0  0  0  0  0  # atno 6907 bound_to 6896
  152.1424  133.4467  159.4781 H   0  0  0  0  0  0  0  0  0  0  0  0  # atno 6908 bound_to 6896
  150.6866  134.2207  159.4439 H   0  0  0  0  0  0  0  0  0  0  0  0  # atno 6909 bound_to 6896
  146.2230  139.8657  142.8596 H   0  0  0  0  0  0  0  0  0  0  0  0  # atno 7974 bound_to 7965
  154.3997  140.1427  156.3650 H   0  0  0  0  0  0  0  0  0  0  0  0  # atno 8008 bound_to 7997
  155.8146  140.3471  155.5457 H   0  0  0  0  0  0  0  0  0  0  0  0  # atno 8009 bound_to 7997
  155.8351  140.0918  157.1759 H   0  0  0  0  0  0  0  0  0  0  0  0  # atno 8010 bound_to 7997
  139.9119  144.6267  150.8529 H   0  0  0  0  0  0  0  0  0  0  0  0  # atno 10167 bound_to 10162
  156.5336  130.8532  151.2725 H   0  0  0  0  0  0  0  0  0  0  0  0  # atno 10718 bound_to 10713
  153.7502  135.6926  153.4947 H   0  0  0  0  0  0  0  0  0  0  0  0  # atno 10763 bound_to 10752
  153.2008  135.4437  155.0263 H   0  0  0  0  0  0  0  0  0  0  0  0  # atno 10764 bound_to 10752
  154.8190  135.3412  154.7023 H   0  0  0  0  0  0  0  0  0  0  0  0  # atno 10765 bound_to 10752
  141.1082  133.6612  156.4496 H   0  0  0  0  0  0  0  0  0  0  0  0  # atno 11005 bound_to 11000
  145.2659  141.0092  143.3800 LP  0  0  0  0  0  0  0  0  0  0  0  0  # atno 17320 bound_to 7965
  144.9262  139.4353  143.6517 LP  0  0  0  0  0  0  0  0  0  0  0  0  # atno 17321 bound_to 7965
  140.7683  143.3360  151.2309 LP  0  0  0  0  0  0  0  0  0  0  0  0  # atno 17342 bound_to 10162
  139.6936  143.9651  152.2871 LP  0  0  0  0  0  0  0  0  0  0  0  0  # atno 17343 bound_to 10162
  157.7417  130.9876  150.2466 LP  0  0  0  0  0  0  0  0  0  0  0  0  # atno 17370 bound_to 10713
  156.3036  130.3762  149.7727 LP  0  0  0  0  0  0  0  0  0  0  0  0  # atno 17371 bound_to 10713
  140.4846  134.6632  157.5185 LP  0  0  0  0  0  0  0  0  0  0  0  0  # atno 17394 bound_to 11000
  139.9962  134.6907  155.9606 LP  0  0  0  0  0  0  0  0  0  0  0  0  # atno 17395 bound_to 11000

$$$$
