AV-unprocessed.smi:566|AV-procd|sdf|2955|dock2
  -GOLD-   2262023453D 1   1.00000     0.00000
 Structure written by MMmdl.
 39 40  0  0  0  0  0  0  0  0  1 V2000
  153.6999  142.3299  162.5151 C   0  0  0  0  0  0  0  0  0  0  0  0
  153.0912  142.2077  161.1235 C   0  0  0  0  0  0  0  0  0  0  0  0
  152.2253  143.2699  160.6674 C   0  0  0  0  0  0  0  0  0  0  0  0
  151.6920  143.2514  159.4354 C   0  0  0  0  0  0  0  0  0  0  0  0
  150.7886  144.3849  158.9619 C   0  0  0  0  0  0  0  0  0  0  0  0
  151.9540  142.1685  158.5515 N   0  0  0  0  0  0  0  0  0  0  0  0
  151.3619  142.1769  157.1933 C   0  0  0  0  0  0  0  0  0  0  0  0
  150.4439  140.9652  156.9421 C   0  0  0  0  0  0  0  0  0  0  0  0
  149.9311  141.0133  155.6179 O   0  0  0  0  0  0  0  0  0  0  0  0
  148.6325  141.4355  155.4328 C   0  0  0  0  0  0  0  0  0  0  0  0
  148.1939  141.5845  154.1009 C   0  0  0  0  0  0  0  0  0  0  0  0
  146.8821  142.0103  153.8172 C   0  0  0  0  0  0  0  0  0  0  0  0
  145.9924  142.2956  154.8694 C   0  0  0  0  0  0  0  0  0  0  0  0
  146.4172  142.1538  156.2035 C   0  0  0  0  0  0  0  0  0  0  0  0
  145.5629  142.4296  157.2173 F   0  0  0  0  0  0  0  0  0  0  0  0
  147.7292  141.7258  156.4868 C   0  0  0  0  0  0  0  0  0  0  0  0
  152.7359  141.1021  158.9182 C   0  0  0  0  0  0  0  0  0  0  0  0
  152.8888  140.1480  158.1488 O   0  0  0  0  0  0  0  0  0  0  0  0
  153.3457  141.1754  160.2748 C   0  0  0  0  0  0  0  0  0  0  0  0
  154.2229  140.0547  160.6667 C   0  0  0  0  0  0  0  0  0  0  0  0
  154.7397  139.3529  159.6486 N   0  0  0  0  0  0  0  0  0  0  0  0
  154.5537  139.7922  161.8219 O   0  0  0  0  0  0  0  0  0  0  0  0
  153.5082  143.3139  162.9442 H   0  0  0  0  0  0  0  0  0  0  0  0
  154.7814  142.1936  162.4838 H   0  0  0  0  0  0  0  0  0  0  0  0
  153.2713  141.5869  163.1879 H   0  0  0  0  0  0  0  0  0  0  0  0
  152.0114  144.0986  161.3269 H   0  0  0  0  0  0  0  0  0  0  0  0
  150.4931  145.0165  159.8001 H   0  0  0  0  0  0  0  0  0  0  0  0
  149.8689  144.0237  158.5052 H   0  0  0  0  0  0  0  0  0  0  0  0
  151.3149  145.0181  158.2472 H   0  0  0  0  0  0  0  0  0  0  0  0
  150.8053  143.0961  157.0189 H   0  0  0  0  0  0  0  0  0  0  0  0
  152.1304  142.2143  156.4193 H   0  0  0  0  0  0  0  0  0  0  0  0
  150.9842  140.0321  157.1047 H   0  0  0  0  0  0  0  0  0  0  0  0
  149.6146  140.9996  157.6500 H   0  0  0  0  0  0  0  0  0  0  0  0
  148.8712  141.3675  153.2878 H   0  0  0  0  0  0  0  0  0  0  0  0
  146.5589  142.1179  152.7924 H   0  0  0  0  0  0  0  0  0  0  0  0
  144.9861  142.6231  154.6535 H   0  0  0  0  0  0  0  0  0  0  0  0
  148.0190  141.6303  157.5219 H   0  0  0  0  0  0  0  0  0  0  0  0
  155.3624  138.5797  159.8329 H   0  0  0  0  0  0  0  0  0  0  0  0
  154.5160  139.6103  158.6981 H   0  0  0  0  0  0  0  0  0  0  0  0
  1  2  1  0  0  0  0
  1 23  1  0  0  0  0
  1 24  1  0  0  0  0
  1 25  1  0  0  0  0
  2 19  2  0  0  0  0
  2  3  1  0  0  0  0
  3  4  2  0  0  0  0
  3 26  1  0  0  0  0
  4  5  1  0  0  0  0
  4  6  1  0  0  0  0
  5 27  1  0  0  0  0
  5 28  1  0  0  0  0
  5 29  1  0  0  0  0
  6  7  1  0  0  0  0
  6 17  1  0  0  0  0
  7  8  1  0  0  0  0
  7 30  1  0  0  0  0
  7 31  1  0  0  0  0
  8  9  1  0  0  0  0
  8 32  1  0  0  0  0
  8 33  1  0  0  0  0
  9 10  1  0  0  0  0
 10 16  1  0  0  0  0
 10 11  2  0  0  0  0
 11 12  1  0  0  0  0
 11 34  1  0  0  0  0
 12 13  2  0  0  0  0
 12 35  1  0  0  0  0
 13 14  1  0  0  0  0
 13 36  1  0  0  0  0
 14 15  1  0  0  0  0
 14 16  2  0  0  0  0
 16 37  1  0  0  0  0
 17 18  2  0  0  0  0
 17 19  1  0  0  0  0
 19 20  1  0  0  0  0
 20 21  1  0  0  0  0
 20 22  2  0  0  0  0
 21 38  1  0  0  0  0
 21 39  1  0  0  0  0
M  END
> <s_m_source_file>
AV-unprocessed.smi

> <i_m_source_file_index>
566

> <i_lp_mmshare_version>
43012

> <i_f3d_flags>
0

> <s_epik_input>
W0NIM11jMVtjSF1jKFtDSDNdKW4oYyg9TyljMUMoPU8pW05IMl0pW0NIMl1bQ0gyXU9jMltjSF1bY0hdW2NIXWMoRilbY0hdMg==

> <s_epik_cmdline>
J2VwaWtfcHl0aG9uJywgJy1waCcsICc3LjAnLCAnLXRuJywgJzgnLCAnLW1hJywgJzIwMCcsICctbWV0YWxfYmluZGluZycsICctaW1hZScsICc8aW5maWxlLm1hZT4nLCAnLW9tYWUnLCAnPG91dGZpbGUubWFlPic=

> <r_lp_tautomer_probability>
1

> <r_epik_Ionization_Penalty>
1.93248e-07

> <r_epik_Ionization_Penalty_Charging>
2.77691e-08

> <r_epik_Ionization_Penalty_Neutral>
1.65479e-07

> <r_epik_State_Penalty>
-0

> <r_epik_Charging_Adjusted_Penalty>
2.77691e-08

> <i_epik_Tot_Q>
0

> <i_epik_Tot_abs_Q>
0

> <r_epik_Metal_State_Penalty>
-0

> <b_epik_Metal_Only>
0

> <s_lp_Force_Field>
OPLS_2005

> <r_lp_Energy>
41.2098

> <b_lp_Chiralities_Consistent>
1

> <s_lp_Variant>
AV-unprocessed.smi:566-1

> <Gold.Version>
5.8.1

> <Gold.Id.Protein>
6NUR|6NUR_protein|mol2

> <Gold.PLP.Fitness>
47.9874

> <Gold.PLP.PLP>
-45.6129

> <Gold.PLP.part.hbond>
-1.0000

> <Gold.PLP.part.metal>
0.0000

> <Gold.PLP.part.buried>
-6.0939

> <Gold.PLP.part.nonpolar>
-37.2135

> <Gold.PLP.part.repulsive>
0.1638

> <Gold.PLP.ligand.clash>
0.0000

> <Gold.PLP.ligand.torsion>
0.4961

> <Gold.PLP.Chemscore.Hbond>
1.0000

> <Gold.PLP.Chemscore.CHOScore>
0.0000

> <Gold.PLP.Chemscore.Metal>
0.0000

> <Gold.Chemscore.Hbonds>
donor molecule, donor type, donor heavy atom, donor atom, acceptor molecule, acceptor atom, score
      P1  H  7997  8010       L1    18  0.99

> <Gold.PLP.Chemscore.Internal.Correction>
0.3668

> <Gold.Rescore>
     Score         DG    S(hbond)    S(metal)    S(lipo)     H(rot)  DE(clash)    DE(int)     intcor
     13.50     -16.88       0.90        0.00     108.57       1.69       0.16       3.22       ----

> <Gold.Chemscore.Fitness>
13.5001

> <Gold.Chemscore.DG>
-16.8808

> <Gold.Chemscore.ZeroCoef>
-5.4800

> <Gold.Chemscore.Hbond>
0.9039

> <Gold.Chemscore.Metal>
0.0000

> <Gold.Chemscore.Lipo>
108.5674

> <Gold.Chemscore.Internal_Hbond>
0.0000

> <Gold.Chemscore.DEClash>
0.1564

> <Gold.Chemscore.DEInternal>
3.2243

> <Gold.Chemscore.Rot>
1.6878

> <Gold.Chemscore.Internal.Correction>
   9.000000E+99

> <Gold.Chemscore.Hbonds>
donor molecule, donor type, donor heavy atom, donor atom, acceptor molecule, acceptor atom, score
      P1  H  7997  8010       L1    18  0.85

> <Gold.Chemscore.Hbond.Weighted>
-3.0191

> <Gold.Chemscore.Metal.Weighted>
-0.0000

> <Gold.Chemscore.Lipo.Weighted>
-12.7024

> <Gold.Chemscore.Internal_Hbond.Weighted>
0.0000

> <Gold.Chemscore.DEClash.Weighted>
0.1564

> <Gold.Chemscore.DEInternal.Weighted>
3.2243

> <Gold.Chemscore.Rot.Weighted>
4.3207

> <Gold.Chemscore.Internal.Correction.Weighted>
   9.000000E+99

> <Gold.Protein.RotatedTorsions>
[ 6907 6896 6895 6894 ] final    1.73 input  -60.11 | X-H torsion
[ 7974 7965 7964 7962 ] final -177.03 input  175.53 | X-H torsion
[ 8008 7997 7996 7995 ] final   43.36 input   59.86 | X-H torsion
[ 10167 10162 10161 10158 ] final  153.31 input  -65.29 | X-H torsion
[ 10718 10713 10712 10709 ] final   62.32 input   66.30 | X-H torsion
[ 10763 10752 10751 10750 ] final  -34.70 input  -60.55 | X-H torsion
[ 11005 11000 10999 10996 ] final -128.37 input  -57.11 | X-H torsion

> <Gold.Protein.ActiveResidues>
 VAL166  LYS551  ARG553  GLY616  TRP617  ASP618  TYR619  PRO620  LYS621  CYS622 
 ASP623  PHE694  ASN695  SER759  ASP760  ASP761  ALA762  ILE779  LEU786  VAL792 
 PHE793  MET794  SER795  GLU796  ALA797  LYS798  CYS799  TRP800  GLU811  SER814 

> <Gold.Protein.RotatedAtoms>
  151.5974  135.1049  160.0052 H   0  0  0  0  0  0  0  0  0  0  0  0  # atno 6907 bound_to 6896
  152.4275  133.7216  159.6547 H   0  0  0  0  0  0  0  0  0  0  0  0  # atno 6908 bound_to 6896
  150.8165  133.8256  159.3180 H   0  0  0  0  0  0  0  0  0  0  0  0  # atno 6909 bound_to 6896
  144.7127  140.1081  143.6412 H   0  0  0  0  0  0  0  0  0  0  0  0  # atno 7974 bound_to 7965
  155.3014  140.3385  155.4247 H   0  0  0  0  0  0  0  0  0  0  0  0  # atno 8008 bound_to 7997
  156.1999  140.1729  156.7960 H   0  0  0  0  0  0  0  0  0  0  0  0  # atno 8009 bound_to 7997
  154.5546  140.0699  156.8707 H   0  0  0  0  0  0  0  0  0  0  0  0  # atno 8010 bound_to 7997
  139.4828  144.5284  151.7763 H   0  0  0  0  0  0  0  0  0  0  0  0  # atno 10167 bound_to 10162
  157.5892  130.9043  149.9572 H   0  0  0  0  0  0  0  0  0  0  0  0  # atno 10718 bound_to 10713
  153.8510  135.6849  153.4792 H   0  0  0  0  0  0  0  0  0  0  0  0  # atno 10763 bound_to 10752
  153.1397  135.4662  154.9475 H   0  0  0  0  0  0  0  0  0  0  0  0  # atno 10764 bound_to 10752
  154.7802  135.3266  154.7954 H   0  0  0  0  0  0  0  0  0  0  0  0  # atno 10765 bound_to 10752
  140.9522  134.1050  157.4051 H   0  0  0  0  0  0  0  0  0  0  0  0  # atno 11005 bound_to 11000
  145.9479  139.2713  143.1230 LP  0  0  0  0  0  0  0  0  0  0  0  0  # atno 17320 bound_to 7965
  145.9354  140.9018  143.0335 LP  0  0  0  0  0  0  0  0  0  0  0  0  # atno 17321 bound_to 7965
  140.4807  144.1454  150.5932 LP  0  0  0  0  0  0  0  0  0  0  0  0  # atno 17342 bound_to 10162
  140.4281  143.2581  151.9631 LP  0  0  0  0  0  0  0  0  0  0  0  0  # atno 17343 bound_to 10162
  156.0944  130.3660  150.0333 LP  0  0  0  0  0  0  0  0  0  0  0  0  # atno 17370 bound_to 10713
  156.8459  130.9442  151.3629 LP  0  0  0  0  0  0  0  0  0  0  0  0  # atno 17371 bound_to 10713
  139.8851  135.0069  156.6411 LP  0  0  0  0  0  0  0  0  0  0  0  0  # atno 17394 bound_to 11000
  140.7587  133.8836  155.8401 LP  0  0  0  0  0  0  0  0  0  0  0  0  # atno 17395 bound_to 11000

$$$$
