AV-unprocessed.smi:1986|AV-procd|sdf|8050|dock7
  -GOLD-   2272010253D 1   1.00000     0.00000
 Structure written by MMmdl.
 47 48  0  0  0  0  0  0  0  0  1 V2000
  147.4194  142.1192  154.3540 C   0  0  0  0  0  0  0  0  0  0  0  0
  146.8129  140.9921  155.2095 C   0  0  0  0  0  0  0  0  0  0  0  0
  147.6331  140.5897  156.4770 C   0  0  1  0  0  0  0  0  0  0  0  0
  147.7272  141.8622  157.3621 C   0  0  0  0  0  0  0  0  0  0  0  0
  146.8216  139.5089  157.2583 C   0  0  0  0  0  0  0  0  0  0  0  0
  147.6761  138.5037  157.8874 N   0  0  0  0  0  0  0  0  0  0  0  0
  147.2683  137.5510  158.7378 C   0  0  0  0  0  0  0  0  0  0  0  0
  146.0905  137.3836  159.0564 O   0  0  0  0  0  0  0  0  0  0  0  0
  148.3669  136.6362  159.2975 C   0  0  0  0  0  0  0  0  0  0  0  0
  147.8886  135.7493  160.3675 N   0  0  0  0  0  0  0  0  0  0  0  0
  148.0230  134.3978  160.0881 N   0  0  0  0  0  0  0  0  0  0  0  0
  147.6323  133.5200  160.9489 C   0  0  0  0  0  0  0  0  0  0  0  0
  147.7819  132.1927  160.6305 O   0  0  0  0  0  0  0  0  0  0  0  0
  147.0537  133.9170  162.2137 C   0  0  0  0  0  0  0  0  0  0  0  0
  146.9316  135.2360  162.4790 C   0  0  0  0  0  0  0  0  0  0  0  0
  147.3666  136.2585  161.5259 C   0  0  0  0  0  0  0  0  0  0  0  0
  147.2736  137.4666  161.7435 O   0  0  0  0  0  0  0  0  0  0  0  0
  148.9954  140.1114  156.1063 N   0  0  0  0  0  0  0  0  0  0  0  0
  149.0570  139.2698  154.9053 C   0  0  0  0  0  0  0  0  0  0  0  0
  150.4663  138.6986  154.6734 C   0  0  0  0  0  0  0  0  0  0  0  0
  151.4074  139.7620  154.5887 O   0  0  0  0  0  0  0  0  0  0  0  0
  151.4193  140.5709  155.7587 C   0  0  0  0  0  0  0  0  0  0  0  0
  150.0181  141.1589  155.9950 C   0  0  0  0  0  0  0  0  0  0  0  0
  148.3541  132.1786  159.8788 H   0  0  0  0  0  0  0  0  0  0  0  0
  146.7854  142.3246  153.4915 H   0  0  0  0  0  0  0  0  0  0  0  0
  148.4067  141.8556  153.9751 H   0  0  0  0  0  0  0  0  0  0  0  0
  147.5118  143.0485  154.9154 H   0  0  0  0  0  0  0  0  0  0  0  0
  145.8105  141.3100  155.4984 H   0  0  0  0  0  0  0  0  0  0  0  0
  146.6455  140.1211  154.5760 H   0  0  0  0  0  0  0  0  0  0  0  0
  146.7690  142.3759  157.4473 H   0  0  0  0  0  0  0  0  0  0  0  0
  148.4399  142.5814  156.9576 H   0  0  0  0  0  0  0  0  0  0  0  0
  148.0426  141.6296  158.3794 H   0  0  0  0  0  0  0  0  0  0  0  0
  146.1995  139.9848  158.0169 H   0  0  0  0  0  0  0  0  0  0  0  0
  146.1426  138.9733  156.5955 H   0  0  0  0  0  0  0  0  0  0  0  0
  148.6625  138.5576  157.6789 H   0  0  0  0  0  0  0  0  0  0  0  0
  148.7711  136.0508  158.4697 H   0  0  0  0  0  0  0  0  0  0  0  0
  149.2004  137.2382  159.6647 H   0  0  0  0  0  0  0  0  0  0  0  0
  146.7302  133.1693  162.9226 H   0  0  0  0  0  0  0  0  0  0  0  0
  146.5012  135.5468  163.4196 H   0  0  0  0  0  0  0  0  0  0  0  0
  148.3672  138.4310  154.9803 H   0  0  0  0  0  0  0  0  0  0  0  0
  148.7649  139.8431  154.0257 H   0  0  0  0  0  0  0  0  0  0  0  0
  150.7454  138.0190  155.4802 H   0  0  0  0  0  0  0  0  0  0  0  0
  150.4944  138.1246  153.7472 H   0  0  0  0  0  0  0  0  0  0  0  0
  151.7392  139.9786  156.6176 H   0  0  0  0  0  0  0  0  0  0  0  0
  152.1491  141.3705  155.6312 H   0  0  0  0  0  0  0  0  0  0  0  0
  149.7809  141.8344  155.1732 H   0  0  0  0  0  0  0  0  0  0  0  0
  150.0599  141.7637  156.8989 H   0  0  0  0  0  0  0  0  0  0  0  0
  1  2  1  0  0  0  0
  1 25  1  0  0  0  0
  1 26  1  0  0  0  0
  1 27  1  0  0  0  0
  2  3  1  0  0  0  0
  2 28  1  0  0  0  0
  2 29  1  0  0  0  0
  3  4  1  0  0  0  0
  3  5  1  0  0  0  0
  3 18  1  0  0  0  0
  4 30  1  0  0  0  0
  4 31  1  0  0  0  0
  4 32  1  0  0  0  0
  5  6  1  0  0  0  0
  5 33  1  0  0  0  0
  5 34  1  0  0  0  0
  6  7  1  0  0  0  0
  6 35  1  0  0  0  0
  7  8  2  0  0  0  0
  7  9  1  0  0  0  0
  9 36  1  0  0  0  0
  9 37  1  0  0  0  0
  9 10  1  0  0  0  0
 10 11  1  0  0  0  0
 10 16  1  0  0  0  0
 11 12  2  0  0  0  0
 12 13  1  0  0  0  0
 12 14  1  0  0  0  0
 13 24  1  0  0  0  0
 14 38  1  0  0  0  0
 14 15  2  0  0  0  0
 15 39  1  0  0  0  0
 15 16  1  0  0  0  0
 16 17  2  0  0  0  0
 18 23  1  0  0  0  0
 18 19  1  0  0  0  0
 19 20  1  0  0  0  0
 19 40  1  0  0  0  0
 19 41  1  0  0  0  0
 20 21  1  0  0  0  0
 20 42  1  0  0  0  0
 20 43  1  0  0  0  0
 21 22  1  0  0  0  0
 22 23  1  0  0  0  0
 22 44  1  0  0  0  0
 22 45  1  0  0  0  0
 23 46  1  0  0  0  0
 23 47  1  0  0  0  0
M  END
> <s_m_source_file>
AV-unprocessed.smi

> <i_m_source_file_index>
1986

> <i_lp_mmshare_version>
43012

> <i_f3d_flags>
0

> <s_epik_input>
W0NIMl0xW0NIMl1PW0NIMl1bQ0gyXU4xW0NAQF0oW0NIM10pKFtDSDJdW0NIM10pW0NIMl1bTkhdQyg9TylbQ0gyXW4yW25IXWMoPU8pW2NIXVtjSF1jMj1P

> <s_epik_cmdline>
J2VwaWtfcHl0aG9uJywgJy1waCcsICc3LjAnLCAnLXRuJywgJzgnLCAnLW1hJywgJzIwMCcsICctbWV0YWxfYmluZGluZycsICctaW1hZScsICc8aW5maWxlLm1hZT4nLCAnLW9tYWUnLCAnPG91dGZpbGUubWFlPic=

> <r_epik_Ionization_Penalty>
2.44436

> <r_epik_Ionization_Penalty_Charging>
3.63754e-08

> <r_epik_Ionization_Penalty_Neutral>
2.44436

> <r_epik_State_Penalty>
2.04701

> <r_epik_Charging_Adjusted_Penalty>
2.04701

> <i_epik_Tot_Q>
0

> <i_epik_Tot_abs_Q>
0

> <r_epik_Metal_State_Penalty>
2.04701

> <b_epik_Metal_Only>
0

> <s_lp_Force_Field>
OPLS_2005

> <r_lp_Energy>
55.4417

> <b_lp_Chiralities_Consistent>
1

> <s_lp_Variant>
AV-unprocessed.smi:1986-5

> <Gold.Version>
5.8.1

> <Gold.Id.Protein>
6NUR|6NUR_protein|mol2

> <Gold.PLP.Fitness>
40.8657

> <Gold.PLP.PLP>
-36.6175

> <Gold.PLP.part.hbond>
-3.0000

> <Gold.PLP.part.metal>
0.0000

> <Gold.PLP.part.buried>
-5.0946

> <Gold.PLP.part.nonpolar>
-28.6458

> <Gold.PLP.part.repulsive>
0.1819

> <Gold.PLP.ligand.clash>
0.0000

> <Gold.PLP.ligand.torsion>
1.7449

> <Gold.PLP.Chemscore.Hbond>
2.5360

> <Gold.PLP.Chemscore.CHOScore>
0.0000

> <Gold.PLP.Chemscore.Metal>
0.0000

> <Gold.Chemscore.Hbonds>
donor molecule, donor type, donor heavy atom, donor atom, acceptor molecule, acceptor atom, score
      P1  H  6931  6943       L1    17  0.75
      P1  H  6934  6947       L1    17  0.78
      P1  H  7989  7998       L1    21  1.00

> <Gold.PLP.Chemscore.Internal.Correction>
0.1300

> <Gold.Rescore>
     Score         DG    S(hbond)    S(metal)    S(lipo)     H(rot)  DE(clash)    DE(int)     intcor
     10.89     -13.07       2.58        0.00      58.08       3.06       0.00       2.18       ----

> <Gold.Chemscore.Fitness>
10.8898

> <Gold.Chemscore.DG>
-13.0664

> <Gold.Chemscore.ZeroCoef>
-5.4800

> <Gold.Chemscore.Hbond>
2.5839

> <Gold.Chemscore.Metal>
0.0000

> <Gold.Chemscore.Lipo>
58.0759

> <Gold.Chemscore.Internal_Hbond>
0.0000

> <Gold.Chemscore.DEClash>
0.0000

> <Gold.Chemscore.DEInternal>
2.1766

> <Gold.Chemscore.Rot>
3.0620

> <Gold.Chemscore.Internal.Correction>
   9.000000E+99

> <Gold.Chemscore.Hbonds>
donor molecule, donor type, donor heavy atom, donor atom, acceptor molecule, acceptor atom, score
      P1  H  6931  6943       L1    17  0.58
      P1  H  6934  6947       L1    17  0.80
      P1  H  7989  7998       L1    21  0.25

> <Gold.Chemscore.Hbond.Weighted>
-8.6302

> <Gold.Chemscore.Metal.Weighted>
-0.0000

> <Gold.Chemscore.Lipo.Weighted>
-6.7949

> <Gold.Chemscore.Internal_Hbond.Weighted>
0.0000

> <Gold.Chemscore.DEClash.Weighted>
0.0000

> <Gold.Chemscore.DEInternal.Weighted>
2.1766

> <Gold.Chemscore.Rot.Weighted>
7.8387

> <Gold.Chemscore.Internal.Correction.Weighted>
   9.000000E+99

> <Gold.Protein.RotatedTorsions>
[ 6907 6896 6895 6894 ] final -131.10 input  -60.11 | X-H torsion
[ 7974 7965 7964 7962 ] final  -26.26 input  175.53 | X-H torsion
[ 8008 7997 7996 7995 ] final -176.42 input   59.86 | X-H torsion
[ 10167 10162 10161 10158 ] final   57.73 input  -65.29 | X-H torsion
[ 10718 10713 10712 10709 ] final  129.84 input   66.30 | X-H torsion
[ 10763 10752 10751 10750 ] final -138.23 input  -60.55 | X-H torsion
[ 11005 11000 10999 10996 ] final    0.87 input  -57.11 | X-H torsion

> <Gold.Protein.ActiveResidues>
 VAL166  LYS551  ARG553  GLY616  TRP617  ASP618  TYR619  PRO620  LYS621  CYS622 
 ASP623  PHE694  ASN695  SER759  ASP760  ASP761  ALA762  ILE779  LEU786  VAL792 
 PHE793  MET794  SER795  GLU796  ALA797  LYS798  CYS799  TRP800  GLU811  SER814 

> <Gold.Protein.RotatedAtoms>
  150.9471  133.6590  159.2778 H   0  0  0  0  0  0  0  0  0  0  0  0  # atno 6907 bound_to 6896
  151.3959  135.0962  159.9550 H   0  0  0  0  0  0  0  0  0  0  0  0  # atno 6908 bound_to 6896
  152.5094  133.8976  159.7479 H   0  0  0  0  0  0  0  0  0  0  0  0  # atno 6909 bound_to 6896
  146.1437  140.4995  142.8641 H   0  0  0  0  0  0  0  0  0  0  0  0  # atno 7974 bound_to 7965
  155.9946  140.1208  157.0606 H   0  0  0  0  0  0  0  0  0  0  0  0  # atno 8008 bound_to 7997
  154.4222  140.1119  156.5681 H   0  0  0  0  0  0  0  0  0  0  0  0  # atno 8009 bound_to 7997
  155.6296  140.3473  155.4680 H   0  0  0  0  0  0  0  0  0  0  0  0  # atno 8010 bound_to 7997
  140.1949  144.4048  150.6554 H   0  0  0  0  0  0  0  0  0  0  0  0  # atno 10167 bound_to 10162
  157.5117  131.1097  150.9283 H   0  0  0  0  0  0  0  0  0  0  0  0  # atno 10718 bound_to 10713
  154.8642  135.3618  154.5351 H   0  0  0  0  0  0  0  0  0  0  0  0  # atno 10763 bound_to 10752
  153.5975  135.7013  153.5402 H   0  0  0  0  0  0  0  0  0  0  0  0  # atno 10764 bound_to 10752
  153.3319  135.4122  155.1464 H   0  0  0  0  0  0  0  0  0  0  0  0  # atno 10765 bound_to 10752
  140.6217  133.9655  155.8228 H   0  0  0  0  0  0  0  0  0  0  0  0  # atno 11005 bound_to 11000
  144.7822  140.5863  143.6598 LP  0  0  0  0  0  0  0  0  0  0  0  0  # atno 17320 bound_to 7965
  145.4987  139.1484  143.3669 LP  0  0  0  0  0  0  0  0  0  0  0  0  # atno 17321 bound_to 7965
  140.6430  143.2207  151.6247 LP  0  0  0  0  0  0  0  0  0  0  0  0  # atno 17342 bound_to 10162
  139.5241  144.3114  152.0989 LP  0  0  0  0  0  0  0  0  0  0  0  0  # atno 17343 bound_to 10162
  156.9921  130.5567  149.5304 LP  0  0  0  0  0  0  0  0  0  0  0  0  # atno 17370 bound_to 10713
  156.0293  130.5385  150.8492 LP  0  0  0  0  0  0  0  0  0  0  0  0  # atno 17371 bound_to 10713
  141.0737  134.0166  157.3488 LP  0  0  0  0  0  0  0  0  0  0  0  0  # atno 17394 bound_to 11000
  139.9151  135.0195  156.7847 LP  0  0  0  0  0  0  0  0  0  0  0  0  # atno 17395 bound_to 11000

$$$$
