AV-unprocessed.smi:255|AV-procd|sdf|1953|dock2
  -GOLD-   2262021 93D 1   1.00000     0.00000
 Structure written by MMmdl.
 44 47  0  0  0  0  0  0  0  0  1 V2000
  150.0060  142.2840  155.9031 O   0  0  0  0  0  0  0  0  0  0  0  0
  150.9778  142.6297  156.8672 C   0  0  0  0  0  0  0  0  0  0  0  0
  151.2210  141.4551  157.8337 C   0  0  2  0  0  0  0  0  0  0  0  0
  152.0860  141.8348  159.0357 C   0  0  0  0  0  0  0  0  0  0  0  0
  152.5446  140.4676  159.5293 C   0  0  2  0  0  0  0  0  0  0  0  0
  153.6632  140.5329  160.2507 F   0  0  0  0  0  0  0  0  0  0  0  0
  152.7199  139.6571  158.2415 C   0  0  0  0  0  0  0  0  0  0  0  0
  151.9505  140.3521  157.2116 N   0  0  0  0  0  0  0  0  0  0  0  0
  151.2127  139.5591  156.4040 C   0  0  0  0  0  0  0  0  0  0  0  0
  150.9659  139.9308  155.1201 N   0  0  0  0  0  0  0  0  0  0  0  0
  150.2500  139.1324  154.3223 C   0  0  0  0  0  0  0  0  0  0  0  0
  149.7005  137.9478  154.6014 N   0  0  0  0  0  0  0  0  0  0  0  0
  149.9485  137.5759  155.8905 C   0  0  0  0  0  0  0  0  0  0  0  0
  150.6939  138.3162  156.8494 C   0  0  0  0  0  0  0  0  0  0  0  0
  150.7511  137.6232  158.0510 N   0  0  0  0  0  0  0  0  0  0  0  0
  150.0709  136.5336  157.8178 C   0  0  0  0  0  0  0  0  0  0  0  0
  149.5443  136.4275  156.5491 N   0  0  0  0  0  0  0  0  0  0  0  0
  148.7496  135.3263  156.0254 C   0  0  0  0  0  0  0  0  0  0  0  0
  149.5422  134.3740  155.0969 C   0  0  2  0  0  0  0  0  0  0  0  0
  150.2331  135.1472  154.1319 O   0  0  0  0  0  0  0  0  0  0  0  0
  148.6354  133.3744  154.3757 C   0  0  0  0  0  0  0  0  0  0  0  0
  148.9408  132.0520  155.0684 C   0  0  0  0  0  0  0  0  0  0  0  0
  150.3255  132.1629  155.3441 O   0  0  0  0  0  0  0  0  0  0  0  0
  150.5476  133.4735  155.8440 C   0  0  0  0  0  0  0  0  0  0  0  0
  150.2641  141.0959  158.2180 H   0  0  0  0  0  0  0  0  0  0  0  0
  151.7730  140.0165  160.1547 H   0  0  0  0  0  0  0  0  0  0  0  0
  149.6240  143.0787  155.5632 H   0  0  0  0  0  0  0  0  0  0  0  0
  151.9004  142.9518  156.3829 H   0  0  0  0  0  0  0  0  0  0  0  0
  150.5883  143.4878  157.4157 H   0  0  0  0  0  0  0  0  0  0  0  0
  152.9448  142.4273  158.7151 H   0  0  0  0  0  0  0  0  0  0  0  0
  151.5422  142.4011  159.7925 H   0  0  0  0  0  0  0  0  0  0  0  0
  153.7653  139.6613  157.9315 H   0  0  0  0  0  0  0  0  0  0  0  0
  152.4254  138.6161  158.3823 H   0  0  0  0  0  0  0  0  0  0  0  0
  150.0961  139.4936  153.3161 H   0  0  0  0  0  0  0  0  0  0  0  0
  149.9290  135.7732  158.5719 H   0  0  0  0  0  0  0  0  0  0  0  0
  148.3394  134.7687  156.8684 H   0  0  0  0  0  0  0  0  0  0  0  0
  147.8941  135.7465  155.4946 H   0  0  0  0  0  0  0  0  0  0  0  0
  149.6017  135.6692  153.6606 H   0  0  0  0  0  0  0  0  0  0  0  0
  147.5769  133.6337  154.4211 H   0  0  0  0  0  0  0  0  0  0  0  0
  148.9056  133.2896  153.3216 H   0  0  0  0  0  0  0  0  0  0  0  0
  148.3831  131.9584  156.0019 H   0  0  0  0  0  0  0  0  0  0  0  0
  148.7208  131.1863  154.4436 H   0  0  0  0  0  0  0  0  0  0  0  0
  151.5872  133.7778  155.7166 H   0  0  0  0  0  0  0  0  0  0  0  0
  150.3404  133.4527  156.9138 H   0  0  0  0  0  0  0  0  0  0  0  0
  1  2  1  0  0  0  0
  1 27  1  0  0  0  0
  2  3  1  0  0  0  0
  2 28  1  0  0  0  0
  2 29  1  0  0  0  0
  3 25  1  0  0  0  0
  3  8  1  0  0  0  0
  3  4  1  0  0  0  0
  4  5  1  0  0  0  0
  4 30  1  0  0  0  0
  4 31  1  0  0  0  0
  5 26  1  0  0  0  0
  5  6  1  0  0  0  0
  5  7  1  0  0  0  0
  7  8  1  0  0  0  0
  7 32  1  0  0  0  0
  7 33  1  0  0  0  0
  8  9  1  0  0  0  0
  9 14  1  0  0  0  0
  9 10  2  0  0  0  0
 10 11  1  0  0  0  0
 11 12  2  0  0  0  0
 11 34  1  0  0  0  0
 12 13  1  0  0  0  0
 13 17  1  0  0  0  0
 13 14  2  0  0  0  0
 14 15  1  0  0  0  0
 15 16  2  0  0  0  0
 16 17  1  0  0  0  0
 16 35  1  0  0  0  0
 17 18  1  0  0  0  0
 18 19  1  0  0  0  0
 18 36  1  0  0  0  0
 18 37  1  0  0  0  0
 19 24  1  0  0  0  0
 19 20  1  0  0  0  0
 19 21  1  0  0  0  0
 20 38  1  0  0  0  0
 21 22  1  0  0  0  0
 21 39  1  0  0  0  0
 21 40  1  0  0  0  0
 22 23  1  0  0  0  0
 22 41  1  0  0  0  0
 22 42  1  0  0  0  0
 23 24  1  0  0  0  0
 24 43  1  0  0  0  0
 24 44  1  0  0  0  0
M  END
> <s_m_source_file>
AV-unprocessed.smi

> <i_m_source_file_index>
255

> <i_lp_mmshare_version>
43012

> <i_f3d_flags>
0

> <s_epik_input>
W09IXVtDSDJdW0NAQEhdMVtDSDJdW0NASF0oRilbQ0gyXU4xYyhuW2NIXW4yKWMoYzIzKW5bY0hdbjNbQ0gyXVtDQEBdNChbT0hdKVtDSDJdW0NIMl1PW0NIMl00

> <s_epik_cmdline>
J2VwaWtfcHl0aG9uJywgJy1waCcsICc3LjAnLCAnLXRuJywgJzgnLCAnLW1hJywgJzIwMCcsICctbWV0YWxfYmluZGluZycsICctaW1hZScsICc8aW5maWxlLm1hZT4nLCAnLW9tYWUnLCAnPG91dGZpbGUubWFlPic=

> <r_lp_tautomer_probability>
1

> <r_epik_Ionization_Penalty>
0.0058098

> <r_epik_Ionization_Penalty_Charging>
0

> <r_epik_Ionization_Penalty_Neutral>
0.0058098

> <r_epik_State_Penalty>
0.00411166

> <r_epik_Charging_Adjusted_Penalty>
0.00411166

> <i_epik_Tot_Q>
0

> <i_epik_Tot_abs_Q>
0

> <r_epik_Metal_State_Penalty>
-0

> <b_epik_Metal_Only>
0

> <s_lp_Force_Field>
OPLS_2005

> <r_lp_Energy>
52.96

> <b_lp_Chiralities_Consistent>
1

> <s_lp_Variant>
AV-unprocessed.smi:255-5

> <Gold.Version>
5.8.1

> <Gold.Id.Protein>
6NUR|6NUR_protein|mol2

> <Gold.PLP.Fitness>
37.9064

> <Gold.PLP.PLP>
-29.8246

> <Gold.PLP.part.hbond>
-4.0000

> <Gold.PLP.part.metal>
0.0000

> <Gold.PLP.part.buried>
-3.2977

> <Gold.PLP.part.nonpolar>
-23.3436

> <Gold.PLP.part.repulsive>
0.2420

> <Gold.PLP.ligand.clash>
0.0000

> <Gold.PLP.ligand.torsion>
1.0497

> <Gold.PLP.Chemscore.Hbond>
2.3640

> <Gold.PLP.Chemscore.CHOScore>
1.0000

> <Gold.PLP.Chemscore.Metal>
0.0000

> <Gold.Chemscore.Hbonds>
donor molecule, donor type, donor heavy atom, donor atom, acceptor molecule, acceptor atom, score
      L1  H     1    27       P1  8028  1.00
      L1  H    20    38       P1  7948  0.79
      P1  H  7989  7998       L1    10  0.45
      L1  C    11    34       P1  7957  1.00

> <Gold.PLP.Chemscore.Internal.Correction>
0.0892

> <Gold.Rescore>
     Score         DG    S(hbond)    S(metal)    S(lipo)     H(rot)  DE(clash)    DE(int)     intcor
      5.36     -10.21       2.05        0.00      54.71       3.33       0.11       4.74       ----

> <Gold.Chemscore.Fitness>
5.3572

> <Gold.Chemscore.DG>
-10.2117

> <Gold.Chemscore.ZeroCoef>
-5.4800

> <Gold.Chemscore.Hbond>
2.0504

> <Gold.Chemscore.Metal>
0.0000

> <Gold.Chemscore.Lipo>
54.7124

> <Gold.Chemscore.Internal_Hbond>
0.0000

> <Gold.Chemscore.DEClash>
0.1131

> <Gold.Chemscore.DEInternal>
4.7415

> <Gold.Chemscore.Rot>
3.3273

> <Gold.Chemscore.Internal.Correction>
   9.000000E+99

> <Gold.Chemscore.Hbonds>
donor molecule, donor type, donor heavy atom, donor atom, acceptor molecule, acceptor atom, score
      L1  H     1    27       P1  8028  0.99
      L1  H    20    38       P1  7948  0.15
      P1  H  7989  7998       L1    10  0.02

> <Gold.Chemscore.Hbond.Weighted>
-6.8483

> <Gold.Chemscore.Metal.Weighted>
-0.0000

> <Gold.Chemscore.Lipo.Weighted>
-6.4013

> <Gold.Chemscore.Internal_Hbond.Weighted>
0.0000

> <Gold.Chemscore.DEClash.Weighted>
0.1131

> <Gold.Chemscore.DEInternal.Weighted>
4.7415

> <Gold.Chemscore.Rot.Weighted>
8.5179

> <Gold.Chemscore.Internal.Correction.Weighted>
   9.000000E+99

> <Gold.Protein.RotatedTorsions>
[ 6907 6896 6895 6894 ] final  -29.30 input  -60.11 | X-H torsion
[ 7974 7965 7964 7962 ] final   97.56 input  175.53 | X-H torsion
[ 8008 7997 7996 7995 ] final  168.69 input   59.86 | X-H torsion
[ 10167 10162 10161 10158 ] final   26.47 input  -65.29 | X-H torsion
[ 10718 10713 10712 10709 ] final -104.45 input   66.30 | X-H torsion
[ 10763 10752 10751 10750 ] final -113.86 input  -60.55 | X-H torsion
[ 11005 11000 10999 10996 ] final -154.40 input  -57.11 | X-H torsion

> <Gold.Protein.ActiveResidues>
 VAL166  LYS551  ARG553  GLY616  TRP617  ASP618  TYR619  PRO620  LYS621  CYS622 
 ASP623  PHE694  ASN695  SER759  ASP760  ASP761  ALA762  ILE779  LEU786  VAL792 
 PHE793  MET794  SER795  GLU796  ALA797  LYS798  CYS799  TRP800  GLU811  SER814 

> <Gold.Protein.RotatedAtoms>
  151.1210  135.0079  159.8538 H   0  0  0  0  0  0  0  0  0  0  0  0  # atno 6907 bound_to 6896
  152.5448  134.1722  159.8611 H   0  0  0  0  0  0  0  0  0  0  0  0  # atno 6908 bound_to 6896
  151.1781  133.4697  159.2627 H   0  0  0  0  0  0  0  0  0  0  0  0  # atno 6909 bound_to 6896
  145.4238  139.2318  143.3181 H   0  0  0  0  0  0  0  0  0  0  0  0  # atno 7974 bound_to 7965
  156.1524  140.1584  156.8747 H   0  0  0  0  0  0  0  0  0  0  0  0  # atno 8008 bound_to 7997
  154.5084  140.0807  156.7976 H   0  0  0  0  0  0  0  0  0  0  0  0  # atno 8009 bound_to 7997
  155.3869  140.3408  155.4251 H   0  0  0  0  0  0  0  0  0  0  0  0  # atno 8010 bound_to 7997
  140.5020  144.0299  150.6337 H   0  0  0  0  0  0  0  0  0  0  0  0  # atno 10167 bound_to 10162
  156.0305  130.5515  150.7398 H   0  0  0  0  0  0  0  0  0  0  0  0  # atno 10718 bound_to 10713
  154.8415  135.4439  154.1416 H   0  0  0  0  0  0  0  0  0  0  0  0  # atno 10763 bound_to 10752
  153.2599  135.6935  153.7595 H   0  0  0  0  0  0  0  0  0  0  0  0  # atno 10764 bound_to 10752
  153.6875  135.3392  155.3169 H   0  0  0  0  0  0  0  0  0  0  0  0  # atno 10765 bound_to 10752
  140.6977  134.3972  157.5213 H   0  0  0  0  0  0  0  0  0  0  0  0  # atno 11005 bound_to 11000
  146.2643  140.4966  142.8841 LP  0  0  0  0  0  0  0  0  0  0  0  0  # atno 17320 bound_to 7965
  144.8228  140.6578  143.6342 LP  0  0  0  0  0  0  0  0  0  0  0  0  # atno 17321 bound_to 7965
  140.3598  143.2915  152.0396 LP  0  0  0  0  0  0  0  0  0  0  0  0  # atno 17342 bound_to 10162
  139.4874  144.6311  151.7067 LP  0  0  0  0  0  0  0  0  0  0  0  0  # atno 17343 bound_to 10162
  157.4969  131.0915  151.0360 LP  0  0  0  0  0  0  0  0  0  0  0  0  # atno 17370 bound_to 10713
  157.0752  130.5880  149.5410 LP  0  0  0  0  0  0  0  0  0  0  0  0  # atno 17371 bound_to 10713
  139.8905  134.8802  156.2365 LP  0  0  0  0  0  0  0  0  0  0  0  0  # atno 17394 bound_to 11000
  141.0189  133.7052  156.1235 LP  0  0  0  0  0  0  0  0  0  0  0  0  # atno 17395 bound_to 11000

$$$$
