AV-unprocessed.smi:1024|AV-procd|sdf|4465|dock7
  -GOLD-   22720 2443D 1   1.00000     0.00000
 Structure written by MMmdl.
 47 49  0  0  0  0  0  0  0  0  1 V2000
  150.0468  139.7997  153.9107 O   0  0  0  0  0  0  0  0  0  0  0  0
  149.6285  139.5057  155.0316 C   0  0  0  0  0  0  0  0  0  0  0  0
  148.4638  138.8593  155.2096 N   0  0  0  0  0  0  0  0  0  0  0  0
  147.5537  138.4524  154.1460 C   0  0  0  0  0  0  0  0  0  0  0  0
  146.2789  137.8062  154.7119 C   0  0  0  0  0  0  0  0  0  0  0  0
  145.5419  137.0994  153.6844 N   0  0  0  0  0  0  0  0  0  0  0  0
  145.9958  136.0454  152.9027 C   0  0  0  0  0  0  0  0  0  0  0  0
  144.9570  135.7003  152.0678 C   0  0  0  0  0  0  0  0  0  0  0  0
  143.8618  136.5245  152.3163 N   0  0  0  0  0  0  0  0  0  0  0  0
  144.2832  137.3273  153.2851 C   0  0  0  0  0  0  0  0  0  0  0  0
  150.3097  139.7750  156.1745 N   0  0  0  0  0  0  0  0  0  0  0  0
  149.7842  139.6790  157.5452 C   0  0  0  0  0  0  0  0  0  0  0  0
  149.5317  141.1027  158.0783 C   0  0  0  0  0  0  0  0  0  0  0  0
  150.8006  142.0003  158.0483 C   0  0  0  0  0  0  0  0  0  0  0  0
  150.3664  143.4637  158.3251 C   0  0  0  0  0  0  0  0  0  0  0  0
  151.5491  144.4312  158.5106 C   0  0  0  0  0  0  0  0  0  0  0  0
  152.4808  143.9585  159.6341 C   0  0  0  0  0  0  0  0  0  0  0  0
  152.9627  142.5237  159.3833 C   0  0  0  0  0  0  0  0  0  0  0  0
  151.7780  141.5616  159.1769 C   0  0  0  0  0  0  0  0  0  0  0  0
  151.4537  141.8892  156.6381 C   0  0  0  0  0  0  0  0  0  0  0  0
  151.6200  140.4330  156.1612 C   0  0  0  0  0  0  0  0  0  0  0  0
  148.1879  138.6375  156.1552 H   0  0  0  0  0  0  0  0  0  0  0  0
  147.3046  139.3086  153.5167 H   0  0  0  0  0  0  0  0  0  0  0  0
  148.0789  137.7411  153.5080 H   0  0  0  0  0  0  0  0  0  0  0  0
  146.5282  137.1012  155.5062 H   0  0  0  0  0  0  0  0  0  0  0  0
  145.6235  138.5603  155.1500 H   0  0  0  0  0  0  0  0  0  0  0  0
  146.9921  135.6401  153.0020 H   0  0  0  0  0  0  0  0  0  0  0  0
  144.9143  134.9289  151.3130 H   0  0  0  0  0  0  0  0  0  0  0  0
  143.6619  138.1001  153.7138 H   0  0  0  0  0  0  0  0  0  0  0  0
  148.8681  139.0944  157.6263 H   0  0  0  0  0  0  0  0  0  0  0  0
  150.5065  139.1561  158.1727 H   0  0  0  0  0  0  0  0  0  0  0  0
  148.7488  141.5596  157.4706 H   0  0  0  0  0  0  0  0  0  0  0  0
  149.1268  141.0497  159.0896 H   0  0  0  0  0  0  0  0  0  0  0  0
  149.7256  143.8263  157.5205 H   0  0  0  0  0  0  0  0  0  0  0  0
  149.7540  143.4937  159.2276 H   0  0  0  0  0  0  0  0  0  0  0  0
  152.1089  144.5249  157.5796 H   0  0  0  0  0  0  0  0  0  0  0  0
  151.1745  145.4290  158.7408 H   0  0  0  0  0  0  0  0  0  0  0  0
  153.3351  144.6306  159.7194 H   0  0  0  0  0  0  0  0  0  0  0  0
  151.9536  144.0049  160.5878 H   0  0  0  0  0  0  0  0  0  0  0  0
  153.6248  142.5007  158.5180 H   0  0  0  0  0  0  0  0  0  0  0  0
  153.5636  142.1875  160.2286 H   0  0  0  0  0  0  0  0  0  0  0  0
  151.2301  141.4966  160.1179 H   0  0  0  0  0  0  0  0  0  0  0  0
  152.1638  140.5594  158.9959 H   0  0  0  0  0  0  0  0  0  0  0  0
  150.8311  142.4135  155.9116 H   0  0  0  0  0  0  0  0  0  0  0  0
  152.4196  142.3909  156.6063 H   0  0  0  0  0  0  0  0  0  0  0  0
  152.3088  139.8889  156.8076 H   0  0  0  0  0  0  0  0  0  0  0  0
  152.0836  140.4207  155.1738 H   0  0  0  0  0  0  0  0  0  0  0  0
  1  2  2  0  0  0  0
  2  3  1  0  0  0  0
  2 11  1  0  0  0  0
  3  4  1  0  0  0  0
  3 22  1  0  0  0  0
  4  5  1  0  0  0  0
  4 23  1  0  0  0  0
  4 24  1  0  0  0  0
  5  6  1  0  0  0  0
  5 25  1  0  0  0  0
  5 26  1  0  0  0  0
  6 10  1  0  0  0  0
  6  7  1  0  0  0  0
  7  8  2  0  0  0  0
  7 27  1  0  0  0  0
  8  9  1  0  0  0  0
  8 28  1  0  0  0  0
  9 10  2  0  0  0  0
 10 29  1  0  0  0  0
 11 21  1  0  0  0  0
 11 12  1  0  0  0  0
 12 13  1  0  0  0  0
 12 30  1  0  0  0  0
 12 31  1  0  0  0  0
 13 14  1  0  0  0  0
 13 32  1  0  0  0  0
 13 33  1  0  0  0  0
 14 19  1  0  0  0  0
 14 15  1  0  0  0  0
 14 20  1  0  0  0  0
 15 16  1  0  0  0  0
 15 34  1  0  0  0  0
 15 35  1  0  0  0  0
 16 17  1  0  0  0  0
 16 36  1  0  0  0  0
 16 37  1  0  0  0  0
 17 18  1  0  0  0  0
 17 38  1  0  0  0  0
 17 39  1  0  0  0  0
 18 19  1  0  0  0  0
 18 40  1  0  0  0  0
 18 41  1  0  0  0  0
 19 42  1  0  0  0  0
 19 43  1  0  0  0  0
 20 21  1  0  0  0  0
 20 44  1  0  0  0  0
 20 45  1  0  0  0  0
 21 46  1  0  0  0  0
 21 47  1  0  0  0  0
M  END
> <s_m_source_file>
AV-unprocessed.smi

> <i_m_source_file_index>
1024

> <i_lp_mmshare_version>
43012

> <i_f3d_flags>
0

> <s_epik_input>
W2NIXTFuW2NIXVtjSF1uMVtDSDJdW0NIMl1bTkhdQyg9TylOKFtDSDJdW0NIMl0yKVtDSDJdW0NIMl1DMjNbQ0gyXVtDSDJdW0NIMl1bQ0gyXVtDSDJdMw==

> <s_epik_cmdline>
J2VwaWtfcHl0aG9uJywgJy1waCcsICc3LjAnLCAnLXRuJywgJzgnLCAnLW1hJywgJzIwMCcsICctbWV0YWxfYmluZGluZycsICctaW1hZScsICc8aW5maWxlLm1hZT4nLCAnLW9tYWUnLCAnPG91dGZpbGUubWFlPic=

> <r_lp_tautomer_probability>
1

> <r_epik_Ionization_Penalty>
0.632392

> <r_epik_Ionization_Penalty_Charging>
0.632323

> <r_epik_Ionization_Penalty_Neutral>
6.90503e-05

> <r_epik_State_Penalty>
0.649284

> <r_epik_Charging_Adjusted_Penalty>
1.28161

> <i_epik_Tot_Q>
0

> <i_epik_Tot_abs_Q>
0

> <r_epik_Metal_State_Penalty>
0.309626

> <b_epik_Metal_Only>
0

> <s_lp_Force_Field>
OPLS_2005

> <r_lp_Energy>
42.875

> <b_lp_Chiralities_Consistent>
1

> <s_lp_Variant>
AV-unprocessed.smi:1024-2

> <Gold.Version>
5.8.1

> <Gold.Id.Protein>
6NUR|6NUR_protein|mol2

> <Gold.PLP.Fitness>
38.2229

> <Gold.PLP.PLP>
-30.2806

> <Gold.PLP.part.hbond>
-1.0000

> <Gold.PLP.part.metal>
0.0000

> <Gold.PLP.part.buried>
-4.4204

> <Gold.PLP.part.nonpolar>
-26.8130

> <Gold.PLP.part.repulsive>
2.6945

> <Gold.PLP.ligand.clash>
0.0000

> <Gold.PLP.ligand.torsion>
0.0942

> <Gold.PLP.Chemscore.Hbond>
0.9440

> <Gold.PLP.Chemscore.CHOScore>
1.7559

> <Gold.PLP.Chemscore.Metal>
0.0000

> <Gold.Chemscore.Hbonds>
donor molecule, donor type, donor heavy atom, donor atom, acceptor molecule, acceptor atom, score
      P1  H  7989  7998       L1     1  0.93
      L1  C     7    27       P1  7948  0.99
      L1  C    10    29       P1 10175  0.52

> <Gold.PLP.Chemscore.Internal.Correction>
0.0310

> <Gold.Rescore>
     Score         DG    S(hbond)    S(metal)    S(lipo)     H(rot)  DE(clash)    DE(int)     intcor
     14.73     -15.30       0.98        0.00      89.19       1.52       0.35       0.22       ----

> <Gold.Chemscore.Fitness>
14.7262

> <Gold.Chemscore.DG>
-15.3021

> <Gold.Chemscore.ZeroCoef>
-5.4800

> <Gold.Chemscore.Hbond>
0.9833

> <Gold.Chemscore.Metal>
0.0000

> <Gold.Chemscore.Lipo>
89.1938

> <Gold.Chemscore.Internal_Hbond>
0.0000

> <Gold.Chemscore.DEClash>
0.3524

> <Gold.Chemscore.DEInternal>
0.2236

> <Gold.Chemscore.Rot>
1.5227

> <Gold.Chemscore.Internal.Correction>
   9.000000E+99

> <Gold.Chemscore.Hbonds>
donor molecule, donor type, donor heavy atom, donor atom, acceptor molecule, acceptor atom, score
      P1  H  7989  7998       L1     1  0.90

> <Gold.Chemscore.Hbond.Weighted>
-3.2844

> <Gold.Chemscore.Metal.Weighted>
-0.0000

> <Gold.Chemscore.Lipo.Weighted>
-10.4357

> <Gold.Chemscore.Internal_Hbond.Weighted>
0.0000

> <Gold.Chemscore.DEClash.Weighted>
0.3524

> <Gold.Chemscore.DEInternal.Weighted>
0.2236

> <Gold.Chemscore.Rot.Weighted>
3.8980

> <Gold.Chemscore.Internal.Correction.Weighted>
   9.000000E+99

> <Gold.Protein.RotatedTorsions>
[ 6907 6896 6895 6894 ] final   55.66 input  -60.11 | X-H torsion
[ 7974 7965 7964 7962 ] final -135.80 input  175.53 | X-H torsion
[ 8008 7997 7996 7995 ] final   26.78 input   59.86 | X-H torsion
[ 10167 10162 10161 10158 ] final -133.26 input  -65.29 | X-H torsion
[ 10718 10713 10712 10709 ] final -145.37 input   66.30 | X-H torsion
[ 10763 10752 10751 10750 ] final   39.14 input  -60.55 | X-H torsion
[ 11005 11000 10999 10996 ] final -158.99 input  -57.11 | X-H torsion

> <Gold.Protein.ActiveResidues>
 VAL166  LYS551  ARG553  GLY616  TRP617  ASP618  TYR619  PRO620  LYS621  CYS622 
 ASP623  PHE694  ASN695  SER759  ASP760  ASP761  ALA762  ILE779  LEU786  VAL792 
 PHE793  MET794  SER795  GLU796  ALA797  LYS798  CYS799  TRP800  GLU811  SER814 

> <Gold.Protein.RotatedAtoms>
  152.3561  134.6938  160.0221 H   0  0  0  0  0  0  0  0  0  0  0  0  # atno 6907 bound_to 6896
  151.7277  133.3311  159.3340 H   0  0  0  0  0  0  0  0  0  0  0  0  # atno 6908 bound_to 6896
  150.7572  134.6325  159.6238 H   0  0  0  0  0  0  0  0  0  0  0  0  # atno 6909 bound_to 6896
  144.8982  140.6735  143.5102 H   0  0  0  0  0  0  0  0  0  0  0  0  # atno 7974 bound_to 7965
  155.0327  140.3160  155.4752 H   0  0  0  0  0  0  0  0  0  0  0  0  # atno 8008 bound_to 7997
  156.2871  140.2177  156.5391 H   0  0  0  0  0  0  0  0  0  0  0  0  # atno 8009 bound_to 7997
  154.7357  140.0477  157.0754 H   0  0  0  0  0  0  0  0  0  0  0  0  # atno 8010 bound_to 7997
  139.9001  143.6618  152.2596 H   0  0  0  0  0  0  0  0  0  0  0  0  # atno 10167 bound_to 10162
  156.3816  130.7840  151.2033 H   0  0  0  0  0  0  0  0  0  0  0  0  # atno 10718 bound_to 10713
  152.9977  135.6229  154.2418 H   0  0  0  0  0  0  0  0  0  0  0  0  # atno 10763 bound_to 10752
  154.2158  135.2798  155.2944 H   0  0  0  0  0  0  0  0  0  0  0  0  # atno 10764 bound_to 10752
  154.5569  135.5717  153.7030 H   0  0  0  0  0  0  0  0  0  0  0  0  # atno 10765 bound_to 10752
  140.6476  134.4485  157.5234 H   0  0  0  0  0  0  0  0  0  0  0  0  # atno 11005 bound_to 11000
  145.3663  139.1669  143.4356 LP  0  0  0  0  0  0  0  0  0  0  0  0  # atno 17320 bound_to 7965
  146.3093  140.3730  142.8676 LP  0  0  0  0  0  0  0  0  0  0  0  0  # atno 17321 bound_to 7965
  139.7033  144.7632  151.1236 LP  0  0  0  0  0  0  0  0  0  0  0  0  # atno 17342 bound_to 10162
  140.7708  143.5429  150.9292 LP  0  0  0  0  0  0  0  0  0  0  0  0  # atno 17343 bound_to 10162
  157.7493  131.0342  150.4308 LP  0  0  0  0  0  0  0  0  0  0  0  0  # atno 17370 bound_to 10713
  156.4553  130.4020  149.6610 LP  0  0  0  0  0  0  0  0  0  0  0  0  # atno 17371 bound_to 10713
  139.9057  134.8454  156.1715 LP  0  0  0  0  0  0  0  0  0  0  0  0  # atno 17394 bound_to 11000
  141.0561  133.6864  156.1863 LP  0  0  0  0  0  0  0  0  0  0  0  0  # atno 17395 bound_to 11000

$$$$
