AV-unprocessed.smi:1951|AV-procd|sdf|7881|dock4
  -GOLD-   2272010 33D 1   1.00000     0.00000
 Structure written by MMmdl.
 46 47  0  0  0  0  0  0  0  0  2 V2000
  153.3296  138.4856  154.5947 C   0  0  0  0  0  0  0  0  0  0  0  0
  152.0061  138.9595  154.3700 O   0  0  0  0  0  0  0  0  0  0  0  0
  151.4458  139.8166  155.2979 C   0  0  0  0  0  0  0  0  0  0  0  0
  152.2056  140.2177  156.3480 N   0  0  0  0  0  0  0  0  0  0  0  0
  151.6584  141.0522  157.2555 C   0  0  0  0  0  0  0  0  0  0  0  0
  150.3349  141.5221  157.1708 C   0  0  0  0  0  0  0  0  0  0  0  0
  149.5452  141.1087  156.0821 C   0  0  0  0  0  0  0  0  0  0  0  0
  150.1107  140.2453  155.1127 C   0  0  0  0  0  0  0  0  0  0  0  0
  149.3947  139.7537  153.9872 N   0  0  0  0  0  0  0  0  0  0  0  0
  148.1183  139.3388  153.9295 C   0  0  0  0  0  0  0  0  0  0  0  0
  147.3333  139.3128  154.8773 O   0  0  0  0  0  0  0  0  0  0  0  0
  147.7821  138.9734  152.6843 N   0  0  0  0  0  0  0  0  0  0  0  0
  146.4595  138.5103  152.2812 C   0  0  0  0  0  0  0  0  0  0  0  0
  146.0051  137.3058  153.1279 C   0  0  0  0  0  0  0  0  0  0  0  0
  146.0230  136.0346  152.3614 N   0  3  2  0  0  0  0  0  0  0  0  0
  144.9400  135.9784  151.3456 C   0  0  0  0  0  0  0  0  0  0  0  0
  145.0547  134.7149  150.4765 C   0  0  0  0  0  0  0  0  0  0  0  0
  145.0408  133.4420  151.3387 C   0  0  1  0  0  0  0  0  0  0  0  0
  145.1818  132.1751  150.4834 C   0  0  0  0  0  0  0  0  0  0  0  0
  146.1486  133.5404  152.4005 C   0  0  0  0  0  0  0  0  0  0  0  0
  146.0149  134.8281  153.2313 C   0  0  0  0  0  0  0  0  0  0  0  0
  153.6207  137.8284  153.7757 H   0  0  0  0  0  0  0  0  0  0  0  0
  153.3963  137.9106  155.5194 H   0  0  0  0  0  0  0  0  0  0  0  0
  154.0471  139.3066  154.6305 H   0  0  0  0  0  0  0  0  0  0  0  0
  152.2926  141.3491  158.0775 H   0  0  0  0  0  0  0  0  0  0  0  0
  149.9335  142.1807  157.9267 H   0  0  0  0  0  0  0  0  0  0  0  0
  148.5224  141.4471  156.0191 H   0  0  0  0  0  0  0  0  0  0  0  0
  149.8879  139.8051  153.1077 H   0  0  0  0  0  0  0  0  0  0  0  0
  148.4891  139.0257  151.9650 H   0  0  0  0  0  0  0  0  0  0  0  0
  145.7590  139.3365  152.4050 H   0  0  0  0  0  0  0  0  0  0  0  0
  146.4732  138.2729  151.2171 H   0  0  0  0  0  0  0  0  0  0  0  0
  146.6178  137.1989  154.0246 H   0  0  0  0  0  0  0  0  0  0  0  0
  144.9894  137.5046  153.4735 H   0  0  0  0  0  0  0  0  0  0  0  0
  143.9696  136.0066  151.8444 H   0  0  0  0  0  0  0  0  0  0  0  0
  144.9916  136.8570  150.7017 H   0  0  0  0  0  0  0  0  0  0  0  0
  144.2341  134.6887  149.7587 H   0  0  0  0  0  0  0  0  0  0  0  0
  145.9750  134.7572  149.8923 H   0  0  0  0  0  0  0  0  0  0  0  0
  144.0801  133.3891  151.8533 H   0  0  0  0  0  0  0  0  0  0  0  0
  146.1287  132.1635  149.9429 H   0  0  0  0  0  0  0  0  0  0  0  0
  144.3787  132.1068  149.7491 H   0  0  0  0  0  0  0  0  0  0  0  0
  145.1396  131.2776  151.1011 H   0  0  0  0  0  0  0  0  0  0  0  0
  146.1100  132.6733  153.0610 H   0  0  0  0  0  0  0  0  0  0  0  0
  147.1276  133.5180  151.9192 H   0  0  0  0  0  0  0  0  0  0  0  0
  146.8352  134.8702  153.9468 H   0  0  0  0  0  0  0  0  0  0  0  0
  145.0919  134.8033  153.8132 H   0  0  0  0  0  0  0  0  0  0  0  0
  146.8916  136.0229  151.8460 H   0  0  0  0  0  0  0  0  0  0  0  0
  1  2  1  0  0  0  0
  1 22  1  0  0  0  0
  1 23  1  0  0  0  0
  1 24  1  0  0  0  0
  2  3  1  0  0  0  0
  3  8  1  0  0  0  0
  3  4  2  0  0  0  0
  4  5  1  0  0  0  0
  5  6  2  0  0  0  0
  5 25  1  0  0  0  0
  6  7  1  0  0  0  0
  6 26  1  0  0  0  0
  7  8  2  0  0  0  0
  7 27  1  0  0  0  0
  8  9  1  0  0  0  0
  9 10  1  0  0  0  0
  9 28  1  0  0  0  0
 10 11  2  0  0  0  0
 10 12  1  0  0  0  0
 12 13  1  0  0  0  0
 12 29  1  0  0  0  0
 13 14  1  0  0  0  0
 13 30  1  0  0  0  0
 13 31  1  0  0  0  0
 14 15  1  0  0  0  0
 14 32  1  0  0  0  0
 14 33  1  0  0  0  0
 15 21  1  0  0  0  0
 15 16  1  0  0  0  0
 15 46  1  0  0  0  0
 16 17  1  0  0  0  0
 16 34  1  0  0  0  0
 16 35  1  0  0  0  0
 17 18  1  0  0  0  0
 17 36  1  0  0  0  0
 17 37  1  0  0  0  0
 18 19  1  0  0  0  0
 18 20  1  0  0  0  0
 18 38  1  0  0  0  0
 19 39  1  0  0  0  0
 19 40  1  0  0  0  0
 19 41  1  0  0  0  0
 20 21  1  0  0  0  0
 20 42  1  0  0  0  0
 20 43  1  0  0  0  0
 21 44  1  0  0  0  0
 21 45  1  0  0  0  0
M  CHG  1  15   1
M  END
> <s_m_source_file>
AV-unprocessed.smi

> <i_m_source_file_index>
1951

> <i_lp_mmshare_version>
43012

> <i_f3d_flags>
0

> <s_epik_input>
W0NIM11PYzFuW2NIXVtjSF1bY0hdYzFbTkhdQyg9TylbTkhdW0NIMl1bQ0gyXU4yW0NIMl1bQ0gyXVtDSF0oW0NIM10pW0NIMl1bQ0gyXTI=

> <s_epik_cmdline>
J2VwaWtfcHl0aG9uJywgJy1waCcsICc3LjAnLCAnLXRuJywgJzgnLCAnLW1hJywgJzIwMCcsICctbWV0YWxfYmluZGluZycsICctaW1hZScsICc8aW5maWxlLm1hZT4nLCAnLW9tYWUnLCAnPG91dGZpbGUubWFlPic=

> <r_lp_tautomer_probability>
1

> <r_epik_Ionization_Penalty>
0.00147101

> <r_epik_Ionization_Penalty_Charging>
0.00139388

> <r_epik_Ionization_Penalty_Neutral>
7.71355e-05

> <r_epik_State_Penalty>
0.000929204

> <r_epik_Charging_Adjusted_Penalty>
0.00232308

> <i_epik_Tot_Q>
1

> <i_epik_Tot_abs_Q>
1

> <r_epik_Metal_State_Penalty>
-0

> <b_epik_Metal_Only>
0

> <s_lp_Force_Field>
OPLS_2005

> <r_lp_Energy>
18.8997

> <b_lp_Chiralities_Consistent>
1

> <s_lp_Variant>
AV-unprocessed.smi:1951-1

> <Gold.Version>
5.8.1

> <Gold.Id.Protein>
6NUR|6NUR_protein|mol2

> <Gold.PLP.Fitness>
48.0642

> <Gold.PLP.PLP>
-36.1011

> <Gold.PLP.part.hbond>
-5.8431

> <Gold.PLP.part.metal>
0.0000

> <Gold.PLP.part.buried>
-1.0574

> <Gold.PLP.part.nonpolar>
-30.0427

> <Gold.PLP.part.repulsive>
0.3705

> <Gold.PLP.ligand.clash>
0.0000

> <Gold.PLP.ligand.torsion>
0.7894

> <Gold.PLP.Chemscore.Hbond>
4.5078

> <Gold.PLP.Chemscore.CHOScore>
0.0000

> <Gold.PLP.Chemscore.Metal>
0.0000

> <Gold.Chemscore.Hbonds>
donor molecule, donor type, donor heavy atom, donor atom, acceptor molecule, acceptor atom, score
      L1  H     9    28       P1  7957  0.86
      L1  H    12    29       P1  7957  0.93
      L1  H    15    46       P1  7948  1.90
      P1  H  7997  8010       L1     4  0.75

> <Gold.PLP.Chemscore.Internal.Correction>
0.0186

> <Gold.Rescore>
     Score         DG    S(hbond)    S(metal)    S(lipo)     H(rot)  DE(clash)    DE(int)     intcor
     17.82     -21.96       3.39        0.00      81.67       1.71       1.69       2.45       ----

> <Gold.Chemscore.Fitness>
17.8231

> <Gold.Chemscore.DG>
-21.9649

> <Gold.Chemscore.ZeroCoef>
-5.4800

> <Gold.Chemscore.Hbond>
3.3858

> <Gold.Chemscore.Metal>
0.0000

> <Gold.Chemscore.Lipo>
81.6728

> <Gold.Chemscore.Internal_Hbond>
0.0000

> <Gold.Chemscore.DEClash>
1.6872

> <Gold.Chemscore.DEInternal>
2.4546

> <Gold.Chemscore.Rot>
1.7107

> <Gold.Chemscore.Internal.Correction>
   9.000000E+99

> <Gold.Chemscore.Hbonds>
donor molecule, donor type, donor heavy atom, donor atom, acceptor molecule, acceptor atom, score
      L1  H     9    28       P1  7957  0.83
      L1  H    12    29       P1  7957  0.88
      L1  H    15    46       P1  7948  0.86
      P1  H  7997  8010       L1     4  0.65

> <Gold.Chemscore.Hbond.Weighted>
-11.3086

> <Gold.Chemscore.Metal.Weighted>
-0.0000

> <Gold.Chemscore.Lipo.Weighted>
-9.5557

> <Gold.Chemscore.Internal_Hbond.Weighted>
0.0000

> <Gold.Chemscore.DEClash.Weighted>
1.6872

> <Gold.Chemscore.DEInternal.Weighted>
2.4546

> <Gold.Chemscore.Rot.Weighted>
4.3794

> <Gold.Chemscore.Internal.Correction.Weighted>
   9.000000E+99

> <Gold.Protein.RotatedTorsions>
[ 6907 6896 6895 6894 ] final  -49.15 input  -60.11 | X-H torsion
[ 7974 7965 7964 7962 ] final   72.74 input  175.53 | X-H torsion
[ 8008 7997 7996 7995 ] final   72.31 input   59.86 | X-H torsion
[ 10167 10162 10161 10158 ] final  -31.01 input  -65.29 | X-H torsion
[ 10718 10713 10712 10709 ] final   43.85 input   66.30 | X-H torsion
[ 10763 10752 10751 10750 ] final  -70.23 input  -60.55 | X-H torsion
[ 11005 11000 10999 10996 ] final  -26.11 input  -57.11 | X-H torsion

> <Gold.Protein.ActiveResidues>
 VAL166  LYS551  ARG553  GLY616  TRP617  ASP618  TYR619  PRO620  LYS621  CYS622 
 ASP623  PHE694  ASN695  SER759  ASP760  ASP761  ALA762  ILE779  LEU786  VAL792 
 PHE793  MET794  SER795  GLU796  ALA797  LYS798  CYS799  TRP800  GLU811  SER814 

> <Gold.Protein.RotatedAtoms>
  150.8834  134.8228  159.7241 H   0  0  0  0  0  0  0  0  0  0  0  0  # atno 6907 bound_to 6896
  152.4792  134.4761  159.9660 H   0  0  0  0  0  0  0  0  0  0  0  0  # atno 6908 bound_to 6896
  151.4832  133.3503  159.2877 H   0  0  0  0  0  0  0  0  0  0  0  0  # atno 6909 bound_to 6896
  145.7496  139.2754  143.1439 H   0  0  0  0  0  0  0  0  0  0  0  0  # atno 7974 bound_to 7965
  155.7670  140.3485  155.5227 H   0  0  0  0  0  0  0  0  0  0  0  0  # atno 8008 bound_to 7997
  155.8859  140.1010  157.1473 H   0  0  0  0  0  0  0  0  0  0  0  0  # atno 8009 bound_to 7997
  154.4029  140.1313  156.4242 H   0  0  0  0  0  0  0  0  0  0  0  0  # atno 8010 bound_to 7997
  140.7242  143.3804  151.1611 H   0  0  0  0  0  0  0  0  0  0  0  0  # atno 10167 bound_to 10162
  157.4204  130.7966  149.7510 H   0  0  0  0  0  0  0  0  0  0  0  0  # atno 10718 bound_to 10713
  154.4147  135.6001  153.5973 H   0  0  0  0  0  0  0  0  0  0  0  0  # atno 10763 bound_to 10752
  152.9791  135.5938  154.4028 H   0  0  0  0  0  0  0  0  0  0  0  0  # atno 10764 bound_to 10752
  154.3845  135.2841  155.2170 H   0  0  0  0  0  0  0  0  0  0  0  0  # atno 10765 bound_to 10752
  140.8999  133.7531  156.0530 H   0  0  0  0  0  0  0  0  0  0  0  0  # atno 11005 bound_to 11000
  146.0369  140.8203  142.9848 LP  0  0  0  0  0  0  0  0  0  0  0  0  # atno 17320 bound_to 7965
  144.6852  140.2853  143.7286 LP  0  0  0  0  0  0  0  0  0  0  0  0  # atno 17321 bound_to 7965
  139.7392  143.8951  152.3044 LP  0  0  0  0  0  0  0  0  0  0  0  0  # atno 17342 bound_to 10162
  139.8767  144.7040  150.8925 LP  0  0  0  0  0  0  0  0  0  0  0  0  # atno 17343 bound_to 10162
  155.9879  130.3963  150.3144 LP  0  0  0  0  0  0  0  0  0  0  0  0  # atno 17370 bound_to 10713
  157.1291  131.0267  151.2977 LP  0  0  0  0  0  0  0  0  0  0  0  0  # atno 17371 bound_to 10713
  140.8243  134.3253  157.5371 LP  0  0  0  0  0  0  0  0  0  0  0  0  # atno 17394 bound_to 11000
  139.8741  134.9327  156.3561 LP  0  0  0  0  0  0  0  0  0  0  0  0  # atno 17395 bound_to 11000

$$$$
