AV-unprocessed.smi:3271|AV-procd|sdf|12517|dock4
  -GOLD-   2272018423D 1   1.00000     0.00000
 Structure written by MMmdl.
 41 41  0  0  0  0  0  0  0  0  1 V2000
  144.6800  134.7734  151.5057 C   0  0  0  0  0  0  0  0  0  0  0  0
  146.1069  134.2188  151.6433 C   0  0  0  0  0  0  0  0  0  0  0  0
  146.5397  133.9137  153.0962 C   0  0  0  0  0  0  0  0  0  0  0  0
  145.8121  132.6579  153.6286 C   0  0  0  0  0  0  0  0  0  0  0  0
  146.0892  131.3758  152.8273 C   0  0  0  0  0  0  0  0  0  0  0  0
  146.3094  135.1247  154.0163 C   0  0  0  0  0  0  0  0  0  0  0  0
  145.5002  135.0580  154.9419 O   0  0  0  0  0  0  0  0  0  0  0  0
  147.0239  136.2257  153.7407 N   0  0  0  0  0  0  0  0  0  0  0  0
  146.9133  137.5000  154.4455 C   0  0  0  0  0  0  0  0  0  0  0  0
  147.5510  138.6863  153.6758 C   0  0  2  0  0  0  0  0  0  0  0  0
  146.7275  139.9665  153.8989 C   0  0  0  0  0  0  0  0  0  0  0  0
  147.4169  138.4039  152.2956 O   0  0  0  0  0  0  0  0  0  0  0  0
  148.9963  138.9259  154.0638 C   0  0  0  0  0  0  0  0  0  0  0  0
  149.6063  140.1363  154.5073 C   0  0  0  0  0  0  0  0  0  0  0  0
  150.9003  140.0072  154.7496 N   0  0  0  0  0  0  0  0  0  0  0  0
  151.1628  138.7126  154.4813 N   0  0  0  0  0  0  0  0  0  0  0  0
  152.5108  138.2102  154.6384 C   0  0  0  0  0  0  0  0  0  0  0  0
  150.0351  138.0360  154.0711 C   0  0  0  0  0  0  0  0  0  0  0  0
  144.4758  135.0617  150.4746 H   0  0  0  0  0  0  0  0  0  0  0  0
  144.5354  135.6545  152.1317 H   0  0  0  0  0  0  0  0  0  0  0  0
  143.9330  134.0322  151.7893 H   0  0  0  0  0  0  0  0  0  0  0  0
  146.2064  133.3241  151.0268 H   0  0  0  0  0  0  0  0  0  0  0  0
  146.7951  134.9498  151.2175 H   0  0  0  0  0  0  0  0  0  0  0  0
  147.6087  133.6937  153.0782 H   0  0  0  0  0  0  0  0  0  0  0  0
  146.0698  132.4920  154.6757 H   0  0  0  0  0  0  0  0  0  0  0  0
  144.7369  132.8389  153.6140 H   0  0  0  0  0  0  0  0  0  0  0  0
  145.5003  130.5448  153.2163 H   0  0  0  0  0  0  0  0  0  0  0  0
  147.1382  131.0837  152.8789 H   0  0  0  0  0  0  0  0  0  0  0  0
  145.8271  131.5041  151.7769 H   0  0  0  0  0  0  0  0  0  0  0  0
  147.6635  136.1909  152.9605 H   0  0  0  0  0  0  0  0  0  0  0  0
  145.8841  137.7142  154.7403 H   0  0  0  0  0  0  0  0  0  0  0  0
  147.4594  137.3536  155.3781 H   0  0  0  0  0  0  0  0  0  0  0  0
  146.7432  140.2707  154.9461 H   0  0  0  0  0  0  0  0  0  0  0  0
  145.6835  139.8252  153.6157 H   0  0  0  0  0  0  0  0  0  0  0  0
  147.1193  140.7983  153.3117 H   0  0  0  0  0  0  0  0  0  0  0  0
  148.2125  138.6623  151.8561 H   0  0  0  0  0  0  0  0  0  0  0  0
  149.1498  141.1047  154.6505 H   0  0  0  0  0  0  0  0  0  0  0  0
  152.5181  137.1237  154.5453 H   0  0  0  0  0  0  0  0  0  0  0  0
  152.8972  138.4835  155.6211 H   0  0  0  0  0  0  0  0  0  0  0  0
  153.1539  138.6374  153.8684 H   0  0  0  0  0  0  0  0  0  0  0  0
  150.0632  136.9879  153.8119 H   0  0  0  0  0  0  0  0  0  0  0  0
  1  2  1  0  0  0  0
  1 19  1  0  0  0  0
  1 20  1  0  0  0  0
  1 21  1  0  0  0  0
  2  3  1  0  0  0  0
  2 22  1  0  0  0  0
  2 23  1  0  0  0  0
  3  4  1  0  0  0  0
  3  6  1  0  0  0  0
  3 24  1  0  0  0  0
  4  5  1  0  0  0  0
  4 25  1  0  0  0  0
  4 26  1  0  0  0  0
  5 27  1  0  0  0  0
  5 28  1  0  0  0  0
  5 29  1  0  0  0  0
  6  7  2  0  0  0  0
  6  8  1  0  0  0  0
  8  9  1  0  0  0  0
  8 30  1  0  0  0  0
  9 10  1  0  0  0  0
  9 31  1  0  0  0  0
  9 32  1  0  0  0  0
 10 11  1  0  0  0  0
 10 12  1  0  0  0  0
 10 13  1  0  0  0  0
 11 33  1  0  0  0  0
 11 34  1  0  0  0  0
 11 35  1  0  0  0  0
 12 36  1  0  0  0  0
 13 18  2  0  0  0  0
 13 14  1  0  0  0  0
 14 15  2  0  0  0  0
 14 37  1  0  0  0  0
 15 16  1  0  0  0  0
 16 17  1  0  0  0  0
 16 18  1  0  0  0  0
 17 38  1  0  0  0  0
 17 39  1  0  0  0  0
 17 40  1  0  0  0  0
 18 41  1  0  0  0  0
M  END
> <s_m_source_file>
AV-unprocessed.smi

> <i_m_source_file_index>
3271

> <i_lp_mmshare_version>
43012

> <i_f3d_flags>
0

> <s_epik_input>
W0NIM11bQ0gyXVtDSF0oW0NIMl1bQ0gzXSlDKD1PKVtOSF1bQ0gyXVtDQEBdKFtDSDNdKShbT0hdKWMxW2NIXW5uKFtDSDNdKVtjSF0x

> <s_epik_cmdline>
J2VwaWtfcHl0aG9uJywgJy1waCcsICc3LjAnLCAnLXRuJywgJzgnLCAnLW1hJywgJzIwMCcsICctbWV0YWxfYmluZGluZycsICctaW1hZScsICc8aW5maWxlLm1hZT4nLCAnLW9tYWUnLCAnPG91dGZpbGUubWFlPic=

> <r_lp_tautomer_probability>
1

> <r_epik_Ionization_Penalty>
6.03488e-05

> <r_epik_Ionization_Penalty_Charging>
0

> <r_epik_Ionization_Penalty_Neutral>
6.03488e-05

> <r_epik_State_Penalty>
-0

> <r_epik_Charging_Adjusted_Penalty>
0

> <i_epik_Tot_Q>
0

> <i_epik_Tot_abs_Q>
0

> <r_epik_Metal_State_Penalty>
-0

> <b_epik_Metal_Only>
0

> <s_lp_Force_Field>
OPLS_2005

> <r_lp_Energy>
0.383254

> <b_lp_Chiralities_Consistent>
1

> <s_lp_Variant>
AV-unprocessed.smi:3271-2

> <Gold.Version>
5.8.1

> <Gold.Id.Protein>
6NUR|6NUR_protein|mol2

> <Gold.PLP.Fitness>
40.2508

> <Gold.PLP.PLP>
-30.2683

> <Gold.PLP.part.hbond>
-4.0000

> <Gold.PLP.part.metal>
0.0000

> <Gold.PLP.part.buried>
-1.6824

> <Gold.PLP.part.nonpolar>
-24.3797

> <Gold.PLP.part.repulsive>
0.1081

> <Gold.PLP.ligand.clash>
0.0000

> <Gold.PLP.ligand.torsion>
0.9797

> <Gold.PLP.Chemscore.Hbond>
2.9000

> <Gold.PLP.Chemscore.CHOScore>
1.0288

> <Gold.PLP.Chemscore.Metal>
0.0000

> <Gold.Chemscore.Hbonds>
donor molecule, donor type, donor heavy atom, donor atom, acceptor molecule, acceptor atom, score
      L1  H     8    30       P1  7948  1.00
      L1  H    12    36       P1  7957  0.96
      P1  H  7989  7998       L1    15  1.00
      L1  C    18    41       P1  7948  0.80
      L1  C    18    41       P1  7949  0.04

> <Gold.PLP.Chemscore.Internal.Correction>
0.1554

> <Gold.Rescore>
     Score         DG    S(hbond)    S(metal)    S(lipo)     H(rot)  DE(clash)    DE(int)     intcor
     12.64     -13.88       2.05        0.00      64.29       2.33       0.19       1.05       ----

> <Gold.Chemscore.Fitness>
12.6415

> <Gold.Chemscore.DG>
-13.8786

> <Gold.Chemscore.ZeroCoef>
-5.4800

> <Gold.Chemscore.Hbond>
2.0516

> <Gold.Chemscore.Metal>
0.0000

> <Gold.Chemscore.Lipo>
64.2865

> <Gold.Chemscore.Internal_Hbond>
0.0000

> <Gold.Chemscore.DEClash>
0.1899

> <Gold.Chemscore.DEInternal>
1.0472

> <Gold.Chemscore.Rot>
2.3341

> <Gold.Chemscore.Internal.Correction>
   9.000000E+99

> <Gold.Chemscore.Hbonds>
donor molecule, donor type, donor heavy atom, donor atom, acceptor molecule, acceptor atom, score
      L1  H     8    30       P1  7948  1.00
      L1  H    12    36       P1  7957  0.70
      P1  H  7989  7998       L1    15  0.22

> <Gold.Chemscore.Hbond.Weighted>
-6.8523

> <Gold.Chemscore.Metal.Weighted>
-0.0000

> <Gold.Chemscore.Lipo.Weighted>
-7.5215

> <Gold.Chemscore.Internal_Hbond.Weighted>
0.0000

> <Gold.Chemscore.DEClash.Weighted>
0.1899

> <Gold.Chemscore.DEInternal.Weighted>
1.0472

> <Gold.Chemscore.Rot.Weighted>
5.9753

> <Gold.Chemscore.Internal.Correction.Weighted>
   9.000000E+99

> <Gold.Protein.RotatedTorsions>
[ 6907 6896 6895 6894 ] final  175.34 input  -60.11 | X-H torsion
[ 7974 7965 7964 7962 ] final  -66.24 input  175.53 | X-H torsion
[ 8008 7997 7996 7995 ] final   86.50 input   59.86 | X-H torsion
[ 10167 10162 10161 10158 ] final   20.51 input  -65.29 | X-H torsion
[ 10718 10713 10712 10709 ] final  -85.79 input   66.30 | X-H torsion
[ 10763 10752 10751 10750 ] final -167.18 input  -60.55 | X-H torsion
[ 11005 11000 10999 10996 ] final  -94.48 input  -57.11 | X-H torsion

> <Gold.Protein.ActiveResidues>
 VAL166  LYS551  ARG553  GLY616  TRP617  ASP618  TYR619  PRO620  LYS621  CYS622 
 ASP623  PHE694  ASN695  SER759  ASP760  ASP761  ALA762  ILE779  LEU786  VAL792 
 PHE793  MET794  SER795  GLU796  ALA797  LYS798  CYS799  TRP800  GLU811  SER814 

> <Gold.Protein.RotatedAtoms>
  151.7379  133.3320  159.3357 H   0  0  0  0  0  0  0  0  0  0  0  0  # atno 6907 bound_to 6896
  150.7586  134.6305  159.6193 H   0  0  0  0  0  0  0  0  0  0  0  0  # atno 6908 bound_to 6896
  152.3550  134.6955  160.0276 H   0  0  0  0  0  0  0  0  0  0  0  0  # atno 6909 bound_to 6896
  145.7443  140.8939  143.0513 H   0  0  0  0  0  0  0  0  0  0  0  0  # atno 7974 bound_to 7965
  155.9635  140.3391  155.6512 H   0  0  0  0  0  0  0  0  0  0  0  0  # atno 8008 bound_to 7997
  155.6767  140.0733  157.2518 H   0  0  0  0  0  0  0  0  0  0  0  0  # atno 8009 bound_to 7997
  154.4149  140.1682  156.1925 H   0  0  0  0  0  0  0  0  0  0  0  0  # atno 8010 bound_to 7997
  140.5498  143.9529  150.6571 H   0  0  0  0  0  0  0  0  0  0  0  0  # atno 10167 bound_to 10162
  155.9994  130.4743  150.4616 H   0  0  0  0  0  0  0  0  0  0  0  0  # atno 10718 bound_to 10713
  154.6758  135.2946  154.9680 H   0  0  0  0  0  0  0  0  0  0  0  0  # atno 10763 bound_to 10752
  154.0692  135.6620  153.4826 H   0  0  0  0  0  0  0  0  0  0  0  0  # atno 10764 bound_to 10752
  153.0515  135.5170  154.7777 H   0  0  0  0  0  0  0  0  0  0  0  0  # atno 10765 bound_to 10752
  141.1469  133.7959  157.0303 H   0  0  0  0  0  0  0  0  0  0  0  0  # atno 11005 bound_to 11000
  144.6864  139.9503  143.7478 LP  0  0  0  0  0  0  0  0  0  0  0  0  # atno 17320 bound_to 7965
  146.0418  139.3429  143.0693 LP  0  0  0  0  0  0  0  0  0  0  0  0  # atno 17321 bound_to 7965
  140.2952  143.3297  152.1024 LP  0  0  0  0  0  0  0  0  0  0  0  0  # atno 17342 bound_to 10162
  139.5022  144.6731  151.6195 LP  0  0  0  0  0  0  0  0  0  0  0  0  # atno 17343 bound_to 10162
  157.2640  131.0573  151.2302 LP  0  0  0  0  0  0  0  0  0  0  0  0  # atno 17370 bound_to 10713
  157.3406  130.7031  149.6379 LP  0  0  0  0  0  0  0  0  0  0  0  0  # atno 17371 bound_to 10713
  140.0758  134.9676  157.1543 LP  0  0  0  0  0  0  0  0  0  0  0  0  # atno 17394 bound_to 11000
  140.3646  134.2457  155.7183 LP  0  0  0  0  0  0  0  0  0  0  0  0  # atno 17395 bound_to 11000

$$$$
