AV-unprocessed.smi:227|AV-procd|sdf|1738|dock1
  -GOLD-   2262020243D 1   1.00000     0.00000
 Structure written by MMmdl.
 54 58  0  0  0  0  0  0  0  0  1 V2000
  148.1494  142.2678  154.6845 O   0  0  0  0  0  0  0  0  0  0  0  0
  147.9717  141.2691  155.6683 C   0  0  0  0  0  0  0  0  0  0  0  0
  149.0777  140.1893  155.5823 C   0  0  1  0  0  0  0  0  0  0  0  0
  149.1142  139.6159  154.1378 C   0  0  0  0  0  0  0  0  0  0  0  0
  147.9977  138.7535  153.7943 N   0  0  0  0  0  0  0  0  0  0  0  0
  147.1625  138.8815  152.7084 C   0  0  0  0  0  0  0  0  0  0  0  0
  146.2234  137.9801  152.6226 N   0  0  0  0  0  0  0  0  0  0  0  0
  146.4119  137.1763  153.7414 C   0  0  0  0  0  0  0  0  0  0  0  0
  145.7564  136.0242  154.2660 C   0  0  0  0  0  0  0  0  0  0  0  0
  144.6925  135.4197  153.6693 N   0  0  0  0  0  0  0  0  0  0  0  0
  143.3761  135.4796  154.2837 C   0  0  1  0  0  0  0  0  0  0  0  0
  142.9063  136.9242  154.0222 C   0  0  0  0  0  0  0  0  0  0  0  0
  143.5173  137.1929  152.6380 C   0  0  0  0  0  0  0  0  0  0  0  0
  144.2282  135.8511  152.3566 C   0  0  2  0  0  0  0  0  0  0  0  0
  143.1606  134.7912  152.0049 C   0  0  1  0  0  0  0  0  0  0  0  0
  143.7414  133.5287  151.3424 C   0  0  0  0  0  0  0  0  0  0  0  0
  142.7046  132.7314  150.8109 O   0  0  0  0  0  0  0  0  0  0  0  0
  142.5662  134.5153  153.4011 C   0  0  0  0  0  0  0  0  0  0  0  0
  146.2184  135.5313  155.4463 N   0  0  0  0  0  0  0  0  0  0  0  0
  147.2619  136.0977  156.0579 C   0  0  0  0  0  0  0  0  0  0  0  0
  147.9789  137.1545  155.6749 N   0  0  0  0  0  0  0  0  0  0  0  0
  147.5124  137.6675  154.5015 C   0  0  0  0  0  0  0  0  0  0  0  0
  150.4564  140.7408  156.0564 C   0  0  1  0  0  0  0  0  0  0  0  0
  150.5266  141.1337  157.5252 C   0  0  0  0  0  0  0  0  0  0  0  0
  152.0249  141.1630  157.7837 C   0  0  0  0  0  0  0  0  0  0  0  0
  152.5263  140.0602  157.0472 O   0  0  0  0  0  0  0  0  0  0  0  0
  151.6342  139.7520  155.9801 C   0  0  0  0  0  0  0  0  0  0  0  0
  148.7194  142.9362  155.0327 H   0  0  0  0  0  0  0  0  0  0  0  0
  147.9553  141.7318  156.6556 H   0  0  0  0  0  0  0  0  0  0  0  0
  146.9831  140.8461  155.4965 H   0  0  0  0  0  0  0  0  0  0  0  0
  148.7920  139.3895  156.2671 H   0  0  0  0  0  0  0  0  0  0  0  0
  149.1216  140.4233  153.4053 H   0  0  0  0  0  0  0  0  0  0  0  0
  150.0400  139.0597  153.9846 H   0  0  0  0  0  0  0  0  0  0  0  0
  147.2792  139.6612  151.9698 H   0  0  0  0  0  0  0  0  0  0  0  0
  143.3304  135.1994  155.3344 H   0  0  0  0  0  0  0  0  0  0  0  0
  141.8201  137.0219  154.0335 H   0  0  0  0  0  0  0  0  0  0  0  0
  143.3172  137.6102  154.7642 H   0  0  0  0  0  0  0  0  0  0  0  0
  142.7699  137.4424  151.8842 H   0  0  0  0  0  0  0  0  0  0  0  0
  144.2301  138.0168  152.6866 H   0  0  0  0  0  0  0  0  0  0  0  0
  145.0083  135.9324  151.5987 H   0  0  0  0  0  0  0  0  0  0  0  0
  142.3984  135.2117  151.3469 H   0  0  0  0  0  0  0  0  0  0  0  0
  144.4421  133.7875  150.5478 H   0  0  0  0  0  0  0  0  0  0  0  0
  144.2883  132.9348  152.0754 H   0  0  0  0  0  0  0  0  0  0  0  0
  142.0953  133.2942  150.3579 H   0  0  0  0  0  0  0  0  0  0  0  0
  142.7387  133.4833  153.7098 H   0  0  0  0  0  0  0  0  0  0  0  0
  141.4931  134.7035  153.4487 H   0  0  0  0  0  0  0  0  0  0  0  0
  147.5667  135.6364  156.9856 H   0  0  0  0  0  0  0  0  0  0  0  0
  150.7069  141.6245  155.4672 H   0  0  0  0  0  0  0  0  0  0  0  0
  150.0569  142.0945  157.7382 H   0  0  0  0  0  0  0  0  0  0  0  0
  150.0551  140.3729  158.1491 H   0  0  0  0  0  0  0  0  0  0  0  0
  152.4639  142.0817  157.3922 H   0  0  0  0  0  0  0  0  0  0  0  0
  152.2740  141.0873  158.8423 H   0  0  0  0  0  0  0  0  0  0  0  0
  151.2994  138.7226  156.1114 H   0  0  0  0  0  0  0  0  0  0  0  0
  152.1628  139.8167  155.0301 H   0  0  0  0  0  0  0  0  0  0  0  0
  1  2  1  0  0  0  0
  1 28  1  0  0  0  0
  2  3  1  0  0  0  0
  2 29  1  0  0  0  0
  2 30  1  0  0  0  0
  3  4  1  0  0  0  0
  3 23  1  0  0  0  0
  3 31  1  0  0  0  0
  4  5  1  0  0  0  0
  4 32  1  0  0  0  0
  4 33  1  0  0  0  0
  5 22  1  0  0  0  0
  5  6  1  0  0  0  0
  6  7  2  0  0  0  0
  6 34  1  0  0  0  0
  7  8  1  0  0  0  0
  8 22  2  0  0  0  0
  8  9  1  0  0  0  0
  9 10  1  0  0  0  0
  9 19  2  0  0  0  0
 10 14  1  0  0  0  0
 10 11  1  0  0  0  0
 11 18  1  0  0  0  0
 11 12  1  0  0  0  0
 11 35  1  0  0  0  0
 12 13  1  0  0  0  0
 12 36  1  0  0  0  0
 12 37  1  0  0  0  0
 13 14  1  0  0  0  0
 13 38  1  0  0  0  0
 13 39  1  0  0  0  0
 14 15  1  0  0  0  0
 14 40  1  0  0  0  0
 15 16  1  0  0  0  0
 15 18  1  0  0  0  0
 15 41  1  0  0  0  0
 16 17  1  0  0  0  0
 16 42  1  0  0  0  0
 16 43  1  0  0  0  0
 17 44  1  0  0  0  0
 18 45  1  0  0  0  0
 18 46  1  0  0  0  0
 19 20  1  0  0  0  0
 20 21  2  0  0  0  0
 20 47  1  0  0  0  0
 21 22  1  0  0  0  0
 23 27  1  0  0  0  0
 23 24  1  0  0  0  0
 23 48  1  0  0  0  0
 24 25  1  0  0  0  0
 24 49  1  0  0  0  0
 24 50  1  0  0  0  0
 25 26  1  0  0  0  0
 25 51  1  0  0  0  0
 25 52  1  0  0  0  0
 26 27  1  0  0  0  0
 27 53  1  0  0  0  0
 27 54  1  0  0  0  0
M  END
> <s_m_source_file>
AV-unprocessed.smi

> <i_m_source_file_index>
227

> <i_lp_mmshare_version>
43012

> <i_f3d_flags>
0

> <s_epik_input>
W0NIMl0xT1tDSDJdW0NIMl1bQ0BIXTFbQ0BIXShbQ0gyXVtPSF0pW0NIMl1uKFtjSF1uMiljKGMyMyluW2NIXW5jM04oW0NASF00NSlbQ0BASF0oW0NIMl1bQ0gyXTQpW0NASF0oW0NIMl01KVtDSDJdW09IXQ==

> <s_epik_cmdline>
J2VwaWtfcHl0aG9uJywgJy1waCcsICc3LjAnLCAnLXRuJywgJzgnLCAnLW1hJywgJzIwMCcsICctbWV0YWxfYmluZGluZycsICctaW1hZScsICc8aW5maWxlLm1hZT4nLCAnLW9tYWUnLCAnPG91dGZpbGUubWFlPic=

> <r_lp_tautomer_probability>
1

> <r_epik_Ionization_Penalty>
0.0055791

> <r_epik_Ionization_Penalty_Charging>
0

> <r_epik_Ionization_Penalty_Neutral>
0.0055791

> <r_epik_State_Penalty>
0.00401299

> <r_epik_Charging_Adjusted_Penalty>
0.00401299

> <i_epik_Tot_Q>
0

> <i_epik_Tot_abs_Q>
0

> <r_epik_Metal_State_Penalty>
-0

> <b_epik_Metal_Only>
0

> <s_lp_Force_Field>
OPLS_2005

> <r_lp_Energy>
89.2194

> <b_lp_Chiralities_Consistent>
1

> <s_lp_Variant>
AV-unprocessed.smi:227-12

> <Gold.Version>
5.8.1

> <Gold.Id.Protein>
6NUR|6NUR_protein|mol2

> <Gold.PLP.Fitness>
42.4970

> <Gold.PLP.PLP>
-31.8807

> <Gold.PLP.part.hbond>
-3.1667

> <Gold.PLP.part.metal>
0.0000

> <Gold.PLP.part.buried>
-1.1814

> <Gold.PLP.part.nonpolar>
-27.6209

> <Gold.PLP.part.repulsive>
0.3865

> <Gold.PLP.ligand.clash>
0.0000

> <Gold.PLP.ligand.torsion>
0.4412

> <Gold.PLP.Chemscore.Hbond>
3.0000

> <Gold.PLP.Chemscore.CHOScore>
0.7252

> <Gold.PLP.Chemscore.Metal>
0.0000

> <Gold.Chemscore.Hbonds>
donor molecule, donor type, donor heavy atom, donor atom, acceptor molecule, acceptor atom, score
      L1  H     1    28       P1  8028  0.93
      L1  H    17    44       P1 10186  1.00
      P1  H  7997  8008       L1    26  1.00
      L1  C     6    34       P1  7957  0.73

> <Gold.PLP.Chemscore.Internal.Correction>
0.3230

> <Gold.Rescore>
     Score         DG    S(hbond)    S(metal)    S(lipo)     H(rot)  DE(clash)    DE(int)     intcor
     10.74     -14.00       2.87        0.00      69.74       3.61       0.58       2.67       ----

> <Gold.Chemscore.Fitness>
10.7448

> <Gold.Chemscore.DG>
-13.9958

> <Gold.Chemscore.ZeroCoef>
-5.4800

> <Gold.Chemscore.Hbond>
2.8715

> <Gold.Chemscore.Metal>
0.0000

> <Gold.Chemscore.Lipo>
69.7352

> <Gold.Chemscore.Internal_Hbond>
0.0000

> <Gold.Chemscore.DEClash>
0.5846

> <Gold.Chemscore.DEInternal>
2.6664

> <Gold.Chemscore.Rot>
3.6071

> <Gold.Chemscore.Internal.Correction>
   9.000000E+99

> <Gold.Chemscore.Hbonds>
donor molecule, donor type, donor heavy atom, donor atom, acceptor molecule, acceptor atom, score
      L1  H     1    28       P1  8028  0.89
      L1  H    17    44       P1 10186  1.00
      P1  H  7997  8008       L1    26  0.85

> <Gold.Chemscore.Hbond.Weighted>
-9.5910

> <Gold.Chemscore.Metal.Weighted>
-0.0000

> <Gold.Chemscore.Lipo.Weighted>
-8.1590

> <Gold.Chemscore.Internal_Hbond.Weighted>
0.0000

> <Gold.Chemscore.DEClash.Weighted>
0.5846

> <Gold.Chemscore.DEInternal.Weighted>
2.6664

> <Gold.Chemscore.Rot.Weighted>
9.2342

> <Gold.Chemscore.Internal.Correction.Weighted>
   9.000000E+99

> <Gold.Protein.RotatedTorsions>
[ 6907 6896 6895 6894 ] final  178.27 input  -60.11 | X-H torsion
[ 7974 7965 7964 7962 ] final -158.51 input  175.53 | X-H torsion
[ 8008 7997 7996 7995 ] final  -58.94 input   59.86 | X-H torsion
[ 10167 10162 10161 10158 ] final  155.68 input  -65.29 | X-H torsion
[ 10718 10713 10712 10709 ] final   66.58 input   66.30 | X-H torsion
[ 10763 10752 10751 10750 ] final -113.41 input  -60.55 | X-H torsion
[ 11005 11000 10999 10996 ] final   92.95 input  -57.11 | X-H torsion

> <Gold.Protein.ActiveResidues>
 VAL166  LYS551  ARG553  GLY616  TRP617  ASP618  TYR619  PRO620  LYS621  CYS622 
 ASP623  PHE694  ASN695  SER759  ASP760  ASP761  ALA762  ILE779  LEU786  VAL792 
 PHE793  MET794  SER795  GLU796  ALA797  LYS798  CYS799  TRP800  GLU811  SER814 

> <Gold.Protein.RotatedAtoms>
  151.6905  133.3311  159.3241 H   0  0  0  0  0  0  0  0  0  0  0  0  # atno 6907 bound_to 6896
  150.7781  134.6703  159.6397 H   0  0  0  0  0  0  0  0  0  0  0  0  # atno 6908 bound_to 6896
  152.3830  134.6564  160.0188 H   0  0  0  0  0  0  0  0  0  0  0  0  # atno 6909 bound_to 6896
  144.7503  140.3817  143.6053 H   0  0  0  0  0  0  0  0  0  0  0  0  # atno 7974 bound_to 7965
  154.4330  140.1073  156.6037 H   0  0  0  0  0  0  0  0  0  0  0  0  # atno 8008 bound_to 7997
  155.5884  140.3492  155.4541 H   0  0  0  0  0  0  0  0  0  0  0  0  # atno 8009 bound_to 7997
  156.0265  140.1251  157.0292 H   0  0  0  0  0  0  0  0  0  0  0  0  # atno 8010 bound_to 7997
  139.4821  144.5077  151.8073 H   0  0  0  0  0  0  0  0  0  0  0  0  # atno 10167 bound_to 10162
  157.6178  130.9275  150.0128 H   0  0  0  0  0  0  0  0  0  0  0  0  # atno 10718 bound_to 10713
  154.8395  135.4455  154.1346 H   0  0  0  0  0  0  0  0  0  0  0  0  # atno 10763 bound_to 10752
  153.2547  135.6930  153.7648 H   0  0  0  0  0  0  0  0  0  0  0  0  # atno 10764 bound_to 10752
  153.6947  135.3381  155.3186 H   0  0  0  0  0  0  0  0  0  0  0  0  # atno 10765 bound_to 10752
  139.8816  134.8762  156.3647 H   0  0  0  0  0  0  0  0  0  0  0  0  # atno 11005 bound_to 11000
  145.6970  139.1652  143.2614 LP  0  0  0  0  0  0  0  0  0  0  0  0  # atno 17320 bound_to 7965
  146.1442  140.7015  142.9352 LP  0  0  0  0  0  0  0  0  0  0  0  0  # atno 17321 bound_to 7965
  140.4576  144.1767  150.5903 LP  0  0  0  0  0  0  0  0  0  0  0  0  # atno 17342 bound_to 10162
  140.4518  143.2483  151.9337 LP  0  0  0  0  0  0  0  0  0  0  0  0  # atno 17343 bound_to 10162
  156.1308  130.3643  149.9735 LP  0  0  0  0  0  0  0  0  0  0  0  0  # atno 17370 bound_to 10713
  156.7796  130.9216  151.3646 LP  0  0  0  0  0  0  0  0  0  0  0  0  # atno 17371 bound_to 10713
  140.9505  133.7454  156.0266 LP  0  0  0  0  0  0  0  0  0  0  0  0  # atno 17394 bound_to 11000
  140.8111  134.3398  157.5411 LP  0  0  0  0  0  0  0  0  0  0  0  0  # atno 17395 bound_to 11000

$$$$
