AV-unprocessed.smi:180|AV-procd|sdf|1451|dock9
  -GOLD-   2262019253D 1   1.00000     0.00000
 Structure written by MMmdl.
 54 57  0  0  0  0  0  0  0  0  1 V2000
  153.1228  138.1225  159.8646 C   0  0  0  0  0  0  0  0  0  0  0  0
  153.2556  138.6572  158.4423 C   0  0  0  0  0  0  0  0  0  0  0  0
  154.3704  138.7784  157.9362 O   0  0  0  0  0  0  0  0  0  0  0  0
  152.1142  138.9735  157.8119 N   0  0  0  0  0  0  0  0  0  0  0  0
  152.0168  139.4806  156.4457 C   0  0  0  0  0  0  0  0  0  0  0  0
  150.5691  139.8051  156.0283 C   0  0  2  0  0  0  0  0  0  0  0  0
  149.7534  138.5617  155.6167 C   0  0  0  0  0  0  0  0  0  0  0  0
  148.4156  138.9569  155.1830 N   0  0  0  0  0  0  0  0  0  0  0  0
  147.4828  137.9828  155.0250 C   0  0  0  0  0  0  0  0  0  0  0  0
  147.1843  137.1548  156.0622 N   0  0  0  0  0  0  0  0  0  0  0  0
  146.2705  136.1909  155.9178 C   0  0  0  0  0  0  0  0  0  0  0  0
  145.5424  135.8863  154.8424 N   0  0  0  0  0  0  0  0  0  0  0  0
  145.8274  136.7188  153.8008 C   0  0  0  0  0  0  0  0  0  0  0  0
  146.7768  137.7803  153.8047 C   0  0  0  0  0  0  0  0  0  0  0  0
  146.7839  138.4091  152.5650 N   0  0  0  0  0  0  0  0  0  0  0  0
  145.9003  137.7504  151.8665 C   0  0  0  0  0  0  0  0  0  0  0  0
  145.2658  136.7285  152.5358 N   0  0  0  0  0  0  0  0  0  0  0  0
  144.2416  135.8418  152.0053 C   0  0  0  0  0  0  0  0  0  0  0  0
  144.7532  134.8243  150.9536 C   0  0  0  0  0  0  0  0  0  0  0  0
  144.9828  135.5832  149.7801 O   0  0  0  0  0  0  0  0  0  0  0  0
  146.0795  134.1465  151.3616 C   0  0  0  0  0  0  0  0  0  0  0  0
  146.5137  133.0755  150.3446 C   0  0  0  0  0  0  0  0  0  0  0  0
  145.4763  132.1164  150.1740 O   0  0  0  0  0  0  0  0  0  0  0  0
  144.2806  132.6804  149.6478 C   0  0  0  0  0  0  0  0  0  0  0  0
  143.7170  133.7276  150.6254 C   0  0  0  0  0  0  0  0  0  0  0  0
  148.4312  139.9782  154.1407 C   0  0  0  0  0  0  0  0  0  0  0  0
  149.2805  141.1781  154.5900 C   0  0  0  0  0  0  0  0  0  0  0  0
  150.5856  140.7370  154.9494 O   0  0  0  0  0  0  0  0  0  0  0  0
  152.0988  137.8168  160.0830 H   0  0  0  0  0  0  0  0  0  0  0  0
  153.4130  138.8899  160.5823 H   0  0  0  0  0  0  0  0  0  0  0  0
  153.7721  137.2579  160.0054 H   0  0  0  0  0  0  0  0  0  0  0  0
  151.2462  138.8425  158.3109 H   0  0  0  0  0  0  0  0  0  0  0  0
  152.6171  140.3890  156.3921 H   0  0  0  0  0  0  0  0  0  0  0  0
  152.4667  138.7791  155.7411 H   0  0  0  0  0  0  0  0  0  0  0  0
  150.0807  140.2817  156.8803 H   0  0  0  0  0  0  0  0  0  0  0  0
  150.2480  138.0325  154.8012 H   0  0  0  0  0  0  0  0  0  0  0  0
  149.6854  137.8734  156.4604 H   0  0  0  0  0  0  0  0  0  0  0  0
  146.0974  135.5767  156.7892 H   0  0  0  0  0  0  0  0  0  0  0  0
  145.6781  138.0002  150.8390 H   0  0  0  0  0  0  0  0  0  0  0  0
  143.7863  135.3153  152.8454 H   0  0  0  0  0  0  0  0  0  0  0  0
  143.4525  136.4602  151.5747 H   0  0  0  0  0  0  0  0  0  0  0  0
  145.3015  135.0034  149.1054 H   0  0  0  0  0  0  0  0  0  0  0  0
  146.8679  134.8898  151.4865 H   0  0  0  0  0  0  0  0  0  0  0  0
  145.9635  133.6570  152.3286 H   0  0  0  0  0  0  0  0  0  0  0  0
  146.7725  133.5235  149.3841 H   0  0  0  0  0  0  0  0  0  0  0  0
  147.4066  132.5633  150.7033 H   0  0  0  0  0  0  0  0  0  0  0  0
  144.4721  133.1177  148.6668 H   0  0  0  0  0  0  0  0  0  0  0  0
  143.5538  131.8817  149.4990 H   0  0  0  0  0  0  0  0  0  0  0  0
  143.4258  133.2070  151.5374 H   0  0  0  0  0  0  0  0  0  0  0  0
  142.8063  134.1696  150.2193 H   0  0  0  0  0  0  0  0  0  0  0  0
  148.8500  139.5471  153.2303 H   0  0  0  0  0  0  0  0  0  0  0  0
  147.4266  140.3192  153.8951 H   0  0  0  0  0  0  0  0  0  0  0  0
  149.3626  141.9036  153.7806 H   0  0  0  0  0  0  0  0  0  0  0  0
  148.8132  141.6917  155.4318 H   0  0  0  0  0  0  0  0  0  0  0  0
  1  2  1  0  0  0  0
  1 29  1  0  0  0  0
  1 30  1  0  0  0  0
  1 31  1  0  0  0  0
  2  3  2  0  0  0  0
  2  4  1  0  0  0  0
  4  5  1  0  0  0  0
  4 32  1  0  0  0  0
  5  6  1  0  0  0  0
  5 33  1  0  0  0  0
  5 34  1  0  0  0  0
  6 28  1  0  0  0  0
  6  7  1  0  0  0  0
  6 35  1  0  0  0  0
  7  8  1  0  0  0  0
  7 36  1  0  0  0  0
  7 37  1  0  0  0  0
  8  9  1  0  0  0  0
  8 26  1  0  0  0  0
  9 14  1  0  0  0  0
  9 10  2  0  0  0  0
 10 11  1  0  0  0  0
 11 12  2  0  0  0  0
 11 38  1  0  0  0  0
 12 13  1  0  0  0  0
 13 17  1  0  0  0  0
 13 14  2  0  0  0  0
 14 15  1  0  0  0  0
 15 16  2  0  0  0  0
 16 17  1  0  0  0  0
 16 39  1  0  0  0  0
 17 18  1  0  0  0  0
 18 19  1  0  0  0  0
 18 40  1  0  0  0  0
 18 41  1  0  0  0  0
 19 25  1  0  0  0  0
 19 20  1  0  0  0  0
 19 21  1  0  0  0  0
 20 42  1  0  0  0  0
 21 22  1  0  0  0  0
 21 43  1  0  0  0  0
 21 44  1  0  0  0  0
 22 23  1  0  0  0  0
 22 45  1  0  0  0  0
 22 46  1  0  0  0  0
 23 24  1  0  0  0  0
 24 25  1  0  0  0  0
 24 47  1  0  0  0  0
 24 48  1  0  0  0  0
 25 49  1  0  0  0  0
 25 50  1  0  0  0  0
 26 27  1  0  0  0  0
 26 51  1  0  0  0  0
 26 52  1  0  0  0  0
 27 28  1  0  0  0  0
 27 53  1  0  0  0  0
 27 54  1  0  0  0  0
M  END
> <s_m_source_file>
AV-unprocessed.smi

> <i_m_source_file_index>
180

> <i_lp_mmshare_version>
43012

> <i_f3d_flags>
0

> <s_epik_input>
W0NIM11DKD1PKVtOSF1bQ0gyXVtDQEBIXTFbQ0gyXU4oW0NIMl1bQ0gyXU8xKWMobltjSF1uMiljKGMyMyluW2NIXW4zW0NIMl1DNChbT0hdKVtDSDJdW0NIMl1PW0NIMl1bQ0gyXTQ=

> <s_epik_cmdline>
J2VwaWtfcHl0aG9uJywgJy1waCcsICc3LjAnLCAnLXRuJywgJzgnLCAnLW1hJywgJzIwMCcsICctbWV0YWxfYmluZGluZycsICctaW1hZScsICc8aW5maWxlLm1hZT4nLCAnLW9tYWUnLCAnPG91dGZpbGUubWFlPic=

> <r_lp_tautomer_probability>
1

> <r_epik_Ionization_Penalty>
7.38871e-05

> <r_epik_Ionization_Penalty_Charging>
0

> <r_epik_Ionization_Penalty_Neutral>
7.38871e-05

> <r_epik_State_Penalty>
-0

> <r_epik_Charging_Adjusted_Penalty>
0

> <i_epik_Tot_Q>
0

> <i_epik_Tot_abs_Q>
0

> <r_epik_Metal_State_Penalty>
-0

> <b_epik_Metal_Only>
0

> <s_lp_Force_Field>
OPLS_2005

> <r_lp_Energy>
31.1245

> <b_lp_Chiralities_Consistent>
1

> <s_lp_Variant>
AV-unprocessed.smi:180-1

> <Gold.Version>
5.8.1

> <Gold.Id.Protein>
6NUR|6NUR_protein|mol2

> <Gold.PLP.Fitness>
45.1683

> <Gold.PLP.PLP>
-34.6093

> <Gold.PLP.part.hbond>
-3.3142

> <Gold.PLP.part.metal>
0.0000

> <Gold.PLP.part.buried>
-2.7162

> <Gold.PLP.part.nonpolar>
-29.9360

> <Gold.PLP.part.repulsive>
0.7478

> <Gold.PLP.ligand.clash>
0.0000

> <Gold.PLP.ligand.torsion>
0.6367

> <Gold.PLP.Chemscore.Hbond>
2.8240

> <Gold.PLP.Chemscore.CHOScore>
1.0000

> <Gold.PLP.Chemscore.Metal>
0.0000

> <Gold.Chemscore.Hbonds>
donor molecule, donor type, donor heavy atom, donor atom, acceptor molecule, acceptor atom, score
      L1  H    20    42       P1  7921  0.96
      P1  H  7989  7998       L1    28  0.88
      P1  H  7997  8009       L1     3  0.91
      L1  C    16    39       P1 10171  1.00

> <Gold.PLP.Chemscore.Internal.Correction>
0.3603

> <Gold.Rescore>
     Score         DG    S(hbond)    S(metal)    S(lipo)     H(rot)  DE(clash)    DE(int)     intcor
     12.51     -14.89       2.42        0.00      76.70       2.99       0.27       2.11       ----

> <Gold.Chemscore.Fitness>
12.5137

> <Gold.Chemscore.DG>
-14.8899

> <Gold.Chemscore.ZeroCoef>
-5.4800

> <Gold.Chemscore.Hbond>
2.4210

> <Gold.Chemscore.Metal>
0.0000

> <Gold.Chemscore.Lipo>
76.7044

> <Gold.Chemscore.Internal_Hbond>
0.0000

> <Gold.Chemscore.DEClash>
0.2661

> <Gold.Chemscore.DEInternal>
2.1101

> <Gold.Chemscore.Rot>
2.9885

> <Gold.Chemscore.Internal.Correction>
   9.000000E+99

> <Gold.Chemscore.Hbonds>
donor molecule, donor type, donor heavy atom, donor atom, acceptor molecule, acceptor atom, score
      L1  H    20    42       P1  7921  0.92
      P1  H  7989  7998       L1    28  0.52
      P1  H  7997  8009       L1     3  0.84

> <Gold.Chemscore.Hbond.Weighted>
-8.0860

> <Gold.Chemscore.Metal.Weighted>
-0.0000

> <Gold.Chemscore.Lipo.Weighted>
-8.9744

> <Gold.Chemscore.Internal_Hbond.Weighted>
0.0000

> <Gold.Chemscore.DEClash.Weighted>
0.2661

> <Gold.Chemscore.DEInternal.Weighted>
2.1101

> <Gold.Chemscore.Rot.Weighted>
7.6506

> <Gold.Chemscore.Internal.Correction.Weighted>
   9.000000E+99

> <Gold.Protein.RotatedTorsions>
[ 6907 6896 6895 6894 ] final   50.74 input  -60.11 | X-H torsion
[ 7974 7965 7964 7962 ] final  -81.56 input  175.53 | X-H torsion
[ 8008 7997 7996 7995 ] final  141.93 input   59.86 | X-H torsion
[ 10167 10162 10161 10158 ] final  159.15 input  -65.29 | X-H torsion
[ 10718 10713 10712 10709 ] final   32.13 input   66.30 | X-H torsion
[ 10763 10752 10751 10750 ] final   65.59 input  -60.55 | X-H torsion
[ 11005 11000 10999 10996 ] final   37.35 input  -57.11 | X-H torsion

> <Gold.Protein.ActiveResidues>
 VAL166  LYS551  ARG553  GLY616  TRP617  ASP618  TYR619  PRO620  LYS621  CYS622 
 ASP623  PHE694  ASN695  SER759  ASP760  ASP761  ALA762  ILE779  LEU786  VAL792 
 PHE793  MET794  SER795  GLU796  ALA797  LYS798  CYS799  TRP800  GLU811  SER814 

> <Gold.Protein.RotatedAtoms>
  152.3051  134.7565  160.0348 H   0  0  0  0  0  0  0  0  0  0  0  0  # atno 6907 bound_to 6896
  151.8065  133.3371  159.3550 H   0  0  0  0  0  0  0  0  0  0  0  0  # atno 6908 bound_to 6896
  150.7292  134.5634  159.5898 H   0  0  0  0  0  0  0  0  0  0  0  0  # atno 6909 bound_to 6896
  145.5450  140.9504  143.1530 H   0  0  0  0  0  0  0  0  0  0  0  0  # atno 7974 bound_to 7965
  156.2958  140.2302  156.4645 H   0  0  0  0  0  0  0  0  0  0  0  0  # atno 8008 bound_to 7997
  154.7989  140.0449  157.1278 H   0  0  0  0  0  0  0  0  0  0  0  0  # atno 8009 bound_to 7997
  154.9557  140.3048  155.5057 H   0  0  0  0  0  0  0  0  0  0  0  0  # atno 8010 bound_to 7997
  139.4830  144.4757  151.8514 H   0  0  0  0  0  0  0  0  0  0  0  0  # atno 10167 bound_to 10162
  157.2814  130.7257  149.6558 H   0  0  0  0  0  0  0  0  0  0  0  0  # atno 10718 bound_to 10713
  153.0103  135.5351  154.6691 H   0  0  0  0  0  0  0  0  0  0  0  0  # atno 10763 bound_to 10752
  154.5880  135.2856  155.0667 H   0  0  0  0  0  0  0  0  0  0  0  0  # atno 10764 bound_to 10752
  154.1771  135.6522  153.5077 H   0  0  0  0  0  0  0  0  0  0  0  0  # atno 10765 bound_to 10752
  140.2235  134.3613  155.7994 H   0  0  0  0  0  0  0  0  0  0  0  0  # atno 11005 bound_to 11000
  144.7558  139.7079  143.7254 LP  0  0  0  0  0  0  0  0  0  0  0  0  # atno 17320 bound_to 7965
  146.1955  139.5220  142.9777 LP  0  0  0  0  0  0  0  0  0  0  0  0  # atno 17321 bound_to 7965
  140.4229  144.2219  150.5887 LP  0  0  0  0  0  0  0  0  0  0  0  0  # atno 17342 bound_to 10162
  140.4856  143.2364  151.8893 LP  0  0  0  0  0  0  0  0  0  0  0  0  # atno 17343 bound_to 10162
  155.9664  130.4337  150.5017 LP  0  0  0  0  0  0  0  0  0  0  0  0  # atno 17370 bound_to 10713
  157.2962  131.0636  151.2100 LP  0  0  0  0  0  0  0  0  0  0  0  0  # atno 17371 bound_to 10713
  141.2222  133.7206  156.8614 LP  0  0  0  0  0  0  0  0  0  0  0  0  # atno 17394 bound_to 11000
  140.1825  134.9023  157.2965 LP  0  0  0  0  0  0  0  0  0  0  0  0  # atno 17395 bound_to 11000

$$$$
