AV-unprocessed.smi:99|AV-procd|sdf|883|dock6
  -GOLD-   2262017363D 1   1.00000     0.00000
 Structure written by MMmdl.
 52 55  0  0  0  0  0  0  0  0  2 V2000
  145.1158  136.5999  158.2493 O   0  0  0  0  0  0  0  0  0  0  0  0
  146.0891  136.0288  158.7459 C   0  0  0  0  0  0  0  0  0  0  0  0
  147.0243  135.3730  158.0241 O   0  0  0  0  0  0  0  0  0  0  0  0
  146.9411  135.2849  156.6053 C   0  0  0  0  0  0  0  0  0  0  0  0
  148.0346  134.3663  156.0326 C   0  0  2  0  0  0  0  0  0  0  0  0
  149.2720  134.5855  156.7059 O   0  0  0  0  0  0  0  0  0  0  0  0
  150.3444  134.5751  155.8051 C   0  0  2  0  0  0  0  0  0  0  0  0
  150.9390  135.9779  155.7825 N   0  0  0  0  0  0  0  0  0  0  0  0
  150.6022  136.9263  154.8253 C   0  0  0  0  0  0  0  0  0  0  0  0
  151.0831  138.1852  154.8746 C   0  0  0  0  0  0  0  0  0  0  0  0
  151.9665  138.5736  155.9675 C   0  0  0  0  0  0  0  0  0  0  0  0
  152.4063  139.7212  155.9995 O   0  0  0  0  0  0  0  0  0  0  0  0
  152.2608  137.6390  156.9148 N   0  5  0  0  0  0  0  0  0  0  0  0
  151.7697  136.3660  156.8721 C   0  0  0  0  0  0  0  0  0  0  0  0
  152.0145  135.5288  157.7412 O   0  0  0  0  0  0  0  0  0  0  0  0
  149.7970  134.0852  154.4521 C   0  0  1  0  0  0  0  0  0  0  0  0
  149.9126  132.6768  154.3672 O   0  0  0  0  0  0  0  0  0  0  0  0
  148.3460  134.5392  154.5480 C   0  0  1  0  0  0  0  0  0  0  0  0
  147.4622  133.8393  153.6811 O   0  0  0  0  0  0  0  0  0  0  0  0
  146.2301  134.3263  153.4203 C   0  0  0  0  0  0  0  0  0  0  0  0
  145.7001  135.2306  154.0696 O   0  0  0  0  0  0  0  0  0  0  0  0
  145.5724  133.6515  152.2646 C   0  0  0  0  0  0  0  0  0  0  0  0
  146.3520  132.8596  151.3892 C   0  0  0  0  0  0  0  0  0  0  0  0
  145.7602  132.2156  150.2853 C   0  0  0  0  0  0  0  0  0  0  0  0
  144.3812  132.3553  150.0434 C   0  0  0  0  0  0  0  0  0  0  0  0
  143.5945  133.1392  150.9073 C   0  0  0  0  0  0  0  0  0  0  0  0
  144.1846  133.7842  152.0118 C   0  0  0  0  0  0  0  0  0  0  0  0
  146.3760  136.0174  160.2086 C   0  0  0  0  0  0  0  0  0  0  0  0
  145.7296  136.9539  161.0481 C   0  0  0  0  0  0  0  0  0  0  0  0
  145.9945  136.9796  162.4311 C   0  0  0  0  0  0  0  0  0  0  0  0
  146.9088  136.0685  162.9914 C   0  0  0  0  0  0  0  0  0  0  0  0
  147.5556  135.1297  162.1672 C   0  0  0  0  0  0  0  0  0  0  0  0
  147.2918  135.1022  160.7839 C   0  0  0  0  0  0  0  0  0  0  0  0
  145.9630  134.8738  156.3550 H   0  0  0  0  0  0  0  0  0  0  0  0
  146.9863  136.2684  156.1357 H   0  0  0  0  0  0  0  0  0  0  0  0
  147.7582  133.3267  156.2142 H   0  0  0  0  0  0  0  0  0  0  0  0
  151.1567  133.9382  156.1603 H   0  0  0  0  0  0  0  0  0  0  0  0
  149.9421  136.6903  154.0079 H   0  0  0  0  0  0  0  0  0  0  0  0
  150.8047  138.9058  154.1198 H   0  0  0  0  0  0  0  0  0  0  0  0
  150.3404  134.5071  153.6074 H   0  0  0  0  0  0  0  0  0  0  0  0
  149.1874  132.3479  153.8583 H   0  0  0  0  0  0  0  0  0  0  0  0
  148.3037  135.6006  154.3184 H   0  0  0  0  0  0  0  0  0  0  0  0
  147.4132  132.7387  151.5533 H   0  0  0  0  0  0  0  0  0  0  0  0
  146.3658  131.6146  149.6230 H   0  0  0  0  0  0  0  0  0  0  0  0
  143.9279  131.8620  149.1963 H   0  0  0  0  0  0  0  0  0  0  0  0
  142.5358  133.2473  150.7224 H   0  0  0  0  0  0  0  0  0  0  0  0
  143.5522  134.3795  152.6542 H   0  0  0  0  0  0  0  0  0  0  0  0
  145.0290  137.6678  160.6395 H   0  0  0  0  0  0  0  0  0  0  0  0
  145.4976  137.7019  163.0617 H   0  0  0  0  0  0  0  0  0  0  0  0
  147.1158  136.0909  164.0512 H   0  0  0  0  0  0  0  0  0  0  0  0
  148.2625  134.4336  162.5940 H   0  0  0  0  0  0  0  0  0  0  0  0
  147.8144  134.3755  160.1792 H   0  0  0  0  0  0  0  0  0  0  0  0
  1  2  2  0  0  0  0
  2  3  1  0  0  0  0
  2 28  1  0  0  0  0
  3  4  1  0  0  0  0
  4  5  1  0  0  0  0
  4 34  1  0  0  0  0
  4 35  1  0  0  0  0
  5 18  1  0  0  0  0
  5  6  1  0  0  0  0
  5 36  1  0  0  0  0
  6  7  1  0  0  0  0
  7  8  1  0  0  0  0
  7 16  1  0  0  0  0
  7 37  1  0  0  0  0
  8 14  1  0  0  0  0
  8  9  1  0  0  0  0
  9 10  2  0  0  0  0
  9 38  1  0  0  0  0
 10 11  1  0  0  0  0
 10 39  1  0  0  0  0
 11 12  2  0  0  0  0
 11 13  1  0  0  0  0
 13 14  1  0  0  0  0
 14 15  2  0  0  0  0
 16 17  1  0  0  0  0
 16 18  1  0  0  0  0
 16 40  1  0  0  0  0
 17 41  1  0  0  0  0
 18 19  1  0  0  0  0
 18 42  1  0  0  0  0
 19 20  1  0  0  0  0
 20 21  2  0  0  0  0
 20 22  1  0  0  0  0
 22 27  1  0  0  0  0
 22 23  2  0  0  0  0
 23 24  1  0  0  0  0
 23 43  1  0  0  0  0
 24 25  2  0  0  0  0
 24 44  1  0  0  0  0
 25 26  1  0  0  0  0
 25 45  1  0  0  0  0
 26 27  2  0  0  0  0
 26 46  1  0  0  0  0
 27 47  1  0  0  0  0
 28 33  1  0  0  0  0
 28 29  2  0  0  0  0
 29 30  1  0  0  0  0
 29 48  1  0  0  0  0
 30 31  2  0  0  0  0
 30 49  1  0  0  0  0
 31 32  1  0  0  0  0
 31 50  1  0  0  0  0
 32 33  2  0  0  0  0
 32 51  1  0  0  0  0
 33 52  1  0  0  0  0
M  CHG  1  13  -1
M  END
> <s_m_source_file>
AV-unprocessed.smi

> <i_m_source_file_index>
99

> <i_lp_mmshare_version>
43012

> <i_f3d_flags>
0

> <s_epik_input>
W2NIXTFbY0hdW2NIXVtjSF1bY0hdYzFDKD1PKU9bQ0gyXVtDQEBIXTJPW0NAQEhdKG4zW2NIXVtjSF1jKD1PKVtuSF1jMz1PKVtDQEBIXShbT0hdKVtDQEhdMk9DKD1PKWM0W2NIXVtjSF1bY0hdW2NIXVtjSF00

> <s_epik_cmdline>
J2VwaWtfcHl0aG9uJywgJy1waCcsICc3LjAnLCAnLXRuJywgJzgnLCAnLW1hJywgJzIwMCcsICctbWV0YWxfYmluZGluZycsICctaW1hZScsICc8aW5maWxlLm1hZT4nLCAnLW9tYWUnLCAnPG91dGZpbGUubWFlPic=

> <r_lp_tautomer_probability>
1

> <r_epik_Ionization_Penalty>
2.89159

> <r_epik_Ionization_Penalty_Charging>
2.1077e-08

> <r_epik_Ionization_Penalty_Neutral>
2.89159

> <r_epik_State_Penalty>
2.88671

> <r_epik_Charging_Adjusted_Penalty>
2.88671

> <i_epik_Tot_Q>
-1

> <i_epik_Tot_abs_Q>
1

> <r_epik_Metal_State_Penalty>
0.0727308

> <b_epik_Metal_Only>
1

> <s_epik_Chemistry_Notes>
This compound has an ester and may undergo hydrolysis at high or low pH. This compound contains an acetal/aminal-like group ( X-CH(R)-Y where X, Y are N, S, or O) that may be acid/base labile, releasing an aldehyde.

> <s_lp_Force_Field>
OPLS_2005

> <r_lp_Energy>
45.2738

> <b_lp_Chiralities_Consistent>
1

> <s_lp_Variant>
AV-unprocessed.smi:99-19

> <Gold.Version>
5.8.1

> <Gold.Id.Protein>
6NUR|6NUR_protein|mol2

> <Gold.PLP.Fitness>
49.5005

> <Gold.PLP.PLP>
-45.7656

> <Gold.PLP.part.hbond>
-2.0000

> <Gold.PLP.part.metal>
0.0000

> <Gold.PLP.part.buried>
-5.8393

> <Gold.PLP.part.nonpolar>
-38.2189

> <Gold.PLP.part.repulsive>
0.1665

> <Gold.PLP.ligand.clash>
0.0000

> <Gold.PLP.ligand.torsion>
1.2509

> <Gold.PLP.Chemscore.Hbond>
1.0000

> <Gold.PLP.Chemscore.CHOScore>
1.0000

> <Gold.PLP.Chemscore.Metal>
0.0000

> <Gold.Chemscore.Hbonds>
donor molecule, donor type, donor heavy atom, donor atom, acceptor molecule, acceptor atom, score
      P1  H  7997  8010       L1    12  1.00
      L1  C     9    38       P1  7948  1.00

> <Gold.PLP.Chemscore.Internal.Correction>
0.2366

> <Gold.Rescore>
     Score         DG    S(hbond)    S(metal)    S(lipo)     H(rot)  DE(clash)    DE(int)     intcor
     11.17     -13.92       1.00        0.00     112.16       3.13       0.10       2.65       ----

> <Gold.Chemscore.Fitness>
11.1696

> <Gold.Chemscore.DG>
-13.9185

> <Gold.Chemscore.ZeroCoef>
-5.4800

> <Gold.Chemscore.Hbond>
1.0001

> <Gold.Chemscore.Metal>
0.0000

> <Gold.Chemscore.Lipo>
112.1601

> <Gold.Chemscore.Internal_Hbond>
0.0000

> <Gold.Chemscore.DEClash>
0.0999

> <Gold.Chemscore.DEInternal>
2.6491

> <Gold.Chemscore.Rot>
3.1346

> <Gold.Chemscore.Internal.Correction>
   9.000000E+99

> <Gold.Chemscore.Hbonds>
donor molecule, donor type, donor heavy atom, donor atom, acceptor molecule, acceptor atom, score
      P1  H  6896  6909       L1    15  0.01
      P1  H  7997  8010       L1    12  0.94

> <Gold.Chemscore.Hbond.Weighted>
-3.3403

> <Gold.Chemscore.Metal.Weighted>
-0.0000

> <Gold.Chemscore.Lipo.Weighted>
-13.1227

> <Gold.Chemscore.Internal_Hbond.Weighted>
0.0000

> <Gold.Chemscore.DEClash.Weighted>
0.0999

> <Gold.Chemscore.DEInternal.Weighted>
2.6491

> <Gold.Chemscore.Rot.Weighted>
8.0246

> <Gold.Chemscore.Internal.Correction.Weighted>
   9.000000E+99

> <Gold.Protein.RotatedTorsions>
[ 6907 6896 6895 6894 ] final   77.35 input  -60.11 | X-H torsion
[ 7974 7965 7964 7962 ] final -131.32 input  175.53 | X-H torsion
[ 8008 7997 7996 7995 ] final   92.99 input   59.86 | X-H torsion
[ 10167 10162 10161 10158 ] final -138.84 input  -65.29 | X-H torsion
[ 10718 10713 10712 10709 ] final    0.99 input   66.30 | X-H torsion
[ 10763 10752 10751 10750 ] final    3.60 input  -60.55 | X-H torsion
[ 11005 11000 10999 10996 ] final  118.85 input  -57.11 | X-H torsion

> <Gold.Protein.ActiveResidues>
 VAL166  LYS551  ARG553  GLY616  TRP617  ASP618  TYR619  PRO620  LYS621  CYS622 
 ASP623  PHE694  ASN695  SER759  ASP760  ASP761  ALA762  ILE779  LEU786  VAL792 
 PHE793  MET794  SER795  GLU796  ALA797  LYS798  CYS799  TRP800  GLU811  SER814 

> <Gold.Protein.RotatedAtoms>
  152.5114  134.3830  159.9357 H   0  0  0  0  0  0  0  0  0  0  0  0  # atno 6907 bound_to 6896
  151.3788  133.3822  159.2715 H   0  0  0  0  0  0  0  0  0  0  0  0  # atno 6908 bound_to 6896
  150.9521  134.8939  159.7737 H   0  0  0  0  0  0  0  0  0  0  0  0  # atno 6909 bound_to 6896
  144.9390  140.7217  143.4858 H   0  0  0  0  0  0  0  0  0  0  0  0  # atno 7974 bound_to 7965
  156.0417  140.3318  155.7251 H   0  0  0  0  0  0  0  0  0  0  0  0  # atno 8008 bound_to 7997
  155.5735  140.0630  157.2818 H   0  0  0  0  0  0  0  0  0  0  0  0  # atno 8009 bound_to 7997
  154.4396  140.1856  156.0891 H   0  0  0  0  0  0  0  0  0  0  0  0  # atno 8010 bound_to 7997
  139.8438  143.7287  152.2662 H   0  0  0  0  0  0  0  0  0  0  0  0  # atno 10167 bound_to 10162
  156.8415  130.5523  149.5677 H   0  0  0  0  0  0  0  0  0  0  0  0  # atno 10718 bound_to 10713
  153.2813  135.6941  153.7382 H   0  0  0  0  0  0  0  0  0  0  0  0  # atno 10763 bound_to 10752
  153.6368  135.3400  155.3060 H   0  0  0  0  0  0  0  0  0  0  0  0  # atno 10764 bound_to 10752
  154.8496  135.4422  154.1868 H   0  0  0  0  0  0  0  0  0  0  0  0  # atno 10765 bound_to 10752
  139.9125  134.9624  156.7566 H   0  0  0  0  0  0  0  0  0  0  0  0  # atno 11005 bound_to 11000
  145.3020  139.1847  143.4684 LP  0  0  0  0  0  0  0  0  0  0  0  0  # atno 17320 bound_to 7965
  146.3278  140.3013  142.8621 LP  0  0  0  0  0  0  0  0  0  0  0  0  # atno 17321 bound_to 7965
  139.7532  144.7528  151.0474 LP  0  0  0  0  0  0  0  0  0  0  0  0  # atno 17342 bound_to 10162
  140.7795  143.4835  150.9986 LP  0  0  0  0  0  0  0  0  0  0  0  0  # atno 17343 bound_to 10162
  156.0878  130.5872  150.9679 LP  0  0  0  0  0  0  0  0  0  0  0  0  # atno 17370 bound_to 10713
  157.6353  131.0916  150.8361 LP  0  0  0  0  0  0  0  0  0  0  0  0  # atno 17371 bound_to 10713
  140.6731  133.9542  155.7867 LP  0  0  0  0  0  0  0  0  0  0  0  0  # atno 17394 bound_to 11000
  141.0564  134.0411  157.3717 LP  0  0  0  0  0  0  0  0  0  0  0  0  # atno 17395 bound_to 11000

$$$$
