AV-unprocessed.smi:610|AV-procd|sdf|3058|dock5
  -GOLD-   2262023583D 1   1.00000     0.00000
 Structure written by MMmdl.
 38 39  0  0  0  0  0  0  0  0  2 V2000
  143.3487  137.7608  154.5620 C   0  0  0  0  0  0  0  0  0  0  0  0
  144.2717  136.8851  153.7025 C   0  0  1  0  0  0  0  0  0  0  0  0
  143.5127  136.2374  152.5294 C   0  0  0  0  0  0  0  0  0  0  0  0
  144.3332  135.2573  151.8096 N   0  0  0  0  0  0  0  0  0  0  0  0
  144.8654  134.0960  152.3081 C   0  0  0  0  0  0  0  0  0  0  0  0
  145.5587  133.5109  151.2800 C   0  0  0  0  0  0  0  0  0  0  0  0
  145.4183  134.3378  150.1977 N   0  3  0  0  0  0  0  0  0  0  0  0
  144.6715  135.3986  150.5213 C   0  0  0  0  0  0  0  0  0  0  0  0
  145.3813  137.6880  153.1940 N   0  0  0  0  0  0  0  0  0  0  0  0
  146.1699  138.4966  153.9230 C   0  0  0  0  0  0  0  0  0  0  0  0
  146.0038  138.6635  155.1320 O   0  0  0  0  0  0  0  0  0  0  0  0
  147.3159  139.2387  153.1897 C   0  0  0  0  0  0  0  0  0  0  0  0
  147.4601  138.7777  151.8142 N   0  0  0  0  0  0  0  0  0  0  0  0
  147.0749  140.7715  153.1982 C   0  0  0  0  0  0  0  0  0  0  0  0
  148.2739  141.4109  153.9087 C   0  0  0  0  0  0  0  0  0  0  0  0
  148.8710  140.2977  154.7622 C   0  0  0  0  0  0  0  0  0  0  0  0
  148.6724  139.0442  153.9112 C   0  0  0  0  0  0  0  0  0  0  0  0
  142.5166  137.1796  154.9601 H   0  0  0  0  0  0  0  0  0  0  0  0
  142.9318  138.5866  153.9844 H   0  0  0  0  0  0  0  0  0  0  0  0
  143.8866  138.1855  155.4105 H   0  0  0  0  0  0  0  0  0  0  0  0
  144.6574  136.0832  154.3349 H   0  0  0  0  0  0  0  0  0  0  0  0
  142.6280  135.7123  152.8923 H   0  0  0  0  0  0  0  0  0  0  0  0
  143.1655  136.9921  151.8214 H   0  0  0  0  0  0  0  0  0  0  0  0
  144.7176  133.7825  153.3316 H   0  0  0  0  0  0  0  0  0  0  0  0
  146.1261  132.5925  151.2388 H   0  0  0  0  0  0  0  0  0  0  0  0
  144.3999  136.2110  149.8708 H   0  0  0  0  0  0  0  0  0  0  0  0
  145.5745  137.6269  152.2044 H   0  0  0  0  0  0  0  0  0  0  0  0
  148.0746  139.4082  151.3190 H   0  0  0  0  0  0  0  0  0  0  0  0
  147.9215  137.8797  151.8154 H   0  0  0  0  0  0  0  0  0  0  0  0
  146.9555  141.1893  152.1972 H   0  0  0  0  0  0  0  0  0  0  0  0
  146.1638  141.0282  153.7418 H   0  0  0  0  0  0  0  0  0  0  0  0
  149.0072  141.7320  153.1676 H   0  0  0  0  0  0  0  0  0  0  0  0
  147.9948  142.2855  154.4971 H   0  0  0  0  0  0  0  0  0  0  0  0
  149.9174  140.4748  155.0120 H   0  0  0  0  0  0  0  0  0  0  0  0
  148.3150  140.2080  155.6964 H   0  0  0  0  0  0  0  0  0  0  0  0
  148.7189  138.1368  154.5156 H   0  0  0  0  0  0  0  0  0  0  0  0
  149.4919  138.9791  153.1929 H   0  0  0  0  0  0  0  0  0  0  0  0
  145.8196  134.1717  149.2832 H   0  0  0  0  0  0  0  0  0  0  0  0
  1  2  1  0  0  0  0
  1 18  1  0  0  0  0
  1 19  1  0  0  0  0
  1 20  1  0  0  0  0
  2  3  1  0  0  0  0
  2  9  1  0  0  0  0
  2 21  1  0  0  0  0
  3  4  1  0  0  0  0
  3 22  1  0  0  0  0
  3 23  1  0  0  0  0
  4  8  1  0  0  0  0
  4  5  1  0  0  0  0
  5  6  2  0  0  0  0
  5 24  1  0  0  0  0
  6  7  1  0  0  0  0
  6 25  1  0  0  0  0
  7  8  2  0  0  0  0
  7 38  1  0  0  0  0
  8 26  1  0  0  0  0
  9 10  1  0  0  0  0
  9 27  1  0  0  0  0
 10 11  2  0  0  0  0
 10 12  1  0  0  0  0
 12 17  1  0  0  0  0
 12 13  1  0  0  0  0
 12 14  1  0  0  0  0
 13 28  1  0  0  0  0
 13 29  1  0  0  0  0
 14 15  1  0  0  0  0
 14 30  1  0  0  0  0
 14 31  1  0  0  0  0
 15 16  1  0  0  0  0
 15 32  1  0  0  0  0
 15 33  1  0  0  0  0
 16 17  1  0  0  0  0
 16 34  1  0  0  0  0
 16 35  1  0  0  0  0
 17 36  1  0  0  0  0
 17 37  1  0  0  0  0
M  CHG  1   7   1
M  END
> <s_m_source_file>
AV-unprocessed.smi

> <i_m_source_file_index>
610

> <i_lp_mmshare_version>
43012

> <i_f3d_flags>
0

> <s_epik_input>
W2NIXTFuW2NIXVtjSF1uMVtDSDJdW0NAQEhdKFtDSDNdKVtOSF1DKD1PKUMyKFtOSDJdKVtDSDJdW0NIMl1bQ0gyXVtDSDJdMg==

> <s_epik_cmdline>
J2VwaWtfcHl0aG9uJywgJy1waCcsICc3LjAnLCAnLXRuJywgJzgnLCAnLW1hJywgJzIwMCcsICctbWV0YWxfYmluZGluZycsICctaW1hZScsICc8aW5maWxlLm1hZT4nLCAnLW9tYWUnLCAnPG91dGZpbGUubWFlPic=

> <r_epik_Ionization_Penalty>
1.50287

> <r_epik_Ionization_Penalty_Charging>
0

> <r_epik_Ionization_Penalty_Neutral>
1.50287

> <r_epik_State_Penalty>
1.57152

> <r_epik_Charging_Adjusted_Penalty>
1.57152

> <i_epik_Tot_Q>
1

> <i_epik_Tot_abs_Q>
1

> <r_epik_Metal_State_Penalty>
1.8522

> <b_epik_Metal_Only>
0

> <s_lp_Force_Field>
OPLS_2005

> <r_lp_Energy>
23.5797

> <b_lp_Chiralities_Consistent>
1

> <s_lp_Variant>
AV-unprocessed.smi:610-6

> <Gold.Version>
5.8.1

> <Gold.Id.Protein>
6NUR|6NUR_protein|mol2

> <Gold.PLP.Fitness>
39.9109

> <Gold.PLP.PLP>
-28.4889

> <Gold.PLP.part.hbond>
-3.7854

> <Gold.PLP.part.metal>
0.0000

> <Gold.PLP.part.buried>
-2.6024

> <Gold.PLP.part.nonpolar>
-21.6883

> <Gold.PLP.part.repulsive>
0.1358

> <Gold.PLP.ligand.clash>
0.0000

> <Gold.PLP.ligand.torsion>
0.2697

> <Gold.PLP.Chemscore.Hbond>
2.9760

> <Gold.PLP.Chemscore.CHOScore>
1.0000

> <Gold.PLP.Chemscore.Metal>
0.0000

> <Gold.Chemscore.Hbonds>
donor molecule, donor type, donor heavy atom, donor atom, acceptor molecule, acceptor atom, score
      L1  H     7    38       P1  7921  0.96
      L1  H    13    28       P1  7957  0.98
      L1  H    13    29       P1  7948  1.00
      L1  C     8    26       P1 10171  1.00

> <Gold.PLP.Chemscore.Internal.Correction>
0.0335

> <Gold.Rescore>
     Score         DG    S(hbond)    S(metal)    S(lipo)     H(rot)  DE(clash)    DE(int)     intcor
     14.20     -15.84       2.92        0.00      49.23       2.02       0.14       1.49       ----

> <Gold.Chemscore.Fitness>
14.2048

> <Gold.Chemscore.DG>
-15.8361

> <Gold.Chemscore.ZeroCoef>
-5.4800

> <Gold.Chemscore.Hbond>
2.9207

> <Gold.Chemscore.Metal>
0.0000

> <Gold.Chemscore.Lipo>
49.2285

> <Gold.Chemscore.Internal_Hbond>
0.0000

> <Gold.Chemscore.DEClash>
0.1435

> <Gold.Chemscore.DEInternal>
1.4878

> <Gold.Chemscore.Rot>
2.0152

> <Gold.Chemscore.Internal.Correction>
   9.000000E+99

> <Gold.Chemscore.Hbonds>
donor molecule, donor type, donor heavy atom, donor atom, acceptor molecule, acceptor atom, score
      L1  H     7    38       P1  7921  0.46
      L1  H    13    28       P1  7957  0.82
      L1  H    13    29       P1  7948  1.00

> <Gold.Chemscore.Hbond.Weighted>
-9.7553

> <Gold.Chemscore.Metal.Weighted>
-0.0000

> <Gold.Chemscore.Lipo.Weighted>
-5.7597

> <Gold.Chemscore.Internal_Hbond.Weighted>
0.0000

> <Gold.Chemscore.DEClash.Weighted>
0.1435

> <Gold.Chemscore.DEInternal.Weighted>
1.4878

> <Gold.Chemscore.Rot.Weighted>
5.1589

> <Gold.Chemscore.Internal.Correction.Weighted>
   9.000000E+99

> <Gold.Protein.RotatedTorsions>
[ 6907 6896 6895 6894 ] final  -89.15 input  -60.11 | X-H torsion
[ 7974 7965 7964 7962 ] final   98.23 input  175.53 | X-H torsion
[ 8008 7997 7996 7995 ] final -108.84 input   59.86 | X-H torsion
[ 10167 10162 10161 10158 ] final  154.11 input  -65.29 | X-H torsion
[ 10718 10713 10712 10709 ] final -102.19 input   66.30 | X-H torsion
[ 10763 10752 10751 10750 ] final   28.32 input  -60.55 | X-H torsion
[ 11005 11000 10999 10996 ] final   34.21 input  -57.11 | X-H torsion

> <Gold.Protein.ActiveResidues>
 VAL166  LYS551  ARG553  GLY616  TRP617  ASP618  TYR619  PRO620  LYS621  CYS622 
 ASP623  PHE694  ASN695  SER759  ASP760  ASP761  ALA762  ILE779  LEU786  VAL792 
 PHE793  MET794  SER795  GLU796  ALA797  LYS798  CYS799  TRP800  GLU811  SER814 

> <Gold.Protein.RotatedAtoms>
  150.6872  134.2631  159.4557 H   0  0  0  0  0  0  0  0  0  0  0  0  # atno 6907 bound_to 6896
  152.0559  134.9622  160.0584 H   0  0  0  0  0  0  0  0  0  0  0  0  # atno 6908 bound_to 6896
  152.1068  133.4244  159.4649 H   0  0  0  0  0  0  0  0  0  0  0  0  # atno 6909 bound_to 6896
  145.4150  139.2329  143.3227 H   0  0  0  0  0  0  0  0  0  0  0  0  # atno 7974 bound_to 7965
  154.9504  140.0401  157.2141 H   0  0  0  0  0  0  0  0  0  0  0  0  # atno 8008 bound_to 7997
  154.7984  140.2847  155.5917 H   0  0  0  0  0  0  0  0  0  0  0  0  # atno 8009 bound_to 7997
  156.2958  140.2560  156.2847 H   0  0  0  0  0  0  0  0  0  0  0  0  # atno 8010 bound_to 7997
  139.4824  144.5215  151.7869 H   0  0  0  0  0  0  0  0  0  0  0  0  # atno 10167 bound_to 10162
  156.0220  130.5409  150.7073 H   0  0  0  0  0  0  0  0  0  0  0  0  # atno 10718 bound_to 10713
  153.0499  135.6516  154.0720 H   0  0  0  0  0  0  0  0  0  0  0  0  # atno 10763 bound_to 10752
  154.0411  135.2903  155.3356 H   0  0  0  0  0  0  0  0  0  0  0  0  # atno 10764 bound_to 10752
  154.6781  135.5330  153.8293 H   0  0  0  0  0  0  0  0  0  0  0  0  # atno 10765 bound_to 10752
  140.2552  134.3257  155.7876 H   0  0  0  0  0  0  0  0  0  0  0  0  # atno 11005 bound_to 11000
  146.2686  140.4866  142.8824 LP  0  0  0  0  0  0  0  0  0  0  0  0  # atno 17320 bound_to 7965
  144.8283  140.6666  143.6307 LP  0  0  0  0  0  0  0  0  0  0  0  0  # atno 17321 bound_to 7965
  140.4729  144.1561  150.5920 LP  0  0  0  0  0  0  0  0  0  0  0  0  # atno 17342 bound_to 10162
  140.4362  143.2546  151.9532 LP  0  0  0  0  0  0  0  0  0  0  0  0  # atno 17343 bound_to 10162
  157.4719  131.0894  151.0633 LP  0  0  0  0  0  0  0  0  0  0  0  0  # atno 17370 bound_to 10713
  157.1090  130.6014  149.5477 LP  0  0  0  0  0  0  0  0  0  0  0  0  # atno 17371 bound_to 10713
  141.2197  133.7377  156.9100 LP  0  0  0  0  0  0  0  0  0  0  0  0  # atno 17394 bound_to 11000
  140.1519  134.9224  157.2603 LP  0  0  0  0  0  0  0  0  0  0  0  0  # atno 17395 bound_to 11000

$$$$
