AV-unprocessed.smi:1127|AV-procd|sdf|4841|dock9
  -GOLD-   22720 3403D 1   1.00000     0.00000
 Structure written by MMmdl.
 42 43  0  0  0  0  0  0  0  0  1 V2000
  147.1402  134.5222  161.9563 C   0  0  0  0  0  0  0  0  0  0  0  0
  147.0444  135.9970  160.8360 S   0  0  1  0  0  0  0  0  0  0  0  0
  147.8694  137.1101  161.4845 O   0  0  0  0  0  0  0  0  0  0  0  0
  148.1534  135.2906  159.5678 C   0  0  0  0  0  0  0  0  0  0  0  0
  148.3471  133.9796  159.3950 N   0  0  0  0  0  0  0  0  0  0  0  0
  149.2361  133.8872  158.3409 N   0  0  0  0  0  0  0  0  0  0  0  0
  149.4823  135.1519  157.9926 C   0  0  0  0  0  0  0  0  0  0  0  0
  148.8385  136.0796  158.7186 N   0  0  0  0  0  0  0  0  0  0  0  0
  148.8866  137.5271  158.5964 C   0  0  0  0  0  0  0  0  0  0  0  0
  150.3247  138.0519  158.6287 C   0  0  0  0  0  0  0  0  0  0  0  0
  151.2679  137.2734  158.7696 O   0  0  0  0  0  0  0  0  0  0  0  0
  150.4741  139.3767  158.4766 N   0  0  0  0  0  0  0  0  0  0  0  0
  151.7478  140.0898  158.4143 C   0  0  0  0  0  0  0  0  0  0  0  0
  151.9674  140.8542  159.7377 C   0  0  0  0  0  0  0  0  0  0  0  0
  153.1491  141.8449  159.7443 C   0  0  0  0  0  0  0  0  0  0  0  0
  152.7439  143.3271  159.6077 C   0  0  0  0  0  0  0  0  0  0  0  0
  152.1818  143.7742  158.2423 C   0  0  0  0  0  0  0  0  0  0  0  0
  150.7903  143.2051  157.8987 C   0  0  0  0  0  0  0  0  0  0  0  0
  150.7829  142.0272  156.9056 C   0  0  0  0  0  0  0  0  0  0  0  0
  151.8423  140.9271  157.1179 C   0  0  0  0  0  0  0  0  0  0  0  0
  147.1541  133.5965  161.3803 H   0  0  0  0  0  0  0  0  0  0  0  0
  146.2775  134.4999  162.6212 H   0  0  0  0  0  0  0  0  0  0  0  0
  148.0437  134.5675  162.5641 H   0  0  0  0  0  0  0  0  0  0  0  0
  150.1508  135.4073  157.1835 H   0  0  0  0  0  0  0  0  0  0  0  0
  148.3866  137.8161  157.6706 H   0  0  0  0  0  0  0  0  0  0  0  0
  148.3253  137.9718  159.4190 H   0  0  0  0  0  0  0  0  0  0  0  0
  149.6396  139.9352  158.3688 H   0  0  0  0  0  0  0  0  0  0  0  0
  152.5515  139.3531  158.3598 H   0  0  0  0  0  0  0  0  0  0  0  0
  151.0552  141.3527  160.0628 H   0  0  0  0  0  0  0  0  0  0  0  0
  152.1520  140.1068  160.5107 H   0  0  0  0  0  0  0  0  0  0  0  0
  153.6541  141.7443  160.7058 H   0  0  0  0  0  0  0  0  0  0  0  0
  153.9024  141.5737  159.0049 H   0  0  0  0  0  0  0  0  0  0  0  0
  152.0332  143.5833  160.3943 H   0  0  0  0  0  0  0  0  0  0  0  0
  153.6286  143.9307  159.8131 H   0  0  0  0  0  0  0  0  0  0  0  0
  152.0892  144.8603  158.2812 H   0  0  0  0  0  0  0  0  0  0  0  0
  152.8975  143.5845  157.4424 H   0  0  0  0  0  0  0  0  0  0  0  0
  150.2471  142.9476  158.8064 H   0  0  0  0  0  0  0  0  0  0  0  0
  150.1966  144.0027  157.4507 H   0  0  0  0  0  0  0  0  0  0  0  0
  149.7869  141.5851  156.8864 H   0  0  0  0  0  0  0  0  0  0  0  0
  150.9367  142.4348  155.9058 H   0  0  0  0  0  0  0  0  0  0  0  0
  152.8408  141.3487  157.0170 H   0  0  0  0  0  0  0  0  0  0  0  0
  151.7653  140.2387  156.2754 H   0  0  0  0  0  0  0  0  0  0  0  0
  1  2  1  0  0  0  0
  1 21  1  0  0  0  0
  1 22  1  0  0  0  0
  1 23  1  0  0  0  0
  2  3  2  0  0  0  0
  2  4  1  0  0  0  0
  4  8  1  0  0  0  0
  4  5  2  0  0  0  0
  5  6  1  0  0  0  0
  6  7  2  0  0  0  0
  7  8  1  0  0  0  0
  7 24  1  0  0  0  0
  8  9  1  0  0  0  0
  9 10  1  0  0  0  0
  9 25  1  0  0  0  0
  9 26  1  0  0  0  0
 10 11  2  0  0  0  0
 10 12  1  0  0  0  0
 12 13  1  0  0  0  0
 12 27  1  0  0  0  0
 13 20  1  0  0  0  0
 13 14  1  0  0  0  0
 13 28  1  0  0  0  0
 14 15  1  0  0  0  0
 14 29  1  0  0  0  0
 14 30  1  0  0  0  0
 15 16  1  0  0  0  0
 15 31  1  0  0  0  0
 15 32  1  0  0  0  0
 16 17  1  0  0  0  0
 16 33  1  0  0  0  0
 16 34  1  0  0  0  0
 17 18  1  0  0  0  0
 17 35  1  0  0  0  0
 17 36  1  0  0  0  0
 18 19  1  0  0  0  0
 18 37  1  0  0  0  0
 18 38  1  0  0  0  0
 19 20  1  0  0  0  0
 19 39  1  0  0  0  0
 19 40  1  0  0  0  0
 20 41  1  0  0  0  0
 20 42  1  0  0  0  0
M  END
> <s_m_source_file>
AV-unprocessed.smi

> <i_m_source_file_index>
1127

> <i_lp_mmshare_version>
43012

> <i_f3d_flags>
0

> <s_epik_input>
W0NIM11bU0BdKD1PKWMxbm5bY0hdbjFbQ0gyXUMoPU8pW05IXVtDSF0yW0NIMl1bQ0gyXVtDSDJdW0NIMl1bQ0gyXVtDSDJdW0NIMl0y

> <s_epik_cmdline>
J2VwaWtfcHl0aG9uJywgJy1waCcsICc3LjAnLCAnLXRuJywgJzgnLCAnLW1hJywgJzIwMCcsICctbWV0YWxfYmluZGluZycsICctaW1hZScsICc8aW5maWxlLm1hZT4nLCAnLW9tYWUnLCAnPG91dGZpbGUubWFlPic=

> <r_lp_tautomer_probability>
1

> <r_epik_Ionization_Penalty>
7.34999e-08

> <r_epik_Ionization_Penalty_Charging>
0

> <r_epik_Ionization_Penalty_Neutral>
7.34999e-08

> <r_epik_State_Penalty>
-0

> <r_epik_Charging_Adjusted_Penalty>
0

> <i_epik_Tot_Q>
0

> <i_epik_Tot_abs_Q>
0

> <r_epik_Metal_State_Penalty>
-0

> <b_epik_Metal_Only>
0

> <s_lp_Force_Field>
OPLS_2005

> <r_lp_Energy>
17.4242

> <b_lp_Chiralities_Consistent>
1

> <s_lp_Variant>
AV-unprocessed.smi:1127-2

> <Gold.Version>
5.8.1

> <Gold.Id.Protein>
6NUR|6NUR_protein|mol2

> <Gold.PLP.Fitness>
41.5798

> <Gold.PLP.PLP>
-34.8897

> <Gold.PLP.part.hbond>
-2.8934

> <Gold.PLP.part.metal>
0.0000

> <Gold.PLP.part.buried>
-3.3070

> <Gold.PLP.part.nonpolar>
-29.0762

> <Gold.PLP.part.repulsive>
0.1903

> <Gold.PLP.ligand.clash>
0.0000

> <Gold.PLP.ligand.torsion>
0.6665

> <Gold.PLP.Chemscore.Hbond>
2.3210

> <Gold.PLP.Chemscore.CHOScore>
0.0000

> <Gold.PLP.Chemscore.Metal>
0.0000

> <Gold.Chemscore.Hbonds>
donor molecule, donor type, donor heavy atom, donor atom, acceptor molecule, acceptor atom, score
      P1  H  6896  6908       L1     6  0.52
      P1  H  6931  6943       L1     3  1.00
      P1  H  6934  6947       L1     3  0.60

> <Gold.PLP.Chemscore.Internal.Correction>
1.0601

> <Gold.Rescore>
     Score         DG    S(hbond)    S(metal)    S(lipo)     H(rot)  DE(clash)    DE(int)     intcor
     14.34     -16.31       1.75        0.00      79.94       1.70       0.02       1.95       ----

> <Gold.Chemscore.Fitness>
14.3397

> <Gold.Chemscore.DG>
-16.3123

> <Gold.Chemscore.ZeroCoef>
-5.4800

> <Gold.Chemscore.Hbond>
1.7493

> <Gold.Chemscore.Metal>
0.0000

> <Gold.Chemscore.Lipo>
79.9386

> <Gold.Chemscore.Internal_Hbond>
0.0000

> <Gold.Chemscore.DEClash>
0.0183

> <Gold.Chemscore.DEInternal>
1.9543

> <Gold.Chemscore.Rot>
1.7044

> <Gold.Chemscore.Internal.Correction>
   9.000000E+99

> <Gold.Chemscore.Hbonds>
donor molecule, donor type, donor heavy atom, donor atom, acceptor molecule, acceptor atom, score
      P1  H  6896  6908       L1     6  0.01
      P1  H  6896  6909       L1    11  0.05
      P1  H  6931  6943       L1     3  0.98
      P1  H  6934  6947       L1     3  0.50

> <Gold.Chemscore.Hbond.Weighted>
-5.8427

> <Gold.Chemscore.Metal.Weighted>
-0.0000

> <Gold.Chemscore.Lipo.Weighted>
-9.3528

> <Gold.Chemscore.Internal_Hbond.Weighted>
0.0000

> <Gold.Chemscore.DEClash.Weighted>
0.0183

> <Gold.Chemscore.DEInternal.Weighted>
1.9543

> <Gold.Chemscore.Rot.Weighted>
4.3631

> <Gold.Chemscore.Internal.Correction.Weighted>
   9.000000E+99

> <Gold.Protein.RotatedTorsions>
[ 6907 6896 6895 6894 ] final  120.32 input  -60.11 | X-H torsion
[ 7974 7965 7964 7962 ] final  133.42 input  175.53 | X-H torsion
[ 8008 7997 7996 7995 ] final -171.15 input   59.86 | X-H torsion
[ 10167 10162 10161 10158 ] final  -75.42 input  -65.29 | X-H torsion
[ 10718 10713 10712 10709 ] final  179.15 input   66.30 | X-H torsion
[ 10763 10752 10751 10750 ] final  -41.54 input  -60.55 | X-H torsion
[ 11005 11000 10999 10996 ] final   85.90 input  -57.11 | X-H torsion

> <Gold.Protein.ActiveResidues>
 VAL166  LYS551  ARG553  GLY616  TRP617  ASP618  TYR619  PRO620  LYS621  CYS622 
 ASP623  PHE694  ASN695  SER759  ASP760  ASP761  ALA762  ILE779  LEU786  VAL792 
 PHE793  MET794  SER795  GLU796  ALA797  LYS798  CYS799  TRP800  GLU811  SER814 

> <Gold.Protein.RotatedAtoms>
  152.4407  133.7442  159.6657 H   0  0  0  0  0  0  0  0  0  0  0  0  # atno 6907 bound_to 6896
  150.8297  133.8101  159.3110 H   0  0  0  0  0  0  0  0  0  0  0  0  # atno 6908 bound_to 6896
  151.5759  135.1063  160.0058 H   0  0  0  0  0  0  0  0  0  0  0  0  # atno 6909 bound_to 6896
  144.9867  139.4448  143.5359 H   0  0  0  0  0  0  0  0  0  0  0  0  # atno 7974 bound_to 7965
  155.9278  140.1086  157.1156 H   0  0  0  0  0  0  0  0  0  0  0  0  # atno 8008 bound_to 7997
  154.4065  140.1243  156.4829 H   0  0  0  0  0  0  0  0  0  0  0  0  # atno 8009 bound_to 7997
  155.7117  140.3471  155.4979 H   0  0  0  0  0  0  0  0  0  0  0  0  # atno 8010 bound_to 7997
  140.4944  143.2373  151.7855 H   0  0  0  0  0  0  0  0  0  0  0  0  # atno 10167 bound_to 10162
  156.8800  130.9813  151.3063 H   0  0  0  0  0  0  0  0  0  0  0  0  # atno 10718 bound_to 10713
  153.9642  135.6736  153.4745 H   0  0  0  0  0  0  0  0  0  0  0  0  # atno 10763 bound_to 10752
  153.0824  135.4916  154.8525 H   0  0  0  0  0  0  0  0  0  0  0  0  # atno 10764 bound_to 10752
  154.7256  135.3126  154.8937 H   0  0  0  0  0  0  0  0  0  0  0  0  # atno 10765 bound_to 10752
  139.8959  134.8318  156.2646 H   0  0  0  0  0  0  0  0  0  0  0  0  # atno 11005 bound_to 11000
  146.3421  139.9173  142.8771 LP  0  0  0  0  0  0  0  0  0  0  0  0  # atno 17320 bound_to 7965
  145.2344  140.9985  143.3972 LP  0  0  0  0  0  0  0  0  0  0  0  0  # atno 17321 bound_to 7965
  139.4858  144.4606  151.9545 LP  0  0  0  0  0  0  0  0  0  0  0  0  # atno 17342 bound_to 10162
  140.3694  144.2874  150.5922 LP  0  0  0  0  0  0  0  0  0  0  0  0  # atno 17343 bound_to 10162
  157.6145  130.8608  149.9006 LP  0  0  0  0  0  0  0  0  0  0  0  0  # atno 17370 bound_to 10713
  156.0682  130.3689  150.0833 LP  0  0  0  0  0  0  0  0  0  0  0  0  # atno 17371 bound_to 10713
  141.0140  133.7079  156.1158 LP  0  0  0  0  0  0  0  0  0  0  0  0  # atno 17394 bound_to 11000
  140.7327  134.4237  157.5564 LP  0  0  0  0  0  0  0  0  0  0  0  0  # atno 17395 bound_to 11000

$$$$
