AV-unprocessed.smi:283|AV-procd|sdf|2134|dock1
  -GOLD-   2262021453D 1   1.00000     0.00000
 Structure written by MMmdl.
 48 51  0  0  0  0  0  0  0  0  1 V2000
  151.5093  139.3325  157.9600 C   0  0  0  0  0  0  0  0  0  0  0  0
  152.4879  140.4745  157.6537 C   0  0  1  0  0  0  0  0  0  0  0  0
  151.8760  141.4031  156.7061 N   0  0  0  0  0  0  0  0  0  0  0  0
  150.5641  141.3376  156.3871 C   0  0  0  0  0  0  0  0  0  0  0  0
  149.7368  142.0401  157.1969 N   0  0  0  0  0  0  0  0  0  0  0  0
  148.4220  142.0535  156.9642 C   0  0  0  0  0  0  0  0  0  0  0  0
  147.7424  141.4419  155.9943 N   0  0  0  0  0  0  0  0  0  0  0  0
  148.5634  140.7203  155.1782 C   0  0  0  0  0  0  0  0  0  0  0  0
  149.9789  140.6119  155.3064 C   0  0  0  0  0  0  0  0  0  0  0  0
  150.4653  139.7811  154.3032 N   0  0  0  0  0  0  0  0  0  0  0  0
  149.4077  139.4394  153.6207 C   0  0  0  0  0  0  0  0  0  0  0  0
  148.2192  139.9588  154.0783 N   0  0  0  0  0  0  0  0  0  0  0  0
  146.8550  139.7298  153.5103 C   0  0  2  0  0  0  0  0  0  0  0  0
  146.0649  139.1121  154.4802 O   0  0  0  0  0  0  0  0  0  0  0  0
  145.2868  138.1043  153.8555 C   0  0  2  0  0  0  0  0  0  0  0  0
  144.6304  137.1299  154.8571 C   0  0  0  0  0  0  0  0  0  0  0  0
  143.7977  136.1653  154.2483 O   0  0  0  0  0  0  0  0  0  0  0  0
  146.1475  137.5679  152.7011 C   0  0  2  0  0  0  0  0  0  0  0  0
  147.0474  136.5523  153.0975 O   0  0  0  0  0  0  0  0  0  0  0  0
  146.9282  138.8086  152.2735 C   0  0  1  0  0  0  0  0  0  0  0  0
  146.2984  139.4078  151.1583 O   0  0  0  0  0  0  0  0  0  0  0  0
  152.9827  141.1134  158.9548 C   0  0  0  0  0  0  0  0  0  0  0  0
  153.7540  140.3567  159.8679 C   0  0  0  0  0  0  0  0  0  0  0  0
  154.2122  140.9300  161.0689 C   0  0  0  0  0  0  0  0  0  0  0  0
  153.9125  142.2714  161.3668 C   0  0  0  0  0  0  0  0  0  0  0  0
  153.1593  143.0386  160.4594 C   0  0  0  0  0  0  0  0  0  0  0  0
  152.6972  142.4695  159.2559 C   0  0  0  0  0  0  0  0  0  0  0  0
  151.7869  143.4641  158.1729 Cl  0  0  0  0  0  0  0  0  0  0  0  0
  146.4765  140.7294  153.2911 H   0  0  0  0  0  0  0  0  0  0  0  0
  144.4623  138.6485  153.3906 H   0  0  0  0  0  0  0  0  0  0  0  0
  145.5267  137.1624  151.9007 H   0  0  0  0  0  0  0  0  0  0  0  0
  147.9629  138.5829  152.0085 H   0  0  0  0  0  0  0  0  0  0  0  0
  151.9713  138.5791  158.5985 H   0  0  0  0  0  0  0  0  0  0  0  0
  151.1886  138.8330  157.0450 H   0  0  0  0  0  0  0  0  0  0  0  0
  150.6178  139.6994  158.4701 H   0  0  0  0  0  0  0  0  0  0  0  0
  153.3354  140.0315  157.1337 H   0  0  0  0  0  0  0  0  0  0  0  0
  152.5322  141.9341  156.1522 H   0  0  0  0  0  0  0  0  0  0  0  0
  147.8290  142.6397  157.6507 H   0  0  0  0  0  0  0  0  0  0  0  0
  149.4663  138.7879  152.7610 H   0  0  0  0  0  0  0  0  0  0  0  0
  145.3986  136.6158  155.4350 H   0  0  0  0  0  0  0  0  0  0  0  0
  144.0245  137.6914  155.5684 H   0  0  0  0  0  0  0  0  0  0  0  0
  142.9068  136.3205  154.5226 H   0  0  0  0  0  0  0  0  0  0  0  0
  147.6152  136.3539  152.3683 H   0  0  0  0  0  0  0  0  0  0  0  0
  145.4502  139.0072  151.0432 H   0  0  0  0  0  0  0  0  0  0  0  0
  153.9984  139.3263  159.6550 H   0  0  0  0  0  0  0  0  0  0  0  0
  154.7952  140.3401  161.7608 H   0  0  0  0  0  0  0  0  0  0  0  0
  154.2638  142.7130  162.2876 H   0  0  0  0  0  0  0  0  0  0  0  0
  152.9367  144.0705  160.6880 H   0  0  0  0  0  0  0  0  0  0  0  0
  1  2  1  0  0  0  0
  1 33  1  0  0  0  0
  1 34  1  0  0  0  0
  1 35  1  0  0  0  0
  2  3  1  0  0  0  0
  2 22  1  0  0  0  0
  2 36  1  0  0  0  0
  3  4  1  0  0  0  0
  3 37  1  0  0  0  0
  4  9  1  0  0  0  0
  4  5  2  0  0  0  0
  5  6  1  0  0  0  0
  6  7  2  0  0  0  0
  6 38  1  0  0  0  0
  7  8  1  0  0  0  0
  8 12  1  0  0  0  0
  8  9  2  0  0  0  0
  9 10  1  0  0  0  0
 10 11  2  0  0  0  0
 11 12  1  0  0  0  0
 11 39  1  0  0  0  0
 12 13  1  0  0  0  0
 13 29  1  0  0  0  0
 13 20  1  0  0  0  0
 13 14  1  0  0  0  0
 14 15  1  0  0  0  0
 15 30  1  0  0  0  0
 15 16  1  0  0  0  0
 15 18  1  0  0  0  0
 16 17  1  0  0  0  0
 16 40  1  0  0  0  0
 16 41  1  0  0  0  0
 17 42  1  0  0  0  0
 18 31  1  0  0  0  0
 18 19  1  0  0  0  0
 18 20  1  0  0  0  0
 19 43  1  0  0  0  0
 20 32  1  0  0  0  0
 20 21  1  0  0  0  0
 21 44  1  0  0  0  0
 22 27  1  0  0  0  0
 22 23  2  0  0  0  0
 23 24  1  0  0  0  0
 23 45  1  0  0  0  0
 24 25  2  0  0  0  0
 24 46  1  0  0  0  0
 25 26  1  0  0  0  0
 25 47  1  0  0  0  0
 26 27  2  0  0  0  0
 26 48  1  0  0  0  0
 27 28  1  0  0  0  0
M  END
> <s_m_source_file>
AV-unprocessed.smi

> <i_m_source_file_index>
283

> <i_lp_mmshare_version>
43012

> <i_f3d_flags>
0

> <s_epik_input>
Q2xjMVtjSF1bY0hdW2NIXVtjSF1jMVtDQEhdKFtDSDNdKVtOSF1jKG5bY0hdbjIpYyhjMjMpbltjSF1uM1tDQEBIXTRPW0NASF0oW0NIMl1bT0hdKVtDQEBIXShbT0hdKVtDQEhdNFtPSF0=

> <s_epik_cmdline>
J2VwaWtfcHl0aG9uJywgJy1waCcsICc3LjAnLCAnLXRuJywgJzgnLCAnLW1hJywgJzIwMCcsICctbWV0YWxfYmluZGluZycsICctaW1hZScsICc8aW5maWxlLm1hZT4nLCAnLW9tYWUnLCAnPG91dGZpbGUubWFlPic=

> <r_lp_tautomer_probability>
1

> <r_epik_Ionization_Penalty>
0.000266407

> <r_epik_Ionization_Penalty_Charging>
0

> <r_epik_Ionization_Penalty_Neutral>
0.000266407

> <r_epik_State_Penalty>
-0

> <r_epik_Charging_Adjusted_Penalty>
0

> <i_epik_Tot_Q>
0

> <i_epik_Tot_abs_Q>
0

> <r_epik_Metal_State_Penalty>
-0

> <b_epik_Metal_Only>
0

> <s_epik_Chemistry_Notes>
This compound contains an acetal/aminal-like group ( X-CH(R)-Y where X, Y are N, S, or O) that may be acid/base labile, releasing an aldehyde.

> <s_lp_Force_Field>
OPLS_2005

> <r_lp_Energy>
45.8165

> <b_lp_Chiralities_Consistent>
1

> <s_lp_Variant>
AV-unprocessed.smi:283-10

> <Gold.Version>
5.8.1

> <Gold.Id.Protein>
6NUR|6NUR_protein|mol2

> <Gold.PLP.Fitness>
50.8742

> <Gold.PLP.PLP>
-41.3572

> <Gold.PLP.part.hbond>
-3.4864

> <Gold.PLP.part.metal>
0.0000

> <Gold.PLP.part.buried>
-0.0142

> <Gold.PLP.part.nonpolar>
-38.7071

> <Gold.PLP.part.repulsive>
0.5457

> <Gold.PLP.ligand.clash>
1.1542

> <Gold.PLP.ligand.torsion>
0.9080

> <Gold.PLP.Chemscore.Hbond>
2.9120

> <Gold.PLP.Chemscore.CHOScore>
1.2037

> <Gold.PLP.Chemscore.Metal>
0.0000

> <Gold.Chemscore.Hbonds>
donor molecule, donor type, donor heavy atom, donor atom, acceptor molecule, acceptor atom, score
      L1  H    19    43       P1  7948  0.74
      L1  H    21    44       P1 10171  0.94
      P1  H  7989  7998       L1    10  1.00
      L1  C    11    39       P1  7948  0.54
      L1  C    11    39       P1  7957  0.51

> <Gold.PLP.Chemscore.Internal.Correction>
0.1400

> <Gold.Rescore>
     Score         DG    S(hbond)    S(metal)    S(lipo)     H(rot)  DE(clash)    DE(int)     intcor
     11.97     -16.12       2.57        0.00     107.33       4.10       1.60       2.54       ----

> <Gold.Chemscore.Fitness>
11.9699

> <Gold.Chemscore.DG>
-16.1172

> <Gold.Chemscore.ZeroCoef>
-5.4800

> <Gold.Chemscore.Hbond>
2.5651

> <Gold.Chemscore.Metal>
0.0000

> <Gold.Chemscore.Lipo>
107.3316

> <Gold.Chemscore.Internal_Hbond>
0.0000

> <Gold.Chemscore.DEClash>
1.6044

> <Gold.Chemscore.DEInternal>
2.5429

> <Gold.Chemscore.Rot>
4.0968

> <Gold.Chemscore.Internal.Correction>
   9.000000E+99

> <Gold.Chemscore.Hbonds>
donor molecule, donor type, donor heavy atom, donor atom, acceptor molecule, acceptor atom, score
      L1  H    19    43       P1  7948  0.69
      L1  H    21    44       P1 10171  0.85
      P1  H  7989  7998       L1    10  0.28

> <Gold.Chemscore.Hbond.Weighted>
-8.5673

> <Gold.Chemscore.Metal.Weighted>
-0.0000

> <Gold.Chemscore.Lipo.Weighted>
-12.5578

> <Gold.Chemscore.Internal_Hbond.Weighted>
0.0000

> <Gold.Chemscore.DEClash.Weighted>
1.6044

> <Gold.Chemscore.DEInternal.Weighted>
2.5429

> <Gold.Chemscore.Rot.Weighted>
10.4879

> <Gold.Chemscore.Internal.Correction.Weighted>
   9.000000E+99

> <Gold.Protein.RotatedTorsions>
[ 6907 6896 6895 6894 ] final   57.18 input  -60.11 | X-H torsion
[ 7974 7965 7964 7962 ] final  127.72 input  175.53 | X-H torsion
[ 8008 7997 7996 7995 ] final -133.32 input   59.86 | X-H torsion
[ 10167 10162 10161 10158 ] final  176.32 input  -65.29 | X-H torsion
[ 10718 10713 10712 10709 ] final -134.66 input   66.30 | X-H torsion
[ 10763 10752 10751 10750 ] final  177.52 input  -60.55 | X-H torsion
[ 11005 11000 10999 10996 ] final  -18.87 input  -57.11 | X-H torsion

> <Gold.Protein.ActiveResidues>
 VAL166  LYS551  ARG553  GLY616  TRP617  ASP618  TYR619  PRO620  LYS621  CYS622 
 ASP623  PHE694  ASN695  SER759  ASP760  ASP761  ALA762  ILE779  LEU786  VAL792 
 PHE793  MET794  SER795  GLU796  ALA797  LYS798  CYS799  TRP800  GLU811  SER814 

> <Gold.Protein.RotatedAtoms>
  152.3707  134.6738  160.0176 H   0  0  0  0  0  0  0  0  0  0  0  0  # atno 6907 bound_to 6896
  151.7032  133.3306  159.3280 H   0  0  0  0  0  0  0  0  0  0  0  0  # atno 6908 bound_to 6896
  150.7671  134.6532  159.6344 H   0  0  0  0  0  0  0  0  0  0  0  0  # atno 6909 bound_to 6896
  145.0475  139.3911  143.5071 H   0  0  0  0  0  0  0  0  0  0  0  0  # atno 7974 bound_to 7965
  155.3435  140.0473  157.3045 H   0  0  0  0  0  0  0  0  0  0  0  0  # atno 8008 bound_to 7997
  154.5265  140.2242  155.8846 H   0  0  0  0  0  0  0  0  0  0  0  0  # atno 8009 bound_to 7997
  156.1744  140.3088  155.9039 H   0  0  0  0  0  0  0  0  0  0  0  0  # atno 8010 bound_to 7997
  139.5210  144.2929  152.0447 H   0  0  0  0  0  0  0  0  0  0  0  0  # atno 10167 bound_to 10162
  156.2579  130.7192  151.1115 H   0  0  0  0  0  0  0  0  0  0  0  0  # atno 10718 bound_to 10713
  154.4955  135.2781  155.1463 H   0  0  0  0  0  0  0  0  0  0  0  0  # atno 10763 bound_to 10752
  154.3117  135.6227  153.5472 H   0  0  0  0  0  0  0  0  0  0  0  0  # atno 10764 bound_to 10752
  152.9894  135.5721  154.5386 H   0  0  0  0  0  0  0  0  0  0  0  0  # atno 10765 bound_to 10752
  140.8311  133.7996  155.9759 H   0  0  0  0  0  0  0  0  0  0  0  0  # atno 11005 bound_to 11000
  146.3515  140.0108  142.8667 LP  0  0  0  0  0  0  0  0  0  0  0  0  # atno 17320 bound_to 7965
  145.1569  140.9653  143.4400 LP  0  0  0  0  0  0  0  0  0  0  0  0  # atno 17321 bound_to 7965
  140.2380  144.4300  150.6272 LP  0  0  0  0  0  0  0  0  0  0  0  0  # atno 17342 bound_to 10162
  140.6310  143.2187  151.6495 LP  0  0  0  0  0  0  0  0  0  0  0  0  # atno 17343 bound_to 10162
  157.7239  131.0663  150.6016 LP  0  0  0  0  0  0  0  0  0  0  0  0  # atno 17370 bound_to 10713
  156.6101  130.4378  149.5862 LP  0  0  0  0  0  0  0  0  0  0  0  0  # atno 17371 bound_to 10713
  140.8997  134.2393  157.5048 LP  0  0  0  0  0  0  0  0  0  0  0  0  # atno 17394 bound_to 11000
  139.8705  134.9701  156.4688 LP  0  0  0  0  0  0  0  0  0  0  0  0  # atno 17395 bound_to 11000

$$$$
