AV-unprocessed.smi:94|AV-procd|sdf|853|dock5
  -GOLD-   2262017293D 1   1.00000     0.00000
 Structure written by MMmdl.
 53 55  0  0  0  0  0  0  0  0  1 V2000
  151.0151  129.9728  155.6303 C   0  0  0  0  0  0  0  0  0  0  0  0
  150.7367  131.3648  155.6697 O   0  0  0  0  0  0  0  0  0  0  0  0
  149.6444  131.8382  154.9703 C   0  0  0  0  0  0  0  0  0  0  0  0
  148.6881  130.9904  154.3544 C   0  0  0  0  0  0  0  0  0  0  0  0
  147.5883  131.5293  153.6611 C   0  0  0  0  0  0  0  0  0  0  0  0
  147.4215  132.9237  153.5760 C   0  0  0  0  0  0  0  0  0  0  0  0
  146.2376  133.5170  152.8407 C   0  0  0  0  0  0  0  0  0  0  0  0
  148.3622  133.7727  154.1858 C   0  0  0  0  0  0  0  0  0  0  0  0
  149.4810  133.2430  154.8734 C   0  0  0  0  0  0  0  0  0  0  0  0
  150.4966  134.1823  155.5263 C   0  0  2  0  0  0  0  0  0  0  0  0
  150.2564  134.2782  157.0423 C   0  0  0  0  0  0  0  0  0  0  0  0
  150.4554  135.5078  154.9194 N   0  0  0  0  0  0  0  0  0  0  0  0
  151.1700  136.5917  155.2598 C   0  0  0  0  0  0  0  0  0  0  0  0
  151.9760  136.6004  156.1890 O   0  0  0  0  0  0  0  0  0  0  0  0
  150.9548  137.8687  154.4250 C   0  0  0  0  0  0  0  0  0  0  0  0
  150.3634  138.9991  155.1829 N   0  0  0  0  0  0  0  0  0  0  0  0
  148.9608  139.0166  155.3852 C   0  0  0  0  0  0  0  0  0  0  0  0
  148.2377  138.1308  154.9275 O   0  0  0  0  0  0  0  0  0  0  0  0
  148.4517  140.1343  156.1711 C   0  0  0  0  0  0  0  0  0  0  0  0
  147.1309  140.2478  156.3907 F   0  0  0  0  0  0  0  0  0  0  0  0
  149.2883  141.0570  156.6881 C   0  0  0  0  0  0  0  0  0  0  0  0
  150.6581  141.0076  156.5196 N   0  0  0  0  0  0  0  0  0  0  0  0
  151.5112  142.0907  157.1419 C   0  0  1  0  0  0  0  0  0  0  0  0
  150.6945  143.2537  157.7246 C   0  0  0  0  0  0  0  0  0  0  0  0
  151.5317  143.6266  158.9288 C   0  0  0  0  0  0  0  0  0  0  0  0
  152.0658  142.2705  159.3779 C   0  0  0  0  0  0  0  0  0  0  0  0
  152.2798  141.5400  158.1725 O   0  0  0  0  0  0  0  0  0  0  0  0
  151.2253  139.9833  155.7260 C   0  0  0  0  0  0  0  0  0  0  0  0
  152.4388  139.9310  155.5238 O   0  0  0  0  0  0  0  0  0  0  0  0
  151.9043  129.7677  156.2264 H   0  0  0  0  0  0  0  0  0  0  0  0
  151.2159  129.6353  154.6126 H   0  0  0  0  0  0  0  0  0  0  0  0
  150.1953  129.3892  156.0513 H   0  0  0  0  0  0  0  0  0  0  0  0
  148.7737  129.9156  154.3995 H   0  0  0  0  0  0  0  0  0  0  0  0
  146.8715  130.8659  153.1997 H   0  0  0  0  0  0  0  0  0  0  0  0
  145.5197  133.9237  153.5532 H   0  0  0  0  0  0  0  0  0  0  0  0
  145.7306  132.7663  152.2333 H   0  0  0  0  0  0  0  0  0  0  0  0
  146.5628  134.3237  152.1823 H   0  0  0  0  0  0  0  0  0  0  0  0
  148.2096  134.8403  154.1207 H   0  0  0  0  0  0  0  0  0  0  0  0
  151.4963  133.7807  155.3523 H   0  0  0  0  0  0  0  0  0  0  0  0
  150.3237  133.2961  157.5113 H   0  0  0  0  0  0  0  0  0  0  0  0
  149.2680  134.6838  157.2611 H   0  0  0  0  0  0  0  0  0  0  0  0
  150.9941  134.9197  157.5248 H   0  0  0  0  0  0  0  0  0  0  0  0
  149.8217  135.6106  154.1405 H   0  0  0  0  0  0  0  0  0  0  0  0
  151.9148  138.1555  153.9936 H   0  0  0  0  0  0  0  0  0  0  0  0
  150.3455  137.6126  153.5571 H   0  0  0  0  0  0  0  0  0  0  0  0
  148.8590  141.8630  157.2653 H   0  0  0  0  0  0  0  0  0  0  0  0
  152.1917  142.4267  156.3585 H   0  0  0  0  0  0  0  0  0  0  0  0
  150.5911  144.0601  156.9986 H   0  0  0  0  0  0  0  0  0  0  0  0
  149.7003  142.9323  158.0327 H   0  0  0  0  0  0  0  0  0  0  0  0
  152.3571  144.2719  158.6256 H   0  0  0  0  0  0  0  0  0  0  0  0
  150.9624  144.1392  159.7047 H   0  0  0  0  0  0  0  0  0  0  0  0
  152.9839  142.3548  159.9592 H   0  0  0  0  0  0  0  0  0  0  0  0
  151.3279  141.7529  159.9910 H   0  0  0  0  0  0  0  0  0  0  0  0
  1  2  1  0  0  0  0
  1 30  1  0  0  0  0
  1 31  1  0  0  0  0
  1 32  1  0  0  0  0
  2  3  1  0  0  0  0
  3  9  1  0  0  0  0
  3  4  2  0  0  0  0
  4  5  1  0  0  0  0
  4 33  1  0  0  0  0
  5  6  2  0  0  0  0
  5 34  1  0  0  0  0
  6  7  1  0  0  0  0
  6  8  1  0  0  0  0
  7 35  1  0  0  0  0
  7 36  1  0  0  0  0
  7 37  1  0  0  0  0
  8  9  2  0  0  0  0
  8 38  1  0  0  0  0
  9 10  1  0  0  0  0
 10 11  1  0  0  0  0
 10 12  1  0  0  0  0
 10 39  1  0  0  0  0
 11 40  1  0  0  0  0
 11 41  1  0  0  0  0
 11 42  1  0  0  0  0
 12 13  1  0  0  0  0
 12 43  1  0  0  0  0
 13 14  2  0  0  0  0
 13 15  1  0  0  0  0
 15 16  1  0  0  0  0
 15 44  1  0  0  0  0
 15 45  1  0  0  0  0
 16 28  1  0  0  0  0
 16 17  1  0  0  0  0
 17 18  2  0  0  0  0
 17 19  1  0  0  0  0
 19 20  1  0  0  0  0
 19 21  2  0  0  0  0
 21 22  1  0  0  0  0
 21 46  1  0  0  0  0
 22 23  1  0  0  0  0
 22 28  1  0  0  0  0
 23 27  1  0  0  0  0
 23 24  1  0  0  0  0
 23 47  1  0  0  0  0
 24 25  1  0  0  0  0
 24 48  1  0  0  0  0
 24 49  1  0  0  0  0
 25 26  1  0  0  0  0
 25 50  1  0  0  0  0
 25 51  1  0  0  0  0
 26 27  1  0  0  0  0
 26 52  1  0  0  0  0
 26 53  1  0  0  0  0
 28 29  2  0  0  0  0
M  END
> <s_m_source_file>
AV-unprocessed.smi

> <i_m_source_file_index>
94

> <i_lp_mmshare_version>
43012

> <i_f3d_flags>
0

> <s_epik_input>
W0NIM11PYzFbY0hdW2NIXWMoW0NIM10pW2NIXWMxW0NASF0oW0NIM10pW05IXUMoPU8pW0NIMl1uMmMoPU8pYyhGKVtjSF1uKGMyPU8pW0NAQEhdM1tDSDJdW0NIMl1bQ0gyXU8z

> <s_epik_cmdline>
J2VwaWtfcHl0aG9uJywgJy1waCcsICc3LjAnLCAnLXRuJywgJzgnLCAnLW1hJywgJzIwMCcsICctbWV0YWxfYmluZGluZycsICctaW1hZScsICc8aW5maWxlLm1hZT4nLCAnLW9tYWUnLCAnPG91dGZpbGUubWFlPic=

> <r_lp_tautomer_probability>
1

> <r_epik_Ionization_Penalty>
3.37009e-08

> <r_epik_Ionization_Penalty_Charging>
3.59856e-09

> <r_epik_Ionization_Penalty_Neutral>
3.01024e-08

> <r_epik_State_Penalty>
-0

> <r_epik_Charging_Adjusted_Penalty>
3.59856e-09

> <i_epik_Tot_Q>
0

> <i_epik_Tot_abs_Q>
0

> <r_epik_Metal_State_Penalty>
-0

> <b_epik_Metal_Only>
0

> <s_epik_Chemistry_Notes>
This compound contains an acetal/aminal-like group ( X-CH(R)-Y where X, Y are N, S, or O) that may be acid/base labile, releasing an aldehyde.

> <s_lp_Force_Field>
OPLS_2005

> <r_lp_Energy>
25.2965

> <b_lp_Chiralities_Consistent>
1

> <s_lp_Variant>
AV-unprocessed.smi:94-3

> <Gold.Version>
5.8.1

> <Gold.Id.Protein>
6NUR|6NUR_protein|mol2

> <Gold.PLP.Fitness>
50.9356

> <Gold.PLP.PLP>
-44.1623

> <Gold.PLP.part.hbond>
-4.5849

> <Gold.PLP.part.metal>
0.0000

> <Gold.PLP.part.buried>
-0.6062

> <Gold.PLP.part.nonpolar>
-38.8794

> <Gold.PLP.part.repulsive>
0.2465

> <Gold.PLP.ligand.clash>
0.0000

> <Gold.PLP.ligand.torsion>
1.1758

> <Gold.PLP.Chemscore.Hbond>
3.0000

> <Gold.PLP.Chemscore.CHOScore>
0.0000

> <Gold.PLP.Chemscore.Metal>
0.0000

> <Gold.Chemscore.Hbonds>
donor molecule, donor type, donor heavy atom, donor atom, acceptor molecule, acceptor atom, score
      P1  H  7997  8009       L1    29  0.98
      P1  H 10752 10763       L1    14  0.40

> <Gold.PLP.Chemscore.Internal.Correction>
0.1249

> <Gold.Rescore>
     Score         DG    S(hbond)    S(metal)    S(lipo)     H(rot)  DE(clash)    DE(int)     intcor
     13.79     -18.15       2.45        0.00      89.54       2.34       1.71       2.65       ----

> <Gold.Chemscore.Fitness>
13.7894

> <Gold.Chemscore.DG>
-18.1498

> <Gold.Chemscore.ZeroCoef>
-5.4800

> <Gold.Chemscore.Hbond>
2.4481

> <Gold.Chemscore.Metal>
0.0000

> <Gold.Chemscore.Lipo>
89.5376

> <Gold.Chemscore.Internal_Hbond>
0.0000

> <Gold.Chemscore.DEClash>
1.7132

> <Gold.Chemscore.DEInternal>
2.6472

> <Gold.Chemscore.Rot>
2.3370

> <Gold.Chemscore.Internal.Correction>
   9.000000E+99

> <Gold.Chemscore.Hbonds>
donor molecule, donor type, donor heavy atom, donor atom, acceptor molecule, acceptor atom, score
      P1  H  7997  8009       L1    29  0.92
      P1  H 10752 10763       L1    14  0.01

> <Gold.Chemscore.Hbond.Weighted>
-8.1765

> <Gold.Chemscore.Metal.Weighted>
-0.0000

> <Gold.Chemscore.Lipo.Weighted>
-10.4759

> <Gold.Chemscore.Internal_Hbond.Weighted>
0.0000

> <Gold.Chemscore.DEClash.Weighted>
1.7132

> <Gold.Chemscore.DEInternal.Weighted>
2.6472

> <Gold.Chemscore.Rot.Weighted>
5.9827

> <Gold.Chemscore.Internal.Correction.Weighted>
   9.000000E+99

> <Gold.Protein.RotatedTorsions>
[ 6907 6896 6895 6894 ] final  -42.24 input  -60.11 | X-H torsion
[ 7974 7965 7964 7962 ] final   82.66 input  175.53 | X-H torsion
[ 8008 7997 7996 7995 ] final -139.71 input   59.86 | X-H torsion
[ 10167 10162 10161 10158 ] final   -0.34 input  -65.29 | X-H torsion
[ 10718 10713 10712 10709 ] final  -85.74 input   66.30 | X-H torsion
[ 10763 10752 10751 10750 ] final   91.24 input  -60.55 | X-H torsion
[ 11005 11000 10999 10996 ] final  129.94 input  -57.11 | X-H torsion

> <Gold.Protein.ActiveResidues>
 VAL166  LYS551  ARG553  GLY616  TRP617  ASP618  TYR619  PRO620  LYS621  CYS622 
 ASP623  PHE694  ASN695  SER759  ASP760  ASP761  ALA762  ILE779  LEU786  VAL792 
 PHE793  MET794  SER795  GLU796  ALA797  LYS798  CYS799  TRP800  GLU811  SER814 

> <Gold.Protein.RotatedAtoms>
  150.9574  134.8967  159.7709 H   0  0  0  0  0  0  0  0  0  0  0  0  # atno 6907 bound_to 6896
  152.5143  134.3720  159.9331 H   0  0  0  0  0  0  0  0  0  0  0  0  # atno 6908 bound_to 6896
  151.3733  133.3806  159.2737 H   0  0  0  0  0  0  0  0  0  0  0  0  # atno 6909 bound_to 6896
  145.6222  139.2388  143.2132 H   0  0  0  0  0  0  0  0  0  0  0  0  # atno 7974 bound_to 7965
  155.4494  140.0537  157.3002 H   0  0  0  0  0  0  0  0  0  0  0  0  # atno 8008 bound_to 7997
  154.4784  140.2071  155.9779 H   0  0  0  0  0  0  0  0  0  0  0  0  # atno 8009 bound_to 7997
  156.1167  140.3195  155.8155 H   0  0  0  0  0  0  0  0  0  0  0  0  # atno 8010 bound_to 7997
  140.6763  143.6906  150.8031 H   0  0  0  0  0  0  0  0  0  0  0  0  # atno 10167 bound_to 10162
  155.9994  130.4741  150.4609 H   0  0  0  0  0  0  0  0  0  0  0  0  # atno 10718 bound_to 10713
  153.2062  135.4404  155.0325 H   0  0  0  0  0  0  0  0  0  0  0  0  # atno 10763 bound_to 10752
  154.8174  135.3322  154.7138 H   0  0  0  0  0  0  0  0  0  0  0  0  # atno 10764 bound_to 10752
  153.7579  135.6993  153.4987 H   0  0  0  0  0  0  0  0  0  0  0  0  # atno 10765 bound_to 10752
  139.9643  134.9594  156.9221 H   0  0  0  0  0  0  0  0  0  0  0  0  # atno 11005 bound_to 11000
  146.1422  140.7042  142.9361 LP  0  0  0  0  0  0  0  0  0  0  0  0  # atno 17320 bound_to 7965
  144.7226  140.4424  143.6996 LP  0  0  0  0  0  0  0  0  0  0  0  0  # atno 17321 bound_to 7965
  140.0599  143.5165  152.2632 LP  0  0  0  0  0  0  0  0  0  0  0  0  # atno 17342 bound_to 10162
  139.6058  144.7595  151.3066 LP  0  0  0  0  0  0  0  0  0  0  0  0  # atno 17343 bound_to 10162
  157.2633  131.0571  151.2306 LP  0  0  0  0  0  0  0  0  0  0  0  0  # atno 17370 bound_to 10713
  157.3413  130.7035  149.6383 LP  0  0  0  0  0  0  0  0  0  0  0  0  # atno 17371 bound_to 10713
  140.5430  134.0701  155.7347 LP  0  0  0  0  0  0  0  0  0  0  0  0  # atno 17394 bound_to 11000
  141.1322  133.9282  157.2510 LP  0  0  0  0  0  0  0  0  0  0  0  0  # atno 17395 bound_to 11000

$$$$
