AV-unprocessed.smi:2883|AV-procd|sdf|11076|dock8
  -GOLD-   2272015553D 1   1.00000     0.00000
 Structure written by MMmdl.
 40 42  0  0  0  0  0  0  0  0  2 V2000
  151.1906  137.3586  154.4584 C   0  0  0  0  0  0  0  0  0  0  0  0
  151.6898  138.5437  155.3173 C   0  0  0  0  0  0  0  0  0  0  0  0
  151.8210  138.1031  156.7864 C   0  0  0  0  0  0  0  0  0  0  0  0
  153.0823  138.9238  154.7641 C   0  0  0  0  0  0  0  0  0  0  0  0
  150.7217  139.7317  155.2245 C   0  0  0  0  0  0  0  0  0  0  0  0
  149.7211  139.6968  154.3261 N   0  3  0  0  0  0  0  0  0  0  0  0
  148.9221  140.7778  154.1543 C   0  0  0  0  0  0  0  0  0  0  0  0
  149.1517  141.9564  154.8867 C   0  0  0  0  0  0  0  0  0  0  0  0
  150.2398  141.9488  155.7747 C   0  0  0  0  0  0  0  0  0  0  0  0
  150.5328  143.0987  156.5205 N   0  0  0  0  0  0  0  0  0  0  0  0
  151.5158  143.0629  157.5998 C   0  0  1  0  0  0  0  0  0  0  0  0
  152.3364  144.3500  157.7084 C   0  0  0  0  0  0  0  0  0  0  0  0
  152.1431  144.7231  159.1851 C   0  0  1  0  0  0  0  0  0  0  0  0
  150.7443  145.2980  159.4417 C   0  0  0  0  0  0  0  0  0  0  0  0
  149.8709  144.0503  159.3272 C   0  0  0  0  0  0  0  0  0  0  0  0
  150.9106  142.9602  159.0146 C   0  0  2  0  0  0  0  0  0  0  0  0
  152.0066  143.4403  159.7740 O   0  0  0  0  0  0  0  0  0  0  0  0
  151.0115  140.8488  155.9094 N   0  0  0  0  0  0  0  0  0  0  0  0
  151.8944  136.5260  154.4834 H   0  0  0  0  0  0  0  0  0  0  0  0
  151.0647  137.6489  153.4146 H   0  0  0  0  0  0  0  0  0  0  0  0
  150.2333  136.9723  154.8108 H   0  0  0  0  0  0  0  0  0  0  0  0
  150.8574  137.7971  157.1958 H   0  0  0  0  0  0  0  0  0  0  0  0
  152.2002  138.9127  157.4111 H   0  0  0  0  0  0  0  0  0  0  0  0
  152.5046  137.2598  156.8901 H   0  0  0  0  0  0  0  0  0  0  0  0
  153.7632  138.0720  154.7862 H   0  0  0  0  0  0  0  0  0  0  0  0
  153.5520  139.7165  155.3475 H   0  0  0  0  0  0  0  0  0  0  0  0
  153.0200  139.2649  153.7299 H   0  0  0  0  0  0  0  0  0  0  0  0
  148.1295  140.6665  153.4290 H   0  0  0  0  0  0  0  0  0  0  0  0
  148.5246  142.8270  154.7606 H   0  0  0  0  0  0  0  0  0  0  0  0
  149.9135  143.8942  156.4655 H   0  0  0  0  0  0  0  0  0  0  0  0
  152.2012  142.2297  157.4372 H   0  0  0  0  0  0  0  0  0  0  0  0
  153.3860  144.1474  157.4924 H   0  0  0  0  0  0  0  0  0  0  0  0
  152.0020  145.1449  157.0400 H   0  0  0  0  0  0  0  0  0  0  0  0
  152.9515  145.3260  159.5995 H   0  0  0  0  0  0  0  0  0  0  0  0
  150.6765  145.7220  160.4442 H   0  0  0  0  0  0  0  0  0  0  0  0
  150.4746  146.0730  158.7235 H   0  0  0  0  0  0  0  0  0  0  0  0
  149.3782  143.8466  160.2784 H   0  0  0  0  0  0  0  0  0  0  0  0
  149.0989  144.1390  158.5627 H   0  0  0  0  0  0  0  0  0  0  0  0
  150.5898  141.9548  159.2888 H   0  0  0  0  0  0  0  0  0  0  0  0
  149.5528  138.8558  153.7735 H   0  0  0  0  0  0  0  0  0  0  0  0
  1  2  1  0  0  0  0
  1 19  1  0  0  0  0
  1 20  1  0  0  0  0
  1 21  1  0  0  0  0
  2  3  1  0  0  0  0
  2  4  1  0  0  0  0
  2  5  1  0  0  0  0
  3 22  1  0  0  0  0
  3 23  1  0  0  0  0
  3 24  1  0  0  0  0
  4 25  1  0  0  0  0
  4 26  1  0  0  0  0
  4 27  1  0  0  0  0
  5 18  1  0  0  0  0
  5  6  2  0  0  0  0
  6  7  1  0  0  0  0
  6 40  1  0  0  0  0
  7  8  2  0  0  0  0
  7 28  1  0  0  0  0
  8  9  1  0  0  0  0
  8 29  1  0  0  0  0
  9 10  1  0  0  0  0
  9 18  2  0  0  0  0
 10 11  1  0  0  0  0
 10 30  1  0  0  0  0
 11 16  1  0  0  0  0
 11 12  1  0  0  0  0
 11 31  1  0  0  0  0
 12 13  1  0  0  0  0
 12 32  1  0  0  0  0
 12 33  1  0  0  0  0
 13 17  1  0  0  0  0
 13 14  1  0  0  0  0
 13 34  1  0  0  0  0
 14 15  1  0  0  0  0
 14 35  1  0  0  0  0
 14 36  1  0  0  0  0
 15 16  1  0  0  0  0
 15 37  1  0  0  0  0
 15 38  1  0  0  0  0
 16 17  1  0  0  0  0
 16 39  1  0  0  0  0
M  CHG  1   6   1
M  END
> <s_m_source_file>
AV-unprocessed.smi

> <i_m_source_file_index>
2883

> <i_lp_mmshare_version>
43012

> <i_f3d_flags>
0

> <s_epik_input>
W0NIM11DKFtDSDNdKShbQ0gzXSljMW5bY0hdW2NIXWMobjEpW05IXVtDQEhdKFtDSDJdW0NAQEhdMjMpW0NAQEhdKE8zKVtDSDJdW0NIMl0y

> <s_epik_cmdline>
J2VwaWtfcHl0aG9uJywgJy1waCcsICc3LjAnLCAnLXRuJywgJzgnLCAnLW1hJywgJzIwMCcsICctbWV0YWxfYmluZGluZycsICctaW1hZScsICc8aW5maWxlLm1hZT4nLCAnLW9tYWUnLCAnPG91dGZpbGUubWFlPic=

> <r_lp_tautomer_probability>
0.999336

> <r_epik_Ionization_Penalty>
0.371831

> <r_epik_Ionization_Penalty_Charging>
0.371821

> <r_epik_Ionization_Penalty_Neutral>
1.06897e-05

> <r_epik_State_Penalty>
0.369311

> <r_epik_Charging_Adjusted_Penalty>
0.741132

> <i_epik_Tot_Q>
1

> <i_epik_Tot_abs_Q>
1

> <r_epik_Metal_State_Penalty>
0.621338

> <b_epik_Metal_Only>
0

> <s_lp_Force_Field>
OPLS_2005

> <r_lp_Energy>
39.2266

> <b_lp_Chiralities_Consistent>
1

> <s_lp_Variant>
AV-unprocessed.smi:2883-2

> <Gold.Version>
5.8.1

> <Gold.Id.Protein>
6NUR|6NUR_protein|mol2

> <Gold.PLP.Fitness>
40.3484

> <Gold.PLP.PLP>
-38.1826

> <Gold.PLP.part.hbond>
-1.5009

> <Gold.PLP.part.metal>
0.0000

> <Gold.PLP.part.buried>
-1.0206

> <Gold.PLP.part.nonpolar>
-35.3340

> <Gold.PLP.part.repulsive>
0.2308

> <Gold.PLP.ligand.clash>
0.0000

> <Gold.PLP.ligand.torsion>
0.4769

> <Gold.PLP.Chemscore.Hbond>
0.9920

> <Gold.PLP.Chemscore.CHOScore>
0.0000

> <Gold.PLP.Chemscore.Metal>
0.0000

> <Gold.Chemscore.Hbonds>
donor molecule, donor type, donor heavy atom, donor atom, acceptor molecule, acceptor atom, score
      L1  H    10    30       P1  8028  1.00

> <Gold.PLP.Chemscore.Internal.Correction>
0.1437

> <Gold.Rescore>
     Score         DG    S(hbond)    S(metal)    S(lipo)     H(rot)  DE(clash)    DE(int)     intcor
     17.07     -18.54       0.97        0.00     109.32       1.16       0.97       0.50       ----

> <Gold.Chemscore.Fitness>
17.0676

> <Gold.Chemscore.DG>
-18.5394

> <Gold.Chemscore.ZeroCoef>
-5.4800

> <Gold.Chemscore.Hbond>
0.9715

> <Gold.Chemscore.Metal>
0.0000

> <Gold.Chemscore.Lipo>
109.3238

> <Gold.Chemscore.Internal_Hbond>
0.0000

> <Gold.Chemscore.DEClash>
0.9749

> <Gold.Chemscore.DEInternal>
0.4969

> <Gold.Chemscore.Rot>
1.1626

> <Gold.Chemscore.Internal.Correction>
   9.000000E+99

> <Gold.Chemscore.Hbonds>
donor molecule, donor type, donor heavy atom, donor atom, acceptor molecule, acceptor atom, score
      L1  H    10    30       P1  8028  0.88

> <Gold.Chemscore.Hbond.Weighted>
-3.2449

> <Gold.Chemscore.Metal.Weighted>
-0.0000

> <Gold.Chemscore.Lipo.Weighted>
-12.7909

> <Gold.Chemscore.Internal_Hbond.Weighted>
0.0000

> <Gold.Chemscore.DEClash.Weighted>
0.9749

> <Gold.Chemscore.DEInternal.Weighted>
0.4969

> <Gold.Chemscore.Rot.Weighted>
2.9763

> <Gold.Chemscore.Internal.Correction.Weighted>
   9.000000E+99

> <Gold.Protein.RotatedTorsions>
[ 6907 6896 6895 6894 ] final  -28.77 input  -60.11 | X-H torsion
[ 7974 7965 7964 7962 ] final  -33.71 input  175.53 | X-H torsion
[ 8008 7997 7996 7995 ] final    6.78 input   59.86 | X-H torsion
[ 10167 10162 10161 10158 ] final  -59.38 input  -65.29 | X-H torsion
[ 10718 10713 10712 10709 ] final -106.42 input   66.30 | X-H torsion
[ 10763 10752 10751 10750 ] final   70.04 input  -60.55 | X-H torsion
[ 11005 11000 10999 10996 ] final   13.41 input  -57.11 | X-H torsion

> <Gold.Protein.ActiveResidues>
 VAL166  LYS551  ARG553  GLY616  TRP617  ASP618  TYR619  PRO620  LYS621  CYS622 
 ASP623  PHE694  ASN695  SER759  ASP760  ASP761  ALA762  ILE779  LEU786  VAL792 
 PHE793  MET794  SER795  GLU796  ALA797  LYS798  CYS799  TRP800  GLU811  SER814 

> <Gold.Protein.RotatedAtoms>
  151.1283  135.0117  159.8570 H   0  0  0  0  0  0  0  0  0  0  0  0  # atno 6907 bound_to 6896
  152.5450  134.1640  159.8579 H   0  0  0  0  0  0  0  0  0  0  0  0  # atno 6908 bound_to 6896
  151.1705  133.4742  159.2627 H   0  0  0  0  0  0  0  0  0  0  0  0  # atno 6909 bound_to 6896
  146.0888  140.5950  142.8874 H   0  0  0  0  0  0  0  0  0  0  0  0  # atno 7974 bound_to 7965
  154.7454  140.2757  155.6337 H   0  0  0  0  0  0  0  0  0  0  0  0  # atno 8008 bound_to 7997
  156.2883  140.2689  156.2119 H   0  0  0  0  0  0  0  0  0  0  0  0  # atno 8009 bound_to 7997
  155.0205  140.0371  157.2425 H   0  0  0  0  0  0  0  0  0  0  0  0  # atno 8010 bound_to 7997
  140.6138  143.2396  151.5645 H   0  0  0  0  0  0  0  0  0  0  0  0  # atno 10167 bound_to 10162
  156.0389  130.5612  150.7678 H   0  0  0  0  0  0  0  0  0  0  0  0  # atno 10718 bound_to 10713
  153.0319  135.5188  154.7380 H   0  0  0  0  0  0  0  0  0  0  0  0  # atno 10763 bound_to 10752
  154.6388  135.2909  155.0131 H   0  0  0  0  0  0  0  0  0  0  0  0  # atno 10764 bound_to 10752
  154.1056  135.6629  153.4928 H   0  0  0  0  0  0  0  0  0  0  0  0  # atno 10765 bound_to 10752
  140.4810  134.0935  155.7751 H   0  0  0  0  0  0  0  0  0  0  0  0  # atno 11005 bound_to 11000
  144.7345  140.4769  143.6913 LP  0  0  0  0  0  0  0  0  0  0  0  0  # atno 17320 bound_to 7965
  145.6078  139.1510  143.3093 LP  0  0  0  0  0  0  0  0  0  0  0  0  # atno 17321 bound_to 7965
  139.5382  144.2720  152.1297 LP  0  0  0  0  0  0  0  0  0  0  0  0  # atno 17342 bound_to 10162
  140.1925  144.4737  150.6471 LP  0  0  0  0  0  0  0  0  0  0  0  0  # atno 17343 bound_to 10162
  157.5180  131.0930  151.0114 LP  0  0  0  0  0  0  0  0  0  0  0  0  # atno 17370 bound_to 10713
  157.0452  130.5765  149.5362 LP  0  0  0  0  0  0  0  0  0  0  0  0  # atno 17371 bound_to 10713
  141.1531  133.8932  157.2047 LP  0  0  0  0  0  0  0  0  0  0  0  0  # atno 17394 bound_to 11000
  139.9826  135.0093  156.9787 LP  0  0  0  0  0  0  0  0  0  0  0  0  # atno 17395 bound_to 11000

$$$$
