AV-unprocessed.smi:423|AV-procd|sdf|2538|dock1
  -GOLD-   2262022503D 1   1.00000     0.00000
 Structure written by MMmdl.
 47 48  0  0  0  0  0  0  0  0  1 V2000
  155.2323  139.0041  159.2251 C   0  0  0  0  0  0  0  0  0  0  0  0
  154.7310  140.2238  159.9435 C   0  0  0  0  0  0  0  0  0  0  0  0
  154.1087  141.1678  159.2589 N   0  0  0  0  0  0  0  0  0  0  0  0
  153.8024  142.1142  160.1706 N   0  0  0  0  0  0  0  0  0  0  0  0
  153.1105  143.3180  159.7340 C   0  0  0  0  0  0  0  0  0  0  0  0
  151.6084  143.0931  159.4543 C   0  0  0  0  0  0  0  0  0  0  0  0
  151.4052  141.8918  158.5194 C   0  0  0  0  0  0  0  0  0  0  0  0
  150.9044  144.3438  158.8994 C   0  0  0  0  0  0  0  0  0  0  0  0
  154.2214  141.7565  161.4395 C   0  0  0  0  0  0  0  0  0  0  0  0
  154.0091  142.6271  162.6369 C   0  0  0  0  0  0  0  0  0  0  0  0
  154.8308  140.5349  161.3309 C   0  0  0  0  0  0  0  0  0  0  0  0
  155.4692  139.7003  162.4153 C   0  0  0  0  0  0  0  0  0  0  0  0
  156.5473  140.4880  163.1820 C   0  0  0  0  0  0  0  0  0  0  0  0
  157.4537  141.0606  162.5778 O   0  0  0  0  0  0  0  0  0  0  0  0
  156.4848  140.5369  164.5233 N   0  0  0  0  0  0  0  0  0  0  0  0
  157.4033  141.2252  165.4286 C   0  0  0  0  0  0  0  0  0  0  0  0
  157.0797  140.9247  166.9080 C   0  0  0  0  0  0  0  0  0  0  0  0
  156.9689  142.2811  167.6074 C   0  0  0  0  0  0  0  0  0  0  0  0
  156.5228  143.2394  166.5084 C   0  0  0  0  0  0  0  0  0  0  0  0
  157.2675  142.7501  165.2667 C   0  0  0  0  0  0  0  0  0  0  0  0
  156.1795  138.6643  159.6445 H   0  0  0  0  0  0  0  0  0  0  0  0
  155.3956  139.2010  158.1648 H   0  0  0  0  0  0  0  0  0  0  0  0
  154.5190  138.1842  159.3058 H   0  0  0  0  0  0  0  0  0  0  0  0
  153.2343  144.0880  160.4977 H   0  0  0  0  0  0  0  0  0  0  0  0
  153.6094  143.6961  158.8413 H   0  0  0  0  0  0  0  0  0  0  0  0
  151.1258  142.8471  160.4004 H   0  0  0  0  0  0  0  0  0  0  0  0
  151.8615  142.0675  157.5448 H   0  0  0  0  0  0  0  0  0  0  0  0
  150.3454  141.6918  158.3593 H   0  0  0  0  0  0  0  0  0  0  0  0
  151.8499  140.9883  158.9376 H   0  0  0  0  0  0  0  0  0  0  0  0
  151.3656  144.6766  157.9691 H   0  0  0  0  0  0  0  0  0  0  0  0
  150.9417  145.1731  159.6062 H   0  0  0  0  0  0  0  0  0  0  0  0
  149.8522  144.1433  158.6962 H   0  0  0  0  0  0  0  0  0  0  0  0
  154.2006  142.0806  163.5602 H   0  0  0  0  0  0  0  0  0  0  0  0
  152.9851  142.9972  162.6800 H   0  0  0  0  0  0  0  0  0  0  0  0
  154.6817  143.4840  162.6148 H   0  0  0  0  0  0  0  0  0  0  0  0
  154.7123  139.3487  163.1154 H   0  0  0  0  0  0  0  0  0  0  0  0
  155.9311  138.8067  161.9951 H   0  0  0  0  0  0  0  0  0  0  0  0
  155.7186  140.0458  164.9608 H   0  0  0  0  0  0  0  0  0  0  0  0
  158.4322  140.9454  165.1977 H   0  0  0  0  0  0  0  0  0  0  0  0
  156.1273  140.3994  166.9959 H   0  0  0  0  0  0  0  0  0  0  0  0
  157.8375  140.2940  167.3735 H   0  0  0  0  0  0  0  0  0  0  0  0
  156.2817  142.2622  168.4538 H   0  0  0  0  0  0  0  0  0  0  0  0
  157.9484  142.5833  167.9806 H   0  0  0  0  0  0  0  0  0  0  0  0
  155.4467  143.1472  166.3541 H   0  0  0  0  0  0  0  0  0  0  0  0
  156.7394  144.2815  166.7449 H   0  0  0  0  0  0  0  0  0  0  0  0
  158.2621  143.1982  165.2488 H   0  0  0  0  0  0  0  0  0  0  0  0
  156.7683  143.0466  164.3430 H   0  0  0  0  0  0  0  0  0  0  0  0
  1  2  1  0  0  0  0
  1 21  1  0  0  0  0
  1 22  1  0  0  0  0
  1 23  1  0  0  0  0
  2 11  1  0  0  0  0
  2  3  2  0  0  0  0
  3  4  1  0  0  0  0
  4  5  1  0  0  0  0
  4  9  1  0  0  0  0
  5  6  1  0  0  0  0
  5 24  1  0  0  0  0
  5 25  1  0  0  0  0
  6  7  1  0  0  0  0
  6  8  1  0  0  0  0
  6 26  1  0  0  0  0
  7 27  1  0  0  0  0
  7 28  1  0  0  0  0
  7 29  1  0  0  0  0
  8 30  1  0  0  0  0
  8 31  1  0  0  0  0
  8 32  1  0  0  0  0
  9 10  1  0  0  0  0
  9 11  2  0  0  0  0
 10 33  1  0  0  0  0
 10 34  1  0  0  0  0
 10 35  1  0  0  0  0
 11 12  1  0  0  0  0
 12 13  1  0  0  0  0
 12 36  1  0  0  0  0
 12 37  1  0  0  0  0
 13 14  2  0  0  0  0
 13 15  1  0  0  0  0
 15 16  1  0  0  0  0
 15 38  1  0  0  0  0
 16 20  1  0  0  0  0
 16 17  1  0  0  0  0
 16 39  1  0  0  0  0
 17 18  1  0  0  0  0
 17 40  1  0  0  0  0
 17 41  1  0  0  0  0
 18 19  1  0  0  0  0
 18 42  1  0  0  0  0
 18 43  1  0  0  0  0
 19 20  1  0  0  0  0
 19 44  1  0  0  0  0
 19 45  1  0  0  0  0
 20 46  1  0  0  0  0
 20 47  1  0  0  0  0
M  END
> <s_m_source_file>
AV-unprocessed.smi

> <i_m_source_file_index>
423

> <i_lp_mmshare_version>
43012

> <i_f3d_flags>
0

> <s_epik_input>
W0NIM11jMW5uKFtDSDJdW0NIXShbQ0gzXSlbQ0gzXSljKFtDSDNdKWMxW0NIMl1DKD1PKVtOSF1bQ0hdMltDSDJdW0NIMl1bQ0gyXVtDSDJdMg==

> <s_epik_cmdline>
J2VwaWtfcHl0aG9uJywgJy1waCcsICc3LjAnLCAnLXRuJywgJzgnLCAnLW1hJywgJzIwMCcsICctbWV0YWxfYmluZGluZycsICctaW1hZScsICc8aW5maWxlLm1hZT4nLCAnLW9tYWUnLCAnPG91dGZpbGUubWFlPic=

> <r_lp_tautomer_probability>
1

> <r_epik_Ionization_Penalty>
0.00323157

> <r_epik_Ionization_Penalty_Charging>
0

> <r_epik_Ionization_Penalty_Neutral>
0.00323157

> <r_epik_State_Penalty>
0.00228044

> <r_epik_Charging_Adjusted_Penalty>
0.00228044

> <i_epik_Tot_Q>
0

> <i_epik_Tot_abs_Q>
0

> <r_epik_Metal_State_Penalty>
-0

> <b_epik_Metal_Only>
0

> <s_lp_Force_Field>
OPLS_2005

> <r_lp_Energy>
20.2574

> <b_lp_Chiralities_Consistent>
1

> <s_lp_Variant>
AV-unprocessed.smi:423-1

> <Gold.Version>
5.8.1

> <Gold.Id.Protein>
6NUR|6NUR_protein|mol2

> <Gold.PLP.Fitness>
41.3758

> <Gold.PLP.PLP>
-41.9172

> <Gold.PLP.part.hbond>
-1.5430

> <Gold.PLP.part.metal>
0.0000

> <Gold.PLP.part.buried>
-2.7620

> <Gold.PLP.part.nonpolar>
-37.8505

> <Gold.PLP.part.repulsive>
0.0461

> <Gold.PLP.ligand.clash>
0.0000

> <Gold.PLP.ligand.torsion>
0.3589

> <Gold.PLP.Chemscore.Hbond>
0.0000

> <Gold.PLP.Chemscore.CHOScore>
0.0000

> <Gold.PLP.Chemscore.Metal>
0.0000

> <Gold.PLP.Chemscore.Internal.Correction>
0.1763

> <Gold.Rescore>
     Score         DG    S(hbond)    S(metal)    S(lipo)     H(rot)  DE(clash)    DE(int)     intcor
     16.27     -16.98       0.45        0.00     116.90       1.43       0.22       0.50       ----

> <Gold.Chemscore.Fitness>
16.2677

> <Gold.Chemscore.DG>
-16.9817

> <Gold.Chemscore.ZeroCoef>
-5.4800

> <Gold.Chemscore.Hbond>
0.4459

> <Gold.Chemscore.Metal>
0.0000

> <Gold.Chemscore.Lipo>
116.9012

> <Gold.Chemscore.Internal_Hbond>
0.0000

> <Gold.Chemscore.DEClash>
0.2183

> <Gold.Chemscore.DEInternal>
0.4957

> <Gold.Chemscore.Rot>
1.4316

> <Gold.Chemscore.Internal.Correction>
   9.000000E+99

> <Gold.Chemscore.Hbond.Weighted>
-1.4892

> <Gold.Chemscore.Metal.Weighted>
-0.0000

> <Gold.Chemscore.Lipo.Weighted>
-13.6774

> <Gold.Chemscore.Internal_Hbond.Weighted>
0.0000

> <Gold.Chemscore.DEClash.Weighted>
0.2183

> <Gold.Chemscore.DEInternal.Weighted>
0.4957

> <Gold.Chemscore.Rot.Weighted>
3.6649

> <Gold.Chemscore.Internal.Correction.Weighted>
   9.000000E+99

> <Gold.Protein.RotatedTorsions>
[ 6907 6896 6895 6894 ] final  -99.20 input  -60.11 | X-H torsion
[ 7974 7965 7964 7962 ] final   97.07 input  175.53 | X-H torsion
[ 8008 7997 7996 7995 ] final   -9.71 input   59.86 | X-H torsion
[ 10167 10162 10161 10158 ] final   45.46 input  -65.29 | X-H torsion
[ 10718 10713 10712 10709 ] final  178.22 input   66.30 | X-H torsion
[ 10763 10752 10751 10750 ] final  113.30 input  -60.55 | X-H torsion
[ 11005 11000 10999 10996 ] final -124.28 input  -57.11 | X-H torsion

> <Gold.Protein.ActiveResidues>
 VAL166  LYS551  ARG553  GLY616  TRP617  ASP618  TYR619  PRO620  LYS621  CYS622 
 ASP623  PHE694  ASN695  SER759  ASP760  ASP761  ALA762  ILE779  LEU786  VAL792 
 PHE793  MET794  SER795  GLU796  ALA797  LYS798  CYS799  TRP800  GLU811  SER814 

> <Gold.Protein.RotatedAtoms>
  150.7072  134.1077  159.3988 H   0  0  0  0  0  0  0  0  0  0  0  0  # atno 6907 bound_to 6896
  151.9064  135.0355  160.0520 H   0  0  0  0  0  0  0  0  0  0  0  0  # atno 6908 bound_to 6896
  152.2372  133.5070  159.5286 H   0  0  0  0  0  0  0  0  0  0  0  0  # atno 6909 bound_to 6896
  145.4304  139.2311  143.3147 H   0  0  0  0  0  0  0  0  0  0  0  0  # atno 7974 bound_to 7965
  154.5621  140.2348  155.8319 H   0  0  0  0  0  0  0  0  0  0  0  0  # atno 8008 bound_to 7997
  156.2038  140.3045  155.9542 H   0  0  0  0  0  0  0  0  0  0  0  0  # atno 8009 bound_to 7997
  155.2869  140.0425  157.3010 H   0  0  0  0  0  0  0  0  0  0  0  0  # atno 8010 bound_to 7997
  140.3239  144.2671  150.6178 H   0  0  0  0  0  0  0  0  0  0  0  0  # atno 10167 bound_to 10162
  156.8938  130.9856  151.3045 H   0  0  0  0  0  0  0  0  0  0  0  0  # atno 10718 bound_to 10713
  153.4904  135.3660  155.2489 H   0  0  0  0  0  0  0  0  0  0  0  0  # atno 10763 bound_to 10752
  154.8752  135.3976  154.3595 H   0  0  0  0  0  0  0  0  0  0  0  0  # atno 10764 bound_to 10752
  153.4214  135.7080  153.6357 H   0  0  0  0  0  0  0  0  0  0  0  0  # atno 10765 bound_to 10752
  140.9853  134.0615  157.3718 H   0  0  0  0  0  0  0  0  0  0  0  0  # atno 11005 bound_to 11000
  146.2610  140.5040  142.8853 LP  0  0  0  0  0  0  0  0  0  0  0  0  # atno 17320 bound_to 7965
  144.8186  140.6512  143.6367 LP  0  0  0  0  0  0  0  0  0  0  0  0  # atno 17321 bound_to 7965
  140.5458  143.2215  151.8009 LP  0  0  0  0  0  0  0  0  0  0  0  0  # atno 17342 bound_to 10162
  139.4869  144.4541  151.9619 LP  0  0  0  0  0  0  0  0  0  0  0  0  # atno 17343 bound_to 10162
  157.6068  130.8553  149.8887 LP  0  0  0  0  0  0  0  0  0  0  0  0  # atno 17370 bound_to 10713
  156.0616  130.3699  150.0970 LP  0  0  0  0  0  0  0  0  0  0  0  0  # atno 17371 bound_to 10713
  139.8968  135.0147  156.7068 LP  0  0  0  0  0  0  0  0  0  0  0  0  # atno 17394 bound_to 11000
  140.7124  133.9212  155.8093 LP  0  0  0  0  0  0  0  0  0  0  0  0  # atno 17395 bound_to 11000

$$$$
