AV-unprocessed.smi:842|AV-procd|sdf|3918|dock1
  -GOLD-   22720 1383D 1   1.00000     0.00000
 Structure written by MMmdl.
 42 43  0  0  0  0  0  0  0  0  1 V2000
  144.6745  135.5343  151.0926 C   0  0  0  0  0  0  0  0  0  0  0  0
  145.6828  136.6499  150.7822 C   0  0  0  0  0  0  0  0  0  0  0  0
  145.7411  137.7509  151.8621 C   0  0  1  0  0  0  0  0  0  0  0  0
  144.7718  137.5209  153.0385 C   0  0  0  0  0  0  0  0  0  0  0  0
  143.4292  137.7629  152.6682 O   0  0  0  0  0  0  0  0  0  0  0  0
  147.1022  137.9299  152.3687 N   0  0  0  0  0  0  0  0  0  0  0  0
  147.4964  138.8359  153.2758 C   0  0  0  0  0  0  0  0  0  0  0  0
  146.7358  139.6411  153.8122 O   0  0  0  0  0  0  0  0  0  0  0  0
  148.8130  138.7288  153.5246 N   0  0  0  0  0  0  0  0  0  0  0  0
  149.6156  139.5157  154.3947 C   0  0  0  0  0  0  0  0  0  0  0  0
  150.9083  139.1470  154.8377 C   0  0  0  0  0  0  0  0  0  0  0  0
  151.5963  140.0035  155.7184 C   0  0  0  0  0  0  0  0  0  0  0  0
  150.9739  141.1984  156.1335 C   0  0  0  0  0  0  0  0  0  0  0  0
  151.6633  142.0476  157.0123 N   0  0  0  0  0  0  0  0  0  0  0  0
  151.0362  143.3332  157.2711 C   0  0  0  0  0  0  0  0  0  0  0  0
  151.7473  143.8898  158.5070 C   0  0  0  0  0  0  0  0  0  0  0  0
  152.3396  142.6599  159.2064 C   0  0  0  0  0  0  0  0  0  0  0  0
  151.9504  141.4756  158.3169 C   0  0  0  0  0  0  0  0  0  0  0  0
  149.7316  141.5504  155.7244 N   0  0  0  0  0  0  0  0  0  0  0  0
  149.0760  140.7239  154.8823 C   0  0  0  0  0  0  0  0  0  0  0  0
  144.7064  134.7606  150.3255 H   0  0  0  0  0  0  0  0  0  0  0  0
  143.6542  135.9160  151.1323 H   0  0  0  0  0  0  0  0  0  0  0  0
  144.8931  135.0617  152.0503 H   0  0  0  0  0  0  0  0  0  0  0  0
  146.6723  136.2038  150.6750 H   0  0  0  0  0  0  0  0  0  0  0  0
  145.4391  137.0861  149.8128 H   0  0  0  0  0  0  0  0  0  0  0  0
  145.4160  138.6764  151.3839 H   0  0  0  0  0  0  0  0  0  0  0  0
  144.8644  136.5058  153.4268 H   0  0  0  0  0  0  0  0  0  0  0  0
  145.0196  138.1953  153.8587 H   0  0  0  0  0  0  0  0  0  0  0  0
  143.3257  138.6872  152.5010 H   0  0  0  0  0  0  0  0  0  0  0  0
  147.8009  137.3057  151.9928 H   0  0  0  0  0  0  0  0  0  0  0  0
  149.2890  137.9622  153.0719 H   0  0  0  0  0  0  0  0  0  0  0  0
  151.3783  138.2245  154.5351 H   0  0  0  0  0  0  0  0  0  0  0  0
  152.5840  139.7433  156.0702 H   0  0  0  0  0  0  0  0  0  0  0  0
  151.1388  143.9996  156.4142 H   0  0  0  0  0  0  0  0  0  0  0  0
  149.9720  143.2098  157.4765 H   0  0  0  0  0  0  0  0  0  0  0  0
  152.5481  144.5679  158.2092 H   0  0  0  0  0  0  0  0  0  0  0  0
  151.0627  144.4448  159.1489 H   0  0  0  0  0  0  0  0  0  0  0  0
  153.4249  142.7522  159.2631 H   0  0  0  0  0  0  0  0  0  0  0  0
  151.9623  142.5388  160.2221 H   0  0  0  0  0  0  0  0  0  0  0  0
  151.0657  140.9790  158.7186 H   0  0  0  0  0  0  0  0  0  0  0  0
  152.7520  140.7390  158.2558 H   0  0  0  0  0  0  0  0  0  0  0  0
  148.0872  141.0424  154.5853 H   0  0  0  0  0  0  0  0  0  0  0  0
  1  2  1  0  0  0  0
  1 21  1  0  0  0  0
  1 22  1  0  0  0  0
  1 23  1  0  0  0  0
  2  3  1  0  0  0  0
  2 24  1  0  0  0  0
  2 25  1  0  0  0  0
  3  4  1  0  0  0  0
  3  6  1  0  0  0  0
  3 26  1  0  0  0  0
  4  5  1  0  0  0  0
  4 27  1  0  0  0  0
  4 28  1  0  0  0  0
  5 29  1  0  0  0  0
  6  7  1  0  0  0  0
  6 30  1  0  0  0  0
  7  8  2  0  0  0  0
  7  9  1  0  0  0  0
  9 10  1  0  0  0  0
  9 31  1  0  0  0  0
 10 20  1  0  0  0  0
 10 11  2  0  0  0  0
 11 12  1  0  0  0  0
 11 32  1  0  0  0  0
 12 13  2  0  0  0  0
 12 33  1  0  0  0  0
 13 14  1  0  0  0  0
 13 19  1  0  0  0  0
 14 18  1  0  0  0  0
 14 15  1  0  0  0  0
 15 16  1  0  0  0  0
 15 34  1  0  0  0  0
 15 35  1  0  0  0  0
 16 17  1  0  0  0  0
 16 36  1  0  0  0  0
 16 37  1  0  0  0  0
 17 18  1  0  0  0  0
 17 38  1  0  0  0  0
 17 39  1  0  0  0  0
 18 40  1  0  0  0  0
 18 41  1  0  0  0  0
 19 20  2  0  0  0  0
 20 42  1  0  0  0  0
M  END
> <s_m_source_file>
AV-unprocessed.smi

> <i_m_source_file_index>
842

> <i_lp_mmshare_version>
43012

> <i_f3d_flags>
0

> <s_epik_input>
W0NIM11bQ0gyXVtDQEhdKFtDSDJdW09IXSlbTkhdQyg9TylbTkhdYzFbY0hdW2NIXWMobltjSF0xKU4yW0NIMl1bQ0gyXVtDSDJdW0NIMl0y

> <s_epik_cmdline>
J2VwaWtfcHl0aG9uJywgJy1waCcsICc3LjAnLCAnLXRuJywgJzgnLCAnLW1hJywgJzIwMCcsICctbWV0YWxfYmluZGluZycsICctaW1hZScsICc8aW5maWxlLm1hZT4nLCAnLW9tYWUnLCAnPG91dGZpbGUubWFlPic=

> <r_lp_tautomer_probability>
1

> <r_epik_Ionization_Penalty>
0.0996525

> <r_epik_Ionization_Penalty_Charging>
0

> <r_epik_Ionization_Penalty_Neutral>
0.0996525

> <r_epik_State_Penalty>
0.0891422

> <r_epik_Charging_Adjusted_Penalty>
0.0891422

> <i_epik_Tot_Q>
0

> <i_epik_Tot_abs_Q>
0

> <r_epik_Metal_State_Penalty>
0.07624

> <b_epik_Metal_Only>
0

> <s_lp_Force_Field>
OPLS_2005

> <r_lp_Energy>
38.339

> <b_lp_Chiralities_Consistent>
1

> <s_lp_Variant>
AV-unprocessed.smi:842-2

> <Gold.Version>
5.8.1

> <Gold.Id.Protein>
6NUR|6NUR_protein|mol2

> <Gold.PLP.Fitness>
42.4978

> <Gold.PLP.PLP>
-36.0748

> <Gold.PLP.part.hbond>
-4.8381

> <Gold.PLP.part.metal>
0.0000

> <Gold.PLP.part.buried>
5.0975

> <Gold.PLP.part.nonpolar>
-37.7631

> <Gold.PLP.part.repulsive>
0.4533

> <Gold.PLP.ligand.clash>
0.0000

> <Gold.PLP.ligand.torsion>
0.9998

> <Gold.PLP.Chemscore.Hbond>
2.7664

> <Gold.PLP.Chemscore.CHOScore>
0.0000

> <Gold.PLP.Chemscore.Metal>
0.0000

> <Gold.Chemscore.Hbonds>
donor molecule, donor type, donor heavy atom, donor atom, acceptor molecule, acceptor atom, score
      L1  H     5    29       P1 10175  1.00
      L1  H     6    30       P1  7948  1.00
      L1  H     9    31       P1  7948  0.71

> <Gold.PLP.Chemscore.Internal.Correction>
0.1233

> <Gold.Rescore>
     Score         DG    S(hbond)    S(metal)    S(lipo)     H(rot)  DE(clash)    DE(int)     intcor
     14.52     -20.00       2.77        0.00      93.61       2.23       2.75       2.73       ----

> <Gold.Chemscore.Fitness>
14.5178

> <Gold.Chemscore.DG>
-19.9965

> <Gold.Chemscore.ZeroCoef>
-5.4800

> <Gold.Chemscore.Hbond>
2.7744

> <Gold.Chemscore.Metal>
0.0000

> <Gold.Chemscore.Lipo>
93.6079

> <Gold.Chemscore.Internal_Hbond>
0.0000

> <Gold.Chemscore.DEClash>
2.7478

> <Gold.Chemscore.DEInternal>
2.7309

> <Gold.Chemscore.Rot>
2.2274

> <Gold.Chemscore.Internal.Correction>
   9.000000E+99

> <Gold.Chemscore.Hbonds>
donor molecule, donor type, donor heavy atom, donor atom, acceptor molecule, acceptor atom, score
      L1  H     5    29       P1 10175  1.00
      L1  H     6    30       P1  7948  0.96
      L1  H     9    31       P1  7948  0.67

> <Gold.Chemscore.Hbond.Weighted>
-9.2666

> <Gold.Chemscore.Metal.Weighted>
-0.0000

> <Gold.Chemscore.Lipo.Weighted>
-10.9521

> <Gold.Chemscore.Internal_Hbond.Weighted>
0.0000

> <Gold.Chemscore.DEClash.Weighted>
2.7478

> <Gold.Chemscore.DEInternal.Weighted>
2.7309

> <Gold.Chemscore.Rot.Weighted>
5.7022

> <Gold.Chemscore.Internal.Correction.Weighted>
   9.000000E+99

> <Gold.Protein.RotatedTorsions>
[ 6907 6896 6895 6894 ] final   59.72 input  -60.11 | X-H torsion
[ 7974 7965 7964 7962 ] final   91.97 input  175.53 | X-H torsion
[ 8008 7997 7996 7995 ] final  112.77 input   59.86 | X-H torsion
[ 10167 10162 10161 10158 ] final  -57.10 input  -65.29 | X-H torsion
[ 10718 10713 10712 10709 ] final   56.52 input   66.30 | X-H torsion
[ 10763 10752 10751 10750 ] final  110.95 input  -60.55 | X-H torsion
[ 11005 11000 10999 10996 ] final   76.01 input  -57.11 | X-H torsion

> <Gold.Protein.ActiveResidues>
 VAL166  LYS551  ARG553  GLY616  TRP617  ASP618  TYR619  PRO620  LYS621  CYS622 
 ASP623  PHE694  ASN695  SER759  ASP760  ASP761  ALA762  ILE779  LEU786  VAL792 
 PHE793  MET794  SER795  GLU796  ALA797  LYS798  CYS799  TRP800  GLU811  SER814 

> <Gold.Protein.RotatedAtoms>
  152.3939  134.6396  160.0096 H   0  0  0  0  0  0  0  0  0  0  0  0  # atno 6907 bound_to 6896
  151.6622  133.3311  159.3184 H   0  0  0  0  0  0  0  0  0  0  0  0  # atno 6908 bound_to 6896
  150.7850  134.6871  159.6521 H   0  0  0  0  0  0  0  0  0  0  0  0  # atno 6909 bound_to 6896
  145.4986  139.2276  143.2790 H   0  0  0  0  0  0  0  0  0  0  0  0  # atno 7974 bound_to 7965
  156.2214  140.2993  155.9962 H   0  0  0  0  0  0  0  0  0  0  0  0  # atno 8008 bound_to 7997
  155.2471  140.0424  157.2999 H   0  0  0  0  0  0  0  0  0  0  0  0  # atno 8009 bound_to 7997
  154.5847  140.2385  155.8012 H   0  0  0  0  0  0  0  0  0  0  0  0  # atno 8010 bound_to 7997
  140.6278  143.2446  151.5319 H   0  0  0  0  0  0  0  0  0  0  0  0  # atno 10167 bound_to 10162
  157.5438  130.8716  149.8860 H   0  0  0  0  0  0  0  0  0  0  0  0  # atno 10718 bound_to 10713
  153.4563  135.3732  155.2312 H   0  0  0  0  0  0  0  0  0  0  0  0  # atno 10763 bound_to 10752
  154.8757  135.3898  154.3978 H   0  0  0  0  0  0  0  0  0  0  0  0  # atno 10764 bound_to 10752
  153.4545  135.7086  153.6152 H   0  0  0  0  0  0  0  0  0  0  0  0  # atno 10765 bound_to 10752
  139.9318  134.7565  156.1342 H   0  0  0  0  0  0  0  0  0  0  0  0  # atno 11005 bound_to 11000
  146.2240  140.5785  142.9004 LP  0  0  0  0  0  0  0  0  0  0  0  0  # atno 17320 bound_to 7965
  144.7793  140.5806  143.6616 LP  0  0  0  0  0  0  0  0  0  0  0  0  # atno 17321 bound_to 7965
  139.5496  144.2430  152.1506 LP  0  0  0  0  0  0  0  0  0  0  0  0  # atno 17342 bound_to 10162
  140.1666  144.4975  150.6602 LP  0  0  0  0  0  0  0  0  0  0  0  0  # atno 17343 bound_to 10162
  156.0518  130.3716  150.1183 LP  0  0  0  0  0  0  0  0  0  0  0  0  # atno 17370 bound_to 10713
  156.9361  130.9729  151.3524 LP  0  0  0  0  0  0  0  0  0  0  0  0  # atno 17371 bound_to 10713
  141.0910  133.6714  156.2541 LP  0  0  0  0  0  0  0  0  0  0  0  0  # atno 17394 bound_to 11000
  140.6183  134.5388  157.5544 LP  0  0  0  0  0  0  0  0  0  0  0  0  # atno 17395 bound_to 11000

$$$$
