AV-unprocessed.smi:1697|AV-procd|sdf|6803|dock1
  -GOLD-   22720 7573D 1   1.00000     0.00000
 Structure written by MMmdl.
 54 56  0  0  0  0  0  0  0  0  2 V2000
  149.9176  131.9098  152.6964 C   0  0  0  0  0  0  0  0  0  0  0  0
  149.8211  133.4078  152.9942 C   0  0  0  0  0  0  0  0  0  0  0  0
  149.8563  133.5943  154.4013 O   0  0  0  0  0  0  0  0  0  0  0  0
  149.9377  134.9508  154.8180 C   0  0  2  0  0  0  0  0  0  0  0  0
  148.6558  135.7253  154.4583 C   0  0  0  0  0  0  0  0  0  0  0  0
  148.8133  137.2273  154.7504 C   0  0  0  0  0  0  0  0  0  0  0  0
  149.9853  137.7936  154.0310 N   0  3  1  0  0  0  0  0  0  0  0  0
  150.1038  139.2687  154.1634 C   0  0  0  0  0  0  0  0  0  0  0  0
  150.1357  139.7237  155.6355 C   0  0  2  0  0  0  0  0  0  0  0  0
  148.8871  140.3057  155.9593 O   0  0  0  0  0  0  0  0  0  0  0  0
  151.2573  140.7468  155.8993 C   0  0  0  0  0  0  0  0  0  0  0  0
  151.9138  140.5272  157.1752 N   0  0  0  0  0  0  0  0  0  0  0  0
  152.6125  139.4408  157.5581 C   0  0  0  0  0  0  0  0  0  0  0  0
  153.1405  139.4559  158.7785 N   0  0  0  0  0  0  0  0  0  0  0  0
  152.7341  140.6950  159.2432 C   0  0  0  0  0  0  0  0  0  0  0  0
  152.9662  141.3317  160.4818 C   0  0  0  0  0  0  0  0  0  0  0  0
  152.4467  142.6196  160.7432 C   0  0  0  0  0  0  0  0  0  0  0  0
  152.7232  143.2684  162.0881 C   0  0  0  0  0  0  0  0  0  0  0  0
  151.6790  143.2901  159.7572 C   0  0  0  0  0  0  0  0  0  0  0  0
  151.1076  144.6724  160.0176 C   0  0  0  0  0  0  0  0  0  0  0  0
  151.4393  142.6694  158.5134 C   0  0  0  0  0  0  0  0  0  0  0  0
  151.9631  141.3886  158.2652 C   0  0  0  0  0  0  0  0  0  0  0  0
  151.2397  137.0872  154.3961 C   0  0  0  0  0  0  0  0  0  0  0  0
  151.1336  135.5840  154.0919 C   0  0  0  0  0  0  0  0  0  0  0  0
  149.8894  131.7235  151.6225 H   0  0  0  0  0  0  0  0  0  0  0  0
  149.0900  131.3660  153.1523 H   0  0  0  0  0  0  0  0  0  0  0  0
  150.8475  131.4925  153.0839 H   0  0  0  0  0  0  0  0  0  0  0  0
  150.6469  133.9305  152.5118 H   0  0  0  0  0  0  0  0  0  0  0  0
  148.8920  133.8061  152.5839 H   0  0  0  0  0  0  0  0  0  0  0  0
  150.1173  135.0029  155.8936 H   0  0  0  0  0  0  0  0  0  0  0  0
  148.4237  135.5824  153.4019 H   0  0  0  0  0  0  0  0  0  0  0  0
  147.8037  135.3390  155.0171 H   0  0  0  0  0  0  0  0  0  0  0  0
  147.8998  137.7415  154.4546 H   0  0  0  0  0  0  0  0  0  0  0  0
  148.9307  137.3883  155.8233 H   0  0  0  0  0  0  0  0  0  0  0  0
  150.9975  139.6064  153.6362 H   0  0  0  0  0  0  0  0  0  0  0  0
  149.2609  139.7564  153.6707 H   0  0  0  0  0  0  0  0  0  0  0  0
  150.2887  138.8672  156.2915 H   0  0  0  0  0  0  0  0  0  0  0  0
  149.0221  141.2173  156.1706 H   0  0  0  0  0  0  0  0  0  0  0  0
  152.0136  140.6874  155.1156 H   0  0  0  0  0  0  0  0  0  0  0  0
  150.8646  141.7647  155.8771 H   0  0  0  0  0  0  0  0  0  0  0  0
  152.7459  138.5929  156.9023 H   0  0  0  0  0  0  0  0  0  0  0  0
  153.5495  140.8199  161.2331 H   0  0  0  0  0  0  0  0  0  0  0  0
  151.7899  143.4668  162.6155 H   0  0  0  0  0  0  0  0  0  0  0  0
  153.2545  144.2111  161.9553 H   0  0  0  0  0  0  0  0  0  0  0  0
  153.3358  142.6263  162.7218 H   0  0  0  0  0  0  0  0  0  0  0  0
  150.5231  145.0278  159.1685 H   0  0  0  0  0  0  0  0  0  0  0  0
  151.9093  145.3893  160.1964 H   0  0  0  0  0  0  0  0  0  0  0  0
  150.4541  144.6584  160.8903 H   0  0  0  0  0  0  0  0  0  0  0  0
  150.8573  143.1691  157.7534 H   0  0  0  0  0  0  0  0  0  0  0  0
  152.0754  137.5046  153.8330 H   0  0  0  0  0  0  0  0  0  0  0  0
  151.4568  137.2458  155.4537 H   0  0  0  0  0  0  0  0  0  0  0  0
  152.0553  135.0799  154.3845 H   0  0  0  0  0  0  0  0  0  0  0  0
  151.0305  135.4382  153.0155 H   0  0  0  0  0  0  0  0  0  0  0  0
  149.8414  137.6143  153.0470 H   0  0  0  0  0  0  0  0  0  0  0  0
  1  2  1  0  0  0  0
  1 25  1  0  0  0  0
  1 26  1  0  0  0  0
  1 27  1  0  0  0  0
  2  3  1  0  0  0  0
  2 28  1  0  0  0  0
  2 29  1  0  0  0  0
  3  4  1  0  0  0  0
  4 24  1  0  0  0  0
  4  5  1  0  0  0  0
  4 30  1  0  0  0  0
  5  6  1  0  0  0  0
  5 31  1  0  0  0  0
  5 32  1  0  0  0  0
  6  7  1  0  0  0  0
  6 33  1  0  0  0  0
  6 34  1  0  0  0  0
  7  8  1  0  0  0  0
  7 23  1  0  0  0  0
  7 54  1  0  0  0  0
  8  9  1  0  0  0  0
  8 35  1  0  0  0  0
  8 36  1  0  0  0  0
  9 10  1  0  0  0  0
  9 11  1  0  0  0  0
  9 37  1  0  0  0  0
 10 38  1  0  0  0  0
 11 12  1  0  0  0  0
 11 39  1  0  0  0  0
 11 40  1  0  0  0  0
 12 22  1  0  0  0  0
 12 13  1  0  0  0  0
 13 14  2  0  0  0  0
 13 41  1  0  0  0  0
 14 15  1  0  0  0  0
 15 22  2  0  0  0  0
 15 16  1  0  0  0  0
 16 17  2  0  0  0  0
 16 42  1  0  0  0  0
 17 18  1  0  0  0  0
 17 19  1  0  0  0  0
 18 43  1  0  0  0  0
 18 44  1  0  0  0  0
 18 45  1  0  0  0  0
 19 20  1  0  0  0  0
 19 21  2  0  0  0  0
 20 46  1  0  0  0  0
 20 47  1  0  0  0  0
 20 48  1  0  0  0  0
 21 22  1  0  0  0  0
 21 49  1  0  0  0  0
 23 24  1  0  0  0  0
 23 50  1  0  0  0  0
 23 51  1  0  0  0  0
 24 52  1  0  0  0  0
 24 53  1  0  0  0  0
M  CHG  1   7   1
M  END
> <s_m_source_file>
AV-unprocessed.smi

> <i_m_source_file_index>
1697

> <i_lp_mmshare_version>
43012

> <i_f3d_flags>
0

> <s_epik_input>
W0NIM11bQ0gyXU9bQ0hdMVtDSDJdW0NIMl1OKFtDSDJdW0NIMl0xKVtDSDJdW0NASF0oW09IXSlbQ0gyXW4oW2NIXW4yKWMoYzIzKVtjSF1jKFtDSDNdKWMoW2NIXTMpW0NIM10=

> <s_epik_cmdline>
J2VwaWtfcHl0aG9uJywgJy1waCcsICc3LjAnLCAnLXRuJywgJzgnLCAnLW1hJywgJzIwMCcsICctbWV0YWxfYmluZGluZycsICctaW1hZScsICc8aW5maWxlLm1hZT4nLCAnLW9tYWUnLCAnPG91dGZpbGUubWFlPic=

> <r_epik_Ionization_Penalty>
0.112476

> <r_epik_Ionization_Penalty_Charging>
0.0244612

> <r_epik_Ionization_Penalty_Neutral>
0.0880147

> <r_epik_State_Penalty>
0.0961447

> <r_epik_Charging_Adjusted_Penalty>
0.120606

> <i_epik_Tot_Q>
1

> <i_epik_Tot_abs_Q>
1

> <r_epik_Metal_State_Penalty>
0.0206204

> <b_epik_Metal_Only>
0

> <s_lp_Force_Field>
OPLS_2005

> <r_lp_Energy>
22.6968

> <b_lp_Chiralities_Consistent>
1

> <s_lp_Variant>
AV-unprocessed.smi:1697-1

> <Gold.Version>
5.8.1

> <Gold.Id.Protein>
6NUR|6NUR_protein|mol2

> <Gold.PLP.Fitness>
51.8912

> <Gold.PLP.PLP>
-47.9154

> <Gold.PLP.part.hbond>
-1.0000

> <Gold.PLP.part.metal>
0.0000

> <Gold.PLP.part.buried>
-4.9864

> <Gold.PLP.part.nonpolar>
-40.9823

> <Gold.PLP.part.repulsive>
0.0638

> <Gold.PLP.ligand.clash>
0.0000

> <Gold.PLP.ligand.torsion>
1.2880

> <Gold.PLP.Chemscore.Hbond>
2.0000

> <Gold.PLP.Chemscore.CHOScore>
0.0000

> <Gold.PLP.Chemscore.Metal>
0.0000

> <Gold.Chemscore.Hbonds>
donor molecule, donor type, donor heavy atom, donor atom, acceptor molecule, acceptor atom, score
      L1  H     7    54       P1  7948  1.60

> <Gold.PLP.Chemscore.Internal.Correction>
0.5517

> <Gold.Rescore>
     Score         DG    S(hbond)    S(metal)    S(lipo)     H(rot)  DE(clash)    DE(int)     intcor
     16.58     -18.16       0.94        0.00     131.31       2.27       0.12       1.46       ----

> <Gold.Chemscore.Fitness>
16.5768

> <Gold.Chemscore.DG>
-18.1590

> <Gold.Chemscore.ZeroCoef>
-5.4800

> <Gold.Chemscore.Hbond>
0.9368

> <Gold.Chemscore.Metal>
0.0000

> <Gold.Chemscore.Lipo>
131.3130

> <Gold.Chemscore.Internal_Hbond>
0.0000

> <Gold.Chemscore.DEClash>
0.1201

> <Gold.Chemscore.DEInternal>
1.4621

> <Gold.Chemscore.Rot>
2.2710

> <Gold.Chemscore.Internal.Correction>
   9.000000E+99

> <Gold.Chemscore.Hbonds>
donor molecule, donor type, donor heavy atom, donor atom, acceptor molecule, acceptor atom, score
      L1  H     7    54       P1  7948  0.35

> <Gold.Chemscore.Hbond.Weighted>
-3.1291

> <Gold.Chemscore.Metal.Weighted>
-0.0000

> <Gold.Chemscore.Lipo.Weighted>
-15.3636

> <Gold.Chemscore.Internal_Hbond.Weighted>
0.0000

> <Gold.Chemscore.DEClash.Weighted>
0.1201

> <Gold.Chemscore.DEInternal.Weighted>
1.4621

> <Gold.Chemscore.Rot.Weighted>
5.8137

> <Gold.Chemscore.Internal.Correction.Weighted>
   9.000000E+99

> <Gold.Protein.RotatedTorsions>
[ 6907 6896 6895 6894 ] final -166.02 input  -60.11 | X-H torsion
[ 7974 7965 7964 7962 ] final   -4.58 input  175.53 | X-H torsion
[ 8008 7997 7996 7995 ] final  -78.15 input   59.86 | X-H torsion
[ 10167 10162 10161 10158 ] final  -87.23 input  -65.29 | X-H torsion
[ 10718 10713 10712 10709 ] final -131.73 input   66.30 | X-H torsion
[ 10763 10752 10751 10750 ] final  163.61 input  -60.55 | X-H torsion
[ 11005 11000 10999 10996 ] final -133.68 input  -57.11 | X-H torsion

> <Gold.Protein.ActiveResidues>
 VAL166  LYS551  ARG553  GLY616  TRP617  ASP618  TYR619  PRO620  LYS621  CYS622 
 ASP623  PHE694  ASN695  SER759  ASP760  ASP761  ALA762  ILE779  LEU786  VAL792 
 PHE793  MET794  SER795  GLU796  ALA797  LYS798  CYS799  TRP800  GLU811  SER814 

> <Gold.Protein.RotatedAtoms>
  151.4369  133.3654  159.2776 H   0  0  0  0  0  0  0  0  0  0  0  0  # atno 6907 bound_to 6896
  150.9185  134.8604  159.7484 H   0  0  0  0  0  0  0  0  0  0  0  0  # atno 6908 bound_to 6896
  152.4969  134.4305  159.9562 H   0  0  0  0  0  0  0  0  0  0  0  0  # atno 6909 bound_to 6896
  146.2369  140.1893  142.8332 H   0  0  0  0  0  0  0  0  0  0  0  0  # atno 7974 bound_to 7965
  154.5662  140.0699  156.8895 H   0  0  0  0  0  0  0  0  0  0  0  0  # atno 8008 bound_to 7997
  155.2718  140.3365  155.4246 H   0  0  0  0  0  0  0  0  0  0  0  0  # atno 8009 bound_to 7997
  156.2082  140.1748  156.7738 H   0  0  0  0  0  0  0  0  0  0  0  0  # atno 8010 bound_to 7997
  140.3865  143.2724  151.9319 H   0  0  0  0  0  0  0  0  0  0  0  0  # atno 10167 bound_to 10162
  156.2274  130.7016  151.0821 H   0  0  0  0  0  0  0  0  0  0  0  0  # atno 10718 bound_to 10713
  154.2963  135.2760  155.2631 H   0  0  0  0  0  0  0  0  0  0  0  0  # atno 10763 bound_to 10752
  154.5088  135.5788  153.6592 H   0  0  0  0  0  0  0  0  0  0  0  0  # atno 10764 bound_to 10752
  152.9907  135.6176  154.3131 H   0  0  0  0  0  0  0  0  0  0  0  0  # atno 10765 bound_to 10752
  140.9059  134.1630  157.4426 H   0  0  0  0  0  0  0  0  0  0  0  0  # atno 11005 bound_to 11000
  144.9871  140.8513  143.5362 LP  0  0  0  0  0  0  0  0  0  0  0  0  # atno 17320 bound_to 7965
  145.1894  139.2309  143.5251 LP  0  0  0  0  0  0  0  0  0  0  0  0  # atno 17321 bound_to 7965
  139.4791  144.5769  151.7997 LP  0  0  0  0  0  0  0  0  0  0  0  0  # atno 17342 bound_to 10162
  140.4884  144.1347  150.5945 LP  0  0  0  0  0  0  0  0  0  0  0  0  # atno 17343 bound_to 10162
  157.7117  131.0731  150.6478 LP  0  0  0  0  0  0  0  0  0  0  0  0  # atno 17370 bound_to 10713
  156.6543  130.4494  149.5709 LP  0  0  0  0  0  0  0  0  0  0  0  0  # atno 17371 bound_to 10713
  139.8749  134.9917  156.5560 LP  0  0  0  0  0  0  0  0  0  0  0  0  # atno 17394 bound_to 11000
  140.8171  133.8383  155.8862 LP  0  0  0  0  0  0  0  0  0  0  0  0  # atno 17395 bound_to 11000

$$$$
