AV-unprocessed.smi:1240|AV-procd|sdf|5195|dock2
  -GOLD-   22720 4283D 1   1.00000     0.00000
 Structure written by MMmdl.
 47 49  0  0  0  0  0  0  0  0  1 V2000
  144.5435  136.5620  152.1316 O   0  0  0  0  0  0  0  0  0  0  0  0
  145.7508  136.3592  152.0068 C   0  0  0  0  0  0  0  0  0  0  0  0
  146.6881  137.2399  152.3872 N   0  0  0  0  0  0  0  0  0  0  0  0
  146.4218  138.5464  152.9812 C   0  0  0  0  0  0  0  0  0  0  0  0
  146.6576  138.6216  154.5291 C   0  0  2  0  0  0  0  0  0  0  0  0
  145.4023  139.2783  155.2143 C   0  0  2  0  0  0  0  0  0  0  0  0
  145.4554  139.5285  156.7139 C   0  0  0  0  0  0  0  0  0  0  0  0
  144.0028  139.8283  157.0524 C   0  0  0  0  0  0  0  0  0  0  0  0
  143.2568  138.9542  156.2207 O   0  0  0  0  0  0  0  0  0  0  0  0
  144.0790  138.4939  155.1527 C   0  0  0  0  0  0  0  0  0  0  0  0
  147.9159  139.3268  154.9145 N   0  0  0  0  0  0  0  0  0  0  0  0
  148.0502  140.7074  154.4324 C   0  0  0  0  0  0  0  0  0  0  0  0
  149.3580  141.3739  154.8965 C   0  0  0  0  0  0  0  0  0  0  0  0
  150.4723  140.6054  154.4640 O   0  0  0  0  0  0  0  0  0  0  0  0
  150.4193  139.2691  154.9434 C   0  0  0  0  0  0  0  0  0  0  0  0
  149.1164  138.6062  154.4663 C   0  0  0  0  0  0  0  0  0  0  0  0
  146.3088  135.2632  151.4634 N   0  0  0  0  0  0  0  0  0  0  0  0
  145.6747  134.1163  150.9117 C   0  0  0  0  0  0  0  0  0  0  0  0
  146.4960  133.0283  150.5495 C   0  0  0  0  0  0  0  0  0  0  0  0
  145.8957  131.8727  150.0109 C   0  0  0  0  0  0  0  0  0  0  0  0
  144.5650  131.7448  149.8287 N   0  0  0  0  0  0  0  0  0  0  0  0
  143.7787  132.7815  150.1874 C   0  0  0  0  0  0  0  0  0  0  0  0
  144.2763  133.9816  150.7335 C   0  0  0  0  0  0  0  0  0  0  0  0
  147.6573  136.9953  152.2455 H   0  0  0  0  0  0  0  0  0  0  0  0
  147.0690  139.2297  152.4321 H   0  0  0  0  0  0  0  0  0  0  0  0
  145.3980  138.8349  152.7411 H   0  0  0  0  0  0  0  0  0  0  0  0
  146.7362  137.5917  154.8796 H   0  0  0  0  0  0  0  0  0  0  0  0
  145.2348  140.2459  154.7375 H   0  0  0  0  0  0  0  0  0  0  0  0
  145.7653  138.6269  157.2438 H   0  0  0  0  0  0  0  0  0  0  0  0
  146.1123  140.3530  156.9921 H   0  0  0  0  0  0  0  0  0  0  0  0
  143.7744  139.6735  158.1070 H   0  0  0  0  0  0  0  0  0  0  0  0
  143.7549  140.8588  156.7956 H   0  0  0  0  0  0  0  0  0  0  0  0
  143.5554  138.6322  154.2069 H   0  0  0  0  0  0  0  0  0  0  0  0
  144.2522  137.4269  155.2979 H   0  0  0  0  0  0  0  0  0  0  0  0
  147.9979  140.7304  153.3426 H   0  0  0  0  0  0  0  0  0  0  0  0
  147.2350  141.3226  154.8123 H   0  0  0  0  0  0  0  0  0  0  0  0
  149.4385  142.3793  154.4835 H   0  0  0  0  0  0  0  0  0  0  0  0
  149.3753  141.4722  155.9831 H   0  0  0  0  0  0  0  0  0  0  0  0
  151.2828  138.7223  154.5645 H   0  0  0  0  0  0  0  0  0  0  0  0
  150.4841  139.2575  156.0326 H   0  0  0  0  0  0  0  0  0  0  0  0
  149.1306  137.5782  154.8058 H   0  0  0  0  0  0  0  0  0  0  0  0
  149.1245  138.5566  153.3763 H   0  0  0  0  0  0  0  0  0  0  0  0
  147.3146  135.2774  151.3804 H   0  0  0  0  0  0  0  0  0  0  0  0
  147.5680  133.0750  150.6751 H   0  0  0  0  0  0  0  0  0  0  0  0
  146.5021  131.0278  149.7194 H   0  0  0  0  0  0  0  0  0  0  0  0
  142.7172  132.6492  150.0393 H   0  0  0  0  0  0  0  0  0  0  0  0
  143.5793  134.7570  151.0097 H   0  0  0  0  0  0  0  0  0  0  0  0
  1  2  2  0  0  0  0
  2  3  1  0  0  0  0
  2 17  1  0  0  0  0
  3  4  1  0  0  0  0
  3 24  1  0  0  0  0
  4  5  1  0  0  0  0
  4 25  1  0  0  0  0
  4 26  1  0  0  0  0
  5  6  1  0  0  0  0
  5 11  1  0  0  0  0
  5 27  1  0  0  0  0
  6 10  1  0  0  0  0
  6  7  1  0  0  0  0
  6 28  1  0  0  0  0
  7  8  1  0  0  0  0
  7 29  1  0  0  0  0
  7 30  1  0  0  0  0
  8  9  1  0  0  0  0
  8 31  1  0  0  0  0
  8 32  1  0  0  0  0
  9 10  1  0  0  0  0
 10 33  1  0  0  0  0
 10 34  1  0  0  0  0
 11 16  1  0  0  0  0
 11 12  1  0  0  0  0
 12 13  1  0  0  0  0
 12 35  1  0  0  0  0
 12 36  1  0  0  0  0
 13 14  1  0  0  0  0
 13 37  1  0  0  0  0
 13 38  1  0  0  0  0
 14 15  1  0  0  0  0
 15 16  1  0  0  0  0
 15 39  1  0  0  0  0
 15 40  1  0  0  0  0
 16 41  1  0  0  0  0
 16 42  1  0  0  0  0
 17 18  1  0  0  0  0
 17 43  1  0  0  0  0
 18 23  1  0  0  0  0
 18 19  2  0  0  0  0
 19 20  1  0  0  0  0
 19 44  1  0  0  0  0
 20 21  2  0  0  0  0
 20 45  1  0  0  0  0
 21 22  1  0  0  0  0
 22 23  2  0  0  0  0
 22 46  1  0  0  0  0
 23 47  1  0  0  0  0
M  END
> <s_m_source_file>
AV-unprocessed.smi

> <i_m_source_file_index>
1240

> <i_lp_mmshare_version>
43012

> <i_f3d_flags>
0

> <s_epik_input>
W2NIXTFbY0hdbltjSF1bY0hdYzFbTkhdQyg9TylbTkhdW0NIMl1bQ0BIXShbQ0BASF0yW0NIMl1bQ0gyXU9bQ0gyXTIpTjNbQ0gyXVtDSDJdT1tDSDJdW0NIMl0z

> <s_epik_cmdline>
J2VwaWtfcHl0aG9uJywgJy1waCcsICc3LjAnLCAnLXRuJywgJzgnLCAnLW1hJywgJzIwMCcsICctbWV0YWxfYmluZGluZycsICctaW1hZScsICc8aW5maWxlLm1hZT4nLCAnLW9tYWUnLCAnPG91dGZpbGUubWFlPic=

> <r_epik_Ionization_Penalty>
0.238664

> <r_epik_Ionization_Penalty_Charging>
0

> <r_epik_Ionization_Penalty_Neutral>
0.238664

> <r_epik_State_Penalty>
0.217087

> <r_epik_Charging_Adjusted_Penalty>
0.217087

> <i_epik_Tot_Q>
0

> <i_epik_Tot_abs_Q>
0

> <r_epik_Metal_State_Penalty>
0.199194

> <b_epik_Metal_Only>
0

> <s_lp_Force_Field>
OPLS_2005

> <r_lp_Energy>
60.4877

> <b_lp_Chiralities_Consistent>
1

> <s_lp_Variant>
AV-unprocessed.smi:1240-1

> <Gold.Version>
5.8.1

> <Gold.Id.Protein>
6NUR|6NUR_protein|mol2

> <Gold.PLP.Fitness>
44.8045

> <Gold.PLP.PLP>
-31.8759

> <Gold.PLP.part.hbond>
-3.6448

> <Gold.PLP.part.metal>
0.0000

> <Gold.PLP.part.buried>
-4.0690

> <Gold.PLP.part.nonpolar>
-25.9372

> <Gold.PLP.part.repulsive>
1.0857

> <Gold.PLP.ligand.clash>
0.0000

> <Gold.PLP.ligand.torsion>
0.8958

> <Gold.PLP.Chemscore.Hbond>
2.9847

> <Gold.PLP.Chemscore.CHOScore>
1.8625

> <Gold.PLP.Chemscore.Metal>
0.0000

> <Gold.Chemscore.Hbonds>
donor molecule, donor type, donor heavy atom, donor atom, acceptor molecule, acceptor atom, score
      L1  H     3    24       P1  7948  1.00
      L1  H    17    43       P1  7948  0.94
      P1  H  7989  7998       L1    14  0.92
      P1  H 10785 10796       L1    21  0.09
      L1  C    20    45       P1 10747  0.87
      L1  C    22    46       P1 10186  0.96

> <Gold.PLP.Chemscore.Internal.Correction>
0.1787

> <Gold.Rescore>
     Score         DG    S(hbond)    S(metal)    S(lipo)     H(rot)  DE(clash)    DE(int)     intcor
     17.66     -19.87       2.91        0.00      76.06       1.65       0.13       2.08       ----

> <Gold.Chemscore.Fitness>
17.6634

> <Gold.Chemscore.DG>
-19.8675

> <Gold.Chemscore.ZeroCoef>
-5.4800

> <Gold.Chemscore.Hbond>
2.9087

> <Gold.Chemscore.Metal>
0.0000

> <Gold.Chemscore.Lipo>
76.0567

> <Gold.Chemscore.Internal_Hbond>
0.0000

> <Gold.Chemscore.DEClash>
0.1286

> <Gold.Chemscore.DEInternal>
2.0755

> <Gold.Chemscore.Rot>
1.6508

> <Gold.Chemscore.Internal.Correction>
   9.000000E+99

> <Gold.Chemscore.Hbonds>
donor molecule, donor type, donor heavy atom, donor atom, acceptor molecule, acceptor atom, score
      L1  H     3    24       P1  7948  0.94
      L1  H    17    43       P1  7948  0.75
      P1  H  7989  7998       L1    14  0.75
      P1  H 10785 10796       L1    21  0.07

> <Gold.Chemscore.Hbond.Weighted>
-9.7150

> <Gold.Chemscore.Metal.Weighted>
-0.0000

> <Gold.Chemscore.Lipo.Weighted>
-8.8986

> <Gold.Chemscore.Internal_Hbond.Weighted>
0.0000

> <Gold.Chemscore.DEClash.Weighted>
0.1286

> <Gold.Chemscore.DEInternal.Weighted>
2.0755

> <Gold.Chemscore.Rot.Weighted>
4.2262

> <Gold.Chemscore.Internal.Correction.Weighted>
   9.000000E+99

> <Gold.Protein.RotatedTorsions>
[ 6907 6896 6895 6894 ] final   88.00 input  -60.11 | X-H torsion
[ 7974 7965 7964 7962 ] final  -10.11 input  175.53 | X-H torsion
[ 8008 7997 7996 7995 ] final  137.73 input   59.86 | X-H torsion
[ 10167 10162 10161 10158 ] final  -62.91 input  -65.29 | X-H torsion
[ 10718 10713 10712 10709 ] final  -58.55 input   66.30 | X-H torsion
[ 10763 10752 10751 10750 ] final   13.32 input  -60.55 | X-H torsion
[ 11005 11000 10999 10996 ] final  101.38 input  -57.11 | X-H torsion

> <Gold.Protein.ActiveResidues>
 VAL166  LYS551  ARG553  GLY616  TRP617  ASP618  TYR619  PRO620  LYS621  CYS622 
 ASP623  PHE694  ASN695  SER759  ASP760  ASP761  ALA762  ILE779  LEU786  VAL792 
 PHE793  MET794  SER795  GLU796  ALA797  LYS798  CYS799  TRP800  GLU811  SER814 

> <Gold.Protein.RotatedAtoms>
  152.5419  134.2190  159.8779 H   0  0  0  0  0  0  0  0  0  0  0  0  # atno 6907 bound_to 6896
  151.2168  133.4518  159.2607 H   0  0  0  0  0  0  0  0  0  0  0  0  # atno 6908 bound_to 6896
  151.0844  134.9891  159.8427 H   0  0  0  0  0  0  0  0  0  0  0  0  # atno 6909 bound_to 6896
  146.2231  140.2716  142.8357 H   0  0  0  0  0  0  0  0  0  0  0  0  # atno 7974 bound_to 7965
  156.3001  140.2412  156.3957 H   0  0  0  0  0  0  0  0  0  0  0  0  # atno 8008 bound_to 7997
  154.8573  140.0421  157.1662 H   0  0  0  0  0  0  0  0  0  0  0  0  # atno 8009 bound_to 7997
  154.8934  140.2966  155.5361 H   0  0  0  0  0  0  0  0  0  0  0  0  # atno 8010 bound_to 7997
  140.5907  143.2341  151.6146 H   0  0  0  0  0  0  0  0  0  0  0  0  # atno 10167 bound_to 10162
  156.1126  130.4173  150.0593 H   0  0  0  0  0  0  0  0  0  0  0  0  # atno 10718 bound_to 10713
  153.1733  135.6816  153.8578 H   0  0  0  0  0  0  0  0  0  0  0  0  # atno 10763 bound_to 10752
  153.7935  135.3166  155.3382 H   0  0  0  0  0  0  0  0  0  0  0  0  # atno 10764 bound_to 10752
  154.8012  135.4777  154.0373 H   0  0  0  0  0  0  0  0  0  0  0  0  # atno 10765 bound_to 10752
  139.8773  134.9180  156.4898 H   0  0  0  0  0  0  0  0  0  0  0  0  # atno 11005 bound_to 11000
  144.9263  140.7925  143.5717 LP  0  0  0  0  0  0  0  0  0  0  0  0  # atno 17320 bound_to 7965
  145.2656  139.1974  143.4868 LP  0  0  0  0  0  0  0  0  0  0  0  0  # atno 17321 bound_to 7965
  139.5225  144.3159  152.0952 LP  0  0  0  0  0  0  0  0  0  0  0  0  # atno 17342 bound_to 10162
  140.2323  144.4355  150.6294 LP  0  0  0  0  0  0  0  0  0  0  0  0  # atno 17343 bound_to 10162
  156.8552  130.9473  151.3622 LP  0  0  0  0  0  0  0  0  0  0  0  0  # atno 17370 bound_to 10713
  157.6308  130.8728  149.9271 LP  0  0  0  0  0  0  0  0  0  0  0  0  # atno 17371 bound_to 10713
  140.8667  133.8019  155.9321 LP  0  0  0  0  0  0  0  0  0  0  0  0  # atno 17394 bound_to 11000
  140.8994  134.2397  157.5050 LP  0  0  0  0  0  0  0  0  0  0  0  0  # atno 17395 bound_to 11000

$$$$
