AV-unprocessed.smi:3245|AV-procd|sdf|12404|dock4
  -GOLD-   2272018283D 1   1.00000     0.00000
 Structure written by MMmdl.
 35 36  0  0  0  0  0  0  0  0  1 V2000
  150.7205  145.3015  159.3079 C   0  0  0  0  0  0  0  0  0  0  0  0
  150.9339  143.7957  159.0784 C   0  0  2  0  0  0  0  0  0  0  0  0
  152.4120  143.4339  158.7997 C   0  0  0  0  0  0  0  0  0  0  0  0
  152.9375  142.4530  159.7312 N   0  0  0  0  0  0  0  0  0  0  0  0
  153.0722  142.5550  161.1001 C   0  0  0  0  0  0  0  0  0  0  0  0
  153.6182  141.3843  161.5426 C   0  0  0  0  0  0  0  0  0  0  0  0
  153.7880  140.6203  160.3542 C   0  0  0  0  0  0  0  0  0  0  0  0
  153.3808  141.2631  159.2715 N   0  0  0  0  0  0  0  0  0  0  0  0
  150.1062  143.4036  157.9452 N   0  0  0  0  0  0  0  0  0  0  0  0
  150.1933  141.9754  157.6732 C   0  0  0  0  0  0  0  0  0  0  0  0
  151.2871  141.7016  156.6257 C   0  0  0  0  0  0  0  0  0  0  0  0
  150.8698  140.6863  155.6515 N   0  0  0  0  0  0  0  0  0  0  0  0
  151.5398  139.5524  155.4046 C   0  0  0  0  0  0  0  0  0  0  0  0
  152.5953  139.1777  155.9144 O   0  0  0  0  0  0  0  0  0  0  0  0
  150.7749  138.7595  154.3674 C   0  0  0  0  0  0  0  0  0  0  0  0
  149.6619  139.6597  154.1573 N   0  0  0  0  0  0  0  0  0  0  0  0
  149.7461  140.7611  154.9146 C   0  0  0  0  0  0  0  0  0  0  0  0
  148.9243  141.6764  154.9266 O   0  0  0  0  0  0  0  0  0  0  0  0
  151.2587  145.6507  160.1893 H   0  0  0  0  0  0  0  0  0  0  0  0
  149.6660  145.5301  159.4663 H   0  0  0  0  0  0  0  0  0  0  0  0
  151.0644  145.8873  158.4545 H   0  0  0  0  0  0  0  0  0  0  0  0
  150.5882  143.2719  159.9710 H   0  0  0  0  0  0  0  0  0  0  0  0
  152.5391  143.0375  157.7923 H   0  0  0  0  0  0  0  0  0  0  0  0
  153.0351  144.3277  158.8593 H   0  0  0  0  0  0  0  0  0  0  0  0
  152.7689  143.4409  161.6388 H   0  0  0  0  0  0  0  0  0  0  0  0
  153.8605  141.1152  162.5599 H   0  0  0  0  0  0  0  0  0  0  0  0
  154.1926  139.6246  160.2465 H   0  0  0  0  0  0  0  0  0  0  0  0
  149.1421  143.6411  158.1305 H   0  0  0  0  0  0  0  0  0  0  0  0
  150.3961  141.4098  158.5821 H   0  0  0  0  0  0  0  0  0  0  0  0
  149.2294  141.6332  157.2944 H   0  0  0  0  0  0  0  0  0  0  0  0
  151.5103  142.6271  156.0927 H   0  0  0  0  0  0  0  0  0  0  0  0
  152.2206  141.4168  157.1142 H   0  0  0  0  0  0  0  0  0  0  0  0
  151.3570  138.6188  153.4563 H   0  0  0  0  0  0  0  0  0  0  0  0
  150.4457  137.7967  154.7591 H   0  0  0  0  0  0  0  0  0  0  0  0
  148.9095  139.4642  153.5130 H   0  0  0  0  0  0  0  0  0  0  0  0
  1  2  1  0  0  0  0
  1 19  1  0  0  0  0
  1 20  1  0  0  0  0
  1 21  1  0  0  0  0
  2  3  1  0  0  0  0
  2  9  1  0  0  0  0
  2 22  1  0  0  0  0
  3  4  1  0  0  0  0
  3 23  1  0  0  0  0
  3 24  1  0  0  0  0
  4  8  1  0  0  0  0
  4  5  1  0  0  0  0
  5  6  2  0  0  0  0
  5 25  1  0  0  0  0
  6  7  1  0  0  0  0
  6 26  1  0  0  0  0
  7  8  2  0  0  0  0
  7 27  1  0  0  0  0
  9 10  1  0  0  0  0
  9 28  1  0  0  0  0
 10 11  1  0  0  0  0
 10 29  1  0  0  0  0
 10 30  1  0  0  0  0
 11 12  1  0  0  0  0
 11 31  1  0  0  0  0
 11 32  1  0  0  0  0
 12 17  1  0  0  0  0
 12 13  1  0  0  0  0
 13 14  2  0  0  0  0
 13 15  1  0  0  0  0
 15 16  1  0  0  0  0
 15 33  1  0  0  0  0
 15 34  1  0  0  0  0
 16 17  1  0  0  0  0
 16 35  1  0  0  0  0
 17 18  2  0  0  0  0
M  END
> <s_m_source_file>
AV-unprocessed.smi

> <i_m_source_file_index>
3245

> <i_lp_mmshare_version>
43012

> <i_f3d_flags>
0

> <s_epik_input>
bjFbY0hdW2NIXVtjSF1uMVtDSDJdW0NAQEhdKFtDSDNdKVtOSF1bQ0gyXVtDSDJdTjJDKD1PKVtDSDJdW05IXUMyPU8=

> <s_epik_cmdline>
J2VwaWtfcHl0aG9uJywgJy1waCcsICc3LjAnLCAnLXRuJywgJzgnLCAnLW1hJywgJzIwMCcsICctbWV0YWxfYmluZGluZycsICctaW1hZScsICc8aW5maWxlLm1hZT4nLCAnLW9tYWUnLCAnPG91dGZpbGUubWFlPic=

> <r_lp_tautomer_probability>
1

> <r_epik_Ionization_Penalty>
2.14948

> <r_epik_Ionization_Penalty_Charging>
0

> <r_epik_Ionization_Penalty_Neutral>
2.14948

> <r_epik_State_Penalty>
2.28912

> <r_epik_Charging_Adjusted_Penalty>
2.28912

> <i_epik_Tot_Q>
0

> <i_epik_Tot_abs_Q>
0

> <r_epik_Metal_State_Penalty>
2.36471

> <b_epik_Metal_Only>
0

> <s_lp_Force_Field>
OPLS_2005

> <r_lp_Energy>
24.3933

> <b_lp_Chiralities_Consistent>
1

> <s_lp_Variant>
AV-unprocessed.smi:3245-3

> <Gold.Version>
5.8.1

> <Gold.Id.Protein>
6NUR|6NUR_protein|mol2

> <Gold.PLP.Fitness>
43.7491

> <Gold.PLP.PLP>
-43.2392

> <Gold.PLP.part.hbond>
-2.9654

> <Gold.PLP.part.metal>
0.0000

> <Gold.PLP.part.buried>
-4.4353

> <Gold.PLP.part.nonpolar>
-35.4023

> <Gold.PLP.part.repulsive>
0.2682

> <Gold.PLP.ligand.clash>
0.0395

> <Gold.PLP.ligand.torsion>
1.2729

> <Gold.PLP.Chemscore.Hbond>
1.0000

> <Gold.PLP.Chemscore.CHOScore>
0.0000

> <Gold.PLP.Chemscore.Metal>
0.0000

> <Gold.Chemscore.Hbonds>
donor molecule, donor type, donor heavy atom, donor atom, acceptor molecule, acceptor atom, score
      P1  H  7997  8010       L1    14  1.00

> <Gold.PLP.Chemscore.Internal.Correction>
0.0952

> <Gold.Rescore>
     Score         DG    S(hbond)    S(metal)    S(lipo)     H(rot)  DE(clash)    DE(int)     intcor
     10.44     -11.78       1.00        0.00      83.56       2.66       0.10       1.25       ----

> <Gold.Chemscore.Fitness>
10.4355

> <Gold.Chemscore.DG>
-11.7819

> <Gold.Chemscore.ZeroCoef>
-5.4800

> <Gold.Chemscore.Hbond>
0.9992

> <Gold.Chemscore.Metal>
0.0000

> <Gold.Chemscore.Lipo>
83.5578

> <Gold.Chemscore.Internal_Hbond>
0.0000

> <Gold.Chemscore.DEClash>
0.0993

> <Gold.Chemscore.DEInternal>
1.2471

> <Gold.Chemscore.Rot>
2.6609

> <Gold.Chemscore.Internal.Correction>
   9.000000E+99

> <Gold.Chemscore.Hbonds>
donor molecule, donor type, donor heavy atom, donor atom, acceptor molecule, acceptor atom, score
      P1  H  7997  8010       L1    14  0.94

> <Gold.Chemscore.Hbond.Weighted>
-3.3374

> <Gold.Chemscore.Metal.Weighted>
-0.0000

> <Gold.Chemscore.Lipo.Weighted>
-9.7763

> <Gold.Chemscore.Internal_Hbond.Weighted>
0.0000

> <Gold.Chemscore.DEClash.Weighted>
0.0993

> <Gold.Chemscore.DEInternal.Weighted>
1.2471

> <Gold.Chemscore.Rot.Weighted>
6.8118

> <Gold.Chemscore.Internal.Correction.Weighted>
   9.000000E+99

> <Gold.Protein.RotatedTorsions>
[ 6907 6896 6895 6894 ] final  -72.00 input  -60.11 | X-H torsion
[ 7974 7965 7964 7962 ] final -115.23 input  175.53 | X-H torsion
[ 8008 7997 7996 7995 ] final   81.38 input   59.86 | X-H torsion
[ 10167 10162 10161 10158 ] final -124.80 input  -65.29 | X-H torsion
[ 10718 10713 10712 10709 ] final  -82.26 input   66.30 | X-H torsion
[ 10763 10752 10751 10750 ] final  -18.52 input  -60.55 | X-H torsion
[ 11005 11000 10999 10996 ] final  -58.88 input  -57.11 | X-H torsion

> <Gold.Protein.ActiveResidues>
 VAL166  LYS551  ARG553  GLY616  TRP617  ASP618  TYR619  PRO620  LYS621  CYS622 
 ASP623  PHE694  ASN695  SER759  ASP760  ASP761  ALA762  ILE779  LEU786  VAL792 
 PHE793  MET794  SER795  GLU796  ALA797  LYS798  CYS799  TRP800  GLU811  SER814 

> <Gold.Protein.RotatedAtoms>
  150.7188  134.5226  159.5660 H   0  0  0  0  0  0  0  0  0  0  0  0  # atno 6907 bound_to 6896
  152.2778  134.7859  160.0411 H   0  0  0  0  0  0  0  0  0  0  0  0  # atno 6908 bound_to 6896
  151.8516  133.3405  159.3712 H   0  0  0  0  0  0  0  0  0  0  0  0  # atno 6909 bound_to 6896
  145.1108  140.8610  143.3871 H   0  0  0  0  0  0  0  0  0  0  0  0  # atno 7974 bound_to 7965
  155.8963  140.3436  155.5993 H   0  0  0  0  0  0  0  0  0  0  0  0  # atno 8008 bound_to 7997
  155.7552  140.0825  157.2201 H   0  0  0  0  0  0  0  0  0  0  0  0  # atno 8009 bound_to 7997
  154.4038  140.1546  156.2757 H   0  0  0  0  0  0  0  0  0  0  0  0  # atno 8010 bound_to 7997
  139.9889  143.5662  152.2349 H   0  0  0  0  0  0  0  0  0  0  0  0  # atno 10167 bound_to 10162
  156.0036  130.4629  150.4077 H   0  0  0  0  0  0  0  0  0  0  0  0  # atno 10718 bound_to 10713
  153.5905  135.7002  153.5425 H   0  0  0  0  0  0  0  0  0  0  0  0  # atno 10763 bound_to 10752
  153.3182  135.4081  155.1394 H   0  0  0  0  0  0  0  0  0  0  0  0  # atno 10764 bound_to 10752
  154.8601  135.3689  154.5437 H   0  0  0  0  0  0  0  0  0  0  0  0  # atno 10765 bound_to 10752
  141.1225  133.6614  156.4987 H   0  0  0  0  0  0  0  0  0  0  0  0  # atno 11005 bound_to 11000
  145.0849  139.2932  143.5765 LP  0  0  0  0  0  0  0  0  0  0  0  0  # atno 17320 bound_to 7965
  146.3526  140.0367  142.8646 LP  0  0  0  0  0  0  0  0  0  0  0  0  # atno 17321 bound_to 7965
  139.6354  144.7649  151.2448 LP  0  0  0  0  0  0  0  0  0  0  0  0  # atno 17342 bound_to 10162
  140.7462  143.6407  150.8337 LP  0  0  0  0  0  0  0  0  0  0  0  0  # atno 17343 bound_to 10162
  157.2142  131.0467  151.2582 LP  0  0  0  0  0  0  0  0  0  0  0  0  # atno 17370 bound_to 10713
  157.3860  130.7257  149.6664 LP  0  0  0  0  0  0  0  0  0  0  0  0  # atno 17371 bound_to 10713
  140.4463  134.6969  157.5017 LP  0  0  0  0  0  0  0  0  0  0  0  0  # atno 17394 bound_to 11000
  140.0195  134.6568  155.9260 LP  0  0  0  0  0  0  0  0  0  0  0  0  # atno 17395 bound_to 11000

$$$$
