AV-unprocessed.smi:3285|AV-procd|sdf|12587|dock2
  -GOLD-   2272018513D 1   1.00000     0.00000
 Structure written by MMmdl.
 45 46  0  0  0  0  0  0  0  0  2 V2000
  149.9324  138.2527  154.8808 C   0  0  0  0  0  0  0  0  0  0  0  0
  148.7264  139.0498  154.4737 C   0  0  0  0  0  0  0  0  0  0  0  0
  147.6178  138.4235  154.1175 N   0  0  0  0  0  0  0  0  0  0  0  0
  146.6957  139.4258  153.8020 O   0  0  0  0  0  0  0  0  0  0  0  0
  147.2920  140.6311  153.9850 C   0  0  0  0  0  0  0  0  0  0  0  0
  146.4637  141.8378  153.6987 C   0  0  0  0  0  0  0  0  0  0  0  0
  148.5811  140.4653  154.4114 C   0  0  0  0  0  0  0  0  0  0  0  0
  149.6052  141.5174  154.7406 C   0  0  0  0  0  0  0  0  0  0  0  0
  150.2042  141.3007  156.1362 C   0  0  0  0  0  0  0  0  0  0  0  0
  151.1148  142.4067  156.4984 N   0  3  0  0  0  0  0  0  0  0  0  0
  151.3885  142.5515  157.9454 C   0  0  1  0  0  0  0  0  0  0  0  0
  151.7667  141.1834  158.5405 C   0  0  0  0  0  0  0  0  0  0  0  0
  152.1032  141.2859  160.0364 C   0  0  0  0  0  0  0  0  0  0  0  0
  153.2255  142.3112  160.2905 C   0  0  2  0  0  0  0  0  0  0  0  0
  153.6329  142.3581  161.7723 C   0  0  0  0  0  0  0  0  0  0  0  0
  152.8690  143.7017  159.7056 C   0  0  2  0  0  0  0  0  0  0  0  0
  151.7742  144.4551  160.4884 C   0  0  0  0  0  0  0  0  0  0  0  0
  152.5143  143.5772  158.2082 C   0  0  0  0  0  0  0  0  0  0  0  0
  150.1823  138.4329  155.9261 H   0  0  0  0  0  0  0  0  0  0  0  0
  150.8002  138.5245  154.2798 H   0  0  0  0  0  0  0  0  0  0  0  0
  149.7703  137.1811  154.7584 H   0  0  0  0  0  0  0  0  0  0  0  0
  146.6454  142.6186  154.4369 H   0  0  0  0  0  0  0  0  0  0  0  0
  145.4006  141.5973  153.7199 H   0  0  0  0  0  0  0  0  0  0  0  0
  146.6998  142.2412  152.7142 H   0  0  0  0  0  0  0  0  0  0  0  0
  150.4063  141.5179  154.0007 H   0  0  0  0  0  0  0  0  0  0  0  0
  149.1578  142.5109  154.6900 H   0  0  0  0  0  0  0  0  0  0  0  0
  149.4023  141.2252  156.8704 H   0  0  0  0  0  0  0  0  0  0  0  0
  150.7548  140.3592  156.1617 H   0  0  0  0  0  0  0  0  0  0  0  0
  151.9957  142.2309  156.0367 H   0  0  0  0  0  0  0  0  0  0  0  0
  150.4694  142.8859  158.4283 H   0  0  0  0  0  0  0  0  0  0  0  0
  150.9499  140.4749  158.3992 H   0  0  0  0  0  0  0  0  0  0  0  0
  152.6254  140.7732  158.0070 H   0  0  0  0  0  0  0  0  0  0  0  0
  151.2091  141.5572  160.5986 H   0  0  0  0  0  0  0  0  0  0  0  0
  152.4067  140.3054  160.4053 H   0  0  0  0  0  0  0  0  0  0  0  0
  154.1038  141.9589  159.7471 H   0  0  0  0  0  0  0  0  0  0  0  0
  152.7915  142.6154  162.4160 H   0  0  0  0  0  0  0  0  0  0  0  0
  154.4217  143.0917  161.9408 H   0  0  0  0  0  0  0  0  0  0  0  0
  154.0100  141.3898  162.1023 H   0  0  0  0  0  0  0  0  0  0  0  0
  153.7661  144.3196  159.7663 H   0  0  0  0  0  0  0  0  0  0  0  0
  150.8442  143.8904  160.5457 H   0  0  0  0  0  0  0  0  0  0  0  0
  151.5475  145.4117  160.0169 H   0  0  0  0  0  0  0  0  0  0  0  0
  152.0913  144.6742  161.5079 H   0  0  0  0  0  0  0  0  0  0  0  0
  153.4070  143.2762  157.6579 H   0  0  0  0  0  0  0  0  0  0  0  0
  152.2422  144.5591  157.8212 H   0  0  0  0  0  0  0  0  0  0  0  0
  150.7390  143.2768  156.1495 H   0  0  0  0  0  0  0  0  0  0  0  0
  1  2  1  0  0  0  0
  1 19  1  0  0  0  0
  1 20  1  0  0  0  0
  1 21  1  0  0  0  0
  2  7  1  0  0  0  0
  2  3  2  0  0  0  0
  3  4  1  0  0  0  0
  4  5  1  0  0  0  0
  5  6  1  0  0  0  0
  5  7  2  0  0  0  0
  6 22  1  0  0  0  0
  6 23  1  0  0  0  0
  6 24  1  0  0  0  0
  7  8  1  0  0  0  0
  8  9  1  0  0  0  0
  8 25  1  0  0  0  0
  8 26  1  0  0  0  0
  9 10  1  0  0  0  0
  9 27  1  0  0  0  0
  9 28  1  0  0  0  0
 10 11  1  0  0  0  0
 10 29  1  0  0  0  0
 10 45  1  0  0  0  0
 11 18  1  0  0  0  0
 11 12  1  0  0  0  0
 11 30  1  0  0  0  0
 12 13  1  0  0  0  0
 12 31  1  0  0  0  0
 12 32  1  0  0  0  0
 13 14  1  0  0  0  0
 13 33  1  0  0  0  0
 13 34  1  0  0  0  0
 14 15  1  0  0  0  0
 14 16  1  0  0  0  0
 14 35  1  0  0  0  0
 15 36  1  0  0  0  0
 15 37  1  0  0  0  0
 15 38  1  0  0  0  0
 16 17  1  0  0  0  0
 16 18  1  0  0  0  0
 16 39  1  0  0  0  0
 17 40  1  0  0  0  0
 17 41  1  0  0  0  0
 17 42  1  0  0  0  0
 18 43  1  0  0  0  0
 18 44  1  0  0  0  0
M  CHG  1  10   1
M  END
> <s_m_source_file>
AV-unprocessed.smi

> <i_m_source_file_index>
3285

> <i_lp_mmshare_version>
43012

> <i_f3d_flags>
0

> <s_epik_input>
W0NIM11jMW5vYyhbQ0gzXSljMVtDSDJdW0NIMl1bTkhdW0NAQEhdMltDSDJdW0NIMl1bQ0BASF0oW0NIM10pW0NAQEhdKFtDSDNdKVtDSDJdMg==

> <s_epik_cmdline>
J2VwaWtfcHl0aG9uJywgJy1waCcsICc3LjAnLCAnLXRuJywgJzgnLCAnLW1hJywgJzIwMCcsICctbWV0YWxfYmluZGluZycsICctaW1hZScsICc8aW5maWxlLm1hZT4nLCAnLW9tYWUnLCAnPG91dGZpbGUubWFlPic=

> <r_lp_tautomer_probability>
1

> <r_epik_Ionization_Penalty>
0.000204615

> <r_epik_Ionization_Penalty_Charging>
0.000204615

> <r_epik_Ionization_Penalty_Neutral>
9.28663e-11

> <r_epik_State_Penalty>
-0

> <r_epik_Charging_Adjusted_Penalty>
0.000204615

> <i_epik_Tot_Q>
1

> <i_epik_Tot_abs_Q>
1

> <r_epik_Metal_State_Penalty>
-0

> <b_epik_Metal_Only>
0

> <s_lp_Force_Field>
OPLS_2005

> <r_lp_Energy>
12.1842

> <b_lp_Chiralities_Consistent>
1

> <s_lp_Variant>
AV-unprocessed.smi:3285-8

> <Gold.Version>
5.8.1

> <Gold.Id.Protein>
6NUR|6NUR_protein|mol2

> <Gold.PLP.Fitness>
47.1388

> <Gold.PLP.PLP>
-41.5024

> <Gold.PLP.part.hbond>
-1.0000

> <Gold.PLP.part.metal>
0.0000

> <Gold.PLP.part.buried>
1.0273

> <Gold.PLP.part.nonpolar>
-39.5936

> <Gold.PLP.part.repulsive>
0.4516

> <Gold.PLP.ligand.clash>
0.0000

> <Gold.PLP.ligand.torsion>
0.2034

> <Gold.PLP.Chemscore.Hbond>
2.0000

> <Gold.PLP.Chemscore.CHOScore>
0.0000

> <Gold.PLP.Chemscore.Metal>
0.0000

> <Gold.Chemscore.Hbonds>
donor molecule, donor type, donor heavy atom, donor atom, acceptor molecule, acceptor atom, score
      L1  H    10    45       P1  8028  0.20

> <Gold.PLP.Chemscore.Internal.Correction>
0.0432

> <Gold.Rescore>
     Score         DG    S(hbond)    S(metal)    S(lipo)     H(rot)  DE(clash)    DE(int)     intcor
     19.39     -20.79       0.82        0.00     136.80       1.35       1.04       0.36       ----

> <Gold.Chemscore.Fitness>
19.3898

> <Gold.Chemscore.DG>
-20.7881

> <Gold.Chemscore.ZeroCoef>
-5.4800

> <Gold.Chemscore.Hbond>
0.8231

> <Gold.Chemscore.Metal>
0.0000

> <Gold.Chemscore.Lipo>
136.8020

> <Gold.Chemscore.Internal_Hbond>
0.0000

> <Gold.Chemscore.DEClash>
1.0382

> <Gold.Chemscore.DEInternal>
0.3601

> <Gold.Chemscore.Rot>
1.3465

> <Gold.Chemscore.Internal.Correction>
   9.000000E+99

> <Gold.Chemscore.Hbonds>
donor molecule, donor type, donor heavy atom, donor atom, acceptor molecule, acceptor atom, score
      L1  H    10    45       P1  8028  0.12

> <Gold.Chemscore.Hbond.Weighted>
-2.7493

> <Gold.Chemscore.Metal.Weighted>
-0.0000

> <Gold.Chemscore.Lipo.Weighted>
-16.0058

> <Gold.Chemscore.Internal_Hbond.Weighted>
0.0000

> <Gold.Chemscore.DEClash.Weighted>
1.0382

> <Gold.Chemscore.DEInternal.Weighted>
0.3601

> <Gold.Chemscore.Rot.Weighted>
3.4470

> <Gold.Chemscore.Internal.Correction.Weighted>
   9.000000E+99

> <Gold.Protein.RotatedTorsions>
[ 6907 6896 6895 6894 ] final   10.53 input  -60.11 | X-H torsion
[ 7974 7965 7964 7962 ] final -152.81 input  175.53 | X-H torsion
[ 8008 7997 7996 7995 ] final   -2.53 input   59.86 | X-H torsion
[ 10167 10162 10161 10158 ] final -100.78 input  -65.29 | X-H torsion
[ 10718 10713 10712 10709 ] final  160.25 input   66.30 | X-H torsion
[ 10763 10752 10751 10750 ] final  114.73 input  -60.55 | X-H torsion
[ 11005 11000 10999 10996 ] final -174.66 input  -57.11 | X-H torsion

> <Gold.Protein.ActiveResidues>
 VAL166  LYS551  ARG553  GLY616  TRP617  ASP618  TYR619  PRO620  LYS621  CYS622 
 ASP623  PHE694  ASN695  SER759  ASP760  ASP761  ALA762  ILE779  LEU786  VAL792 
 PHE793  MET794  SER795  GLU796  ALA797  LYS798  CYS799  TRP800  GLU811  SER814 

> <Gold.Protein.RotatedAtoms>
  151.7397  135.0857  160.0313 H   0  0  0  0  0  0  0  0  0  0  0  0  # atno 6907 bound_to 6896
  152.3488  133.6149  159.5938 H   0  0  0  0  0  0  0  0  0  0  0  0  # atno 6908 bound_to 6896
  150.7526  133.9524  159.3531 H   0  0  0  0  0  0  0  0  0  0  0  0  # atno 6909 bound_to 6896
  144.7774  140.4612  143.5863 H   0  0  0  0  0  0  0  0  0  0  0  0  # atno 7974 bound_to 7965
  154.6347  140.2532  155.7392 H   0  0  0  0  0  0  0  0  0  0  0  0  # atno 8008 bound_to 7997
  156.2498  140.2899  156.0635 H   0  0  0  0  0  0  0  0  0  0  0  0  # atno 8009 bound_to 7997
  155.1689  140.0386  157.2849 H   0  0  0  0  0  0  0  0  0  0  0  0  # atno 8010 bound_to 7997
  140.2483  143.3490  152.0738 H   0  0  0  0  0  0  0  0  0  0  0  0  # atno 10167 bound_to 10162
  157.1529  131.0568  151.2271 H   0  0  0  0  0  0  0  0  0  0  0  0  # atno 10718 bound_to 10713
  153.5116  135.3616  155.2589 H   0  0  0  0  0  0  0  0  0  0  0  0  # atno 10763 bound_to 10752
  154.8741  135.4024  154.3362 H   0  0  0  0  0  0  0  0  0  0  0  0  # atno 10764 bound_to 10752
  153.4016  135.7075  153.6489 H   0  0  0  0  0  0  0  0  0  0  0  0  # atno 10765 bound_to 10752
  140.4720  134.6156  157.4886 H   0  0  0  0  0  0  0  0  0  0  0  0  # atno 11005 bound_to 11000
  145.6146  139.1517  143.3056 LP  0  0  0  0  0  0  0  0  0  0  0  0  # atno 17320 bound_to 7965
  146.1962  140.6260  142.9123 LP  0  0  0  0  0  0  0  0  0  0  0  0  # atno 17321 bound_to 7965
  139.5054  144.6795  151.6044 LP  0  0  0  0  0  0  0  0  0  0  0  0  # atno 17342 bound_to 10162
  140.6060  143.9523  150.6419 LP  0  0  0  0  0  0  0  0  0  0  0  0  # atno 17343 bound_to 10162
  157.4203  130.7434  149.6908 LP  0  0  0  0  0  0  0  0  0  0  0  0  # atno 17370 bound_to 10713
  155.9767  130.4072  150.3760 LP  0  0  0  0  0  0  0  0  0  0  0  0  # atno 17371 bound_to 10713
  139.9879  134.7031  155.9741 LP  0  0  0  0  0  0  0  0  0  0  0  0  # atno 17394 bound_to 11000
  141.1572  133.6541  156.4201 LP  0  0  0  0  0  0  0  0  0  0  0  0  # atno 17395 bound_to 11000

$$$$
