AV-unprocessed.smi:1999|AV-procd|sdf|8093|dock7
  -GOLD-   2272010313D 1   1.00000     0.00000
 Structure written by MMmdl.
 38 39  0  0  0  0  0  0  0  0  1 V2000
  143.9125  132.8133  150.9597 C   0  0  0  0  0  0  0  0  0  0  0  0
  143.9687  134.1856  151.5381 C   0  0  0  0  0  0  0  0  0  0  0  0
  143.0676  134.6352  152.4197 N   0  0  0  0  0  0  0  0  0  0  0  0
  143.3268  135.9391  152.8188 N   0  0  0  0  0  0  0  0  0  0  0  0
  144.4214  136.4349  152.2255 C   0  0  0  0  0  0  0  0  0  0  0  0
  144.9155  137.7470  152.4503 N   0  0  0  0  0  0  0  0  0  0  0  0
  146.0636  138.1151  153.0461 C   0  0  0  0  0  0  0  0  0  0  0  0
  146.9089  137.3439  153.5010 O   0  0  0  0  0  0  0  0  0  0  0  0
  146.1823  139.4506  153.0835 N   0  0  0  0  0  0  0  0  0  0  0  0
  147.3040  140.1882  153.6581 C   0  0  1  0  0  0  0  0  0  0  0  0
  146.9364  141.6774  153.7774 C   0  0  0  0  0  0  0  0  0  0  0  0
  147.6571  139.5616  155.0229 C   0  0  0  0  0  0  0  0  0  0  0  0
  149.0783  139.5513  155.3717 N   0  0  0  0  0  0  0  0  0  0  0  0
  149.6229  140.8933  155.5714 C   0  0  0  0  0  0  0  0  0  0  0  0
  151.1249  140.8600  155.9050 C   0  0  0  0  0  0  0  0  0  0  0  0
  151.8305  140.1714  154.8779 O   0  0  0  0  0  0  0  0  0  0  0  0
  151.3600  138.8414  154.6879 C   0  0  0  0  0  0  0  0  0  0  0  0
  149.8608  138.8714  154.3450 C   0  0  0  0  0  0  0  0  0  0  0  0
  145.2303  135.3382  151.1189 S   0  0  0  0  0  0  0  0  0  0  0  0
  142.8769  132.4926  150.8423 H   0  0  0  0  0  0  0  0  0  0  0  0
  144.4254  132.1111  151.6168 H   0  0  0  0  0  0  0  0  0  0  0  0
  144.3948  132.7956  149.9823 H   0  0  0  0  0  0  0  0  0  0  0  0
  144.3236  138.4942  152.1189 H   0  0  0  0  0  0  0  0  0  0  0  0
  145.4385  140.0029  152.6829 H   0  0  0  0  0  0  0  0  0  0  0  0
  148.1577  140.0883  152.9872 H   0  0  0  0  0  0  0  0  0  0  0  0
  147.7693  142.2592  154.1726 H   0  0  0  0  0  0  0  0  0  0  0  0
  146.0837  141.8243  154.4410 H   0  0  0  0  0  0  0  0  0  0  0  0
  146.6791  142.0999  152.8056 H   0  0  0  0  0  0  0  0  0  0  0  0
  147.1107  140.1097  155.7918 H   0  0  0  0  0  0  0  0  0  0  0  0
  147.2728  138.5407  155.0592 H   0  0  0  0  0  0  0  0  0  0  0  0
  149.4652  141.4944  154.6748 H   0  0  0  0  0  0  0  0  0  0  0  0
  149.1018  141.3981  156.3837 H   0  0  0  0  0  0  0  0  0  0  0  0
  151.5173  141.8734  155.9894 H   0  0  0  0  0  0  0  0  0  0  0  0
  151.2956  140.3690  156.8644 H   0  0  0  0  0  0  0  0  0  0  0  0
  151.9250  138.3754  153.8803 H   0  0  0  0  0  0  0  0  0  0  0  0
  151.5396  138.2513  155.5880 H   0  0  0  0  0  0  0  0  0  0  0  0
  149.5007  137.8495  154.2209 H   0  0  0  0  0  0  0  0  0  0  0  0
  149.7223  139.3696  153.3843 H   0  0  0  0  0  0  0  0  0  0  0  0
  1  2  1  0  0  0  0
  1 20  1  0  0  0  0
  1 21  1  0  0  0  0
  1 22  1  0  0  0  0
  2 19  1  0  0  0  0
  2  3  2  0  0  0  0
  3  4  1  0  0  0  0
  4  5  2  0  0  0  0
  5  6  1  0  0  0  0
  5 19  1  0  0  0  0
  6  7  1  0  0  0  0
  6 23  1  0  0  0  0
  7  8  2  0  0  0  0
  7  9  1  0  0  0  0
  9 10  1  0  0  0  0
  9 24  1  0  0  0  0
 10 11  1  0  0  0  0
 10 12  1  0  0  0  0
 10 25  1  0  0  0  0
 11 26  1  0  0  0  0
 11 27  1  0  0  0  0
 11 28  1  0  0  0  0
 12 13  1  0  0  0  0
 12 29  1  0  0  0  0
 12 30  1  0  0  0  0
 13 18  1  0  0  0  0
 13 14  1  0  0  0  0
 14 15  1  0  0  0  0
 14 31  1  0  0  0  0
 14 32  1  0  0  0  0
 15 16  1  0  0  0  0
 15 33  1  0  0  0  0
 15 34  1  0  0  0  0
 16 17  1  0  0  0  0
 17 18  1  0  0  0  0
 17 35  1  0  0  0  0
 17 36  1  0  0  0  0
 18 37  1  0  0  0  0
 18 38  1  0  0  0  0
M  END
> <s_m_source_file>
AV-unprocessed.smi

> <i_m_source_file_index>
1999

> <i_lp_mmshare_version>
43012

> <i_f3d_flags>
0

> <s_epik_input>
W0NIM11jMW5uYyhzMSlbTkhdQyg9TylbTkhdW0NASF0oW0NIM10pW0NIMl1OMltDSDJdW0NIMl1PW0NIMl1bQ0gyXTI=

> <s_epik_cmdline>
J2VwaWtfcHl0aG9uJywgJy1waCcsICc3LjAnLCAnLXRuJywgJzgnLCAnLW1hJywgJzIwMCcsICctbWV0YWxfYmluZGluZycsICctaW1hZScsICc8aW5maWxlLm1hZT4nLCAnLW9tYWUnLCAnPG91dGZpbGUubWFlPic=

> <r_lp_tautomer_probability>
1

> <r_epik_Ionization_Penalty>
0.221412

> <r_epik_Ionization_Penalty_Charging>
0

> <r_epik_Ionization_Penalty_Neutral>
0.221412

> <r_epik_State_Penalty>
0.209349

> <r_epik_Charging_Adjusted_Penalty>
0.209349

> <i_epik_Tot_Q>
0

> <i_epik_Tot_abs_Q>
0

> <r_epik_Metal_State_Penalty>
0.56886

> <b_epik_Metal_Only>
0

> <s_lp_Force_Field>
OPLS_2005

> <r_lp_Energy>
22.0732

> <b_lp_Chiralities_Consistent>
1

> <s_lp_Variant>
AV-unprocessed.smi:1999-2

> <Gold.Version>
5.8.1

> <Gold.Id.Protein>
6NUR|6NUR_protein|mol2

> <Gold.PLP.Fitness>
38.2871

> <Gold.PLP.PLP>
-32.1109

> <Gold.PLP.part.hbond>
-3.8489

> <Gold.PLP.part.metal>
0.0000

> <Gold.PLP.part.buried>
-6.2822

> <Gold.PLP.part.nonpolar>
-23.8131

> <Gold.PLP.part.repulsive>
1.6475

> <Gold.PLP.ligand.clash>
0.0000

> <Gold.PLP.ligand.torsion>
1.2670

> <Gold.PLP.Chemscore.Hbond>
2.8880

> <Gold.PLP.Chemscore.CHOScore>
0.0000

> <Gold.PLP.Chemscore.Metal>
0.0000

> <Gold.Chemscore.Hbonds>
donor molecule, donor type, donor heavy atom, donor atom, acceptor molecule, acceptor atom, score
      L1  H     6    23       P1 10175  0.81
      L1  H     9    24       P1 10175  1.00
      P1  H  7989  7998       L1    16  0.90

> <Gold.PLP.Chemscore.Internal.Correction>
0.0462

> <Gold.Rescore>
     Score         DG    S(hbond)    S(metal)    S(lipo)     H(rot)  DE(clash)    DE(int)     intcor
     14.48     -16.88       2.60        0.00      57.91       1.58       0.06       2.33       ----

> <Gold.Chemscore.Fitness>
14.4849

> <Gold.Chemscore.DG>
-16.8762

> <Gold.Chemscore.ZeroCoef>
-5.4800

> <Gold.Chemscore.Hbond>
2.5974

> <Gold.Chemscore.Metal>
0.0000

> <Gold.Chemscore.Lipo>
57.9081

> <Gold.Chemscore.Internal_Hbond>
0.0000

> <Gold.Chemscore.DEClash>
0.0567

> <Gold.Chemscore.DEInternal>
2.3346

> <Gold.Chemscore.Rot>
1.5837

> <Gold.Chemscore.Internal.Correction>
   9.000000E+99

> <Gold.Chemscore.Hbonds>
donor molecule, donor type, donor heavy atom, donor atom, acceptor molecule, acceptor atom, score
      L1  H     6    23       P1 10175  0.77
      L1  H     9    24       P1 10175  0.96
      P1  H  7989  7998       L1    16  0.38

> <Gold.Chemscore.Hbond.Weighted>
-8.6752

> <Gold.Chemscore.Metal.Weighted>
-0.0000

> <Gold.Chemscore.Lipo.Weighted>
-6.7752

> <Gold.Chemscore.Internal_Hbond.Weighted>
0.0000

> <Gold.Chemscore.DEClash.Weighted>
0.0567

> <Gold.Chemscore.DEInternal.Weighted>
2.3346

> <Gold.Chemscore.Rot.Weighted>
4.0542

> <Gold.Chemscore.Internal.Correction.Weighted>
   9.000000E+99

> <Gold.Protein.RotatedTorsions>
[ 6907 6896 6895 6894 ] final -179.15 input  -60.11 | X-H torsion
[ 7974 7965 7964 7962 ] final -164.32 input  175.53 | X-H torsion
[ 8008 7997 7996 7995 ] final   66.84 input   59.86 | X-H torsion
[ 10167 10162 10161 10158 ] final   70.68 input  -65.29 | X-H torsion
[ 10718 10713 10712 10709 ] final  -50.19 input   66.30 | X-H torsion
[ 10763 10752 10751 10750 ] final   99.31 input  -60.55 | X-H torsion
[ 11005 11000 10999 10996 ] final  126.41 input  -57.11 | X-H torsion

> <Gold.Protein.ActiveResidues>
 VAL166  LYS551  ARG553  GLY616  TRP617  ASP618  TYR619  PRO620  LYS621  CYS622 
 ASP623  PHE694  ASN695  SER759  ASP760  ASP761  ALA762  ILE779  LEU786  VAL792 
 PHE793  MET794  SER795  GLU796  ALA797  LYS798  CYS799  TRP800  GLU811  SER814 

> <Gold.Protein.RotatedAtoms>
  151.6487  133.3322  159.3146 H   0  0  0  0  0  0  0  0  0  0  0  0  # atno 6907 bound_to 6896
  150.7971  134.7042  159.6577 H   0  0  0  0  0  0  0  0  0  0  0  0  # atno 6908 bound_to 6896
  152.4059  134.6211  160.0102 H   0  0  0  0  0  0  0  0  0  0  0  0  # atno 6909 bound_to 6896
  144.7300  140.2979  143.6209 H   0  0  0  0  0  0  0  0  0  0  0  0  # atno 7974 bound_to 7965
  155.6836  140.3496  155.4865 H   0  0  0  0  0  0  0  0  0  0  0  0  # atno 8008 bound_to 7997
  155.9585  140.1133  157.0939 H   0  0  0  0  0  0  0  0  0  0  0  0  # atno 8009 bound_to 7997
  154.4137  140.1180  156.5133 H   0  0  0  0  0  0  0  0  0  0  0  0  # atno 8010 bound_to 7997
  140.0543  144.5286  150.7340 H   0  0  0  0  0  0  0  0  0  0  0  0  # atno 10167 bound_to 10162
  156.1823  130.4151  149.9489 H   0  0  0  0  0  0  0  0  0  0  0  0  # atno 10718 bound_to 10713
  153.2998  135.4118  155.1242 H   0  0  0  0  0  0  0  0  0  0  0  0  # atno 10763 bound_to 10752
  154.8546  135.3538  154.5868 H   0  0  0  0  0  0  0  0  0  0  0  0  # atno 10764 bound_to 10752
  153.6293  135.7061  153.5340 H   0  0  0  0  0  0  0  0  0  0  0  0  # atno 10765 bound_to 10752
  139.9455  134.9630  156.8702 H   0  0  0  0  0  0  0  0  0  0  0  0  # atno 11005 bound_to 11000
  145.7790  139.1884  143.2168 LP  0  0  0  0  0  0  0  0  0  0  0  0  # atno 17320 bound_to 7965
  146.0849  140.7722  142.9623 LP  0  0  0  0  0  0  0  0  0  0  0  0  # atno 17321 bound_to 7965
  140.7202  143.2581  151.4304 LP  0  0  0  0  0  0  0  0  0  0  0  0  # atno 17342 bound_to 10162
  139.5933  144.1451  152.2114 LP  0  0  0  0  0  0  0  0  0  0  0  0  # atno 17343 bound_to 10162
  156.7255  130.9023  151.3621 LP  0  0  0  0  0  0  0  0  0  0  0  0  # atno 17370 bound_to 10713
  157.6876  130.9201  150.0428 LP  0  0  0  0  0  0  0  0  0  0  0  0  # atno 17371 bound_to 10713
  140.5846  134.0319  155.7477 LP  0  0  0  0  0  0  0  0  0  0  0  0  # atno 17394 bound_to 11000
  141.1103  133.9627  157.2922 LP  0  0  0  0  0  0  0  0  0  0  0  0  # atno 17395 bound_to 11000

$$$$
