AV-unprocessed.smi:72|AV-procd|sdf|704|dock9
  -GOLD-   2262017 23D 1   1.00000     0.00000
 Structure written by MMmdl.
 30 31  0  0  0  0  0  0  0  0  2 V2000
  141.0510  139.1656  153.1353 N   0  0  0  0  0  0  0  0  0  0  0  0
  141.6300  137.9138  153.1158 C   0  0  0  0  0  0  0  0  0  0  0  0
  142.9183  137.8092  152.6245 N   0  3  0  0  0  0  0  0  0  0  0  0
  143.6273  136.6746  152.5535 C   0  0  0  0  0  0  0  0  0  0  0  0
  143.0953  135.5551  153.0073 N   0  0  0  0  0  0  0  0  0  0  0  0
  143.8382  134.2378  152.9554 C   0  0  1  0  0  0  0  0  0  0  0  0
  143.3683  133.5043  151.8703 O   0  0  0  0  0  0  0  0  0  0  0  0
  144.1360  133.8350  150.7204 C   0  0  2  0  0  0  0  0  0  0  0  0
  143.9471  132.7635  149.6370 C   0  0  0  0  0  0  0  0  0  0  0  0
  142.5893  132.3824  149.5767 O   0  0  0  0  0  0  0  0  0  0  0  0
  145.5542  133.8954  151.2931 C   0  0  1  0  0  0  0  0  0  0  0  0
  146.3479  134.7790  150.5273 O   0  0  0  0  0  0  0  0  0  0  0  0
  145.3489  134.4459  152.7050 C   0  0  2  0  0  0  0  0  0  0  0  0
  146.1320  133.7253  153.6342 O   0  0  0  0  0  0  0  0  0  0  0  0
  141.7510  135.5538  153.4646 C   0  0  0  0  0  0  0  0  0  0  0  0
  141.2114  134.5028  153.8076 O   0  0  0  0  0  0  0  0  0  0  0  0
  141.0923  136.7911  153.5040 N   0  0  0  0  0  0  0  0  0  0  0  0
  143.5917  133.7410  153.8957 H   0  0  0  0  0  0  0  0  0  0  0  0
  143.8483  134.8208  150.3485 H   0  0  0  0  0  0  0  0  0  0  0  0
  145.9994  132.8989  151.3153 H   0  0  0  0  0  0  0  0  0  0  0  0
  145.6040  135.5051  152.7631 H   0  0  0  0  0  0  0  0  0  0  0  0
  140.1122  139.3349  153.4682 H   0  0  0  0  0  0  0  0  0  0  0  0
  141.5128  140.0068  152.8202 H   0  0  0  0  0  0  0  0  0  0  0  0
  144.6141  136.7093  152.1111 H   0  0  0  0  0  0  0  0  0  0  0  0
  144.2194  133.1649  148.6603 H   0  0  0  0  0  0  0  0  0  0  0  0
  144.5803  131.8947  149.8197 H   0  0  0  0  0  0  0  0  0  0  0  0
  142.0673  133.1544  149.4172 H   0  0  0  0  0  0  0  0  0  0  0  0
  145.9878  134.8250  149.6543 H   0  0  0  0  0  0  0  0  0  0  0  0
  146.1791  134.2189  154.4388 H   0  0  0  0  0  0  0  0  0  0  0  0
  143.3548  138.6559  152.2887 H   0  0  0  0  0  0  0  0  0  0  0  0
  1  2  1  0  0  0  0
  1 22  1  0  0  0  0
  1 23  1  0  0  0  0
  2 17  2  0  0  0  0
  2  3  1  0  0  0  0
  3  4  2  0  0  0  0
  3 30  1  0  0  0  0
  4  5  1  0  0  0  0
  4 24  1  0  0  0  0
  5  6  1  0  0  0  0
  5 15  1  0  0  0  0
  6 18  1  0  0  0  0
  6 13  1  0  0  0  0
  6  7  1  0  0  0  0
  7  8  1  0  0  0  0
  8 19  1  0  0  0  0
  8  9  1  0  0  0  0
  8 11  1  0  0  0  0
  9 10  1  0  0  0  0
  9 25  1  0  0  0  0
  9 26  1  0  0  0  0
 10 27  1  0  0  0  0
 11 20  1  0  0  0  0
 11 12  1  0  0  0  0
 11 13  1  0  0  0  0
 12 28  1  0  0  0  0
 13 21  1  0  0  0  0
 13 14  1  0  0  0  0
 14 29  1  0  0  0  0
 15 16  2  0  0  0  0
 15 17  1  0  0  0  0
M  CHG  1   3   1
M  END
> <s_m_source_file>
AV-unprocessed.smi

> <i_m_source_file_index>
72

> <i_lp_mmshare_version>
43012

> <i_f3d_flags>
0

> <s_epik_input>
W05IMl1jMW5bY0hdbihjKD1PKW4xKVtDQEBIXTJPW0NASF0oW0NIMl1bT0hdKVtDQEBIXShbT0hdKVtDQEhdMltPSF0=

> <s_epik_cmdline>
J2VwaWtfcHl0aG9uJywgJy1waCcsICc3LjAnLCAnLXRuJywgJzgnLCAnLW1hJywgJzIwMCcsICctbWV0YWxfYmluZGluZycsICctaW1hZScsICc8aW5maWxlLm1hZT4nLCAnLW9tYWUnLCAnPG91dGZpbGUubWFlPic=

> <r_lp_tautomer_probability>
4.77166e-05

> <r_epik_Ionization_Penalty>
0.104979

> <r_epik_Ionization_Penalty_Charging>
0.0999619

> <r_epik_Ionization_Penalty_Neutral>
0.00501745

> <r_epik_State_Penalty>
2.51541

> <r_epik_Charging_Adjusted_Penalty>
2.61537

> <i_epik_Tot_Q>
1

> <i_epik_Tot_abs_Q>
1

> <r_epik_Metal_State_Penalty>
3.53763

> <b_epik_Metal_Only>
0

> <s_epik_Chemistry_Notes>
This compound contains an acetal/aminal-like group ( X-CH(R)-Y where X, Y are N, S, or O) that may be acid/base labile, releasing an aldehyde.

> <s_lp_Force_Field>
OPLS_2005

> <r_lp_Energy>
25.3677

> <b_lp_Chiralities_Consistent>
1

> <s_lp_Variant>
AV-unprocessed.smi:72-42

> <Gold.Version>
5.8.1

> <Gold.Id.Protein>
6NUR|6NUR_protein|mol2

> <Gold.PLP.Fitness>
42.2429

> <Gold.PLP.PLP>
-27.7764

> <Gold.PLP.part.hbond>
-8.8951

> <Gold.PLP.part.metal>
0.0000

> <Gold.PLP.part.buried>
-4.6177

> <Gold.PLP.part.nonpolar>
-16.0216

> <Gold.PLP.part.repulsive>
0.6285

> <Gold.PLP.ligand.clash>
0.0000

> <Gold.PLP.ligand.torsion>
0.6070

> <Gold.PLP.Chemscore.Hbond>
5.2111

> <Gold.PLP.Chemscore.CHOScore>
0.0000

> <Gold.PLP.Chemscore.Metal>
0.0000

> <Gold.Chemscore.Hbonds>
donor molecule, donor type, donor heavy atom, donor atom, acceptor molecule, acceptor atom, score
      L1  H     1    23       P1 10175  0.32
      L1  H     3    30       P1 10175  1.98
      L1  H    10    27       P1 10186  1.00
      L1  H    12    28       P1  7921  1.00
      P1  H 11000 11005       L1    16  0.88

> <Gold.PLP.Chemscore.Internal.Correction>
0.0472

> <Gold.Rescore>
     Score         DG    S(hbond)    S(metal)    S(lipo)     H(rot)  DE(clash)    DE(int)     intcor
      9.88     -11.75       4.10        0.00      25.87       4.08       1.14       0.73       ----

> <Gold.Chemscore.Fitness>
9.8809

> <Gold.Chemscore.DG>
-11.7498

> <Gold.Chemscore.ZeroCoef>
-5.4800

> <Gold.Chemscore.Hbond>
4.0968

> <Gold.Chemscore.Metal>
0.0000

> <Gold.Chemscore.Lipo>
25.8699

> <Gold.Chemscore.Internal_Hbond>
0.0000

> <Gold.Chemscore.DEClash>
1.1350

> <Gold.Chemscore.DEInternal>
0.7339

> <Gold.Chemscore.Rot>
4.0783

> <Gold.Chemscore.Internal.Correction>
   9.000000E+99

> <Gold.Chemscore.Hbonds>
donor molecule, donor type, donor heavy atom, donor atom, acceptor molecule, acceptor atom, score
      L1  H     1    23       P1 10160  0.05
      L1  H     3    30       P1 10175  0.94
      L1  H    10    27       P1 10186  1.00
      L1  H    12    28       P1  7921  0.68
      P1  H 11000 11005       L1    16  0.85

> <Gold.Chemscore.Hbond.Weighted>
-13.6834

> <Gold.Chemscore.Metal.Weighted>
-0.0000

> <Gold.Chemscore.Lipo.Weighted>
-3.0268

> <Gold.Chemscore.Internal_Hbond.Weighted>
0.0000

> <Gold.Chemscore.DEClash.Weighted>
1.1350

> <Gold.Chemscore.DEInternal.Weighted>
0.7339

> <Gold.Chemscore.Rot.Weighted>
10.4404

> <Gold.Chemscore.Internal.Correction.Weighted>
   9.000000E+99

> <Gold.Protein.RotatedTorsions>
[ 6907 6896 6895 6894 ] final  -47.16 input  -60.11 | X-H torsion
[ 7974 7965 7964 7962 ] final  -59.80 input  175.53 | X-H torsion
[ 8008 7997 7996 7995 ] final -116.47 input   59.86 | X-H torsion
[ 10167 10162 10161 10158 ] final   29.44 input  -65.29 | X-H torsion
[ 10718 10713 10712 10709 ] final   39.95 input   66.30 | X-H torsion
[ 10763 10752 10751 10750 ] final -137.39 input  -60.55 | X-H torsion
[ 11005 11000 10999 10996 ] final    5.92 input  -57.11 | X-H torsion

> <Gold.Protein.ActiveResidues>
 VAL166  LYS551  ARG553  GLY616  TRP617  ASP618  TYR619  PRO620  LYS621  CYS622 
 ASP623  PHE694  ASN695  SER759  ASP760  ASP761  ALA762  ILE779  LEU786  VAL792 
 PHE793  MET794  SER795  GLU796  ALA797  LYS798  CYS799  TRP800  GLU811  SER814 

> <Gold.Protein.RotatedAtoms>
  150.9036  134.8450  159.7376 H   0  0  0  0  0  0  0  0  0  0  0  0  # atno 6907 bound_to 6896
  152.4906  134.4465  159.9570 H   0  0  0  0  0  0  0  0  0  0  0  0  # atno 6908 bound_to 6896
  151.4514  133.3577  159.2831 H   0  0  0  0  0  0  0  0  0  0  0  0  # atno 6909 bound_to 6896
  145.8231  140.8527  143.0122 H   0  0  0  0  0  0  0  0  0  0  0  0  # atno 7974 bound_to 7965
  155.0683  140.0393  157.2600 H   0  0  0  0  0  0  0  0  0  0  0  0  # atno 8008 bound_to 7997
  154.7003  140.2672  155.6701 H   0  0  0  0  0  0  0  0  0  0  0  0  # atno 8009 bound_to 7997
  156.2758  140.2742  156.1612 H   0  0  0  0  0  0  0  0  0  0  0  0  # atno 8010 bound_to 7997
  140.4765  144.0682  150.6252 H   0  0  0  0  0  0  0  0  0  0  0  0  # atno 10167 bound_to 10162
  157.3765  130.7730  149.7160 H   0  0  0  0  0  0  0  0  0  0  0  0  # atno 10718 bound_to 10713
  154.8663  135.3643  154.5216 H   0  0  0  0  0  0  0  0  0  0  0  0  # atno 10763 bound_to 10752
  153.5846  135.7017  153.5454 H   0  0  0  0  0  0  0  0  0  0  0  0  # atno 10764 bound_to 10752
  153.3427  135.4093  155.1547 H   0  0  0  0  0  0  0  0  0  0  0  0  # atno 10765 bound_to 10752
  140.5653  134.0154  155.7987 H   0  0  0  0  0  0  0  0  0  0  0  0  # atno 11005 bound_to 11000
  144.6746  140.0563  143.7477 LP  0  0  0  0  0  0  0  0  0  0  0  0  # atno 17320 bound_to 7965
  145.9653  139.2830  143.1131 LP  0  0  0  0  0  0  0  0  0  0  0  0  # atno 17321 bound_to 7965
  140.3912  143.2751  152.0058 LP  0  0  0  0  0  0  0  0  0  0  0  0  # atno 17342 bound_to 10162
  139.4826  144.6076  151.7493 LP  0  0  0  0  0  0  0  0  0  0  0  0  # atno 17343 bound_to 10162
  155.9766  130.4073  150.3765 LP  0  0  0  0  0  0  0  0  0  0  0  0  # atno 17370 bound_to 10713
  157.1863  131.0404  151.2723 LP  0  0  0  0  0  0  0  0  0  0  0  0  # atno 17371 bound_to 10713
  141.1090  133.9648  157.2945 LP  0  0  0  0  0  0  0  0  0  0  0  0  # atno 17394 bound_to 11000
  139.9388  135.0193  156.8642 LP  0  0  0  0  0  0  0  0  0  0  0  0  # atno 17395 bound_to 11000

$$$$
