AV-unprocessed.smi:2083|AV-procd|sdf|8498|dock10
  -GOLD-   2272011203D 1   1.00000     0.00000
 Structure written by MMmdl.
 44 45  0  0  0  0  0  0  0  0  3 V2000
  146.3373  136.2289  162.6284 C   0  0  0  0  0  0  0  0  0  0  0  0
  147.2737  136.1630  161.4705 C   0  0  0  0  0  0  0  0  0  0  0  0
  147.4212  135.2710  160.4464 C   0  0  0  0  0  0  0  0  0  0  0  0
  148.4994  135.8137  159.6951 C   0  0  0  0  0  0  0  0  0  0  0  0
  149.0380  135.2826  158.5866 N   0  5  0  0  0  0  0  0  0  0  0  0
  148.5653  135.6237  157.3664 C   0  0  0  0  0  0  0  0  0  0  0  0
  147.7138  136.4812  157.1216 O   0  0  0  0  0  0  0  0  0  0  0  0
  149.1152  134.9256  156.3647 N   0  0  0  0  0  0  0  0  0  0  0  0
  148.8057  135.0911  154.9496 C   0  0  0  0  0  0  0  0  0  0  0  0
  148.3553  133.7623  154.2971 C   0  0  2  0  0  0  0  0  0  0  0  0
  149.5681  132.8152  154.1197 C   0  0  0  0  0  0  0  0  0  0  0  0
  147.6124  134.0497  153.0257 N   0  3  1  0  0  0  0  0  0  0  0  0
  147.3015  132.8699  152.1665 C   0  0  0  0  0  0  0  0  0  0  0  0
  146.6637  133.2949  150.8335 C   0  0  0  0  0  0  0  0  0  0  0  0
  145.4057  134.1378  151.0612 C   0  0  0  0  0  0  0  0  0  0  0  0
  145.7381  135.3416  151.9548 C   0  0  1  0  0  0  0  0  0  0  0  0
  144.4934  136.2003  152.2205 C   0  0  0  0  0  0  0  0  0  0  0  0
  146.3847  134.8613  153.2691 C   0  0  0  0  0  0  0  0  0  0  0  0
  148.9741  136.9280  160.2253 N   0  0  0  0  0  0  0  0  0  0  0  0
  148.1898  137.1622  161.3610 O   0  0  0  0  0  0  0  0  0  0  0  0
  146.4572  135.3566  163.2710 H   0  0  0  0  0  0  0  0  0  0  0  0
  145.3029  136.2577  162.2860 H   0  0  0  0  0  0  0  0  0  0  0  0
  146.5182  137.1194  163.2310 H   0  0  0  0  0  0  0  0  0  0  0  0
  146.8480  134.3752  160.2612 H   0  0  0  0  0  0  0  0  0  0  0  0
  149.8086  134.2332  156.6080 H   0  0  0  0  0  0  0  0  0  0  0  0
  148.0374  135.8593  154.8727 H   0  0  0  0  0  0  0  0  0  0  0  0
  149.6836  135.4732  154.4255 H   0  0  0  0  0  0  0  0  0  0  0  0
  147.6669  133.2576  154.9772 H   0  0  0  0  0  0  0  0  0  0  0  0
  150.0860  132.6416  155.0629 H   0  0  0  0  0  0  0  0  0  0  0  0
  150.2984  133.2269  153.4222 H   0  0  0  0  0  0  0  0  0  0  0  0
  149.2687  131.8295  153.7635 H   0  0  0  0  0  0  0  0  0  0  0  0
  148.2071  132.3175  151.9193 H   0  0  0  0  0  0  0  0  0  0  0  0
  146.6398  132.1884  152.7038 H   0  0  0  0  0  0  0  0  0  0  0  0
  147.3861  133.8663  150.2490 H   0  0  0  0  0  0  0  0  0  0  0  0
  146.4172  132.4131  150.2414 H   0  0  0  0  0  0  0  0  0  0  0  0
  145.0053  134.4733  150.1038 H   0  0  0  0  0  0  0  0  0  0  0  0
  144.6319  133.5264  151.5275 H   0  0  0  0  0  0  0  0  0  0  0  0
  146.4622  135.9666  151.4298 H   0  0  0  0  0  0  0  0  0  0  0  0
  143.7259  135.6351  152.7505 H   0  0  0  0  0  0  0  0  0  0  0  0
  144.0572  136.5586  151.2875 H   0  0  0  0  0  0  0  0  0  0  0  0
  144.7400  137.0737  152.8246 H   0  0  0  0  0  0  0  0  0  0  0  0
  145.6694  134.2680  153.8414 H   0  0  0  0  0  0  0  0  0  0  0  0
  146.6177  135.7328  153.8790 H   0  0  0  0  0  0  0  0  0  0  0  0
  148.2346  134.6238  152.4749 H   0  0  0  0  0  0  0  0  0  0  0  0
  1  2  1  0  0  0  0
  1 21  1  0  0  0  0
  1 22  1  0  0  0  0
  1 23  1  0  0  0  0
  2 20  1  0  0  0  0
  2  3  2  0  0  0  0
  3  4  1  0  0  0  0
  3 24  1  0  0  0  0
  4  5  1  0  0  0  0
  4 19  2  0  0  0  0
  5  6  1  0  0  0  0
  6  7  2  0  0  0  0
  6  8  1  0  0  0  0
  8  9  1  0  0  0  0
  8 25  1  0  0  0  0
  9 10  1  0  0  0  0
  9 26  1  0  0  0  0
  9 27  1  0  0  0  0
 10 11  1  0  0  0  0
 10 12  1  0  0  0  0
 10 28  1  0  0  0  0
 11 29  1  0  0  0  0
 11 30  1  0  0  0  0
 11 31  1  0  0  0  0
 12 18  1  0  0  0  0
 12 13  1  0  0  0  0
 12 44  1  0  0  0  0
 13 14  1  0  0  0  0
 13 32  1  0  0  0  0
 13 33  1  0  0  0  0
 14 15  1  0  0  0  0
 14 34  1  0  0  0  0
 14 35  1  0  0  0  0
 15 16  1  0  0  0  0
 15 36  1  0  0  0  0
 15 37  1  0  0  0  0
 16 17  1  0  0  0  0
 16 18  1  0  0  0  0
 16 38  1  0  0  0  0
 17 39  1  0  0  0  0
 17 40  1  0  0  0  0
 17 41  1  0  0  0  0
 18 42  1  0  0  0  0
 18 43  1  0  0  0  0
 19 20  1  0  0  0  0
M  CHG  1   5  -1
M  CHG  1  12   1
M  END
> <s_m_source_file>
AV-unprocessed.smi

> <i_m_source_file_index>
2083

> <i_lp_mmshare_version>
43012

> <i_f3d_flags>
0

> <s_epik_input>
W0NIM11jMVtjSF1jKG5vMSlbTkhdQyg9TylbTkhdW0NIMl1bQ0BIXShbQ0gzXSlOMltDSDJdW0NIMl1bQ0gyXVtDQEBIXShbQ0gzXSlbQ0gyXTI=

> <s_epik_cmdline>
J2VwaWtfcHl0aG9uJywgJy1waCcsICc3LjAnLCAnLXRuJywgJzgnLCAnLW1hJywgJzIwMCcsICctbWV0YWxfYmluZGluZycsICctaW1hZScsICc8aW5maWxlLm1hZT4nLCAnLW9tYWUnLCAnPG91dGZpbGUubWFlPic=

> <r_epik_Ionization_Penalty>
6.22434

> <r_epik_Ionization_Penalty_Charging>
6.22425

> <r_epik_Ionization_Penalty_Neutral>
9.62407e-05

> <r_epik_State_Penalty>
6.22423

> <r_epik_Charging_Adjusted_Penalty>
12.4485

> <i_epik_Tot_Q>
0

> <i_epik_Tot_abs_Q>
2

> <r_epik_Metal_State_Penalty>
2.16764

> <b_epik_Metal_Only>
1

> <s_lp_Force_Field>
OPLS_2005

> <r_lp_Energy>
12.4443

> <b_lp_Chiralities_Consistent>
1

> <s_lp_Variant>
AV-unprocessed.smi:2083-9

> <Gold.Version>
5.8.1

> <Gold.Id.Protein>
6NUR|6NUR_protein|mol2

> <Gold.PLP.Fitness>
43.7939

> <Gold.PLP.PLP>
-30.2894

> <Gold.PLP.part.hbond>
-4.7627

> <Gold.PLP.part.metal>
0.0000

> <Gold.PLP.part.buried>
-2.9723

> <Gold.PLP.part.nonpolar>
-23.2756

> <Gold.PLP.part.repulsive>
0.0331

> <Gold.PLP.ligand.clash>
0.0000

> <Gold.PLP.ligand.torsion>
0.9737

> <Gold.PLP.Chemscore.Hbond>
5.1299

> <Gold.PLP.Chemscore.CHOScore>
0.0000

> <Gold.PLP.Chemscore.Metal>
0.0000

> <Gold.Chemscore.Hbonds>
donor molecule, donor type, donor heavy atom, donor atom, acceptor molecule, acceptor atom, score
      L1  H    12    44       P1  7948  2.00
      P1  H  6896  6907       L1     5  1.72
      P1  H  6931  6943       L1    20  0.70
      P1  H  6934  6947       L1    20  0.41

> <Gold.PLP.Chemscore.Internal.Correction>
0.0624

> <Gold.Rescore>
     Score         DG    S(hbond)    S(metal)    S(lipo)     H(rot)  DE(clash)    DE(int)     intcor
     14.29     -15.39       1.87        0.00      64.51       1.52       0.06       1.04       ----

> <Gold.Chemscore.Fitness>
14.2937

> <Gold.Chemscore.DG>
-15.3889

> <Gold.Chemscore.ZeroCoef>
-5.4800

> <Gold.Chemscore.Hbond>
1.8712

> <Gold.Chemscore.Metal>
0.0000

> <Gold.Chemscore.Lipo>
64.5121

> <Gold.Chemscore.Internal_Hbond>
0.0000

> <Gold.Chemscore.DEClash>
0.0600

> <Gold.Chemscore.DEInternal>
1.0352

> <Gold.Chemscore.Rot>
1.5190

> <Gold.Chemscore.Internal.Correction>
   9.000000E+99

> <Gold.Chemscore.Hbonds>
donor molecule, donor type, donor heavy atom, donor atom, acceptor molecule, acceptor atom, score
      L1  H    12    44       P1  7948  0.30
      P1  H  6896  6907       L1     5  0.25
      P1  H  6931  6943       L1    20  0.10
      P1  H  6934  6947       L1    20  0.14

> <Gold.Chemscore.Hbond.Weighted>
-6.2497

> <Gold.Chemscore.Metal.Weighted>
-0.0000

> <Gold.Chemscore.Lipo.Weighted>
-7.5479

> <Gold.Chemscore.Internal_Hbond.Weighted>
0.0000

> <Gold.Chemscore.DEClash.Weighted>
0.0600

> <Gold.Chemscore.DEInternal.Weighted>
1.0352

> <Gold.Chemscore.Rot.Weighted>
3.8886

> <Gold.Chemscore.Internal.Correction.Weighted>
   9.000000E+99

> <Gold.Protein.RotatedTorsions>
[ 6907 6896 6895 6894 ] final  -93.63 input  -60.11 | X-H torsion
[ 7974 7965 7964 7962 ] final -126.88 input  175.53 | X-H torsion
[ 8008 7997 7996 7995 ] final -112.93 input   59.86 | X-H torsion
[ 10167 10162 10161 10158 ] final  117.30 input  -65.29 | X-H torsion
[ 10718 10713 10712 10709 ] final  -50.93 input   66.30 | X-H torsion
[ 10763 10752 10751 10750 ] final   55.94 input  -60.55 | X-H torsion
[ 11005 11000 10999 10996 ] final  -21.12 input  -57.11 | X-H torsion

> <Gold.Protein.ActiveResidues>
 VAL166  LYS551  ARG553  GLY616  TRP617  ASP618  TYR619  PRO620  LYS621  CYS622 
 ASP623  PHE694  ASN695  SER759  ASP760  ASP761  ALA762  ILE779  LEU786  VAL792 
 PHE793  MET794  SER795  GLU796  ALA797  LYS798  CYS799  TRP800  GLU811  SER814 

> <Gold.Protein.RotatedAtoms>
  150.6926  134.1938  159.4295 H   0  0  0  0  0  0  0  0  0  0  0  0  # atno 6907 bound_to 6896
  151.9907  134.9978  160.0570 H   0  0  0  0  0  0  0  0  0  0  0  0  # atno 6908 bound_to 6896
  152.1670  133.4583  159.4926 H   0  0  0  0  0  0  0  0  0  0  0  0  # atno 6909 bound_to 6896
  144.9827  140.7656  143.4602 H   0  0  0  0  0  0  0  0  0  0  0  0  # atno 7974 bound_to 7965
  155.0129  140.0393  157.2406 H   0  0  0  0  0  0  0  0  0  0  0  0  # atno 8008 bound_to 7997
  154.7445  140.2755  155.6322 H   0  0  0  0  0  0  0  0  0  0  0  0  # atno 8009 bound_to 7997
  156.2871  140.2659  156.2181 H   0  0  0  0  0  0  0  0  0  0  0  0  # atno 8010 bound_to 7997
  139.6188  144.7097  151.2680 H   0  0  0  0  0  0  0  0  0  0  0  0  # atno 10167 bound_to 10162
  156.1755  130.4150  149.9583 H   0  0  0  0  0  0  0  0  0  0  0  0  # atno 10718 bound_to 10713
  152.9824  135.5693  154.5148 H   0  0  0  0  0  0  0  0  0  0  0  0  # atno 10763 bound_to 10752
  154.4646  135.2782  155.1690 H   0  0  0  0  0  0  0  0  0  0  0  0  # atno 10764 bound_to 10752
  154.3263  135.6258  153.5584 H   0  0  0  0  0  0  0  0  0  0  0  0  # atno 10765 bound_to 10752
  140.8530  133.7843  155.9988 H   0  0  0  0  0  0  0  0  0  0  0  0  # atno 11005 bound_to 11000
  145.2397  139.2078  143.4999 LP  0  0  0  0  0  0  0  0  0  0  0  0  # atno 17320 bound_to 7965
  146.3412  140.2290  142.8593 LP  0  0  0  0  0  0  0  0  0  0  0  0  # atno 17321 bound_to 7965
  140.7368  143.6695  150.8094 LP  0  0  0  0  0  0  0  0  0  0  0  0  # atno 17342 bound_to 10162
  140.0303  143.5451  152.2763 LP  0  0  0  0  0  0  0  0  0  0  0  0  # atno 17343 bound_to 10162
  156.7370  130.9065  151.3629 LP  0  0  0  0  0  0  0  0  0  0  0  0  # atno 17370 bound_to 10713
  157.6833  130.9161  150.0321 LP  0  0  0  0  0  0  0  0  0  0  0  0  # atno 17371 bound_to 10713
  140.8769  134.2659  157.5164 LP  0  0  0  0  0  0  0  0  0  0  0  0  # atno 17394 bound_to 11000
  139.8704  134.9595  156.4335 LP  0  0  0  0  0  0  0  0  0  0  0  0  # atno 17395 bound_to 11000

$$$$
