AV-unprocessed.smi:1900|AV-procd|sdf|7711|dock2
  -GOLD-   22720 9453D 1   1.00000     0.00000
 Structure written by MMmdl.
 44 45  0  0  0  0  0  0  0  0  2 V2000
  153.0936  139.1886  154.4560 C   0  0  0  0  0  0  0  0  0  0  0  0
  151.6077  138.9316  154.7297 C   0  0  2  0  0  0  0  0  0  0  0  0
  151.0232  137.8588  153.7880 C   0  0  0  0  0  0  0  0  0  0  0  0
  149.5657  137.6868  154.0040 N   0  3  1  0  0  0  0  0  0  0  0  0
  149.2344  136.8887  155.2144 C   0  0  0  0  0  0  0  0  0  0  0  0
  149.5795  135.3989  155.0495 C   0  0  0  0  0  0  0  0  0  0  0  0
  148.3388  134.4990  155.1746 C   0  0  0  0  0  0  0  0  0  0  0  0
  147.9787  133.8905  153.8990 N   0  0  0  0  0  0  0  0  0  0  0  0
  146.7410  133.8549  153.3855 C   0  0  0  0  0  0  0  0  0  0  0  0
  145.7553  134.3243  153.9549 O   0  0  0  0  0  0  0  0  0  0  0  0
  146.7263  133.2491  152.1869 N   0  0  0  0  0  0  0  0  0  0  0  0
  145.6063  133.0341  151.3445 C   0  0  0  0  0  0  0  0  0  0  0  0
  145.5992  132.1763  150.2112 C   0  0  0  0  0  0  0  0  0  0  0  0
  144.4158  132.1725  149.6149 N   0  0  0  0  0  0  0  0  0  0  0  0
  143.6670  133.0187  150.3575 N   0  0  0  0  0  0  0  0  0  0  0  0
  144.3496  133.5660  151.4213 C   0  0  0  0  0  0  0  0  0  0  0  0
  148.8728  138.9972  153.9088 C   0  0  0  0  0  0  0  0  0  0  0  0
  149.5180  140.0518  154.8335 C   0  0  2  0  0  0  0  0  0  0  0  0
  148.8885  141.4372  154.6513 C   0  0  0  0  0  0  0  0  0  0  0  0
  150.9052  140.1536  154.5304 O   0  0  0  0  0  0  0  0  0  0  0  0
  142.7020  133.2103  150.1283 H   0  0  0  0  0  0  0  0  0  0  0  0
  153.6813  138.2811  154.5966 H   0  0  0  0  0  0  0  0  0  0  0  0
  153.4890  139.9479  155.1313 H   0  0  0  0  0  0  0  0  0  0  0  0
  153.2531  139.5361  153.4349 H   0  0  0  0  0  0  0  0  0  0  0  0
  151.4992  138.6184  155.7693 H   0  0  0  0  0  0  0  0  0  0  0  0
  151.1796  138.1604  152.7514 H   0  0  0  0  0  0  0  0  0  0  0  0
  151.5429  136.9076  153.9097 H   0  0  0  0  0  0  0  0  0  0  0  0
  149.8127  137.2724  156.0561 H   0  0  0  0  0  0  0  0  0  0  0  0
  148.1859  137.0103  155.4862 H   0  0  0  0  0  0  0  0  0  0  0  0
  150.0459  135.2206  154.0810 H   0  0  0  0  0  0  0  0  0  0  0  0
  150.3149  135.1169  155.8042 H   0  0  0  0  0  0  0  0  0  0  0  0
  148.5017  133.7220  155.9235 H   0  0  0  0  0  0  0  0  0  0  0  0
  147.4875  135.0871  155.5183 H   0  0  0  0  0  0  0  0  0  0  0  0
  148.7286  133.4815  153.3607 H   0  0  0  0  0  0  0  0  0  0  0  0
  147.6113  132.9157  151.8334 H   0  0  0  0  0  0  0  0  0  0  0  0
  146.3973  131.5698  149.8091 H   0  0  0  0  0  0  0  0  0  0  0  0
  143.8890  134.2597  152.1089 H   0  0  0  0  0  0  0  0  0  0  0  0
  148.9422  139.3361  152.8741 H   0  0  0  0  0  0  0  0  0  0  0  0
  147.8091  138.8976  154.1202 H   0  0  0  0  0  0  0  0  0  0  0  0
  149.4003  139.7622  155.8785 H   0  0  0  0  0  0  0  0  0  0  0  0
  147.8229  141.4170  154.8814 H   0  0  0  0  0  0  0  0  0  0  0  0
  149.0036  141.7929  153.6270 H   0  0  0  0  0  0  0  0  0  0  0  0
  149.3566  142.1675  155.3115 H   0  0  0  0  0  0  0  0  0  0  0  0
  149.2378  137.1304  153.2270 H   0  0  0  0  0  0  0  0  0  0  0  0
  1  2  1  0  0  0  0
  1 22  1  0  0  0  0
  1 23  1  0  0  0  0
  1 24  1  0  0  0  0
  2 20  1  0  0  0  0
  2  3  1  0  0  0  0
  2 25  1  0  0  0  0
  3  4  1  0  0  0  0
  3 26  1  0  0  0  0
  3 27  1  0  0  0  0
  4  5  1  0  0  0  0
  4 17  1  0  0  0  0
  4 44  1  0  0  0  0
  5  6  1  0  0  0  0
  5 28  1  0  0  0  0
  5 29  1  0  0  0  0
  6  7  1  0  0  0  0
  6 30  1  0  0  0  0
  6 31  1  0  0  0  0
  7  8  1  0  0  0  0
  7 32  1  0  0  0  0
  7 33  1  0  0  0  0
  8  9  1  0  0  0  0
  8 34  1  0  0  0  0
  9 10  2  0  0  0  0
  9 11  1  0  0  0  0
 11 12  1  0  0  0  0
 11 35  1  0  0  0  0
 12 16  2  0  0  0  0
 12 13  1  0  0  0  0
 13 14  2  0  0  0  0
 13 36  1  0  0  0  0
 14 15  1  0  0  0  0
 15 21  1  0  0  0  0
 15 16  1  0  0  0  0
 16 37  1  0  0  0  0
 17 18  1  0  0  0  0
 17 38  1  0  0  0  0
 17 39  1  0  0  0  0
 18 19  1  0  0  0  0
 18 20  1  0  0  0  0
 18 40  1  0  0  0  0
 19 41  1  0  0  0  0
 19 42  1  0  0  0  0
 19 43  1  0  0  0  0
M  CHG  1   4   1
M  END
> <s_m_source_file>
AV-unprocessed.smi

> <i_m_source_file_index>
1900

> <i_lp_mmshare_version>
43012

> <i_f3d_flags>
0

> <s_epik_input>
W0NIM11bQ0BASF0xW0NIMl1OKFtDSDJdW0NASF0oTzEpW0NIM10pW0NIMl1bQ0gyXVtDSDJdW05IXUMoPU8pW05IXWMyW2NIXW5bbkhdW2NIXTI=

> <s_epik_cmdline>
J2VwaWtfcHl0aG9uJywgJy1waCcsICc3LjAnLCAnLXRuJywgJzgnLCAnLW1hJywgJzIwMCcsICctbWV0YWxfYmluZGluZycsICctaW1hZScsICc8aW5maWxlLm1hZT4nLCAnLW9tYWUnLCAnPG91dGZpbGUubWFlPic=

> <r_lp_tautomer_probability>
0.5

> <r_epik_Ionization_Penalty>
0.270543

> <r_epik_Ionization_Penalty_Charging>
0.270496

> <r_epik_Ionization_Penalty_Neutral>
4.67091e-05

> <r_epik_State_Penalty>
0.262618

> <r_epik_Charging_Adjusted_Penalty>
0.533114

> <i_epik_Tot_Q>
1

> <i_epik_Tot_abs_Q>
1

> <r_epik_Metal_State_Penalty>
0.262618

> <b_epik_Metal_Only>
0

> <s_lp_Force_Field>
OPLS_2005

> <r_lp_Energy>
20.3326

> <b_lp_Chiralities_Consistent>
1

> <s_lp_Variant>
AV-unprocessed.smi:1900-3

> <Gold.Version>
5.8.1

> <Gold.Id.Protein>
6NUR|6NUR_protein|mol2

> <Gold.PLP.Fitness>
43.2529

> <Gold.PLP.PLP>
-31.5944

> <Gold.PLP.part.hbond>
-3.0532

> <Gold.PLP.part.metal>
0.0000

> <Gold.PLP.part.buried>
-4.0999

> <Gold.PLP.part.nonpolar>
-25.4300

> <Gold.PLP.part.repulsive>
0.4275

> <Gold.PLP.ligand.clash>
0.0000

> <Gold.PLP.ligand.torsion>
0.9494

> <Gold.PLP.Chemscore.Hbond>
3.5525

> <Gold.PLP.Chemscore.CHOScore>
0.9476

> <Gold.PLP.Chemscore.Metal>
0.0000

> <Gold.Chemscore.Hbonds>
donor molecule, donor type, donor heavy atom, donor atom, acceptor molecule, acceptor atom, score
      L1  H     4    44       P1  7948  2.00
      L1  H    15    21       P1 10186  0.68
      P1  H  7989  7998       L1    20  0.80
      L1  C    13    36       P1 10747  0.57

> <Gold.PLP.Chemscore.Internal.Correction>
0.0569

> <Gold.Rescore>
     Score         DG    S(hbond)    S(metal)    S(lipo)     H(rot)  DE(clash)    DE(int)     intcor
     19.17     -21.11       3.57        0.00      74.05       1.93       0.02       1.92       ----

> <Gold.Chemscore.Fitness>
19.1701

> <Gold.Chemscore.DG>
-21.1148

> <Gold.Chemscore.ZeroCoef>
-5.4800

> <Gold.Chemscore.Hbond>
3.5701

> <Gold.Chemscore.Metal>
0.0000

> <Gold.Chemscore.Lipo>
74.0485

> <Gold.Chemscore.Internal_Hbond>
0.0000

> <Gold.Chemscore.DEClash>
0.0234

> <Gold.Chemscore.DEInternal>
1.9214

> <Gold.Chemscore.Rot>
1.9347

> <Gold.Chemscore.Internal.Correction>
   9.000000E+99

> <Gold.Chemscore.Hbonds>
donor molecule, donor type, donor heavy atom, donor atom, acceptor molecule, acceptor atom, score
      L1  H     4    44       P1  7948  0.98
      L1  H    15    21       P1 10186  0.66
      P1  H  7989  7998       L1    20  0.43
      P1  H 10785 10796       L1    14  0.01

> <Gold.Chemscore.Hbond.Weighted>
-11.9240

> <Gold.Chemscore.Metal.Weighted>
-0.0000

> <Gold.Chemscore.Lipo.Weighted>
-8.6637

> <Gold.Chemscore.Internal_Hbond.Weighted>
0.0000

> <Gold.Chemscore.DEClash.Weighted>
0.0234

> <Gold.Chemscore.DEInternal.Weighted>
1.9214

> <Gold.Chemscore.Rot.Weighted>
4.9528

> <Gold.Chemscore.Internal.Correction.Weighted>
   9.000000E+99

> <Gold.Protein.RotatedTorsions>
[ 6907 6896 6895 6894 ] final  136.90 input  -60.11 | X-H torsion
[ 7974 7965 7964 7962 ] final   92.86 input  175.53 | X-H torsion
[ 8008 7997 7996 7995 ] final  124.28 input   59.86 | X-H torsion
[ 10167 10162 10161 10158 ] final   -0.48 input  -65.29 | X-H torsion
[ 10718 10713 10712 10709 ] final    6.44 input   66.30 | X-H torsion
[ 10763 10752 10751 10750 ] final -134.45 input  -60.55 | X-H torsion
[ 11005 11000 10999 10996 ] final -108.42 input  -57.11 | X-H torsion

> <Gold.Protein.ActiveResidues>
 VAL166  LYS551  ARG553  GLY616  TRP617  ASP618  TYR619  PRO620  LYS621  CYS622 
 ASP623  PHE694  ASN695  SER759  ASP760  ASP761  ALA762  ILE779  LEU786  VAL792 
 PHE793  MET794  SER795  GLU796  ALA797  LYS798  CYS799  TRP800  GLU811  SER814 

> <Gold.Protein.RotatedAtoms>
  152.2841  133.5498  159.5515 H   0  0  0  0  0  0  0  0  0  0  0  0  # atno 6907 bound_to 6896
  150.7208  134.0522  159.3811 H   0  0  0  0  0  0  0  0  0  0  0  0  # atno 6908 bound_to 6896
  151.8431  135.0583  160.0501 H   0  0  0  0  0  0  0  0  0  0  0  0  # atno 6909 bound_to 6896
  145.4867  139.2277  143.2853 H   0  0  0  0  0  0  0  0  0  0  0  0  # atno 7974 bound_to 7965
  156.2796  140.2743  156.1762 H   0  0  0  0  0  0  0  0  0  0  0  0  # atno 8008 bound_to 7997
  155.0603  140.0386  157.2592 H   0  0  0  0  0  0  0  0  0  0  0  0  # atno 8009 bound_to 7997
  154.7122  140.2671  155.6624 H   0  0  0  0  0  0  0  0  0  0  0  0  # atno 8010 bound_to 7997
  140.6769  143.6890  150.8043 H   0  0  0  0  0  0  0  0  0  0  0  0  # atno 10167 bound_to 10162
  156.9223  130.5795  149.5648 H   0  0  0  0  0  0  0  0  0  0  0  0  # atno 10718 bound_to 10713
  154.8719  135.3734  154.4738 H   0  0  0  0  0  0  0  0  0  0  0  0  # atno 10763 bound_to 10752
  153.5396  135.7026  153.5648 H   0  0  0  0  0  0  0  0  0  0  0  0  # atno 10764 bound_to 10752
  153.3816  135.3995  155.1825 H   0  0  0  0  0  0  0  0  0  0  0  0  # atno 10765 bound_to 10752
  141.0903  133.9067  157.2092 H   0  0  0  0  0  0  0  0  0  0  0  0  # atno 11005 bound_to 11000
  146.2309  140.5657  142.8976 LP  0  0  0  0  0  0  0  0  0  0  0  0  # atno 17320 bound_to 7965
  144.7857  140.5932  143.6575 LP  0  0  0  0  0  0  0  0  0  0  0  0  # atno 17321 bound_to 7965
  140.0584  143.5179  152.2640 LP  0  0  0  0  0  0  0  0  0  0  0  0  # atno 17342 bound_to 10162
  139.6067  144.7598  151.3046 LP  0  0  0  0  0  0  0  0  0  0  0  0  # atno 17343 bound_to 10162
  156.0485  130.5558  150.8936 LP  0  0  0  0  0  0  0  0  0  0  0  0  # atno 17370 bound_to 10713
  157.5900  131.0944  150.9134 LP  0  0  0  0  0  0  0  0  0  0  0  0  # atno 17371 bound_to 10713
  139.9727  135.0123  156.9554 LP  0  0  0  0  0  0  0  0  0  0  0  0  # atno 17394 bound_to 11000
  140.5268  134.0853  155.7305 LP  0  0  0  0  0  0  0  0  0  0  0  0  # atno 17395 bound_to 11000

$$$$
