AV-unprocessed.smi:1732|AV-procd|sdf|6977|dock2
  -GOLD-   22720 8193D 1   1.00000     0.00000
 Structure written by MMmdl.
 35 36  0  0  0  0  0  0  0  0  2 V2000
  153.1331  139.5497  155.4632 O   0  0  0  0  0  0  0  0  0  0  0  0
  151.9245  139.4303  155.6618 C   0  0  0  0  0  0  0  0  0  0  0  0
  151.0799  138.6383  154.6675 C   0  0  0  0  0  0  0  0  0  0  0  0
  149.7120  138.8024  155.0095 O   0  0  0  0  0  0  0  0  0  0  0  0
  149.0097  139.6840  154.1460 C   0  0  0  0  0  0  0  0  0  0  0  0
  149.2207  141.1344  154.5776 C   0  0  0  0  0  0  0  0  0  0  0  0
  148.0303  141.8985  153.9876 C   0  0  0  0  0  0  0  0  0  0  0  0
  146.9176  140.8606  153.7703 C   0  0  0  0  0  0  0  0  0  0  0  0
  147.4901  139.5129  154.2238 C   0  0  0  0  0  0  0  0  0  0  0  0
  151.2526  139.9279  156.7184 N   0  0  0  0  0  0  0  0  0  0  0  0
  151.7242  140.7116  157.7850 C   0  0  0  0  0  0  0  0  0  0  0  0
  151.3867  142.0137  157.9978 C   0  0  0  0  0  0  0  0  0  0  0  0
  151.8932  142.7754  159.1327 C   0  0  0  0  0  0  0  0  0  0  0  0
  151.6133  144.2514  159.3535 C   0  0  0  0  0  0  0  0  0  0  0  0
  152.1130  144.6624  160.5191 F   0  0  0  0  0  0  0  0  0  0  0  0
  152.1472  144.9920  158.3820 F   0  0  0  0  0  0  0  0  0  0  0  0
  150.2986  144.4669  159.3669 F   0  0  0  0  0  0  0  0  0  0  0  0
  152.7390  142.0288  159.9297 C   0  0  0  0  0  0  0  0  0  0  0  0
  153.1019  140.7332  159.8055 N   0  5  0  0  0  0  0  0  0  0  0  0
  152.6189  140.0291  158.7429 C   0  0  0  0  0  0  0  0  0  0  0  0
  152.9113  138.8457  158.5675 O   0  0  0  0  0  0  0  0  0  0  0  0
  151.2647  139.0006  153.6549 H   0  0  0  0  0  0  0  0  0  0  0  0
  151.3715  137.5877  154.7016 H   0  0  0  0  0  0  0  0  0  0  0  0
  149.3495  139.5704  153.1145 H   0  0  0  0  0  0  0  0  0  0  0  0
  149.1893  141.2022  155.6661 H   0  0  0  0  0  0  0  0  0  0  0  0
  150.1811  141.5338  154.2499 H   0  0  0  0  0  0  0  0  0  0  0  0
  147.7117  142.7078  154.6455 H   0  0  0  0  0  0  0  0  0  0  0  0
  148.3083  142.3457  153.0323 H   0  0  0  0  0  0  0  0  0  0  0  0
  146.0120  141.1122  154.3231 H   0  0  0  0  0  0  0  0  0  0  0  0
  146.6529  140.8203  152.7131 H   0  0  0  0  0  0  0  0  0  0  0  0
  147.1266  138.6812  153.6198 H   0  0  0  0  0  0  0  0  0  0  0  0
  147.1962  139.3241  155.2575 H   0  0  0  0  0  0  0  0  0  0  0  0
  150.2764  139.6778  156.7853 H   0  0  0  0  0  0  0  0  0  0  0  0
  150.7055  142.5217  157.3351 H   0  0  0  0  0  0  0  0  0  0  0  0
  153.1938  142.5531  160.7973 H   0  0  0  0  0  0  0  0  0  0  0  0
  1  2  2  0  0  0  0
  2  3  1  0  0  0  0
  2 10  1  0  0  0  0
  3  4  1  0  0  0  0
  3 22  1  0  0  0  0
  3 23  1  0  0  0  0
  4  5  1  0  0  0  0
  5  9  1  0  0  0  0
  5  6  1  0  0  0  0
  5 24  1  0  0  0  0
  6  7  1  0  0  0  0
  6 25  1  0  0  0  0
  6 26  1  0  0  0  0
  7  8  1  0  0  0  0
  7 27  1  0  0  0  0
  7 28  1  0  0  0  0
  8  9  1  0  0  0  0
  8 29  1  0  0  0  0
  8 30  1  0  0  0  0
  9 31  1  0  0  0  0
  9 32  1  0  0  0  0
 10 11  1  0  0  0  0
 10 33  1  0  0  0  0
 11 20  1  0  0  0  0
 11 12  2  0  0  0  0
 12 13  1  0  0  0  0
 12 34  1  0  0  0  0
 13 14  1  0  0  0  0
 13 18  2  0  0  0  0
 14 15  1  0  0  0  0
 14 16  1  0  0  0  0
 14 17  1  0  0  0  0
 18 19  1  0  0  0  0
 18 35  1  0  0  0  0
 19 20  1  0  0  0  0
 20 21  2  0  0  0  0
M  CHG  1  19  -1
M  END
> <s_m_source_file>
AV-unprocessed.smi

> <i_m_source_file_index>
1732

> <i_lp_mmshare_version>
43012

> <i_f3d_flags>
0

> <s_epik_input>
W0NIMl0xW0NIMl1bQ0gyXVtDSDJdW0NIXTFPW0NIMl1DKD1PKVtOSF1jMltjSF1jKEMoRikoRilGKVtjSF1bbkhdYzI9Tw==

> <s_epik_cmdline>
J2VwaWtfcHl0aG9uJywgJy1waCcsICc3LjAnLCAnLXRuJywgJzgnLCAnLW1hJywgJzIwMCcsICctbWV0YWxfYmluZGluZycsICctaW1hZScsICc8aW5maWxlLm1hZT4nLCAnLW9tYWUnLCAnPG91dGZpbGUubWFlPic=

> <r_epik_Ionization_Penalty>
2.40879

> <r_epik_Ionization_Penalty_Charging>
0.039975

> <r_epik_Ionization_Penalty_Neutral>
2.36882

> <r_epik_State_Penalty>
2.52443

> <r_epik_Charging_Adjusted_Penalty>
2.5644

> <i_epik_Tot_Q>
-1

> <i_epik_Tot_abs_Q>
1

> <r_epik_Metal_State_Penalty>
0.506326

> <b_epik_Metal_Only>
0

> <s_lp_Force_Field>
OPLS_2005

> <r_lp_Energy>
39.1091

> <b_lp_Chiralities_Consistent>
1

> <s_lp_Variant>
AV-unprocessed.smi:1732-2

> <Gold.Version>
5.8.1

> <Gold.Id.Protein>
6NUR|6NUR_protein|mol2

> <Gold.PLP.Fitness>
46.9244

> <Gold.PLP.PLP>
-46.6755

> <Gold.PLP.part.hbond>
-0.9665

> <Gold.PLP.part.metal>
0.0000

> <Gold.PLP.part.buried>
-5.0647

> <Gold.PLP.part.nonpolar>
-39.7430

> <Gold.PLP.part.repulsive>
0.1809

> <Gold.PLP.ligand.clash>
0.0000

> <Gold.PLP.ligand.torsion>
1.4102

> <Gold.PLP.Chemscore.Hbond>
1.0000

> <Gold.PLP.Chemscore.CHOScore>
0.0000

> <Gold.PLP.Chemscore.Metal>
0.0000

> <Gold.Chemscore.Hbonds>
donor molecule, donor type, donor heavy atom, donor atom, acceptor molecule, acceptor atom, score
      P1  H  7997  8009       L1     1  1.00

> <Gold.PLP.Chemscore.Internal.Correction>
0.0693

> <Gold.Rescore>
     Score         DG    S(hbond)    S(metal)    S(lipo)     H(rot)  DE(clash)    DE(int)     intcor
     13.44     -14.73       0.98        0.00      85.54       1.58       0.06       1.22       ----

> <Gold.Chemscore.Fitness>
13.4422

> <Gold.Chemscore.DG>
-14.7279

> <Gold.Chemscore.ZeroCoef>
-5.4800

> <Gold.Chemscore.Hbond>
0.9819

> <Gold.Chemscore.Metal>
0.0000

> <Gold.Chemscore.Lipo>
85.5415

> <Gold.Chemscore.Internal_Hbond>
0.0000

> <Gold.Chemscore.DEClash>
0.0620

> <Gold.Chemscore.DEInternal>
1.2238

> <Gold.Chemscore.Rot>
1.5781

> <Gold.Chemscore.Internal.Correction>
   9.000000E+99

> <Gold.Chemscore.Hbonds>
donor molecule, donor type, donor heavy atom, donor atom, acceptor molecule, acceptor atom, score
      P1  H  7997  8009       L1     1  0.95

> <Gold.Chemscore.Hbond.Weighted>
-3.2795

> <Gold.Chemscore.Metal.Weighted>
-0.0000

> <Gold.Chemscore.Lipo.Weighted>
-10.0084

> <Gold.Chemscore.Internal_Hbond.Weighted>
0.0000

> <Gold.Chemscore.DEClash.Weighted>
0.0620

> <Gold.Chemscore.DEInternal.Weighted>
1.2238

> <Gold.Chemscore.Rot.Weighted>
4.0399

> <Gold.Chemscore.Internal.Correction.Weighted>
   9.000000E+99

> <Gold.Protein.RotatedTorsions>
[ 6907 6896 6895 6894 ] final  115.10 input  -60.11 | X-H torsion
[ 7974 7965 7964 7962 ] final -101.85 input  175.53 | X-H torsion
[ 8008 7997 7996 7995 ] final -161.34 input   59.86 | X-H torsion
[ 10167 10162 10161 10158 ] final  141.21 input  -65.29 | X-H torsion
[ 10718 10713 10712 10709 ] final   -2.88 input   66.30 | X-H torsion
[ 10763 10752 10751 10750 ] final  -46.47 input  -60.55 | X-H torsion
[ 11005 11000 10999 10996 ] final  -97.98 input  -57.11 | X-H torsion

> <Gold.Protein.ActiveResidues>
 VAL166  LYS551  ARG553  GLY616  TRP617  ASP618  TYR619  PRO620  LYS621  CYS622 
 ASP623  PHE694  ASN695  SER759  ASP760  ASP761  ALA762  ILE779  LEU786  VAL792 
 PHE793  MET794  SER795  GLU796  ALA797  LYS798  CYS799  TRP800  GLU811  SER814 

> <Gold.Protein.RotatedAtoms>
  152.4762  133.8144  159.7020 H   0  0  0  0  0  0  0  0  0  0  0  0  # atno 6907 bound_to 6896
  150.8781  133.7401  159.2947 H   0  0  0  0  0  0  0  0  0  0  0  0  # atno 6908 bound_to 6896
  151.4915  135.1061  159.9857 H   0  0  0  0  0  0  0  0  0  0  0  0  # atno 6909 bound_to 6896
  145.2763  140.9313  143.2958 H   0  0  0  0  0  0  0  0  0  0  0  0  # atno 7974 bound_to 7965
  155.7908  140.0878  157.2010 H   0  0  0  0  0  0  0  0  0  0  0  0  # atno 8008 bound_to 7997
  154.3985  140.1490  156.3219 H   0  0  0  0  0  0  0  0  0  0  0  0  # atno 8009 bound_to 7997
  155.8560  140.3432  155.5727 H   0  0  0  0  0  0  0  0  0  0  0  0  # atno 8010 bound_to 7997
  139.5027  144.6186  151.6105 H   0  0  0  0  0  0  0  0  0  0  0  0  # atno 10167 bound_to 10162
  156.7843  130.5341  149.5746 H   0  0  0  0  0  0  0  0  0  0  0  0  # atno 10718 bound_to 10713
  154.0455  135.6638  153.4794 H   0  0  0  0  0  0  0  0  0  0  0  0  # atno 10763 bound_to 10752
  153.0484  135.5099  154.7801 H   0  0  0  0  0  0  0  0  0  0  0  0  # atno 10764 bound_to 10752
  154.6791  135.3042  154.9604 H   0  0  0  0  0  0  0  0  0  0  0  0  # atno 10765 bound_to 10752
  141.1361  133.8211  157.0778 H   0  0  0  0  0  0  0  0  0  0  0  0  # atno 11005 bound_to 11000
  144.9292  139.4319  143.6503 LP  0  0  0  0  0  0  0  0  0  0  0  0  # atno 17320 bound_to 7965
  146.3231  139.8194  142.8930 LP  0  0  0  0  0  0  0  0  0  0  0  0  # atno 17321 bound_to 7965
  140.5881  143.9828  150.6308 LP  0  0  0  0  0  0  0  0  0  0  0  0  # atno 17342 bound_to 10162
  140.2999  143.3267  152.0982 LP  0  0  0  0  0  0  0  0  0  0  0  0  # atno 17343 bound_to 10162
  156.1199  130.6102  151.0177 LP  0  0  0  0  0  0  0  0  0  0  0  0  # atno 17370 bound_to 10713
  157.6631  131.0877  150.7791 LP  0  0  0  0  0  0  0  0  0  0  0  0  # atno 17371 bound_to 10713
  140.0471  134.9825  157.1068 LP  0  0  0  0  0  0  0  0  0  0  0  0  # atno 17394 bound_to 11000
  140.4047  134.2045  155.7163 LP  0  0  0  0  0  0  0  0  0  0  0  0  # atno 17395 bound_to 11000

$$$$
