AV-unprocessed.smi:1356|AV-procd|sdf|5540|dock3
  -GOLD-   22720 5133D 1   1.00000     0.00000
 Structure written by MMmdl.
 41 42  0  0  0  0  0  0  0  0  1 V2000
  148.1217  130.9523  153.8402 C   0  0  0  0  0  0  0  0  0  0  0  0
  148.0204  132.3919  154.2965 C   0  0  2  0  0  0  0  0  0  0  0  0
  147.7241  133.4982  153.3132 C   0  0  0  0  0  0  0  0  0  0  0  0
  149.1031  133.3903  153.9309 C   0  0  1  0  0  0  0  0  0  0  0  0
  149.4810  134.4172  154.9477 C   0  0  0  0  0  0  0  0  0  0  0  0
  149.7594  134.1385  156.1148 O   0  0  0  0  0  0  0  0  0  0  0  0
  149.4744  135.6737  154.4776 N   0  0  0  0  0  0  0  0  0  0  0  0
  149.7538  136.8759  155.2618 C   0  0  0  0  0  0  0  0  0  0  0  0
  150.2446  138.0668  154.4077 C   0  0  0  0  0  0  0  0  0  0  0  0
  150.3866  139.3686  155.2032 C   0  0  0  0  0  0  0  0  0  0  0  0
  150.6473  140.4227  154.6230 O   0  0  0  0  0  0  0  0  0  0  0  0
  150.1897  139.2821  156.5274 N   0  0  0  0  0  0  0  0  0  0  0  0
  150.1890  140.4116  157.4484 C   0  0  0  0  0  0  0  0  0  0  0  0
  151.6016  140.6930  157.9876 C   0  0  0  0  0  0  0  0  0  0  0  0
  151.7315  142.0941  158.5536 C   0  0  0  0  0  0  0  0  0  0  0  0
  152.7258  142.3961  159.5085 C   0  0  0  0  0  0  0  0  0  0  0  0
  152.8087  143.7145  159.9966 C   0  0  0  0  0  0  0  0  0  0  0  0
  151.8996  144.6752  159.5134 C   0  0  0  0  0  0  0  0  0  0  0  0
  150.9445  144.2732  158.5585 C   0  0  0  0  0  0  0  0  0  0  0  0
  150.8565  143.0118  158.0838 N   0  0  0  0  0  0  0  0  0  0  0  0
  148.5838  130.8895  152.8545 H   0  0  0  0  0  0  0  0  0  0  0  0
  147.1285  130.5060  153.7876 H   0  0  0  0  0  0  0  0  0  0  0  0
  148.7245  130.3785  154.5444 H   0  0  0  0  0  0  0  0  0  0  0  0
  147.5589  132.4968  155.2771 H   0  0  0  0  0  0  0  0  0  0  0  0
  147.6354  133.2418  152.2596 H   0  0  0  0  0  0  0  0  0  0  0  0
  147.0670  134.2998  153.6461 H   0  0  0  0  0  0  0  0  0  0  0  0
  149.9000  133.0409  153.2756 H   0  0  0  0  0  0  0  0  0  0  0  0
  149.2344  135.8128  153.5065 H   0  0  0  0  0  0  0  0  0  0  0  0
  148.8604  137.1616  155.8189 H   0  0  0  0  0  0  0  0  0  0  0  0
  150.5075  136.6211  156.0075 H   0  0  0  0  0  0  0  0  0  0  0  0
  151.1981  137.8167  153.9399 H   0  0  0  0  0  0  0  0  0  0  0  0
  149.5448  138.2406  153.5898 H   0  0  0  0  0  0  0  0  0  0  0  0
  149.9847  138.3737  156.9186 H   0  0  0  0  0  0  0  0  0  0  0  0
  149.8166  141.2848  156.9119 H   0  0  0  0  0  0  0  0  0  0  0  0
  149.4922  140.2289  158.2682 H   0  0  0  0  0  0  0  0  0  0  0  0
  151.8596  139.9749  158.7676 H   0  0  0  0  0  0  0  0  0  0  0  0
  152.3372  140.5567  157.1934 H   0  0  0  0  0  0  0  0  0  0  0  0
  153.4100  141.6374  159.8586 H   0  0  0  0  0  0  0  0  0  0  0  0
  153.5563  143.9838  160.7281 H   0  0  0  0  0  0  0  0  0  0  0  0
  151.9338  145.6958  159.8650 H   0  0  0  0  0  0  0  0  0  0  0  0
  150.2326  144.9835  158.1650 H   0  0  0  0  0  0  0  0  0  0  0  0
  1  2  1  0  0  0  0
  1 21  1  0  0  0  0
  1 22  1  0  0  0  0
  1 23  1  0  0  0  0
  2  4  1  0  0  0  0
  2  3  1  0  0  0  0
  2 24  1  0  0  0  0
  3  4  1  0  0  0  0
  3 25  1  0  0  0  0
  3 26  1  0  0  0  0
  4  5  1  0  0  0  0
  4 27  1  0  0  0  0
  5  6  2  0  0  0  0
  5  7  1  0  0  0  0
  7  8  1  0  0  0  0
  7 28  1  0  0  0  0
  8  9  1  0  0  0  0
  8 29  1  0  0  0  0
  8 30  1  0  0  0  0
  9 10  1  0  0  0  0
  9 31  1  0  0  0  0
  9 32  1  0  0  0  0
 10 11  2  0  0  0  0
 10 12  1  0  0  0  0
 12 13  1  0  0  0  0
 12 33  1  0  0  0  0
 13 14  1  0  0  0  0
 13 34  1  0  0  0  0
 13 35  1  0  0  0  0
 14 15  1  0  0  0  0
 14 36  1  0  0  0  0
 14 37  1  0  0  0  0
 15 20  1  0  0  0  0
 15 16  2  0  0  0  0
 16 17  1  0  0  0  0
 16 38  1  0  0  0  0
 17 18  2  0  0  0  0
 17 39  1  0  0  0  0
 18 19  1  0  0  0  0
 18 40  1  0  0  0  0
 19 20  2  0  0  0  0
 19 41  1  0  0  0  0
M  END
> <s_m_source_file>
AV-unprocessed.smi

> <i_m_source_file_index>
1356

> <i_lp_mmshare_version>
43012

> <i_f3d_flags>
0

> <s_epik_input>
W0NIM11bQ0BASF0xW0NIMl1bQ0BIXTFDKD1PKVtOSF1bQ0gyXVtDSDJdQyg9TylbTkhdW0NIMl1bQ0gyXWMyW2NIXVtjSF1bY0hdW2NIXW4y

> <s_epik_cmdline>
J2VwaWtfcHl0aG9uJywgJy1waCcsICc3LjAnLCAnLXRuJywgJzgnLCAnLW1hJywgJzIwMCcsICctbWV0YWxfYmluZGluZycsICctaW1hZScsICc8aW5maWxlLm1hZT4nLCAnLW9tYWUnLCAnPG91dGZpbGUubWFlPic=

> <r_epik_Ionization_Penalty>
0.0258005

> <r_epik_Ionization_Penalty_Charging>
0

> <r_epik_Ionization_Penalty_Neutral>
0.0258005

> <r_epik_State_Penalty>
0.0210245

> <r_epik_Charging_Adjusted_Penalty>
0.0210245

> <i_epik_Tot_Q>
0

> <i_epik_Tot_abs_Q>
0

> <r_epik_Metal_State_Penalty>
0.0201445

> <b_epik_Metal_Only>
0

> <s_lp_Force_Field>
OPLS_2005

> <r_lp_Energy>
2.94754

> <b_lp_Chiralities_Consistent>
1

> <s_lp_Variant>
AV-unprocessed.smi:1356-1

> <Gold.Version>
5.8.1

> <Gold.Id.Protein>
6NUR|6NUR_protein|mol2

> <Gold.PLP.Fitness>
47.4293

> <Gold.PLP.PLP>
-39.9755

> <Gold.PLP.part.hbond>
-2.2444

> <Gold.PLP.part.metal>
0.0000

> <Gold.PLP.part.buried>
-5.0570

> <Gold.PLP.part.nonpolar>
-33.6352

> <Gold.PLP.part.repulsive>
0.2963

> <Gold.PLP.ligand.clash>
0.0000

> <Gold.PLP.ligand.torsion>
0.9103

> <Gold.PLP.Chemscore.Hbond>
2.0000

> <Gold.PLP.Chemscore.CHOScore>
1.0431

> <Gold.PLP.Chemscore.Metal>
0.0000

> <Gold.Chemscore.Hbonds>
donor molecule, donor type, donor heavy atom, donor atom, acceptor molecule, acceptor atom, score
      L1  H     7    28       P1  7948  1.00
      P1  H  7989  7998       L1    11  1.00
      L1  C    19    41       P1  8028  0.13
      L1  C    19    41       P1  8029  0.54

> <Gold.PLP.Chemscore.Internal.Correction>
0.1452

> <Gold.Rescore>
     Score         DG    S(hbond)    S(metal)    S(lipo)     H(rot)  DE(clash)    DE(int)     intcor
     16.87     -17.80       1.90        0.00      98.55       2.18       0.01       0.92       ----

> <Gold.Chemscore.Fitness>
16.8709

> <Gold.Chemscore.DG>
-17.7992

> <Gold.Chemscore.ZeroCoef>
-5.4800

> <Gold.Chemscore.Hbond>
1.9035

> <Gold.Chemscore.Metal>
0.0000

> <Gold.Chemscore.Lipo>
98.5471

> <Gold.Chemscore.Internal_Hbond>
0.0000

> <Gold.Chemscore.DEClash>
0.0075

> <Gold.Chemscore.DEInternal>
0.9208

> <Gold.Chemscore.Rot>
2.1753

> <Gold.Chemscore.Internal.Correction>
   9.000000E+99

> <Gold.Chemscore.Hbonds>
donor molecule, donor type, donor heavy atom, donor atom, acceptor molecule, acceptor atom, score
      L1  H     7    28       P1  7948  0.65
      P1  H  7989  7998       L1    11  0.94

> <Gold.Chemscore.Hbond.Weighted>
-6.3579

> <Gold.Chemscore.Metal.Weighted>
-0.0000

> <Gold.Chemscore.Lipo.Weighted>
-11.5300

> <Gold.Chemscore.Internal_Hbond.Weighted>
0.0000

> <Gold.Chemscore.DEClash.Weighted>
0.0075

> <Gold.Chemscore.DEInternal.Weighted>
0.9208

> <Gold.Chemscore.Rot.Weighted>
5.5687

> <Gold.Chemscore.Internal.Correction.Weighted>
   9.000000E+99

> <Gold.Protein.RotatedTorsions>
[ 6907 6896 6895 6894 ] final -149.34 input  -60.11 | X-H torsion
[ 7974 7965 7964 7962 ] final  141.92 input  175.53 | X-H torsion
[ 8008 7997 7996 7995 ] final   73.83 input   59.86 | X-H torsion
[ 10167 10162 10161 10158 ] final  -94.83 input  -65.29 | X-H torsion
[ 10718 10713 10712 10709 ] final  -22.53 input   66.30 | X-H torsion
[ 10763 10752 10751 10750 ] final  148.58 input  -60.55 | X-H torsion
[ 11005 11000 10999 10996 ] final  174.51 input  -57.11 | X-H torsion

> <Gold.Protein.ActiveResidues>
 VAL166  LYS551  ARG553  GLY616  TRP617  ASP618  TYR619  PRO620  LYS621  CYS622 
 ASP623  PHE694  ASN695  SER759  ASP760  ASP761  ALA762  ILE779  LEU786  VAL792 
 PHE793  MET794  SER795  GLU796  ALA797  LYS798  CYS799  TRP800  GLU811  SER814 

> <Gold.Protein.RotatedAtoms>
  151.1827  133.4715  159.2593 H   0  0  0  0  0  0  0  0  0  0  0  0  # atno 6907 bound_to 6896
  151.1243  135.0096  159.8563 H   0  0  0  0  0  0  0  0  0  0  0  0  # atno 6908 bound_to 6896
  152.5457  134.1736  159.8660 H   0  0  0  0  0  0  0  0  0  0  0  0  # atno 6909 bound_to 6896
  144.9053  139.5366  143.5734 H   0  0  0  0  0  0  0  0  0  0  0  0  # atno 7974 bound_to 7965
  155.7895  140.3479  155.5341 H   0  0  0  0  0  0  0  0  0  0  0  0  # atno 8008 bound_to 7997
  155.8648  140.0977  157.1610 H   0  0  0  0  0  0  0  0  0  0  0  0  # atno 8009 bound_to 7997
  154.4014  140.1351  156.3993 H   0  0  0  0  0  0  0  0  0  0  0  0  # atno 8010 bound_to 7997
  140.3104  143.3108  152.0154 H   0  0  0  0  0  0  0  0  0  0  0  0  # atno 10167 bound_to 10162
  156.5033  130.4593  149.6689 H   0  0  0  0  0  0  0  0  0  0  0  0  # atno 10718 bound_to 10713
  154.0571  135.2877  155.3331 H   0  0  0  0  0  0  0  0  0  0  0  0  # atno 10763 bound_to 10752
  154.6832  135.5255  153.8294 H   0  0  0  0  0  0  0  0  0  0  0  0  # atno 10764 bound_to 10752
  153.0537  135.6587  154.0762 H   0  0  0  0  0  0  0  0  0  0  0  0  # atno 10765 bound_to 10752
  140.3521  134.7186  157.4275 H   0  0  0  0  0  0  0  0  0  0  0  0  # atno 11005 bound_to 11000
  146.3130  139.7816  142.9005 LP  0  0  0  0  0  0  0  0  0  0  0  0  # atno 17320 bound_to 7965
  145.3546  141.0314  143.3319 LP  0  0  0  0  0  0  0  0  0  0  0  0  # atno 17321 bound_to 7965
  139.4895  144.6389  151.6919 LP  0  0  0  0  0  0  0  0  0  0  0  0  # atno 17342 bound_to 10162
  140.5573  144.0327  150.6153 LP  0  0  0  0  0  0  0  0  0  0  0  0  # atno 17343 bound_to 10162
  156.3312  130.7332  151.2262 LP  0  0  0  0  0  0  0  0  0  0  0  0  # atno 17370 bound_to 10713
  157.7460  131.0429  150.4719 LP  0  0  0  0  0  0  0  0  0  0  0  0  # atno 17371 bound_to 10713
  140.0694  134.5883  155.8658 LP  0  0  0  0  0  0  0  0  0  0  0  0  # atno 17394 bound_to 11000
  141.2009  133.6615  156.5921 LP  0  0  0  0  0  0  0  0  0  0  0  0  # atno 17395 bound_to 11000

$$$$
