AV-unprocessed.smi:1869|AV-procd|sdf|7592|dock1
  -GOLD-   22720 9303D 1   1.00000     0.00000
 Structure written by MMmdl.
 39 40  0  0  0  0  0  0  0  0  1 V2000
  145.6703  136.6859  151.6376 C   0  0  0  0  0  0  0  0  0  0  0  0
  146.2418  137.5648  152.5906 O   0  0  0  0  0  0  0  0  0  0  0  0
  146.7135  138.7676  152.0062 C   0  0  0  0  0  0  0  0  0  0  0  0
  147.3786  139.6246  153.0875 C   0  0  0  0  0  0  0  0  0  0  0  0
  148.5360  138.9450  153.5646 O   0  0  0  0  0  0  0  0  0  0  0  0
  149.3331  139.5753  154.4978 C   0  0  0  0  0  0  0  0  0  0  0  0
  150.4694  138.8963  154.9807 C   0  0  0  0  0  0  0  0  0  0  0  0
  151.2911  139.5328  155.9304 C   0  0  0  0  0  0  0  0  0  0  0  0
  150.9530  140.8373  156.3618 C   0  0  0  0  0  0  0  0  0  0  0  0
  151.6897  141.5747  157.3271 N   0  0  0  0  0  0  0  0  0  0  0  0
  151.5768  142.8767  157.6578 C   0  0  0  0  0  0  0  0  0  0  0  0
  150.7611  143.6373  157.1356 O   0  0  0  0  0  0  0  0  0  0  0  0
  152.4298  143.2800  158.6351 N   0  0  0  0  0  0  0  0  0  0  0  0
  153.2140  142.4028  159.5212 C   0  0  0  0  0  0  0  0  0  0  0  0
  152.4735  142.2502  160.8601 C   0  0  0  0  0  0  0  0  0  0  0  0
  152.3242  143.8547  161.7068 S   0  0  0  0  0  0  0  0  0  0  0  0
  151.6653  144.8627  160.3415 C   0  0  0  0  0  0  0  0  0  0  0  0
  152.5043  144.6820  159.0648 C   0  0  0  0  0  0  0  0  0  0  0  0
  149.7848  141.4224  155.8314 C   0  0  0  0  0  0  0  0  0  0  0  0
  148.9934  140.8184  154.9202 N   0  0  0  0  0  0  0  0  0  0  0  0
  145.3289  135.7784  152.1356 H   0  0  0  0  0  0  0  0  0  0  0  0
  146.3982  136.3993  150.8774 H   0  0  0  0  0  0  0  0  0  0  0  0
  144.8108  137.1432  151.1455 H   0  0  0  0  0  0  0  0  0  0  0  0
  147.4449  138.5265  151.2333 H   0  0  0  0  0  0  0  0  0  0  0  0
  145.9008  139.3175  151.5292 H   0  0  0  0  0  0  0  0  0  0  0  0
  147.6305  140.6076  152.6857 H   0  0  0  0  0  0  0  0  0  0  0  0
  146.6781  139.7679  153.9117 H   0  0  0  0  0  0  0  0  0  0  0  0
  150.7052  137.9020  154.6310 H   0  0  0  0  0  0  0  0  0  0  0  0
  152.1500  139.0058  156.3162 H   0  0  0  0  0  0  0  0  0  0  0  0
  152.3325  141.0337  157.8870 H   0  0  0  0  0  0  0  0  0  0  0  0
  153.4117  141.4219  159.0889 H   0  0  0  0  0  0  0  0  0  0  0  0
  154.2014  142.8346  159.6916 H   0  0  0  0  0  0  0  0  0  0  0  0
  151.4774  141.8357  160.7004 H   0  0  0  0  0  0  0  0  0  0  0  0
  153.0068  141.5593  161.5131 H   0  0  0  0  0  0  0  0  0  0  0  0
  150.6281  144.5791  160.1583 H   0  0  0  0  0  0  0  0  0  0  0  0
  151.6605  145.9084  160.6492 H   0  0  0  0  0  0  0  0  0  0  0  0
  153.5411  144.9650  159.2517 H   0  0  0  0  0  0  0  0  0  0  0  0
  152.1549  145.3679  158.2917 H   0  0  0  0  0  0  0  0  0  0  0  0
  149.4768  142.4100  156.1429 H   0  0  0  0  0  0  0  0  0  0  0  0
  1  2  1  0  0  0  0
  1 21  1  0  0  0  0
  1 22  1  0  0  0  0
  1 23  1  0  0  0  0
  2  3  1  0  0  0  0
  3  4  1  0  0  0  0
  3 24  1  0  0  0  0
  3 25  1  0  0  0  0
  4  5  1  0  0  0  0
  4 26  1  0  0  0  0
  4 27  1  0  0  0  0
  5  6  1  0  0  0  0
  6 20  1  0  0  0  0
  6  7  2  0  0  0  0
  7  8  1  0  0  0  0
  7 28  1  0  0  0  0
  8  9  2  0  0  0  0
  8 29  1  0  0  0  0
  9 10  1  0  0  0  0
  9 19  1  0  0  0  0
 10 11  1  0  0  0  0
 10 30  1  0  0  0  0
 11 12  2  0  0  0  0
 11 13  1  0  0  0  0
 13 18  1  0  0  0  0
 13 14  1  0  0  0  0
 14 15  1  0  0  0  0
 14 31  1  0  0  0  0
 14 32  1  0  0  0  0
 15 16  1  0  0  0  0
 15 33  1  0  0  0  0
 15 34  1  0  0  0  0
 16 17  1  0  0  0  0
 17 18  1  0  0  0  0
 17 35  1  0  0  0  0
 17 36  1  0  0  0  0
 18 37  1  0  0  0  0
 18 38  1  0  0  0  0
 19 20  2  0  0  0  0
 19 39  1  0  0  0  0
M  END
> <s_m_source_file>
AV-unprocessed.smi

> <i_m_source_file_index>
1869

> <i_lp_mmshare_version>
43012

> <i_f3d_flags>
0

> <s_epik_input>
W0NIM11PW0NIMl1bQ0gyXU9jMVtjSF1bY0hdYyhbY0hdbjEpW05IXUMoPU8pTjJbQ0gyXVtDSDJdU1tDSDJdW0NIMl0y

> <s_epik_cmdline>
J2VwaWtfcHl0aG9uJywgJy1waCcsICc3LjAnLCAnLXRuJywgJzgnLCAnLW1hJywgJzIwMCcsICctbWV0YWxfYmluZGluZycsICctaW1hZScsICc8aW5maWxlLm1hZT4nLCAnLW9tYWUnLCAnPG91dGZpbGUubWFlPic=

> <r_lp_tautomer_probability>
1

> <r_epik_Ionization_Penalty>
6.51674e-05

> <r_epik_Ionization_Penalty_Charging>
0

> <r_epik_Ionization_Penalty_Neutral>
6.51674e-05

> <r_epik_State_Penalty>
-0

> <r_epik_Charging_Adjusted_Penalty>
0

> <i_epik_Tot_Q>
0

> <i_epik_Tot_abs_Q>
0

> <r_epik_Metal_State_Penalty>
-0

> <b_epik_Metal_Only>
0

> <s_lp_Force_Field>
OPLS_2005

> <r_lp_Energy>
28.6984

> <b_lp_Chiralities_Consistent>
1

> <s_lp_Variant>
AV-unprocessed.smi:1869-1

> <Gold.Version>
5.8.1

> <Gold.Id.Protein>
6NUR|6NUR_protein|mol2

> <Gold.PLP.Fitness>
44.8830

> <Gold.PLP.PLP>
-41.9690

> <Gold.PLP.part.hbond>
0.0000

> <Gold.PLP.part.metal>
0.0000

> <Gold.PLP.part.buried>
-5.0847

> <Gold.PLP.part.nonpolar>
-42.0895

> <Gold.PLP.part.repulsive>
5.4616

> <Gold.PLP.ligand.clash>
0.0160

> <Gold.PLP.ligand.torsion>
0.0957

> <Gold.PLP.Chemscore.Hbond>
0.0000

> <Gold.PLP.Chemscore.CHOScore>
1.0000

> <Gold.PLP.Chemscore.Metal>
0.0000

> <Gold.Chemscore.Hbonds>
donor molecule, donor type, donor heavy atom, donor atom, acceptor molecule, acceptor atom, score
      L1  C    19    39       P1  8028  1.00

> <Gold.PLP.Chemscore.Internal.Correction>
0.1215

> <Gold.Rescore>
     Score         DG    S(hbond)    S(metal)    S(lipo)     H(rot)  DE(clash)    DE(int)     intcor
     11.85     -13.68       0.00        0.00     105.23       1.61       0.08       1.74       ----

> <Gold.Chemscore.Fitness>
11.8545

> <Gold.Chemscore.DG>
-13.6755

> <Gold.Chemscore.ZeroCoef>
-5.4800

> <Gold.Chemscore.Hbond>
0.0000

> <Gold.Chemscore.Metal>
0.0000

> <Gold.Chemscore.Lipo>
105.2269

> <Gold.Chemscore.Internal_Hbond>
0.0000

> <Gold.Chemscore.DEClash>
0.0787

> <Gold.Chemscore.DEInternal>
1.7422

> <Gold.Chemscore.Rot>
1.6078

> <Gold.Chemscore.Internal.Correction>
   9.000000E+99

> <Gold.Chemscore.Hbond.Weighted>
-0.0000

> <Gold.Chemscore.Metal.Weighted>
-0.0000

> <Gold.Chemscore.Lipo.Weighted>
-12.3115

> <Gold.Chemscore.Internal_Hbond.Weighted>
0.0000

> <Gold.Chemscore.DEClash.Weighted>
0.0787

> <Gold.Chemscore.DEInternal.Weighted>
1.7422

> <Gold.Chemscore.Rot.Weighted>
4.1161

> <Gold.Chemscore.Internal.Correction.Weighted>
   9.000000E+99

> <Gold.Protein.RotatedTorsions>
[ 6907 6896 6895 6894 ] final  161.76 input  -60.11 | X-H torsion
[ 7974 7965 7964 7962 ] final   56.74 input  175.53 | X-H torsion
[ 8008 7997 7996 7995 ] final   53.18 input   59.86 | X-H torsion
[ 10167 10162 10161 10158 ] final   79.90 input  -65.29 | X-H torsion
[ 10718 10713 10712 10709 ] final  -37.34 input   66.30 | X-H torsion
[ 10763 10752 10751 10750 ] final  -84.06 input  -60.55 | X-H torsion
[ 11005 11000 10999 10996 ] final -167.59 input  -57.11 | X-H torsion

> <Gold.Protein.ActiveResidues>
 VAL166  LYS551  ARG553  GLY616  TRP617  ASP618  TYR619  PRO620  LYS621  CYS622 
 ASP623  PHE694  ASN695  SER759  ASP760  ASP761  ALA762  ILE779  LEU786  VAL792 
 PHE793  MET794  SER795  GLU796  ALA797  LYS798  CYS799  TRP800  GLU811  SER814 

> <Gold.Protein.RotatedAtoms>
  151.9508  133.3665  159.3998 H   0  0  0  0  0  0  0  0  0  0  0  0  # atno 6907 bound_to 6896
  150.6981  134.4342  159.5272 H   0  0  0  0  0  0  0  0  0  0  0  0  # atno 6908 bound_to 6896
  152.2015  134.8583  160.0558 H   0  0  0  0  0  0  0  0  0  0  0  0  # atno 6909 bound_to 6896
  145.9365  139.3852  143.0389 H   0  0  0  0  0  0  0  0  0  0  0  0  # atno 7974 bound_to 7965
  155.4640  140.3463  155.4316 H   0  0  0  0  0  0  0  0  0  0  0  0  # atno 8008 bound_to 7997
  156.1143  140.1469  156.9324 H   0  0  0  0  0  0  0  0  0  0  0  0  # atno 8009 bound_to 7997
  154.4778  140.0879  156.7283 H   0  0  0  0  0  0  0  0  0  0  0  0  # atno 8010 bound_to 7997
  139.9554  144.5997  150.8121 H   0  0  0  0  0  0  0  0  0  0  0  0  # atno 10167 bound_to 10162
  156.3164  130.4259  149.8001 H   0  0  0  0  0  0  0  0  0  0  0  0  # atno 10718 bound_to 10713
  154.5951  135.5534  153.7317 H   0  0  0  0  0  0  0  0  0  0  0  0  # atno 10763 bound_to 10752
  153.0132  135.6352  154.1795 H   0  0  0  0  0  0  0  0  0  0  0  0  # atno 10764 bound_to 10752
  154.1735  135.2891  155.3054 H   0  0  0  0  0  0  0  0  0  0  0  0  # atno 10765 bound_to 10752
  140.5515  134.5423  157.5123 H   0  0  0  0  0  0  0  0  0  0  0  0  # atno 11005 bound_to 11000
  145.8356  140.9607  143.0826 LP  0  0  0  0  0  0  0  0  0  0  0  0  # atno 17320 bound_to 7965
  144.6772  140.0219  143.7483 LP  0  0  0  0  0  0  0  0  0  0  0  0  # atno 17321 bound_to 7965
  140.7570  143.3077  151.2922 LP  0  0  0  0  0  0  0  0  0  0  0  0  # atno 17342 bound_to 10162
  139.6595  144.0214  152.2683 LP  0  0  0  0  0  0  0  0  0  0  0  0  # atno 17343 bound_to 10162
  156.5326  130.8264  151.3242 LP  0  0  0  0  0  0  0  0  0  0  0  0  # atno 17370 bound_to 10713
  157.7402  130.9846  150.2365 LP  0  0  0  0  0  0  0  0  0  0  0  0  # atno 17371 bound_to 10713
  139.9453  134.7714  156.0578 LP  0  0  0  0  0  0  0  0  0  0  0  0  # atno 17394 bound_to 11000
  141.1168  133.6625  156.3115 LP  0  0  0  0  0  0  0  0  0  0  0  0  # atno 17395 bound_to 11000

$$$$
