AV-unprocessed.smi:1983|AV-procd|sdf|8034|dock1
  -GOLD-   2272010223D 1   1.00000     0.00000
 Structure written by MMmdl.
 50 51  0  0  0  0  0  0  0  0  2 V2000
  146.1961  134.0331  152.2344 C   0  0  0  0  0  0  0  0  0  0  0  0
  145.5207  135.4147  152.2806 C   0  0  2  0  0  0  0  0  0  0  0  0
  144.6444  135.6788  151.0438 C   0  0  0  0  0  0  0  0  0  0  0  0
  145.4187  136.2253  149.9975 O   0  0  0  0  0  0  0  0  0  0  0  0
  146.5272  136.4675  152.3888 N   0  0  0  0  0  0  0  0  0  0  0  0
  146.2721  137.7602  152.6350 C   0  0  0  0  0  0  0  0  0  0  0  0
  145.1458  138.2195  152.8256 O   0  0  0  0  0  0  0  0  0  0  0  0
  147.3921  138.4965  152.6487 N   0  0  0  0  0  0  0  0  0  0  0  0
  147.4313  139.9377  152.8683 C   0  0  0  0  0  0  0  0  0  0  0  0
  148.2836  140.3385  154.0602 C   0  0  0  0  0  0  0  0  0  0  0  0
  149.0307  139.3748  154.7719 C   0  0  0  0  0  0  0  0  0  0  0  0
  149.8142  139.7788  155.8725 C   0  0  0  0  0  0  0  0  0  0  0  0
  149.8363  141.1437  156.2445 C   0  0  0  0  0  0  0  0  0  0  0  0
  150.5791  141.6432  157.3228 N   0  0  0  0  0  0  0  0  0  0  0  0
  151.4374  140.6354  157.9295 C   0  0  0  0  0  0  0  0  0  0  0  0
  152.1119  141.2035  159.1934 C   0  0  1  0  0  0  0  0  0  0  0  0
  153.1183  140.2206  159.8011 C   0  0  0  0  0  0  0  0  0  0  0  0
  152.8058  142.4027  158.8545 O   0  0  0  0  0  0  0  0  0  0  0  0
  151.9410  143.4128  158.3393 C   0  0  1  0  0  0  0  0  0  0  0  0
  152.7678  144.6789  158.0922 C   0  0  0  0  0  0  0  0  0  0  0  0
  151.2818  142.8901  157.0498 C   0  0  0  0  0  0  0  0  0  0  0  0
  149.0963  142.0302  155.5418 N   0  3  0  0  0  0  0  0  0  0  0  0
  148.3367  141.6843  154.4799 C   0  0  0  0  0  0  0  0  0  0  0  0
  145.4551  133.2355  152.1747 H   0  0  0  0  0  0  0  0  0  0  0  0
  146.7932  133.8541  153.1292 H   0  0  0  0  0  0  0  0  0  0  0  0
  146.8544  133.9405  151.3702 H   0  0  0  0  0  0  0  0  0  0  0  0
  144.8794  135.4624  153.1632 H   0  0  0  0  0  0  0  0  0  0  0  0
  144.2077  134.7477  150.6802 H   0  0  0  0  0  0  0  0  0  0  0  0
  143.8189  136.3508  151.2813 H   0  0  0  0  0  0  0  0  0  0  0  0
  145.3457  135.6614  149.2427 H   0  0  0  0  0  0  0  0  0  0  0  0
  147.4882  136.1906  152.2503 H   0  0  0  0  0  0  0  0  0  0  0  0
  148.2729  138.0335  152.4770 H   0  0  0  0  0  0  0  0  0  0  0  0
  147.8412  140.4087  151.9745 H   0  0  0  0  0  0  0  0  0  0  0  0
  146.4163  140.3233  152.9811 H   0  0  0  0  0  0  0  0  0  0  0  0
  149.0042  138.3356  154.4779 H   0  0  0  0  0  0  0  0  0  0  0  0
  150.3828  139.0437  156.4229 H   0  0  0  0  0  0  0  0  0  0  0  0
  150.8486  139.7529  158.1835 H   0  0  0  0  0  0  0  0  0  0  0  0
  152.1940  140.3226  157.2083 H   0  0  0  0  0  0  0  0  0  0  0  0
  151.3527  141.4317  159.9437 H   0  0  0  0  0  0  0  0  0  0  0  0
  152.6322  139.2884  160.0898 H   0  0  0  0  0  0  0  0  0  0  0  0
  153.5847  140.6411  160.6923 H   0  0  0  0  0  0  0  0  0  0  0  0
  153.9116  139.9797  159.0930 H   0  0  0  0  0  0  0  0  0  0  0  0
  151.1730  143.6395  159.0811 H   0  0  0  0  0  0  0  0  0  0  0  0
  152.1443  145.4854  157.7049 H   0  0  0  0  0  0  0  0  0  0  0  0
  153.5652  144.4958  157.3714 H   0  0  0  0  0  0  0  0  0  0  0  0
  153.2280  145.0300  159.0162 H   0  0  0  0  0  0  0  0  0  0  0  0
  152.0440  142.7306  156.2861 H   0  0  0  0  0  0  0  0  0  0  0  0
  150.5796  143.6282  156.6601 H   0  0  0  0  0  0  0  0  0  0  0  0
  147.7946  142.4894  154.0054 H   0  0  0  0  0  0  0  0  0  0  0  0
  149.1159  143.0106  155.8243 H   0  0  0  0  0  0  0  0  0  0  0  0
  1  2  1  0  0  0  0
  1 24  1  0  0  0  0
  1 25  1  0  0  0  0
  1 26  1  0  0  0  0
  2  3  1  0  0  0  0
  2  5  1  0  0  0  0
  2 27  1  0  0  0  0
  3  4  1  0  0  0  0
  3 28  1  0  0  0  0
  3 29  1  0  0  0  0
  4 30  1  0  0  0  0
  5  6  1  0  0  0  0
  5 31  1  0  0  0  0
  6  7  2  0  0  0  0
  6  8  1  0  0  0  0
  8  9  1  0  0  0  0
  8 32  1  0  0  0  0
  9 10  1  0  0  0  0
  9 33  1  0  0  0  0
  9 34  1  0  0  0  0
 10 23  1  0  0  0  0
 10 11  2  0  0  0  0
 11 12  1  0  0  0  0
 11 35  1  0  0  0  0
 12 13  2  0  0  0  0
 12 36  1  0  0  0  0
 13 14  1  0  0  0  0
 13 22  1  0  0  0  0
 14 21  1  0  0  0  0
 14 15  1  0  0  0  0
 15 16  1  0  0  0  0
 15 37  1  0  0  0  0
 15 38  1  0  0  0  0
 16 17  1  0  0  0  0
 16 18  1  0  0  0  0
 16 39  1  0  0  0  0
 17 40  1  0  0  0  0
 17 41  1  0  0  0  0
 17 42  1  0  0  0  0
 18 19  1  0  0  0  0
 19 20  1  0  0  0  0
 19 21  1  0  0  0  0
 19 43  1  0  0  0  0
 20 44  1  0  0  0  0
 20 45  1  0  0  0  0
 20 46  1  0  0  0  0
 21 47  1  0  0  0  0
 21 48  1  0  0  0  0
 22 23  2  0  0  0  0
 22 50  1  0  0  0  0
 23 49  1  0  0  0  0
M  CHG  1  22   1
M  END
> <s_m_source_file>
AV-unprocessed.smi

> <i_m_source_file_index>
1983

> <i_lp_mmshare_version>
43012

> <i_f3d_flags>
0

> <s_epik_input>
W09IXVtDSDJdW0NAQEhdKFtDSDNdKVtOSF1DKD1PKVtOSF1bQ0gyXWMxW2NIXVtjSF1jKG5bY0hdMSlOMltDSDJdW0NAQEhdKFtDSDNdKU9bQ0BASF0oW0NIM10pW0NIMl0y

> <s_epik_cmdline>
J2VwaWtfcHl0aG9uJywgJy1waCcsICc3LjAnLCAnLXRuJywgJzgnLCAnLW1hJywgJzIwMCcsICctbWV0YWxfYmluZGluZycsICctaW1hZScsICc8aW5maWxlLm1hZT4nLCAnLW9tYWUnLCAnPG91dGZpbGUubWFlPic=

> <r_lp_tautomer_probability>
0.999994

> <r_epik_Ionization_Penalty>
2.55677

> <r_epik_Ionization_Penalty_Charging>
2.55673

> <r_epik_Ionization_Penalty_Neutral>
3.71772e-05

> <r_epik_State_Penalty>
2.72571

> <r_epik_Charging_Adjusted_Penalty>
5.28244

> <i_epik_Tot_Q>
1

> <i_epik_Tot_abs_Q>
1

> <r_epik_Metal_State_Penalty>
2.73364

> <b_epik_Metal_Only>
0

> <s_lp_Force_Field>
OPLS_2005

> <r_lp_Energy>
19.4893

> <b_lp_Chiralities_Consistent>
1

> <s_lp_Variant>
AV-unprocessed.smi:1983-7

> <Gold.Version>
5.8.1

> <Gold.Id.Protein>
6NUR|6NUR_protein|mol2

> <Gold.PLP.Fitness>
52.8570

> <Gold.PLP.PLP>
-39.4699

> <Gold.PLP.part.hbond>
-5.6767

> <Gold.PLP.part.metal>
0.0000

> <Gold.PLP.part.buried>
-4.8282

> <Gold.PLP.part.nonpolar>
-32.9569

> <Gold.PLP.part.repulsive>
3.1717

> <Gold.PLP.ligand.clash>
0.0000

> <Gold.PLP.ligand.torsion>
0.6320

> <Gold.PLP.Chemscore.Hbond>
4.8080

> <Gold.PLP.Chemscore.CHOScore>
0.0000

> <Gold.PLP.Chemscore.Metal>
0.0000

> <Gold.Chemscore.Hbonds>
donor molecule, donor type, donor heavy atom, donor atom, acceptor molecule, acceptor atom, score
      L1  H     4    30       P1  7921  1.00
      L1  H     5    31       P1  7948  0.93
      L1  H     8    32       P1  7948  0.80
      L1  H    22    50       P1  8028  2.00

> <Gold.PLP.Chemscore.Internal.Correction>
0.2271

> <Gold.Rescore>
     Score         DG    S(hbond)    S(metal)    S(lipo)     H(rot)  DE(clash)    DE(int)     intcor
     19.76     -22.83       3.71        0.00     100.55       2.66       2.22       0.84       ----

> <Gold.Chemscore.Fitness>
19.7627

> <Gold.Chemscore.DG>
-22.8263

> <Gold.Chemscore.ZeroCoef>
-5.4800

> <Gold.Chemscore.Hbond>
3.7129

> <Gold.Chemscore.Metal>
0.0000

> <Gold.Chemscore.Lipo>
100.5513

> <Gold.Chemscore.Internal_Hbond>
0.0000

> <Gold.Chemscore.DEClash>
2.2214

> <Gold.Chemscore.DEInternal>
0.8422

> <Gold.Chemscore.Rot>
2.6637

> <Gold.Chemscore.Internal.Correction>
   9.000000E+99

> <Gold.Chemscore.Hbonds>
donor molecule, donor type, donor heavy atom, donor atom, acceptor molecule, acceptor atom, score
      L1  H     4    30       P1  7921  0.93
      L1  H     5    31       P1  7948  0.88
      L1  H     8    32       P1  7948  0.76
      L1  H    22    50       P1  8028  0.99

> <Gold.Chemscore.Hbond.Weighted>
-12.4010

> <Gold.Chemscore.Metal.Weighted>
-0.0000

> <Gold.Chemscore.Lipo.Weighted>
-11.7645

> <Gold.Chemscore.Internal_Hbond.Weighted>
0.0000

> <Gold.Chemscore.DEClash.Weighted>
2.2214

> <Gold.Chemscore.DEInternal.Weighted>
0.8422

> <Gold.Chemscore.Rot.Weighted>
6.8191

> <Gold.Chemscore.Internal.Correction.Weighted>
   9.000000E+99

> <Gold.Protein.RotatedTorsions>
[ 6907 6896 6895 6894 ] final   16.57 input  -60.11 | X-H torsion
[ 7974 7965 7964 7962 ] final -118.05 input  175.53 | X-H torsion
[ 8008 7997 7996 7995 ] final    3.62 input   59.86 | X-H torsion
[ 10167 10162 10161 10158 ] final  -50.85 input  -65.29 | X-H torsion
[ 10718 10713 10712 10709 ] final  -82.43 input   66.30 | X-H torsion
[ 10763 10752 10751 10750 ] final  -75.39 input  -60.55 | X-H torsion
[ 11005 11000 10999 10996 ] final  161.60 input  -57.11 | X-H torsion

> <Gold.Protein.ActiveResidues>
 VAL166  LYS551  ARG553  GLY616  TRP617  ASP618  TYR619  PRO620  LYS621  CYS622 
 ASP623  PHE694  ASN695  SER759  ASP760  ASP761  ALA762  ILE779  LEU786  VAL792 
 PHE793  MET794  SER795  GLU796  ALA797  LYS798  CYS799  TRP800  GLU811  SER814 

> <Gold.Protein.RotatedAtoms>
  151.8360  135.0606  160.0442 H   0  0  0  0  0  0  0  0  0  0  0  0  # atno 6907 bound_to 6896
  152.2844  133.5497  159.5526 H   0  0  0  0  0  0  0  0  0  0  0  0  # atno 6908 bound_to 6896
  150.7203  134.0434  159.3815 H   0  0  0  0  0  0  0  0  0  0  0  0  # atno 6909 bound_to 6896
  145.0783  140.8407  143.4054 H   0  0  0  0  0  0  0  0  0  0  0  0  # atno 7974 bound_to 7965
  154.7059  140.2682  155.6675 H   0  0  0  0  0  0  0  0  0  0  0  0  # atno 8008 bound_to 7997
  156.2780  140.2763  156.1609 H   0  0  0  0  0  0  0  0  0  0  0  0  # atno 8009 bound_to 7997
  155.0701  140.0372  157.2595 H   0  0  0  0  0  0  0  0  0  0  0  0  # atno 8010 bound_to 7997
  140.6617  143.2642  151.4419 H   0  0  0  0  0  0  0  0  0  0  0  0  # atno 10167 bound_to 10162
  156.0033  130.4634  150.4104 H   0  0  0  0  0  0  0  0  0  0  0  0  # atno 10718 bound_to 10713
  154.4859  135.5833  153.6423 H   0  0  0  0  0  0  0  0  0  0  0  0  # atno 10763 bound_to 10752
  152.9854  135.6101  154.3187 H   0  0  0  0  0  0  0  0  0  0  0  0  # atno 10764 bound_to 10752
  154.3082  135.2845  155.2558 H   0  0  0  0  0  0  0  0  0  0  0  0  # atno 10765 bound_to 10752
  140.2174  134.8221  157.3185 H   0  0  0  0  0  0  0  0  0  0  0  0  # atno 11005 bound_to 11000
  145.1209  139.2694  143.5589 LP  0  0  0  0  0  0  0  0  0  0  0  0  # atno 17320 bound_to 7965
  146.3530  140.0833  142.8616 LP  0  0  0  0  0  0  0  0  0  0  0  0  # atno 17321 bound_to 7965
  139.5853  144.1618  152.2021 LP  0  0  0  0  0  0  0  0  0  0  0  0  # atno 17342 bound_to 10162
  140.0956  144.5584  150.7024 LP  0  0  0  0  0  0  0  0  0  0  0  0  # atno 17343 bound_to 10162
  157.2167  131.0473  151.2569 LP  0  0  0  0  0  0  0  0  0  0  0  0  # atno 17370 bound_to 10713
  157.3838  130.7245  149.6649 LP  0  0  0  0  0  0  0  0  0  0  0  0  # atno 17371 bound_to 10713
  140.1885  134.4401  155.7729 LP  0  0  0  0  0  0  0  0  0  0  0  0  # atno 17394 bound_to 11000
  141.2224  133.7016  156.7988 LP  0  0  0  0  0  0  0  0  0  0  0  0  # atno 17395 bound_to 11000

$$$$
