AV-unprocessed.smi:2607|AV-procd|sdf|10201|dock2
  -GOLD-   2272014213D 1   1.00000     0.00000
 Structure written by MMmdl.
 21 22  0  0  0  0  0  0  0  0  2 V2000
  150.0104  139.7275  157.9864 C   0  0  0  0  0  0  0  0  0  0  0  0
  150.6483  140.7557  157.0303 C   0  0  2  0  0  0  0  0  0  0  0  0
  151.4115  141.8514  157.7956 C   0  0  0  0  0  0  0  0  0  0  0  0
  151.1084  143.2305  157.6585 C   0  0  0  0  0  0  0  0  0  0  0  0
  151.7854  144.1867  158.3326 N   0  0  0  0  0  0  0  0  0  0  0  0
  152.7741  143.7666  159.1507 C   0  0  0  0  0  0  0  0  0  0  0  0
  153.0827  142.3989  159.2974 C   0  0  0  0  0  0  0  0  0  0  0  0
  152.4046  141.4433  158.6260 N   0  0  0  0  0  0  0  0  0  0  0  0
  149.6180  141.2867  156.1577 N   0  0  0  0  0  0  0  0  0  0  0  0
  149.8755  141.0328  154.8766 C   0  0  0  0  0  0  0  0  0  0  0  0
  149.1325  141.4230  153.9788 O   0  0  0  0  0  0  0  0  0  0  0  0
  151.0122  140.3205  154.7649 N   0  5  0  0  0  0  0  0  0  0  0  0
  151.5472  140.0768  155.9816 C   0  0  0  0  0  0  0  0  0  0  0  0
  152.5479  139.4270  156.2836 O   0  0  0  0  0  0  0  0  0  0  0  0
  150.7590  139.2488  158.6186 H   0  0  0  0  0  0  0  0  0  0  0  0
  149.4936  138.9373  157.4399 H   0  0  0  0  0  0  0  0  0  0  0  0
  149.2818  140.2035  158.6432 H   0  0  0  0  0  0  0  0  0  0  0  0
  150.3225  143.5849  157.0086 H   0  0  0  0  0  0  0  0  0  0  0  0
  153.3216  144.5240  159.6916 H   0  0  0  0  0  0  0  0  0  0  0  0
  153.8739  142.0713  159.9553 H   0  0  0  0  0  0  0  0  0  0  0  0
  148.8199  141.8053  156.4929 H   0  0  0  0  0  0  0  0  0  0  0  0
  1  2  1  0  0  0  0
  1 15  1  0  0  0  0
  1 16  1  0  0  0  0
  1 17  1  0  0  0  0
  2 13  1  0  0  0  0
  2  3  1  0  0  0  0
  2  9  1  0  0  0  0
  3  8  1  0  0  0  0
  3  4  2  0  0  0  0
  4  5  1  0  0  0  0
  4 18  1  0  0  0  0
  5  6  2  0  0  0  0
  6  7  1  0  0  0  0
  6 19  1  0  0  0  0
  7  8  2  0  0  0  0
  7 20  1  0  0  0  0
  9 10  1  0  0  0  0
  9 21  1  0  0  0  0
 10 11  2  0  0  0  0
 10 12  1  0  0  0  0
 12 13  1  0  0  0  0
 13 14  2  0  0  0  0
M  CHG  1  12  -1
M  END
> <s_m_source_file>
AV-unprocessed.smi

> <i_m_source_file_index>
2607

> <i_lp_mmshare_version>
43012

> <i_f3d_flags>
0

> <s_epik_input>
Tz1DMVtOSF1DKD1PKVtOSF1bQ0BAXTEoW0NIM10pYzJbY0hdbltjSF1bY0hdbjI=

> <s_epik_cmdline>
J2VwaWtfcHl0aG9uJywgJy1waCcsICc3LjAnLCAnLXRuJywgJzgnLCAnLW1hJywgJzIwMCcsICctbWV0YWxfYmluZGluZycsICctaW1hZScsICc8aW5maWxlLm1hZT4nLCAnLW9tYWUnLCAnPG91dGZpbGUubWFlPic=

> <r_lp_tautomer_probability>
1

> <r_epik_Ionization_Penalty>
1.72482

> <r_epik_Ionization_Penalty_Charging>
1.72482

> <r_epik_Ionization_Penalty_Neutral>
2.42073e-06

> <r_epik_State_Penalty>
1.83265

> <r_epik_Charging_Adjusted_Penalty>
3.55747

> <i_epik_Tot_Q>
-1

> <i_epik_Tot_abs_Q>
1

> <r_epik_Metal_State_Penalty>
0.535818

> <b_epik_Metal_Only>
0

> <s_lp_Force_Field>
OPLS_2005

> <r_lp_Energy>
15.5794

> <b_lp_Chiralities_Consistent>
1

> <s_lp_Variant>
AV-unprocessed.smi:2607-4

> <Gold.Version>
5.8.1

> <Gold.Id.Protein>
6NUR|6NUR_protein|mol2

> <Gold.PLP.Fitness>
37.0337

> <Gold.PLP.PLP>
-25.8900

> <Gold.PLP.part.hbond>
-3.7674

> <Gold.PLP.part.metal>
0.0000

> <Gold.PLP.part.buried>
-3.6616

> <Gold.PLP.part.nonpolar>
-19.3043

> <Gold.PLP.part.repulsive>
0.4047

> <Gold.PLP.ligand.clash>
0.0000

> <Gold.PLP.ligand.torsion>
0.0736

> <Gold.PLP.Chemscore.Hbond>
2.7360

> <Gold.PLP.Chemscore.CHOScore>
1.0000

> <Gold.PLP.Chemscore.Metal>
0.0000

> <Gold.Chemscore.Hbonds>
donor molecule, donor type, donor heavy atom, donor atom, acceptor molecule, acceptor atom, score
      P1  H  7989  7998       L1    12  0.96
      P1  H  7997  8009       L1    14  1.00
      P1  H  8011  8017       L1    11  0.73
      L1  C     4    18       P1  8028  1.00

> <Gold.PLP.Chemscore.Internal.Correction>
0.0829

> <Gold.Rescore>
     Score         DG    S(hbond)    S(metal)    S(lipo)     H(rot)  DE(clash)    DE(int)     intcor
     15.53     -15.66       2.19        0.00      46.50       1.00       0.01       0.13       ----

> <Gold.Chemscore.Fitness>
15.5278

> <Gold.Chemscore.DG>
-15.6615

> <Gold.Chemscore.ZeroCoef>
-5.4800

> <Gold.Chemscore.Hbond>
2.1860

> <Gold.Chemscore.Metal>
0.0000

> <Gold.Chemscore.Lipo>
46.4987

> <Gold.Chemscore.Internal_Hbond>
0.0000

> <Gold.Chemscore.DEClash>
0.0060

> <Gold.Chemscore.DEInternal>
0.1278

> <Gold.Chemscore.Rot>
1.0000

> <Gold.Chemscore.Internal.Correction>
   9.000000E+99

> <Gold.Chemscore.Hbonds>
donor molecule, donor type, donor heavy atom, donor atom, acceptor molecule, acceptor atom, score
      P1  H  7989  7998       L1    12  0.36
      P1  H  7997  8009       L1    14  0.99
      P1  H  8011  8017       L1    11  0.67

> <Gold.Chemscore.Hbond.Weighted>
-7.3012

> <Gold.Chemscore.Metal.Weighted>
-0.0000

> <Gold.Chemscore.Lipo.Weighted>
-5.4403

> <Gold.Chemscore.Internal_Hbond.Weighted>
0.0000

> <Gold.Chemscore.DEClash.Weighted>
0.0060

> <Gold.Chemscore.DEInternal.Weighted>
0.1278

> <Gold.Chemscore.Rot.Weighted>
2.5600

> <Gold.Chemscore.Internal.Correction.Weighted>
   9.000000E+99

> <Gold.Protein.RotatedTorsions>
[ 6907 6896 6895 6894 ] final -116.87 input  -60.11 | X-H torsion
[ 7974 7965 7964 7962 ] final  159.57 input  175.53 | X-H torsion
[ 8008 7997 7996 7995 ] final -162.59 input   59.86 | X-H torsion
[ 10167 10162 10161 10158 ] final  -72.59 input  -65.29 | X-H torsion
[ 10718 10713 10712 10709 ] final   96.76 input   66.30 | X-H torsion
[ 10763 10752 10751 10750 ] final  113.40 input  -60.55 | X-H torsion
[ 11005 11000 10999 10996 ] final  -44.50 input  -57.11 | X-H torsion

> <Gold.Protein.ActiveResidues>
 VAL166  LYS551  ARG553  GLY616  TRP617  ASP618  TYR619  PRO620  LYS621  CYS622 
 ASP623  PHE694  ASN695  SER759  ASP760  ASP761  ALA762  ILE779  LEU786  VAL792 
 PHE793  MET794  SER795  GLU796  ALA797  LYS798  CYS799  TRP800  GLU811  SER814 

> <Gold.Protein.RotatedAtoms>
  150.8090  133.8456  159.3191 H   0  0  0  0  0  0  0  0  0  0  0  0  # atno 6907 bound_to 6896
  151.6247  135.1027  160.0118 H   0  0  0  0  0  0  0  0  0  0  0  0  # atno 6908 bound_to 6896
  152.4182  133.7032  159.6493 H   0  0  0  0  0  0  0  0  0  0  0  0  # atno 6909 bound_to 6896
  144.7783  139.7635  143.6270 H   0  0  0  0  0  0  0  0  0  0  0  0  # atno 7974 bound_to 7965
  155.8090  140.0903  157.1915 H   0  0  0  0  0  0  0  0  0  0  0  0  # atno 8008 bound_to 7997
  154.3980  140.1458  156.3423 H   0  0  0  0  0  0  0  0  0  0  0  0  # atno 8009 bound_to 7997
  155.8385  140.3440  155.5619 H   0  0  0  0  0  0  0  0  0  0  0  0  # atno 8010 bound_to 7997
  140.5179  143.2335  151.7480 H   0  0  0  0  0  0  0  0  0  0  0  0  # atno 10167 bound_to 10162
  157.6922  131.0588  150.4540 H   0  0  0  0  0  0  0  0  0  0  0  0  # atno 10718 bound_to 10713
  153.4920  135.3656  155.2496 H   0  0  0  0  0  0  0  0  0  0  0  0  # atno 10763 bound_to 10752
  154.8751  135.3979  154.3578 H   0  0  0  0  0  0  0  0  0  0  0  0  # atno 10764 bound_to 10752
  153.4199  135.7080  153.6367 H   0  0  0  0  0  0  0  0  0  0  0  0  # atno 10765 bound_to 10752
  141.0454  133.6763  156.2881 H   0  0  0  0  0  0  0  0  0  0  0  0  # atno 11005 bound_to 11000
  146.1976  139.5252  142.9764 LP  0  0  0  0  0  0  0  0  0  0  0  0  # atno 17320 bound_to 7965
  145.6122  141.0337  143.1960 LP  0  0  0  0  0  0  0  0  0  0  0  0  # atno 17321 bound_to 7965
  139.4915  144.4296  151.9887 LP  0  0  0  0  0  0  0  0  0  0  0  0  # atno 17342 bound_to 10162
  140.3392  144.3224  150.5971 LP  0  0  0  0  0  0  0  0  0  0  0  0  # atno 17343 bound_to 10162
  156.4889  130.4091  149.6418 LP  0  0  0  0  0  0  0  0  0  0  0  0  # atno 17370 bound_to 10713
  156.3436  130.7395  151.2344 LP  0  0  0  0  0  0  0  0  0  0  0  0  # atno 17371 bound_to 10713
  140.6156  134.5414  157.5540 LP  0  0  0  0  0  0  0  0  0  0  0  0  # atno 17394 bound_to 11000
  139.9308  134.7968  156.0937 LP  0  0  0  0  0  0  0  0  0  0  0  0  # atno 17395 bound_to 11000

$$$$
