AV-unprocessed.smi:3219|AV-procd|sdf|12295|dock6
  -GOLD-   2272018133D 1   1.00000     0.00000
 Structure written by MMmdl.
 41 42  0  0  0  0  0  0  0  0  2 V2000
  147.5642  141.9513  154.2256 C   0  0  0  0  0  0  0  0  0  0  0  0
  148.3322  140.6717  154.3130 C   0  0  0  0  0  0  0  0  0  0  0  0
  148.1778  139.4847  153.6469 C   0  0  0  0  0  0  0  0  0  0  0  0
  147.1638  139.1018  152.6002 C   0  0  0  0  0  0  0  0  0  0  0  0
  146.2257  137.9853  153.0827 C   0  0  0  0  0  0  0  0  0  0  0  0
  146.1702  136.8688  152.1181 N   0  3  0  0  0  0  0  0  0  0  0  0
  145.3806  135.7101  152.5790 C   0  0  0  0  0  0  0  0  0  0  0  0
  145.1333  134.7063  151.4383 C   0  0  2  0  0  0  0  0  0  0  0  0
  143.7757  133.9796  151.5915 C   0  0  0  0  0  0  0  0  0  0  0  0
  143.6373  132.7914  150.6563 C   0  0  0  0  0  0  0  0  0  0  0  0
  144.6735  132.2371  150.0055 C   0  0  0  0  0  0  0  0  0  0  0  0
  146.1010  132.7329  150.1374 C   0  0  0  0  0  0  0  0  0  0  0  0
  146.2795  133.6811  151.3378 C   0  0  0  0  0  0  0  0  0  0  0  0
  149.2162  138.6658  154.1735 C   0  0  0  0  0  0  0  0  0  0  0  0
  149.9513  139.2869  155.0779 N   0  0  0  0  0  0  0  0  0  0  0  0
  149.4076  140.5178  155.1679 N   0  0  0  0  0  0  0  0  0  0  0  0
  149.9757  141.4798  156.0924 C   0  0  0  0  0  0  0  0  0  0  0  0
  146.8262  141.9185  153.4246 H   0  0  0  0  0  0  0  0  0  0  0  0
  148.2298  142.7920  154.0289 H   0  0  0  0  0  0  0  0  0  0  0  0
  147.0363  142.1491  155.1586 H   0  0  0  0  0  0  0  0  0  0  0  0
  146.5610  139.9687  152.3276 H   0  0  0  0  0  0  0  0  0  0  0  0
  147.6518  138.7903  151.6763 H   0  0  0  0  0  0  0  0  0  0  0  0
  146.5578  137.6121  154.0525 H   0  0  0  0  0  0  0  0  0  0  0  0
  145.2205  138.3856  153.2205 H   0  0  0  0  0  0  0  0  0  0  0  0
  145.7679  137.2085  151.2564 H   0  0  0  0  0  0  0  0  0  0  0  0
  145.9256  135.2235  153.3892 H   0  0  0  0  0  0  0  0  0  0  0  0
  144.4321  136.0538  152.9940 H   0  0  0  0  0  0  0  0  0  0  0  0
  145.1177  135.2623  150.4992 H   0  0  0  0  0  0  0  0  0  0  0  0
  143.6487  133.6143  152.6113 H   0  0  0  0  0  0  0  0  0  0  0  0
  142.9558  134.6721  151.3981 H   0  0  0  0  0  0  0  0  0  0  0  0
  142.6456  132.3807  150.5338 H   0  0  0  0  0  0  0  0  0  0  0  0
  144.5070  131.4006  149.3424 H   0  0  0  0  0  0  0  0  0  0  0  0
  146.7708  131.8784  150.2371 H   0  0  0  0  0  0  0  0  0  0  0  0
  146.3700  133.2407  149.2107 H   0  0  0  0  0  0  0  0  0  0  0  0
  147.2422  134.1877  151.2583 H   0  0  0  0  0  0  0  0  0  0  0  0
  146.3179  133.0950  152.2572 H   0  0  0  0  0  0  0  0  0  0  0  0
  149.4575  137.6433  153.9226 H   0  0  0  0  0  0  0  0  0  0  0  0
  149.2067  141.8188  156.7868 H   0  0  0  0  0  0  0  0  0  0  0  0
  150.3606  142.3368  155.5394 H   0  0  0  0  0  0  0  0  0  0  0  0
  150.7914  141.0329  156.6625 H   0  0  0  0  0  0  0  0  0  0  0  0
  147.1143  136.5607  151.9339 H   0  0  0  0  0  0  0  0  0  0  0  0
  1  2  1  0  0  0  0
  1 18  1  0  0  0  0
  1 19  1  0  0  0  0
  1 20  1  0  0  0  0
  2 16  1  0  0  0  0
  2  3  2  0  0  0  0
  3  4  1  0  0  0  0
  3 14  1  0  0  0  0
  4  5  1  0  0  0  0
  4 21  1  0  0  0  0
  4 22  1  0  0  0  0
  5  6  1  0  0  0  0
  5 23  1  0  0  0  0
  5 24  1  0  0  0  0
  6  7  1  0  0  0  0
  6 25  1  0  0  0  0
  6 41  1  0  0  0  0
  7  8  1  0  0  0  0
  7 26  1  0  0  0  0
  7 27  1  0  0  0  0
  8 13  1  0  0  0  0
  8  9  1  0  0  0  0
  8 28  1  0  0  0  0
  9 10  1  0  0  0  0
  9 29  1  0  0  0  0
  9 30  1  0  0  0  0
 10 11  2  0  0  0  0
 10 31  1  0  0  0  0
 11 12  1  0  0  0  0
 11 32  1  0  0  0  0
 12 13  1  0  0  0  0
 12 33  1  0  0  0  0
 12 34  1  0  0  0  0
 13 35  1  0  0  0  0
 13 36  1  0  0  0  0
 14 15  2  0  0  0  0
 14 37  1  0  0  0  0
 15 16  1  0  0  0  0
 16 17  1  0  0  0  0
 17 38  1  0  0  0  0
 17 39  1  0  0  0  0
 17 40  1  0  0  0  0
M  CHG  1   6   1
M  END
> <s_m_source_file>
AV-unprocessed.smi

> <i_m_source_file_index>
3219

> <i_lp_mmshare_version>
43012

> <i_f3d_flags>
0

> <s_epik_input>
W0NIM11uMW5bY0hdYyhjMVtDSDNdKVtDSDJdW0NIMl1bTkhdW0NIMl1bQ0BASF0yW0NIMl1bQ0hdPVtDSF1bQ0gyXVtDSDJdMg==

> <s_epik_cmdline>
J2VwaWtfcHl0aG9uJywgJy1waCcsICc3LjAnLCAnLXRuJywgJzgnLCAnLW1hJywgJzIwMCcsICctbWV0YWxfYmluZGluZycsICctaW1hZScsICc8aW5maWxlLm1hZT4nLCAnLW9tYWUnLCAnPG91dGZpbGUubWFlPic=

> <r_lp_tautomer_probability>
1

> <r_epik_Ionization_Penalty>
0.000661401

> <r_epik_Ionization_Penalty_Charging>
0.00057791

> <r_epik_Ionization_Penalty_Neutral>
8.34914e-05

> <r_epik_State_Penalty>
-0

> <r_epik_Charging_Adjusted_Penalty>
0.00057791

> <i_epik_Tot_Q>
1

> <i_epik_Tot_abs_Q>
1

> <r_epik_Metal_State_Penalty>
-0

> <b_epik_Metal_Only>
0

> <s_lp_Force_Field>
OPLS_2005

> <r_lp_Energy>
9.86252

> <b_lp_Chiralities_Consistent>
1

> <s_lp_Variant>
AV-unprocessed.smi:3219-1

> <Gold.Version>
5.8.1

> <Gold.Id.Protein>
6NUR|6NUR_protein|mol2

> <Gold.PLP.Fitness>
42.8557

> <Gold.PLP.PLP>
-35.4226

> <Gold.PLP.part.hbond>
-1.0000

> <Gold.PLP.part.metal>
0.0000

> <Gold.PLP.part.buried>
-1.4259

> <Gold.PLP.part.nonpolar>
-33.3261

> <Gold.PLP.part.repulsive>
0.1258

> <Gold.PLP.ligand.clash>
0.0000

> <Gold.PLP.ligand.torsion>
0.7931

> <Gold.PLP.Chemscore.Hbond>
2.0000

> <Gold.PLP.Chemscore.CHOScore>
1.0000

> <Gold.PLP.Chemscore.Metal>
0.0000

> <Gold.Chemscore.Hbonds>
donor molecule, donor type, donor heavy atom, donor atom, acceptor molecule, acceptor atom, score
      L1  H     6    41       P1  7948  2.00
      L1  C    14    37       P1  7948  1.00

> <Gold.PLP.Chemscore.Internal.Correction>
0.0194

> <Gold.Rescore>
     Score         DG    S(hbond)    S(metal)    S(lipo)     H(rot)  DE(clash)    DE(int)     intcor
     14.88     -15.85       1.00        0.00      92.05       1.46       0.12       0.85       ----

> <Gold.Chemscore.Fitness>
14.8780

> <Gold.Chemscore.DG>
-15.8537

> <Gold.Chemscore.ZeroCoef>
-5.4800

> <Gold.Chemscore.Hbond>
1.0000

> <Gold.Chemscore.Metal>
0.0000

> <Gold.Chemscore.Lipo>
92.0550

> <Gold.Chemscore.Internal_Hbond>
0.0000

> <Gold.Chemscore.DEClash>
0.1215

> <Gold.Chemscore.DEInternal>
0.8541

> <Gold.Chemscore.Rot>
1.4597

> <Gold.Chemscore.Internal.Correction>
   9.000000E+99

> <Gold.Chemscore.Hbonds>
donor molecule, donor type, donor heavy atom, donor atom, acceptor molecule, acceptor atom, score
      L1  H     6    41       P1  7948  1.00

> <Gold.Chemscore.Hbond.Weighted>
-3.3400

> <Gold.Chemscore.Metal.Weighted>
-0.0000

> <Gold.Chemscore.Lipo.Weighted>
-10.7704

> <Gold.Chemscore.Internal_Hbond.Weighted>
0.0000

> <Gold.Chemscore.DEClash.Weighted>
0.1215

> <Gold.Chemscore.DEInternal.Weighted>
0.8541

> <Gold.Chemscore.Rot.Weighted>
3.7368

> <Gold.Chemscore.Internal.Correction.Weighted>
   9.000000E+99

> <Gold.Protein.RotatedTorsions>
[ 6907 6896 6895 6894 ] final  125.00 input  -60.11 | X-H torsion
[ 7974 7965 7964 7962 ] final   35.37 input  175.53 | X-H torsion
[ 8008 7997 7996 7995 ] final   58.71 input   59.86 | X-H torsion
[ 10167 10162 10161 10158 ] final  -78.22 input  -65.29 | X-H torsion
[ 10718 10713 10712 10709 ] final   21.95 input   66.30 | X-H torsion
[ 10763 10752 10751 10750 ] final  -23.00 input  -60.55 | X-H torsion
[ 11005 11000 10999 10996 ] final  132.58 input  -57.11 | X-H torsion

> <Gold.Protein.ActiveResidues>
 VAL166  LYS551  ARG553  GLY616  TRP617  ASP618  TYR619  PRO620  LYS621  CYS622 
 ASP623  PHE694  ASN695  SER759  ASP760  ASP761  ALA762  ILE779  LEU786  VAL792 
 PHE793  MET794  SER795  GLU796  ALA797  LYS798  CYS799  TRP800  GLU811  SER814 

> <Gold.Protein.RotatedAtoms>
  152.4030  133.6846  159.6331 H   0  0  0  0  0  0  0  0  0  0  0  0  # atno 6907 bound_to 6896
  150.7918  133.8758  159.3280 H   0  0  0  0  0  0  0  0  0  0  0  0  # atno 6908 bound_to 6896
  151.6519  135.1002  160.0214 H   0  0  0  0  0  0  0  0  0  0  0  0  # atno 6909 bound_to 6896
  146.1287  139.6151  142.9241 H   0  0  0  0  0  0  0  0  0  0  0  0  # atno 7974 bound_to 7965
  155.5544  140.3487  155.4476 H   0  0  0  0  0  0  0  0  0  0  0  0  # atno 8008 bound_to 7997
  156.0560  140.1329  157.0022 H   0  0  0  0  0  0  0  0  0  0  0  0  # atno 8009 bound_to 7997
  154.4456  140.0995  156.6431 H   0  0  0  0  0  0  0  0  0  0  0  0  # atno 8010 bound_to 7997
  140.4701  143.2429  151.8218 H   0  0  0  0  0  0  0  0  0  0  0  0  # atno 10167 bound_to 10162
  157.1456  130.6652  149.5995 H   0  0  0  0  0  0  0  0  0  0  0  0  # atno 10718 bound_to 10713
  153.6609  135.6976  153.5178 H   0  0  0  0  0  0  0  0  0  0  0  0  # atno 10763 bound_to 10752
  153.2632  135.4238  155.0914 H   0  0  0  0  0  0  0  0  0  0  0  0  # atno 10764 bound_to 10752
  154.8452  135.3560  154.6154 H   0  0  0  0  0  0  0  0  0  0  0  0  # atno 10765 bound_to 10752
  139.9799  134.9551  156.9602 H   0  0  0  0  0  0  0  0  0  0  0  0  # atno 11005 bound_to 11000
  145.5308  141.0427  143.2384 LP  0  0  0  0  0  0  0  0  0  0  0  0  # atno 17320 bound_to 7965
  144.7669  139.6825  143.7211 LP  0  0  0  0  0  0  0  0  0  0  0  0  # atno 17321 bound_to 7965
  139.4817  144.4902  151.9195 LP  0  0  0  0  0  0  0  0  0  0  0  0  # atno 17342 bound_to 10162
  140.3987  144.2521  150.5894 LP  0  0  0  0  0  0  0  0  0  0  0  0  # atno 17343 bound_to 10162
  155.9780  130.4762  150.6629 LP  0  0  0  0  0  0  0  0  0  0  0  0  # atno 17370 bound_to 10713
  157.4267  131.0844  151.1078 LP  0  0  0  0  0  0  0  0  0  0  0  0  # atno 17371 bound_to 10713
  140.5118  134.0994  155.7272 LP  0  0  0  0  0  0  0  0  0  0  0  0  # atno 17394 bound_to 11000
  141.1472  133.9034  157.2186 LP  0  0  0  0  0  0  0  0  0  0  0  0  # atno 17395 bound_to 11000

$$$$
