AV-unprocessed.smi:1484|AV-procd|sdf|5995|dock10
  -GOLD-   22720 6 93D 1   1.00000     0.00000
 Structure written by MMmdl.
 37 38  0  0  0  0  0  0  0  0  2 V2000
  153.1158  141.1983  160.2223 C   0  0  0  0  0  0  0  0  0  0  0  0
  152.8889  142.2641  159.1406 C   0  0  2  0  0  0  0  0  0  0  0  0
  152.6663  143.6570  159.7598 C   0  0  0  0  0  0  0  0  0  0  0  0
  152.4423  144.7233  158.6765 C   0  0  0  0  0  0  0  0  0  0  0  0
  151.2701  144.3453  157.7581 C   0  0  0  0  0  0  0  0  0  0  0  0
  151.4768  142.9563  157.1270 C   0  0  2  0  0  0  0  0  0  0  0  0
  150.3148  142.6140  156.3125 N   0  0  0  0  0  0  0  0  0  0  0  0
  150.1531  141.4710  155.6282 C   0  0  0  0  0  0  0  0  0  0  0  0
  150.9912  140.5677  155.6215 O   0  0  0  0  0  0  0  0  0  0  0  0
  148.8350  141.3479  154.8469 C   0  0  0  0  0  0  0  0  0  0  0  0
  147.6290  141.5851  155.6537 N   0  0  0  0  0  0  0  0  0  0  0  0
  147.7732  141.2032  157.0560 N   0  5  0  0  0  0  0  0  0  0  0  0
  146.7164  141.3584  157.8970 C   0  0  0  0  0  0  0  0  0  0  0  0
  146.7578  141.0435  159.0841 O   0  0  0  0  0  0  0  0  0  0  0  0
  145.4913  141.9260  157.3590 C   0  0  0  0  0  0  0  0  0  0  0  0
  145.3939  142.2910  156.0655 C   0  0  0  0  0  0  0  0  0  0  0  0
  146.4990  142.1377  155.1268 C   0  0  0  0  0  0  0  0  0  0  0  0
  146.4198  142.4780  153.9462 O   0  0  0  0  0  0  0  0  0  0  0  0
  151.7128  141.8899  158.2174 C   0  0  0  0  0  0  0  0  0  0  0  0
  152.2450  141.0997  160.8712 H   0  0  0  0  0  0  0  0  0  0  0  0
  153.9716  141.4508  160.8488 H   0  0  0  0  0  0  0  0  0  0  0  0
  153.3111  140.2226  159.7766 H   0  0  0  0  0  0  0  0  0  0  0  0
  153.7920  142.3083  158.5302 H   0  0  0  0  0  0  0  0  0  0  0  0
  151.8038  143.6305  160.4274 H   0  0  0  0  0  0  0  0  0  0  0  0
  153.5235  143.9348  160.3739 H   0  0  0  0  0  0  0  0  0  0  0  0
  152.2528  145.6912  159.1414 H   0  0  0  0  0  0  0  0  0  0  0  0
  153.3500  144.8380  158.0826 H   0  0  0  0  0  0  0  0  0  0  0  0
  150.3434  144.3557  158.3341 H   0  0  0  0  0  0  0  0  0  0  0  0
  151.1577  145.0984  156.9774 H   0  0  0  0  0  0  0  0  0  0  0  0
  152.3576  143.0041  156.4834 H   0  0  0  0  0  0  0  0  0  0  0  0
  149.5746  143.2987  156.2650 H   0  0  0  0  0  0  0  0  0  0  0  0
  148.8714  142.0465  154.0088 H   0  0  0  0  0  0  0  0  0  0  0  0
  148.7839  140.3553  154.3958 H   0  0  0  0  0  0  0  0  0  0  0  0
  144.6413  142.0599  158.0117 H   0  0  0  0  0  0  0  0  0  0  0  0
  144.4645  142.7091  155.7088 H   0  0  0  0  0  0  0  0  0  0  0  0
  151.9076  140.9223  157.7530 H   0  0  0  0  0  0  0  0  0  0  0  0
  150.8064  141.7676  158.8126 H   0  0  0  0  0  0  0  0  0  0  0  0
  1  2  1  0  0  0  0
  1 20  1  0  0  0  0
  1 21  1  0  0  0  0
  1 22  1  0  0  0  0
  2 19  1  0  0  0  0
  2  3  1  0  0  0  0
  2 23  1  0  0  0  0
  3  4  1  0  0  0  0
  3 24  1  0  0  0  0
  3 25  1  0  0  0  0
  4  5  1  0  0  0  0
  4 26  1  0  0  0  0
  4 27  1  0  0  0  0
  5  6  1  0  0  0  0
  5 28  1  0  0  0  0
  5 29  1  0  0  0  0
  6  7  1  0  0  0  0
  6 19  1  0  0  0  0
  6 30  1  0  0  0  0
  7  8  1  0  0  0  0
  7 31  1  0  0  0  0
  8  9  2  0  0  0  0
  8 10  1  0  0  0  0
 10 32  1  0  0  0  0
 10 33  1  0  0  0  0
 10 11  1  0  0  0  0
 11 12  1  0  0  0  0
 11 17  1  0  0  0  0
 12 13  1  0  0  0  0
 13 14  2  0  0  0  0
 13 15  1  0  0  0  0
 15 34  1  0  0  0  0
 15 16  2  0  0  0  0
 16 35  1  0  0  0  0
 16 17  1  0  0  0  0
 17 18  2  0  0  0  0
 19 36  1  0  0  0  0
 19 37  1  0  0  0  0
M  CHG  1  12  -1
M  END
> <s_m_source_file>
AV-unprocessed.smi

> <i_m_source_file_index>
1484

> <i_lp_mmshare_version>
43012

> <i_f3d_flags>
0

> <s_epik_input>
W0NIM11bQ0BASF0xW0NIMl1bQ0gyXVtDSDJdW0NASF0oW0NIMl0xKVtOSF1DKD1PKVtDSDJdbjJbbkhdYyg9TylbY0hdW2NIXWMyPU8=

> <s_epik_cmdline>
J2VwaWtfcHl0aG9uJywgJy1waCcsICc3LjAnLCAnLXRuJywgJzgnLCAnLW1hJywgJzIwMCcsICctbWV0YWxfYmluZGluZycsICctaW1hZScsICc8aW5maWxlLm1hZT4nLCAnLW9tYWUnLCAnPG91dGZpbGUubWFlPic=

> <r_lp_tautomer_probability>
1

> <r_epik_Ionization_Penalty>
0.101352

> <r_epik_Ionization_Penalty_Charging>
0.101352

> <r_epik_Ionization_Penalty_Neutral>
1.90469e-08

> <r_epik_State_Penalty>
0.0358555

> <r_epik_Charging_Adjusted_Penalty>
0.137208

> <i_epik_Tot_Q>
-1

> <i_epik_Tot_abs_Q>
1

> <r_epik_Metal_State_Penalty>
0.0358555

> <b_epik_Metal_Only>
0

> <s_lp_Force_Field>
OPLS_2005

> <r_lp_Energy>
24.7991

> <b_lp_Chiralities_Consistent>
1

> <s_lp_Variant>
AV-unprocessed.smi:1484-3

> <Gold.Version>
5.8.1

> <Gold.Id.Protein>
6NUR|6NUR_protein|mol2

> <Gold.PLP.Fitness>
42.8517

> <Gold.PLP.PLP>
-38.4227

> <Gold.PLP.part.hbond>
-2.5789

> <Gold.PLP.part.metal>
0.0000

> <Gold.PLP.part.buried>
-3.8006

> <Gold.PLP.part.nonpolar>
-32.4538

> <Gold.PLP.part.repulsive>
0.4150

> <Gold.PLP.ligand.clash>
0.0000

> <Gold.PLP.ligand.torsion>
0.4236

> <Gold.PLP.Chemscore.Hbond>
1.7569

> <Gold.PLP.Chemscore.CHOScore>
0.0000

> <Gold.PLP.Chemscore.Metal>
0.0000

> <Gold.Chemscore.Hbonds>
donor molecule, donor type, donor heavy atom, donor atom, acceptor molecule, acceptor atom, score
      L1  H     7    31       P1  8028  1.00
      P1  H  6934  6946       L1    14  0.38
      P1  H  7989  7998       L1     9  0.36

> <Gold.PLP.Chemscore.Internal.Correction>
0.0054

> <Gold.Rescore>
     Score         DG    S(hbond)    S(metal)    S(lipo)     H(rot)  DE(clash)    DE(int)     intcor
     16.65     -18.23       1.94        0.00      89.68       1.65       0.03       1.55       ----

> <Gold.Chemscore.Fitness>
16.6466

> <Gold.Chemscore.DG>
-18.2319

> <Gold.Chemscore.ZeroCoef>
-5.4800

> <Gold.Chemscore.Hbond>
1.9449

> <Gold.Chemscore.Metal>
0.0000

> <Gold.Chemscore.Lipo>
89.6783

> <Gold.Chemscore.Internal_Hbond>
0.0000

> <Gold.Chemscore.DEClash>
0.0338

> <Gold.Chemscore.DEInternal>
1.5515

> <Gold.Chemscore.Rot>
1.6549

> <Gold.Chemscore.Internal.Correction>
   9.000000E+99

> <Gold.Chemscore.Hbonds>
donor molecule, donor type, donor heavy atom, donor atom, acceptor molecule, acceptor atom, score
      L1  H     7    31       P1  8028  0.96
      P1  H  6934  6946       L1    14  0.38
      P1  H  7989  7998       L1     9  0.05

> <Gold.Chemscore.Hbond.Weighted>
-6.4960

> <Gold.Chemscore.Metal.Weighted>
-0.0000

> <Gold.Chemscore.Lipo.Weighted>
-10.4924

> <Gold.Chemscore.Internal_Hbond.Weighted>
0.0000

> <Gold.Chemscore.DEClash.Weighted>
0.0338

> <Gold.Chemscore.DEInternal.Weighted>
1.5515

> <Gold.Chemscore.Rot.Weighted>
4.2364

> <Gold.Chemscore.Internal.Correction.Weighted>
   9.000000E+99

> <Gold.Protein.RotatedTorsions>
[ 6907 6896 6895 6894 ] final -123.86 input  -60.11 | X-H torsion
[ 7974 7965 7964 7962 ] final   25.97 input  175.53 | X-H torsion
[ 8008 7997 7996 7995 ] final  163.00 input   59.86 | X-H torsion
[ 10167 10162 10161 10158 ] final  109.42 input  -65.29 | X-H torsion
[ 10718 10713 10712 10709 ] final  -59.62 input   66.30 | X-H torsion
[ 10763 10752 10751 10750 ] final   39.65 input  -60.55 | X-H torsion
[ 11005 11000 10999 10996 ] final   50.24 input  -57.11 | X-H torsion

> <Gold.Protein.ActiveResidues>
 VAL166  LYS551  ARG553  GLY616  TRP617  ASP618  TYR619  PRO620  LYS621  CYS622 
 ASP623  PHE694  ASN695  SER759  ASP760  ASP761  ALA762  ILE779  LEU786  VAL792 
 PHE793  MET794  SER795  GLU796  ALA797  LYS798  CYS799  TRP800  GLU811  SER814 

> <Gold.Protein.RotatedAtoms>
  150.8712  133.7503  159.2960 H   0  0  0  0  0  0  0  0  0  0  0  0  # atno 6907 bound_to 6896
  151.5115  135.1063  159.9864 H   0  0  0  0  0  0  0  0  0  0  0  0  # atno 6908 bound_to 6896
  152.4696  133.7955  159.6980 H   0  0  0  0  0  0  0  0  0  0  0  0  # atno 6909 bound_to 6896
  146.1861  139.7392  142.8865 H   0  0  0  0  0  0  0  0  0  0  0  0  # atno 7974 bound_to 7965
  156.1990  140.1735  156.7939 H   0  0  0  0  0  0  0  0  0  0  0  0  # atno 8008 bound_to 7997
  154.5567  140.0707  156.8785 H   0  0  0  0  0  0  0  0  0  0  0  0  # atno 8009 bound_to 7997
  155.2926  140.3356  155.4254 H   0  0  0  0  0  0  0  0  0  0  0  0  # atno 8010 bound_to 7997
  139.6768  144.7121  151.1587 H   0  0  0  0  0  0  0  0  0  0  0  0  # atno 10167 bound_to 10162
  156.1049  130.4181  150.0740 H   0  0  0  0  0  0  0  0  0  0  0  0  # atno 10718 bound_to 10713
  152.9960  135.6214  154.2499 H   0  0  0  0  0  0  0  0  0  0  0  0  # atno 10763 bound_to 10752
  154.2238  135.2795  155.2917 H   0  0  0  0  0  0  0  0  0  0  0  0  # atno 10764 bound_to 10752
  154.5506  135.5734  153.6977 H   0  0  0  0  0  0  0  0  0  0  0  0  # atno 10765 bound_to 10752
  140.1034  134.5050  155.8742 H   0  0  0  0  0  0  0  0  0  0  0  0  # atno 11005 bound_to 11000
  145.3933  141.0375  143.3112 LP  0  0  0  0  0  0  0  0  0  0  0  0  # atno 17320 bound_to 7965
  144.8401  139.5486  143.6904 LP  0  0  0  0  0  0  0  0  0  0  0  0  # atno 17321 bound_to 7965
  140.7638  143.5759  150.8946 LP  0  0  0  0  0  0  0  0  0  0  0  0  # atno 17342 bound_to 10162
  139.9428  143.6362  152.3049 LP  0  0  0  0  0  0  0  0  0  0  0  0  # atno 17343 bound_to 10162
  156.8718  130.9527  151.3608 LP  0  0  0  0  0  0  0  0  0  0  0  0  # atno 17370 bound_to 10713
  157.6224  130.8665  149.9131 LP  0  0  0  0  0  0  0  0  0  0  0  0  # atno 17371 bound_to 10713
  141.2112  133.6703  156.6563 LP  0  0  0  0  0  0  0  0  0  0  0  0  # atno 17394 bound_to 11000
  140.3188  134.8025  157.4236 LP  0  0  0  0  0  0  0  0  0  0  0  0  # atno 17395 bound_to 11000

$$$$
