AV-unprocessed.smi:1|AV-procd|sdf|21|dock6
  -GOLD-   2262015123D 1   1.00000     0.00000
 Structure written by MMmdl.
 56 61  0  0  0  0  0  0  0  0  2 V2000
  149.2428  141.7168  156.9982 O   0  0  0  0  0  0  0  0  0  0  0  0
  150.4719  141.7487  156.9054 C   0  0  0  0  0  0  0  0  0  0  0  0
  151.2501  141.1755  155.9523 N   0  5  0  0  0  0  0  0  0  0  0  0
  151.0604  139.8880  155.6252 C   0  0  0  0  0  0  0  0  0  0  0  0
  151.3079  139.4571  154.3621 N   0  0  0  0  0  0  0  0  0  0  0  0
  151.1108  138.1750  154.0346 C   0  0  0  0  0  0  0  0  0  0  0  0
  150.6784  137.1696  154.8014 N   0  0  0  0  0  0  0  0  0  0  0  0
  150.4379  137.5854  156.0789 C   0  0  0  0  0  0  0  0  0  0  0  0
  150.6111  138.9159  156.5609 C   0  0  0  0  0  0  0  0  0  0  0  0
  150.2833  138.9988  157.9058 N   0  0  0  0  0  0  0  0  0  0  0  0
  149.9283  137.7447  158.1733 C   0  0  0  0  0  0  0  0  0  0  0  0
  149.9778  136.8535  157.1631 N   0  0  0  0  0  0  0  0  0  0  0  0
  149.6271  135.4019  157.2287 C   0  0  2  0  0  0  0  0  0  0  0  0
  150.2734  134.7236  156.1923 O   0  0  0  0  0  0  0  0  0  0  0  0
  149.3242  134.1658  155.2873 C   0  0  1  0  0  0  0  0  0  0  0  0
  149.8629  132.8818  154.6469 C   0  0  0  0  0  0  0  0  0  0  0  0
  149.0318  132.5330  153.5524 O   0  0  0  0  0  0  0  0  0  0  0  0
  147.9228  131.7970  153.7528 C   0  0  0  0  0  0  0  0  0  0  0  0
  147.7452  131.0872  154.7449 O   0  0  0  0  0  0  0  0  0  0  0  0
  146.9305  131.9330  152.6477 C   0  0  0  0  0  0  0  0  0  0  0  0
  147.0151  133.0415  151.7729 C   0  0  0  0  0  0  0  0  0  0  0  0
  146.0919  133.1970  150.7206 C   0  0  0  0  0  0  0  0  0  0  0  0
  145.0733  132.2453  150.5294 C   0  0  0  0  0  0  0  0  0  0  0  0
  144.9780  131.1382  151.3928 C   0  0  0  0  0  0  0  0  0  0  0  0
  145.8998  130.9814  152.4463 C   0  0  0  0  0  0  0  0  0  0  0  0
  148.0685  133.9750  156.1353 C   0  0  1  0  0  0  0  0  0  0  0  0
  148.1447  132.7935  156.9165 O   0  0  0  0  0  0  0  0  0  0  0  0
  147.5978  133.1446  158.4555 S   0  0  0  0  0  0  0  0  0  0  0  0
  146.2224  132.6400  158.5839 O   0  0  0  0  0  0  0  0  0  0  0  0
  148.6616  132.8012  159.4114 O   0  0  0  0  0  0  0  0  0  0  0  0
  147.5320  134.8088  158.3174 O   0  0  0  0  0  0  0  0  0  0  0  0
  148.1145  135.1786  157.0802 C   0  0  1  0  0  0  0  0  0  0  0  0
  151.2539  142.5543  157.9077 C   0  0  0  0  0  0  0  0  0  0  0  0
  151.1770  143.9655  157.8848 C   0  0  0  0  0  0  0  0  0  0  0  0
  151.8782  144.7366  158.8323 C   0  0  0  0  0  0  0  0  0  0  0  0
  152.6564  144.1038  159.8196 C   0  0  0  0  0  0  0  0  0  0  0  0
  152.7298  142.6990  159.8609 C   0  0  0  0  0  0  0  0  0  0  0  0
  152.0293  141.9272  158.9133 C   0  0  0  0  0  0  0  0  0  0  0  0
  151.3277  137.9179  153.0085 H   0  0  0  0  0  0  0  0  0  0  0  0
  149.6065  137.4584  159.1639 H   0  0  0  0  0  0  0  0  0  0  0  0
  150.0243  135.0597  158.1855 H   0  0  0  0  0  0  0  0  0  0  0  0
  149.1043  134.8956  154.5086 H   0  0  0  0  0  0  0  0  0  0  0  0
  150.8956  133.0162  154.3221 H   0  0  0  0  0  0  0  0  0  0  0  0
  149.8472  132.0698  155.3750 H   0  0  0  0  0  0  0  0  0  0  0  0
  147.7897  133.7843  151.8996 H   0  0  0  0  0  0  0  0  0  0  0  0
  146.1666  134.0477  150.0592 H   0  0  0  0  0  0  0  0  0  0  0  0
  144.3660  132.3640  149.7217 H   0  0  0  0  0  0  0  0  0  0  0  0
  144.1964  130.4069  151.2477 H   0  0  0  0  0  0  0  0  0  0  0  0
  145.7976  130.1202  153.0906 H   0  0  0  0  0  0  0  0  0  0  0  0
  147.1583  133.9492  155.5352 H   0  0  0  0  0  0  0  0  0  0  0  0
  147.6259  136.0494  156.6421 H   0  0  0  0  0  0  0  0  0  0  0  0
  150.5812  144.4662  157.1352 H   0  0  0  0  0  0  0  0  0  0  0  0
  151.8168  145.8144  158.8018 H   0  0  0  0  0  0  0  0  0  0  0  0
  153.1926  144.6949  160.5471 H   0  0  0  0  0  0  0  0  0  0  0  0
  153.3207  142.2114  160.6221 H   0  0  0  0  0  0  0  0  0  0  0  0
  152.0897  140.8498  158.9694 H   0  0  0  0  0  0  0  0  0  0  0  0
  1  2  2  0  0  0  0
  2  3  1  0  0  0  0
  2 33  1  0  0  0  0
  3  4  1  0  0  0  0
  4  9  1  0  0  0  0
  4  5  2  0  0  0  0
  5  6  1  0  0  0  0
  6  7  2  0  0  0  0
  6 39  1  0  0  0  0
  7  8  1  0  0  0  0
  8 12  1  0  0  0  0
  8  9  2  0  0  0  0
  9 10  1  0  0  0  0
 10 11  2  0  0  0  0
 11 12  1  0  0  0  0
 11 40  1  0  0  0  0
 12 13  1  0  0  0  0
 13 32  1  0  0  0  0
 13 14  1  0  0  0  0
 13 41  1  0  0  0  0
 14 15  1  0  0  0  0
 15 16  1  0  0  0  0
 15 26  1  0  0  0  0
 15 42  1  0  0  0  0
 16 17  1  0  0  0  0
 16 43  1  0  0  0  0
 16 44  1  0  0  0  0
 17 18  1  0  0  0  0
 18 19  2  0  0  0  0
 18 20  1  0  0  0  0
 20 25  1  0  0  0  0
 20 21  2  0  0  0  0
 21 22  1  0  0  0  0
 21 45  1  0  0  0  0
 22 23  2  0  0  0  0
 22 46  1  0  0  0  0
 23 24  1  0  0  0  0
 23 47  1  0  0  0  0
 24 25  2  0  0  0  0
 24 48  1  0  0  0  0
 25 49  1  0  0  0  0
 26 32  1  0  0  0  0
 26 27  1  0  0  0  0
 26 50  1  0  0  0  0
 27 28  1  0  0  0  0
 28 29  2  0  0  0  0
 28 30  2  0  0  0  0
 28 31  1  0  0  0  0
 31 32  1  0  0  0  0
 32 51  1  0  0  0  0
 33 38  1  0  0  0  0
 33 34  2  0  0  0  0
 34 35  1  0  0  0  0
 34 52  1  0  0  0  0
 35 36  2  0  0  0  0
 35 53  1  0  0  0  0
 36 37  1  0  0  0  0
 36 54  1  0  0  0  0
 37 38  2  0  0  0  0
 37 55  1  0  0  0  0
 38 56  1  0  0  0  0
M  CHG  1   3  -1
M  END
> <s_m_source_file>
AV-unprocessed.smi

> <i_m_source_file_index>
1

> <i_lp_mmshare_version>
43012

> <i_f3d_flags>
0

> <s_epik_input>
W2NIXTFbY0hdW2NIXVtjSF1bY0hdYzFDKD1PKVtOSF1jKG5bY0hdbjIpYyhjMjMpbltjSF1uM1tDQEBIXShbQ0BIXShbQ0BIXTQ1KU9TKE81KSg9Tyk9TylPW0NASF00W0NIMl1PQyg9TyljNltjSF1bY0hdW2NIXVtjSF1bY0hdNg==

> <s_epik_cmdline>
J2VwaWtfcHl0aG9uJywgJy1waCcsICc3LjAnLCAnLXRuJywgJzgnLCAnLW1hJywgJzIwMCcsICctbWV0YWxfYmluZGluZycsICctaW1hZScsICc8aW5maWxlLm1hZT4nLCAnLW9tYWUnLCAnPG91dGZpbGUubWFlPic=

> <r_lp_tautomer_probability>
1

> <r_epik_Ionization_Penalty>
4.39121

> <r_epik_Ionization_Penalty_Charging>
3.39398

> <r_epik_Ionization_Penalty_Neutral>
0.997232

> <r_epik_State_Penalty>
3.39839

> <r_epik_Charging_Adjusted_Penalty>
6.79237

> <i_epik_Tot_Q>
-1

> <i_epik_Tot_abs_Q>
1

> <r_epik_Metal_State_Penalty>
0.497663

> <b_epik_Metal_Only>
1

> <s_epik_Chemistry_Notes>
This compound has an ester and may undergo hydrolysis at high or low pH. This compound contains an acetal/aminal-like group ( X-CH(R)-Y where X, Y are N, S, or O) that may be acid/base labile, releasing an aldehyde.

> <s_lp_Force_Field>
OPLS_2005

> <r_lp_Energy>
42.9256

> <b_lp_Chiralities_Consistent>
1

> <s_lp_Variant>
AV-unprocessed.smi:1-21

> <Gold.Version>
5.8.1

> <Gold.Id.Protein>
6NUR|6NUR_protein|mol2

> <Gold.PLP.Fitness>
53.4222

> <Gold.PLP.PLP>
-53.8063

> <Gold.PLP.part.hbond>
-1.1976

> <Gold.PLP.part.metal>
0.0000

> <Gold.PLP.part.buried>
-7.6529

> <Gold.PLP.part.nonpolar>
-45.4909

> <Gold.PLP.part.repulsive>
0.6210

> <Gold.PLP.ligand.clash>
0.0000

> <Gold.PLP.ligand.torsion>
3.3116

> <Gold.PLP.Chemscore.Hbond>
1.0000

> <Gold.PLP.Chemscore.CHOScore>
1.0000

> <Gold.PLP.Chemscore.Metal>
0.0000

> <Gold.Chemscore.Hbonds>
donor molecule, donor type, donor heavy atom, donor atom, acceptor molecule, acceptor atom, score
      P1  H  7989  7998       L1     5  1.00
      L1  C     6    39       P1  7949  1.00

> <Gold.PLP.Chemscore.Internal.Correction>
0.2391

> <Gold.Rescore>
     Score         DG    S(hbond)    S(metal)    S(lipo)     H(rot)  DE(clash)    DE(int)     intcor
     12.59     -18.17       0.94        0.00     127.79       2.11       0.01       5.57       ----

> <Gold.Chemscore.Fitness>
12.5863

> <Gold.Chemscore.DG>
-18.1682

> <Gold.Chemscore.ZeroCoef>
-5.4800

> <Gold.Chemscore.Hbond>
0.9424

> <Gold.Chemscore.Metal>
0.0000

> <Gold.Chemscore.Lipo>
127.7891

> <Gold.Chemscore.Internal_Hbond>
0.0000

> <Gold.Chemscore.DEClash>
0.0133

> <Gold.Chemscore.DEInternal>
5.5686

> <Gold.Chemscore.Rot>
2.1136

> <Gold.Chemscore.Internal.Correction>
   9.000000E+99

> <Gold.Chemscore.Hbonds>
donor molecule, donor type, donor heavy atom, donor atom, acceptor molecule, acceptor atom, score
      P1  H  7989  7998       L1     5  0.50

> <Gold.Chemscore.Hbond.Weighted>
-3.1476

> <Gold.Chemscore.Metal.Weighted>
-0.0000

> <Gold.Chemscore.Lipo.Weighted>
-14.9513

> <Gold.Chemscore.Internal_Hbond.Weighted>
0.0000

> <Gold.Chemscore.DEClash.Weighted>
0.0133

> <Gold.Chemscore.DEInternal.Weighted>
5.5686

> <Gold.Chemscore.Rot.Weighted>
5.4107

> <Gold.Chemscore.Internal.Correction.Weighted>
   9.000000E+99

> <Gold.Protein.RotatedTorsions>
[ 6907 6896 6895 6894 ] final  -52.89 input  -60.11 | X-H torsion
[ 7974 7965 7964 7962 ] final  -19.58 input  175.53 | X-H torsion
[ 8008 7997 7996 7995 ] final -103.72 input   59.86 | X-H torsion
[ 10167 10162 10161 10158 ] final   99.41 input  -65.29 | X-H torsion
[ 10718 10713 10712 10709 ] final  127.66 input   66.30 | X-H torsion
[ 10763 10752 10751 10750 ] final    3.33 input  -60.55 | X-H torsion
[ 11005 11000 10999 10996 ] final -112.39 input  -57.11 | X-H torsion

> <Gold.Protein.ActiveResidues>
 VAL166  LYS551  ARG553  GLY616  TRP617  ASP618  TYR619  PRO620  LYS621  CYS622 
 ASP623  PHE694  ASN695  SER759  ASP760  ASP761  ALA762  ILE779  LEU786  VAL792 
 PHE793  MET794  SER795  GLU796  ALA797  LYS798  CYS799  TRP800  GLU811  SER814 

> <Gold.Protein.RotatedAtoms>
  150.8477  134.7791  159.6983 H   0  0  0  0  0  0  0  0  0  0  0  0  # atno 6907 bound_to 6896
  152.4549  134.5309  159.9820 H   0  0  0  0  0  0  0  0  0  0  0  0  # atno 6908 bound_to 6896
  151.5436  133.3391  159.2975 H   0  0  0  0  0  0  0  0  0  0  0  0  # atno 6909 bound_to 6896
  146.1834  140.4081  142.8486 H   0  0  0  0  0  0  0  0  0  0  0  0  # atno 7974 bound_to 7965
  154.8750  140.0421  157.1748 H   0  0  0  0  0  0  0  0  0  0  0  0  # atno 8008 bound_to 7997
  154.8699  140.2956  155.5467 H   0  0  0  0  0  0  0  0  0  0  0  0  # atno 8009 bound_to 7997
  156.2999  140.2431  156.3686 H   0  0  0  0  0  0  0  0  0  0  0  0  # atno 8010 bound_to 7997
  139.7620  144.6951  151.0279 H   0  0  0  0  0  0  0  0  0  0  0  0  # atno 10167 bound_to 10162
  157.5313  131.1098  150.9004 H   0  0  0  0  0  0  0  0  0  0  0  0  # atno 10718 bound_to 10713
  153.2847  135.6943  153.7351 H   0  0  0  0  0  0  0  0  0  0  0  0  # atno 10763 bound_to 10752
  153.6325  135.3407  155.3047 H   0  0  0  0  0  0  0  0  0  0  0  0  # atno 10764 bound_to 10752
  154.8506  135.4412  154.1911 H   0  0  0  0  0  0  0  0  0  0  0  0  # atno 10765 bound_to 10752
  141.0678  133.9430  157.2544 H   0  0  0  0  0  0  0  0  0  0  0  0  # atno 11005 bound_to 11000
  144.8354  140.6774  143.6264 LP  0  0  0  0  0  0  0  0  0  0  0  0  # atno 17320 bound_to 7965
  145.4010  139.1597  143.4177 LP  0  0  0  0  0  0  0  0  0  0  0  0  # atno 17321 bound_to 7965
  140.7808  143.4686  151.0177 LP  0  0  0  0  0  0  0  0  0  0  0  0  # atno 17342 bound_to 10162
  139.8372  143.7612  152.3180 LP  0  0  0  0  0  0  0  0  0  0  0  0  # atno 17343 bound_to 10162
  156.9585  130.5446  149.5285 LP  0  0  0  0  0  0  0  0  0  0  0  0  # atno 17370 bound_to 10713
  156.0425  130.5505  150.8803 LP  0  0  0  0  0  0  0  0  0  0  0  0  # atno 17371 bound_to 10713
  139.9493  135.0178  156.8947 LP  0  0  0  0  0  0  0  0  0  0  0  0  # atno 17394 bound_to 11000
  140.5737  134.0419  155.7439 LP  0  0  0  0  0  0  0  0  0  0  0  0  # atno 17395 bound_to 11000

$$$$
