AV-unprocessed.smi:2124|AV-procd|sdf|8658|dock6
  -GOLD-   2272011403D 1   1.00000     0.00000
 Structure written by MMmdl.
 47 49  0  0  0  0  0  0  0  0  1 V2000
  152.6533  143.4611  159.9550 C   0  0  0  0  0  0  0  0  0  0  0  0
  152.2022  142.1291  159.3963 C   0  0  0  0  0  0  0  0  0  0  0  0
  151.0241  142.2006  158.6716 N   0  0  0  0  0  0  0  0  0  0  0  0
  150.5453  141.0362  158.0981 C   0  0  0  0  0  0  0  0  0  0  0  0
  149.2626  141.2076  157.3030 C   0  0  0  0  0  0  0  0  0  0  0  0
  151.1983  139.8563  158.2532 C   0  0  0  0  0  0  0  0  0  0  0  0
  150.7092  138.5522  157.6264 C   0  0  0  0  0  0  0  0  0  0  0  0
  150.4047  137.4226  158.6119 C   0  0  0  0  0  0  0  0  0  0  0  0
  151.3030  136.9607  159.3149 O   0  0  0  0  0  0  0  0  0  0  0  0
  149.1341  136.9917  158.6535 N   0  0  0  0  0  0  0  0  0  0  0  0
  148.6195  135.9343  159.5207 C   0  0  2  0  0  0  0  0  0  0  0  0
  147.9106  134.8712  158.6652 C   0  0  0  0  0  0  0  0  0  0  0  0
  147.6852  136.5571  160.5848 C   0  0  2  0  0  0  0  0  0  0  0  0
  148.3383  136.7785  161.9686 C   0  0  0  0  0  0  0  0  0  0  0  0
  147.3148  136.1609  162.9391 C   0  0  2  0  0  0  0  0  0  0  0  0
  147.3899  134.6266  162.8378 C   0  0  0  0  0  0  0  0  0  0  0  0
  146.7359  134.3465  161.4726 C   0  0  0  0  0  0  0  0  0  0  0  0
  146.4073  135.7617  160.9528 C   0  0  1  0  0  0  0  0  0  0  0  0
  145.9904  136.4578  162.2447 C   0  0  0  0  0  0  0  0  0  0  0  0
  152.4403  139.8380  159.0620 C   0  0  0  0  0  0  0  0  0  0  0  0
  153.0637  138.7963  159.2630 O   0  0  0  0  0  0  0  0  0  0  0  0
  152.8948  141.0508  159.6045 N   0  0  0  0  0  0  0  0  0  0  0  0
  150.5081  143.0570  158.5304 H   0  0  0  0  0  0  0  0  0  0  0  0
  153.5914  143.3577  160.5019 H   0  0  0  0  0  0  0  0  0  0  0  0
  151.9027  143.8613  160.6372 H   0  0  0  0  0  0  0  0  0  0  0  0
  152.8075  144.1783  159.1483 H   0  0  0  0  0  0  0  0  0  0  0  0
  149.4181  140.9299  156.2605 H   0  0  0  0  0  0  0  0  0  0  0  0
  148.9106  142.2395  157.3251 H   0  0  0  0  0  0  0  0  0  0  0  0
  148.4739  140.5789  157.7146 H   0  0  0  0  0  0  0  0  0  0  0  0
  151.4301  138.1806  156.8976 H   0  0  0  0  0  0  0  0  0  0  0  0
  149.8155  138.7678  157.0396 H   0  0  0  0  0  0  0  0  0  0  0  0
  148.4677  137.4341  158.0372 H   0  0  0  0  0  0  0  0  0  0  0  0
  149.4638  135.4651  160.0266 H   0  0  0  0  0  0  0  0  0  0  0  0
  147.5645  134.0372  159.2755 H   0  0  0  0  0  0  0  0  0  0  0  0
  148.5821  134.4609  157.9103 H   0  0  0  0  0  0  0  0  0  0  0  0
  147.0455  135.2891  158.1493 H   0  0  0  0  0  0  0  0  0  0  0  0
  147.3622  137.5301  160.2091 H   0  0  0  0  0  0  0  0  0  0  0  0
  149.3144  136.3005  162.0611 H   0  0  0  0  0  0  0  0  0  0  0  0
  148.4719  137.8435  162.1622 H   0  0  0  0  0  0  0  0  0  0  0  0
  147.3974  136.5358  163.9595 H   0  0  0  0  0  0  0  0  0  0  0  0
  148.4147  134.2571  162.8920 H   0  0  0  0  0  0  0  0  0  0  0  0
  146.8212  134.1540  163.6396 H   0  0  0  0  0  0  0  0  0  0  0  0
  147.3776  133.7742  160.8041 H   0  0  0  0  0  0  0  0  0  0  0  0
  145.8191  133.7710  161.6070 H   0  0  0  0  0  0  0  0  0  0  0  0
  145.6458  135.7733  160.1724 H   0  0  0  0  0  0  0  0  0  0  0  0
  145.1321  135.9915  162.7321 H   0  0  0  0  0  0  0  0  0  0  0  0
  145.7952  137.5247  162.1218 H   0  0  0  0  0  0  0  0  0  0  0  0
  1 24  1  0  0  0  0
  1 25  1  0  0  0  0
  1 26  1  0  0  0  0
  1  2  1  0  0  0  0
  2  3  1  0  0  0  0
  2 22  2  0  0  0  0
  3  4  1  0  0  0  0
  3 23  1  0  0  0  0
  4  6  2  0  0  0  0
  4  5  1  0  0  0  0
  5 27  1  0  0  0  0
  5 28  1  0  0  0  0
  5 29  1  0  0  0  0
  6 20  1  0  0  0  0
  6  7  1  0  0  0  0
  7  8  1  0  0  0  0
  7 30  1  0  0  0  0
  7 31  1  0  0  0  0
  8  9  2  0  0  0  0
  8 10  1  0  0  0  0
 10 11  1  0  0  0  0
 10 32  1  0  0  0  0
 11 12  1  0  0  0  0
 11 13  1  0  0  0  0
 11 33  1  0  0  0  0
 12 34  1  0  0  0  0
 12 35  1  0  0  0  0
 12 36  1  0  0  0  0
 13 18  1  0  0  0  0
 13 14  1  0  0  0  0
 13 37  1  0  0  0  0
 14 15  1  0  0  0  0
 14 38  1  0  0  0  0
 14 39  1  0  0  0  0
 15 19  1  0  0  0  0
 15 16  1  0  0  0  0
 15 40  1  0  0  0  0
 16 17  1  0  0  0  0
 16 41  1  0  0  0  0
 16 42  1  0  0  0  0
 17 18  1  0  0  0  0
 17 43  1  0  0  0  0
 17 44  1  0  0  0  0
 18 19  1  0  0  0  0
 18 45  1  0  0  0  0
 19 46  1  0  0  0  0
 19 47  1  0  0  0  0
 20 21  2  0  0  0  0
 20 22  1  0  0  0  0
M  END
> <s_m_source_file>
AV-unprocessed.smi

> <i_m_source_file_index>
2124

> <i_lp_mmshare_version>
43012

> <i_f3d_flags>
0

> <s_epik_input>
W0NIM11jMW5jKFtDSDNdKWMoYyg9TylbbkhdMSlbQ0gyXUMoPU8pW05IXVtDQEhdKFtDSDNdKVtDQEhdKFtDSDJdW0NASF0yMylbQ0BIXShbQ0gyXTMpW0NIMl1bQ0gyXTI=

> <s_epik_cmdline>
J2VwaWtfcHl0aG9uJywgJy1waCcsICc3LjAnLCAnLXRuJywgJzgnLCAnLW1hJywgJzIwMCcsICctbWV0YWxfYmluZGluZycsICctaW1hZScsICc8aW5maWxlLm1hZT4nLCAnLW9tYWUnLCAnPG91dGZpbGUubWFlPic=

> <r_lp_tautomer_probability>
0.156392

> <r_epik_Ionization_Penalty>
0.0139374

> <r_epik_Ionization_Penalty_Charging>
0.0138122

> <r_epik_Ionization_Penalty_Neutral>
0.000125146

> <r_epik_State_Penalty>
1.15342

> <r_epik_Charging_Adjusted_Penalty>
1.16723

> <i_epik_Tot_Q>
0

> <i_epik_Tot_abs_Q>
0

> <r_epik_Metal_State_Penalty>
1.3173

> <b_epik_Metal_Only>
0

> <s_lp_Force_Field>
OPLS_2005

> <r_lp_Energy>
55.868

> <b_lp_Chiralities_Consistent>
1

> <s_lp_Variant>
AV-unprocessed.smi:2124-9

> <Gold.Version>
5.8.1

> <Gold.Id.Protein>
6NUR|6NUR_protein|mol2

> <Gold.PLP.Fitness>
37.3598

> <Gold.PLP.PLP>
-36.7238

> <Gold.PLP.part.hbond>
-1.0000

> <Gold.PLP.part.metal>
0.0000

> <Gold.PLP.part.buried>
-2.7960

> <Gold.PLP.part.nonpolar>
-33.1020

> <Gold.PLP.part.repulsive>
0.2685

> <Gold.PLP.ligand.clash>
0.0000

> <Gold.PLP.ligand.torsion>
1.1928

> <Gold.PLP.Chemscore.Hbond>
1.0000

> <Gold.PLP.Chemscore.CHOScore>
0.0000

> <Gold.PLP.Chemscore.Metal>
0.0000

> <Gold.Chemscore.Hbonds>
donor molecule, donor type, donor heavy atom, donor atom, acceptor molecule, acceptor atom, score
      P1  H  6896  6907       L1     9  1.00

> <Gold.PLP.Chemscore.Internal.Correction>
0.0216

> <Gold.Rescore>
     Score         DG    S(hbond)    S(metal)    S(lipo)     H(rot)  DE(clash)    DE(int)     intcor
     11.45     -15.69       0.98        0.00      95.37       1.65       1.61       2.63       ----

> <Gold.Chemscore.Fitness>
11.4459

> <Gold.Chemscore.DG>
-15.6905

> <Gold.Chemscore.ZeroCoef>
-5.4800

> <Gold.Chemscore.Hbond>
0.9836

> <Gold.Chemscore.Metal>
0.0000

> <Gold.Chemscore.Lipo>
95.3676

> <Gold.Chemscore.Internal_Hbond>
0.0000

> <Gold.Chemscore.DEClash>
1.6103

> <Gold.Chemscore.DEInternal>
2.6343

> <Gold.Chemscore.Rot>
1.6534

> <Gold.Chemscore.Internal.Correction>
   9.000000E+99

> <Gold.Chemscore.Hbonds>
donor molecule, donor type, donor heavy atom, donor atom, acceptor molecule, acceptor atom, score
      P1  H  6896  6907       L1     9  0.96

> <Gold.Chemscore.Hbond.Weighted>
-3.2851

> <Gold.Chemscore.Metal.Weighted>
-0.0000

> <Gold.Chemscore.Lipo.Weighted>
-11.1580

> <Gold.Chemscore.Internal_Hbond.Weighted>
0.0000

> <Gold.Chemscore.DEClash.Weighted>
1.6103

> <Gold.Chemscore.DEInternal.Weighted>
2.6343

> <Gold.Chemscore.Rot.Weighted>
4.2326

> <Gold.Chemscore.Internal.Correction.Weighted>
   9.000000E+99

> <Gold.Protein.RotatedTorsions>
[ 6907 6896 6895 6894 ] final  -21.27 input  -60.11 | X-H torsion
[ 7974 7965 7964 7962 ] final  141.92 input  175.53 | X-H torsion
[ 8008 7997 7996 7995 ] final  -79.06 input   59.86 | X-H torsion
[ 10167 10162 10161 10158 ] final  -84.59 input  -65.29 | X-H torsion
[ 10718 10713 10712 10709 ] final  168.58 input   66.30 | X-H torsion
[ 10763 10752 10751 10750 ] final  -29.20 input  -60.55 | X-H torsion
[ 11005 11000 10999 10996 ] final -132.46 input  -57.11 | X-H torsion

> <Gold.Protein.ActiveResidues>
 VAL166  LYS551  ARG553  GLY616  TRP617  ASP618  TYR619  PRO620  LYS621  CYS622 
 ASP623  PHE694  ASN695  SER759  ASP760  ASP761  ALA762  ILE779  LEU786  VAL792 
 PHE793  MET794  SER795  GLU796  ALA797  LYS798  CYS799  TRP800  GLU811  SER814 

> <Gold.Protein.RotatedAtoms>
  151.2358  135.0571  159.9005 H   0  0  0  0  0  0  0  0  0  0  0  0  # atno 6907 bound_to 6896
  152.5399  134.0487  159.8110 H   0  0  0  0  0  0  0  0  0  0  0  0  # atno 6908 bound_to 6896
  151.0674  133.5445  159.2661 H   0  0  0  0  0  0  0  0  0  0  0  0  # atno 6909 bound_to 6896
  144.9053  139.5366  143.5734 H   0  0  0  0  0  0  0  0  0  0  0  0  # atno 7974 bound_to 7965
  154.5749  140.0684  156.9019 H   0  0  0  0  0  0  0  0  0  0  0  0  # atno 8008 bound_to 7997
  155.2567  140.3355  155.4259 H   0  0  0  0  0  0  0  0  0  0  0  0  # atno 8009 bound_to 7997
  156.2146  140.1773  156.7602 H   0  0  0  0  0  0  0  0  0  0  0  0  # atno 8010 bound_to 7997
  140.4118  143.2619  151.9007 H   0  0  0  0  0  0  0  0  0  0  0  0  # atno 10167 bound_to 10162
  157.0350  131.0270  151.2732 H   0  0  0  0  0  0  0  0  0  0  0  0  # atno 10718 bound_to 10713
  153.7608  135.6919  153.4926 H   0  0  0  0  0  0  0  0  0  0  0  0  # atno 10763 bound_to 10752
  153.1940  135.4460  155.0183 H   0  0  0  0  0  0  0  0  0  0  0  0  # atno 10764 bound_to 10752
  154.8154  135.3396  154.7123 H   0  0  0  0  0  0  0  0  0  0  0  0  # atno 10765 bound_to 10752
  140.9168  134.1496  157.4346 H   0  0  0  0  0  0  0  0  0  0  0  0  # atno 11005 bound_to 11000
  146.3130  139.7816  142.9005 LP  0  0  0  0  0  0  0  0  0  0  0  0  # atno 17320 bound_to 7965
  145.3546  141.0314  143.3319 LP  0  0  0  0  0  0  0  0  0  0  0  0  # atno 17321 bound_to 7965
  139.4782  144.5529  151.8359 LP  0  0  0  0  0  0  0  0  0  0  0  0  # atno 17342 bound_to 10162
  140.4629  144.1696  150.5908 LP  0  0  0  0  0  0  0  0  0  0  0  0  # atno 17343 bound_to 10162
  157.5148  130.7961  149.7744 LP  0  0  0  0  0  0  0  0  0  0  0  0  # atno 17370 bound_to 10713
  156.0057  130.3857  150.2442 LP  0  0  0  0  0  0  0  0  0  0  0  0  # atno 17371 bound_to 10713
  139.8767  134.9957  156.5755 LP  0  0  0  0  0  0  0  0  0  0  0  0  # atno 17394 bound_to 11000
  140.8039  133.8483  155.8750 LP  0  0  0  0  0  0  0  0  0  0  0  0  # atno 17395 bound_to 11000

$$$$
