AV-unprocessed.smi:456|AV-procd|sdf|2616|dock10
  -GOLD-   2262023 13D 1   1.00000     0.00000
 Structure written by MMmdl.
 32 34  0  0  0  0  0  0  0  0  1 V2000
  150.1757  139.6429  156.6776 O   0  0  0  0  0  0  0  0  0  0  0  0
  149.8090  141.0072  156.6619 C   0  0  1  0  0  0  0  0  0  0  0  0
  151.0700  141.8444  156.3696 C   0  0  0  0  0  0  0  0  0  0  0  0
  151.5463  142.5497  157.5465 N   0  0  0  0  0  0  0  0  0  0  0  0
  151.3927  143.8595  157.8202 C   0  0  0  0  0  0  0  0  0  0  0  0
  151.9192  144.3110  158.9549 N   0  0  0  0  0  0  0  0  0  0  0  0
  152.4806  143.1599  159.4800 C   0  0  0  0  0  0  0  0  0  0  0  0
  153.2018  142.9565  160.6781 C   0  0  0  0  0  0  0  0  0  0  0  0
  153.6905  141.6757  161.0099 C   0  0  0  0  0  0  0  0  0  0  0  0
  154.3807  141.4986  162.1615 F   0  0  0  0  0  0  0  0  0  0  0  0
  153.4644  140.5802  160.1501 C   0  0  0  0  0  0  0  0  0  0  0  0
  153.9386  139.3541  160.4748 F   0  0  0  0  0  0  0  0  0  0  0  0
  152.7455  140.7580  158.9527 C   0  0  0  0  0  0  0  0  0  0  0  0
  152.2619  142.0382  158.6245 C   0  0  0  0  0  0  0  0  0  0  0  0
  148.6862  141.2902  155.6733 C   0  0  0  0  0  0  0  0  0  0  0  0
  147.4813  141.8719  156.1236 C   0  0  0  0  0  0  0  0  0  0  0  0
  146.4500  142.1662  155.2109 C   0  0  0  0  0  0  0  0  0  0  0  0
  146.6166  141.8797  153.8426 C   0  0  0  0  0  0  0  0  0  0  0  0
  147.8151  141.2976  153.3875 C   0  0  0  0  0  0  0  0  0  0  0  0
  148.8472  141.0038  154.2993 C   0  0  0  0  0  0  0  0  0  0  0  0
  149.4052  139.1289  156.8658 H   0  0  0  0  0  0  0  0  0  0  0  0
  149.4555  141.2403  157.6674 H   0  0  0  0  0  0  0  0  0  0  0  0
  151.8764  141.1973  156.0212 H   0  0  0  0  0  0  0  0  0  0  0  0
  150.8841  142.5654  155.5723 H   0  0  0  0  0  0  0  0  0  0  0  0
  150.8673  144.5197  157.1455 H   0  0  0  0  0  0  0  0  0  0  0  0
  153.3819  143.7876  161.3436 H   0  0  0  0  0  0  0  0  0  0  0  0
  152.5742  139.9212  158.2924 H   0  0  0  0  0  0  0  0  0  0  0  0
  147.3487  142.1057  157.1698 H   0  0  0  0  0  0  0  0  0  0  0  0
  145.5322  142.6155  155.5605 H   0  0  0  0  0  0  0  0  0  0  0  0
  145.8267  142.1078  153.1422 H   0  0  0  0  0  0  0  0  0  0  0  0
  147.9445  141.0799  152.3377 H   0  0  0  0  0  0  0  0  0  0  0  0
  149.7669  140.5667  153.9383 H   0  0  0  0  0  0  0  0  0  0  0  0
  1  2  1  0  0  0  0
  1 21  1  0  0  0  0
  2  3  1  0  0  0  0
  2 15  1  0  0  0  0
  2 22  1  0  0  0  0
  3  4  1  0  0  0  0
  3 23  1  0  0  0  0
  3 24  1  0  0  0  0
  4 14  1  0  0  0  0
  4  5  1  0  0  0  0
  5  6  2  0  0  0  0
  5 25  1  0  0  0  0
  6  7  1  0  0  0  0
  7 14  2  0  0  0  0
  7  8  1  0  0  0  0
  8  9  2  0  0  0  0
  8 26  1  0  0  0  0
  9 10  1  0  0  0  0
  9 11  1  0  0  0  0
 11 12  1  0  0  0  0
 11 13  2  0  0  0  0
 13 14  1  0  0  0  0
 13 27  1  0  0  0  0
 15 20  1  0  0  0  0
 15 16  2  0  0  0  0
 16 17  1  0  0  0  0
 16 28  1  0  0  0  0
 17 18  2  0  0  0  0
 17 29  1  0  0  0  0
 18 19  1  0  0  0  0
 18 30  1  0  0  0  0
 19 20  2  0  0  0  0
 19 31  1  0  0  0  0
 20 32  1  0  0  0  0
M  END
> <s_m_source_file>
AV-unprocessed.smi

> <i_m_source_file_index>
456

> <i_lp_mmshare_version>
43012

> <i_f3d_flags>
0

> <s_epik_input>
W2NIXTFbY0hdW2NIXVtjSF1bY0hdYzFbQ0BIXShbT0hdKVtDSDJdbihbY0hdbjIpYyhjMjMpW2NIXWMoRiljKEYpW2NIXTM=

> <s_epik_cmdline>
J2VwaWtfcHl0aG9uJywgJy1waCcsICc3LjAnLCAnLXRuJywgJzgnLCAnLW1hJywgJzIwMCcsICctbWV0YWxfYmluZGluZycsICctaW1hZScsICc8aW5maWxlLm1hZT4nLCAnLW9tYWUnLCAnPG91dGZpbGUubWFlPic=

> <r_epik_Ionization_Penalty>
0.0156354

> <r_epik_Ionization_Penalty_Charging>
0

> <r_epik_Ionization_Penalty_Neutral>
0.0156354

> <r_epik_State_Penalty>
0.0122974

> <r_epik_Charging_Adjusted_Penalty>
0.0122974

> <i_epik_Tot_Q>
0

> <i_epik_Tot_abs_Q>
0

> <r_epik_Metal_State_Penalty>
1.24258e-05

> <b_epik_Metal_Only>
0

> <s_lp_Force_Field>
OPLS_2005

> <r_lp_Energy>
11.2187

> <b_lp_Chiralities_Consistent>
1

> <s_lp_Variant>
AV-unprocessed.smi:456-2

> <Gold.Version>
5.8.1

> <Gold.Id.Protein>
6NUR|6NUR_protein|mol2

> <Gold.PLP.Fitness>
45.8155

> <Gold.PLP.PLP>
-44.6607

> <Gold.PLP.part.hbond>
0.0000

> <Gold.PLP.part.metal>
0.0000

> <Gold.PLP.part.buried>
-3.8606

> <Gold.PLP.part.nonpolar>
-40.0646

> <Gold.PLP.part.repulsive>
0.0444

> <Gold.PLP.ligand.clash>
0.0000

> <Gold.PLP.ligand.torsion>
0.9311

> <Gold.PLP.Chemscore.Hbond>
0.0000

> <Gold.PLP.Chemscore.CHOScore>
1.0000

> <Gold.PLP.Chemscore.Metal>
0.0000

> <Gold.Chemscore.Hbonds>
donor molecule, donor type, donor heavy atom, donor atom, acceptor molecule, acceptor atom, score
      L1  C     5    25       P1  8028  1.00

> <Gold.PLP.Chemscore.Internal.Correction>
0.0170

> <Gold.Rescore>
     Score         DG    S(hbond)    S(metal)    S(lipo)     H(rot)  DE(clash)    DE(int)     intcor
     11.58     -13.10       0.00        0.00     108.39       1.98       0.59       0.93       ----

> <Gold.Chemscore.Fitness>
11.5797

> <Gold.Chemscore.DG>
-13.0996

> <Gold.Chemscore.ZeroCoef>
-5.4800

> <Gold.Chemscore.Hbond>
0.0000

> <Gold.Chemscore.Metal>
0.0000

> <Gold.Chemscore.Lipo>
108.3948

> <Gold.Chemscore.Internal_Hbond>
0.0000

> <Gold.Chemscore.DEClash>
0.5915

> <Gold.Chemscore.DEInternal>
0.9284

> <Gold.Chemscore.Rot>
1.9776

> <Gold.Chemscore.Internal.Correction>
   9.000000E+99

> <Gold.Chemscore.Hbond.Weighted>
-0.0000

> <Gold.Chemscore.Metal.Weighted>
-0.0000

> <Gold.Chemscore.Lipo.Weighted>
-12.6822

> <Gold.Chemscore.Internal_Hbond.Weighted>
0.0000

> <Gold.Chemscore.DEClash.Weighted>
0.5915

> <Gold.Chemscore.DEInternal.Weighted>
0.9284

> <Gold.Chemscore.Rot.Weighted>
5.0626

> <Gold.Chemscore.Internal.Correction.Weighted>
   9.000000E+99

> <Gold.Protein.RotatedTorsions>
[ 6907 6896 6895 6894 ] final -102.64 input  -60.11 | X-H torsion
[ 7974 7965 7964 7962 ] final   87.09 input  175.53 | X-H torsion
[ 8008 7997 7996 7995 ] final   -6.58 input   59.86 | X-H torsion
[ 10167 10162 10161 10158 ] final   48.57 input  -65.29 | X-H torsion
[ 10718 10713 10712 10709 ] final   53.10 input   66.30 | X-H torsion
[ 10763 10752 10751 10750 ] final  -16.74 input  -60.55 | X-H torsion
[ 11005 11000 10999 10996 ] final  121.41 input  -57.11 | X-H torsion

> <Gold.Protein.ActiveResidues>
 VAL166  LYS551  ARG553  GLY616  TRP617  ASP618  TYR619  PRO620  LYS621  CYS622 
 ASP623  PHE694  ASN695  SER759  ASP760  ASP761  ALA762  ILE779  LEU786  VAL792 
 PHE793  MET794  SER795  GLU796  ALA797  LYS798  CYS799  TRP800  GLU811  SER814 

> <Gold.Protein.RotatedAtoms>
  150.7205  134.0550  159.3811 H   0  0  0  0  0  0  0  0  0  0  0  0  # atno 6907 bound_to 6896
  151.8528  135.0549  160.0470 H   0  0  0  0  0  0  0  0  0  0  0  0  # atno 6908 bound_to 6896
  152.2777  133.5405  159.5515 H   0  0  0  0  0  0  0  0  0  0  0  0  # atno 6909 bound_to 6896
  145.5636  139.2306  143.2446 H   0  0  0  0  0  0  0  0  0  0  0  0  # atno 7974 bound_to 7965
  154.5923  140.2429  155.7903 H   0  0  0  0  0  0  0  0  0  0  0  0  # atno 8008 bound_to 7997
  156.2256  140.2984  156.0012 H   0  0  0  0  0  0  0  0  0  0  0  0  # atno 8009 bound_to 7997
  155.2352  140.0405  157.2958 H   0  0  0  0  0  0  0  0  0  0  0  0  # atno 8010 bound_to 7997
  140.2919  144.3036  150.6238 H   0  0  0  0  0  0  0  0  0  0  0  0  # atno 10167 bound_to 10162
  157.5136  130.8517  149.8466 H   0  0  0  0  0  0  0  0  0  0  0  0  # atno 10718 bound_to 10713
  153.5632  135.7009  153.5538 H   0  0  0  0  0  0  0  0  0  0  0  0  # atno 10763 bound_to 10752
  153.3411  135.4021  155.1572 H   0  0  0  0  0  0  0  0  0  0  0  0  # atno 10764 bound_to 10752
  154.8645  135.3742  154.5150 H   0  0  0  0  0  0  0  0  0  0  0  0  # atno 10765 bound_to 10752
  139.9225  134.9638  156.7954 H   0  0  0  0  0  0  0  0  0  0  0  0  # atno 11005 bound_to 11000
  146.1834  140.6461  142.9179 LP  0  0  0  0  0  0  0  0  0  0  0  0  # atno 17320 bound_to 7965
  144.7471  140.5096  143.6828 LP  0  0  0  0  0  0  0  0  0  0  0  0  # atno 17321 bound_to 7965
  140.5725  143.2179  151.7574 LP  0  0  0  0  0  0  0  0  0  0  0  0  # atno 17342 bound_to 10162
  139.4936  144.4196  151.9992 LP  0  0  0  0  0  0  0  0  0  0  0  0  # atno 17343 bound_to 10162
  156.0305  130.3766  150.1701 LP  0  0  0  0  0  0  0  0  0  0  0  0  # atno 17370 bound_to 10713
  156.9890  130.9887  151.3419 LP  0  0  0  0  0  0  0  0  0  0  0  0  # atno 17371 bound_to 10713
  140.6433  133.9798  155.7718 LP  0  0  0  0  0  0  0  0  0  0  0  0  # atno 17394 bound_to 11000
  141.0757  134.0139  157.3461 LP  0  0  0  0  0  0  0  0  0  0  0  0  # atno 17395 bound_to 11000

$$$$
