AV-unprocessed.smi:2725|AV-procd|sdf|10518|dock7
  -GOLD-   2272014563D 1   1.00000     0.00000
 Structure written by MMmdl.
 45 46  0  0  0  0  0  0  0  0  2 V2000
  150.7717  140.8562  155.2628 O   0  0  0  0  0  0  0  0  0  0  0  0
  150.0760  141.6676  155.8738 C   0  0  0  0  0  0  0  0  0  0  0  0
  150.5401  142.2330  157.2195 C   0  0  0  0  0  0  0  0  0  0  0  0
  151.6205  143.3211  157.0715 C   0  0  0  0  0  0  0  0  0  0  0  0
  152.2506  143.7346  158.4133 C   0  0  0  0  0  0  0  0  0  0  0  0
  152.4756  142.5773  159.3928 C   0  0  0  0  0  0  0  0  0  0  0  0
  152.5546  143.2235  160.7819 C   0  0  0  0  0  0  0  0  0  0  0  0
  151.9322  144.6215  160.6466 C   0  0  0  0  0  0  0  0  0  0  0  0
  151.3849  144.7049  159.2193 C   0  0  0  0  0  0  0  0  0  0  0  0
  148.8925  142.1095  155.4190 N   0  0  0  0  0  0  0  0  0  0  0  0
  148.2664  141.7137  154.1586 C   0  0  1  0  0  0  0  0  0  0  0  0
  147.9497  140.2006  154.1853 C   0  0  0  0  0  0  0  0  0  0  0  0
  149.1217  139.4318  154.0140 O   0  0  0  0  0  0  0  0  0  0  0  0
  147.0328  142.6109  153.9181 C   0  0  0  0  0  0  0  0  0  0  0  0
  145.9935  142.5420  155.0230 C   0  0  0  0  0  0  0  0  0  0  0  0
  146.1980  143.1557  156.2779 C   0  0  0  0  0  0  0  0  0  0  0  0
  145.1897  143.0697  157.2605 C   0  0  0  0  0  0  0  0  0  0  0  0
  143.9988  142.3734  156.9683 C   0  0  0  0  0  0  0  0  0  0  0  0
  143.8460  141.7805  155.6985 C   0  0  0  0  0  0  0  0  0  0  0  0
  144.8351  141.8845  154.7839 N   0  3  0  0  0  0  0  0  0  0  0  0
  149.6683  142.6356  157.7357 H   0  0  0  0  0  0  0  0  0  0  0  0
  150.9239  141.4213  157.8393 H   0  0  0  0  0  0  0  0  0  0  0  0
  152.4086  142.9534  156.4126 H   0  0  0  0  0  0  0  0  0  0  0  0
  151.2011  144.2012  156.5818 H   0  0  0  0  0  0  0  0  0  0  0  0
  153.2101  144.2187  158.2236 H   0  0  0  0  0  0  0  0  0  0  0  0
  151.6257  141.8941  159.3615 H   0  0  0  0  0  0  0  0  0  0  0  0
  153.3691  141.9990  159.1554 H   0  0  0  0  0  0  0  0  0  0  0  0
  152.0298  142.6190  161.5224 H   0  0  0  0  0  0  0  0  0  0  0  0
  153.5922  143.3081  161.1070 H   0  0  0  0  0  0  0  0  0  0  0  0
  151.1543  144.8018  161.3894 H   0  0  0  0  0  0  0  0  0  0  0  0
  152.7030  145.3795  160.7910 H   0  0  0  0  0  0  0  0  0  0  0  0
  151.4127  145.7200  158.8221 H   0  0  0  0  0  0  0  0  0  0  0  0
  150.3451  144.3744  159.2085 H   0  0  0  0  0  0  0  0  0  0  0  0
  148.3898  142.7752  155.9881 H   0  0  0  0  0  0  0  0  0  0  0  0
  148.9859  141.9119  153.3610 H   0  0  0  0  0  0  0  0  0  0  0  0
  147.5275  139.9123  155.1488 H   0  0  0  0  0  0  0  0  0  0  0  0
  147.2130  139.9351  153.4268 H   0  0  0  0  0  0  0  0  0  0  0  0
  149.4884  139.6283  153.1652 H   0  0  0  0  0  0  0  0  0  0  0  0
  147.3444  143.6480  153.7835 H   0  0  0  0  0  0  0  0  0  0  0  0
  146.5455  142.3216  152.9856 H   0  0  0  0  0  0  0  0  0  0  0  0
  147.1140  143.6900  156.4849 H   0  0  0  0  0  0  0  0  0  0  0  0
  145.3280  143.5337  158.2262 H   0  0  0  0  0  0  0  0  0  0  0  0
  143.2139  142.2973  157.7066 H   0  0  0  0  0  0  0  0  0  0  0  0
  142.9685  141.2321  155.3882 H   0  0  0  0  0  0  0  0  0  0  0  0
  144.7001  141.4520  153.8699 H   0  0  0  0  0  0  0  0  0  0  0  0
  1  2  2  0  0  0  0
  2  3  1  0  0  0  0
  2 10  1  0  0  0  0
  3  4  1  0  0  0  0
  3 21  1  0  0  0  0
  3 22  1  0  0  0  0
  4  5  1  0  0  0  0
  4 23  1  0  0  0  0
  4 24  1  0  0  0  0
  5  9  1  0  0  0  0
  5  6  1  0  0  0  0
  5 25  1  0  0  0  0
  6  7  1  0  0  0  0
  6 26  1  0  0  0  0
  6 27  1  0  0  0  0
  7  8  1  0  0  0  0
  7 28  1  0  0  0  0
  7 29  1  0  0  0  0
  8  9  1  0  0  0  0
  8 30  1  0  0  0  0
  8 31  1  0  0  0  0
  9 32  1  0  0  0  0
  9 33  1  0  0  0  0
 10 11  1  0  0  0  0
 10 34  1  0  0  0  0
 11 12  1  0  0  0  0
 11 14  1  0  0  0  0
 11 35  1  0  0  0  0
 12 13  1  0  0  0  0
 12 36  1  0  0  0  0
 12 37  1  0  0  0  0
 13 38  1  0  0  0  0
 14 15  1  0  0  0  0
 14 39  1  0  0  0  0
 14 40  1  0  0  0  0
 15 20  1  0  0  0  0
 15 16  2  0  0  0  0
 16 17  1  0  0  0  0
 16 41  1  0  0  0  0
 17 18  2  0  0  0  0
 17 42  1  0  0  0  0
 18 19  1  0  0  0  0
 18 43  1  0  0  0  0
 19 20  2  0  0  0  0
 19 44  1  0  0  0  0
 20 45  1  0  0  0  0
M  CHG  1  20   1
M  END
> <s_m_source_file>
AV-unprocessed.smi

> <i_m_source_file_index>
2725

> <i_lp_mmshare_version>
43012

> <i_f3d_flags>
0

> <s_epik_input>
W0NIMl0xW0NIMl1bQ0gyXVtDSDJdW0NIXTFbQ0gyXVtDSDJdQyg9TylbTkhdW0NASF0oW0NIMl1bT0hdKVtDSDJdYzJbY0hdW2NIXVtjSF1bY0hdbjI=

> <s_epik_cmdline>
J2VwaWtfcHl0aG9uJywgJy1waCcsICc3LjAnLCAnLXRuJywgJzgnLCAnLW1hJywgJzIwMCcsICctbWV0YWxfYmluZGluZycsICctaW1hZScsICc8aW5maWxlLm1hZT4nLCAnLW9tYWUnLCAnPG91dGZpbGUubWFlPic=

> <r_epik_Ionization_Penalty>
1.87189

> <r_epik_Ionization_Penalty_Charging>
1.87189

> <r_epik_Ionization_Penalty_Neutral>
6.79411e-08

> <r_epik_State_Penalty>
1.99097

> <r_epik_Charging_Adjusted_Penalty>
3.86287

> <i_epik_Tot_Q>
1

> <i_epik_Tot_abs_Q>
1

> <r_epik_Metal_State_Penalty>
2.01578

> <b_epik_Metal_Only>
0

> <s_lp_Force_Field>
OPLS_2005

> <r_lp_Energy>
28.0453

> <b_lp_Chiralities_Consistent>
1

> <s_lp_Variant>
AV-unprocessed.smi:2725-4

> <Gold.Version>
5.8.1

> <Gold.Id.Protein>
6NUR|6NUR_protein|mol2

> <Gold.PLP.Fitness>
53.4326

> <Gold.PLP.PLP>
-43.1212

> <Gold.PLP.part.hbond>
-4.0000

> <Gold.PLP.part.metal>
0.0000

> <Gold.PLP.part.buried>
-6.2503

> <Gold.PLP.part.nonpolar>
-34.0874

> <Gold.PLP.part.repulsive>
0.2092

> <Gold.PLP.ligand.clash>
0.0000

> <Gold.PLP.ligand.torsion>
0.7751

> <Gold.PLP.Chemscore.Hbond>
3.9158

> <Gold.PLP.Chemscore.CHOScore>
0.0000

> <Gold.PLP.Chemscore.Metal>
0.0000

> <Gold.Chemscore.Hbonds>
donor molecule, donor type, donor heavy atom, donor atom, acceptor molecule, acceptor atom, score
      L1  H    10    34       P1  8028  0.30
      L1  H    13    38       P1  7957  0.96
      L1  H    20    45       P1 10175  2.00
      P1  H  7989  7998       L1     1  0.80

> <Gold.PLP.Chemscore.Internal.Correction>
0.1141

> <Gold.Rescore>
     Score         DG    S(hbond)    S(metal)    S(lipo)     H(rot)  DE(clash)    DE(int)     intcor
     19.11     -20.37       2.70        0.00     106.52       2.58       0.13       1.14       ----

> <Gold.Chemscore.Fitness>
19.1058

> <Gold.Chemscore.DG>
-20.3746

> <Gold.Chemscore.ZeroCoef>
-5.4800

> <Gold.Chemscore.Hbond>
2.7035

> <Gold.Chemscore.Metal>
0.0000

> <Gold.Chemscore.Lipo>
106.5178

> <Gold.Chemscore.Internal_Hbond>
0.0000

> <Gold.Chemscore.DEClash>
0.1254

> <Gold.Chemscore.DEInternal>
1.1434

> <Gold.Chemscore.Rot>
2.5773

> <Gold.Chemscore.Internal.Correction>
   9.000000E+99

> <Gold.Chemscore.Hbonds>
donor molecule, donor type, donor heavy atom, donor atom, acceptor molecule, acceptor atom, score
      L1  H    10    34       P1  8028  0.27
      L1  H    13    38       P1  7957  0.90
      L1  H    20    45       P1 10175  0.25
      P1  H  7989  7998       L1     1  0.79

> <Gold.Chemscore.Hbond.Weighted>
-9.0298

> <Gold.Chemscore.Metal.Weighted>
-0.0000

> <Gold.Chemscore.Lipo.Weighted>
-12.4626

> <Gold.Chemscore.Internal_Hbond.Weighted>
0.0000

> <Gold.Chemscore.DEClash.Weighted>
0.1254

> <Gold.Chemscore.DEInternal.Weighted>
1.1434

> <Gold.Chemscore.Rot.Weighted>
6.5978

> <Gold.Chemscore.Internal.Correction.Weighted>
   9.000000E+99

> <Gold.Protein.RotatedTorsions>
[ 6907 6896 6895 6894 ] final -132.71 input  -60.11 | X-H torsion
[ 7974 7965 7964 7962 ] final   48.11 input  175.53 | X-H torsion
[ 8008 7997 7996 7995 ] final   58.95 input   59.86 | X-H torsion
[ 10167 10162 10161 10158 ] final  -27.17 input  -65.29 | X-H torsion
[ 10718 10713 10712 10709 ] final    6.35 input   66.30 | X-H torsion
[ 10763 10752 10751 10750 ] final  168.89 input  -60.55 | X-H torsion
[ 11005 11000 10999 10996 ] final   94.79 input  -57.11 | X-H torsion

> <Gold.Protein.ActiveResidues>
 VAL166  LYS551  ARG553  GLY616  TRP617  ASP618  TYR619  PRO620  LYS621  CYS622 
 ASP623  PHE694  ASN695  SER759  ASP760  ASP761  ALA762  ILE779  LEU786  VAL792 
 PHE793  MET794  SER795  GLU796  ALA797  LYS798  CYS799  TRP800  GLU811  SER814 

> <Gold.Protein.RotatedAtoms>
  150.9656  133.6399  159.2746 H   0  0  0  0  0  0  0  0  0  0  0  0  # atno 6907 bound_to 6896
  151.3706  135.0920  159.9474 H   0  0  0  0  0  0  0  0  0  0  0  0  # atno 6908 bound_to 6896
  152.5164  133.9211  159.7589 H   0  0  0  0  0  0  0  0  0  0  0  0  # atno 6909 bound_to 6896
  146.0235  139.4679  142.9882 H   0  0  0  0  0  0  0  0  0  0  0  0  # atno 7974 bound_to 7965
  155.5583  140.3488  155.4485 H   0  0  0  0  0  0  0  0  0  0  0  0  # atno 8008 bound_to 7997
  156.0533  140.1323  157.0051 H   0  0  0  0  0  0  0  0  0  0  0  0  # atno 8009 bound_to 7997
  154.4444  140.1000  156.6393 H   0  0  0  0  0  0  0  0  0  0  0  0  # atno 8010 bound_to 7997
  140.7279  143.4116  151.1096 H   0  0  0  0  0  0  0  0  0  0  0  0  # atno 10167 bound_to 10162
  156.9209  130.5790  149.5648 H   0  0  0  0  0  0  0  0  0  0  0  0  # atno 10718 bound_to 10713
  154.3751  135.2753  155.2244 H   0  0  0  0  0  0  0  0  0  0  0  0  # atno 10763 bound_to 10752
  154.4374  135.5962  153.6111 H   0  0  0  0  0  0  0  0  0  0  0  0  # atno 10764 bound_to 10752
  152.9836  135.6010  154.3987 H   0  0  0  0  0  0  0  0  0  0  0  0  # atno 10765 bound_to 10752
  139.8795  134.8864  156.3916 H   0  0  0  0  0  0  0  0  0  0  0  0  # atno 11005 bound_to 11000
  145.7155  141.0092  143.1430 LP  0  0  0  0  0  0  0  0  0  0  0  0  # atno 17320 bound_to 7965
  144.7000  139.8808  143.7447 LP  0  0  0  0  0  0  0  0  0  0  0  0  # atno 17321 bound_to 7965
  139.7750  143.8438  152.3127 LP  0  0  0  0  0  0  0  0  0  0  0  0  # atno 17342 bound_to 10162
  139.8370  144.7228  150.9379 LP  0  0  0  0  0  0  0  0  0  0  0  0  # atno 17343 bound_to 10162
  156.0491  130.5563  150.8949 LP  0  0  0  0  0  0  0  0  0  0  0  0  # atno 17370 bound_to 10713
  157.5908  131.0944  150.9122 LP  0  0  0  0  0  0  0  0  0  0  0  0  # atno 17371 bound_to 10713
  140.9329  133.7567  156.0047 LP  0  0  0  0  0  0  0  0  0  0  0  0  # atno 17394 bound_to 11000
  140.8310  134.3179  157.5349 LP  0  0  0  0  0  0  0  0  0  0  0  0  # atno 17395 bound_to 11000

$$$$
