AV-unprocessed.smi:1725|AV-procd|sdf|6954|dock6
  -GOLD-   22720 8163D 1   1.00000     0.00000
 Structure written by MMmdl.
 36 37  0  0  0  0  0  0  0  0  1 V2000
  150.1622  141.0012  157.0867 C   0  0  0  0  0  0  0  0  0  0  0  0
  149.3363  141.8182  158.0915 C   0  0  1  0  0  0  0  0  0  0  0  0
  149.9291  143.1105  158.1803 O   0  0  0  0  0  0  0  0  0  0  0  0
  151.2779  143.1375  158.6371 C   0  0  0  0  0  0  0  0  0  0  0  0
  151.8623  144.5342  158.5312 C   0  0  0  0  0  0  0  0  0  0  0  0
  152.2641  145.3049  159.7718 C   0  0  0  0  0  0  0  0  0  0  0  0
  151.0701  145.7487  158.9707 C   0  0  0  0  0  0  0  0  0  0  0  0
  147.8679  141.9340  157.6504 C   0  0  0  0  0  0  0  0  0  0  0  0
  146.9864  141.4302  158.3459 O   0  0  0  0  0  0  0  0  0  0  0  0
  147.6624  142.6040  156.4990 N   0  0  0  0  0  0  0  0  0  0  0  0
  146.4642  142.8566  155.8092 C   0  0  0  0  0  0  0  0  0  0  0  0
  145.7785  144.0297  155.8387 C   0  0  0  0  0  0  0  0  0  0  0  0
  144.5393  144.2183  155.1032 C   0  0  0  0  0  0  0  0  0  0  0  0
  143.7549  145.5185  155.1896 C   0  0  0  0  0  0  0  0  0  0  0  0
  143.6163  146.0447  153.9736 F   0  0  0  0  0  0  0  0  0  0  0  0
  142.5380  145.3195  155.6978 F   0  0  0  0  0  0  0  0  0  0  0  0
  144.3879  146.4071  155.9557 F   0  0  0  0  0  0  0  0  0  0  0  0
  144.0850  143.1578  154.4102 C   0  0  0  0  0  0  0  0  0  0  0  0
  144.7834  141.9490  154.3737 N   0  0  0  0  0  0  0  0  0  0  0  0
  145.9433  141.7212  155.0296 C   0  0  0  0  0  0  0  0  0  0  0  0
  146.4941  140.6233  154.9537 O   0  0  0  0  0  0  0  0  0  0  0  0
  144.3825  141.2038  153.8225 H   0  0  0  0  0  0  0  0  0  0  0  0
  149.7492  140.0006  156.9547 H   0  0  0  0  0  0  0  0  0  0  0  0
  151.1899  140.8898  157.4331 H   0  0  0  0  0  0  0  0  0  0  0  0
  150.1971  141.4827  156.1085 H   0  0  0  0  0  0  0  0  0  0  0  0
  149.3963  141.3241  159.0634 H   0  0  0  0  0  0  0  0  0  0  0  0
  151.3481  142.8152  159.6763 H   0  0  0  0  0  0  0  0  0  0  0  0
  151.8882  142.4595  158.0391 H   0  0  0  0  0  0  0  0  0  0  0  0
  152.4991  144.6738  157.6598 H   0  0  0  0  0  0  0  0  0  0  0  0
  152.0760  144.8493  160.7421 H   0  0  0  0  0  0  0  0  0  0  0  0
  153.1627  145.9155  159.7131 H   0  0  0  0  0  0  0  0  0  0  0  0
  151.1732  146.6553  158.3780 H   0  0  0  0  0  0  0  0  0  0  0  0
  150.0859  145.5899  159.4071 H   0  0  0  0  0  0  0  0  0  0  0  0
  148.4824  143.0115  156.0728 H   0  0  0  0  0  0  0  0  0  0  0  0
  146.1271  144.8653  156.4224 H   0  0  0  0  0  0  0  0  0  0  0  0
  143.1660  143.1492  153.8430 H   0  0  0  0  0  0  0  0  0  0  0  0
  1  2  1  0  0  0  0
  1 23  1  0  0  0  0
  1 24  1  0  0  0  0
  1 25  1  0  0  0  0
  2  3  1  0  0  0  0
  2  8  1  0  0  0  0
  2 26  1  0  0  0  0
  3  4  1  0  0  0  0
  4  5  1  0  0  0  0
  4 27  1  0  0  0  0
  4 28  1  0  0  0  0
  5  7  1  0  0  0  0
  5  6  1  0  0  0  0
  5 29  1  0  0  0  0
  6  7  1  0  0  0  0
  6 30  1  0  0  0  0
  6 31  1  0  0  0  0
  7 32  1  0  0  0  0
  7 33  1  0  0  0  0
  8  9  2  0  0  0  0
  8 10  1  0  0  0  0
 10 11  1  0  0  0  0
 10 34  1  0  0  0  0
 11 20  1  0  0  0  0
 11 12  2  0  0  0  0
 12 13  1  0  0  0  0
 12 35  1  0  0  0  0
 13 14  1  0  0  0  0
 13 18  2  0  0  0  0
 14 15  1  0  0  0  0
 14 16  1  0  0  0  0
 14 17  1  0  0  0  0
 18 19  1  0  0  0  0
 18 36  1  0  0  0  0
 19 22  1  0  0  0  0
 19 20  1  0  0  0  0
 20 21  2  0  0  0  0
M  END
> <s_m_source_file>
AV-unprocessed.smi

> <i_m_source_file_index>
1725

> <i_lp_mmshare_version>
43012

> <i_f3d_flags>
0

> <s_epik_input>
W0NIMl0xW0NIMl1bQ0hdMVtDSDJdT1tDQEBIXShbQ0gzXSlDKD1PKVtOSF1jMltjSF1jKEMoRikoRilGKVtjSF1bbkhdYzI9Tw==

> <s_epik_cmdline>
J2VwaWtfcHl0aG9uJywgJy1waCcsICc3LjAnLCAnLXRuJywgJzgnLCAnLW1hJywgJzIwMCcsICctbWV0YWxfYmluZGluZycsICctaW1hZScsICc8aW5maWxlLm1hZT4nLCAnLW9tYWUnLCAnPG91dGZpbGUubWFlPic=

> <r_lp_tautomer_probability>
0.999

> <r_epik_Ionization_Penalty>
0.00763408

> <r_epik_Ionization_Penalty_Charging>
0.00763398

> <r_epik_Ionization_Penalty_Neutral>
9.25705e-08

> <r_epik_State_Penalty>
0.00571302

> <r_epik_Charging_Adjusted_Penalty>
0.013347

> <i_epik_Tot_Q>
0

> <i_epik_Tot_abs_Q>
0

> <r_epik_Metal_State_Penalty>
0.392814

> <b_epik_Metal_Only>
0

> <s_lp_Force_Field>
OPLS_2005

> <r_lp_Energy>
26.7151

> <b_lp_Chiralities_Consistent>
1

> <s_lp_Variant>
AV-unprocessed.smi:1725-2

> <Gold.Version>
5.8.1

> <Gold.Id.Protein>
6NUR|6NUR_protein|mol2

> <Gold.PLP.Fitness>
36.8795

> <Gold.PLP.PLP>
-30.1645

> <Gold.PLP.part.hbond>
-3.0000

> <Gold.PLP.part.metal>
0.0000

> <Gold.PLP.part.buried>
-4.2687

> <Gold.PLP.part.nonpolar>
-22.7694

> <Gold.PLP.part.repulsive>
0.2297

> <Gold.PLP.ligand.clash>
0.0000

> <Gold.PLP.ligand.torsion>
1.2132

> <Gold.PLP.Chemscore.Hbond>
1.9600

> <Gold.PLP.Chemscore.CHOScore>
0.8875

> <Gold.PLP.Chemscore.Metal>
0.0000

> <Gold.Chemscore.Hbonds>
donor molecule, donor type, donor heavy atom, donor atom, acceptor molecule, acceptor atom, score
      L1  H    10    34       P1  8028  0.61
      L1  H    19    22       P1 10175  1.00
      P1  H  6934  6946       L1     9  0.02
      L1  C    18    36       P1 10174  0.67

> <Gold.PLP.Chemscore.Internal.Correction>
0.5989

> <Gold.Rescore>
     Score         DG    S(hbond)    S(metal)    S(lipo)     H(rot)  DE(clash)    DE(int)     intcor
     13.94     -15.64       1.79        0.00      74.84       1.79       0.11       1.59       ----

> <Gold.Chemscore.Fitness>
13.9373

> <Gold.Chemscore.DG>
-15.6375

> <Gold.Chemscore.ZeroCoef>
-5.4800

> <Gold.Chemscore.Hbond>
1.7944

> <Gold.Chemscore.Metal>
0.0000

> <Gold.Chemscore.Lipo>
74.8413

> <Gold.Chemscore.Internal_Hbond>
0.0000

> <Gold.Chemscore.DEClash>
0.1064

> <Gold.Chemscore.DEInternal>
1.5938

> <Gold.Chemscore.Rot>
1.7938

> <Gold.Chemscore.Internal.Correction>
   9.000000E+99

> <Gold.Chemscore.Hbonds>
donor molecule, donor type, donor heavy atom, donor atom, acceptor molecule, acceptor atom, score
      L1  H    10    34       P1  8028  0.57
      L1  H    19    22       P1 10175  0.49
      P1  H  6934  6946       L1     9  0.04

> <Gold.Chemscore.Hbond.Weighted>
-5.9933

> <Gold.Chemscore.Metal.Weighted>
-0.0000

> <Gold.Chemscore.Lipo.Weighted>
-8.7564

> <Gold.Chemscore.Internal_Hbond.Weighted>
0.0000

> <Gold.Chemscore.DEClash.Weighted>
0.1064

> <Gold.Chemscore.DEInternal.Weighted>
1.5938

> <Gold.Chemscore.Rot.Weighted>
4.5922

> <Gold.Chemscore.Internal.Correction.Weighted>
   9.000000E+99

> <Gold.Protein.RotatedTorsions>
[ 6907 6896 6895 6894 ] final  121.23 input  -60.11 | X-H torsion
[ 7974 7965 7964 7962 ] final   93.27 input  175.53 | X-H torsion
[ 8008 7997 7996 7995 ] final  173.55 input   59.86 | X-H torsion
[ 10167 10162 10161 10158 ] final  -43.91 input  -65.29 | X-H torsion
[ 10718 10713 10712 10709 ] final  155.82 input   66.30 | X-H torsion
[ 10763 10752 10751 10750 ] final  -98.13 input  -60.55 | X-H torsion
[ 11005 11000 10999 10996 ] final  -92.34 input  -57.11 | X-H torsion

> <Gold.Protein.ActiveResidues>
 VAL166  LYS551  ARG553  GLY616  TRP617  ASP618  TYR619  PRO620  LYS621  CYS622 
 ASP623  PHE694  ASN695  SER759  ASP760  ASP761  ALA762  ILE779  LEU786  VAL792 
 PHE793  MET794  SER795  GLU796  ALA797  LYS798  CYS799  TRP800  GLU811  SER814 

> <Gold.Protein.RotatedAtoms>
  152.4338  133.7324  159.6594 H   0  0  0  0  0  0  0  0  0  0  0  0  # atno 6907 bound_to 6896
  150.8219  133.8227  159.3141 H   0  0  0  0  0  0  0  0  0  0  0  0  # atno 6908 bound_to 6896
  151.5906  135.1056  160.0090 H   0  0  0  0  0  0  0  0  0  0  0  0  # atno 6909 bound_to 6896
  145.4812  139.2278  143.2881 H   0  0  0  0  0  0  0  0  0  0  0  0  # atno 7974 bound_to 7965
  156.1064  140.1457  156.9398 H   0  0  0  0  0  0  0  0  0  0  0  0  # atno 8008 bound_to 7997
  154.4737  140.0901  156.7252 H   0  0  0  0  0  0  0  0  0  0  0  0  # atno 8009 bound_to 7997
  155.4672  140.3440  155.4323 H   0  0  0  0  0  0  0  0  0  0  0  0  # atno 8010 bound_to 7997
  140.6916  143.2958  151.3420 H   0  0  0  0  0  0  0  0  0  0  0  0  # atno 10167 bound_to 10162
  157.2133  131.0702  151.1956 H   0  0  0  0  0  0  0  0  0  0  0  0  # atno 10718 bound_to 10713
  154.7387  135.5021  153.9086 H   0  0  0  0  0  0  0  0  0  0  0  0  # atno 10763 bound_to 10752
  153.1021  135.6688  153.9661 H   0  0  0  0  0  0  0  0  0  0  0  0  # atno 10764 bound_to 10752
  153.9444  135.3064  155.3420 H   0  0  0  0  0  0  0  0  0  0  0  0  # atno 10765 bound_to 10752
  141.1524  133.7814  157.0006 H   0  0  0  0  0  0  0  0  0  0  0  0  # atno 11005 bound_to 11000
  146.2340  140.5598  142.8963 LP  0  0  0  0  0  0  0  0  0  0  0  0  # atno 17320 bound_to 7965
  144.7888  140.5990  143.6556 LP  0  0  0  0  0  0  0  0  0  0  0  0  # atno 17321 bound_to 7965
  139.6326  144.0692  152.2489 LP  0  0  0  0  0  0  0  0  0  0  0  0  # atno 17342 bound_to 10162
  140.0171  144.6180  150.7597 LP  0  0  0  0  0  0  0  0  0  0  0  0  # atno 17343 bound_to 10162
  157.3650  130.7151  149.6527 LP  0  0  0  0  0  0  0  0  0  0  0  0  # atno 17370 bound_to 10713
  155.9688  130.4215  150.4471 LP  0  0  0  0  0  0  0  0  0  0  0  0  # atno 17371 bound_to 10713
  140.0943  134.9574  157.1824 LP  0  0  0  0  0  0  0  0  0  0  0  0  # atno 17394 bound_to 11000
  140.3404  134.2710  155.7213 LP  0  0  0  0  0  0  0  0  0  0  0  0  # atno 17395 bound_to 11000

$$$$
