AV-unprocessed.smi:2418|AV-procd|sdf|9551|dock4
  -GOLD-   2272013183D 1   1.00000     0.00000
 Structure written by MMmdl.
 34 35  0  0  0  0  0  0  0  0  1 V2000
  151.9058  137.8343  153.8352 C   0  0  0  0  0  0  0  0  0  0  0  0
  151.5243  138.9289  154.8159 C   0  0  0  0  0  0  0  0  0  0  0  0
  150.5681  139.8415  154.3609 N   0  0  0  0  0  0  0  0  0  0  0  0
  150.1869  140.8115  155.1262 C   0  0  0  0  0  0  0  0  0  0  0  0
  150.7054  140.9773  156.4208 N   0  0  0  0  0  0  0  0  0  0  0  0
  150.1947  142.1268  157.1866 C   0  0  0  0  0  0  0  0  0  0  0  0
  151.3002  143.1610  157.4948 C   0  0  1  0  0  0  0  0  0  0  0  0
  151.2322  144.1949  156.5311 O   0  0  0  0  0  0  0  0  0  0  0  0
  151.1564  143.7055  158.9105 C   0  0  0  0  0  0  0  0  0  0  0  0
  149.9204  144.2276  159.3549 C   0  0  0  0  0  0  0  0  0  0  0  0
  149.7866  144.7248  160.6656 C   0  0  0  0  0  0  0  0  0  0  0  0
  148.5997  145.2260  161.0816 F   0  0  0  0  0  0  0  0  0  0  0  0
  150.8859  144.6992  161.5441 C   0  0  0  0  0  0  0  0  0  0  0  0
  152.1177  144.1729  161.1117 C   0  0  0  0  0  0  0  0  0  0  0  0
  152.2542  143.6751  159.8009 C   0  0  0  0  0  0  0  0  0  0  0  0
  153.4457  143.1655  159.4059 F   0  0  0  0  0  0  0  0  0  0  0  0
  151.6414  140.1325  156.9425 C   0  0  0  0  0  0  0  0  0  0  0  0
  152.0946  140.2909  158.0777 O   0  0  0  0  0  0  0  0  0  0  0  0
  152.0687  139.0359  156.0587 C   0  0  0  0  0  0  0  0  0  0  0  0
  153.1174  138.0758  156.6062 C   0  0  0  0  0  0  0  0  0  0  0  0
  151.7019  136.8512  154.2601 H   0  0  0  0  0  0  0  0  0  0  0  0
  152.9665  137.8959  153.5900 H   0  0  0  0  0  0  0  0  0  0  0  0
  151.3419  137.9190  152.9053 H   0  0  0  0  0  0  0  0  0  0  0  0
  149.4511  141.5554  154.8157 H   0  0  0  0  0  0  0  0  0  0  0  0
  149.3431  142.6078  156.7006 H   0  0  0  0  0  0  0  0  0  0  0  0
  149.7871  141.7478  158.1261 H   0  0  0  0  0  0  0  0  0  0  0  0
  152.2841  142.7010  157.3995 H   0  0  0  0  0  0  0  0  0  0  0  0
  150.3524  144.2258  156.1872 H   0  0  0  0  0  0  0  0  0  0  0  0
  149.0678  144.2472  158.6917 H   0  0  0  0  0  0  0  0  0  0  0  0
  150.7842  145.0802  162.5496 H   0  0  0  0  0  0  0  0  0  0  0  0
  152.9602  144.1488  161.7872 H   0  0  0  0  0  0  0  0  0  0  0  0
  154.0264  138.6203  156.8647 H   0  0  0  0  0  0  0  0  0  0  0  0
  153.3941  137.2936  155.9012 H   0  0  0  0  0  0  0  0  0  0  0  0
  152.7467  137.5886  157.5086 H   0  0  0  0  0  0  0  0  0  0  0  0
  1  2  1  0  0  0  0
  1 21  1  0  0  0  0
  1 22  1  0  0  0  0
  1 23  1  0  0  0  0
  2 19  2  0  0  0  0
  2  3  1  0  0  0  0
  3  4  2  0  0  0  0
  4  5  1  0  0  0  0
  4 24  1  0  0  0  0
  5  6  1  0  0  0  0
  5 17  1  0  0  0  0
  6  7  1  0  0  0  0
  6 25  1  0  0  0  0
  6 26  1  0  0  0  0
  7  8  1  0  0  0  0
  7  9  1  0  0  0  0
  7 27  1  0  0  0  0
  8 28  1  0  0  0  0
  9 15  1  0  0  0  0
  9 10  2  0  0  0  0
 10 11  1  0  0  0  0
 10 29  1  0  0  0  0
 11 12  1  0  0  0  0
 11 13  2  0  0  0  0
 13 14  1  0  0  0  0
 13 30  1  0  0  0  0
 14 15  2  0  0  0  0
 14 31  1  0  0  0  0
 15 16  1  0  0  0  0
 17 18  2  0  0  0  0
 17 19  1  0  0  0  0
 19 20  1  0  0  0  0
 20 32  1  0  0  0  0
 20 33  1  0  0  0  0
 20 34  1  0  0  0  0
M  END
> <s_m_source_file>
AV-unprocessed.smi

> <i_m_source_file_index>
2418

> <i_lp_mmshare_version>
43012

> <i_f3d_flags>
0

> <s_epik_input>
W0NIM11jMW5bY0hdbihjKD1PKWMxW0NIM10pW0NIMl1bQ0BIXShbT0hdKWMyW2NIXWMoRilbY0hdW2NIXWMyRg==

> <s_epik_cmdline>
J2VwaWtfcHl0aG9uJywgJy1waCcsICc3LjAnLCAnLXRuJywgJzgnLCAnLW1hJywgJzIwMCcsICctbWV0YWxfYmluZGluZycsICctaW1hZScsICc8aW5maWxlLm1hZT4nLCAnLW9tYWUnLCAnPG91dGZpbGUubWFlPic=

> <r_lp_tautomer_probability>
1

> <r_epik_Ionization_Penalty>
5.08222e-05

> <r_epik_Ionization_Penalty_Charging>
7.56727e-08

> <r_epik_Ionization_Penalty_Neutral>
5.07465e-05

> <r_epik_State_Penalty>
-0

> <r_epik_Charging_Adjusted_Penalty>
7.56727e-08

> <i_epik_Tot_Q>
0

> <i_epik_Tot_abs_Q>
0

> <r_epik_Metal_State_Penalty>
-0

> <b_epik_Metal_Only>
0

> <s_lp_Force_Field>
OPLS_2005

> <r_lp_Energy>
18.8119

> <b_lp_Chiralities_Consistent>
1

> <s_lp_Variant>
AV-unprocessed.smi:2418-2

> <Gold.Version>
5.8.1

> <Gold.Id.Protein>
6NUR|6NUR_protein|mol2

> <Gold.PLP.Fitness>
41.6296

> <Gold.PLP.PLP>
-38.3420

> <Gold.PLP.part.hbond>
-2.0000

> <Gold.PLP.part.metal>
0.0000

> <Gold.PLP.part.buried>
1.5408

> <Gold.PLP.part.nonpolar>
-39.5585

> <Gold.PLP.part.repulsive>
0.1176

> <Gold.PLP.ligand.clash>
0.0000

> <Gold.PLP.ligand.torsion>
0.6851

> <Gold.PLP.Chemscore.Hbond>
1.5500

> <Gold.PLP.Chemscore.CHOScore>
0.0000

> <Gold.PLP.Chemscore.Metal>
0.0000

> <Gold.Chemscore.Hbonds>
donor molecule, donor type, donor heavy atom, donor atom, acceptor molecule, acceptor atom, score
      L1  H     8    28       P1  8028  1.00
      P1  H  7989  7998       L1     3  0.54

> <Gold.PLP.Chemscore.Internal.Correction>
0.0080

> <Gold.Rescore>
     Score         DG    S(hbond)    S(metal)    S(lipo)     H(rot)  DE(clash)    DE(int)     intcor
     13.01     -15.84       1.00        0.00     106.10       2.11       2.05       0.79       ----

> <Gold.Chemscore.Fitness>
13.0067

> <Gold.Chemscore.DG>
-15.8430

> <Gold.Chemscore.ZeroCoef>
-5.4800

> <Gold.Chemscore.Hbond>
1.0030

> <Gold.Chemscore.Metal>
0.0000

> <Gold.Chemscore.Lipo>
106.1010

> <Gold.Chemscore.Internal_Hbond>
0.0000

> <Gold.Chemscore.DEClash>
2.0480

> <Gold.Chemscore.DEInternal>
0.7884

> <Gold.Chemscore.Rot>
2.1097

> <Gold.Chemscore.Internal.Correction>
   9.000000E+99

> <Gold.Chemscore.Hbonds>
donor molecule, donor type, donor heavy atom, donor atom, acceptor molecule, acceptor atom, score
      L1  H     8    28       P1  8028  0.99
      P1  H  7989  7998       L1     3  0.01

> <Gold.Chemscore.Hbond.Weighted>
-3.3502

> <Gold.Chemscore.Metal.Weighted>
-0.0000

> <Gold.Chemscore.Lipo.Weighted>
-12.4138

> <Gold.Chemscore.Internal_Hbond.Weighted>
0.0000

> <Gold.Chemscore.DEClash.Weighted>
2.0480

> <Gold.Chemscore.DEInternal.Weighted>
0.7884

> <Gold.Chemscore.Rot.Weighted>
5.4009

> <Gold.Chemscore.Internal.Correction.Weighted>
   9.000000E+99

> <Gold.Protein.RotatedTorsions>
[ 6907 6896 6895 6894 ] final -142.78 input  -60.11 | X-H torsion
[ 7974 7965 7964 7962 ] final  136.00 input  175.53 | X-H torsion
[ 8008 7997 7996 7995 ] final  157.08 input   59.86 | X-H torsion
[ 10167 10162 10161 10158 ] final  164.48 input  -65.29 | X-H torsion
[ 10718 10713 10712 10709 ] final  -46.33 input   66.30 | X-H torsion
[ 10763 10752 10751 10750 ] final  -81.97 input  -60.55 | X-H torsion
[ 11005 11000 10999 10996 ] final -111.61 input  -57.11 | X-H torsion

> <Gold.Protein.ActiveResidues>
 VAL166  LYS551  ARG553  GLY616  TRP617  ASP618  TYR619  PRO620  LYS621  CYS622 
 ASP623  PHE694  ASN695  SER759  ASP760  ASP761  ALA762  ILE779  LEU786  VAL792 
 PHE793  MET794  SER795  GLU796  ALA797  LYS798  CYS799  TRP800  GLU811  SER814 

> <Gold.Protein.RotatedAtoms>
  151.0917  133.5311  159.2614 H   0  0  0  0  0  0  0  0  0  0  0  0  # atno 6907 bound_to 6896
  151.2175  135.0505  159.8946 H   0  0  0  0  0  0  0  0  0  0  0  0  # atno 6908 bound_to 6896
  152.5435  134.0724  159.8253 H   0  0  0  0  0  0  0  0  0  0  0  0  # atno 6909 bound_to 6896
  144.9608  139.4712  143.5480 H   0  0  0  0  0  0  0  0  0  0  0  0  # atno 7974 bound_to 7965
  156.2385  140.1895  156.7053 H   0  0  0  0  0  0  0  0  0  0  0  0  # atno 8008 bound_to 7997
  154.6152  140.0616  156.9572 H   0  0  0  0  0  0  0  0  0  0  0  0  # atno 8009 bound_to 7997
  155.1951  140.3287  155.4355 H   0  0  0  0  0  0  0  0  0  0  0  0  # atno 8010 bound_to 7997
  139.4890  144.4230  151.9163 H   0  0  0  0  0  0  0  0  0  0  0  0  # atno 10167 bound_to 10162
  156.2194  130.4165  149.9012 H   0  0  0  0  0  0  0  0  0  0  0  0  # atno 10718 bound_to 10713
  154.5700  135.5608  153.7086 H   0  0  0  0  0  0  0  0  0  0  0  0  # atno 10763 bound_to 10752
  153.0045  135.6295  154.2127 H   0  0  0  0  0  0  0  0  0  0  0  0  # atno 10764 bound_to 10752
  154.2066  135.2875  155.2952 H   0  0  0  0  0  0  0  0  0  0  0  0  # atno 10765 bound_to 10752
  141.0724  133.9358  157.2459 H   0  0  0  0  0  0  0  0  0  0  0  0  # atno 11005 bound_to 11000
  146.3352  139.8756  142.8832 LP  0  0  0  0  0  0  0  0  0  0  0  0  # atno 17320 bound_to 7965
  145.2703  141.0106  143.3776 LP  0  0  0  0  0  0  0  0  0  0  0  0  # atno 17321 bound_to 7965
  140.3675  144.2896  150.5924 LP  0  0  0  0  0  0  0  0  0  0  0  0  # atno 17342 bound_to 10162
  140.5348  143.2235  151.8180 LP  0  0  0  0  0  0  0  0  0  0  0  0  # atno 17343 bound_to 10162
  156.6663  130.8802  151.3555 LP  0  0  0  0  0  0  0  0  0  0  0  0  # atno 17370 bound_to 10713
  157.7080  130.9407  150.0993 LP  0  0  0  0  0  0  0  0  0  0  0  0  # atno 17371 bound_to 10713
  139.9537  135.0170  156.9066 LP  0  0  0  0  0  0  0  0  0  0  0  0  # atno 17394 bound_to 11000
  140.5646  134.0502  155.7410 LP  0  0  0  0  0  0  0  0  0  0  0  0  # atno 17395 bound_to 11000

$$$$
