AV-unprocessed.smi:2889|AV-procd|sdf|11111|dock1
  -GOLD-   2272015573D 1   1.00000     0.00000
 Structure written by MMmdl.
 36 37  0  0  0  0  0  0  0  0  1 V2000
  153.2615  142.4954  162.6187 C   0  0  0  0  0  0  0  0  0  0  0  0
  153.6110  141.7527  161.0013 S   0  0  0  0  0  0  0  0  0  0  0  0
  152.3697  142.5766  159.9530 C   0  0  1  0  0  0  0  0  0  0  0  0
  152.8855  143.9701  159.5467 C   0  0  0  0  0  0  0  0  0  0  0  0
  151.8996  144.7012  158.6231 C   0  0  0  0  0  0  0  0  0  0  0  0
  151.5919  143.8632  157.3745 C   0  0  0  0  0  0  0  0  0  0  0  0
  151.0552  142.4779  157.7617 C   0  0  0  0  0  0  0  0  0  0  0  0
  152.0246  141.7347  158.7011 C   0  0  2  0  0  0  0  0  0  0  0  0
  151.4192  140.4609  159.0942 N   0  0  0  0  0  0  0  0  0  0  0  0
  151.8644  139.0305  158.2391 S   0  0  0  0  0  0  0  0  0  0  0  0
  152.7686  139.4231  157.1467 O   0  0  0  0  0  0  0  0  0  0  0  0
  152.2959  138.0485  159.2453 O   0  0  0  0  0  0  0  0  0  0  0  0
  150.2532  138.4860  157.5240 C   0  0  0  0  0  0  0  0  0  0  0  0
  150.2128  138.7865  156.0511 C   0  0  0  0  0  0  0  0  0  0  0  0
  149.9535  137.8958  154.9724 C   0  0  0  0  0  0  0  0  0  0  0  0
  150.0392  138.6959  153.8700 C   0  0  0  0  0  0  0  0  0  0  0  0
  150.3332  139.9704  154.2300 O   0  0  0  0  0  0  0  0  0  0  0  0
  150.4438  140.0180  155.6243 N   0  0  0  0  0  0  0  0  0  0  0  0
  153.9693  142.1228  163.3589 H   0  0  0  0  0  0  0  0  0  0  0  0
  152.2557  142.2469  162.9552 H   0  0  0  0  0  0  0  0  0  0  0  0
  153.3556  143.5802  162.5694 H   0  0  0  0  0  0  0  0  0  0  0  0
  151.4672  142.7187  160.5493 H   0  0  0  0  0  0  0  0  0  0  0  0
  153.0676  144.5732  160.4366 H   0  0  0  0  0  0  0  0  0  0  0  0
  153.8468  143.8717  159.0402 H   0  0  0  0  0  0  0  0  0  0  0  0
  150.9755  144.9095  159.1635 H   0  0  0  0  0  0  0  0  0  0  0  0
  152.3118  145.6671  158.3300 H   0  0  0  0  0  0  0  0  0  0  0  0
  150.8662  144.3818  156.7473 H   0  0  0  0  0  0  0  0  0  0  0  0
  152.4960  143.7511  156.7750 H   0  0  0  0  0  0  0  0  0  0  0  0
  150.0853  142.5918  158.2482 H   0  0  0  0  0  0  0  0  0  0  0  0
  150.8795  141.8881  156.8611 H   0  0  0  0  0  0  0  0  0  0  0  0
  152.9510  141.5327  158.1610 H   0  0  0  0  0  0  0  0  0  0  0  0
  151.4946  140.3208  160.1013 H   0  0  0  0  0  0  0  0  0  0  0  0
  150.1568  137.4148  157.7039 H   0  0  0  0  0  0  0  0  0  0  0  0
  149.4442  138.9821  158.0593 H   0  0  0  0  0  0  0  0  0  0  0  0
  149.7328  136.8393  155.0037 H   0  0  0  0  0  0  0  0  0  0  0  0
  149.9240  138.5163  152.8112 H   0  0  0  0  0  0  0  0  0  0  0  0
  1  2  1  0  0  0  0
  1 19  1  0  0  0  0
  1 20  1  0  0  0  0
  1 21  1  0  0  0  0
  2  3  1  0  0  0  0
  3  8  1  0  0  0  0
  3  4  1  0  0  0  0
  3 22  1  0  0  0  0
  4  5  1  0  0  0  0
  4 23  1  0  0  0  0
  4 24  1  0  0  0  0
  5  6  1  0  0  0  0
  5 25  1  0  0  0  0
  5 26  1  0  0  0  0
  6  7  1  0  0  0  0
  6 27  1  0  0  0  0
  6 28  1  0  0  0  0
  7  8  1  0  0  0  0
  7 29  1  0  0  0  0
  7 30  1  0  0  0  0
  8  9  1  0  0  0  0
  8 31  1  0  0  0  0
  9 10  1  0  0  0  0
  9 32  1  0  0  0  0
 10 11  2  0  0  0  0
 10 12  2  0  0  0  0
 10 13  1  0  0  0  0
 13 14  1  0  0  0  0
 13 33  1  0  0  0  0
 13 34  1  0  0  0  0
 14 18  2  0  0  0  0
 14 15  1  0  0  0  0
 15 16  2  0  0  0  0
 15 35  1  0  0  0  0
 16 17  1  0  0  0  0
 16 36  1  0  0  0  0
 17 18  1  0  0  0  0
M  END
> <s_m_source_file>
AV-unprocessed.smi

> <i_m_source_file_index>
2889

> <i_lp_mmshare_version>
43012

> <i_f3d_flags>
0

> <s_epik_input>
W0NIM11TW0NAQEhdMVtDSDJdW0NIMl1bQ0gyXVtDSDJdW0NASF0xW05IXVMoPU8pKD1PKVtDSDJdYzJbY0hdW2NIXW9uMg==

> <s_epik_cmdline>
J2VwaWtfcHl0aG9uJywgJy1waCcsICc3LjAnLCAnLXRuJywgJzgnLCAnLW1hJywgJzIwMCcsICctbWV0YWxfYmluZGluZycsICctaW1hZScsICc8aW5maWxlLm1hZT4nLCAnLW9tYWUnLCAnPG91dGZpbGUubWFlPic=

> <r_lp_tautomer_probability>
1

> <r_epik_Ionization_Penalty>
0.000229547

> <r_epik_Ionization_Penalty_Charging>
0

> <r_epik_Ionization_Penalty_Neutral>
0.000229547

> <r_epik_State_Penalty>
-0

> <r_epik_Charging_Adjusted_Penalty>
0

> <i_epik_Tot_Q>
0

> <i_epik_Tot_abs_Q>
0

> <r_epik_Metal_State_Penalty>
0.145979

> <b_epik_Metal_Only>
0

> <s_lp_Force_Field>
OPLS_2005

> <r_lp_Energy>
3.91212

> <b_lp_Chiralities_Consistent>
1

> <s_lp_Variant>
AV-unprocessed.smi:2889-4

> <Gold.Version>
5.8.1

> <Gold.Id.Protein>
6NUR|6NUR_protein|mol2

> <Gold.PLP.Fitness>
47.0895

> <Gold.PLP.PLP>
-37.3600

> <Gold.PLP.part.hbond>
-2.0000

> <Gold.PLP.part.metal>
0.0000

> <Gold.PLP.part.buried>
-5.9632

> <Gold.PLP.part.nonpolar>
-30.2851

> <Gold.PLP.part.repulsive>
0.1380

> <Gold.PLP.ligand.clash>
0.0000

> <Gold.PLP.ligand.torsion>
1.1296

> <Gold.PLP.Chemscore.Hbond>
2.0000

> <Gold.PLP.Chemscore.CHOScore>
1.9298

> <Gold.PLP.Chemscore.Metal>
0.0000

> <Gold.Chemscore.Hbonds>
donor molecule, donor type, donor heavy atom, donor atom, acceptor molecule, acceptor atom, score
      P1  H  7989  7998       L1    17  1.00
      P1  H  7997  8008       L1    11  1.00
      L1  C    16    36       P1  7948  0.70
      L1  C    16    36       P1  7957  0.98

> <Gold.PLP.Chemscore.Internal.Correction>
0.1995

> <Gold.Rescore>
     Score         DG    S(hbond)    S(metal)    S(lipo)     H(rot)  DE(clash)    DE(int)     intcor
     18.12     -20.55       1.96        0.00     112.41       1.81       0.12       2.31       ----

> <Gold.Chemscore.Fitness>
18.1176

> <Gold.Chemscore.DG>
-20.5502

> <Gold.Chemscore.ZeroCoef>
-5.4800

> <Gold.Chemscore.Hbond>
1.9584

> <Gold.Chemscore.Metal>
0.0000

> <Gold.Chemscore.Lipo>
112.4084

> <Gold.Chemscore.Internal_Hbond>
0.0000

> <Gold.Chemscore.DEClash>
0.1201

> <Gold.Chemscore.DEInternal>
2.3125

> <Gold.Chemscore.Rot>
1.8058

> <Gold.Chemscore.Internal.Correction>
   9.000000E+99

> <Gold.Chemscore.Hbonds>
donor molecule, donor type, donor heavy atom, donor atom, acceptor molecule, acceptor atom, score
      P1  H  7989  7998       L1    17  0.76
      P1  H  7997  8008       L1    11  1.00

> <Gold.Chemscore.Hbond.Weighted>
-6.5412

> <Gold.Chemscore.Metal.Weighted>
-0.0000

> <Gold.Chemscore.Lipo.Weighted>
-13.1518

> <Gold.Chemscore.Internal_Hbond.Weighted>
0.0000

> <Gold.Chemscore.DEClash.Weighted>
0.1201

> <Gold.Chemscore.DEInternal.Weighted>
2.3125

> <Gold.Chemscore.Rot.Weighted>
4.6228

> <Gold.Chemscore.Internal.Correction.Weighted>
   9.000000E+99

> <Gold.Protein.RotatedTorsions>
[ 6907 6896 6895 6894 ] final  -16.36 input  -60.11 | X-H torsion
[ 7974 7965 7964 7962 ] final  126.61 input  175.53 | X-H torsion
[ 8008 7997 7996 7995 ] final  -63.79 input   59.86 | X-H torsion
[ 10167 10162 10161 10158 ] final   32.60 input  -65.29 | X-H torsion
[ 10718 10713 10712 10709 ] final -171.15 input   66.30 | X-H torsion
[ 10763 10752 10751 10750 ] final   94.90 input  -60.55 | X-H torsion
[ 11005 11000 10999 10996 ] final  -33.38 input  -57.11 | X-H torsion

> <Gold.Protein.ActiveResidues>
 VAL166  LYS551  ARG553  GLY616  TRP617  ASP618  TYR619  PRO620  LYS621  CYS622 
 ASP623  PHE694  ASN695  SER759  ASP760  ASP761  ALA762  ILE779  LEU786  VAL792 
 PHE793  MET794  SER795  GLU796  ALA797  LYS798  CYS799  TRP800  GLU811  SER814 

> <Gold.Protein.RotatedAtoms>
  151.3098  135.0791  159.9268 H   0  0  0  0  0  0  0  0  0  0  0  0  # atno 6907 bound_to 6896
  152.5280  133.9747  159.7789 H   0  0  0  0  0  0  0  0  0  0  0  0  # atno 6908 bound_to 6896
  151.0049  133.5969  159.2720 H   0  0  0  0  0  0  0  0  0  0  0  0  # atno 6909 bound_to 6896
  145.0598  139.3814  143.5012 H   0  0  0  0  0  0  0  0  0  0  0  0  # atno 7974 bound_to 7965
  154.4574  140.0967  156.6796 H   0  0  0  0  0  0  0  0  0  0  0  0  # atno 8008 bound_to 7997
  155.5097  140.3476  155.4367 H   0  0  0  0  0  0  0  0  0  0  0  0  # atno 8009 bound_to 7997
  156.0804  140.1371  156.9708 H   0  0  0  0  0  0  0  0  0  0  0  0  # atno 8010 bound_to 7997
  140.4484  144.1085  150.6187 H   0  0  0  0  0  0  0  0  0  0  0  0  # atno 10167 bound_to 10162
  156.7367  130.9327  151.3108 H   0  0  0  0  0  0  0  0  0  0  0  0  # atno 10718 bound_to 10713
  153.2470  135.4273  155.0758 H   0  0  0  0  0  0  0  0  0  0  0  0  # atno 10763 bound_to 10752
  154.8365  135.3416  154.6567 H   0  0  0  0  0  0  0  0  0  0  0  0  # atno 10764 bound_to 10752
  153.6989  135.7029  153.5125 H   0  0  0  0  0  0  0  0  0  0  0  0  # atno 10765 bound_to 10752
  140.9630  133.7153  156.1400 H   0  0  0  0  0  0  0  0  0  0  0  0  # atno 11005 bound_to 11000
  146.3523  140.0290  142.8652 LP  0  0  0  0  0  0  0  0  0  0  0  0  # atno 17320 bound_to 7965
  145.1423  140.9578  143.4481 LP  0  0  0  0  0  0  0  0  0  0  0  0  # atno 17321 bound_to 7965
  140.4237  143.2600  151.9684 LP  0  0  0  0  0  0  0  0  0  0  0  0  # atno 17342 bound_to 10162
  139.4794  144.5808  151.7936 LP  0  0  0  0  0  0  0  0  0  0  0  0  # atno 17343 bound_to 10162
  157.6836  130.9163  150.0329 LP  0  0  0  0  0  0  0  0  0  0  0  0  # atno 17370 bound_to 10713
  156.1492  130.3642  149.9464 LP  0  0  0  0  0  0  0  0  0  0  0  0  # atno 17371 bound_to 10713
  140.7440  134.4119  157.5551 LP  0  0  0  0  0  0  0  0  0  0  0  0  # atno 17394 bound_to 11000
  139.8885  134.8855  156.2473 LP  0  0  0  0  0  0  0  0  0  0  0  0  # atno 17395 bound_to 11000

$$$$
