AV-unprocessed.smi:770|AV-procd|sdf|3679|dock8
  -GOLD-   22720 1 93D 1   1.00000     0.00000
 Structure written by MMmdl.
 37 38  0  0  0  0  0  0  0  0  1 V2000
  143.6037  135.9549  152.5840 C   0  0  0  0  0  0  0  0  0  0  0  0
  144.6295  136.5637  152.3227 C   0  0  0  0  0  0  0  0  0  0  0  0
  145.8551  137.3084  151.9842 C   0  0  0  0  0  0  0  0  0  0  0  0
  145.8196  138.6879  152.4563 N   0  0  0  0  0  0  0  0  0  0  0  0
  146.7575  139.2629  153.2227 C   0  0  0  0  0  0  0  0  0  0  0  0
  147.8006  138.7072  153.5675 O   0  0  0  0  0  0  0  0  0  0  0  0
  146.3996  140.4980  153.6040 N   0  0  0  0  0  0  0  0  0  0  0  0
  147.1342  141.3354  154.5501 C   0  0  0  0  0  0  0  0  0  0  0  0
  148.5853  141.5964  154.0963 C   0  0  0  0  0  0  0  0  0  0  0  0
  149.6037  141.3388  155.1689 C   0  0  0  0  0  0  0  0  0  0  0  0
  150.2752  140.1636  155.4030 C   0  0  0  0  0  0  0  0  0  0  0  0
  151.4323  140.3215  156.6953 S   0  0  0  0  0  0  0  0  0  0  0  0
  150.9371  142.0004  156.8865 C   0  0  0  0  0  0  0  0  0  0  0  0
  151.5097  142.8360  157.8403 N   0  0  0  0  0  0  0  0  0  0  0  0
  151.6327  144.2877  157.7523 C   0  0  0  0  0  0  0  0  0  0  0  0
  152.0502  144.8026  159.1274 C   0  0  0  0  0  0  0  0  0  0  0  0
  152.8587  143.6413  159.6715 C   0  0  0  0  0  0  0  0  0  0  0  0
  152.1129  142.4342  159.1072 C   0  0  0  0  0  0  0  0  0  0  0  0
  149.9786  142.3712  156.0338 N   0  0  0  0  0  0  0  0  0  0  0  0
  142.7043  135.4261  152.8058 H   0  0  0  0  0  0  0  0  0  0  0  0
  146.7138  136.7736  152.3928 H   0  0  0  0  0  0  0  0  0  0  0  0
  145.9610  137.3074  150.8994 H   0  0  0  0  0  0  0  0  0  0  0  0
  144.9971  139.2261  152.2262 H   0  0  0  0  0  0  0  0  0  0  0  0
  145.5233  140.8638  153.2613 H   0  0  0  0  0  0  0  0  0  0  0  0
  146.6152  142.2828  154.7058 H   0  0  0  0  0  0  0  0  0  0  0  0
  147.1393  140.8310  155.5165 H   0  0  0  0  0  0  0  0  0  0  0  0
  148.8017  140.9770  153.2253 H   0  0  0  0  0  0  0  0  0  0  0  0
  148.6690  142.6272  153.7502 H   0  0  0  0  0  0  0  0  0  0  0  0
  150.1778  139.2254  154.8776 H   0  0  0  0  0  0  0  0  0  0  0  0
  152.3942  144.5246  157.0086 H   0  0  0  0  0  0  0  0  0  0  0  0
  150.6969  144.7428  157.4266 H   0  0  0  0  0  0  0  0  0  0  0  0
  152.6136  145.7348  159.0802 H   0  0  0  0  0  0  0  0  0  0  0  0
  151.1690  144.9663  159.7491 H   0  0  0  0  0  0  0  0  0  0  0  0
  153.8729  143.6751  159.2707 H   0  0  0  0  0  0  0  0  0  0  0  0
  152.9216  143.6334  160.7600 H   0  0  0  0  0  0  0  0  0  0  0  0
  151.3170  142.1260  159.7861 H   0  0  0  0  0  0  0  0  0  0  0  0
  152.7841  141.5853  158.9726 H   0  0  0  0  0  0  0  0  0  0  0  0
  1  2  3  0  0  0  0
  1 20  1  0  0  0  0
  2  3  1  0  0  0  0
  3  4  1  0  0  0  0
  3 21  1  0  0  0  0
  3 22  1  0  0  0  0
  4  5  1  0  0  0  0
  4 23  1  0  0  0  0
  5  6  2  0  0  0  0
  5  7  1  0  0  0  0
  7  8  1  0  0  0  0
  7 24  1  0  0  0  0
  8  9  1  0  0  0  0
  8 25  1  0  0  0  0
  8 26  1  0  0  0  0
  9 10  1  0  0  0  0
  9 27  1  0  0  0  0
  9 28  1  0  0  0  0
 10 19  1  0  0  0  0
 10 11  2  0  0  0  0
 11 12  1  0  0  0  0
 11 29  1  0  0  0  0
 12 13  1  0  0  0  0
 13 14  1  0  0  0  0
 13 19  2  0  0  0  0
 14 18  1  0  0  0  0
 14 15  1  0  0  0  0
 15 16  1  0  0  0  0
 15 30  1  0  0  0  0
 15 31  1  0  0  0  0
 16 17  1  0  0  0  0
 16 32  1  0  0  0  0
 16 33  1  0  0  0  0
 17 18  1  0  0  0  0
 17 34  1  0  0  0  0
 17 35  1  0  0  0  0
 18 36  1  0  0  0  0
 18 37  1  0  0  0  0
M  END
> <s_m_source_file>
AV-unprocessed.smi

> <i_m_source_file_index>
770

> <i_lp_mmshare_version>
43012

> <i_f3d_flags>
0

> <s_epik_input>
W0NIXSNDW0NIMl1bTkhdQyg9TylbTkhdW0NIMl1bQ0gyXWMxW2NIXXNjKG4xKU4yW0NIMl1bQ0gyXVtDSDJdW0NIMl0y

> <s_epik_cmdline>
J2VwaWtfcHl0aG9uJywgJy1waCcsICc3LjAnLCAnLXRuJywgJzgnLCAnLW1hJywgJzIwMCcsICctbWV0YWxfYmluZGluZycsICctaW1hZScsICc8aW5maWxlLm1hZT4nLCAnLW9tYWUnLCAnPG91dGZpbGUubWFlPic=

> <r_epik_Ionization_Penalty>
0.174338

> <r_epik_Ionization_Penalty_Charging>
0

> <r_epik_Ionization_Penalty_Neutral>
0.174338

> <r_epik_State_Penalty>
0.163676

> <r_epik_Charging_Adjusted_Penalty>
0.163676

> <i_epik_Tot_Q>
0

> <i_epik_Tot_abs_Q>
0

> <r_epik_Metal_State_Penalty>
0.126089

> <b_epik_Metal_Only>
0

> <s_lp_Force_Field>
OPLS_2005

> <r_lp_Energy>
12.0865

> <b_lp_Chiralities_Consistent>
1

> <s_lp_Variant>
AV-unprocessed.smi:770-1

> <Gold.Version>
5.8.1

> <Gold.Id.Protein>
6NUR|6NUR_protein|mol2

> <Gold.PLP.Fitness>
44.9039

> <Gold.PLP.PLP>
-41.0622

> <Gold.PLP.part.hbond>
-2.1882

> <Gold.PLP.part.metal>
0.0000

> <Gold.PLP.part.buried>
-3.3779

> <Gold.PLP.part.nonpolar>
-39.5730

> <Gold.PLP.part.repulsive>
3.7500

> <Gold.PLP.ligand.clash>
0.0000

> <Gold.PLP.ligand.torsion>
1.0609

> <Gold.PLP.Chemscore.Hbond>
1.9833

> <Gold.PLP.Chemscore.CHOScore>
0.0000

> <Gold.PLP.Chemscore.Metal>
0.0000

> <Gold.Chemscore.Hbonds>
donor molecule, donor type, donor heavy atom, donor atom, acceptor molecule, acceptor atom, score
      L1  H     4    23       P1 10175  1.00
      L1  H     7    24       P1 10175  0.98

> <Gold.PLP.Chemscore.Internal.Correction>
0.0135

> <Gold.Rescore>
     Score         DG    S(hbond)    S(metal)    S(lipo)     H(rot)  DE(clash)    DE(int)     intcor
     16.04     -18.65       1.87        0.00      96.98       1.73       1.71       0.90       ----

> <Gold.Chemscore.Fitness>
16.0406

> <Gold.Chemscore.DG>
-18.6488

> <Gold.Chemscore.ZeroCoef>
-5.4800

> <Gold.Chemscore.Hbond>
1.8690

> <Gold.Chemscore.Metal>
0.0000

> <Gold.Chemscore.Lipo>
96.9804

> <Gold.Chemscore.Internal_Hbond>
0.0000

> <Gold.Chemscore.DEClash>
1.7059

> <Gold.Chemscore.DEInternal>
0.9024

> <Gold.Chemscore.Rot>
1.7267

> <Gold.Chemscore.Internal.Correction>
   9.000000E+99

> <Gold.Chemscore.Hbonds>
donor molecule, donor type, donor heavy atom, donor atom, acceptor molecule, acceptor atom, score
      L1  H     4    23       P1 10175  0.99
      L1  H     7    24       P1 10175  0.57

> <Gold.Chemscore.Hbond.Weighted>
-6.2425

> <Gold.Chemscore.Metal.Weighted>
-0.0000

> <Gold.Chemscore.Lipo.Weighted>
-11.3467

> <Gold.Chemscore.Internal_Hbond.Weighted>
0.0000

> <Gold.Chemscore.DEClash.Weighted>
1.7059

> <Gold.Chemscore.DEInternal.Weighted>
0.9024

> <Gold.Chemscore.Rot.Weighted>
4.4204

> <Gold.Chemscore.Internal.Correction.Weighted>
   9.000000E+99

> <Gold.Protein.RotatedTorsions>
[ 6907 6896 6895 6894 ] final   38.68 input  -60.11 | X-H torsion
[ 7974 7965 7964 7962 ] final    6.65 input  175.53 | X-H torsion
[ 8008 7997 7996 7995 ] final  -78.94 input   59.86 | X-H torsion
[ 10167 10162 10161 10158 ] final   84.87 input  -65.29 | X-H torsion
[ 10718 10713 10712 10709 ] final  130.65 input   66.30 | X-H torsion
[ 10763 10752 10751 10750 ] final  -69.37 input  -60.55 | X-H torsion
[ 11005 11000 10999 10996 ] final   50.65 input  -57.11 | X-H torsion

> <Gold.Protein.ActiveResidues>
 VAL166  LYS551  ARG553  GLY616  TRP617  ASP618  TYR619  PRO620  LYS621  CYS622 
 ASP623  PHE694  ASN695  SER759  ASP760  ASP761  ALA762  ILE779  LEU786  VAL792 
 PHE793  MET794  SER795  GLU796  ALA797  LYS798  CYS799  TRP800  GLU811  SER814 

> <Gold.Protein.RotatedAtoms>
  152.1596  134.8923  160.0542 H   0  0  0  0  0  0  0  0  0  0  0  0  # atno 6907 bound_to 6896
  151.9924  133.3791  159.4158 H   0  0  0  0  0  0  0  0  0  0  0  0  # atno 6908 bound_to 6896
  150.6886  134.3845  159.5092 H   0  0  0  0  0  0  0  0  0  0  0  0  # atno 6909 bound_to 6896
  146.2433  140.0201  142.8399 H   0  0  0  0  0  0  0  0  0  0  0  0  # atno 7974 bound_to 7965
  154.5737  140.0686  156.9002 H   0  0  0  0  0  0  0  0  0  0  0  0  # atno 8008 bound_to 7997
  155.2588  140.3357  155.4257 H   0  0  0  0  0  0  0  0  0  0  0  0  # atno 8009 bound_to 7997
  156.2137  140.1770  156.7621 H   0  0  0  0  0  0  0  0  0  0  0  0  # atno 8010 bound_to 7997
  139.9035  144.6315  150.8611 H   0  0  0  0  0  0  0  0  0  0  0  0  # atno 10167 bound_to 10162
  157.5042  131.1095  150.9384 H   0  0  0  0  0  0  0  0  0  0  0  0  # atno 10718 bound_to 10713
  154.4024  135.6028  153.5905 H   0  0  0  0  0  0  0  0  0  0  0  0  # atno 10763 bound_to 10752
  152.9788  135.5909  154.4168 H   0  0  0  0  0  0  0  0  0  0  0  0  # atno 10764 bound_to 10752
  154.3969  135.2842  155.2099 H   0  0  0  0  0  0  0  0  0  0  0  0  # atno 10765 bound_to 10752
  140.1000  134.5094  155.8772 H   0  0  0  0  0  0  0  0  0  0  0  0  # atno 11005 bound_to 11000
  145.1249  140.9484  143.4578 LP  0  0  0  0  0  0  0  0  0  0  0  0  # atno 17320 bound_to 7965
  145.0445  139.3233  143.5960 LP  0  0  0  0  0  0  0  0  0  0  0  0  # atno 17321 bound_to 7965
  140.7701  143.3418  151.2191 LP  0  0  0  0  0  0  0  0  0  0  0  0  # atno 17342 bound_to 10162
  139.7004  143.9542  152.2903 LP  0  0  0  0  0  0  0  0  0  0  0  0  # atno 17343 bound_to 10162
  157.0045  130.5613  149.5314 LP  0  0  0  0  0  0  0  0  0  0  0  0  # atno 17370 bound_to 10713
  156.0248  130.5342  150.8376 LP  0  0  0  0  0  0  0  0  0  0  0  0  # atno 17371 bound_to 10713
  141.2103  133.6693  156.6498 LP  0  0  0  0  0  0  0  0  0  0  0  0  # atno 17394 bound_to 11000
  140.3234  134.7989  157.4270 LP  0  0  0  0  0  0  0  0  0  0  0  0  # atno 17395 bound_to 11000

$$$$
