AV-unprocessed.smi:3293|AV-procd|sdf|12629|dock5
  -GOLD-   2272018563D 1   1.00000     0.00000
 Structure written by MMmdl.
 44 45  0  0  0  0  0  0  0  0  2 V2000
  151.5690  144.4326  157.7176 C   0  0  0  0  0  0  0  0  0  0  0  0
  152.0243  143.7307  158.9864 C   0  0  0  0  0  0  0  0  0  0  0  0
  152.0037  144.3695  160.1732 C   0  0  0  0  0  0  0  0  0  0  0  0
  152.4854  143.7757  161.4857 C   0  0  0  0  0  0  0  0  0  0  0  0
  152.8340  142.2818  161.3801 C   0  0  0  0  0  0  0  0  0  0  0  0
  153.4970  141.9548  160.0311 C   0  0  1  0  0  0  0  0  0  0  0  0
  154.0716  140.5279  159.9974 C   0  0  0  0  0  0  0  0  0  0  0  0
  152.5476  142.2945  158.8477 C   0  0  1  0  0  0  0  0  0  0  0  0
  151.3988  141.2661  158.6767 C   0  0  0  0  0  0  0  0  0  0  0  0
  151.5106  140.4831  157.4305 N   0  3  0  0  0  0  0  0  0  0  0  0
  151.1963  141.2474  156.2084 C   0  0  0  0  0  0  0  0  0  0  0  0
  150.5582  140.3457  155.1436 C   0  0  0  0  0  0  0  0  0  0  0  0
  149.1628  140.7923  154.8089 C   0  0  0  0  0  0  0  0  0  0  0  0
  148.2170  140.1418  153.9658 C   0  0  0  0  0  0  0  0  0  0  0  0
  147.0736  140.8001  153.8718 N   0  0  0  0  0  0  0  0  0  0  0  0
  147.2467  141.8883  154.6496 N   0  0  0  0  0  0  0  0  0  0  0  0
  146.1728  142.8496  154.7808 C   0  0  0  0  0  0  0  0  0  0  0  0
  148.4967  141.9093  155.2297 C   0  0  0  0  0  0  0  0  0  0  0  0
  152.3053  144.3046  156.9237 H   0  0  0  0  0  0  0  0  0  0  0  0
  151.4479  145.5035  157.8857 H   0  0  0  0  0  0  0  0  0  0  0  0
  150.6105  144.0496  157.3714 H   0  0  0  0  0  0  0  0  0  0  0  0
  151.6516  145.3897  160.2250 H   0  0  0  0  0  0  0  0  0  0  0  0
  153.3681  144.3372  161.7929 H   0  0  0  0  0  0  0  0  0  0  0  0
  151.7295  143.9324  162.2556 H   0  0  0  0  0  0  0  0  0  0  0  0
  153.4899  142.0053  162.2064 H   0  0  0  0  0  0  0  0  0  0  0  0
  151.9298  141.6849  161.5014 H   0  0  0  0  0  0  0  0  0  0  0  0
  154.3591  142.6178  159.9364 H   0  0  0  0  0  0  0  0  0  0  0  0
  153.3197  139.7782  160.2428 H   0  0  0  0  0  0  0  0  0  0  0  0
  154.8783  140.4199  160.7229 H   0  0  0  0  0  0  0  0  0  0  0  0
  154.4819  140.2906  159.0155 H   0  0  0  0  0  0  0  0  0  0  0  0
  153.1595  142.2623  157.9448 H   0  0  0  0  0  0  0  0  0  0  0  0
  151.3963  140.5492  159.4964 H   0  0  0  0  0  0  0  0  0  0  0  0
  150.4331  141.7726  158.6945 H   0  0  0  0  0  0  0  0  0  0  0  0
  152.4556  140.1339  157.3561 H   0  0  0  0  0  0  0  0  0  0  0  0
  150.5183  142.0645  156.4590 H   0  0  0  0  0  0  0  0  0  0  0  0
  152.1129  141.6946  155.8207 H   0  0  0  0  0  0  0  0  0  0  0  0
  151.1831  140.3457  154.2496 H   0  0  0  0  0  0  0  0  0  0  0  0
  150.5515  139.3151  155.5007 H   0  0  0  0  0  0  0  0  0  0  0  0
  148.3288  139.2162  153.4205 H   0  0  0  0  0  0  0  0  0  0  0  0
  146.5065  143.7069  155.3664 H   0  0  0  0  0  0  0  0  0  0  0  0
  145.3229  142.3862  155.2826 H   0  0  0  0  0  0  0  0  0  0  0  0
  145.8626  143.1947  153.7941 H   0  0  0  0  0  0  0  0  0  0  0  0
  148.8068  142.7103  155.8846 H   0  0  0  0  0  0  0  0  0  0  0  0
  150.8794  139.6969  157.4895 H   0  0  0  0  0  0  0  0  0  0  0  0
  1  2  1  0  0  0  0
  1 19  1  0  0  0  0
  1 20  1  0  0  0  0
  1 21  1  0  0  0  0
  2  8  1  0  0  0  0
  2  3  2  0  0  0  0
  3  4  1  0  0  0  0
  3 22  1  0  0  0  0
  4  5  1  0  0  0  0
  4 23  1  0  0  0  0
  4 24  1  0  0  0  0
  5  6  1  0  0  0  0
  5 25  1  0  0  0  0
  5 26  1  0  0  0  0
  6  7  1  0  0  0  0
  6  8  1  0  0  0  0
  6 27  1  0  0  0  0
  7 28  1  0  0  0  0
  7 29  1  0  0  0  0
  7 30  1  0  0  0  0
  8  9  1  0  0  0  0
  8 31  1  0  0  0  0
  9 10  1  0  0  0  0
  9 32  1  0  0  0  0
  9 33  1  0  0  0  0
 10 11  1  0  0  0  0
 10 34  1  0  0  0  0
 10 44  1  0  0  0  0
 11 12  1  0  0  0  0
 11 35  1  0  0  0  0
 11 36  1  0  0  0  0
 12 13  1  0  0  0  0
 12 37  1  0  0  0  0
 12 38  1  0  0  0  0
 13 18  2  0  0  0  0
 13 14  1  0  0  0  0
 14 15  2  0  0  0  0
 14 39  1  0  0  0  0
 15 16  1  0  0  0  0
 16 17  1  0  0  0  0
 16 18  1  0  0  0  0
 17 40  1  0  0  0  0
 17 41  1  0  0  0  0
 17 42  1  0  0  0  0
 18 43  1  0  0  0  0
M  CHG  1  10   1
M  END
> <s_m_source_file>
AV-unprocessed.smi

> <i_m_source_file_index>
3293

> <i_lp_mmshare_version>
43012

> <i_f3d_flags>
0

> <s_epik_input>
W0NIM11DMT1bQ0hdW0NIMl1bQ0gyXVtDQEBIXShbQ0gzXSlbQ0BIXTFbQ0gyXVtOSF1bQ0gyXVtDSDJdYzJbY0hdbm4oW0NIM10pW2NIXTI=

> <s_epik_cmdline>
J2VwaWtfcHl0aG9uJywgJy1waCcsICc3LjAnLCAnLXRuJywgJzgnLCAnLW1hJywgJzIwMCcsICctbWV0YWxfYmluZGluZycsICctaW1hZScsICc8aW5maWxlLm1hZT4nLCAnLW9tYWUnLCAnPG91dGZpbGUubWFlPic=

> <r_lp_tautomer_probability>
1

> <r_epik_Ionization_Penalty>
0.000598621

> <r_epik_Ionization_Penalty_Charging>
0.000582095

> <r_epik_Ionization_Penalty_Neutral>
1.65262e-05

> <r_epik_State_Penalty>
-0

> <r_epik_Charging_Adjusted_Penalty>
0.000582095

> <i_epik_Tot_Q>
1

> <i_epik_Tot_abs_Q>
1

> <r_epik_Metal_State_Penalty>
-0

> <b_epik_Metal_Only>
0

> <s_lp_Force_Field>
OPLS_2005

> <r_lp_Energy>
11.7739

> <b_lp_Chiralities_Consistent>
1

> <s_lp_Variant>
AV-unprocessed.smi:3293-1

> <Gold.Version>
5.8.1

> <Gold.Id.Protein>
6NUR|6NUR_protein|mol2

> <Gold.PLP.Fitness>
51.6330

> <Gold.PLP.PLP>
-49.7615

> <Gold.PLP.part.hbond>
0.0000

> <Gold.PLP.part.metal>
0.0000

> <Gold.PLP.part.buried>
-3.4503

> <Gold.PLP.part.nonpolar>
-46.5965

> <Gold.PLP.part.repulsive>
1.2699

> <Gold.PLP.ligand.clash>
0.0000

> <Gold.PLP.ligand.torsion>
1.3974

> <Gold.PLP.Chemscore.Hbond>
0.0000

> <Gold.PLP.Chemscore.CHOScore>
1.5492

> <Gold.PLP.Chemscore.Metal>
0.0000

> <Gold.Chemscore.Hbonds>
donor molecule, donor type, donor heavy atom, donor atom, acceptor molecule, acceptor atom, score
      L1  C    14    39       P1  7957  0.24
      L1  C    18    43       P1  8028  0.97

> <Gold.PLP.Chemscore.Internal.Correction>
0.0187

> <Gold.Rescore>
     Score         DG    S(hbond)    S(metal)    S(lipo)     H(rot)  DE(clash)    DE(int)     intcor
     15.35     -18.46       0.00        0.00     143.40       1.48       1.66       1.45       ----

> <Gold.Chemscore.Fitness>
15.3535

> <Gold.Chemscore.DG>
-18.4570

> <Gold.Chemscore.ZeroCoef>
-5.4800

> <Gold.Chemscore.Hbond>
0.0000

> <Gold.Chemscore.Metal>
0.0000

> <Gold.Chemscore.Lipo>
143.4002

> <Gold.Chemscore.Internal_Hbond>
0.0000

> <Gold.Chemscore.DEClash>
1.6575

> <Gold.Chemscore.DEInternal>
1.4460

> <Gold.Chemscore.Rot>
1.4847

> <Gold.Chemscore.Internal.Correction>
   9.000000E+99

> <Gold.Chemscore.Hbond.Weighted>
-0.0000

> <Gold.Chemscore.Metal.Weighted>
-0.0000

> <Gold.Chemscore.Lipo.Weighted>
-16.7778

> <Gold.Chemscore.Internal_Hbond.Weighted>
0.0000

> <Gold.Chemscore.DEClash.Weighted>
1.6575

> <Gold.Chemscore.DEInternal.Weighted>
1.4460

> <Gold.Chemscore.Rot.Weighted>
3.8008

> <Gold.Chemscore.Internal.Correction.Weighted>
   9.000000E+99

> <Gold.Protein.RotatedTorsions>
[ 6907 6896 6895 6894 ] final   17.02 input  -60.11 | X-H torsion
[ 7974 7965 7964 7962 ] final   48.75 input  175.53 | X-H torsion
[ 8008 7997 7996 7995 ] final   38.26 input   59.86 | X-H torsion
[ 10167 10162 10161 10158 ] final    5.75 input  -65.29 | X-H torsion
[ 10718 10713 10712 10709 ] final  -35.70 input   66.30 | X-H torsion
[ 10763 10752 10751 10750 ] final  117.66 input  -60.55 | X-H torsion
[ 11005 11000 10999 10996 ] final  -15.40 input  -57.11 | X-H torsion

> <Gold.Protein.ActiveResidues>
 VAL166  LYS551  ARG553  GLY616  TRP617  ASP618  TYR619  PRO620  LYS621  CYS622 
 ASP623  PHE694  ASN695  SER759  ASP760  ASP761  ALA762  ILE779  LEU786  VAL792 
 PHE793  MET794  SER795  GLU796  ALA797  LYS798  CYS799  TRP800  GLU811  SER814 

> <Gold.Protein.RotatedAtoms>
  151.8431  135.0583  160.0450 H   0  0  0  0  0  0  0  0  0  0  0  0  # atno 6907 bound_to 6896
  152.2794  133.5451  159.5496 H   0  0  0  0  0  0  0  0  0  0  0  0  # atno 6908 bound_to 6896
  150.7183  134.0502  159.3838 H   0  0  0  0  0  0  0  0  0  0  0  0  # atno 6909 bound_to 6896
  146.0174  139.4612  142.9918 H   0  0  0  0  0  0  0  0  0  0  0  0  # atno 7974 bound_to 7965
  155.2173  140.3328  155.4320 H   0  0  0  0  0  0  0  0  0  0  0  0  # atno 8008 bound_to 7997
  156.2347  140.1867  156.7198 H   0  0  0  0  0  0  0  0  0  0  0  0  # atno 8009 bound_to 7997
  154.6038  140.0619  156.9390 H   0  0  0  0  0  0  0  0  0  0  0  0  # atno 8010 bound_to 7997
  140.6465  143.7650  150.7507 H   0  0  0  0  0  0  0  0  0  0  0  0  # atno 10167 bound_to 10162
  156.3355  130.4286  149.7833 H   0  0  0  0  0  0  0  0  0  0  0  0  # atno 10718 bound_to 10713
  153.5558  135.3530  155.2778 H   0  0  0  0  0  0  0  0  0  0  0  0  # atno 10763 bound_to 10752
  154.8701  135.4125  154.2886 H   0  0  0  0  0  0  0  0  0  0  0  0  # atno 10764 bound_to 10752
  153.3621  135.7060  153.6773 H   0  0  0  0  0  0  0  0  0  0  0  0  # atno 10765 bound_to 10752
  140.7963  133.8249  155.9427 H   0  0  0  0  0  0  0  0  0  0  0  0  # atno 11005 bound_to 11000
  145.7246  141.0063  143.1384 LP  0  0  0  0  0  0  0  0  0  0  0  0  # atno 17320 bound_to 7965
  144.6976  139.8912  143.7453 LP  0  0  0  0  0  0  0  0  0  0  0  0  # atno 17321 bound_to 7965
  140.1292  143.4542  152.2265 LP  0  0  0  0  0  0  0  0  0  0  0  0  # atno 17342 bound_to 10162
  139.5676  144.7444  151.3979 LP  0  0  0  0  0  0  0  0  0  0  0  0  # atno 17343 bound_to 10162
  156.5089  130.8163  151.3161 LP  0  0  0  0  0  0  0  0  0  0  0  0  # atno 17370 bound_to 10713
  157.7438  130.9920  150.2621 LP  0  0  0  0  0  0  0  0  0  0  0  0  # atno 17371 bound_to 10713
  140.9339  134.1986  157.4845 LP  0  0  0  0  0  0  0  0  0  0  0  0  # atno 17394 bound_to 11000
  139.8726  134.9844  156.5239 LP  0  0  0  0  0  0  0  0  0  0  0  0  # atno 17395 bound_to 11000

$$$$
