AV-unprocessed.smi:1675|AV-procd|sdf|6718|dock5
  -GOLD-   22720 7463D 1   1.00000     0.00000
 Structure written by MMmdl.
 40 42  0  0  0  0  0  0  0  0  1 V2000
  147.2705  136.8587  153.6451 N   0  0  0  0  0  0  0  0  0  0  0  0
  146.6066  138.0048  153.8157 C   0  0  0  0  0  0  0  0  0  0  0  0
  145.8002  138.1683  154.7290 O   0  0  0  0  0  0  0  0  0  0  0  0
  146.8890  139.1306  152.8191 C   0  0  0  0  0  0  0  0  0  0  0  0
  147.3701  140.3210  153.4962 N   0  0  0  0  0  0  0  0  0  0  0  0
  148.4973  140.4565  154.2823 C   0  0  0  0  0  0  0  0  0  0  0  0
  148.5141  141.7620  154.6848 C   0  0  0  0  0  0  0  0  0  0  0  0
  149.4519  142.4382  155.5059 N   0  0  0  0  0  0  0  0  0  0  0  0
  150.4308  141.8931  156.2498 C   0  0  0  0  0  0  0  0  0  0  0  0
  150.6480  140.6835  156.3277 O   0  0  0  0  0  0  0  0  0  0  0  0
  151.2887  142.8897  157.0402 C   0  0  0  0  0  0  0  0  0  0  0  0
  151.4397  142.5517  158.5419 C   0  0  1  0  0  0  0  0  0  0  0  0
  152.2489  141.2626  158.8262 C   0  0  0  0  0  0  0  0  0  0  0  0
  153.3517  141.7469  159.7849 C   0  0  2  0  0  0  0  0  0  0  0  0
  152.7294  142.1134  161.1450 C   0  0  0  0  0  0  0  0  0  0  0  0
  151.9848  143.4255  160.8341 C   0  0  0  0  0  0  0  0  0  0  0  0
  152.2439  143.6138  159.3268 C   0  0  1  0  0  0  0  0  0  0  0  0
  153.6812  143.1163  159.2054 C   0  0  0  0  0  0  0  0  0  0  0  0
  147.3687  142.3615  154.0993 C   0  0  0  0  0  0  0  0  0  0  0  0
  146.6804  141.4843  153.3842 N   0  0  0  0  0  0  0  0  0  0  0  0
  147.1178  136.0912  154.2831 H   0  0  0  0  0  0  0  0  0  0  0  0
  147.9258  136.7642  152.8828 H   0  0  0  0  0  0  0  0  0  0  0  0
  147.6205  138.8160  152.0725 H   0  0  0  0  0  0  0  0  0  0  0  0
  145.9720  139.3792  152.2834 H   0  0  0  0  0  0  0  0  0  0  0  0
  149.1643  139.6285  154.4728 H   0  0  0  0  0  0  0  0  0  0  0  0
  149.3632  143.4435  155.5404 H   0  0  0  0  0  0  0  0  0  0  0  0
  152.2711  142.9581  156.5715 H   0  0  0  0  0  0  0  0  0  0  0  0
  150.8302  143.8738  156.9364 H   0  0  0  0  0  0  0  0  0  0  0  0
  150.4421  142.4694  158.9771 H   0  0  0  0  0  0  0  0  0  0  0  0
  151.6339  140.4753  159.2635 H   0  0  0  0  0  0  0  0  0  0  0  0
  152.6954  140.8632  157.9144 H   0  0  0  0  0  0  0  0  0  0  0  0
  154.1973  141.0625  159.8606 H   0  0  0  0  0  0  0  0  0  0  0  0
  152.0626  141.3342  161.5161 H   0  0  0  0  0  0  0  0  0  0  0  0
  153.5017  142.2801  161.8969 H   0  0  0  0  0  0  0  0  0  0  0  0
  150.9222  143.3699  161.0736 H   0  0  0  0  0  0  0  0  0  0  0  0
  152.4110  144.2512  161.4052 H   0  0  0  0  0  0  0  0  0  0  0  0
  152.0789  144.6366  158.9863 H   0  0  0  0  0  0  0  0  0  0  0  0
  154.3885  143.6840  159.8128 H   0  0  0  0  0  0  0  0  0  0  0  0
  154.0465  143.0758  158.1783 H   0  0  0  0  0  0  0  0  0  0  0  0
  147.0192  143.3811  154.1690 H   0  0  0  0  0  0  0  0  0  0  0  0
  1  2  1  0  0  0  0
  1 21  1  0  0  0  0
  1 22  1  0  0  0  0
  2  3  2  0  0  0  0
  2  4  1  0  0  0  0
  4  5  1  0  0  0  0
  4 23  1  0  0  0  0
  4 24  1  0  0  0  0
  5 20  1  0  0  0  0
  5  6  1  0  0  0  0
  6  7  2  0  0  0  0
  6 25  1  0  0  0  0
  7  8  1  0  0  0  0
  7 19  1  0  0  0  0
  8  9  1  0  0  0  0
  8 26  1  0  0  0  0
  9 10  2  0  0  0  0
  9 11  1  0  0  0  0
 11 12  1  0  0  0  0
 11 27  1  0  0  0  0
 11 28  1  0  0  0  0
 12 17  1  0  0  0  0
 12 13  1  0  0  0  0
 12 29  1  0  0  0  0
 13 14  1  0  0  0  0
 13 30  1  0  0  0  0
 13 31  1  0  0  0  0
 14 18  1  0  0  0  0
 14 15  1  0  0  0  0
 14 32  1  0  0  0  0
 15 16  1  0  0  0  0
 15 33  1  0  0  0  0
 15 34  1  0  0  0  0
 16 17  1  0  0  0  0
 16 35  1  0  0  0  0
 16 36  1  0  0  0  0
 17 18  1  0  0  0  0
 17 37  1  0  0  0  0
 18 38  1  0  0  0  0
 18 39  1  0  0  0  0
 19 20  2  0  0  0  0
 19 40  1  0  0  0  0
M  END
> <s_m_source_file>
AV-unprocessed.smi

> <i_m_source_file_index>
1675

> <i_lp_mmshare_version>
43012

> <i_f3d_flags>
0

> <s_epik_input>
W05IMl1DKD1PKVtDSDJdbjFbY0hdYyhbY0hdbjEpW05IXUMoPU8pW0NIMl1bQ0BIXShbQ0gyXVtDQEBIXTIzKVtDQEBIXShbQ0gyXTMpW0NIMl1bQ0gyXTI=

> <s_epik_cmdline>
J2VwaWtfcHl0aG9uJywgJy1waCcsICc3LjAnLCAnLXRuJywgJzgnLCAnLW1hJywgJzIwMCcsICctbWV0YWxfYmluZGluZycsICctaW1hZScsICc8aW5maWxlLm1hZT4nLCAnLW9tYWUnLCAnPG91dGZpbGUubWFlPic=

> <r_lp_tautomer_probability>
1

> <r_epik_Ionization_Penalty>
2.17494e-05

> <r_epik_Ionization_Penalty_Charging>
0

> <r_epik_Ionization_Penalty_Neutral>
2.17494e-05

> <r_epik_State_Penalty>
-0

> <r_epik_Charging_Adjusted_Penalty>
0

> <i_epik_Tot_Q>
0

> <i_epik_Tot_abs_Q>
0

> <r_epik_Metal_State_Penalty>
-0

> <b_epik_Metal_Only>
0

> <s_lp_Force_Field>
OPLS_2005

> <r_lp_Energy>
53.1529

> <b_lp_Chiralities_Consistent>
1

> <s_lp_Variant>
AV-unprocessed.smi:1675-4

> <Gold.Version>
5.8.1

> <Gold.Id.Protein>
6NUR|6NUR_protein|mol2

> <Gold.PLP.Fitness>
48.4018

> <Gold.PLP.PLP>
-42.0015

> <Gold.PLP.part.hbond>
-1.9439

> <Gold.PLP.part.metal>
0.0000

> <Gold.PLP.part.buried>
-5.9498

> <Gold.PLP.part.nonpolar>
-34.6202

> <Gold.PLP.part.repulsive>
0.4496

> <Gold.PLP.ligand.clash>
0.0000

> <Gold.PLP.ligand.torsion>
0.1300

> <Gold.PLP.Chemscore.Hbond>
1.9913

> <Gold.PLP.Chemscore.CHOScore>
0.2147

> <Gold.PLP.Chemscore.Metal>
0.0000

> <Gold.Chemscore.Hbonds>
donor molecule, donor type, donor heavy atom, donor atom, acceptor molecule, acceptor atom, score
      L1  H     1    22       P1  7948  1.00
      L1  H     8    26       P1  8028  0.59
      L1  C    19    40       P1  8028  0.27

> <Gold.PLP.Chemscore.Internal.Correction>
0.0423

> <Gold.Rescore>
     Score         DG    S(hbond)    S(metal)    S(lipo)     H(rot)  DE(clash)    DE(int)     intcor
     18.27     -19.94       1.99        0.00     113.75       2.15       0.07       1.60       ----

> <Gold.Chemscore.Fitness>
18.2668

> <Gold.Chemscore.DG>
-19.9354

> <Gold.Chemscore.ZeroCoef>
-5.4800

> <Gold.Chemscore.Hbond>
1.9900

> <Gold.Chemscore.Metal>
0.0000

> <Gold.Chemscore.Lipo>
113.7528

> <Gold.Chemscore.Internal_Hbond>
0.0000

> <Gold.Chemscore.DEClash>
0.0727

> <Gold.Chemscore.DEInternal>
1.5959

> <Gold.Chemscore.Rot>
2.1486

> <Gold.Chemscore.Internal.Correction>
   9.000000E+99

> <Gold.Chemscore.Hbonds>
donor molecule, donor type, donor heavy atom, donor atom, acceptor molecule, acceptor atom, score
      L1  H     1    22       P1  7948  0.94
      L1  H     8    26       P1  8028  0.58

> <Gold.Chemscore.Hbond.Weighted>
-6.6467

> <Gold.Chemscore.Metal.Weighted>
-0.0000

> <Gold.Chemscore.Lipo.Weighted>
-13.3091

> <Gold.Chemscore.Internal_Hbond.Weighted>
0.0000

> <Gold.Chemscore.DEClash.Weighted>
0.0727

> <Gold.Chemscore.DEInternal.Weighted>
1.5959

> <Gold.Chemscore.Rot.Weighted>
5.5004

> <Gold.Chemscore.Internal.Correction.Weighted>
   9.000000E+99

> <Gold.Protein.RotatedTorsions>
[ 6907 6896 6895 6894 ] final   92.12 input  -60.11 | X-H torsion
[ 7974 7965 7964 7962 ] final  173.31 input  175.53 | X-H torsion
[ 8008 7997 7996 7995 ] final  179.69 input   59.86 | X-H torsion
[ 10167 10162 10161 10158 ] final -103.65 input  -65.29 | X-H torsion
[ 10718 10713 10712 10709 ] final  -85.68 input   66.30 | X-H torsion
[ 10763 10752 10751 10750 ] final  -49.95 input  -60.55 | X-H torsion
[ 11005 11000 10999 10996 ] final  -98.37 input  -57.11 | X-H torsion

> <Gold.Protein.ActiveResidues>
 VAL166  LYS551  ARG553  GLY616  TRP617  ASP618  TYR619  PRO620  LYS621  CYS622 
 ASP623  PHE694  ASN695  SER759  ASP760  ASP761  ALA762  ILE779  LEU786  VAL792 
 PHE793  MET794  SER795  GLU796  ALA797  LYS798  CYS799  TRP800  GLU811  SER814 

> <Gold.Protein.RotatedAtoms>
  152.5452  134.1551  159.8534 H   0  0  0  0  0  0  0  0  0  0  0  0  # atno 6907 bound_to 6896
  151.1575  133.4860  159.2602 H   0  0  0  0  0  0  0  0  0  0  0  0  # atno 6908 bound_to 6896
  151.1408  135.0189  159.8679 H   0  0  0  0  0  0  0  0  0  0  0  0  # atno 6909 bound_to 6896
  144.7247  139.9628  143.6435 H   0  0  0  0  0  0  0  0  0  0  0  0  # atno 7974 bound_to 7965
  156.0406  140.1302  157.0160 H   0  0  0  0  0  0  0  0  0  0  0  0  # atno 8008 bound_to 7997
  154.4389  140.1031  156.6301 H   0  0  0  0  0  0  0  0  0  0  0  0  # atno 8009 bound_to 7997
  155.5673  140.3466  155.4508 H   0  0  0  0  0  0  0  0  0  0  0  0  # atno 8010 bound_to 7997
  140.2177  143.3699  152.0996 H   0  0  0  0  0  0  0  0  0  0  0  0  # atno 10167 bound_to 10162
  155.9995  130.4739  150.4599 H   0  0  0  0  0  0  0  0  0  0  0  0  # atno 10718 bound_to 10713
  154.1024  135.6561  153.4870 H   0  0  0  0  0  0  0  0  0  0  0  0  # atno 10763 bound_to 10752
  153.0284  135.5228  154.7273 H   0  0  0  0  0  0  0  0  0  0  0  0  # atno 10764 bound_to 10752
  154.6429  135.2991  155.0051 H   0  0  0  0  0  0  0  0  0  0  0  0  # atno 10765 bound_to 10752
  141.1347  133.8240  157.0831 H   0  0  0  0  0  0  0  0  0  0  0  0  # atno 11005 bound_to 11000
  146.0624  139.3616  143.0573 LP  0  0  0  0  0  0  0  0  0  0  0  0  # atno 17320 bound_to 7965
  145.8075  140.9741  143.0966 LP  0  0  0  0  0  0  0  0  0  0  0  0  # atno 17321 bound_to 7965
  139.5156  144.6965  151.5616 LP  0  0  0  0  0  0  0  0  0  0  0  0  # atno 17342 bound_to 10162
  140.6278  143.9136  150.6579 LP  0  0  0  0  0  0  0  0  0  0  0  0  # atno 17343 bound_to 10162
  157.2624  131.0570  151.2312 LP  0  0  0  0  0  0  0  0  0  0  0  0  # atno 17370 bound_to 10713
  157.3422  130.7039  149.6388 LP  0  0  0  0  0  0  0  0  0  0  0  0  # atno 17371 bound_to 10713
  140.0439  134.9840  157.1013 LP  0  0  0  0  0  0  0  0  0  0  0  0  # atno 17394 bound_to 11000
  140.4093  134.1999  155.7163 LP  0  0  0  0  0  0  0  0  0  0  0  0  # atno 17395 bound_to 11000

$$$$
