AV-unprocessed.smi:240|AV-procd|sdf|1838|dock4
  -GOLD-   2262020443D 1   1.00000     0.00000
 Structure written by MMmdl.
 55 59  0  0  0  0  0  0  0  0  1 V2000
  146.8484  133.3099  155.1674 O   0  0  0  0  0  0  0  0  0  0  0  0
  147.6270  133.8728  154.1273 C   0  0  2  0  0  0  0  0  0  0  0  0
  146.7167  134.1260  152.9207 C   0  0  0  0  0  0  0  0  0  0  0  0
  146.7749  132.8531  152.0682 C   0  0  0  0  0  0  0  0  0  0  0  0
  147.8416  131.9577  152.7093 C   0  0  0  0  0  0  0  0  0  0  0  0
  148.6877  132.8732  153.6132 C   0  0  2  0  0  0  0  0  0  0  0  0
  149.5656  132.1335  154.6796 C   0  0  1  0  0  0  0  0  0  0  0  0
  150.3791  130.9888  154.0188 C   0  0  0  0  0  0  0  0  0  0  0  0
  151.2140  130.3324  154.9650 O   0  0  0  0  0  0  0  0  0  0  0  0
  152.1746  131.2161  155.5211 C   0  0  0  0  0  0  0  0  0  0  0  0
  151.4320  132.3245  156.2733 C   0  0  0  0  0  0  0  0  0  0  0  0
  150.5132  133.0200  155.3771 N   0  0  0  0  0  0  0  0  0  0  0  0
  150.0086  134.1154  155.9840 C   0  0  0  0  0  0  0  0  0  0  0  0
  149.2059  133.9114  157.0569 N   0  0  0  0  0  0  0  0  0  0  0  0
  148.6844  134.9562  157.7070 C   0  0  0  0  0  0  0  0  0  0  0  0
  148.8328  136.2578  157.4511 N   0  0  0  0  0  0  0  0  0  0  0  0
  149.6267  136.4641  156.3609 C   0  0  0  0  0  0  0  0  0  0  0  0
  150.2512  135.4567  155.5738 C   0  0  0  0  0  0  0  0  0  0  0  0
  150.9930  136.0412  154.5548 N   0  0  0  0  0  0  0  0  0  0  0  0
  150.8201  137.3224  154.7325 C   0  0  0  0  0  0  0  0  0  0  0  0
  150.0028  137.6659  155.7862 N   0  0  0  0  0  0  0  0  0  0  0  0
  149.6429  139.0115  156.2088 C   0  0  0  0  0  0  0  0  0  0  0  0
  148.9706  139.8688  155.1053 C   0  0  2  0  0  0  0  0  0  0  0  0
  149.8991  140.1004  154.0621 O   0  0  0  0  0  0  0  0  0  0  0  0
  148.4261  141.2131  155.5960 C   0  0  0  0  0  0  0  0  0  0  0  0
  146.9381  140.9423  155.7641 C   0  0  0  0  0  0  0  0  0  0  0  0
  146.6561  140.1120  154.6525 O   0  0  0  0  0  0  0  0  0  0  0  0
  147.7179  139.1735  154.5335 C   0  0  0  0  0  0  0  0  0  0  0  0
  145.9525  133.5921  155.0598 H   0  0  0  0  0  0  0  0  0  0  0  0
  148.0557  134.8111  154.4748 H   0  0  0  0  0  0  0  0  0  0  0  0
  145.6984  134.3924  153.2071 H   0  0  0  0  0  0  0  0  0  0  0  0
  147.1125  134.9603  152.3402 H   0  0  0  0  0  0  0  0  0  0  0  0
  145.8101  132.3458  152.0386 H   0  0  0  0  0  0  0  0  0  0  0  0
  147.0449  133.1019  151.0412 H   0  0  0  0  0  0  0  0  0  0  0  0
  147.3499  131.1936  153.3134 H   0  0  0  0  0  0  0  0  0  0  0  0
  148.4396  131.4457  151.9547 H   0  0  0  0  0  0  0  0  0  0  0  0
  149.3628  133.4204  152.9524 H   0  0  0  0  0  0  0  0  0  0  0  0
  148.9150  131.6749  155.4246 H   0  0  0  0  0  0  0  0  0  0  0  0
  149.7170  130.2292  153.6046 H   0  0  0  0  0  0  0  0  0  0  0  0
  150.9843  131.3670  153.1929 H   0  0  0  0  0  0  0  0  0  0  0  0
  152.8182  130.6615  156.2039 H   0  0  0  0  0  0  0  0  0  0  0  0
  152.8136  131.6290  154.7387 H   0  0  0  0  0  0  0  0  0  0  0  0
  150.8809  131.8906  157.1084 H   0  0  0  0  0  0  0  0  0  0  0  0
  152.1520  133.0288  156.6931 H   0  0  0  0  0  0  0  0  0  0  0  0
  148.0604  134.7151  158.5550 H   0  0  0  0  0  0  0  0  0  0  0  0
  151.2848  138.0575  154.0914 H   0  0  0  0  0  0  0  0  0  0  0  0
  148.9808  138.9286  157.0720 H   0  0  0  0  0  0  0  0  0  0  0  0
  150.5472  139.5051  156.5673 H   0  0  0  0  0  0  0  0  0  0  0  0
  149.4203  140.2283  153.2574 H   0  0  0  0  0  0  0  0  0  0  0  0
  148.8876  141.5835  156.5096 H   0  0  0  0  0  0  0  0  0  0  0  0
  148.5547  141.9839  154.8341 H   0  0  0  0  0  0  0  0  0  0  0  0
  146.7373  140.4046  156.6923 H   0  0  0  0  0  0  0  0  0  0  0  0
  146.3380  141.8524  155.7515 H   0  0  0  0  0  0  0  0  0  0  0  0
  147.8329  138.8588  153.4954 H   0  0  0  0  0  0  0  0  0  0  0  0
  147.4577  138.2876  155.1145 H   0  0  0  0  0  0  0  0  0  0  0  0
  1  2  1  0  0  0  0
  1 29  1  0  0  0  0
  2  6  1  0  0  0  0
  2  3  1  0  0  0  0
  2 30  1  0  0  0  0
  3  4  1  0  0  0  0
  3 31  1  0  0  0  0
  3 32  1  0  0  0  0
  4  5  1  0  0  0  0
  4 33  1  0  0  0  0
  4 34  1  0  0  0  0
  5  6  1  0  0  0  0
  5 35  1  0  0  0  0
  5 36  1  0  0  0  0
  6  7  1  0  0  0  0
  6 37  1  0  0  0  0
  7 12  1  0  0  0  0
  7  8  1  0  0  0  0
  7 38  1  0  0  0  0
  8  9  1  0  0  0  0
  8 39  1  0  0  0  0
  8 40  1  0  0  0  0
  9 10  1  0  0  0  0
 10 11  1  0  0  0  0
 10 41  1  0  0  0  0
 10 42  1  0  0  0  0
 11 12  1  0  0  0  0
 11 43  1  0  0  0  0
 11 44  1  0  0  0  0
 12 13  1  0  0  0  0
 13 18  1  0  0  0  0
 13 14  2  0  0  0  0
 14 15  1  0  0  0  0
 15 16  2  0  0  0  0
 15 45  1  0  0  0  0
 16 17  1  0  0  0  0
 17 21  1  0  0  0  0
 17 18  2  0  0  0  0
 18 19  1  0  0  0  0
 19 20  2  0  0  0  0
 20 21  1  0  0  0  0
 20 46  1  0  0  0  0
 21 22  1  0  0  0  0
 22 23  1  0  0  0  0
 22 47  1  0  0  0  0
 22 48  1  0  0  0  0
 23 28  1  0  0  0  0
 23 24  1  0  0  0  0
 23 25  1  0  0  0  0
 24 49  1  0  0  0  0
 25 26  1  0  0  0  0
 25 50  1  0  0  0  0
 25 51  1  0  0  0  0
 26 27  1  0  0  0  0
 26 52  1  0  0  0  0
 26 53  1  0  0  0  0
 27 28  1  0  0  0  0
 28 54  1  0  0  0  0
 28 55  1  0  0  0  0
M  END
> <s_m_source_file>
AV-unprocessed.smi

> <i_m_source_file_index>
240

> <i_lp_mmshare_version>
43012

> <i_f3d_flags>
0

> <s_epik_input>
W09IXVtDQEBIXTFbQ0gyXVtDSDJdW0NIMl1bQ0BIXTFbQ0BASF0yW0NIMl1PW0NIMl1bQ0gyXU4yYyhuW2NIXW4zKWMoYzM0KW5bY0hdbjRbQ0gyXVtDQEBdNShbT0hdKVtDSDJdW0NIMl1PW0NIMl01

> <s_epik_cmdline>
J2VwaWtfcHl0aG9uJywgJy1waCcsICc3LjAnLCAnLXRuJywgJzgnLCAnLW1hJywgJzIwMCcsICctbWV0YWxfYmluZGluZycsICctaW1hZScsICc8aW5maWxlLm1hZT4nLCAnLW9tYWUnLCAnPG91dGZpbGUubWFlPic=

> <r_lp_tautomer_probability>
1

> <r_epik_Ionization_Penalty>
0.000130618

> <r_epik_Ionization_Penalty_Charging>
0

> <r_epik_Ionization_Penalty_Neutral>
0.000130618

> <r_epik_State_Penalty>
-0

> <r_epik_Charging_Adjusted_Penalty>
0

> <i_epik_Tot_Q>
0

> <i_epik_Tot_abs_Q>
0

> <r_epik_Metal_State_Penalty>
-0

> <b_epik_Metal_Only>
0

> <s_lp_Force_Field>
OPLS_2005

> <r_lp_Energy>
64.4166

> <b_lp_Chiralities_Consistent>
1

> <s_lp_Variant>
AV-unprocessed.smi:240-15

> <Gold.Version>
5.8.1

> <Gold.Id.Protein>
6NUR|6NUR_protein|mol2

> <Gold.PLP.Fitness>
41.7644

> <Gold.PLP.PLP>
-33.7754

> <Gold.PLP.part.hbond>
-2.5218

> <Gold.PLP.part.metal>
0.0000

> <Gold.PLP.part.buried>
-3.8631

> <Gold.PLP.part.nonpolar>
-27.9034

> <Gold.PLP.part.repulsive>
1.0968

> <Gold.PLP.ligand.clash>
0.0000

> <Gold.PLP.ligand.torsion>
0.2222

> <Gold.PLP.Chemscore.Hbond>
2.6880

> <Gold.PLP.Chemscore.CHOScore>
0.0000

> <Gold.PLP.Chemscore.Metal>
0.0000

> <Gold.Chemscore.Hbonds>
donor molecule, donor type, donor heavy atom, donor atom, acceptor molecule, acceptor atom, score
      L1  H    24    49       P1  7957  0.66
      P1  H  7989  7998       L1    24  0.75
      P1  H 10752 10763       L1    19  1.00

> <Gold.PLP.Chemscore.Internal.Correction>
0.3692

> <Gold.Rescore>
     Score         DG    S(hbond)    S(metal)    S(lipo)     H(rot)  DE(clash)    DE(int)     intcor
     12.91     -14.22       2.28        0.00      75.29       3.00       0.14       1.17       ----

> <Gold.Chemscore.Fitness>
12.9128

> <Gold.Chemscore.DG>
-14.2221

> <Gold.Chemscore.ZeroCoef>
-5.4800

> <Gold.Chemscore.Hbond>
2.2823

> <Gold.Chemscore.Metal>
0.0000

> <Gold.Chemscore.Lipo>
75.2912

> <Gold.Chemscore.Internal_Hbond>
0.0000

> <Gold.Chemscore.DEClash>
0.1355

> <Gold.Chemscore.DEInternal>
1.1738

> <Gold.Chemscore.Rot>
3.0039

> <Gold.Chemscore.Internal.Correction>
   9.000000E+99

> <Gold.Chemscore.Hbonds>
donor molecule, donor type, donor heavy atom, donor atom, acceptor molecule, acceptor atom, score
      L1  H    24    49       P1  7957  0.65
      P1  H  7989  7998       L1    24  0.12
      P1  H 10752 10763       L1    19  0.71

> <Gold.Chemscore.Hbond.Weighted>
-7.6230

> <Gold.Chemscore.Metal.Weighted>
-0.0000

> <Gold.Chemscore.Lipo.Weighted>
-8.8091

> <Gold.Chemscore.Internal_Hbond.Weighted>
0.0000

> <Gold.Chemscore.DEClash.Weighted>
0.1355

> <Gold.Chemscore.DEInternal.Weighted>
1.1738

> <Gold.Chemscore.Rot.Weighted>
7.6899

> <Gold.Chemscore.Internal.Correction.Weighted>
   9.000000E+99

> <Gold.Protein.RotatedTorsions>
[ 6907 6896 6895 6894 ] final  130.69 input  -60.11 | X-H torsion
[ 7974 7965 7964 7962 ] final  177.85 input  175.53 | X-H torsion
[ 8008 7997 7996 7995 ] final   63.78 input   59.86 | X-H torsion
[ 10167 10162 10161 10158 ] final  146.94 input  -65.29 | X-H torsion
[ 10718 10713 10712 10709 ] final  -89.73 input   66.30 | X-H torsion
[ 10763 10752 10751 10750 ] final   42.60 input  -60.55 | X-H torsion
[ 11005 11000 10999 10996 ] final   91.25 input  -57.11 | X-H torsion

> <Gold.Protein.ActiveResidues>
 VAL166  LYS551  ARG553  GLY616  TRP617  ASP618  TYR619  PRO620  LYS621  CYS622 
 ASP623  PHE694  ASN695  SER759  ASP760  ASP761  ALA762  ILE779  LEU786  VAL792 
 PHE793  MET794  SER795  GLU796  ALA797  LYS798  CYS799  TRP800  GLU811  SER814 

> <Gold.Protein.RotatedAtoms>
  152.3501  133.6169  159.5938 H   0  0  0  0  0  0  0  0  0  0  0  0  # atno 6907 bound_to 6896
  150.7532  133.9587  159.3517 H   0  0  0  0  0  0  0  0  0  0  0  0  # atno 6908 bound_to 6896
  151.7440  135.0849  160.0371 H   0  0  0  0  0  0  0  0  0  0  0  0  # atno 6909 bound_to 6896
  144.7163  140.0310  143.6439 H   0  0  0  0  0  0  0  0  0  0  0  0  # atno 7974 bound_to 7965
  155.6356  140.3496  155.4697 H   0  0  0  0  0  0  0  0  0  0  0  0  # atno 8008 bound_to 7997
  155.9967  140.1205  157.0610 H   0  0  0  0  0  0  0  0  0  0  0  0  # atno 8009 bound_to 7997
  154.4236  140.1108  156.5627 H   0  0  0  0  0  0  0  0  0  0  0  0  # atno 8010 bound_to 7997
  139.4898  144.5792  151.6905 H   0  0  0  0  0  0  0  0  0  0  0  0  # atno 10167 bound_to 10162
  155.9985  130.4883  150.5216 H   0  0  0  0  0  0  0  0  0  0  0  0  # atno 10718 bound_to 10713
  152.9879  135.6127  154.2975 H   0  0  0  0  0  0  0  0  0  0  0  0  # atno 10763 bound_to 10752
  154.2697  135.2780  155.2745 H   0  0  0  0  0  0  0  0  0  0  0  0  # atno 10764 bound_to 10752
  154.5133  135.5835  153.6679 H   0  0  0  0  0  0  0  0  0  0  0  0  # atno 10765 bound_to 10752
  139.8842  134.8663  156.3401 H   0  0  0  0  0  0  0  0  0  0  0  0  # atno 11005 bound_to 11000
  146.0103  139.3164  143.0874 LP  0  0  0  0  0  0  0  0  0  0  0  0  # atno 17320 bound_to 7965
  145.8690  140.9431  143.0660 LP  0  0  0  0  0  0  0  0  0  0  0  0  # atno 17321 bound_to 7965
  140.5395  144.0602  150.6083 LP  0  0  0  0  0  0  0  0  0  0  0  0  # atno 17342 bound_to 10162
  140.3620  143.2903  152.0373 LP  0  0  0  0  0  0  0  0  0  0  0  0  # atno 17343 bound_to 10162
  157.3177  131.0676  151.1955 LP  0  0  0  0  0  0  0  0  0  0  0  0  # atno 17370 bound_to 10713
  157.2879  130.6782  149.6099 LP  0  0  0  0  0  0  0  0  0  0  0  0  # atno 17371 bound_to 10713
  140.9664  133.7355  156.0473 LP  0  0  0  0  0  0  0  0  0  0  0  0  # atno 17394 bound_to 11000
  140.7925  134.3601  157.5461 LP  0  0  0  0  0  0  0  0  0  0  0  0  # atno 17395 bound_to 11000

$$$$
