AV-unprocessed.smi:662|AV-procd|sdf|3245|dock6
  -GOLD-   22720 0193D 1   1.00000     0.00000
 Structure written by MMmdl.
 33 34  0  0  0  0  0  0  0  0  1 V2000
  151.1224  138.5481  158.2309 O   0  0  0  0  0  0  0  0  0  0  0  0
  152.1184  139.0380  157.6970 C   0  0  0  0  0  0  0  0  0  0  0  0
  153.2014  139.4321  158.3840 N   0  0  0  0  0  0  0  0  0  0  0  0
  153.3502  139.3506  159.8322 C   0  0  0  0  0  0  0  0  0  0  0  0
  154.1989  140.5089  160.3818 C   0  0  0  0  0  0  0  0  0  0  0  0
  153.3771  141.7065  160.7205 C   0  0  0  0  0  0  0  0  0  0  0  0
  152.7505  142.4535  159.8079 N   0  0  0  0  0  0  0  0  0  0  0  0
  152.0705  143.5394  160.3705 C   0  0  0  0  0  0  0  0  0  0  0  0
  151.2968  144.4740  159.4864 C   0  0  0  0  0  0  0  0  0  0  0  0
  151.5930  145.7487  159.7410 F   0  0  0  0  0  0  0  0  0  0  0  0
  151.5623  144.2497  158.1997 F   0  0  0  0  0  0  0  0  0  0  0  0
  149.9844  144.3238  159.6624 F   0  0  0  0  0  0  0  0  0  0  0  0
  152.2074  143.6087  161.7357 C   0  0  0  0  0  0  0  0  0  0  0  0
  153.1934  142.3156  162.3605 S   0  0  0  0  0  0  0  0  0  0  0  0
  152.1696  139.2292  156.1764 C   0  0  2  0  0  0  0  0  0  0  0  0
  150.9987  140.0721  155.6448 C   0  0  0  0  0  0  0  0  0  0  0  0
  150.4434  139.2505  154.4877 C   0  0  0  0  0  0  0  0  0  0  0  0
  151.5670  138.2700  154.1581 C   0  0  0  0  0  0  0  0  0  0  0  0
  152.1256  137.9479  155.4602 N   0  0  0  0  0  0  0  0  0  0  0  0
  153.9764  139.8204  157.8662 H   0  0  0  0  0  0  0  0  0  0  0  0
  152.3676  139.3363  160.3071 H   0  0  0  0  0  0  0  0  0  0  0  0
  153.8238  138.3976  160.0700 H   0  0  0  0  0  0  0  0  0  0  0  0
  154.7380  140.1892  161.2747 H   0  0  0  0  0  0  0  0  0  0  0  0
  154.9533  140.8079  159.6534 H   0  0  0  0  0  0  0  0  0  0  0  0
  151.7899  144.3418  162.4100 H   0  0  0  0  0  0  0  0  0  0  0  0
  153.1029  139.7271  155.9059 H   0  0  0  0  0  0  0  0  0  0  0  0
  150.2249  140.2659  156.3898 H   0  0  0  0  0  0  0  0  0  0  0  0
  151.3623  141.0381  155.2926 H   0  0  0  0  0  0  0  0  0  0  0  0
  149.5587  138.7019  154.8141 H   0  0  0  0  0  0  0  0  0  0  0  0
  150.1588  139.8659  153.6338 H   0  0  0  0  0  0  0  0  0  0  0  0
  151.2128  137.3788  153.6393 H   0  0  0  0  0  0  0  0  0  0  0  0
  152.3299  138.7479  153.5414 H   0  0  0  0  0  0  0  0  0  0  0  0
  153.0315  137.5084  155.3818 H   0  0  0  0  0  0  0  0  0  0  0  0
  1  2  2  0  0  0  0
  2  3  1  0  0  0  0
  2 15  1  0  0  0  0
  3  4  1  0  0  0  0
  3 20  1  0  0  0  0
  4  5  1  0  0  0  0
  4 21  1  0  0  0  0
  4 22  1  0  0  0  0
  5  6  1  0  0  0  0
  5 23  1  0  0  0  0
  5 24  1  0  0  0  0
  6 14  1  0  0  0  0
  6  7  2  0  0  0  0
  7  8  1  0  0  0  0
  8  9  1  0  0  0  0
  8 13  2  0  0  0  0
  9 10  1  0  0  0  0
  9 11  1  0  0  0  0
  9 12  1  0  0  0  0
 13 14  1  0  0  0  0
 13 25  1  0  0  0  0
 15 19  1  0  0  0  0
 15 16  1  0  0  0  0
 15 26  1  0  0  0  0
 16 17  1  0  0  0  0
 16 27  1  0  0  0  0
 16 28  1  0  0  0  0
 17 18  1  0  0  0  0
 17 29  1  0  0  0  0
 17 30  1  0  0  0  0
 18 19  1  0  0  0  0
 18 31  1  0  0  0  0
 18 32  1  0  0  0  0
 19 33  1  0  0  0  0
M  END
> <s_m_source_file>
AV-unprocessed.smi

> <i_m_source_file_index>
662

> <i_lp_mmshare_version>
43012

> <i_f3d_flags>
0

> <s_epik_input>
W05IXTFbQ0gyXVtDSDJdW0NIMl1bQ0BIXTFDKD1PKVtOSF1bQ0gyXVtDSDJdYzJuYyhDKEYpKEYpRilbY0hdczI=

> <s_epik_cmdline>
J2VwaWtfcHl0aG9uJywgJy1waCcsICc3LjAnLCAnLXRuJywgJzgnLCAnLW1hJywgJzIwMCcsICctbWV0YWxfYmluZGluZycsICctaW1hZScsICc8aW5maWxlLm1hZT4nLCAnLW9tYWUnLCAnPG91dGZpbGUubWFlPic=

> <r_epik_Ionization_Penalty>
1.64272

> <r_epik_Ionization_Penalty_Charging>
0

> <r_epik_Ionization_Penalty_Neutral>
1.64272

> <r_epik_State_Penalty>
1.74416

> <r_epik_Charging_Adjusted_Penalty>
1.74416

> <i_epik_Tot_Q>
0

> <i_epik_Tot_abs_Q>
0

> <r_epik_Metal_State_Penalty>
1.74416

> <b_epik_Metal_Only>
0

> <s_lp_Force_Field>
OPLS_2005

> <r_lp_Energy>
16.594

> <b_lp_Chiralities_Consistent>
1

> <s_lp_Variant>
AV-unprocessed.smi:662-3

> <Gold.Version>
5.8.1

> <Gold.Id.Protein>
6NUR|6NUR_protein|mol2

> <Gold.PLP.Fitness>
47.6057

> <Gold.PLP.PLP>
-49.0891

> <Gold.PLP.part.hbond>
0.0000

> <Gold.PLP.part.metal>
0.0000

> <Gold.PLP.part.buried>
-4.4355

> <Gold.PLP.part.nonpolar>
-43.9020

> <Gold.PLP.part.repulsive>
0.6557

> <Gold.PLP.ligand.clash>
0.0000

> <Gold.PLP.ligand.torsion>
0.7549

> <Gold.PLP.Chemscore.Hbond>
0.0000

> <Gold.PLP.Chemscore.CHOScore>
0.0000

> <Gold.PLP.Chemscore.Metal>
0.0000

> <Gold.PLP.Chemscore.Internal.Correction>
0.0263

> <Gold.Rescore>
     Score         DG    S(hbond)    S(metal)    S(lipo)     H(rot)  DE(clash)    DE(int)     intcor
     12.06     -12.61       0.00        0.00     102.75       1.91       0.15       0.41       ----

> <Gold.Chemscore.Fitness>
12.0614

> <Gold.Chemscore.DG>
-12.6132

> <Gold.Chemscore.ZeroCoef>
-5.4800

> <Gold.Chemscore.Hbond>
0.0000

> <Gold.Chemscore.Metal>
0.0000

> <Gold.Chemscore.Lipo>
102.7486

> <Gold.Chemscore.Internal_Hbond>
0.0000

> <Gold.Chemscore.DEClash>
0.1454

> <Gold.Chemscore.DEInternal>
0.4064

> <Gold.Chemscore.Rot>
1.9095

> <Gold.Chemscore.Internal.Correction>
   9.000000E+99

> <Gold.Chemscore.Hbond.Weighted>
-0.0000

> <Gold.Chemscore.Metal.Weighted>
-0.0000

> <Gold.Chemscore.Lipo.Weighted>
-12.0216

> <Gold.Chemscore.Internal_Hbond.Weighted>
0.0000

> <Gold.Chemscore.DEClash.Weighted>
0.1454

> <Gold.Chemscore.DEInternal.Weighted>
0.4064

> <Gold.Chemscore.Rot.Weighted>
4.8883

> <Gold.Chemscore.Internal.Correction.Weighted>
   9.000000E+99

> <Gold.Protein.RotatedTorsions>
[ 6907 6896 6895 6894 ] final   51.74 input  -60.11 | X-H torsion
[ 7974 7965 7964 7962 ] final   43.96 input  175.53 | X-H torsion
[ 8008 7997 7996 7995 ] final   47.63 input   59.86 | X-H torsion
[ 10167 10162 10161 10158 ] final   71.16 input  -65.29 | X-H torsion
[ 10718 10713 10712 10709 ] final  -61.67 input   66.30 | X-H torsion
[ 10763 10752 10751 10750 ] final   61.61 input  -60.55 | X-H torsion
[ 11005 11000 10999 10996 ] final   39.49 input  -57.11 | X-H torsion

> <Gold.Protein.ActiveResidues>
 VAL166  LYS551  ARG553  GLY616  TRP617  ASP618  TYR619  PRO620  LYS621  CYS622 
 ASP623  PHE694  ASN695  SER759  ASP760  ASP761  ALA762  ILE779  LEU786  VAL792 
 PHE793  MET794  SER795  GLU796  ALA797  LYS798  CYS799  TRP800  GLU811  SER814 

> <Gold.Protein.RotatedAtoms>
  152.3158  134.7441  160.0325 H   0  0  0  0  0  0  0  0  0  0  0  0  # atno 6907 bound_to 6896
  151.7906  133.3353  159.3506 H   0  0  0  0  0  0  0  0  0  0  0  0  # atno 6908 bound_to 6896
  150.7344  134.5777  159.5967 H   0  0  0  0  0  0  0  0  0  0  0  0  # atno 6909 bound_to 6896
  146.0610  139.5128  142.9658 H   0  0  0  0  0  0  0  0  0  0  0  0  # atno 7974 bound_to 7965
  155.3722  140.3424  155.4243 H   0  0  0  0  0  0  0  0  0  0  0  0  # atno 8008 bound_to 7997
  156.1656  140.1615  156.8571 H   0  0  0  0  0  0  0  0  0  0  0  0  # atno 8009 bound_to 7997
  154.5182  140.0773  156.8104 H   0  0  0  0  0  0  0  0  0  0  0  0  # atno 8010 bound_to 7997
  140.0491  144.5326  150.7376 H   0  0  0  0  0  0  0  0  0  0  0  0  # atno 10167 bound_to 10162
  156.0906  130.4201  150.1027 H   0  0  0  0  0  0  0  0  0  0  0  0  # atno 10718 bound_to 10713
  152.9956  135.5494  154.6062 H   0  0  0  0  0  0  0  0  0  0  0  0  # atno 10763 bound_to 10752
  154.5392  135.2818  155.1113 H   0  0  0  0  0  0  0  0  0  0  0  0  # atno 10764 bound_to 10752
  154.2397  135.6418  153.5255 H   0  0  0  0  0  0  0  0  0  0  0  0  # atno 10765 bound_to 10752
  140.2023  134.3856  155.8090 H   0  0  0  0  0  0  0  0  0  0  0  0  # atno 11005 bound_to 11000
  145.6559  141.0252  143.1735 LP  0  0  0  0  0  0  0  0  0  0  0  0  # atno 17320 bound_to 7965
  144.7175  139.8145  143.7393 LP  0  0  0  0  0  0  0  0  0  0  0  0  # atno 17321 bound_to 7965
  140.7225  143.2602  151.4232 LP  0  0  0  0  0  0  0  0  0  0  0  0  # atno 17342 bound_to 10162
  139.5964  144.1388  152.2149 LP  0  0  0  0  0  0  0  0  0  0  0  0  # atno 17343 bound_to 10162
  156.9038  130.9629  151.3572 LP  0  0  0  0  0  0  0  0  0  0  0  0  # atno 17370 bound_to 10713
  157.6054  130.8543  149.8866 LP  0  0  0  0  0  0  0  0  0  0  0  0  # atno 17371 bound_to 10713
  141.2227  133.7100  156.8278 LP  0  0  0  0  0  0  0  0  0  0  0  0  # atno 17394 bound_to 11000
  140.2041  134.8875  157.3202 LP  0  0  0  0  0  0  0  0  0  0  0  0  # atno 17395 bound_to 11000

$$$$
