AV-unprocessed.smi:2027|AV-procd|sdf|8218|dock8
  -GOLD-   2272010483D 1   1.00000     0.00000
 Structure written by MMmdl.
 51 53  0  0  0  0  0  0  0  0  3 V2000
  153.2349  144.5748  162.1024 C   0  0  0  0  0  0  0  0  0  0  0  0
  152.8259  143.7372  160.9026 C   0  0  0  0  0  0  0  0  0  0  0  0
  152.9440  142.3318  160.9894 C   0  0  0  0  0  0  0  0  0  0  0  0
  152.5645  141.5931  159.8750 C   0  0  0  0  0  0  0  0  0  0  0  0
  152.5632  140.2151  159.6497 N   0  3  0  0  0  0  0  0  0  0  0  0
  152.1032  139.9601  158.3938 C   0  0  0  0  0  0  0  0  0  0  0  0
  151.8079  141.1554  157.8132 N   0  0  0  0  0  0  0  0  0  0  0  0
  151.2944  141.4420  156.4654 C   0  0  0  0  0  0  0  0  0  0  0  0
  149.7702  141.6670  156.4357 C   0  0  1  0  0  0  0  0  0  0  0  0
  149.4569  142.8855  157.0812 O   0  0  0  0  0  0  0  0  0  0  0  0
  149.2342  141.7255  154.9910 C   0  0  0  0  0  0  0  0  0  0  0  0
  147.8932  142.3596  154.9097 N   0  3  1  0  0  0  0  0  0  0  0  0
  147.3673  142.3641  153.5238 C   0  0  0  0  0  0  0  0  0  0  0  0
  146.9257  141.7990  155.8888 C   0  0  0  0  0  0  0  0  0  0  0  0
  145.7829  142.7451  156.1400 C   0  0  0  0  0  0  0  0  0  0  0  0
  145.7914  143.9310  156.9287 C   0  0  0  0  0  0  0  0  0  0  0  0
  144.6196  144.5436  156.9487 N   0  0  0  0  0  0  0  0  0  0  0  0
  143.8228  143.7714  156.1820 N   0  0  0  0  0  0  0  0  0  0  0  0
  142.4393  144.1478  155.9845 C   0  0  0  0  0  0  0  0  0  0  0  0
  144.4964  142.6778  155.6830 C   0  0  0  0  0  0  0  0  0  0  0  0
  152.0803  142.2038  158.7015 C   0  0  0  0  0  0  0  0  0  0  0  0
  151.9540  143.5878  158.6015 C   0  0  0  0  0  0  0  0  0  0  0  0
  152.3358  144.3570  159.7241 C   0  0  0  0  0  0  0  0  0  0  0  0
  152.2100  145.8689  159.6427 C   0  0  0  0  0  0  0  0  0  0  0  0
  153.6309  143.9537  162.9067 H   0  0  0  0  0  0  0  0  0  0  0  0
  152.3784  145.1235  162.4948 H   0  0  0  0  0  0  0  0  0  0  0  0
  154.0086  145.2914  161.8255 H   0  0  0  0  0  0  0  0  0  0  0  0
  153.3150  141.8530  161.8840 H   0  0  0  0  0  0  0  0  0  0  0  0
  151.9969  138.9852  157.9399 H   0  0  0  0  0  0  0  0  0  0  0  0
  151.8299  142.2945  156.0473 H   0  0  0  0  0  0  0  0  0  0  0  0
  151.5518  140.5868  155.8392 H   0  0  0  0  0  0  0  0  0  0  0  0
  149.2912  140.8604  156.9903 H   0  0  0  0  0  0  0  0  0  0  0  0
  149.4874  143.5811  156.4415 H   0  0  0  0  0  0  0  0  0  0  0  0
  149.9498  142.2808  154.3818 H   0  0  0  0  0  0  0  0  0  0  0  0
  149.1837  140.7258  154.5563 H   0  0  0  0  0  0  0  0  0  0  0  0
  147.1993  141.3472  153.1667 H   0  0  0  0  0  0  0  0  0  0  0  0
  148.0692  142.8519  152.8465 H   0  0  0  0  0  0  0  0  0  0  0  0
  146.4268  142.9107  153.4563 H   0  0  0  0  0  0  0  0  0  0  0  0
  146.5697  140.8328  155.5282 H   0  0  0  0  0  0  0  0  0  0  0  0
  147.4316  141.5885  156.8304 H   0  0  0  0  0  0  0  0  0  0  0  0
  146.6123  144.3635  157.4816 H   0  0  0  0  0  0  0  0  0  0  0  0
  141.9802  143.5045  155.2333 H   0  0  0  0  0  0  0  0  0  0  0  0
  142.3798  145.1830  155.6468 H   0  0  0  0  0  0  0  0  0  0  0  0
  141.8928  144.0442  156.9223 H   0  0  0  0  0  0  0  0  0  0  0  0
  144.0105  141.9507  155.0489 H   0  0  0  0  0  0  0  0  0  0  0  0
  151.5790  144.0633  157.7074 H   0  0  0  0  0  0  0  0  0  0  0  0
  151.7984  146.1846  158.6835 H   0  0  0  0  0  0  0  0  0  0  0  0
  153.1863  146.3405  159.7574 H   0  0  0  0  0  0  0  0  0  0  0  0
  151.5503  146.2416  160.4267 H   0  0  0  0  0  0  0  0  0  0  0  0
  148.0340  143.3289  155.1582 H   0  0  0  0  0  0  0  0  0  0  0  0
  152.8591  139.4999  160.3021 H   0  0  0  0  0  0  0  0  0  0  0  0
  1  2  1  0  0  0  0
  1 25  1  0  0  0  0
  1 26  1  0  0  0  0
  1 27  1  0  0  0  0
  2 23  1  0  0  0  0
  2  3  2  0  0  0  0
  3  4  1  0  0  0  0
  3 28  1  0  0  0  0
  4 21  2  0  0  0  0
  4  5  1  0  0  0  0
  5  6  2  0  0  0  0
  5 51  1  0  0  0  0
  6  7  1  0  0  0  0
  6 29  1  0  0  0  0
  7  8  1  0  0  0  0
  7 21  1  0  0  0  0
  8  9  1  0  0  0  0
  8 30  1  0  0  0  0
  8 31  1  0  0  0  0
  9 10  1  0  0  0  0
  9 11  1  0  0  0  0
  9 32  1  0  0  0  0
 10 33  1  0  0  0  0
 11 12  1  0  0  0  0
 11 34  1  0  0  0  0
 11 35  1  0  0  0  0
 12 13  1  0  0  0  0
 12 14  1  0  0  0  0
 12 50  1  0  0  0  0
 13 36  1  0  0  0  0
 13 37  1  0  0  0  0
 13 38  1  0  0  0  0
 14 15  1  0  0  0  0
 14 39  1  0  0  0  0
 14 40  1  0  0  0  0
 15 20  2  0  0  0  0
 15 16  1  0  0  0  0
 16 17  2  0  0  0  0
 16 41  1  0  0  0  0
 17 18  1  0  0  0  0
 18 19  1  0  0  0  0
 18 20  1  0  0  0  0
 19 42  1  0  0  0  0
 19 43  1  0  0  0  0
 19 44  1  0  0  0  0
 20 45  1  0  0  0  0
 21 22  1  0  0  0  0
 22 23  2  0  0  0  0
 22 46  1  0  0  0  0
 23 24  1  0  0  0  0
 24 47  1  0  0  0  0
 24 48  1  0  0  0  0
 24 49  1  0  0  0  0
M  CHG  1   5   1
M  CHG  1  12   1
M  END
> <s_m_source_file>
AV-unprocessed.smi

> <i_m_source_file_index>
2027

> <i_lp_mmshare_version>
43012

> <i_f3d_flags>
0

> <s_epik_input>
W0NIM11jKFtjSF0xKWMoW0NIM10pW2NIXWMoYzEyKW4oW2NIXW4yKVtDSDJdW0NASF0oW09IXSlbQ0gyXU4oW0NIM10pW0NIMl1jM1tjSF1ubihbQ0gzXSlbY0hdMw==

> <s_epik_cmdline>
J2VwaWtfcHl0aG9uJywgJy1waCcsICc3LjAnLCAnLXRuJywgJzgnLCAnLW1hJywgJzIwMCcsICctbWV0YWxfYmluZGluZycsICctaW1hZScsICc8aW5maWxlLm1hZT4nLCAnLW9tYWUnLCAnPG91dGZpbGUubWFlPic=

> <r_lp_tautomer_probability>
1

> <r_epik_Ionization_Penalty>
1.77469

> <r_epik_Ionization_Penalty_Charging>
1.77463

> <r_epik_Ionization_Penalty_Neutral>
6.41153e-05

> <r_epik_State_Penalty>
1.85225

> <r_epik_Charging_Adjusted_Penalty>
3.62688

> <i_epik_Tot_Q>
2

> <i_epik_Tot_abs_Q>
2

> <r_epik_Metal_State_Penalty>
1.92669

> <b_epik_Metal_Only>
0

> <s_lp_Force_Field>
OPLS_2005

> <r_lp_Energy>
18.885

> <b_lp_Chiralities_Consistent>
1

> <s_lp_Variant>
AV-unprocessed.smi:2027-10

> <Gold.Version>
5.8.1

> <Gold.Id.Protein>
6NUR|6NUR_protein|mol2

> <Gold.PLP.Fitness>
55.4808

> <Gold.PLP.PLP>
-44.1280

> <Gold.PLP.part.hbond>
-2.0000

> <Gold.PLP.part.metal>
0.0000

> <Gold.PLP.part.buried>
-6.4635

> <Gold.PLP.part.nonpolar>
-34.5869

> <Gold.PLP.part.repulsive>
0.3269

> <Gold.PLP.ligand.clash>
0.0000

> <Gold.PLP.ligand.torsion>
0.9013

> <Gold.PLP.Chemscore.Hbond>
3.0000

> <Gold.PLP.Chemscore.CHOScore>
1.3631

> <Gold.PLP.Chemscore.Metal>
0.0000

> <Gold.Chemscore.Hbonds>
donor molecule, donor type, donor heavy atom, donor atom, acceptor molecule, acceptor atom, score
      L1  H    10    33       P1  8028  0.93
      L1  H    12    50       P1  8028  2.00
      L1  C    16    41       P1  8029  0.48

> <Gold.PLP.Chemscore.Internal.Correction>
0.0659

> <Gold.Rescore>
     Score         DG    S(hbond)    S(metal)    S(lipo)     H(rot)  DE(clash)    DE(int)     intcor
     16.07     -19.91       1.86        0.00     126.68       2.58       1.68       2.15       ----

> <Gold.Chemscore.Fitness>
16.0731

> <Gold.Chemscore.DG>
-19.9080

> <Gold.Chemscore.ZeroCoef>
-5.4800

> <Gold.Chemscore.Hbond>
1.8623

> <Gold.Chemscore.Metal>
0.0000

> <Gold.Chemscore.Lipo>
126.6834

> <Gold.Chemscore.Internal_Hbond>
0.0000

> <Gold.Chemscore.DEClash>
1.6832

> <Gold.Chemscore.DEInternal>
2.1517

> <Gold.Chemscore.Rot>
2.5836

> <Gold.Chemscore.Internal.Correction>
   9.000000E+99

> <Gold.Chemscore.Hbonds>
donor molecule, donor type, donor heavy atom, donor atom, acceptor molecule, acceptor atom, score
      L1  H    10    33       P1  8028  0.86
      L1  H    12    50       P1  8028  0.78

> <Gold.Chemscore.Hbond.Weighted>
-6.2199

> <Gold.Chemscore.Metal.Weighted>
-0.0000

> <Gold.Chemscore.Lipo.Weighted>
-14.8220

> <Gold.Chemscore.Internal_Hbond.Weighted>
0.0000

> <Gold.Chemscore.DEClash.Weighted>
1.6832

> <Gold.Chemscore.DEInternal.Weighted>
2.1517

> <Gold.Chemscore.Rot.Weighted>
6.6139

> <Gold.Chemscore.Internal.Correction.Weighted>
   9.000000E+99

> <Gold.Protein.RotatedTorsions>
[ 6907 6896 6895 6894 ] final  135.05 input  -60.11 | X-H torsion
[ 7974 7965 7964 7962 ] final  -28.05 input  175.53 | X-H torsion
[ 8008 7997 7996 7995 ] final  142.94 input   59.86 | X-H torsion
[ 10167 10162 10161 10158 ] final -122.92 input  -65.29 | X-H torsion
[ 10718 10713 10712 10709 ] final  -48.73 input   66.30 | X-H torsion
[ 10763 10752 10751 10750 ] final  109.66 input  -60.55 | X-H torsion
[ 11005 11000 10999 10996 ] final  -84.23 input  -57.11 | X-H torsion

> <Gold.Protein.ActiveResidues>
 VAL166  LYS551  ARG553  GLY616  TRP617  ASP618  TYR619  PRO620  LYS621  CYS622 
 ASP623  PHE694  ASN695  SER759  ASP760  ASP761  ALA762  ILE779  LEU786  VAL792 
 PHE793  MET794  SER795  GLU796  ALA797  LYS798  CYS799  TRP800  GLU811  SER814 

> <Gold.Protein.RotatedAtoms>
  152.3047  133.5691  159.5641 H   0  0  0  0  0  0  0  0  0  0  0  0  # atno 6907 bound_to 6896
  150.7294  134.0240  159.3720 H   0  0  0  0  0  0  0  0  0  0  0  0  # atno 6908 bound_to 6896
  151.8137  135.0673  160.0467 H   0  0  0  0  0  0  0  0  0  0  0  0  # atno 6909 bound_to 6896
  146.1315  140.5232  142.8691 H   0  0  0  0  0  0  0  0  0  0  0  0  # atno 7974 bound_to 7965
  156.2940  140.2275  156.4809 H   0  0  0  0  0  0  0  0  0  0  0  0  # atno 8008 bound_to 7997
  154.7854  140.0457  157.1181 H   0  0  0  0  0  0  0  0  0  0  0  0  # atno 8009 bound_to 7997
  154.9709  140.3066  155.4992 H   0  0  0  0  0  0  0  0  0  0  0  0  # atno 8010 bound_to 7997
  140.0090  143.5461  152.2271 H   0  0  0  0  0  0  0  0  0  0  0  0  # atno 10167 bound_to 10162
  156.1960  130.4154  149.9306 H   0  0  0  0  0  0  0  0  0  0  0  0  # atno 10718 bound_to 10713
  153.4379  135.3773  155.2210 H   0  0  0  0  0  0  0  0  0  0  0  0  # atno 10763 bound_to 10752
  154.8753  135.3856  154.4188 H   0  0  0  0  0  0  0  0  0  0  0  0  # atno 10764 bound_to 10752
  153.4730  135.7087  153.6045 H   0  0  0  0  0  0  0  0  0  0  0  0  # atno 10765 bound_to 10752
  141.1652  133.7335  156.8837 H   0  0  0  0  0  0  0  0  0  0  0  0  # atno 11005 bound_to 11000
  144.7696  140.5607  143.6679 LP  0  0  0  0  0  0  0  0  0  0  0  0  # atno 17320 bound_to 7965
  145.5250  139.1476  143.3531 LP  0  0  0  0  0  0  0  0  0  0  0  0  # atno 17321 bound_to 7965
  139.6218  144.7630  151.2724 LP  0  0  0  0  0  0  0  0  0  0  0  0  # atno 17342 bound_to 10162
  140.7389  143.6635  150.8143 LP  0  0  0  0  0  0  0  0  0  0  0  0  # atno 17343 bound_to 10162
  156.7031  130.8941  151.3601 LP  0  0  0  0  0  0  0  0  0  0  0  0  # atno 17370 bound_to 10713
  157.6958  130.9280  150.0640 LP  0  0  0  0  0  0  0  0  0  0  0  0  # atno 17371 bound_to 10713
  140.1697  134.9108  157.2818 LP  0  0  0  0  0  0  0  0  0  0  0  0  # atno 17394 bound_to 11000
  140.2516  134.3676  155.7440 LP  0  0  0  0  0  0  0  0  0  0  0  0  # atno 17395 bound_to 11000

$$$$
