AV-unprocessed.smi:3082|AV-procd|sdf|11742|dock7
  -GOLD-   2272017133D 1   1.00000     0.00000
 Structure written by MMmdl.
 28 29  0  0  0  0  0  0  0  0  2 V2000
  152.2137  142.6578  158.6078 C   0  0  0  0  0  0  0  0  0  0  0  0
  151.5987  141.7087  157.6201 C   0  0  0  0  0  0  0  0  0  0  0  0
  151.6962  140.2887  157.5937 C   0  0  0  0  0  0  0  0  0  0  0  0
  151.0358  139.7478  156.5834 N   0  0  0  0  0  0  0  0  0  0  0  0
  150.4920  140.7984  155.9297 N   0  0  0  0  0  0  0  0  0  0  0  0
  149.6806  140.5841  154.7408 C   0  0  2  0  0  0  0  0  0  0  0  0
  148.2897  141.2358  154.8774 C   0  0  0  0  0  0  0  0  0  0  0  0
  147.4517  140.9728  153.6168 C   0  0  0  0  0  0  0  0  0  0  0  0
  147.3682  139.4666  153.3174 C   0  0  0  0  0  0  0  0  0  0  0  0
  148.7211  138.8798  153.1998 N   0  3  0  0  0  0  0  0  0  0  0  0
  149.5452  139.0818  154.4117 C   0  0  0  0  0  0  0  0  0  0  0  0
  150.8159  141.9936  156.5374 C   0  0  0  0  0  0  0  0  0  0  0  0
  152.7729  142.1320  159.3822 H   0  0  0  0  0  0  0  0  0  0  0  0
  151.4573  143.2599  159.1114 H   0  0  0  0  0  0  0  0  0  0  0  0
  152.9065  143.3472  158.1246 H   0  0  0  0  0  0  0  0  0  0  0  0
  152.2258  139.6388  158.2746 H   0  0  0  0  0  0  0  0  0  0  0  0
  150.1986  141.0661  153.9095 H   0  0  0  0  0  0  0  0  0  0  0  0
  147.7665  140.8351  155.7468 H   0  0  0  0  0  0  0  0  0  0  0  0
  148.3895  142.3094  155.0417 H   0  0  0  0  0  0  0  0  0  0  0  0
  146.4500  141.3846  153.7424 H   0  0  0  0  0  0  0  0  0  0  0  0
  147.8956  141.4924  152.7664 H   0  0  0  0  0  0  0  0  0  0  0  0
  146.8209  138.9518  154.1083 H   0  0  0  0  0  0  0  0  0  0  0  0
  146.8240  139.2948  152.3885 H   0  0  0  0  0  0  0  0  0  0  0  0
  148.6347  137.8888  153.0244 H   0  0  0  0  0  0  0  0  0  0  0  0
  150.5278  138.6386  154.2473 H   0  0  0  0  0  0  0  0  0  0  0  0
  149.0865  138.5405  155.2406 H   0  0  0  0  0  0  0  0  0  0  0  0
  150.4675  142.9411  156.1531 H   0  0  0  0  0  0  0  0  0  0  0  0
  149.1911  139.3100  152.4163 H   0  0  0  0  0  0  0  0  0  0  0  0
  1  2  1  0  0  0  0
  1 13  1  0  0  0  0
  1 14  1  0  0  0  0
  1 15  1  0  0  0  0
  2 12  2  0  0  0  0
  2  3  1  0  0  0  0
  3  4  2  0  0  0  0
  3 16  1  0  0  0  0
  4  5  1  0  0  0  0
  5  6  1  0  0  0  0
  5 12  1  0  0  0  0
  6 11  1  0  0  0  0
  6  7  1  0  0  0  0
  6 17  1  0  0  0  0
  7  8  1  0  0  0  0
  7 18  1  0  0  0  0
  7 19  1  0  0  0  0
  8  9  1  0  0  0  0
  8 20  1  0  0  0  0
  8 21  1  0  0  0  0
  9 10  1  0  0  0  0
  9 22  1  0  0  0  0
  9 23  1  0  0  0  0
 10 11  1  0  0  0  0
 10 24  1  0  0  0  0
 10 28  1  0  0  0  0
 11 25  1  0  0  0  0
 11 26  1  0  0  0  0
 12 27  1  0  0  0  0
M  CHG  1  10   1
M  END
> <s_m_source_file>
AV-unprocessed.smi

> <i_m_source_file_index>
3082

> <i_lp_mmshare_version>
43012

> <i_f3d_flags>
0

> <s_epik_input>
W0NIM11jMVtjSF1ubihbY0hdMSlbQ0BASF0yW0NIMl1bQ0gyXVtDSDJdW05IXVtDSDJdMg==

> <s_epik_cmdline>
J2VwaWtfcHl0aG9uJywgJy1waCcsICc3LjAnLCAnLXRuJywgJzgnLCAnLW1hJywgJzIwMCcsICctbWV0YWxfYmluZGluZycsICctaW1hZScsICc8aW5maWxlLm1hZT4nLCAnLW9tYWUnLCAnPG91dGZpbGUubWFlPic=

> <r_lp_tautomer_probability>
1

> <r_epik_Ionization_Penalty>
0.000667973

> <r_epik_Ionization_Penalty_Charging>
0.000651447

> <r_epik_Ionization_Penalty_Neutral>
1.65255e-05

> <r_epik_State_Penalty>
-0

> <r_epik_Charging_Adjusted_Penalty>
0.000651447

> <i_epik_Tot_Q>
1

> <i_epik_Tot_abs_Q>
1

> <r_epik_Metal_State_Penalty>
-0

> <b_epik_Metal_Only>
0

> <s_lp_Force_Field>
OPLS_2005

> <r_lp_Energy>
15.6496

> <b_lp_Chiralities_Consistent>
1

> <s_lp_Variant>
AV-unprocessed.smi:3082-1

> <Gold.Version>
5.8.1

> <Gold.Id.Protein>
6NUR|6NUR_protein|mol2

> <Gold.PLP.Fitness>
37.7307

> <Gold.PLP.PLP>
-25.9428

> <Gold.PLP.part.hbond>
-1.9020

> <Gold.PLP.part.metal>
0.0000

> <Gold.PLP.part.buried>
-2.7446

> <Gold.PLP.part.nonpolar>
-21.9227

> <Gold.PLP.part.repulsive>
0.0861

> <Gold.PLP.ligand.clash>
0.0000

> <Gold.PLP.ligand.torsion>
0.0287

> <Gold.PLP.Chemscore.Hbond>
2.9425

> <Gold.PLP.Chemscore.CHOScore>
1.0000

> <Gold.PLP.Chemscore.Metal>
0.0000

> <Gold.Chemscore.Hbonds>
donor molecule, donor type, donor heavy atom, donor atom, acceptor molecule, acceptor atom, score
      L1  H    10    24       P1  7948  2.00
      L1  H    10    28       P1  7957  0.93
      L1  C    12    27       P1  8028  1.00

> <Gold.PLP.Chemscore.Internal.Correction>
0.0179

> <Gold.Rescore>
     Score         DG    S(hbond)    S(metal)    S(lipo)     H(rot)  DE(clash)    DE(int)     intcor
     16.88     -16.91       1.93        0.00      64.47       1.00       0.01       0.02       ----

> <Gold.Chemscore.Fitness>
16.8804

> <Gold.Chemscore.DG>
-16.9061

> <Gold.Chemscore.ZeroCoef>
-5.4800

> <Gold.Chemscore.Hbond>
1.9289

> <Gold.Chemscore.Metal>
0.0000

> <Gold.Chemscore.Lipo>
64.4749

> <Gold.Chemscore.Internal_Hbond>
0.0000

> <Gold.Chemscore.DEClash>
0.0106

> <Gold.Chemscore.DEInternal>
0.0150

> <Gold.Chemscore.Rot>
1.0000

> <Gold.Chemscore.Internal.Correction>
   9.000000E+99

> <Gold.Chemscore.Hbonds>
donor molecule, donor type, donor heavy atom, donor atom, acceptor molecule, acceptor atom, score
      L1  H    10    24       P1  7948  0.88
      L1  H    10    28       P1  7957  0.89

> <Gold.Chemscore.Hbond.Weighted>
-6.4425

> <Gold.Chemscore.Metal.Weighted>
-0.0000

> <Gold.Chemscore.Lipo.Weighted>
-7.5436

> <Gold.Chemscore.Internal_Hbond.Weighted>
0.0000

> <Gold.Chemscore.DEClash.Weighted>
0.0106

> <Gold.Chemscore.DEInternal.Weighted>
0.0150

> <Gold.Chemscore.Rot.Weighted>
2.5600

> <Gold.Chemscore.Internal.Correction.Weighted>
   9.000000E+99

> <Gold.Protein.RotatedTorsions>
[ 6907 6896 6895 6894 ] final  -31.68 input  -60.11 | X-H torsion
[ 7974 7965 7964 7962 ] final -179.06 input  175.53 | X-H torsion
[ 8008 7997 7996 7995 ] final  150.99 input   59.86 | X-H torsion
[ 10167 10162 10161 10158 ] final -129.46 input  -65.29 | X-H torsion
[ 10718 10713 10712 10709 ] final    2.48 input   66.30 | X-H torsion
[ 10763 10752 10751 10750 ] final  -18.62 input  -60.55 | X-H torsion
[ 11005 11000 10999 10996 ] final  154.24 input  -57.11 | X-H torsion

> <Gold.Protein.ActiveResidues>
 VAL166  LYS551  ARG553  GLY616  TRP617  ASP618  TYR619  PRO620  LYS621  CYS622 
 ASP623  PHE694  ASN695  SER759  ASP760  ASP761  ALA762  ILE779  LEU786  VAL792 
 PHE793  MET794  SER795  GLU796  ALA797  LYS798  CYS799  TRP800  GLU811  SER814 

> <Gold.Protein.RotatedAtoms>
  151.0888  134.9903  159.8392 H   0  0  0  0  0  0  0  0  0  0  0  0  # atno 6907 bound_to 6896
  152.5427  134.2091  159.8753 H   0  0  0  0  0  0  0  0  0  0  0  0  # atno 6908 bound_to 6896
  151.2126  133.4503  159.2632 H   0  0  0  0  0  0  0  0  0  0  0  0  # atno 6909 bound_to 6896
  144.7134  140.0775  143.6427 H   0  0  0  0  0  0  0  0  0  0  0  0  # atno 7974 bound_to 7965
  156.2693  140.2060  156.6105 H   0  0  0  0  0  0  0  0  0  0  0  0  # atno 8008 bound_to 7997
  154.6835  140.0537  157.0315 H   0  0  0  0  0  0  0  0  0  0  0  0  # atno 8009 bound_to 7997
  155.0966  140.3202  155.4561 H   0  0  0  0  0  0  0  0  0  0  0  0  # atno 8010 bound_to 7997
  139.9395  143.6179  152.2507 H   0  0  0  0  0  0  0  0  0  0  0  0  # atno 10167 bound_to 10162
  156.8636  130.5595  149.5661 H   0  0  0  0  0  0  0  0  0  0  0  0  # atno 10718 bound_to 10713
  153.5922  135.7002  153.5419 H   0  0  0  0  0  0  0  0  0  0  0  0  # atno 10763 bound_to 10752
  153.3169  135.4085  155.1383 H   0  0  0  0  0  0  0  0  0  0  0  0  # atno 10764 bound_to 10752
  154.8598  135.3686  154.5454 H   0  0  0  0  0  0  0  0  0  0  0  0  # atno 10765 bound_to 10752
  140.1471  134.8700  157.2407 H   0  0  0  0  0  0  0  0  0  0  0  0  # atno 11005 bound_to 11000
  145.9731  139.2884  143.1087 LP  0  0  0  0  0  0  0  0  0  0  0  0  # atno 17320 bound_to 7965
  145.9095  140.9190  143.0461 LP  0  0  0  0  0  0  0  0  0  0  0  0  # atno 17321 bound_to 7965
  139.6716  144.7660  151.1773 LP  0  0  0  0  0  0  0  0  0  0  0  0  # atno 17342 bound_to 10162
  140.7615  143.5857  150.8848 LP  0  0  0  0  0  0  0  0  0  0  0  0  # atno 17343 bound_to 10162
  156.0763  130.5784  150.9480 LP  0  0  0  0  0  0  0  0  0  0  0  0  # atno 17370 bound_to 10713
  157.6236  131.0927  150.8576 LP  0  0  0  0  0  0  0  0  0  0  0  0  # atno 17371 bound_to 10713
  140.2650  134.3527  155.7393 LP  0  0  0  0  0  0  0  0  0  0  0  0  # atno 17394 bound_to 11000
  141.2194  133.7391  156.9137 LP  0  0  0  0  0  0  0  0  0  0  0  0  # atno 17395 bound_to 11000

$$$$
