AV-unprocessed.smi:767|AV-procd|sdf|3663|dock7
  -GOLD-   22720 1 73D 1   1.00000     0.00000
 Structure written by MMmdl.
 47 49  0  0  0  0  0  0  0  0  1 V2000
  148.5394  141.2648  153.9206 C   0  0  0  0  0  0  0  0  0  0  0  0
  149.3141  140.2288  154.7082 C   0  0  0  0  0  0  0  0  0  0  0  0
  148.6392  139.2237  155.4322 C   0  0  0  0  0  0  0  0  0  0  0  0
  149.4050  138.2909  156.1579 C   0  0  0  0  0  0  0  0  0  0  0  0
  150.8103  138.4006  156.1353 C   0  0  0  0  0  0  0  0  0  0  0  0
  151.6812  137.4377  156.9245 C   0  0  0  0  0  0  0  0  0  0  0  0
  151.3758  137.4293  158.4364 C   0  0  0  0  0  0  0  0  0  0  0  0
  151.4266  138.7604  159.0342 N   0  0  0  0  0  0  0  0  0  0  0  0
  152.2661  139.7375  158.6668 C   0  0  0  0  0  0  0  0  0  0  0  0
  153.1280  139.6169  157.7964 O   0  0  0  0  0  0  0  0  0  0  0  0
  152.0377  140.8686  159.3465 N   0  0  0  0  0  0  0  0  0  0  0  0
  152.7675  142.1231  159.1379 C   0  0  2  0  0  0  0  0  0  0  0  0
  153.1800  142.7926  160.4515 C   0  0  2  0  0  0  0  0  0  0  0  0
  153.3168  142.3657  161.8683 C   0  0  0  0  0  0  0  0  0  0  0  0
  152.6954  143.6345  162.5132 C   0  0  0  0  0  0  0  0  0  0  0  0
  152.1152  144.3944  161.4218 O   0  0  0  0  0  0  0  0  0  0  0  0
  151.7978  143.4120  160.4562 C   0  0  1  0  0  0  0  0  0  0  0  0
  151.8684  143.4040  158.9132 C   0  0  0  0  0  0  0  0  0  0  0  0
  152.5289  144.6164  158.2328 C   0  0  0  0  0  0  0  0  0  0  0  0
  150.5279  143.2016  158.1989 C   0  0  0  0  0  0  0  0  0  0  0  0
  151.3866  139.4396  155.3738 C   0  0  0  0  0  0  0  0  0  0  0  0
  150.6606  140.3393  154.6763 N   0  0  0  0  0  0  0  0  0  0  0  0
  147.5883  140.8576  153.5757 H   0  0  0  0  0  0  0  0  0  0  0  0
  149.1020  141.5942  153.0464 H   0  0  0  0  0  0  0  0  0  0  0  0
  148.3343  142.1347  154.5448 H   0  0  0  0  0  0  0  0  0  0  0  0
  147.5604  139.1698  155.4358 H   0  0  0  0  0  0  0  0  0  0  0  0
  148.9212  137.5118  156.7286 H   0  0  0  0  0  0  0  0  0  0  0  0
  151.5559  136.4338  156.5178 H   0  0  0  0  0  0  0  0  0  0  0  0
  152.7288  137.6970  156.7659 H   0  0  0  0  0  0  0  0  0  0  0  0
  150.3683  137.0451  158.5983 H   0  0  0  0  0  0  0  0  0  0  0  0
  152.0513  136.7508  158.9595 H   0  0  0  0  0  0  0  0  0  0  0  0
  150.7516  138.9591  159.7580 H   0  0  0  0  0  0  0  0  0  0  0  0
  151.3048  140.8728  160.0406 H   0  0  0  0  0  0  0  0  0  0  0  0
  153.5925  142.0425  158.4280 H   0  0  0  0  0  0  0  0  0  0  0  0
  153.9672  143.5179  160.2311 H   0  0  0  0  0  0  0  0  0  0  0  0
  152.7364  141.4687  162.0883 H   0  0  0  0  0  0  0  0  0  0  0  0
  154.3532  142.2064  162.1670 H   0  0  0  0  0  0  0  0  0  0  0  0
  151.9269  143.3640  163.2383 H   0  0  0  0  0  0  0  0  0  0  0  0
  153.4437  144.2418  163.0230 H   0  0  0  0  0  0  0  0  0  0  0  0
  151.0122  142.7490  160.8332 H   0  0  0  0  0  0  0  0  0  0  0  0
  151.9388  145.5213  158.3810 H   0  0  0  0  0  0  0  0  0  0  0  0
  152.6232  144.4621  157.1574 H   0  0  0  0  0  0  0  0  0  0  0  0
  153.5296  144.8315  158.6033 H   0  0  0  0  0  0  0  0  0  0  0  0
  149.9448  144.1224  158.1661 H   0  0  0  0  0  0  0  0  0  0  0  0
  149.9088  142.4593  158.7020 H   0  0  0  0  0  0  0  0  0  0  0  0
  150.6694  142.8631  157.1721 H   0  0  0  0  0  0  0  0  0  0  0  0
  152.4589  139.5624  155.3328 H   0  0  0  0  0  0  0  0  0  0  0  0
  1  2  1  0  0  0  0
  1 23  1  0  0  0  0
  1 24  1  0  0  0  0
  1 25  1  0  0  0  0
  2 22  1  0  0  0  0
  2  3  2  0  0  0  0
  3  4  1  0  0  0  0
  3 26  1  0  0  0  0
  4  5  2  0  0  0  0
  4 27  1  0  0  0  0
  5  6  1  0  0  0  0
  5 21  1  0  0  0  0
  6  7  1  0  0  0  0
  6 28  1  0  0  0  0
  6 29  1  0  0  0  0
  7  8  1  0  0  0  0
  7 30  1  0  0  0  0
  7 31  1  0  0  0  0
  8  9  1  0  0  0  0
  8 32  1  0  0  0  0
  9 10  2  0  0  0  0
  9 11  1  0  0  0  0
 11 12  1  0  0  0  0
 11 33  1  0  0  0  0
 12 18  1  0  0  0  0
 12 13  1  0  0  0  0
 12 34  1  0  0  0  0
 13 17  1  0  0  0  0
 13 14  1  0  0  0  0
 13 35  1  0  0  0  0
 14 15  1  0  0  0  0
 14 36  1  0  0  0  0
 14 37  1  0  0  0  0
 15 16  1  0  0  0  0
 15 38  1  0  0  0  0
 15 39  1  0  0  0  0
 16 17  1  0  0  0  0
 17 18  1  0  0  0  0
 17 40  1  0  0  0  0
 18 19  1  0  0  0  0
 18 20  1  0  0  0  0
 19 41  1  0  0  0  0
 19 42  1  0  0  0  0
 19 43  1  0  0  0  0
 20 44  1  0  0  0  0
 20 45  1  0  0  0  0
 20 46  1  0  0  0  0
 21 22  2  0  0  0  0
 21 47  1  0  0  0  0
M  END
> <s_m_source_file>
AV-unprocessed.smi

> <i_m_source_file_index>
767

> <i_lp_mmshare_version>
43012

> <i_f3d_flags>
0

> <s_epik_input>
W0NIM11jMVtjSF1bY0hdYyhbY0hdbjEpW0NIMl1bQ0gyXVtOSF1DKD1PKVtOSF1bQ0BIXTJDKFtDSDNdKShbQ0gzXSlbQ0BIXShbQ0BASF0yMylPW0NIMl1bQ0gyXTM=

> <s_epik_cmdline>
J2VwaWtfcHl0aG9uJywgJy1waCcsICc3LjAnLCAnLXRuJywgJzgnLCAnLW1hJywgJzIwMCcsICctbWV0YWxfYmluZGluZycsICctaW1hZScsICc8aW5maWxlLm1hZT4nLCAnLW9tYWUnLCAnPG91dGZpbGUubWFlPic=

> <r_epik_Ionization_Penalty>
0.0567523

> <r_epik_Ionization_Penalty_Charging>
0

> <r_epik_Ionization_Penalty_Neutral>
0.0567523

> <r_epik_State_Penalty>
0.0489186

> <r_epik_Charging_Adjusted_Penalty>
0.0489186

> <i_epik_Tot_Q>
0

> <i_epik_Tot_abs_Q>
0

> <r_epik_Metal_State_Penalty>
0.044622

> <b_epik_Metal_Only>
0

> <s_lp_Force_Field>
OPLS_2005

> <r_lp_Energy>
58.7335

> <b_lp_Chiralities_Consistent>
1

> <s_lp_Variant>
AV-unprocessed.smi:767-7

> <Gold.Version>
5.8.1

> <Gold.Id.Protein>
6NUR|6NUR_protein|mol2

> <Gold.PLP.Fitness>
49.4347

> <Gold.PLP.PLP>
-43.8118

> <Gold.PLP.part.hbond>
-2.0000

> <Gold.PLP.part.metal>
0.0000

> <Gold.PLP.part.buried>
-5.5024

> <Gold.PLP.part.nonpolar>
-36.7344

> <Gold.PLP.part.repulsive>
0.5577

> <Gold.PLP.ligand.clash>
0.0000

> <Gold.PLP.ligand.torsion>
0.3243

> <Gold.PLP.Chemscore.Hbond>
2.0000

> <Gold.PLP.Chemscore.CHOScore>
0.0000

> <Gold.PLP.Chemscore.Metal>
0.0000

> <Gold.Chemscore.Hbonds>
donor molecule, donor type, donor heavy atom, donor atom, acceptor molecule, acceptor atom, score
      P1  H  7989  7998       L1    22  1.00
      P1  H  7997  8009       L1    10  1.00

> <Gold.PLP.Chemscore.Internal.Correction>
0.2714

> <Gold.Rescore>
     Score         DG    S(hbond)    S(metal)    S(lipo)     H(rot)  DE(clash)    DE(int)     intcor
     21.12     -23.32       1.90        0.00     129.87       1.45       0.22       1.98       ----

> <Gold.Chemscore.Fitness>
21.1221

> <Gold.Chemscore.DG>
-23.3224

> <Gold.Chemscore.ZeroCoef>
-5.4800

> <Gold.Chemscore.Hbond>
1.9040

> <Gold.Chemscore.Metal>
0.0000

> <Gold.Chemscore.Lipo>
129.8668

> <Gold.Chemscore.Internal_Hbond>
0.0000

> <Gold.Chemscore.DEClash>
0.2220

> <Gold.Chemscore.DEInternal>
1.9783

> <Gold.Chemscore.Rot>
1.4497

> <Gold.Chemscore.Internal.Correction>
   9.000000E+99

> <Gold.Chemscore.Hbonds>
donor molecule, donor type, donor heavy atom, donor atom, acceptor molecule, acceptor atom, score
      P1  H  7989  7998       L1    22  0.54
      P1  H  7997  8009       L1    10  1.00

> <Gold.Chemscore.Hbond.Weighted>
-6.3592

> <Gold.Chemscore.Metal.Weighted>
-0.0000

> <Gold.Chemscore.Lipo.Weighted>
-15.1944

> <Gold.Chemscore.Internal_Hbond.Weighted>
0.0000

> <Gold.Chemscore.DEClash.Weighted>
0.2220

> <Gold.Chemscore.DEInternal.Weighted>
1.9783

> <Gold.Chemscore.Rot.Weighted>
3.7112

> <Gold.Chemscore.Internal.Correction.Weighted>
   9.000000E+99

> <Gold.Protein.RotatedTorsions>
[ 6907 6896 6895 6894 ] final  -91.51 input  -60.11 | X-H torsion
[ 7974 7965 7964 7962 ] final   85.82 input  175.53 | X-H torsion
[ 8008 7997 7996 7995 ] final  151.86 input   59.86 | X-H torsion
[ 10167 10162 10161 10158 ] final  173.72 input  -65.29 | X-H torsion
[ 10718 10713 10712 10709 ] final -113.35 input   66.30 | X-H torsion
[ 10763 10752 10751 10750 ] final -124.18 input  -60.55 | X-H torsion
[ 11005 11000 10999 10996 ] final  167.71 input  -57.11 | X-H torsion

> <Gold.Protein.ActiveResidues>
 VAL166  LYS551  ARG553  GLY616  TRP617  ASP618  TYR619  PRO620  LYS621  CYS622 
 ASP623  PHE694  ASN695  SER759  ASP760  ASP761  ALA762  ILE779  LEU786  VAL792 
 PHE793  MET794  SER795  GLU796  ALA797  LYS798  CYS799  TRP800  GLU811  SER814 

> <Gold.Protein.RotatedAtoms>
  150.6893  134.2265  159.4417 H   0  0  0  0  0  0  0  0  0  0  0  0  # atno 6907 bound_to 6896
  152.0218  134.9815  160.0580 H   0  0  0  0  0  0  0  0  0  0  0  0  # atno 6908 bound_to 6896
  152.1389  133.4417  159.4794 H   0  0  0  0  0  0  0  0  0  0  0  0  # atno 6909 bound_to 6896
  145.5804  139.2324  143.2356 H   0  0  0  0  0  0  0  0  0  0  0  0  # atno 7974 bound_to 7965
  156.2655  140.2036  156.6242 H   0  0  0  0  0  0  0  0  0  0  0  0  # atno 8008 bound_to 7997
  154.6733  140.0548  157.0213 H   0  0  0  0  0  0  0  0  0  0  0  0  # atno 8009 bound_to 7997
  155.1105  140.3215  155.4526 H   0  0  0  0  0  0  0  0  0  0  0  0  # atno 8010 bound_to 7997
  139.5118  144.3228  152.0186 H   0  0  0  0  0  0  0  0  0  0  0  0  # atno 10167 bound_to 10162
  156.0761  130.5968  150.8630 H   0  0  0  0  0  0  0  0  0  0  0  0  # atno 10718 bound_to 10713
  154.8719  135.4072  154.3064 H   0  0  0  0  0  0  0  0  0  0  0  0  # atno 10763 bound_to 10752
  153.3915  135.7015  153.6497 H   0  0  0  0  0  0  0  0  0  0  0  0  # atno 10764 bound_to 10752
  153.5277  135.3674  155.2633 H   0  0  0  0  0  0  0  0  0  0  0  0  # atno 10765 bound_to 10752
  140.2796  134.7761  157.3747 H   0  0  0  0  0  0  0  0  0  0  0  0  # atno 11005 bound_to 11000
  146.1720  140.6631  142.9229 LP  0  0  0  0  0  0  0  0  0  0  0  0  # atno 17320 bound_to 7965
  144.7396  140.4906  143.6878 LP  0  0  0  0  0  0  0  0  0  0  0  0  # atno 17321 bound_to 7965
  140.2670  144.4006  150.6165 LP  0  0  0  0  0  0  0  0  0  0  0  0  # atno 17342 bound_to 10162
  140.6116  143.2170  151.6874 LP  0  0  0  0  0  0  0  0  0  0  0  0  # atno 17343 bound_to 10162
  157.5857  131.0945  150.9200 LP  0  0  0  0  0  0  0  0  0  0  0  0  # atno 17370 bound_to 10713
  156.9387  130.5376  149.5280 LP  0  0  0  0  0  0  0  0  0  0  0  0  # atno 17371 bound_to 10713
  140.1296  134.5113  155.8116 LP  0  0  0  0  0  0  0  0  0  0  0  0  # atno 17394 bound_to 11000
  141.2165  133.6785  156.7015 LP  0  0  0  0  0  0  0  0  0  0  0  0  # atno 17395 bound_to 11000

$$$$
