AV-unprocessed.smi:110|AV-procd|sdf|1068|dock4
  -GOLD-   2262018153D 1   1.00000     0.00000
 Structure written by MMmdl.
 46 50  0  0  0  0  0  0  0  0  1 V2000
  154.2862  133.1838  158.9388 O   0  0  0  0  0  0  0  0  0  0  0  0
  155.2512  133.9680  159.6073 C   0  0  0  0  0  0  0  0  0  0  0  0
  155.2381  135.4056  159.0586 C   0  0  2  0  0  0  0  0  0  0  0  0
  153.9045  135.8977  158.9324 O   0  0  0  0  0  0  0  0  0  0  0  0
  153.8187  136.8274  157.8932 C   0  0  1  0  0  0  0  0  0  0  0  0
  153.3767  138.1538  158.4364 N   0  0  0  0  0  0  0  0  0  0  0  0
  152.3580  138.9444  157.9555 C   0  0  0  0  0  0  0  0  0  0  0  0
  152.1621  140.0604  158.6020 N   0  0  0  0  0  0  0  0  0  0  0  0
  153.1088  140.0384  159.6190 C   0  0  0  0  0  0  0  0  0  0  0  0
  153.4555  140.9254  160.6784 C   0  0  0  0  0  0  0  0  0  0  0  0
  152.8357  142.1019  160.9299 N   0  0  0  0  0  0  0  0  0  0  0  0
  152.9612  142.7147  162.2602 C   0  0  0  0  0  0  0  0  0  0  0  0
  152.5735  144.1998  162.1259 C   0  0  0  0  0  0  0  0  0  0  0  0
  152.1362  144.2527  160.6975 C   0  0  0  0  0  0  0  0  0  0  0  0
  151.5975  145.3549  160.0114 C   0  0  0  0  0  0  0  0  0  0  0  0
  151.2249  145.1803  158.6613 C   0  0  0  0  0  0  0  0  0  0  0  0
  151.3843  143.9237  158.0322 C   0  0  0  0  0  0  0  0  0  0  0  0
  151.9262  142.8296  158.7420 C   0  0  0  0  0  0  0  0  0  0  0  0
  152.3177  143.0172  160.0839 C   0  0  0  0  0  0  0  0  0  0  0  0
  154.5124  140.5890  161.4602 N   0  0  0  0  0  0  0  0  0  0  0  0
  155.1614  139.4405  161.2523 C   0  0  0  0  0  0  0  0  0  0  0  0
  154.9304  138.5092  160.3262 N   0  0  0  0  0  0  0  0  0  0  0  0
  153.8892  138.8514  159.5140 C   0  0  0  0  0  0  0  0  0  0  0  0
  155.1868  136.8779  157.1832 C   0  0  1  0  0  0  0  0  0  0  0  0
  155.9826  137.9933  157.5433 O   0  0  0  0  0  0  0  0  0  0  0  0
  155.8321  135.5841  157.6545 C   0  0  2  0  0  0  0  0  0  0  0  0
  155.4712  134.5099  156.8043 O   0  0  0  0  0  0  0  0  0  0  0  0
  155.7917  136.0597  159.7332 H   0  0  0  0  0  0  0  0  0  0  0  0
  153.0120  136.5247  157.2244 H   0  0  0  0  0  0  0  0  0  0  0  0
  155.0395  136.9037  156.1027 H   0  0  0  0  0  0  0  0  0  0  0  0
  156.9213  135.6436  157.6772 H   0  0  0  0  0  0  0  0  0  0  0  0
  153.5033  133.1549  159.4672 H   0  0  0  0  0  0  0  0  0  0  0  0
  154.9920  133.9687  160.6666 H   0  0  0  0  0  0  0  0  0  0  0  0
  156.2380  133.5138  159.5130 H   0  0  0  0  0  0  0  0  0  0  0  0
  151.7603  138.6663  157.0997 H   0  0  0  0  0  0  0  0  0  0  0  0
  152.2892  142.2067  162.9528 H   0  0  0  0  0  0  0  0  0  0  0  0
  153.9774  142.6087  162.6427 H   0  0  0  0  0  0  0  0  0  0  0  0
  151.7636  144.4796  162.8001 H   0  0  0  0  0  0  0  0  0  0  0  0
  153.4258  144.8606  162.2872 H   0  0  0  0  0  0  0  0  0  0  0  0
  151.4680  146.3071  160.5043 H   0  0  0  0  0  0  0  0  0  0  0  0
  150.8076  146.0086  158.1081 H   0  0  0  0  0  0  0  0  0  0  0  0
  151.0853  143.7976  157.0020 H   0  0  0  0  0  0  0  0  0  0  0  0
  152.0303  141.8689  158.2597 H   0  0  0  0  0  0  0  0  0  0  0  0
  155.9829  139.2382  161.9237 H   0  0  0  0  0  0  0  0  0  0  0  0
  156.8923  137.7562  157.4460 H   0  0  0  0  0  0  0  0  0  0  0  0
  156.2573  134.1566  156.4168 H   0  0  0  0  0  0  0  0  0  0  0  0
  1  2  1  0  0  0  0
  1 32  1  0  0  0  0
  2  3  1  0  0  0  0
  2 33  1  0  0  0  0
  2 34  1  0  0  0  0
  3 28  1  0  0  0  0
  3 26  1  0  0  0  0
  3  4  1  0  0  0  0
  4  5  1  0  0  0  0
  5 29  1  0  0  0  0
  5  6  1  0  0  0  0
  5 24  1  0  0  0  0
  6 23  1  0  0  0  0
  6  7  1  0  0  0  0
  7  8  2  0  0  0  0
  7 35  1  0  0  0  0
  8  9  1  0  0  0  0
  9 23  2  0  0  0  0
  9 10  1  0  0  0  0
 10 11  1  0  0  0  0
 10 20  2  0  0  0  0
 11 19  1  0  0  0  0
 11 12  1  0  0  0  0
 12 13  1  0  0  0  0
 12 36  1  0  0  0  0
 12 37  1  0  0  0  0
 13 14  1  0  0  0  0
 13 38  1  0  0  0  0
 13 39  1  0  0  0  0
 14 19  2  0  0  0  0
 14 15  1  0  0  0  0
 15 16  2  0  0  0  0
 15 40  1  0  0  0  0
 16 17  1  0  0  0  0
 16 41  1  0  0  0  0
 17 18  2  0  0  0  0
 17 42  1  0  0  0  0
 18 19  1  0  0  0  0
 18 43  1  0  0  0  0
 20 21  1  0  0  0  0
 21 22  2  0  0  0  0
 21 44  1  0  0  0  0
 22 23  1  0  0  0  0
 24 30  1  0  0  0  0
 24 25  1  0  0  0  0
 24 26  1  0  0  0  0
 25 45  1  0  0  0  0
 26 31  1  0  0  0  0
 26 27  1  0  0  0  0
 27 46  1  0  0  0  0
M  END
> <s_m_source_file>
AV-unprocessed.smi

> <i_m_source_file_index>
110

> <i_lp_mmshare_version>
43012

> <i_f3d_flags>
0

> <s_epik_input>
W09IXVtDSDJdW0NASF0xT1tDQEhdKFtDQEhdKFtPSF0pW0NAQEhdMVtPSF0pbihbY0hdbjIpYyhjMjMpbltjSF1uYzNOKFtDSDJdW0NIMl00KWMoYzQ1KVtjSF1bY0hdW2NIXVtjSF01

> <s_epik_cmdline>
J2VwaWtfcHl0aG9uJywgJy1waCcsICc3LjAnLCAnLXRuJywgJzgnLCAnLW1hJywgJzIwMCcsICctbWV0YWxfYmluZGluZycsICctaW1hZScsICc8aW5maWxlLm1hZT4nLCAnLW9tYWUnLCAnPG91dGZpbGUubWFlPic=

> <r_lp_tautomer_probability>
1

> <r_epik_Ionization_Penalty>
0.00068475

> <r_epik_Ionization_Penalty_Charging>
0

> <r_epik_Ionization_Penalty_Neutral>
0.00068475

> <r_epik_State_Penalty>
0.000417442

> <r_epik_Charging_Adjusted_Penalty>
0.000417442

> <i_epik_Tot_Q>
0

> <i_epik_Tot_abs_Q>
0

> <r_epik_Metal_State_Penalty>
-0

> <b_epik_Metal_Only>
0

> <s_epik_Chemistry_Notes>
This compound contains an acetal/aminal-like group ( X-CH(R)-Y where X, Y are N, S, or O) that may be acid/base labile, releasing an aldehyde.

> <s_lp_Force_Field>
OPLS_2005

> <r_lp_Energy>
62.6904

> <b_lp_Chiralities_Consistent>
1

> <s_lp_Variant>
AV-unprocessed.smi:110-6

> <Gold.Version>
5.8.1

> <Gold.Id.Protein>
6NUR|6NUR_protein|mol2

> <Gold.PLP.Fitness>
54.5028

> <Gold.PLP.PLP>
-50.9741

> <Gold.PLP.part.hbond>
-3.0452

> <Gold.PLP.part.metal>
0.0000

> <Gold.PLP.part.buried>
-6.3935

> <Gold.PLP.part.nonpolar>
-41.5660

> <Gold.PLP.part.repulsive>
0.0000

> <Gold.PLP.ligand.clash>
0.0000

> <Gold.PLP.ligand.torsion>
0.6721

> <Gold.PLP.Chemscore.Hbond>
1.6027

> <Gold.PLP.Chemscore.CHOScore>
0.0000

> <Gold.PLP.Chemscore.Metal>
0.0000

> <Gold.Chemscore.Hbonds>
donor molecule, donor type, donor heavy atom, donor atom, acceptor molecule, acceptor atom, score
      P1  H  6896  6908       L1     4  0.01
      P1  H  7997  8010       L1    25  0.39
      P1  H 10752 10765       L1    27  0.80

> <Gold.PLP.Chemscore.Internal.Correction>
0.0648

> <Gold.Rescore>
     Score         DG    S(hbond)    S(metal)    S(lipo)     H(rot)  DE(clash)    DE(int)     intcor
     12.81     -15.90       1.57        0.00     118.28       3.38       0.04       3.05       ----

> <Gold.Chemscore.Fitness>
12.8104

> <Gold.Chemscore.DG>
-15.8998

> <Gold.Chemscore.ZeroCoef>
-5.4800

> <Gold.Chemscore.Hbond>
1.5698

> <Gold.Chemscore.Metal>
0.0000

> <Gold.Chemscore.Lipo>
118.2818

> <Gold.Chemscore.Internal_Hbond>
0.0000

> <Gold.Chemscore.DEClash>
0.0403

> <Gold.Chemscore.DEInternal>
3.0491

> <Gold.Chemscore.Rot>
3.3837

> <Gold.Chemscore.Internal.Correction>
   9.000000E+99

> <Gold.Chemscore.Hbonds>
donor molecule, donor type, donor heavy atom, donor atom, acceptor molecule, acceptor atom, score
      P1  H  6896  6908       L1     4  0.01
      P1  H  7997  8010       L1    25  0.18
      P1  H 10752 10765       L1    27  0.10

> <Gold.Chemscore.Hbond.Weighted>
-5.2430

> <Gold.Chemscore.Metal.Weighted>
-0.0000

> <Gold.Chemscore.Lipo.Weighted>
-13.8390

> <Gold.Chemscore.Internal_Hbond.Weighted>
0.0000

> <Gold.Chemscore.DEClash.Weighted>
0.0403

> <Gold.Chemscore.DEInternal.Weighted>
3.0491

> <Gold.Chemscore.Rot.Weighted>
8.6622

> <Gold.Chemscore.Internal.Correction.Weighted>
   9.000000E+99

> <Gold.Protein.RotatedTorsions>
[ 6907 6896 6895 6894 ] final  -17.84 input  -60.11 | X-H torsion
[ 7974 7965 7964 7962 ] final   97.69 input  175.53 | X-H torsion
[ 8008 7997 7996 7995 ] final  -52.53 input   59.86 | X-H torsion
[ 10167 10162 10161 10158 ] final -152.41 input  -65.29 | X-H torsion
[ 10718 10713 10712 10709 ] final  -93.76 input   66.30 | X-H torsion
[ 10763 10752 10751 10750 ] final  -53.92 input  -60.55 | X-H torsion
[ 11005 11000 10999 10996 ] final -144.39 input  -57.11 | X-H torsion

> <Gold.Protein.ActiveResidues>
 VAL166  LYS551  ARG553  GLY616  TRP617  ASP618  TYR619  PRO620  LYS621  CYS622 
 ASP623  PHE694  ASN695  SER759  ASP760  ASP761  ALA762  ILE779  LEU786  VAL792 
 PHE793  MET794  SER795  GLU796  ALA797  LYS798  CYS799  TRP800  GLU811  SER814 

> <Gold.Protein.RotatedAtoms>
  151.2872  135.0731  159.9190 H   0  0  0  0  0  0  0  0  0  0  0  0  # atno 6907 bound_to 6896
  152.5323  133.9969  159.7887 H   0  0  0  0  0  0  0  0  0  0  0  0  # atno 6908 bound_to 6896
  151.0233  133.5806  159.2699 H   0  0  0  0  0  0  0  0  0  0  0  0  # atno 6909 bound_to 6896
  145.4222  139.2320  143.3190 H   0  0  0  0  0  0  0  0  0  0  0  0  # atno 7974 bound_to 7965
  154.4109  140.1221  156.5007 H   0  0  0  0  0  0  0  0  0  0  0  0  # atno 8008 bound_to 7997
  155.6897  140.3495  155.4869 H   0  0  0  0  0  0  0  0  0  0  0  0  # atno 8009 bound_to 7997
  155.9479  140.1099  157.0991 H   0  0  0  0  0  0  0  0  0  0  0  0  # atno 8010 bound_to 7997
  139.7184  143.8996  152.2494 H   0  0  0  0  0  0  0  0  0  0  0  0  # atno 10167 bound_to 10162
  156.0017  130.5040  150.5825 H   0  0  0  0  0  0  0  0  0  0  0  0  # atno 10718 bound_to 10713
  154.1666  135.6466  153.4999 H   0  0  0  0  0  0  0  0  0  0  0  0  # atno 10763 bound_to 10752
  153.0096  135.5373  154.6656 H   0  0  0  0  0  0  0  0  0  0  0  0  # atno 10764 bound_to 10752
  154.5984  135.2941  155.0534 H   0  0  0  0  0  0  0  0  0  0  0  0  # atno 10765 bound_to 10752
  140.8029  134.2836  157.4971 H   0  0  0  0  0  0  0  0  0  0  0  0  # atno 11005 bound_to 11000
  146.2651  140.4948  142.8837 LP  0  0  0  0  0  0  0  0  0  0  0  0  # atno 17320 bound_to 7965
  144.8238  140.6594  143.6336 LP  0  0  0  0  0  0  0  0  0  0  0  0  # atno 17321 bound_to 7965
  139.8885  144.6978  150.8797 LP  0  0  0  0  0  0  0  0  0  0  0  0  # atno 17342 bound_to 10162
  140.7748  143.3605  151.1838 LP  0  0  0  0  0  0  0  0  0  0  0  0  # atno 17343 bound_to 10162
  157.3703  131.0764  151.1563 LP  0  0  0  0  0  0  0  0  0  0  0  0  # atno 17370 bound_to 10713
  157.2319  130.6529  149.5853 LP  0  0  0  0  0  0  0  0  0  0  0  0  # atno 17371 bound_to 10713
  139.8720  134.9439  156.3867 LP  0  0  0  0  0  0  0  0  0  0  0  0  # atno 17394 bound_to 11000
  140.9277  133.7601  155.9985 LP  0  0  0  0  0  0  0  0  0  0  0  0  # atno 17395 bound_to 11000

$$$$
