AV-unprocessed.smi:1047|AV-procd|sdf|4597|dock1
  -GOLD-   22720 3 83D 1   1.00000     0.00000
 Structure written by MMmdl.
 57 59  0  0  0  0  0  0  0  0  3 V2000
  142.8465  134.9681  152.2691 C   0  0  0  0  0  0  0  0  0  0  0  0
  143.6416  136.2764  152.1531 C   0  0  0  0  0  0  0  0  0  0  0  0
  145.1017  136.0416  151.9980 N   0  3  2  0  0  0  0  0  0  0  0  0
  145.6637  135.1115  153.0084 C   0  0  0  0  0  0  0  0  0  0  0  0
  145.8595  135.8122  154.3653 C   0  0  0  0  0  0  0  0  0  0  0  0
  146.7025  136.9461  154.2004 O   0  0  0  0  0  0  0  0  0  0  0  0
  146.1539  137.9079  153.3047 C   0  0  1  0  0  0  0  0  0  0  0  0
  147.0624  139.1499  153.2839 C   0  0  0  0  0  0  0  0  0  0  0  0
  148.4781  138.8005  153.1927 N   0  0  0  0  0  0  0  0  0  0  0  0
  149.1412  138.7182  154.4919 C   0  0  0  0  0  0  0  0  0  0  0  0
  150.6731  138.6464  154.3589 C   0  0  2  0  0  0  0  0  0  0  0  0
  151.0567  137.3307  154.0090 O   0  0  0  0  0  0  0  0  0  0  0  0
  151.4363  139.1383  155.6067 C   0  0  0  0  0  0  0  0  0  0  0  0
  150.9880  140.4599  156.0642 N   0  0  0  0  0  0  0  0  0  0  0  0
  150.1739  141.3659  155.4573 C   0  0  0  0  0  0  0  0  0  0  0  0
  150.0685  142.4417  156.2860 N   0  3  0  0  0  0  0  0  0  0  0  0
  150.8283  142.2202  157.4367 C   0  0  0  0  0  0  0  0  0  0  0  0
  151.0364  143.0142  158.5581 C   0  0  0  0  0  0  0  0  0  0  0  0
  151.8750  142.4943  159.5702 C   0  0  0  0  0  0  0  0  0  0  0  0
  152.1217  143.3365  160.8104 C   0  0  0  0  0  0  0  0  0  0  0  0
  152.4741  141.2147  159.4363 C   0  0  0  0  0  0  0  0  0  0  0  0
  153.3727  140.6651  160.5311 C   0  0  0  0  0  0  0  0  0  0  0  0
  152.2513  140.4231  158.2867 C   0  0  0  0  0  0  0  0  0  0  0  0
  151.4216  140.9504  157.3002 C   0  0  0  0  0  0  0  0  0  0  0  0
  145.9274  137.2735  151.9114 C   0  0  0  0  0  0  0  0  0  0  0  0
  141.7972  135.1764  152.4785 H   0  0  0  0  0  0  0  0  0  0  0  0
  143.2268  134.3463  153.0802 H   0  0  0  0  0  0  0  0  0  0  0  0
  142.8811  134.3832  151.3505 H   0  0  0  0  0  0  0  0  0  0  0  0
  143.2535  136.8860  151.3373 H   0  0  0  0  0  0  0  0  0  0  0  0
  143.4708  136.8463  153.0671 H   0  0  0  0  0  0  0  0  0  0  0  0
  145.0313  134.2293  153.1148 H   0  0  0  0  0  0  0  0  0  0  0  0
  146.6284  134.7526  152.6470 H   0  0  0  0  0  0  0  0  0  0  0  0
  144.9041  136.1107  154.7994 H   0  0  0  0  0  0  0  0  0  0  0  0
  146.3274  135.1289  155.0742 H   0  0  0  0  0  0  0  0  0  0  0  0
  145.1944  138.2314  153.7102 H   0  0  0  0  0  0  0  0  0  0  0  0
  146.7846  139.7759  152.4350 H   0  0  0  0  0  0  0  0  0  0  0  0
  146.8826  139.7470  154.1788 H   0  0  0  0  0  0  0  0  0  0  0  0
  148.9627  139.4786  152.6130 H   0  0  0  0  0  0  0  0  0  0  0  0
  148.8705  139.5777  155.1068 H   0  0  0  0  0  0  0  0  0  0  0  0
  148.7879  137.8353  155.0260 H   0  0  0  0  0  0  0  0  0  0  0  0
  150.9523  139.2772  153.5146 H   0  0  0  0  0  0  0  0  0  0  0  0
  151.1575  137.2883  153.0705 H   0  0  0  0  0  0  0  0  0  0  0  0
  151.3315  138.4327  156.4318 H   0  0  0  0  0  0  0  0  0  0  0  0
  152.5046  139.2157  155.3998 H   0  0  0  0  0  0  0  0  0  0  0  0
  149.6978  141.2519  154.4941 H   0  0  0  0  0  0  0  0  0  0  0  0
  150.5773  143.9874  158.6530 H   0  0  0  0  0  0  0  0  0  0  0  0
  153.1875  143.5263  160.9401 H   0  0  0  0  0  0  0  0  0  0  0  0
  151.7488  142.8271  161.6996 H   0  0  0  0  0  0  0  0  0  0  0  0
  151.6182  144.3016  160.7438 H   0  0  0  0  0  0  0  0  0  0  0  0
  153.7238  139.6604  160.2930 H   0  0  0  0  0  0  0  0  0  0  0  0
  152.8357  140.6128  161.4784 H   0  0  0  0  0  0  0  0  0  0  0  0
  154.2481  141.3020  160.6627 H   0  0  0  0  0  0  0  0  0  0  0  0
  152.7069  139.4492  158.1835 H   0  0  0  0  0  0  0  0  0  0  0  0
  146.8853  136.9886  151.4748 H   0  0  0  0  0  0  0  0  0  0  0  0
  145.4879  137.9967  151.2256 H   0  0  0  0  0  0  0  0  0  0  0  0
  145.1963  135.5702  151.1095 H   0  0  0  0  0  0  0  0  0  0  0  0
  149.5197  143.2660  156.0775 H   0  0  0  0  0  0  0  0  0  0  0  0
  1  2  1  0  0  0  0
  1 26  1  0  0  0  0
  1 27  1  0  0  0  0
  1 28  1  0  0  0  0
  2  3  1  0  0  0  0
  2 29  1  0  0  0  0
  2 30  1  0  0  0  0
  3 25  1  0  0  0  0
  3  4  1  0  0  0  0
  3 56  1  0  0  0  0
  4  5  1  0  0  0  0
  4 31  1  0  0  0  0
  4 32  1  0  0  0  0
  5  6  1  0  0  0  0
  5 33  1  0  0  0  0
  5 34  1  0  0  0  0
  6  7  1  0  0  0  0
  7  8  1  0  0  0  0
  7 25  1  0  0  0  0
  7 35  1  0  0  0  0
  8  9  1  0  0  0  0
  8 36  1  0  0  0  0
  8 37  1  0  0  0  0
  9 10  1  0  0  0  0
  9 38  1  0  0  0  0
 10 11  1  0  0  0  0
 10 39  1  0  0  0  0
 10 40  1  0  0  0  0
 11 12  1  0  0  0  0
 11 13  1  0  0  0  0
 11 41  1  0  0  0  0
 12 42  1  0  0  0  0
 13 14  1  0  0  0  0
 13 43  1  0  0  0  0
 13 44  1  0  0  0  0
 14 24  1  0  0  0  0
 14 15  1  0  0  0  0
 15 16  2  0  0  0  0
 15 45  1  0  0  0  0
 16 17  1  0  0  0  0
 16 57  1  0  0  0  0
 17 24  2  0  0  0  0
 17 18  1  0  0  0  0
 18 19  2  0  0  0  0
 18 46  1  0  0  0  0
 19 20  1  0  0  0  0
 19 21  1  0  0  0  0
 20 47  1  0  0  0  0
 20 48  1  0  0  0  0
 20 49  1  0  0  0  0
 21 22  1  0  0  0  0
 21 23  2  0  0  0  0
 22 50  1  0  0  0  0
 22 51  1  0  0  0  0
 22 52  1  0  0  0  0
 23 24  1  0  0  0  0
 23 53  1  0  0  0  0
 25 54  1  0  0  0  0
 25 55  1  0  0  0  0
M  CHG  1   3   1
M  CHG  1  16   1
M  END
> <s_m_source_file>
AV-unprocessed.smi

> <i_m_source_file_index>
1047

> <i_lp_mmshare_version>
43012

> <i_f3d_flags>
0

> <s_epik_input>
W0NIM11bQ0gyXU4xW0NIMl1bQ0gyXU9bQ0BIXShbQ0gyXTEpW0NIMl1bTkhdW0NIMl1bQ0BIXShbT0hdKVtDSDJdbihbY0hdbjIpYyhjMjMpW2NIXWMoW0NIM10pYyhbY0hdMylbQ0gzXQ==

> <s_epik_cmdline>
J2VwaWtfcHl0aG9uJywgJy1waCcsICc3LjAnLCAnLXRuJywgJzgnLCAnLW1hJywgJzIwMCcsICctbWV0YWxfYmluZGluZycsICctaW1hZScsICc8aW5maWxlLm1hZT4nLCAnLW9tYWUnLCAnPG91dGZpbGUubWFlPic=

> <r_epik_Ionization_Penalty>
2.03028

> <r_epik_Ionization_Penalty_Charging>
1.21256

> <r_epik_Ionization_Penalty_Neutral>
0.817715

> <r_epik_State_Penalty>
2.54959

> <r_epik_Charging_Adjusted_Penalty>
3.76215

> <i_epik_Tot_Q>
2

> <i_epik_Tot_abs_Q>
2

> <r_epik_Metal_State_Penalty>
6.52811

> <b_epik_Metal_Only>
0

> <s_lp_Force_Field>
OPLS_2005

> <r_lp_Energy>
43.5189

> <b_lp_Chiralities_Consistent>
1

> <s_lp_Variant>
AV-unprocessed.smi:1047-38

> <Gold.Version>
5.8.1

> <Gold.Id.Protein>
6NUR|6NUR_protein|mol2

> <Gold.PLP.Fitness>
59.0308

> <Gold.PLP.PLP>
-48.4133

> <Gold.PLP.part.hbond>
-4.5080

> <Gold.PLP.part.metal>
0.0000

> <Gold.PLP.part.buried>
-6.6040

> <Gold.PLP.part.nonpolar>
-38.0412

> <Gold.PLP.part.repulsive>
0.2107

> <Gold.PLP.ligand.clash>
0.0000

> <Gold.PLP.ligand.torsion>
0.7709

> <Gold.PLP.Chemscore.Hbond>
3.9516

> <Gold.PLP.Chemscore.CHOScore>
0.0000

> <Gold.PLP.Chemscore.Metal>
0.0000

> <Gold.Chemscore.Hbonds>
donor molecule, donor type, donor heavy atom, donor atom, acceptor molecule, acceptor atom, score
      L1  H     9    38       P1  7957  1.00
      L1  H    12    42       P1  7949  0.83
      L1  H    16    57       P1  8028  2.00

> <Gold.PLP.Chemscore.Internal.Correction>
0.3046

> <Gold.Rescore>
     Score         DG    S(hbond)    S(metal)    S(lipo)     H(rot)  DE(clash)    DE(int)     intcor
     18.88     -21.11       2.49        0.00     121.74       2.71       0.40       1.83       ----

> <Gold.Chemscore.Fitness>
18.8817

> <Gold.Chemscore.DG>
-21.1069

> <Gold.Chemscore.ZeroCoef>
-5.4800

> <Gold.Chemscore.Hbond>
2.4902

> <Gold.Chemscore.Metal>
0.0000

> <Gold.Chemscore.Lipo>
121.7448

> <Gold.Chemscore.Internal_Hbond>
0.0000

> <Gold.Chemscore.DEClash>
0.3952

> <Gold.Chemscore.DEInternal>
1.8300

> <Gold.Chemscore.Rot>
2.7088

> <Gold.Chemscore.Internal.Correction>
   9.000000E+99

> <Gold.Chemscore.Hbonds>
donor molecule, donor type, donor heavy atom, donor atom, acceptor molecule, acceptor atom, score
      L1  H     9    38       P1  7957  0.97
      L1  H    12    42       P1  7949  0.39
      L1  H    16    57       P1  8028  1.00

> <Gold.Chemscore.Hbond.Weighted>
-8.3174

> <Gold.Chemscore.Metal.Weighted>
-0.0000

> <Gold.Chemscore.Lipo.Weighted>
-14.2441

> <Gold.Chemscore.Internal_Hbond.Weighted>
0.0000

> <Gold.Chemscore.DEClash.Weighted>
0.3952

> <Gold.Chemscore.DEInternal.Weighted>
1.8300

> <Gold.Chemscore.Rot.Weighted>
6.9346

> <Gold.Chemscore.Internal.Correction.Weighted>
   9.000000E+99

> <Gold.Protein.RotatedTorsions>
[ 6907 6896 6895 6894 ] final    5.10 input  -60.11 | X-H torsion
[ 7974 7965 7964 7962 ] final -153.97 input  175.53 | X-H torsion
[ 8008 7997 7996 7995 ] final  140.32 input   59.86 | X-H torsion
[ 10167 10162 10161 10158 ] final  -37.11 input  -65.29 | X-H torsion
[ 10718 10713 10712 10709 ] final   -6.92 input   66.30 | X-H torsion
[ 10763 10752 10751 10750 ] final -148.11 input  -60.55 | X-H torsion
[ 11005 11000 10999 10996 ] final  169.86 input  -57.11 | X-H torsion

> <Gold.Protein.ActiveResidues>
 VAL166  LYS551  ARG553  GLY616  TRP617  ASP618  TYR619  PRO620  LYS621  CYS622 
 ASP623  PHE694  ASN695  SER759  ASP760  ASP761  ALA762  ILE779  LEU786  VAL792 
 PHE793  MET794  SER795  GLU796  ALA797  LYS798  CYS799  TRP800  GLU811  SER814 

> <Gold.Protein.RotatedAtoms>
  151.6520  135.1000  160.0162 H   0  0  0  0  0  0  0  0  0  0  0  0  # atno 6907 bound_to 6896
  152.3995  133.6792  159.6313 H   0  0  0  0  0  0  0  0  0  0  0  0  # atno 6908 bound_to 6896
  150.7897  133.8732  159.3306 H   0  0  0  0  0  0  0  0  0  0  0  0  # atno 6909 bound_to 6896
  144.7713  140.4453  143.5905 H   0  0  0  0  0  0  0  0  0  0  0  0  # atno 7974 bound_to 7965
  156.2980  140.2344  156.4382 H   0  0  0  0  0  0  0  0  0  0  0  0  # atno 8008 bound_to 7997
  154.8210  140.0438  157.1431 H   0  0  0  0  0  0  0  0  0  0  0  0  # atno 8009 bound_to 7997
  154.9315  140.3017  155.5169 H   0  0  0  0  0  0  0  0  0  0  0  0  # atno 8010 bound_to 7997
  140.7126  143.3364  151.2454 H   0  0  0  0  0  0  0  0  0  0  0  0  # atno 10167 bound_to 10162
  156.7248  130.5162  149.5859 H   0  0  0  0  0  0  0  0  0  0  0  0  # atno 10718 bound_to 10713
  154.8250  135.3343  154.6923 H   0  0  0  0  0  0  0  0  0  0  0  0  # atno 10763 bound_to 10752
  153.7550  135.6936  153.4942 H   0  0  0  0  0  0  0  0  0  0  0  0  # atno 10764 bound_to 10752
  153.2150  135.4469  155.0373 H   0  0  0  0  0  0  0  0  0  0  0  0  # atno 10765 bound_to 10752
  140.3022  134.7586  157.3925 H   0  0  0  0  0  0  0  0  0  0  0  0  # atno 11005 bound_to 11000
  145.6315  139.1537  143.2966 LP  0  0  0  0  0  0  0  0  0  0  0  0  # atno 17320 bound_to 7965
  146.1862  140.6418  142.9166 LP  0  0  0  0  0  0  0  0  0  0  0  0  # atno 17321 bound_to 7965
  139.6860  143.9773  152.2834 LP  0  0  0  0  0  0  0  0  0  0  0  0  # atno 17342 bound_to 10162
  139.9419  144.6676  150.8258 LP  0  0  0  0  0  0  0  0  0  0  0  0  # atno 17343 bound_to 10162
  156.1569  130.6348  151.0669 LP  0  0  0  0  0  0  0  0  0  0  0  0  # atno 17370 bound_to 10713
  157.6883  131.0818  150.7180 LP  0  0  0  0  0  0  0  0  0  0  0  0  # atno 17371 bound_to 10713
  140.1099  134.5360  155.8276 LP  0  0  0  0  0  0  0  0  0  0  0  0  # atno 17394 bound_to 11000
  141.2125  133.6721  156.6669 LP  0  0  0  0  0  0  0  0  0  0  0  0  # atno 17395 bound_to 11000

$$$$
