AV-unprocessed.smi:1321|AV-procd|sdf|5462|dock2
  -GOLD-   22720 5 33D 1   1.00000     0.00000
 Structure written by MMmdl.
 43 44  0  0  0  0  0  0  0  0  1 V2000
  150.3544  145.0785  159.3538 C   0  0  0  0  0  0  0  0  0  0  0  0
  151.3134  144.0120  158.7737 C   0  0  0  0  0  0  0  0  0  0  0  0
  151.8507  144.5166  157.4177 C   0  0  0  0  0  0  0  0  0  0  0  0
  152.4967  143.8125  159.7419 C   0  0  0  0  0  0  0  0  0  0  0  0
  150.6199  142.6442  158.5657 C   0  0  0  0  0  0  0  0  0  0  0  0
  151.0222  141.6590  159.1859 O   0  0  0  0  0  0  0  0  0  0  0  0
  149.5791  142.5851  157.7174 N   0  0  0  0  0  0  0  0  0  0  0  0
  148.7369  141.4201  157.4697 C   0  0  0  0  0  0  0  0  0  0  0  0
  148.1377  141.4420  156.0695 C   0  0  0  0  0  0  0  0  0  0  0  0
  146.9998  142.2384  155.8195 C   0  0  0  0  0  0  0  0  0  0  0  0
  146.4252  142.2349  154.5357 C   0  0  0  0  0  0  0  0  0  0  0  0
  147.0133  141.4279  153.5453 C   0  0  0  0  0  0  0  0  0  0  0  0
  148.1000  140.6603  153.7679 N   0  0  0  0  0  0  0  0  0  0  0  0
  148.6573  140.6597  155.0036 C   0  0  0  0  0  0  0  0  0  0  0  0
  149.7988  139.8624  155.1950 N   0  0  0  0  0  0  0  0  0  0  0  0
  150.0952  138.9002  154.1393 C   0  0  0  0  0  0  0  0  0  0  0  0
  151.2583  137.9913  154.5714 C   0  0  0  0  0  0  0  0  0  0  0  0
  152.3883  138.7913  154.9089 O   0  0  0  0  0  0  0  0  0  0  0  0
  152.1139  139.6774  155.9907 C   0  0  0  0  0  0  0  0  0  0  0  0
  150.9681  140.6292  155.6043 C   0  0  0  0  0  0  0  0  0  0  0  0
  150.8556  146.0416  159.4564 H   0  0  0  0  0  0  0  0  0  0  0  0
  149.9900  144.8034  160.3447 H   0  0  0  0  0  0  0  0  0  0  0  0
  149.4883  145.2352  158.7089 H   0  0  0  0  0  0  0  0  0  0  0  0
  151.0485  144.6282  156.6871 H   0  0  0  0  0  0  0  0  0  0  0  0
  152.5910  143.8364  156.9939 H   0  0  0  0  0  0  0  0  0  0  0  0
  152.3335  145.4887  157.5222 H   0  0  0  0  0  0  0  0  0  0  0  0
  153.0280  144.7493  159.9133 H   0  0  0  0  0  0  0  0  0  0  0  0
  153.2221  143.0960  159.3541 H   0  0  0  0  0  0  0  0  0  0  0  0
  152.1599  143.4459  160.7128 H   0  0  0  0  0  0  0  0  0  0  0  0
  149.3191  143.4365  157.2413 H   0  0  0  0  0  0  0  0  0  0  0  0
  149.3571  140.5306  157.5838 H   0  0  0  0  0  0  0  0  0  0  0  0
  147.9460  141.3213  158.2138 H   0  0  0  0  0  0  0  0  0  0  0  0
  146.5656  142.8417  156.6032 H   0  0  0  0  0  0  0  0  0  0  0  0
  145.5536  142.8333  154.3165 H   0  0  0  0  0  0  0  0  0  0  0  0
  146.6006  141.3973  152.5478 H   0  0  0  0  0  0  0  0  0  0  0  0
  149.2089  138.3014  153.9262 H   0  0  0  0  0  0  0  0  0  0  0  0
  150.3630  139.4255  153.2215 H   0  0  0  0  0  0  0  0  0  0  0  0
  150.9734  137.3691  155.4208 H   0  0  0  0  0  0  0  0  0  0  0  0
  151.5298  137.3166  153.7595 H   0  0  0  0  0  0  0  0  0  0  0  0
  151.8626  139.1076  156.8865 H   0  0  0  0  0  0  0  0  0  0  0  0
  153.0143  140.2473  156.2204 H   0  0  0  0  0  0  0  0  0  0  0  0
  151.2808  141.2751  154.7827 H   0  0  0  0  0  0  0  0  0  0  0  0
  150.7217  141.2779  156.4454 H   0  0  0  0  0  0  0  0  0  0  0  0
  1  2  1  0  0  0  0
  1 21  1  0  0  0  0
  1 22  1  0  0  0  0
  1 23  1  0  0  0  0
  2  3  1  0  0  0  0
  2  4  1  0  0  0  0
  2  5  1  0  0  0  0
  3 24  1  0  0  0  0
  3 25  1  0  0  0  0
  3 26  1  0  0  0  0
  4 27  1  0  0  0  0
  4 28  1  0  0  0  0
  4 29  1  0  0  0  0
  5  6  2  0  0  0  0
  5  7  1  0  0  0  0
  7  8  1  0  0  0  0
  7 30  1  0  0  0  0
  8  9  1  0  0  0  0
  8 31  1  0  0  0  0
  8 32  1  0  0  0  0
  9 14  1  0  0  0  0
  9 10  2  0  0  0  0
 10 11  1  0  0  0  0
 10 33  1  0  0  0  0
 11 12  2  0  0  0  0
 11 34  1  0  0  0  0
 12 13  1  0  0  0  0
 12 35  1  0  0  0  0
 13 14  2  0  0  0  0
 14 15  1  0  0  0  0
 15 20  1  0  0  0  0
 15 16  1  0  0  0  0
 16 17  1  0  0  0  0
 16 36  1  0  0  0  0
 16 37  1  0  0  0  0
 17 18  1  0  0  0  0
 17 38  1  0  0  0  0
 17 39  1  0  0  0  0
 18 19  1  0  0  0  0
 19 20  1  0  0  0  0
 19 40  1  0  0  0  0
 19 41  1  0  0  0  0
 20 42  1  0  0  0  0
 20 43  1  0  0  0  0
M  END
> <s_m_source_file>
AV-unprocessed.smi

> <i_m_source_file_index>
1321

> <i_lp_mmshare_version>
43012

> <i_f3d_flags>
0

> <s_epik_input>
W0NIM11DKFtDSDNdKShbQ0gzXSlDKD1PKVtOSF1bQ0gyXWMxW2NIXVtjSF1bY0hdbmMxTjJbQ0gyXVtDSDJdT1tDSDJdW0NIMl0y

> <s_epik_cmdline>
J2VwaWtfcHl0aG9uJywgJy1waCcsICc3LjAnLCAnLXRuJywgJzgnLCAnLW1hJywgJzIwMCcsICctbWV0YWxfYmluZGluZycsICctaW1hZScsICc8aW5maWxlLm1hZT4nLCAnLW9tYWUnLCAnPG91dGZpbGUubWFlPic=

> <r_lp_tautomer_probability>
1

> <r_epik_Ionization_Penalty>
0.0052234

> <r_epik_Ionization_Penalty_Charging>
0

> <r_epik_Ionization_Penalty_Neutral>
0.0052234

> <r_epik_State_Penalty>
0.0038086

> <r_epik_Charging_Adjusted_Penalty>
0.0038086

> <i_epik_Tot_Q>
0

> <i_epik_Tot_abs_Q>
0

> <r_epik_Metal_State_Penalty>
-0

> <b_epik_Metal_Only>
0

> <s_lp_Force_Field>
OPLS_2005

> <r_lp_Energy>
23.2048

> <b_lp_Chiralities_Consistent>
1

> <s_lp_Variant>
AV-unprocessed.smi:1321-1

> <Gold.Version>
5.8.1

> <Gold.Id.Protein>
6NUR|6NUR_protein|mol2

> <Gold.PLP.Fitness>
41.6945

> <Gold.PLP.PLP>
-39.7866

> <Gold.PLP.part.hbond>
-1.5555

> <Gold.PLP.part.metal>
0.0000

> <Gold.PLP.part.buried>
-4.9113

> <Gold.PLP.part.nonpolar>
-33.6674

> <Gold.PLP.part.repulsive>
1.0895

> <Gold.PLP.ligand.clash>
0.0000

> <Gold.PLP.ligand.torsion>
0.6027

> <Gold.PLP.Chemscore.Hbond>
0.9750

> <Gold.PLP.Chemscore.CHOScore>
0.0000

> <Gold.PLP.Chemscore.Metal>
0.0000

> <Gold.Chemscore.Hbonds>
donor molecule, donor type, donor heavy atom, donor atom, acceptor molecule, acceptor atom, score
      L1  H     7    30       P1  8028  0.89

> <Gold.PLP.Chemscore.Internal.Correction>
0.1882

> <Gold.Rescore>
     Score         DG    S(hbond)    S(metal)    S(lipo)     H(rot)  DE(clash)    DE(int)     intcor
     13.82     -16.53       0.91        0.00     101.70       1.52       1.10       1.62       ----

> <Gold.Chemscore.Fitness>
13.8174

> <Gold.Chemscore.DG>
-16.5338

> <Gold.Chemscore.ZeroCoef>
-5.4800

> <Gold.Chemscore.Hbond>
0.9099

> <Gold.Chemscore.Metal>
0.0000

> <Gold.Chemscore.Lipo>
101.6993

> <Gold.Chemscore.Internal_Hbond>
0.0000

> <Gold.Chemscore.DEClash>
1.0989

> <Gold.Chemscore.DEInternal>
1.6174

> <Gold.Chemscore.Rot>
1.5173

> <Gold.Chemscore.Internal.Correction>
   9.000000E+99

> <Gold.Chemscore.Hbonds>
donor molecule, donor type, donor heavy atom, donor atom, acceptor molecule, acceptor atom, score
      L1  H     7    30       P1  8028  0.65

> <Gold.Chemscore.Hbond.Weighted>
-3.0392

> <Gold.Chemscore.Metal.Weighted>
-0.0000

> <Gold.Chemscore.Lipo.Weighted>
-11.8988

> <Gold.Chemscore.Internal_Hbond.Weighted>
0.0000

> <Gold.Chemscore.DEClash.Weighted>
1.0989

> <Gold.Chemscore.DEInternal.Weighted>
1.6174

> <Gold.Chemscore.Rot.Weighted>
3.8843

> <Gold.Chemscore.Internal.Correction.Weighted>
   9.000000E+99

> <Gold.Protein.RotatedTorsions>
[ 6907 6896 6895 6894 ] final   60.70 input  -60.11 | X-H torsion
[ 7974 7965 7964 7962 ] final  -32.30 input  175.53 | X-H torsion
[ 8008 7997 7996 7995 ] final  155.62 input   59.86 | X-H torsion
[ 10167 10162 10161 10158 ] final  -71.99 input  -65.29 | X-H torsion
[ 10718 10713 10712 10709 ] final  -40.06 input   66.30 | X-H torsion
[ 10763 10752 10751 10750 ] final   96.63 input  -60.55 | X-H torsion
[ 11005 11000 10999 10996 ] final -121.34 input  -57.11 | X-H torsion

> <Gold.Protein.ActiveResidues>
 VAL166  LYS551  ARG553  GLY616  TRP617  ASP618  TYR619  PRO620  LYS621  CYS622 
 ASP623  PHE694  ASN695  SER759  ASP760  ASP761  ALA762  ILE779  LEU786  VAL792 
 PHE793  MET794  SER795  GLU796  ALA797  LYS798  CYS799  TRP800  GLU811  SER814 

> <Gold.Protein.RotatedAtoms>
  152.4026  134.6261  160.0063 H   0  0  0  0  0  0  0  0  0  0  0  0  # atno 6907 bound_to 6896
  151.6462  133.3317  159.3149 H   0  0  0  0  0  0  0  0  0  0  0  0  # atno 6908 bound_to 6896
  150.7924  134.7001  159.6590 H   0  0  0  0  0  0  0  0  0  0  0  0  # atno 6909 bound_to 6896
  146.1001  140.5775  142.8825 H   0  0  0  0  0  0  0  0  0  0  0  0  # atno 7974 bound_to 7965
  156.2468  140.1934  156.6830 H   0  0  0  0  0  0  0  0  0  0  0  0  # atno 8008 bound_to 7997
  154.6308  140.0596  156.9756 H   0  0  0  0  0  0  0  0  0  0  0  0  # atno 8009 bound_to 7997
  155.1714  140.3268  155.4394 H   0  0  0  0  0  0  0  0  0  0  0  0  # atno 8010 bound_to 7997
  140.5228  143.2329  151.7400 H   0  0  0  0  0  0  0  0  0  0  0  0  # atno 10167 bound_to 10162
  156.2855  130.4222  149.8292 H   0  0  0  0  0  0  0  0  0  0  0  0  # atno 10718 bound_to 10713
  153.2672  135.4212  155.0952 H   0  0  0  0  0  0  0  0  0  0  0  0  # atno 10763 bound_to 10752
  154.8442  135.3463  154.6295 H   0  0  0  0  0  0  0  0  0  0  0  0  # atno 10764 bound_to 10752
  153.6715  135.7043  153.5203 H   0  0  0  0  0  0  0  0  0  0  0  0  # atno 10765 bound_to 10752
  141.0077  134.0310  157.3455 H   0  0  0  0  0  0  0  0  0  0  0  0  # atno 11005 bound_to 11000
  144.7426  140.4982  143.6858 LP  0  0  0  0  0  0  0  0  0  0  0  0  # atno 17320 bound_to 7965
  145.5872  139.1493  143.3203 LP  0  0  0  0  0  0  0  0  0  0  0  0  # atno 17321 bound_to 7965
  139.4929  144.4229  151.9957 LP  0  0  0  0  0  0  0  0  0  0  0  0  # atno 17342 bound_to 10162
  140.3327  144.3297  150.5984 LP  0  0  0  0  0  0  0  0  0  0  0  0  # atno 17343 bound_to 10162
  156.5724  130.8430  151.3360 LP  0  0  0  0  0  0  0  0  0  0  0  0  # atno 17370 bound_to 10713
  157.7327  130.9719  150.1942 LP  0  0  0  0  0  0  0  0  0  0  0  0  # atno 17371 bound_to 10713
  139.9072  135.0182  156.7538 LP  0  0  0  0  0  0  0  0  0  0  0  0  # atno 17394 bound_to 11000
  140.6785  133.9495  155.7897 LP  0  0  0  0  0  0  0  0  0  0  0  0  # atno 17395 bound_to 11000

$$$$
