AV-unprocessed.smi:171|AV-procd|sdf|1414|dock8
  -GOLD-   2262019173D 1   1.00000     0.00000
 Structure written by MMmdl.
 56 59  0  0  0  0  0  0  0  0  1 V2000
  146.9805  136.5275  156.6126 C   0  0  0  0  0  0  0  0  0  0  0  0
  147.5970  136.5324  155.2039 C   0  0  0  0  0  0  0  0  0  0  0  0
  148.3157  135.2004  154.9354 C   0  0  0  0  0  0  0  0  0  0  0  0
  148.5543  137.7324  154.9737 C   0  0  0  0  0  0  0  0  0  0  0  0
  147.9402  139.1527  155.1457 C   0  0  2  0  0  0  0  0  0  0  0  0
  146.5958  139.3220  154.4016 C   0  0  0  0  0  0  0  0  0  0  0  0
  145.7327  138.4508  154.4917 O   0  0  0  0  0  0  0  0  0  0  0  0
  146.3786  140.4408  153.6890 N   0  0  0  0  0  0  0  0  0  0  0  0
  147.3318  141.5331  153.5151 C   0  0  0  0  0  0  0  0  0  0  0  0
  148.4063  141.5504  154.6114 C   0  0  0  0  0  0  0  0  0  0  0  0
  148.9198  140.2034  154.8214 N   0  0  0  0  0  0  0  0  0  0  0  0
  150.0768  140.1913  155.5202 C   0  0  0  0  0  0  0  0  0  0  0  0
  151.0074  139.2309  155.2818 N   0  0  0  0  0  0  0  0  0  0  0  0
  152.1597  139.2402  155.9593 C   0  0  0  0  0  0  0  0  0  0  0  0
  152.5739  140.1022  156.8912 N   0  0  0  0  0  0  0  0  0  0  0  0
  151.6357  141.0633  157.1316 C   0  0  0  0  0  0  0  0  0  0  0  0
  150.3648  141.1716  156.5041 C   0  0  0  0  0  0  0  0  0  0  0  0
  149.6729  142.2661  157.0054 N   0  0  0  0  0  0  0  0  0  0  0  0
  150.4962  142.7863  157.8738 C   0  0  0  0  0  0  0  0  0  0  0  0
  151.7039  142.1366  158.0024 N   0  0  0  0  0  0  0  0  0  0  0  0
  152.8072  142.5102  158.8732 C   0  0  0  0  0  0  0  0  0  0  0  0
  152.4912  142.3160  160.3800 C   0  0  1  0  0  0  0  0  0  0  0  0
  151.5943  141.2252  160.5062 O   0  0  0  0  0  0  0  0  0  0  0  0
  153.7243  142.0018  161.2245 C   0  0  0  0  0  0  0  0  0  0  0  0
  153.3692  142.5817  162.5847 C   0  0  0  0  0  0  0  0  0  0  0  0
  152.7043  143.7828  162.2375 O   0  0  0  0  0  0  0  0  0  0  0  0
  151.8616  143.5331  161.1157 C   0  0  1  0  0  0  0  0  0  0  0  0
  151.7408  144.8409  160.3181 C   0  0  0  0  0  0  0  0  0  0  0  0
  147.7507  136.4858  157.3834 H   0  0  0  0  0  0  0  0  0  0  0  0
  146.3282  135.6650  156.7503 H   0  0  0  0  0  0  0  0  0  0  0  0
  146.3759  137.4151  156.7921 H   0  0  0  0  0  0  0  0  0  0  0  0
  146.7743  136.5847  154.4916 H   0  0  0  0  0  0  0  0  0  0  0  0
  149.1612  135.0625  155.6100 H   0  0  0  0  0  0  0  0  0  0  0  0
  148.6929  135.1553  153.9129 H   0  0  0  0  0  0  0  0  0  0  0  0
  147.6406  134.3546  155.0685 H   0  0  0  0  0  0  0  0  0  0  0  0
  149.4347  137.6237  155.6084 H   0  0  0  0  0  0  0  0  0  0  0  0
  148.9581  137.6715  153.9623 H   0  0  0  0  0  0  0  0  0  0  0  0
  147.6773  139.2659  156.1988 H   0  0  0  0  0  0  0  0  0  0  0  0
  145.4880  140.5349  153.2224 H   0  0  0  0  0  0  0  0  0  0  0  0
  147.8042  141.4098  152.5398 H   0  0  0  0  0  0  0  0  0  0  0  0
  146.7974  142.4828  153.4905 H   0  0  0  0  0  0  0  0  0  0  0  0
  149.2080  142.2365  154.3323 H   0  0  0  0  0  0  0  0  0  0  0  0
  147.9804  141.9191  155.5462 H   0  0  0  0  0  0  0  0  0  0  0  0
  152.8513  138.4470  155.7161 H   0  0  0  0  0  0  0  0  0  0  0  0
  150.2469  143.6715  158.4406 H   0  0  0  0  0  0  0  0  0  0  0  0
  153.6714  141.9119  158.5834 H   0  0  0  0  0  0  0  0  0  0  0  0
  153.0663  143.5496  158.6682 H   0  0  0  0  0  0  0  0  0  0  0  0
  151.7372  140.6341  159.7829 H   0  0  0  0  0  0  0  0  0  0  0  0
  153.9777  140.9411  161.2611 H   0  0  0  0  0  0  0  0  0  0  0  0
  154.5912  142.5366  160.8347 H   0  0  0  0  0  0  0  0  0  0  0  0
  152.6901  141.9250  163.1305 H   0  0  0  0  0  0  0  0  0  0  0  0
  154.2452  142.7711  163.2051 H   0  0  0  0  0  0  0  0  0  0  0  0
  150.8734  143.2739  161.5008 H   0  0  0  0  0  0  0  0  0  0  0  0
  151.0969  144.7188  159.4469 H   0  0  0  0  0  0  0  0  0  0  0  0
  152.7142  145.1949  159.9780 H   0  0  0  0  0  0  0  0  0  0  0  0
  151.3064  145.6273  160.9356 H   0  0  0  0  0  0  0  0  0  0  0  0
  1  2  1  0  0  0  0
  1 29  1  0  0  0  0
  1 30  1  0  0  0  0
  1 31  1  0  0  0  0
  2  3  1  0  0  0  0
  2  4  1  0  0  0  0
  2 32  1  0  0  0  0
  3 33  1  0  0  0  0
  3 34  1  0  0  0  0
  3 35  1  0  0  0  0
  4  5  1  0  0  0  0
  4 36  1  0  0  0  0
  4 37  1  0  0  0  0
  5 11  1  0  0  0  0
  5  6  1  0  0  0  0
  5 38  1  0  0  0  0
  6  7  2  0  0  0  0
  6  8  1  0  0  0  0
  8  9  1  0  0  0  0
  8 39  1  0  0  0  0
  9 10  1  0  0  0  0
  9 40  1  0  0  0  0
  9 41  1  0  0  0  0
 10 11  1  0  0  0  0
 10 42  1  0  0  0  0
 10 43  1  0  0  0  0
 11 12  1  0  0  0  0
 12 17  1  0  0  0  0
 12 13  2  0  0  0  0
 13 14  1  0  0  0  0
 14 15  2  0  0  0  0
 14 44  1  0  0  0  0
 15 16  1  0  0  0  0
 16 20  1  0  0  0  0
 16 17  2  0  0  0  0
 17 18  1  0  0  0  0
 18 19  2  0  0  0  0
 19 20  1  0  0  0  0
 19 45  1  0  0  0  0
 20 21  1  0  0  0  0
 21 22  1  0  0  0  0
 21 46  1  0  0  0  0
 21 47  1  0  0  0  0
 22 27  1  0  0  0  0
 22 23  1  0  0  0  0
 22 24  1  0  0  0  0
 23 48  1  0  0  0  0
 24 25  1  0  0  0  0
 24 49  1  0  0  0  0
 24 50  1  0  0  0  0
 25 26  1  0  0  0  0
 25 51  1  0  0  0  0
 25 52  1  0  0  0  0
 26 27  1  0  0  0  0
 27 28  1  0  0  0  0
 27 53  1  0  0  0  0
 28 54  1  0  0  0  0
 28 55  1  0  0  0  0
 28 56  1  0  0  0  0
M  END
> <s_m_source_file>
AV-unprocessed.smi

> <i_m_source_file_index>
171

> <i_lp_mmshare_version>
43012

> <i_f3d_flags>
0

> <s_epik_input>
W0NIM11bQ0hdKFtDSDNdKVtDSDJdW0NAQEhdMUMoPU8pW05IXVtDSDJdW0NIMl1OMWMobltjSF1uMiljKGMyMyluW2NIXW4zW0NIMl1bQ0BAXTQoW09IXSlbQ0gyXVtDSDJdT1tDQEhdNFtDSDNd

> <s_epik_cmdline>
J2VwaWtfcHl0aG9uJywgJy1waCcsICc3LjAnLCAnLXRuJywgJzgnLCAnLW1hJywgJzIwMCcsICctbWV0YWxfYmluZGluZycsICctaW1hZScsICc8aW5maWxlLm1hZT4nLCAnLW9tYWUnLCAnPG91dGZpbGUubWFlPic=

> <r_lp_tautomer_probability>
1

> <r_epik_Ionization_Penalty>
0.000670584

> <r_epik_Ionization_Penalty_Charging>
0

> <r_epik_Ionization_Penalty_Neutral>
0.000670584

> <r_epik_State_Penalty>
0.000304767

> <r_epik_Charging_Adjusted_Penalty>
0.000304767

> <i_epik_Tot_Q>
0

> <i_epik_Tot_abs_Q>
0

> <r_epik_Metal_State_Penalty>
-0

> <b_epik_Metal_Only>
0

> <s_lp_Force_Field>
OPLS_2005

> <r_lp_Energy>
42.1077

> <b_lp_Chiralities_Consistent>
1

> <s_lp_Variant>
AV-unprocessed.smi:171-1

> <Gold.Version>
5.8.1

> <Gold.Id.Protein>
6NUR|6NUR_protein|mol2

> <Gold.PLP.Fitness>
44.5984

> <Gold.PLP.PLP>
-40.4542

> <Gold.PLP.part.hbond>
-3.3567

> <Gold.PLP.part.metal>
0.0000

> <Gold.PLP.part.buried>
-2.4952

> <Gold.PLP.part.nonpolar>
-35.8825

> <Gold.PLP.part.repulsive>
1.9641

> <Gold.PLP.ligand.clash>
0.0068

> <Gold.PLP.ligand.torsion>
1.1662

> <Gold.PLP.Chemscore.Hbond>
2.0117

> <Gold.PLP.Chemscore.CHOScore>
0.0000

> <Gold.PLP.Chemscore.Metal>
0.0000

> <Gold.Chemscore.Hbonds>
donor molecule, donor type, donor heavy atom, donor atom, acceptor molecule, acceptor atom, score
      L1  H     8    39       P1 10175  1.00
      P1  H  6933  6945       L1    23  0.01
      P1  H  7997  8010       L1    15  1.00

> <Gold.PLP.Chemscore.Internal.Correction>
0.4484

> <Gold.Rescore>
     Score         DG    S(hbond)    S(metal)    S(lipo)     H(rot)  DE(clash)    DE(int)     intcor
      9.91     -16.16       1.83        0.00      96.06       2.61       1.51       4.74       ----

> <Gold.Chemscore.Fitness>
9.9105

> <Gold.Chemscore.DG>
-16.1584

> <Gold.Chemscore.ZeroCoef>
-5.4800

> <Gold.Chemscore.Hbond>
1.8307

> <Gold.Chemscore.Metal>
0.0000

> <Gold.Chemscore.Lipo>
96.0562

> <Gold.Chemscore.Internal_Hbond>
0.0000

> <Gold.Chemscore.DEClash>
1.5118

> <Gold.Chemscore.DEInternal>
4.7361

> <Gold.Chemscore.Rot>
2.6074

> <Gold.Chemscore.Internal.Correction>
   9.000000E+99

> <Gold.Chemscore.Hbonds>
donor molecule, donor type, donor heavy atom, donor atom, acceptor molecule, acceptor atom, score
      L1  H     8    39       P1 10175  0.92
      P1  H  6933  6945       L1    23  0.01
      P1  H  7997  8010       L1    15  0.25

> <Gold.Chemscore.Hbond.Weighted>
-6.1146

> <Gold.Chemscore.Metal.Weighted>
-0.0000

> <Gold.Chemscore.Lipo.Weighted>
-11.2386

> <Gold.Chemscore.Internal_Hbond.Weighted>
0.0000

> <Gold.Chemscore.DEClash.Weighted>
1.5118

> <Gold.Chemscore.DEInternal.Weighted>
4.7361

> <Gold.Chemscore.Rot.Weighted>
6.6748

> <Gold.Chemscore.Internal.Correction.Weighted>
   9.000000E+99

> <Gold.Protein.RotatedTorsions>
[ 6907 6896 6895 6894 ] final -111.77 input  -60.11 | X-H torsion
[ 7974 7965 7964 7962 ] final  151.35 input  175.53 | X-H torsion
[ 8008 7997 7996 7995 ] final   66.71 input   59.86 | X-H torsion
[ 10167 10162 10161 10158 ] final -141.97 input  -65.29 | X-H torsion
[ 10718 10713 10712 10709 ] final  152.10 input   66.30 | X-H torsion
[ 10763 10752 10751 10750 ] final  -67.38 input  -60.55 | X-H torsion
[ 11005 11000 10999 10996 ] final  -79.75 input  -57.11 | X-H torsion

> <Gold.Protein.ActiveResidues>
 VAL166  LYS551  ARG553  GLY616  TRP617  ASP618  TYR619  PRO620  LYS621  CYS622 
 ASP623  PHE694  ASN695  SER759  ASP760  ASP761  ALA762  ILE779  LEU786  VAL792 
 PHE793  MET794  SER795  GLU796  ALA797  LYS798  CYS799  TRP800  GLU811  SER814 

> <Gold.Protein.RotatedAtoms>
  150.7712  133.9187  159.3391 H   0  0  0  0  0  0  0  0  0  0  0  0  # atno 6907 bound_to 6896
  151.7073  135.0917  160.0271 H   0  0  0  0  0  0  0  0  0  0  0  0  # atno 6908 bound_to 6896
  152.3731  133.6407  159.6138 H   0  0  0  0  0  0  0  0  0  0  0  0  # atno 6909 bound_to 6896
  144.8299  139.6526  143.6063 H   0  0  0  0  0  0  0  0  0  0  0  0  # atno 7974 bound_to 7965
  155.6816  140.3496  155.4857 H   0  0  0  0  0  0  0  0  0  0  0  0  # atno 8008 bound_to 7997
  155.9602  140.1136  157.0925 H   0  0  0  0  0  0  0  0  0  0  0  0  # atno 8009 bound_to 7997
  154.4141  140.1177  156.5155 H   0  0  0  0  0  0  0  0  0  0  0  0  # atno 8010 bound_to 7997
  139.8134  143.7672  152.2664 H   0  0  0  0  0  0  0  0  0  0  0  0  # atno 10167 bound_to 10162
  157.2622  131.0800  151.1658 H   0  0  0  0  0  0  0  0  0  0  0  0  # atno 10718 bound_to 10713
  154.3737  135.6089  153.5753 H   0  0  0  0  0  0  0  0  0  0  0  0  # atno 10763 bound_to 10752
  152.9789  135.5844  154.4492 H   0  0  0  0  0  0  0  0  0  0  0  0  # atno 10764 bound_to 10752
  154.4250  135.2846  155.1928 H   0  0  0  0  0  0  0  0  0  0  0  0  # atno 10765 bound_to 10752
  141.1667  133.7119  156.8169 H   0  0  0  0  0  0  0  0  0  0  0  0  # atno 11005 bound_to 11000
  146.2602  139.6393  142.9367 LP  0  0  0  0  0  0  0  0  0  0  0  0  # atno 17320 bound_to 7965
  145.4919  141.0438  143.2588 LP  0  0  0  0  0  0  0  0  0  0  0  0  # atno 17321 bound_to 7965
  139.7828  144.7438  151.0064 LP  0  0  0  0  0  0  0  0  0  0  0  0  # atno 17342 bound_to 10162
  140.7817  143.4524  151.0394 LP  0  0  0  0  0  0  0  0  0  0  0  0  # atno 17343 bound_to 10162
  157.3163  130.6915  149.6244 LP  0  0  0  0  0  0  0  0  0  0  0  0  # atno 17370 bound_to 10713
  155.9664  130.4348  150.5066 LP  0  0  0  0  0  0  0  0  0  0  0  0  # atno 17371 bound_to 10713
  140.2147  134.8801  157.3312 LP  0  0  0  0  0  0  0  0  0  0  0  0  # atno 17394 bound_to 11000
  140.2050  134.4208  155.7642 LP  0  0  0  0  0  0  0  0  0  0  0  0  # atno 17395 bound_to 11000

$$$$
