AV-unprocessed.smi:221|AV-procd|sdf|1696|dock8
  -GOLD-   2262020143D 1   1.00000     0.00000
 Structure written by MMmdl.
 50 53  0  0  0  0  0  0  0  0  1 V2000
  149.7128  144.2600  158.5409 N   0  0  0  0  0  0  0  0  0  0  0  0
  150.9651  143.7989  158.4548 C   0  0  0  0  0  0  0  0  0  0  0  0
  151.8260  144.3937  157.8104 O   0  0  0  0  0  0  0  0  0  0  0  0
  151.3291  142.4932  159.1890 C   0  0  2  0  0  0  0  0  0  0  0  0
  152.4665  142.7280  160.1970 C   0  0  0  0  0  0  0  0  0  0  0  0
  153.1032  141.3511  160.3348 C   0  0  2  0  0  0  0  0  0  0  0  0
  154.3546  141.4063  160.7899 F   0  0  0  0  0  0  0  0  0  0  0  0
  153.0148  140.7850  158.9202 C   0  0  0  0  0  0  0  0  0  0  0  0
  151.8421  141.4183  158.3262 N   0  0  0  0  0  0  0  0  0  0  0  0
  151.0327  140.6799  157.5190 C   0  0  0  0  0  0  0  0  0  0  0  0
  150.4760  141.2567  156.4210 N   0  0  0  0  0  0  0  0  0  0  0  0
  149.6786  140.5527  155.6130 C   0  0  0  0  0  0  0  0  0  0  0  0
  149.3131  139.2737  155.7106 N   0  0  0  0  0  0  0  0  0  0  0  0
  149.8756  138.6822  156.8024 C   0  0  0  0  0  0  0  0  0  0  0  0
  150.7401  139.3037  157.7487 C   0  0  0  0  0  0  0  0  0  0  0  0
  151.1248  138.3762  158.7111 N   0  0  0  0  0  0  0  0  0  0  0  0
  150.5166  137.2764  158.3606 C   0  0  0  0  0  0  0  0  0  0  0  0
  149.7485  137.3699  157.2232 N   0  0  0  0  0  0  0  0  0  0  0  0
  148.9728  136.3034  156.6144 C   0  0  0  0  0  0  0  0  0  0  0  0
  149.8577  135.2698  155.8715 C   0  0  2  0  0  0  0  0  0  0  0  0
  150.6942  135.9417  154.7577 C   0  0  0  0  0  0  0  0  0  0  0  0
  149.9714  136.9791  154.1285 O   0  0  0  0  0  0  0  0  0  0  0  0
  149.0578  134.0498  155.3366 C   0  0  1  0  0  0  0  0  0  0  0  0
  148.0926  134.3403  154.1861 C   0  0  0  0  0  0  0  0  0  0  0  0
  148.3180  133.1868  153.2056 C   0  0  0  0  0  0  0  0  0  0  0  0
  148.9737  132.1885  153.9721 O   0  0  0  0  0  0  0  0  0  0  0  0
  149.8826  132.8630  154.8253 C   0  0  0  0  0  0  0  0  0  0  0  0
  150.4528  142.1345  159.7321 H   0  0  0  0  0  0  0  0  0  0  0  0
  152.5240  140.7372  161.0263 H   0  0  0  0  0  0  0  0  0  0  0  0
  149.4589  145.1144  158.0666 H   0  0  0  0  0  0  0  0  0  0  0  0
  149.0270  143.7524  159.0807 H   0  0  0  0  0  0  0  0  0  0  0  0
  153.2011  143.4313  159.7992 H   0  0  0  0  0  0  0  0  0  0  0  0
  152.1104  143.1203  161.1503 H   0  0  0  0  0  0  0  0  0  0  0  0
  153.8915  141.0641  158.3345 H   0  0  0  0  0  0  0  0  0  0  0  0
  152.9522  139.6961  158.9445 H   0  0  0  0  0  0  0  0  0  0  0  0
  149.2769  141.0913  154.7674 H   0  0  0  0  0  0  0  0  0  0  0  0
  150.6160  136.3586  158.9221 H   0  0  0  0  0  0  0  0  0  0  0  0
  148.3920  135.8321  157.4061 H   0  0  0  0  0  0  0  0  0  0  0  0
  148.2506  136.7530  155.9330 H   0  0  0  0  0  0  0  0  0  0  0  0
  150.5647  134.8755  156.6034 H   0  0  0  0  0  0  0  0  0  0  0  0
  151.6266  136.3403  155.1581 H   0  0  0  0  0  0  0  0  0  0  0  0
  150.9633  135.2263  153.9813 H   0  0  0  0  0  0  0  0  0  0  0  0
  149.4595  136.6064  153.4267 H   0  0  0  0  0  0  0  0  0  0  0  0
  148.4367  133.6672  156.1477 H   0  0  0  0  0  0  0  0  0  0  0  0
  147.0654  134.3388  154.5536 H   0  0  0  0  0  0  0  0  0  0  0  0
  148.2577  135.3028  153.7027 H   0  0  0  0  0  0  0  0  0  0  0  0
  147.3891  132.8139  152.7733 H   0  0  0  0  0  0  0  0  0  0  0  0
  148.9727  133.4990  152.3900 H   0  0  0  0  0  0  0  0  0  0  0  0
  150.7465  133.1740  154.2382 H   0  0  0  0  0  0  0  0  0  0  0  0
  150.2309  132.2154  155.6303 H   0  0  0  0  0  0  0  0  0  0  0  0
  1  2  1  0  0  0  0
  1 30  1  0  0  0  0
  1 31  1  0  0  0  0
  2  3  2  0  0  0  0
  2  4  1  0  0  0  0
  4 28  1  0  0  0  0
  4  9  1  0  0  0  0
  4  5  1  0  0  0  0
  5  6  1  0  0  0  0
  5 32  1  0  0  0  0
  5 33  1  0  0  0  0
  6 29  1  0  0  0  0
  6  7  1  0  0  0  0
  6  8  1  0  0  0  0
  8  9  1  0  0  0  0
  8 34  1  0  0  0  0
  8 35  1  0  0  0  0
  9 10  1  0  0  0  0
 10 15  1  0  0  0  0
 10 11  2  0  0  0  0
 11 12  1  0  0  0  0
 12 13  2  0  0  0  0
 12 36  1  0  0  0  0
 13 14  1  0  0  0  0
 14 18  1  0  0  0  0
 14 15  2  0  0  0  0
 15 16  1  0  0  0  0
 16 17  2  0  0  0  0
 17 18  1  0  0  0  0
 17 37  1  0  0  0  0
 18 19  1  0  0  0  0
 19 20  1  0  0  0  0
 19 38  1  0  0  0  0
 19 39  1  0  0  0  0
 20 21  1  0  0  0  0
 20 23  1  0  0  0  0
 20 40  1  0  0  0  0
 21 22  1  0  0  0  0
 21 41  1  0  0  0  0
 21 42  1  0  0  0  0
 22 43  1  0  0  0  0
 23 27  1  0  0  0  0
 23 24  1  0  0  0  0
 23 44  1  0  0  0  0
 24 25  1  0  0  0  0
 24 45  1  0  0  0  0
 24 46  1  0  0  0  0
 25 26  1  0  0  0  0
 25 47  1  0  0  0  0
 25 48  1  0  0  0  0
 26 27  1  0  0  0  0
 27 49  1  0  0  0  0
 27 50  1  0  0  0  0
M  END
> <s_m_source_file>
AV-unprocessed.smi

> <i_m_source_file_index>
221

> <i_lp_mmshare_version>
43012

> <i_f3d_flags>
0

> <s_epik_input>
W05IMl1DKD1PKVtDQEBIXTFbQ0gyXVtDQEBIXShGKVtDSDJdTjFjKG5bY0hdbjIpYyhjMjMpbltjSF1uM1tDSDJdW0NASF0oW0NIMl1bT0hdKVtDQEBIXTRbQ0gyXVtDSDJdT1tDSDJdNA==

> <s_epik_cmdline>
J2VwaWtfcHl0aG9uJywgJy1waCcsICc3LjAnLCAnLXRuJywgJzgnLCAnLW1hJywgJzIwMCcsICctbWV0YWxfYmluZGluZycsICctaW1hZScsICc8aW5maWxlLm1hZT4nLCAnLW9tYWUnLCAnPG91dGZpbGUubWFlPic=

> <r_lp_tautomer_probability>
1

> <r_epik_Ionization_Penalty>
0.000818822

> <r_epik_Ionization_Penalty_Charging>
0

> <r_epik_Ionization_Penalty_Neutral>
0.000818822

> <r_epik_State_Penalty>
0.000440551

> <r_epik_Charging_Adjusted_Penalty>
0.000440551

> <i_epik_Tot_Q>
0

> <i_epik_Tot_abs_Q>
0

> <r_epik_Metal_State_Penalty>
-0

> <b_epik_Metal_Only>
0

> <s_lp_Force_Field>
OPLS_2005

> <r_lp_Energy>
49.7935

> <b_lp_Chiralities_Consistent>
1

> <s_lp_Variant>
AV-unprocessed.smi:221-11

> <Gold.Version>
5.8.1

> <Gold.Id.Protein>
6NUR|6NUR_protein|mol2

> <Gold.PLP.Fitness>
42.6199

> <Gold.PLP.PLP>
-39.8643

> <Gold.PLP.part.hbond>
-3.9323

> <Gold.PLP.part.metal>
0.0000

> <Gold.PLP.part.buried>
-3.9192

> <Gold.PLP.part.nonpolar>
-32.5014

> <Gold.PLP.part.repulsive>
0.3850

> <Gold.PLP.ligand.clash>
0.0000

> <Gold.PLP.ligand.torsion>
1.5148

> <Gold.PLP.Chemscore.Hbond>
1.8160

> <Gold.PLP.Chemscore.CHOScore>
0.0000

> <Gold.PLP.Chemscore.Metal>
0.0000

> <Gold.Chemscore.Hbonds>
donor molecule, donor type, donor heavy atom, donor atom, acceptor molecule, acceptor atom, score
      L1  H     1    30       P1  8029  0.80
      L1  H    22    43       P1  7948  1.00

> <Gold.PLP.Chemscore.Internal.Correction>
0.3373

> <Gold.Rescore>
     Score         DG    S(hbond)    S(metal)    S(lipo)     H(rot)  DE(clash)    DE(int)     intcor
      9.81     -11.49       1.80        0.00      72.30       3.31       0.02       1.67       ----

> <Gold.Chemscore.Fitness>
9.8077

> <Gold.Chemscore.DG>
-11.4947

> <Gold.Chemscore.ZeroCoef>
-5.4800

> <Gold.Chemscore.Hbond>
1.8044

> <Gold.Chemscore.Metal>
0.0000

> <Gold.Chemscore.Lipo>
72.2984

> <Gold.Chemscore.Internal_Hbond>
0.0000

> <Gold.Chemscore.DEClash>
0.0190

> <Gold.Chemscore.DEInternal>
1.6680

> <Gold.Chemscore.Rot>
3.3089

> <Gold.Chemscore.Internal.Correction>
   9.000000E+99

> <Gold.Chemscore.Hbonds>
donor molecule, donor type, donor heavy atom, donor atom, acceptor molecule, acceptor atom, score
      L1  H     1    30       P1  8029  0.20
      L1  H    22    43       P1  7948  0.78

> <Gold.Chemscore.Hbond.Weighted>
-6.0267

> <Gold.Chemscore.Metal.Weighted>
-0.0000

> <Gold.Chemscore.Lipo.Weighted>
-8.4589

> <Gold.Chemscore.Internal_Hbond.Weighted>
0.0000

> <Gold.Chemscore.DEClash.Weighted>
0.0190

> <Gold.Chemscore.DEInternal.Weighted>
1.6680

> <Gold.Chemscore.Rot.Weighted>
8.4709

> <Gold.Chemscore.Internal.Correction.Weighted>
   9.000000E+99

> <Gold.Protein.RotatedTorsions>
[ 6907 6896 6895 6894 ] final -175.87 input  -60.11 | X-H torsion
[ 7974 7965 7964 7962 ] final  161.93 input  175.53 | X-H torsion
[ 8008 7997 7996 7995 ] final -159.47 input   59.86 | X-H torsion
[ 10167 10162 10161 10158 ] final  -30.48 input  -65.29 | X-H torsion
[ 10718 10713 10712 10709 ] final   81.49 input   66.30 | X-H torsion
[ 10763 10752 10751 10750 ] final  136.69 input  -60.55 | X-H torsion
[ 11005 11000 10999 10996 ] final   44.11 input  -57.11 | X-H torsion

> <Gold.Protein.ActiveResidues>
 VAL166  LYS551  ARG553  GLY616  TRP617  ASP618  TYR619  PRO620  LYS621  CYS622 
 ASP623  PHE694  ASN695  SER759  ASP760  ASP761  ALA762  ILE779  LEU786  VAL792 
 PHE793  MET794  SER795  GLU796  ALA797  LYS798  CYS799  TRP800  GLU811  SER814 

> <Gold.Protein.RotatedAtoms>
  151.5955  133.3362  159.3036 H   0  0  0  0  0  0  0  0  0  0  0  0  # atno 6907 bound_to 6896
  150.8236  134.7460  159.6805 H   0  0  0  0  0  0  0  0  0  0  0  0  # atno 6908 bound_to 6896
  152.4328  134.5751  159.9983 H   0  0  0  0  0  0  0  0  0  0  0  0  # atno 6909 bound_to 6896
  144.7661  139.7968  143.6314 H   0  0  0  0  0  0  0  0  0  0  0  0  # atno 7974 bound_to 7965
  155.7630  140.0841  157.2146 H   0  0  0  0  0  0  0  0  0  0  0  0  # atno 8008 bound_to 7997
  154.4002  140.1539  156.2911 H   0  0  0  0  0  0  0  0  0  0  0  0  # atno 8009 bound_to 7997
  155.8821  140.3420  155.5898 H   0  0  0  0  0  0  0  0  0  0  0  0  # atno 8010 bound_to 7997
  140.7249  143.3845  151.1540 H   0  0  0  0  0  0  0  0  0  0  0  0  # atno 10167 bound_to 10162
  157.6834  131.0006  150.2234 H   0  0  0  0  0  0  0  0  0  0  0  0  # atno 10718 bound_to 10713
  153.8608  135.3067  155.3437 H   0  0  0  0  0  0  0  0  0  0  0  0  # atno 10763 bound_to 10752
  154.7850  135.4815  153.9929 H   0  0  0  0  0  0  0  0  0  0  0  0  # atno 10764 bound_to 10752
  153.1463  135.6834  153.9044 H   0  0  0  0  0  0  0  0  0  0  0  0  # atno 10765 bound_to 10752
  140.1582  134.4374  155.8335 H   0  0  0  0  0  0  0  0  0  0  0  0  # atno 11005 bound_to 11000
  146.1770  139.4945  142.9891 LP  0  0  0  0  0  0  0  0  0  0  0  0  # atno 17320 bound_to 7965
  145.6465  141.0273  143.1783 LP  0  0  0  0  0  0  0  0  0  0  0  0  # atno 17321 bound_to 7965
  139.7440  143.8880  152.3058 LP  0  0  0  0  0  0  0  0  0  0  0  0  # atno 17342 bound_to 10162
  139.8711  144.7067  150.8986 LP  0  0  0  0  0  0  0  0  0  0  0  0  # atno 17343 bound_to 10162
  156.2881  130.3742  149.7868 LP  0  0  0  0  0  0  0  0  0  0  0  0  # atno 17370 bound_to 10713
  156.5536  130.8353  151.3307 LP  0  0  0  0  0  0  0  0  0  0  0  0  # atno 17371 bound_to 10713
  141.2207  133.6902  156.7546 LP  0  0  0  0  0  0  0  0  0  0  0  0  # atno 17394 bound_to 11000
  140.2521  134.8532  157.3678 LP  0  0  0  0  0  0  0  0  0  0  0  0  # atno 17395 bound_to 11000

$$$$
