AV-unprocessed.smi:701|AV-procd|sdf|3413|dock9
  -GOLD-   22720 0393D 1   1.00000     0.00000
 Structure written by MMmdl.
 48 50  0  0  0  0  0  0  0  0  2 V2000
  154.5183  139.0907  153.9746 C   0  0  0  0  0  0  0  0  0  0  0  0
  153.0531  139.1212  154.4140 C   0  0  0  0  0  0  0  0  0  0  0  0
  152.9914  139.5939  155.7488 O   0  0  0  0  0  0  0  0  0  0  0  0
  151.7704  140.2551  156.0571 C   0  0  1  0  0  0  0  0  0  0  0  0
  150.5465  139.4713  155.5675 C   0  0  0  0  0  0  0  0  0  0  0  0
  150.4870  138.8056  156.9497 C   0  0  1  0  0  0  0  0  0  0  0  0
  151.2092  137.5330  156.9712 N   0  0  0  0  0  0  0  0  0  0  0  0
  150.7997  136.4114  156.3626 C   0  0  0  0  0  0  0  0  0  0  0  0
  149.7511  136.3416  155.7196 O   0  0  0  0  0  0  0  0  0  0  0  0
  151.7418  135.2050  156.4808 C   0  0  0  0  0  0  0  0  0  0  0  0
  151.1917  133.9756  155.8875 N   0  0  0  0  0  0  0  0  0  0  0  0
  150.7256  134.0447  154.5628 C   0  0  0  0  0  0  0  0  0  0  0  0
  150.1949  132.9757  153.9397 C   0  0  0  0  0  0  0  0  0  0  0  0
  150.1111  131.7200  154.6749 C   0  0  0  0  0  0  0  0  0  0  0  0
  149.6345  130.7318  154.1200 O   0  0  0  0  0  0  0  0  0  0  0  0
  150.5726  131.7046  155.9597 N   0  5  0  0  0  0  0  0  0  0  0  0
  151.1051  132.8017  156.5825 C   0  0  0  0  0  0  0  0  0  0  0  0
  151.5091  132.7677  157.7454 O   0  0  0  0  0  0  0  0  0  0  0  0
  151.3085  139.9976  157.5165 C   0  0  0  0  0  0  0  0  0  0  0  0
  152.4085  139.6905  158.5573 C   0  0  0  0  0  0  0  0  0  0  0  0
  153.2579  140.9232  158.9088 C   0  0  0  0  0  0  0  0  0  0  0  0
  152.3840  142.0610  159.4498 C   0  0  0  0  0  0  0  0  0  0  0  0
  151.2389  142.3844  158.4830 C   0  0  0  0  0  0  0  0  0  0  0  0
  150.4385  141.1204  158.1215 C   0  0  0  0  0  0  0  0  0  0  0  0
  154.6108  138.7336  152.9489 H   0  0  0  0  0  0  0  0  0  0  0  0
  155.1039  138.4297  154.6140 H   0  0  0  0  0  0  0  0  0  0  0  0
  154.9621  140.0854  154.0240 H   0  0  0  0  0  0  0  0  0  0  0  0
  152.4796  139.7775  153.7580 H   0  0  0  0  0  0  0  0  0  0  0  0
  152.6238  138.1218  154.3380 H   0  0  0  0  0  0  0  0  0  0  0  0
  151.7709  141.3082  155.7728 H   0  0  0  0  0  0  0  0  0  0  0  0
  149.6865  140.1140  155.3749 H   0  0  0  0  0  0  0  0  0  0  0  0
  150.7254  138.7966  154.7297 H   0  0  0  0  0  0  0  0  0  0  0  0
  149.4766  138.7403  157.3569 H   0  0  0  0  0  0  0  0  0  0  0  0
  152.0856  137.5111  157.4721 H   0  0  0  0  0  0  0  0  0  0  0  0
  152.6863  135.4632  156.0002 H   0  0  0  0  0  0  0  0  0  0  0  0
  151.9916  135.0428  157.5310 H   0  0  0  0  0  0  0  0  0  0  0  0
  150.8172  135.0132  154.0936 H   0  0  0  0  0  0  0  0  0  0  0  0
  149.8367  133.0468  152.9233 H   0  0  0  0  0  0  0  0  0  0  0  0
  151.9573  139.2951  159.4683 H   0  0  0  0  0  0  0  0  0  0  0  0
  153.0800  138.9076  158.2047 H   0  0  0  0  0  0  0  0  0  0  0  0
  154.0155  140.6559  159.6459 H   0  0  0  0  0  0  0  0  0  0  0  0
  153.7958  141.2622  158.0224 H   0  0  0  0  0  0  0  0  0  0  0  0
  151.9700  141.7705  160.4161 H   0  0  0  0  0  0  0  0  0  0  0  0
  152.9896  142.9502  159.6265 H   0  0  0  0  0  0  0  0  0  0  0  0
  150.5778  143.1280  158.9288 H   0  0  0  0  0  0  0  0  0  0  0  0
  151.6433  142.8385  157.5780 H   0  0  0  0  0  0  0  0  0  0  0  0
  149.6394  141.4003  157.4344 H   0  0  0  0  0  0  0  0  0  0  0  0
  149.9331  140.7539  159.0162 H   0  0  0  0  0  0  0  0  0  0  0  0
  1  2  1  0  0  0  0
  1 25  1  0  0  0  0
  1 26  1  0  0  0  0
  1 27  1  0  0  0  0
  2  3  1  0  0  0  0
  2 28  1  0  0  0  0
  2 29  1  0  0  0  0
  3  4  1  0  0  0  0
  4 19  1  0  0  0  0
  4  5  1  0  0  0  0
  4 30  1  0  0  0  0
  5  6  1  0  0  0  0
  5 31  1  0  0  0  0
  5 32  1  0  0  0  0
  6  7  1  0  0  0  0
  6 19  1  0  0  0  0
  6 33  1  0  0  0  0
  7  8  1  0  0  0  0
  7 34  1  0  0  0  0
  8  9  2  0  0  0  0
  8 10  1  0  0  0  0
 10 11  1  0  0  0  0
 10 35  1  0  0  0  0
 10 36  1  0  0  0  0
 11 17  1  0  0  0  0
 11 12  1  0  0  0  0
 12 13  2  0  0  0  0
 12 37  1  0  0  0  0
 13 14  1  0  0  0  0
 13 38  1  0  0  0  0
 14 15  2  0  0  0  0
 14 16  1  0  0  0  0
 16 17  1  0  0  0  0
 17 18  2  0  0  0  0
 19 24  1  0  0  0  0
 19 20  1  0  0  0  0
 20 21  1  0  0  0  0
 20 39  1  0  0  0  0
 20 40  1  0  0  0  0
 21 22  1  0  0  0  0
 21 41  1  0  0  0  0
 21 42  1  0  0  0  0
 22 23  1  0  0  0  0
 22 43  1  0  0  0  0
 22 44  1  0  0  0  0
 23 24  1  0  0  0  0
 23 45  1  0  0  0  0
 23 46  1  0  0  0  0
 24 47  1  0  0  0  0
 24 48  1  0  0  0  0
M  CHG  1  16  -1
M  END
> <s_m_source_file>
AV-unprocessed.smi

> <i_m_source_file_index>
701

> <i_lp_mmshare_version>
43012

> <i_f3d_flags>
0

> <s_epik_input>
W0NIMl0xW0NIMl1bQ0gyXVtDSDJdW0NIMl1DMTJbQ0BIXShPW0NIMl1bQ0gzXSlbQ0gyXVtDQEhdMltOSF1DKD1PKVtDSDJdbjNbY0hdW2NIXWMoPU8pW25IXWMzPU8=

> <s_epik_cmdline>
J2VwaWtfcHl0aG9uJywgJy1waCcsICc3LjAnLCAnLXRuJywgJzgnLCAnLW1hJywgJzIwMCcsICctbWV0YWxfYmluZGluZycsICctaW1hZScsICc8aW5maWxlLm1hZT4nLCAnLW9tYWUnLCAnPG91dGZpbGUubWFlPic=

> <r_lp_tautomer_probability>
0.999537

> <r_epik_Ionization_Penalty>
3.12423

> <r_epik_Ionization_Penalty_Charging>
2.92877e-08

> <r_epik_Ionization_Penalty_Neutral>
3.12423

> <r_epik_State_Penalty>
3.12332

> <r_epik_Charging_Adjusted_Penalty>
3.12332

> <i_epik_Tot_Q>
-1

> <i_epik_Tot_abs_Q>
1

> <r_epik_Metal_State_Penalty>
0.463873

> <b_epik_Metal_Only>
1

> <s_lp_Force_Field>
OPLS_2005

> <r_lp_Energy>
39.3964

> <b_lp_Chiralities_Consistent>
1

> <s_lp_Variant>
AV-unprocessed.smi:701-6

> <Gold.Version>
5.8.1

> <Gold.Id.Protein>
6NUR|6NUR_protein|mol2

> <Gold.PLP.Fitness>
40.8299

> <Gold.PLP.PLP>
-35.1247

> <Gold.PLP.part.hbond>
-2.0000

> <Gold.PLP.part.metal>
0.0000

> <Gold.PLP.part.buried>
-3.6069

> <Gold.PLP.part.nonpolar>
-30.2854

> <Gold.PLP.part.repulsive>
0.1945

> <Gold.PLP.ligand.clash>
0.0000

> <Gold.PLP.ligand.torsion>
0.6436

> <Gold.PLP.Chemscore.Hbond>
2.0000

> <Gold.PLP.Chemscore.CHOScore>
0.2135

> <Gold.PLP.Chemscore.Metal>
0.0000

> <Gold.Chemscore.Hbonds>
donor molecule, donor type, donor heavy atom, donor atom, acceptor molecule, acceptor atom, score
      P1  H  6896  6909       L1    18  0.43
      P1  H  7997  8010       L1     3  1.00
      L1  C    12    37       P1  7949  0.22

> <Gold.PLP.Chemscore.Internal.Correction>
0.3518

> <Gold.Rescore>
     Score         DG    S(hbond)    S(metal)    S(lipo)     H(rot)  DE(clash)    DE(int)     intcor
     13.91     -17.31       1.76        0.00      95.51       2.04       1.17       2.23       ----

> <Gold.Chemscore.Fitness>
13.9107

> <Gold.Chemscore.DG>
-17.3078

> <Gold.Chemscore.ZeroCoef>
-5.4800

> <Gold.Chemscore.Hbond>
1.7592

> <Gold.Chemscore.Metal>
0.0000

> <Gold.Chemscore.Lipo>
95.5079

> <Gold.Chemscore.Internal_Hbond>
0.0000

> <Gold.Chemscore.DEClash>
1.1712

> <Gold.Chemscore.DEInternal>
2.2260

> <Gold.Chemscore.Rot>
2.0399

> <Gold.Chemscore.Internal.Correction>
   9.000000E+99

> <Gold.Chemscore.Hbonds>
donor molecule, donor type, donor heavy atom, donor atom, acceptor molecule, acceptor atom, score
      P1  H  6896  6909       L1    18  0.44
      P1  H  7997  8010       L1     3  0.85

> <Gold.Chemscore.Hbond.Weighted>
-5.8756

> <Gold.Chemscore.Metal.Weighted>
-0.0000

> <Gold.Chemscore.Lipo.Weighted>
-11.1744

> <Gold.Chemscore.Internal_Hbond.Weighted>
0.0000

> <Gold.Chemscore.DEClash.Weighted>
1.1712

> <Gold.Chemscore.DEInternal.Weighted>
2.2260

> <Gold.Chemscore.Rot.Weighted>
5.2222

> <Gold.Chemscore.Internal.Correction.Weighted>
   9.000000E+99

> <Gold.Protein.RotatedTorsions>
[ 6907 6896 6895 6894 ] final   -7.10 input  -60.11 | X-H torsion
[ 7974 7965 7964 7962 ] final -128.75 input  175.53 | X-H torsion
[ 8008 7997 7996 7995 ] final   77.07 input   59.86 | X-H torsion
[ 10167 10162 10161 10158 ] final  114.22 input  -65.29 | X-H torsion
[ 10718 10713 10712 10709 ] final  147.93 input   66.30 | X-H torsion
[ 10763 10752 10751 10750 ] final  -14.80 input  -60.55 | X-H torsion
[ 11005 11000 10999 10996 ] final -122.31 input  -57.11 | X-H torsion

> <Gold.Protein.ActiveResidues>
 VAL166  LYS551  ARG553  GLY616  TRP617  ASP618  TYR619  PRO620  LYS621  CYS622 
 ASP623  PHE694  ASN695  SER759  ASP760  ASP761  ALA762  ILE779  LEU786  VAL792 
 PHE793  MET794  SER795  GLU796  ALA797  LYS798  CYS799  TRP800  GLU811  SER814 

> <Gold.Protein.RotatedAtoms>
  151.4549  135.1033  159.9708 H   0  0  0  0  0  0  0  0  0  0  0  0  # atno 6907 bound_to 6896
  152.4874  133.8405  159.7161 H   0  0  0  0  0  0  0  0  0  0  0  0  # atno 6908 bound_to 6896
  150.8996  133.7076  159.2909 H   0  0  0  0  0  0  0  0  0  0  0  0  # atno 6909 bound_to 6896
  144.9639  140.7476  143.4712 H   0  0  0  0  0  0  0  0  0  0  0  0  # atno 7974 bound_to 7965
  155.8364  140.3464  155.5604 H   0  0  0  0  0  0  0  0  0  0  0  0  # atno 8008 bound_to 7997
  155.8187  140.0909  157.1881 H   0  0  0  0  0  0  0  0  0  0  0  0  # atno 8009 bound_to 7997
  154.4004  140.1434  156.3461 H   0  0  0  0  0  0  0  0  0  0  0  0  # atno 8010 bound_to 7997
  139.6404  144.7123  151.2248 H   0  0  0  0  0  0  0  0  0  0  0  0  # atno 10167 bound_to 10162
  157.3149  131.0894  151.1286 H   0  0  0  0  0  0  0  0  0  0  0  0  # atno 10718 bound_to 10713
  153.5337  135.7014  153.5670 H   0  0  0  0  0  0  0  0  0  0  0  0  # atno 10763 bound_to 10752
  153.3666  135.3955  155.1758 H   0  0  0  0  0  0  0  0  0  0  0  0  # atno 10764 bound_to 10752
  154.8682  135.3802  154.4836 H   0  0  0  0  0  0  0  0  0  0  0  0  # atno 10765 bound_to 10752
  141.0004  134.0410  157.3544 H   0  0  0  0  0  0  0  0  0  0  0  0  # atno 11005 bound_to 11000
  145.2659  139.1974  143.4867 LP  0  0  0  0  0  0  0  0  0  0  0  0  # atno 17320 bound_to 7965
  146.3362  140.2597  142.8601 LP  0  0  0  0  0  0  0  0  0  0  0  0  # atno 17321 bound_to 7965
  140.7488  143.6322  150.8413 LP  0  0  0  0  0  0  0  0  0  0  0  0  # atno 17342 bound_to 10162
  139.9958  143.5797  152.2893 LP  0  0  0  0  0  0  0  0  0  0  0  0  # atno 17343 bound_to 10162
  157.2594  130.6651  149.5967 LP  0  0  0  0  0  0  0  0  0  0  0  0  # atno 17370 bound_to 10713
  155.9681  130.4513  150.5732 LP  0  0  0  0  0  0  0  0  0  0  0  0  # atno 17371 bound_to 10713
  139.9036  135.0173  156.7383 LP  0  0  0  0  0  0  0  0  0  0  0  0  # atno 17394 bound_to 11000
  140.6898  133.9400  155.7959 LP  0  0  0  0  0  0  0  0  0  0  0  0  # atno 17395 bound_to 11000

$$$$
