AV-unprocessed.smi:2233|AV-procd|sdf|9040|dock6
  -GOLD-   2272012243D 1   1.00000     0.00000
 Structure written by MMmdl.
 43 44  0  0  0  0  0  0  0  0  2 V2000
  155.0484  143.7106  165.1839 C   0  0  0  0  0  0  0  0  0  0  0  0
  154.3084  143.3051  164.3011 C   0  0  0  0  0  0  0  0  0  0  0  0
  153.4280  142.8177  163.2249 C   0  0  0  0  0  0  0  0  0  0  0  0
  153.9919  141.6330  162.4191 C   0  0  0  0  0  0  0  0  0  0  0  0
  153.3503  141.4496  161.0315 C   0  0  0  0  0  0  0  0  0  0  0  0
  153.7835  142.5430  160.0384 C   0  0  0  0  0  0  0  0  0  0  0  0
  152.7828  142.7425  158.8957 C   0  0  0  0  0  0  0  0  0  0  0  0
  152.5296  143.8774  158.4925 O   0  0  0  0  0  0  0  0  0  0  0  0
  152.2423  141.6160  158.3968 N   0  0  0  0  0  0  0  0  0  0  0  0
  151.3096  141.4618  157.3301 C   0  0  0  0  0  0  0  0  0  0  0  0
  150.6388  142.5555  156.7266 C   0  0  0  0  0  0  0  0  0  0  0  0
  149.7557  142.3448  155.7276 N   0  3  0  0  0  0  0  0  0  0  0  0
  149.4596  141.1155  155.2580 C   0  0  0  0  0  0  0  0  0  0  0  0
  150.0787  139.9841  155.8226 C   0  0  0  0  0  0  0  0  0  0  0  0
  151.0117  140.1506  156.8743 C   0  0  0  0  0  0  0  0  0  0  0  0
  151.6398  139.0385  157.4588 N   0  0  0  0  0  0  0  0  0  0  0  0
  151.2625  138.8094  158.8477 C   0  0  0  0  0  0  0  0  0  0  0  0
  152.1119  137.6715  159.4395 C   0  0  0  0  0  0  0  0  0  0  0  0
  151.9707  136.5040  158.6350 O   0  0  0  0  0  0  0  0  0  0  0  0
  152.4143  136.7168  157.2974 C   0  0  0  0  0  0  0  0  0  0  0  0
  151.5744  137.8299  156.6473 C   0  0  0  0  0  0  0  0  0  0  0  0
  155.6942  144.0684  165.9543 H   0  0  0  0  0  0  0  0  0  0  0  0
  152.4719  142.5480  163.6740 H   0  0  0  0  0  0  0  0  0  0  0  0
  153.2367  143.6591  162.5584 H   0  0  0  0  0  0  0  0  0  0  0  0
  155.0649  141.7827  162.2943 H   0  0  0  0  0  0  0  0  0  0  0  0
  153.8829  140.7137  162.9966 H   0  0  0  0  0  0  0  0  0  0  0  0
  153.6149  140.4700  160.6313 H   0  0  0  0  0  0  0  0  0  0  0  0
  152.2642  141.4584  161.1346 H   0  0  0  0  0  0  0  0  0  0  0  0
  153.9159  143.4859  160.5717 H   0  0  0  0  0  0  0  0  0  0  0  0
  154.7525  142.2903  159.6068 H   0  0  0  0  0  0  0  0  0  0  0  0
  152.5982  140.7522  158.7811 H   0  0  0  0  0  0  0  0  0  0  0  0
  150.7596  143.5908  157.0062 H   0  0  0  0  0  0  0  0  0  0  0  0
  148.7375  141.0735  154.4555 H   0  0  0  0  0  0  0  0  0  0  0  0
  149.8357  138.9997  155.4497 H   0  0  0  0  0  0  0  0  0  0  0  0
  151.4048  139.7230  159.4264 H   0  0  0  0  0  0  0  0  0  0  0  0
  150.2049  138.5491  158.9077 H   0  0  0  0  0  0  0  0  0  0  0  0
  153.1625  137.9604  159.4993 H   0  0  0  0  0  0  0  0  0  0  0  0
  151.7846  137.4466  160.4547 H   0  0  0  0  0  0  0  0  0  0  0  0
  153.4745  136.9751  157.2914 H   0  0  0  0  0  0  0  0  0  0  0  0
  152.3088  135.7888  156.7354 H   0  0  0  0  0  0  0  0  0  0  0  0
  150.5384  137.5021  156.5519 H   0  0  0  0  0  0  0  0  0  0  0  0
  151.9424  138.0377  155.6417 H   0  0  0  0  0  0  0  0  0  0  0  0
  149.2896  143.1518  155.3117 H   0  0  0  0  0  0  0  0  0  0  0  0
  1  2  3  0  0  0  0
  1 22  1  0  0  0  0
  2  3  1  0  0  0  0
  3  4  1  0  0  0  0
  3 23  1  0  0  0  0
  3 24  1  0  0  0  0
  4  5  1  0  0  0  0
  4 25  1  0  0  0  0
  4 26  1  0  0  0  0
  5  6  1  0  0  0  0
  5 27  1  0  0  0  0
  5 28  1  0  0  0  0
  6  7  1  0  0  0  0
  6 29  1  0  0  0  0
  6 30  1  0  0  0  0
  7  8  2  0  0  0  0
  7  9  1  0  0  0  0
  9 10  1  0  0  0  0
  9 31  1  0  0  0  0
 10 15  1  0  0  0  0
 10 11  2  0  0  0  0
 11 12  1  0  0  0  0
 11 32  1  0  0  0  0
 12 13  2  0  0  0  0
 12 43  1  0  0  0  0
 13 14  1  0  0  0  0
 13 33  1  0  0  0  0
 14 15  2  0  0  0  0
 14 34  1  0  0  0  0
 15 16  1  0  0  0  0
 16 21  1  0  0  0  0
 16 17  1  0  0  0  0
 17 18  1  0  0  0  0
 17 35  1  0  0  0  0
 17 36  1  0  0  0  0
 18 19  1  0  0  0  0
 18 37  1  0  0  0  0
 18 38  1  0  0  0  0
 19 20  1  0  0  0  0
 20 21  1  0  0  0  0
 20 39  1  0  0  0  0
 20 40  1  0  0  0  0
 21 41  1  0  0  0  0
 21 42  1  0  0  0  0
M  CHG  1  12   1
M  END
> <s_m_source_file>
AV-unprocessed.smi

> <i_m_source_file_index>
2233

> <i_lp_mmshare_version>
43012

> <i_f3d_flags>
0

> <s_epik_input>
W0NIXSNDW0NIMl1bQ0gyXVtDSDJdW0NIMl1DKD1PKVtOSF1jMVtjSF1uW2NIXVtjSF1jMU4yW0NIMl1bQ0gyXU9bQ0gyXVtDSDJdMg==

> <s_epik_cmdline>
J2VwaWtfcHl0aG9uJywgJy1waCcsICc3LjAnLCAnLXRuJywgJzgnLCAnLW1hJywgJzIwMCcsICctbWV0YWxfYmluZGluZycsICctaW1hZScsICc8aW5maWxlLm1hZT4nLCAnLW9tYWUnLCAnPG91dGZpbGUubWFlPic=

> <r_lp_tautomer_probability>
1

> <r_epik_Ionization_Penalty>
0.153155

> <r_epik_Ionization_Penalty_Charging>
0.153154

> <r_epik_Ionization_Penalty_Neutral>
1.2848e-06

> <r_epik_State_Penalty>
0.142445

> <r_epik_Charging_Adjusted_Penalty>
0.295599

> <i_epik_Tot_Q>
1

> <i_epik_Tot_abs_Q>
1

> <r_epik_Metal_State_Penalty>
0.464899

> <b_epik_Metal_Only>
0

> <s_lp_Force_Field>
OPLS_2005

> <r_lp_Energy>
30.3927

> <b_lp_Chiralities_Consistent>
1

> <s_lp_Variant>
AV-unprocessed.smi:2233-1

> <Gold.Version>
5.8.1

> <Gold.Id.Protein>
6NUR|6NUR_protein|mol2

> <Gold.PLP.Fitness>
46.2420

> <Gold.PLP.PLP>
-40.9157

> <Gold.PLP.part.hbond>
-2.0000

> <Gold.PLP.part.metal>
0.0000

> <Gold.PLP.part.buried>
-4.5130

> <Gold.PLP.part.nonpolar>
-33.6194

> <Gold.PLP.part.repulsive>
0.2601

> <Gold.PLP.ligand.clash>
0.0312

> <Gold.PLP.ligand.torsion>
0.8523

> <Gold.PLP.Chemscore.Hbond>
2.3040

> <Gold.PLP.Chemscore.CHOScore>
0.0000

> <Gold.PLP.Chemscore.Metal>
0.0000

> <Gold.Chemscore.Hbonds>
donor molecule, donor type, donor heavy atom, donor atom, acceptor molecule, acceptor atom, score
      L1  H    12    43       P1  8028  1.66
      P1  H  6896  6909       L1    19  0.61

> <Gold.PLP.Chemscore.Internal.Correction>
0.1501

> <Gold.Rescore>
     Score         DG    S(hbond)    S(metal)    S(lipo)     H(rot)  DE(clash)    DE(int)     intcor
     16.83     -20.26       1.71        0.00     111.17       1.54       0.43       3.00       ----

> <Gold.Chemscore.Fitness>
16.8311

> <Gold.Chemscore.DG>
-20.2624

> <Gold.Chemscore.ZeroCoef>
-5.4800

> <Gold.Chemscore.Hbond>
1.7105

> <Gold.Chemscore.Metal>
0.0000

> <Gold.Chemscore.Lipo>
111.1677

> <Gold.Chemscore.Internal_Hbond>
0.0000

> <Gold.Chemscore.DEClash>
0.4290

> <Gold.Chemscore.DEInternal>
3.0023

> <Gold.Chemscore.Rot>
1.5380

> <Gold.Chemscore.Internal.Correction>
   9.000000E+99

> <Gold.Chemscore.Hbonds>
donor molecule, donor type, donor heavy atom, donor atom, acceptor molecule, acceptor atom, score
      L1  H    12    43       P1  8028  0.83
      P1  H  6896  6909       L1    19  0.24

> <Gold.Chemscore.Hbond.Weighted>
-5.7131

> <Gold.Chemscore.Metal.Weighted>
-0.0000

> <Gold.Chemscore.Lipo.Weighted>
-13.0066

> <Gold.Chemscore.Internal_Hbond.Weighted>
0.0000

> <Gold.Chemscore.DEClash.Weighted>
0.4290

> <Gold.Chemscore.DEInternal.Weighted>
3.0023

> <Gold.Chemscore.Rot.Weighted>
3.9373

> <Gold.Chemscore.Internal.Correction.Weighted>
   9.000000E+99

> <Gold.Protein.RotatedTorsions>
[ 6907 6896 6895 6894 ] final  108.59 input  -60.11 | X-H torsion
[ 7974 7965 7964 7962 ] final  -74.29 input  175.53 | X-H torsion
[ 8008 7997 7996 7995 ] final  -33.20 input   59.86 | X-H torsion
[ 10167 10162 10161 10158 ] final   46.71 input  -65.29 | X-H torsion
[ 10718 10713 10712 10709 ] final  -79.65 input   66.30 | X-H torsion
[ 10763 10752 10751 10750 ] final  143.30 input  -60.55 | X-H torsion
[ 11005 11000 10999 10996 ] final  -66.80 input  -57.11 | X-H torsion

> <Gold.Protein.ActiveResidues>
 VAL166  LYS551  ARG553  GLY616  TRP617  ASP618  TYR619  PRO620  LYS621  CYS622 
 ASP623  PHE694  ASN695  SER759  ASP760  ASP761  ALA762  ILE779  LEU786  VAL792 
 PHE793  MET794  SER795  GLU796  ALA797  LYS798  CYS799  TRP800  GLU811  SER814 

> <Gold.Protein.RotatedAtoms>
  152.5105  133.9067  159.7467 H   0  0  0  0  0  0  0  0  0  0  0  0  # atno 6907 bound_to 6896
  150.9470  133.6583  159.2786 H   0  0  0  0  0  0  0  0  0  0  0  0  # atno 6908 bound_to 6896
  151.3875  135.0955  159.9568 H   0  0  0  0  0  0  0  0  0  0  0  0  # atno 6909 bound_to 6896
  145.6410  140.9311  143.1036 H   0  0  0  0  0  0  0  0  0  0  0  0  # atno 7974 bound_to 7965
  154.4156  140.1717  156.1849 H   0  0  0  0  0  0  0  0  0  0  0  0  # atno 8008 bound_to 7997
  155.9651  140.3390  155.6501 H   0  0  0  0  0  0  0  0  0  0  0  0  # atno 8009 bound_to 7997
  155.6698  140.0710  157.2515 H   0  0  0  0  0  0  0  0  0  0  0  0  # atno 8010 bound_to 7997
  140.3111  144.2819  150.6199 H   0  0  0  0  0  0  0  0  0  0  0  0  # atno 10167 bound_to 10162
  156.0088  130.4551  150.3680 H   0  0  0  0  0  0  0  0  0  0  0  0  # atno 10718 bound_to 10713
  153.9701  135.2951  155.3428 H   0  0  0  0  0  0  0  0  0  0  0  0  # atno 10763 bound_to 10752
  154.7327  135.5060  153.8993 H   0  0  0  0  0  0  0  0  0  0  0  0  # atno 10764 bound_to 10752
  153.0904  135.6706  153.9977 H   0  0  0  0  0  0  0  0  0  0  0  0  # atno 10765 bound_to 10752
  141.1491  133.6706  156.6194 H   0  0  0  0  0  0  0  0  0  0  0  0  # atno 11005 bound_to 11000
  144.7157  139.8204  143.7399 LP  0  0  0  0  0  0  0  0  0  0  0  0  # atno 17320 bound_to 7965
  146.1281  139.4311  143.0186 LP  0  0  0  0  0  0  0  0  0  0  0  0  # atno 17321 bound_to 7965
  140.5567  143.2198  151.7835 LP  0  0  0  0  0  0  0  0  0  0  0  0  # atno 17342 bound_to 10162
  139.4893  144.4404  151.9771 LP  0  0  0  0  0  0  0  0  0  0  0  0  # atno 17343 bound_to 10162
  157.1766  131.0382  151.2769 LP  0  0  0  0  0  0  0  0  0  0  0  0  # atno 17370 bound_to 10713
  157.4183  130.7423  149.6893 LP  0  0  0  0  0  0  0  0  0  0  0  0  # atno 17371 bound_to 10713
  140.3552  134.7734  157.4495 LP  0  0  0  0  0  0  0  0  0  0  0  0  # atno 17394 bound_to 11000
  140.0829  134.5707  155.8522 LP  0  0  0  0  0  0  0  0  0  0  0  0  # atno 17395 bound_to 11000

$$$$
