AV-unprocessed.smi:1976|AV-procd|sdf|7983|dock3
  -GOLD-   2272010163D 1   1.00000     0.00000
 Structure written by MMmdl.
 45 47  0  0  0  0  0  0  0  0  2 V2000
  149.9820  140.5750  154.3759 O   0  0  0  0  0  0  0  0  0  0  0  0
  148.9245  140.5880  155.0074 C   0  0  0  0  0  0  0  0  0  0  0  0
  148.7640  141.4529  156.2662 C   0  0  0  0  0  0  0  0  0  0  0  0
  149.8622  141.2906  157.2339 N   0  0  0  0  0  0  0  0  0  0  0  0
  150.4345  142.4667  157.7571 C   0  0  0  0  0  0  0  0  0  0  0  0
  151.4356  142.4571  158.6579 C   0  0  0  0  0  0  0  0  0  0  0  0
  152.0738  143.7441  159.1574 C   0  0  0  0  0  0  0  0  0  0  0  0
  153.0585  143.4886  160.0193 F   0  0  0  0  0  0  0  0  0  0  0  0
  152.5750  144.4570  158.1478 F   0  0  0  0  0  0  0  0  0  0  0  0
  151.1617  144.4905  159.7788 F   0  0  0  0  0  0  0  0  0  0  0  0
  151.9344  141.1546  159.0537 C   0  0  0  0  0  0  0  0  0  0  0  0
  151.4079  140.0201  158.5522 C   0  0  0  0  0  0  0  0  0  0  0  0
  150.3071  140.0473  157.5864 C   0  0  0  0  0  0  0  0  0  0  0  0
  149.8160  139.0182  157.1215 O   0  0  0  0  0  0  0  0  0  0  0  0
  147.8477  139.8766  154.6430 N   0  0  0  0  0  0  0  0  0  0  0  0
  147.7921  138.9922  153.4843 C   0  0  2  0  0  0  0  0  0  0  0  0
  147.4040  139.7000  152.1712 C   0  0  0  0  0  0  0  0  0  0  0  0
  146.5034  138.7002  151.4192 C   0  0  0  0  0  0  0  0  0  0  0  0
  146.4998  137.4792  152.2476 N   0  3  2  0  0  0  0  0  0  0  0  0
  145.3433  136.5683  152.1025 C   0  0  0  0  0  0  0  0  0  0  0  0
  145.5602  135.3243  152.9877 C   0  0  0  0  0  0  0  0  0  0  0  0
  145.8664  135.7072  154.4505 C   0  0  0  0  0  0  0  0  0  0  0  0
  147.0208  136.7254  154.5296 C   0  0  0  0  0  0  0  0  0  0  0  0
  146.7015  137.9322  153.6321 C   0  0  1  0  0  0  0  0  0  0  0  0
  148.6810  142.4949  155.9547 H   0  0  0  0  0  0  0  0  0  0  0  0
  147.8089  141.2219  156.7419 H   0  0  0  0  0  0  0  0  0  0  0  0
  150.0124  143.3827  157.3697 H   0  0  0  0  0  0  0  0  0  0  0  0
  152.7425  141.0865  159.7671 H   0  0  0  0  0  0  0  0  0  0  0  0
  151.8044  139.0671  158.8704 H   0  0  0  0  0  0  0  0  0  0  0  0
  147.0158  139.9464  155.2114 H   0  0  0  0  0  0  0  0  0  0  0  0
  148.7559  138.4953  153.3539 H   0  0  0  0  0  0  0  0  0  0  0  0
  146.8509  140.6206  152.3641 H   0  0  0  0  0  0  0  0  0  0  0  0
  148.2896  139.9652  151.5924 H   0  0  0  0  0  0  0  0  0  0  0  0
  145.4912  139.0994  151.3350 H   0  0  0  0  0  0  0  0  0  0  0  0
  146.8677  138.4856  150.4143 H   0  0  0  0  0  0  0  0  0  0  0  0
  144.4250  137.0846  152.3864 H   0  0  0  0  0  0  0  0  0  0  0  0
  145.2388  136.2733  151.0577 H   0  0  0  0  0  0  0  0  0  0  0  0
  144.6826  134.6784  152.9458 H   0  0  0  0  0  0  0  0  0  0  0  0
  146.3905  134.7396  152.5893 H   0  0  0  0  0  0  0  0  0  0  0  0
  144.9732  136.1365  154.9062 H   0  0  0  0  0  0  0  0  0  0  0  0
  146.1100  134.8157  155.0294 H   0  0  0  0  0  0  0  0  0  0  0  0
  147.1669  137.0479  155.5610 H   0  0  0  0  0  0  0  0  0  0  0  0
  147.9524  136.2549  154.2121 H   0  0  0  0  0  0  0  0  0  0  0  0
  145.7815  138.4094  153.9783 H   0  0  0  0  0  0  0  0  0  0  0  0
  147.3273  136.9580  151.9949 H   0  0  0  0  0  0  0  0  0  0  0  0
  1  2  2  0  0  0  0
  2  3  1  0  0  0  0
  2 15  1  0  0  0  0
  3  4  1  0  0  0  0
  3 25  1  0  0  0  0
  3 26  1  0  0  0  0
  4 13  1  0  0  0  0
  4  5  1  0  0  0  0
  5  6  2  0  0  0  0
  5 27  1  0  0  0  0
  6  7  1  0  0  0  0
  6 11  1  0  0  0  0
  7  8  1  0  0  0  0
  7  9  1  0  0  0  0
  7 10  1  0  0  0  0
 11 12  2  0  0  0  0
 11 28  1  0  0  0  0
 12 13  1  0  0  0  0
 12 29  1  0  0  0  0
 13 14  2  0  0  0  0
 15 16  1  0  0  0  0
 15 30  1  0  0  0  0
 16 24  1  0  0  0  0
 16 17  1  0  0  0  0
 16 31  1  0  0  0  0
 17 18  1  0  0  0  0
 17 32  1  0  0  0  0
 17 33  1  0  0  0  0
 18 19  1  0  0  0  0
 18 34  1  0  0  0  0
 18 35  1  0  0  0  0
 19 24  1  0  0  0  0
 19 20  1  0  0  0  0
 19 45  1  0  0  0  0
 20 21  1  0  0  0  0
 20 36  1  0  0  0  0
 20 37  1  0  0  0  0
 21 22  1  0  0  0  0
 21 38  1  0  0  0  0
 21 39  1  0  0  0  0
 22 23  1  0  0  0  0
 22 40  1  0  0  0  0
 22 41  1  0  0  0  0
 23 24  1  0  0  0  0
 23 42  1  0  0  0  0
 23 43  1  0  0  0  0
 24 44  1  0  0  0  0
M  CHG  1  19   1
M  END
> <s_m_source_file>
AV-unprocessed.smi

> <i_m_source_file_index>
1976

> <i_lp_mmshare_version>
43012

> <i_f3d_flags>
0

> <s_epik_input>
W0NIMl0xW0NIMl1bQ0gyXVtDSDJdW0NASF0oTjEyKVtDQEBIXShbQ0gyXVtDSDJdMilbTkhdQyg9TylbQ0gyXW4zW2NIXWMoQyhGKShGKUYpW2NIXVtjSF1jMz1P

> <s_epik_cmdline>
J2VwaWtfcHl0aG9uJywgJy1waCcsICc3LjAnLCAnLXRuJywgJzgnLCAnLW1hJywgJzIwMCcsICctbWV0YWxfYmluZGluZycsICctaW1hZScsICc8aW5maWxlLm1hZT4nLCAnLW9tYWUnLCAnPG91dGZpbGUubWFlPic=

> <r_lp_tautomer_probability>
1

> <r_epik_Ionization_Penalty>
0.00171506

> <r_epik_Ionization_Penalty_Charging>
0.00171498

> <r_epik_Ionization_Penalty_Neutral>
7.81737e-08

> <r_epik_State_Penalty>
0.00115937

> <r_epik_Charging_Adjusted_Penalty>
0.00287436

> <i_epik_Tot_Q>
1

> <i_epik_Tot_abs_Q>
1

> <r_epik_Metal_State_Penalty>
-0

> <b_epik_Metal_Only>
0

> <s_lp_Force_Field>
OPLS_2005

> <r_lp_Energy>
45.9566

> <b_lp_Chiralities_Consistent>
1

> <s_lp_Variant>
AV-unprocessed.smi:1976-1

> <Gold.Version>
5.8.1

> <Gold.Id.Protein>
6NUR|6NUR_protein|mol2

> <Gold.PLP.Fitness>
50.5418

> <Gold.PLP.PLP>
-40.3007

> <Gold.PLP.part.hbond>
-2.0000

> <Gold.PLP.part.metal>
0.0000

> <Gold.PLP.part.buried>
-0.0020

> <Gold.PLP.part.nonpolar>
-40.0304

> <Gold.PLP.part.repulsive>
0.1914

> <Gold.PLP.ligand.clash>
0.0000

> <Gold.PLP.ligand.torsion>
0.6131

> <Gold.PLP.Chemscore.Hbond>
2.8000

> <Gold.PLP.Chemscore.CHOScore>
1.0000

> <Gold.PLP.Chemscore.Metal>
0.0000

> <Gold.Chemscore.Hbonds>
donor molecule, donor type, donor heavy atom, donor atom, acceptor molecule, acceptor atom, score
      L1  H    19    45       P1  7948  2.00
      P1  H  7989  7998       L1     1  0.80
      L1  C     5    27       P1  8028  1.00

> <Gold.PLP.Chemscore.Internal.Correction>
0.0672

> <Gold.Rescore>
     Score         DG    S(hbond)    S(metal)    S(lipo)     H(rot)  DE(clash)    DE(int)     intcor
     13.99     -17.73       1.83        0.00      87.07       1.58       1.75       2.00       ----

> <Gold.Chemscore.Fitness>
13.9855

> <Gold.Chemscore.DG>
-17.7314

> <Gold.Chemscore.ZeroCoef>
-5.4800

> <Gold.Chemscore.Hbond>
1.8314

> <Gold.Chemscore.Metal>
0.0000

> <Gold.Chemscore.Lipo>
87.0664

> <Gold.Chemscore.Internal_Hbond>
0.0000

> <Gold.Chemscore.DEClash>
1.7502

> <Gold.Chemscore.DEInternal>
1.9958

> <Gold.Chemscore.Rot>
1.5830

> <Gold.Chemscore.Internal.Correction>
   9.000000E+99

> <Gold.Chemscore.Hbonds>
donor molecule, donor type, donor heavy atom, donor atom, acceptor molecule, acceptor atom, score
      L1  H    19    45       P1  7948  1.00
      P1  H  7989  7998       L1     1  0.79

> <Gold.Chemscore.Hbond.Weighted>
-6.1170

> <Gold.Chemscore.Metal.Weighted>
-0.0000

> <Gold.Chemscore.Lipo.Weighted>
-10.1868

> <Gold.Chemscore.Internal_Hbond.Weighted>
0.0000

> <Gold.Chemscore.DEClash.Weighted>
1.7502

> <Gold.Chemscore.DEInternal.Weighted>
1.9958

> <Gold.Chemscore.Rot.Weighted>
4.0524

> <Gold.Chemscore.Internal.Correction.Weighted>
   9.000000E+99

> <Gold.Protein.RotatedTorsions>
[ 6907 6896 6895 6894 ] final  116.82 input  -60.11 | X-H torsion
[ 7974 7965 7964 7962 ] final  -48.07 input  175.53 | X-H torsion
[ 8008 7997 7996 7995 ] final -156.70 input   59.86 | X-H torsion
[ 10167 10162 10161 10158 ] final  -26.20 input  -65.29 | X-H torsion
[ 10718 10713 10712 10709 ] final -107.48 input   66.30 | X-H torsion
[ 10763 10752 10751 10750 ] final  164.34 input  -60.55 | X-H torsion
[ 11005 11000 10999 10996 ] final -158.49 input  -57.11 | X-H torsion

> <Gold.Protein.ActiveResidues>
 VAL166  LYS551  ARG553  GLY616  TRP617  ASP618  TYR619  PRO620  LYS621  CYS622 
 ASP623  PHE694  ASN695  SER759  ASP760  ASP761  ALA762  ILE779  LEU786  VAL792 
 PHE793  MET794  SER795  GLU796  ALA797  LYS798  CYS799  TRP800  GLU811  SER814 

> <Gold.Protein.RotatedAtoms>
  152.4653  133.7909  159.6901 H   0  0  0  0  0  0  0  0  0  0  0  0  # atno 6907 bound_to 6896
  150.8614  133.7628  159.2997 H   0  0  0  0  0  0  0  0  0  0  0  0  # atno 6908 bound_to 6896
  151.5192  135.1070  159.9926 H   0  0  0  0  0  0  0  0  0  0  0  0  # atno 6909 bound_to 6896
  145.9550  140.7535  142.9486 H   0  0  0  0  0  0  0  0  0  0  0  0  # atno 7974 bound_to 7965
  155.7212  140.0790  157.2330 H   0  0  0  0  0  0  0  0  0  0  0  0  # atno 8008 bound_to 7997
  154.4045  140.1612  156.2459 H   0  0  0  0  0  0  0  0  0  0  0  0  # atno 8009 bound_to 7997
  155.9194  140.3398  155.6164 H   0  0  0  0  0  0  0  0  0  0  0  0  # atno 8010 bound_to 7997
  140.7284  143.4199  151.0968 H   0  0  0  0  0  0  0  0  0  0  0  0  # atno 10167 bound_to 10162
  156.0438  130.5664  150.7827 H   0  0  0  0  0  0  0  0  0  0  0  0  # atno 10718 bound_to 10713
  154.3075  135.2758  155.2582 H   0  0  0  0  0  0  0  0  0  0  0  0  # atno 10763 bound_to 10752
  154.4992  135.5813  153.6521 H   0  0  0  0  0  0  0  0  0  0  0  0  # atno 10764 bound_to 10752
  152.9892  135.6153  154.3250 H   0  0  0  0  0  0  0  0  0  0  0  0  # atno 10765 bound_to 10752
  140.6531  134.4430  157.5235 H   0  0  0  0  0  0  0  0  0  0  0  0  # atno 11005 bound_to 11000
  144.6803  140.2497  143.7333 LP  0  0  0  0  0  0  0  0  0  0  0  0  # atno 17320 bound_to 7965
  145.8119  139.2007  143.1988 LP  0  0  0  0  0  0  0  0  0  0  0  0  # atno 17321 bound_to 7965
  139.7843  143.8310  152.3142 LP  0  0  0  0  0  0  0  0  0  0  0  0  # atno 17342 bound_to 10162
  139.8272  144.7270  150.9497 LP  0  0  0  0  0  0  0  0  0  0  0  0  # atno 17343 bound_to 10162
  157.5290  131.0935  150.9980 LP  0  0  0  0  0  0  0  0  0  0  0  0  # atno 17370 bound_to 10713
  157.0291  130.5704  149.5341 LP  0  0  0  0  0  0  0  0  0  0  0  0  # atno 17371 bound_to 10713
  139.9039  134.8493  156.1784 LP  0  0  0  0  0  0  0  0  0  0  0  0  # atno 17394 bound_to 11000
  141.0522  133.6883  156.1793 LP  0  0  0  0  0  0  0  0  0  0  0  0  # atno 17395 bound_to 11000

$$$$
