AV-unprocessed.smi:1295|AV-procd|sdf|5411|dock5
  -GOLD-   22720 4573D 1   1.00000     0.00000
 Structure written by MMmdl.
 42 43  0  0  0  0  0  0  0  0  2 V2000
  151.5800  138.0431  154.7324 C   0  0  0  0  0  0  0  0  0  0  0  0
  150.5061  137.7819  155.7665 C   0  0  0  0  0  0  0  0  0  0  0  0
  149.6267  138.6811  155.9954 N   0  0  0  0  0  0  0  0  0  0  0  0
  148.6286  138.4441  156.9555 C   0  0  0  0  0  0  0  0  0  0  0  0
  147.6132  139.5569  157.1466 C   0  0  0  0  0  0  0  0  0  0  0  0
  148.5856  137.2740  157.6545 C   0  0  0  0  0  0  0  0  0  0  0  0
  147.5079  136.9591  158.6946 C   0  0  0  0  0  0  0  0  0  0  0  0
  148.0065  136.3393  160.0026 C   0  0  0  0  0  0  0  0  0  0  0  0
  148.8747  136.9087  160.6633 O   0  0  0  0  0  0  0  0  0  0  0  0
  147.4450  135.1750  160.3605 N   0  0  0  0  0  0  0  0  0  0  0  0
  147.6926  134.4273  161.5903 C   0  0  2  0  0  0  0  0  0  0  0  0
  147.2312  132.9640  161.4311 C   0  0  0  0  0  0  0  0  0  0  0  0
  145.6995  132.8463  161.3428 C   0  0  0  0  0  0  0  0  0  0  0  0
  145.0201  133.5155  162.5466 C   0  0  0  0  0  0  0  0  0  0  0  0
  145.4579  134.9816  162.6937 C   0  0  0  0  0  0  0  0  0  0  0  0
  146.9929  135.1094  162.7924 C   0  0  2  0  0  0  0  0  0  0  0  0
  147.4246  136.5753  162.9780 C   0  0  0  0  0  0  0  0  0  0  0  0
  149.6134  136.2606  157.3556 C   0  0  0  0  0  0  0  0  0  0  0  0
  149.6035  135.1768  157.9380 O   0  0  0  0  0  0  0  0  0  0  0  0
  150.5471  136.5657  156.4105 N   0  5  0  0  0  0  0  0  0  0  0  0
  151.3776  138.9610  154.1788 H   0  0  0  0  0  0  0  0  0  0  0  0
  151.6304  137.2198  154.0190 H   0  0  0  0  0  0  0  0  0  0  0  0
  152.5521  138.1423  155.2163 H   0  0  0  0  0  0  0  0  0  0  0  0
  147.6656  139.9522  158.1612 H   0  0  0  0  0  0  0  0  0  0  0  0
  146.6030  139.1883  156.9678 H   0  0  0  0  0  0  0  0  0  0  0  0
  147.7949  140.3806  156.4555 H   0  0  0  0  0  0  0  0  0  0  0  0
  146.9300  137.8518  158.9351 H   0  0  0  0  0  0  0  0  0  0  0  0
  146.7860  136.2747  158.2484 H   0  0  0  0  0  0  0  0  0  0  0  0
  146.7501  134.7886  159.7372 H   0  0  0  0  0  0  0  0  0  0  0  0
  148.7655  134.4232  161.7904 H   0  0  0  0  0  0  0  0  0  0  0  0
  147.6917  132.5164  160.5496 H   0  0  0  0  0  0  0  0  0  0  0  0
  147.5841  132.3831  162.2839 H   0  0  0  0  0  0  0  0  0  0  0  0
  145.3458  133.3075  160.4198 H   0  0  0  0  0  0  0  0  0  0  0  0
  145.4113  131.7961  161.2908 H   0  0  0  0  0  0  0  0  0  0  0  0
  143.9365  133.4610  162.4386 H   0  0  0  0  0  0  0  0  0  0  0  0
  145.2685  132.9677  163.4565 H   0  0  0  0  0  0  0  0  0  0  0  0
  145.0882  135.5597  161.8452 H   0  0  0  0  0  0  0  0  0  0  0  0
  144.9918  135.4112  163.5809 H   0  0  0  0  0  0  0  0  0  0  0  0
  147.3046  134.5736  163.6903 H   0  0  0  0  0  0  0  0  0  0  0  0
  147.0997  137.2026  162.1469 H   0  0  0  0  0  0  0  0  0  0  0  0
  148.5092  136.6578  163.0525 H   0  0  0  0  0  0  0  0  0  0  0  0
  146.9987  136.9948  163.8897 H   0  0  0  0  0  0  0  0  0  0  0  0
  1  2  1  0  0  0  0
  1 21  1  0  0  0  0
  1 22  1  0  0  0  0
  1 23  1  0  0  0  0
  2 20  1  0  0  0  0
  2  3  2  0  0  0  0
  3  4  1  0  0  0  0
  4  5  1  0  0  0  0
  4  6  2  0  0  0  0
  5 24  1  0  0  0  0
  5 25  1  0  0  0  0
  5 26  1  0  0  0  0
  6  7  1  0  0  0  0
  6 18  1  0  0  0  0
  7  8  1  0  0  0  0
  7 27  1  0  0  0  0
  7 28  1  0  0  0  0
  8  9  2  0  0  0  0
  8 10  1  0  0  0  0
 10 11  1  0  0  0  0
 10 29  1  0  0  0  0
 11 16  1  0  0  0  0
 11 12  1  0  0  0  0
 11 30  1  0  0  0  0
 12 13  1  0  0  0  0
 12 31  1  0  0  0  0
 12 32  1  0  0  0  0
 13 14  1  0  0  0  0
 13 33  1  0  0  0  0
 13 34  1  0  0  0  0
 14 15  1  0  0  0  0
 14 35  1  0  0  0  0
 14 36  1  0  0  0  0
 15 16  1  0  0  0  0
 15 37  1  0  0  0  0
 15 38  1  0  0  0  0
 16 17  1  0  0  0  0
 16 39  1  0  0  0  0
 17 40  1  0  0  0  0
 17 41  1  0  0  0  0
 17 42  1  0  0  0  0
 18 19  2  0  0  0  0
 18 20  1  0  0  0  0
M  CHG  1  20  -1
M  END
> <s_m_source_file>
AV-unprocessed.smi

> <i_m_source_file_index>
1295

> <i_lp_mmshare_version>
43012

> <i_f3d_flags>
0

> <s_epik_input>
W0NIM11jMW5jKFtDSDNdKWMoYyg9TylbbkhdMSlbQ0gyXUMoPU8pW05IXVtDQEBIXTJbQ0gyXVtDSDJdW0NIMl1bQ0gyXVtDQEhdMltDSDNd

> <s_epik_cmdline>
J2VwaWtfcHl0aG9uJywgJy1waCcsICc3LjAnLCAnLXRuJywgJzgnLCAnLW1hJywgJzIwMCcsICctbWV0YWxfYmluZGluZycsICctaW1hZScsICc8aW5maWxlLm1hZT4nLCAnLW9tYWUnLCAnPG91dGZpbGUubWFlPic=

> <r_lp_tautomer_probability>
0.839158

> <r_epik_Ionization_Penalty>
6.67742

> <r_epik_Ionization_Penalty_Charging>
7.78154e-08

> <r_epik_Ionization_Penalty_Neutral>
6.67742

> <r_epik_State_Penalty>
4.51991

> <r_epik_Charging_Adjusted_Penalty>
4.51991

> <i_epik_Tot_Q>
-1

> <i_epik_Tot_abs_Q>
1

> <r_epik_Metal_State_Penalty>
0.853272

> <b_epik_Metal_Only>
1

> <s_lp_Force_Field>
OPLS_2005

> <r_lp_Energy>
12.2009

> <b_lp_Chiralities_Consistent>
1

> <s_lp_Variant>
AV-unprocessed.smi:1295-11

> <Gold.Version>
5.8.1

> <Gold.Id.Protein>
6NUR|6NUR_protein|mol2

> <Gold.PLP.Fitness>
36.1501

> <Gold.PLP.PLP>
-31.5316

> <Gold.PLP.part.hbond>
-2.0000

> <Gold.PLP.part.metal>
0.0000

> <Gold.PLP.part.buried>
-5.4119

> <Gold.PLP.part.nonpolar>
-24.6041

> <Gold.PLP.part.repulsive>
0.0795

> <Gold.PLP.ligand.clash>
0.0000

> <Gold.PLP.ligand.torsion>
0.4192

> <Gold.PLP.Chemscore.Hbond>
1.8160

> <Gold.PLP.Chemscore.CHOScore>
0.0000

> <Gold.PLP.Chemscore.Metal>
0.0000

> <Gold.Chemscore.Hbonds>
donor molecule, donor type, donor heavy atom, donor atom, acceptor molecule, acceptor atom, score
      P1  H  6896  6908       L1    19  1.00
      P1  H  6931  6943       L1     9  0.83

> <Gold.PLP.Chemscore.Internal.Correction>
0.0089

> <Gold.Rescore>
     Score         DG    S(hbond)    S(metal)    S(lipo)     H(rot)  DE(clash)    DE(int)     intcor
     13.44     -15.70       1.84        0.00      66.45       1.45       0.19       2.07       ----

> <Gold.Chemscore.Fitness>
13.4391

> <Gold.Chemscore.DG>
-15.7017

> <Gold.Chemscore.ZeroCoef>
-5.4800

> <Gold.Chemscore.Hbond>
1.8404

> <Gold.Chemscore.Metal>
0.0000

> <Gold.Chemscore.Lipo>
66.4455

> <Gold.Chemscore.Internal_Hbond>
0.0000

> <Gold.Chemscore.DEClash>
0.1898

> <Gold.Chemscore.DEInternal>
2.0727

> <Gold.Chemscore.Rot>
1.4450

> <Gold.Chemscore.Internal.Correction>
   9.000000E+99

> <Gold.Chemscore.Hbonds>
donor molecule, donor type, donor heavy atom, donor atom, acceptor molecule, acceptor atom, score
      P1  H  6896  6908       L1    19  0.91
      P1  H  6931  6943       L1     9  0.81

> <Gold.Chemscore.Hbond.Weighted>
-6.1468

> <Gold.Chemscore.Metal.Weighted>
-0.0000

> <Gold.Chemscore.Lipo.Weighted>
-7.7741

> <Gold.Chemscore.Internal_Hbond.Weighted>
0.0000

> <Gold.Chemscore.DEClash.Weighted>
0.1898

> <Gold.Chemscore.DEInternal.Weighted>
2.0727

> <Gold.Chemscore.Rot.Weighted>
3.6992

> <Gold.Chemscore.Internal.Correction.Weighted>
   9.000000E+99

> <Gold.Protein.RotatedTorsions>
[ 6907 6896 6895 6894 ] final  149.05 input  -60.11 | X-H torsion
[ 7974 7965 7964 7962 ] final   90.27 input  175.53 | X-H torsion
[ 8008 7997 7996 7995 ] final  -22.19 input   59.86 | X-H torsion
[ 10167 10162 10161 10158 ] final  -45.48 input  -65.29 | X-H torsion
[ 10718 10713 10712 10709 ] final  -63.74 input   66.30 | X-H torsion
[ 10763 10752 10751 10750 ] final  -66.66 input  -60.55 | X-H torsion
[ 11005 11000 10999 10996 ] final -119.79 input  -57.11 | X-H torsion

> <Gold.Protein.ActiveResidues>
 VAL166  LYS551  ARG553  GLY616  TRP617  ASP618  TYR619  PRO620  LYS621  CYS622 
 ASP623  PHE694  ASN695  SER759  ASP760  ASP761  ALA762  ILE779  LEU786  VAL792 
 PHE793  MET794  SER795  GLU796  ALA797  LYS798  CYS799  TRP800  GLU811  SER814 

> <Gold.Protein.RotatedAtoms>
  152.1333  133.4420  159.4730 H   0  0  0  0  0  0  0  0  0  0  0  0  # atno 6907 bound_to 6896
  150.6880  134.2394  159.4475 H   0  0  0  0  0  0  0  0  0  0  0  0  # atno 6908 bound_to 6896
  152.0280  134.9784  160.0622 H   0  0  0  0  0  0  0  0  0  0  0  0  # atno 6909 bound_to 6896
  145.5212  139.2279  143.2670 H   0  0  0  0  0  0  0  0  0  0  0  0  # atno 7974 bound_to 7965
  154.4659  140.2014  156.0119 H   0  0  0  0  0  0  0  0  0  0  0  0  # atno 8008 bound_to 7997
  156.0926  140.3256  155.7807 H   0  0  0  0  0  0  0  0  0  0  0  0  # atno 8009 bound_to 7997
  155.4931  140.0548  157.2941 H   0  0  0  0  0  0  0  0  0  0  0  0  # atno 8010 bound_to 7997
  140.6856  143.2877  151.3645 H   0  0  0  0  0  0  0  0  0  0  0  0  # atno 10167 bound_to 10162
  156.0772  130.4224  150.1320 H   0  0  0  0  0  0  0  0  0  0  0  0  # atno 10718 bound_to 10713
  154.3630  135.6112  153.5700 H   0  0  0  0  0  0  0  0  0  0  0  0  # atno 10763 bound_to 10752
  152.9793  135.5820  154.4610 H   0  0  0  0  0  0  0  0  0  0  0  0  # atno 10764 bound_to 10752
  154.4351  135.2849  155.1863 H   0  0  0  0  0  0  0  0  0  0  0  0  # atno 10765 bound_to 10752
  141.0190  134.0152  157.3309 H   0  0  0  0  0  0  0  0  0  0  0  0  # atno 11005 bound_to 11000
  146.2105  140.6024  142.9062 LP  0  0  0  0  0  0  0  0  0  0  0  0  # atno 17320 bound_to 7965
  144.7675  140.5563  143.6693 LP  0  0  0  0  0  0  0  0  0  0  0  0  # atno 17321 bound_to 7965
  139.6212  144.0903  152.2393 LP  0  0  0  0  0  0  0  0  0  0  0  0  # atno 17342 bound_to 10162
  140.0348  144.6053  150.7459 LP  0  0  0  0  0  0  0  0  0  0  0  0  # atno 17343 bound_to 10162
  156.9359  130.9729  151.3525 LP  0  0  0  0  0  0  0  0  0  0  0  0  # atno 17370 bound_to 10713
  157.5873  130.8418  149.8608 LP  0  0  0  0  0  0  0  0  0  0  0  0  # atno 17371 bound_to 10713
  139.9134  135.0193  156.7785 LP  0  0  0  0  0  0  0  0  0  0  0  0  # atno 17394 bound_to 11000
  140.6606  133.9649  155.7802 LP  0  0  0  0  0  0  0  0  0  0  0  0  # atno 17395 bound_to 11000

$$$$
