AV-unprocessed.smi:100|AV-procd|sdf|904|dock1
  -GOLD-   2262017403D 1   1.00000     0.00000
 Structure written by MMmdl.
 31 33  0  0  0  0  0  0  0  0  1 V2000
  147.9546  140.7797  152.9034 N   0  0  0  0  0  0  0  0  0  0  0  0
  148.0160  141.1492  154.1902 C   0  0  0  0  0  0  0  0  0  0  0  0
  146.9255  141.7278  154.7446 N   0  0  0  0  0  0  0  0  0  0  0  0
  146.9618  142.1068  156.0261 C   0  0  0  0  0  0  0  0  0  0  0  0
  147.9659  141.9999  156.9003 N   0  0  0  0  0  0  0  0  0  0  0  0
  149.0663  141.4166  156.3405 C   0  0  0  0  0  0  0  0  0  0  0  0
  149.1681  140.9632  154.9955 C   0  0  0  0  0  0  0  0  0  0  0  0
  150.4256  140.4195  154.7727 N   0  0  0  0  0  0  0  0  0  0  0  0
  151.0303  140.5470  155.9230 C   0  0  0  0  0  0  0  0  0  0  0  0
  150.2881  141.1365  156.9233 N   0  0  0  0  0  0  0  0  0  0  0  0
  150.7251  141.4078  158.3331 C   0  0  1  0  0  0  0  0  0  0  0  0
  152.0415  140.9667  158.5107 O   0  0  0  0  0  0  0  0  0  0  0  0
  152.8798  142.0540  158.8995 C   0  0  2  0  0  0  0  0  0  0  0  0
  154.0204  141.5389  159.7894 C   0  0  0  0  0  0  0  0  0  0  0  0
  154.5087  140.3058  159.3061 O   0  0  0  0  0  0  0  0  0  0  0  0
  151.9065  143.0107  159.5872 C   0  0  1  0  0  0  0  0  0  0  0  0
  152.3548  144.2616  159.7068 F   0  0  0  0  0  0  0  0  0  0  0  0
  150.6736  142.9023  158.7089 C   0  0  1  0  0  0  0  0  0  0  0  0
  150.7444  143.7724  157.5911 O   0  0  0  0  0  0  0  0  0  0  0  0
  148.7550  140.3463  152.4654 H   0  0  0  0  0  0  0  0  0  0  0  0
  147.1102  140.9395  152.3734 H   0  0  0  0  0  0  0  0  0  0  0  0
  146.0586  142.5610  156.4057 H   0  0  0  0  0  0  0  0  0  0  0  0
  152.0454  140.2101  156.0754 H   0  0  0  0  0  0  0  0  0  0  0  0
  150.0672  140.7943  158.9503 H   0  0  0  0  0  0  0  0  0  0  0  0
  153.2836  142.5166  157.9978 H   0  0  0  0  0  0  0  0  0  0  0  0
  154.8352  142.2613  159.8409 H   0  0  0  0  0  0  0  0  0  0  0  0
  153.6586  141.3873  160.8067 H   0  0  0  0  0  0  0  0  0  0  0  0
  154.0502  139.6066  159.7467 H   0  0  0  0  0  0  0  0  0  0  0  0
  151.6762  142.6549  160.5924 H   0  0  0  0  0  0  0  0  0  0  0  0
  149.7567  143.1150  159.2592 H   0  0  0  0  0  0  0  0  0  0  0  0
  149.8745  143.8780  157.2373 H   0  0  0  0  0  0  0  0  0  0  0  0
  1  2  1  0  0  0  0
  1 20  1  0  0  0  0
  1 21  1  0  0  0  0
  2  7  1  0  0  0  0
  2  3  2  0  0  0  0
  3  4  1  0  0  0  0
  4  5  2  0  0  0  0
  4 22  1  0  0  0  0
  5  6  1  0  0  0  0
  6 10  1  0  0  0  0
  6  7  2  0  0  0  0
  7  8  1  0  0  0  0
  8  9  2  0  0  0  0
  9 10  1  0  0  0  0
  9 23  1  0  0  0  0
 10 11  1  0  0  0  0
 11 18  1  0  0  0  0
 11 12  1  0  0  0  0
 11 24  1  0  0  0  0
 12 13  1  0  0  0  0
 13 14  1  0  0  0  0
 13 16  1  0  0  0  0
 13 25  1  0  0  0  0
 14 15  1  0  0  0  0
 14 26  1  0  0  0  0
 14 27  1  0  0  0  0
 15 28  1  0  0  0  0
 16 17  1  0  0  0  0
 16 18  1  0  0  0  0
 16 29  1  0  0  0  0
 18 19  1  0  0  0  0
 18 30  1  0  0  0  0
 19 31  1  0  0  0  0
M  END
> <s_m_source_file>
AV-unprocessed.smi

> <i_m_source_file_index>
100

> <i_lp_mmshare_version>
43012

> <i_f3d_flags>
0

> <s_epik_input>
bjFbY0hdbmMoW05IMl0pYyhjMTIpbltjSF1uMltDQEBIXTNPW0NAQEhdKFtDSDJdW09IXSlbQ0BIXShGKVtDQEhdM1tPSF0=

> <s_epik_cmdline>
J2VwaWtfcHl0aG9uJywgJy1waCcsICc3LjAnLCAnLXRuJywgJzgnLCAnLW1hJywgJzIwMCcsICctbWV0YWxfYmluZGluZycsICctaW1hZScsICc8aW5maWxlLm1hZT4nLCAnLW9tYWUnLCAnPG91dGZpbGUubWFlPic=

> <r_lp_tautomer_probability>
1

> <r_epik_Ionization_Penalty>
0.000750324

> <r_epik_Ionization_Penalty_Charging>
0

> <r_epik_Ionization_Penalty_Neutral>
0.000750324

> <r_epik_State_Penalty>
-0

> <r_epik_Charging_Adjusted_Penalty>
0

> <i_epik_Tot_Q>
0

> <i_epik_Tot_abs_Q>
0

> <r_epik_Metal_State_Penalty>
-0

> <b_epik_Metal_Only>
0

> <s_epik_Chemistry_Notes>
This compound contains an acetal/aminal-like group ( X-CH(R)-Y where X, Y are N, S, or O) that may be acid/base labile, releasing an aldehyde.

> <s_lp_Force_Field>
OPLS_2005

> <r_lp_Energy>
38.5283

> <b_lp_Chiralities_Consistent>
1

> <s_lp_Variant>
AV-unprocessed.smi:100-8

> <Gold.Version>
5.8.1

> <Gold.Id.Protein>
6NUR|6NUR_protein|mol2

> <Gold.PLP.Fitness>
43.9454

> <Gold.PLP.PLP>
-33.5163

> <Gold.PLP.part.hbond>
-3.7795

> <Gold.PLP.part.metal>
0.0000

> <Gold.PLP.part.buried>
-4.5036

> <Gold.PLP.part.nonpolar>
-25.1882

> <Gold.PLP.part.repulsive>
0.5141

> <Gold.PLP.ligand.clash>
0.0000

> <Gold.PLP.ligand.torsion>
0.2292

> <Gold.PLP.Chemscore.Hbond>
3.6273

> <Gold.PLP.Chemscore.CHOScore>
0.0000

> <Gold.PLP.Chemscore.Metal>
0.0000

> <Gold.Chemscore.Hbonds>
donor molecule, donor type, donor heavy atom, donor atom, acceptor molecule, acceptor atom, score
      L1  H     1    20       P1  7957  0.98
      L1  H    19    31       P1  8028  0.82
      P1  H  7989  7998       L1     8  1.00
      P1  H  7997  8008       L1    15  0.80

> <Gold.PLP.Chemscore.Internal.Correction>
0.0056

> <Gold.Rescore>
     Score         DG    S(hbond)    S(metal)    S(lipo)     H(rot)  DE(clash)    DE(int)     intcor
     11.82     -12.02       2.85        0.00      44.31       3.19       0.04       0.16       ----

> <Gold.Chemscore.Fitness>
11.8163

> <Gold.Chemscore.DG>
-12.0247

> <Gold.Chemscore.ZeroCoef>
-5.4800

> <Gold.Chemscore.Hbond>
2.8524

> <Gold.Chemscore.Metal>
0.0000

> <Gold.Chemscore.Lipo>
44.3095

> <Gold.Chemscore.Internal_Hbond>
0.0000

> <Gold.Chemscore.DEClash>
0.0441

> <Gold.Chemscore.DEInternal>
0.1643

> <Gold.Chemscore.Rot>
3.1901

> <Gold.Chemscore.Internal.Correction>
   9.000000E+99

> <Gold.Chemscore.Hbonds>
donor molecule, donor type, donor heavy atom, donor atom, acceptor molecule, acceptor atom, score
      L1  H     1    20       P1  7957  0.91
      L1  H    19    31       P1  8028  0.62
      P1  H  7989  7998       L1     8  0.58
      P1  H  7997  8008       L1    15  0.72

> <Gold.Chemscore.Hbond.Weighted>
-9.5272

> <Gold.Chemscore.Metal.Weighted>
-0.0000

> <Gold.Chemscore.Lipo.Weighted>
-5.1842

> <Gold.Chemscore.Internal_Hbond.Weighted>
0.0000

> <Gold.Chemscore.DEClash.Weighted>
0.0441

> <Gold.Chemscore.DEInternal.Weighted>
0.1643

> <Gold.Chemscore.Rot.Weighted>
8.1667

> <Gold.Chemscore.Internal.Correction.Weighted>
   9.000000E+99

> <Gold.Protein.RotatedTorsions>
[ 6907 6896 6895 6894 ] final  173.50 input  -60.11 | X-H torsion
[ 7974 7965 7964 7962 ] final  133.01 input  175.53 | X-H torsion
[ 8008 7997 7996 7995 ] final -117.90 input   59.86 | X-H torsion
[ 10167 10162 10161 10158 ] final -169.53 input  -65.29 | X-H torsion
[ 10718 10713 10712 10709 ] final   33.02 input   66.30 | X-H torsion
[ 10763 10752 10751 10750 ] final   73.97 input  -60.55 | X-H torsion
[ 11005 11000 10999 10996 ] final  132.33 input  -57.11 | X-H torsion

> <Gold.Protein.ActiveResidues>
 VAL166  LYS551  ARG553  GLY616  TRP617  ASP618  TYR619  PRO620  LYS621  CYS622 
 ASP623  PHE694  ASN695  SER759  ASP760  ASP761  ALA762  ILE779  LEU786  VAL792 
 PHE793  MET794  SER795  GLU796  ALA797  LYS798  CYS799  TRP800  GLU811  SER814 

> <Gold.Protein.RotatedAtoms>
  151.7673  133.3338  159.3434 H   0  0  0  0  0  0  0  0  0  0  0  0  # atno 6907 bound_to 6896
  150.7475  134.6051  159.6066 H   0  0  0  0  0  0  0  0  0  0  0  0  # atno 6908 bound_to 6896
  152.3365  134.7193  160.0327 H   0  0  0  0  0  0  0  0  0  0  0  0  # atno 6909 bound_to 6896
  144.9909  139.4407  143.5340 H   0  0  0  0  0  0  0  0  0  0  0  0  # atno 7974 bound_to 7965
  155.0911  140.0395  157.2669 H   0  0  0  0  0  0  0  0  0  0  0  0  # atno 8008 bound_to 7997
  154.6831  140.2637  155.6863 H   0  0  0  0  0  0  0  0  0  0  0  0  # atno 8009 bound_to 7997
  156.2702  140.2774  156.1383 H   0  0  0  0  0  0  0  0  0  0  0  0  # atno 8010 bound_to 7997
  139.5917  144.1199  152.1642 H   0  0  0  0  0  0  0  0  0  0  0  0  # atno 10167 bound_to 10162
  157.2926  130.7310  149.6620 H   0  0  0  0  0  0  0  0  0  0  0  0  # atno 10718 bound_to 10713
  153.0556  135.5043  154.7972 H   0  0  0  0  0  0  0  0  0  0  0  0  # atno 10763 bound_to 10752
  154.6801  135.2967  154.9627 H   0  0  0  0  0  0  0  0  0  0  0  0  # atno 10764 bound_to 10752
  154.0416  135.6716  153.4843 H   0  0  0  0  0  0  0  0  0  0  0  0  # atno 10765 bound_to 10752
  139.9783  134.9556  156.9566 H   0  0  0  0  0  0  0  0  0  0  0  0  # atno 11005 bound_to 11000
  146.3431  139.9240  142.8762 LP  0  0  0  0  0  0  0  0  0  0  0  0  # atno 17320 bound_to 7965
  145.2287  140.9964  143.4003 LP  0  0  0  0  0  0  0  0  0  0  0  0  # atno 17321 bound_to 7965
  140.0775  144.5728  150.7146 LP  0  0  0  0  0  0  0  0  0  0  0  0  # atno 17342 bound_to 10162
  140.7178  143.2561  151.4376 LP  0  0  0  0  0  0  0  0  0  0  0  0  # atno 17343 bound_to 10162
  155.9668  130.4304  150.4875 LP  0  0  0  0  0  0  0  0  0  0  0  0  # atno 17370 bound_to 10713
  157.2840  131.0613  151.2178 LP  0  0  0  0  0  0  0  0  0  0  0  0  # atno 17371 bound_to 10713
  140.5148  134.0966  155.7278 LP  0  0  0  0  0  0  0  0  0  0  0  0  # atno 17394 bound_to 11000
  141.1458  133.9057  157.2218 LP  0  0  0  0  0  0  0  0  0  0  0  0  # atno 17395 bound_to 11000

$$$$
