AV-unprocessed.smi:1667|AV-procd|sdf|6677|dock5
  -GOLD-   22720 7393D 1   1.00000     0.00000
 Structure written by MMmdl.
 46 48  0  0  0  0  0  0  0  0  2 V2000
  150.2462  134.4275  155.2921 C   0  0  0  0  0  0  0  0  0  0  0  0
  150.2819  135.9238  155.5821 C   0  0  0  0  0  0  0  0  0  0  0  0
  149.3985  136.4431  156.2635 O   0  0  0  0  0  0  0  0  0  0  0  0
  151.3086  136.6073  155.0532 N   0  0  0  0  0  0  0  0  0  0  0  0
  151.5297  138.0415  155.2120 C   0  0  1  0  0  0  0  0  0  0  0  0
  152.8123  138.4558  154.4774 C   0  0  0  0  0  0  0  0  0  0  0  0
  150.3592  138.8463  154.7274 C   0  0  0  0  0  0  0  0  0  0  0  0
  149.3967  138.4133  153.8638 N   0  3  0  0  0  0  0  0  0  0  0  0
  148.4717  139.4311  153.6351 C   0  0  0  0  0  0  0  0  0  0  0  0
  147.3362  139.4631  152.8317 C   0  0  0  0  0  0  0  0  0  0  0  0
  146.6076  140.6701  152.8138 C   0  0  0  0  0  0  0  0  0  0  0  0
  147.0147  141.7838  153.5762 C   0  0  0  0  0  0  0  0  0  0  0  0
  148.1655  141.7374  154.3901 C   0  0  0  0  0  0  0  0  0  0  0  0
  148.8826  140.5404  154.4023 C   0  0  0  0  0  0  0  0  0  0  0  0
  150.0494  140.1329  155.0626 N   0  0  0  0  0  0  0  0  0  0  0  0
  150.7485  141.0738  155.9541 C   0  0  0  0  0  0  0  0  0  0  0  0
  150.5998  140.6941  157.4409 C   0  0  2  0  0  0  0  0  0  0  0  0
  149.2275  140.7351  157.7717 O   0  0  0  0  0  0  0  0  0  0  0  0
  151.4430  141.5760  158.3513 C   0  0  0  0  0  0  0  0  0  0  0  0
  152.3813  141.0084  159.2418 C   0  0  0  0  0  0  0  0  0  0  0  0
  153.1357  141.8336  160.0981 C   0  0  0  0  0  0  0  0  0  0  0  0
  152.9553  143.2298  160.0710 C   0  0  0  0  0  0  0  0  0  0  0  0
  152.0198  143.8009  159.1872 C   0  0  0  0  0  0  0  0  0  0  0  0
  151.8407  145.1427  159.1643 F   0  0  0  0  0  0  0  0  0  0  0  0
  151.2673  142.9765  158.3290 C   0  0  0  0  0  0  0  0  0  0  0  0
  151.6815  138.2407  156.2732 H   0  0  0  0  0  0  0  0  0  0  0  0
  150.1623  134.2498  154.2196 H   0  0  0  0  0  0  0  0  0  0  0  0
  149.3936  133.9573  155.7833 H   0  0  0  0  0  0  0  0  0  0  0  0
  151.1554  133.9462  155.6534 H   0  0  0  0  0  0  0  0  0  0  0  0
  151.9901  136.0960  154.5111 H   0  0  0  0  0  0  0  0  0  0  0  0
  153.0155  139.5182  154.6163 H   0  0  0  0  0  0  0  0  0  0  0  0
  152.7402  138.2683  153.4054 H   0  0  0  0  0  0  0  0  0  0  0  0
  153.6748  137.9047  154.8536 H   0  0  0  0  0  0  0  0  0  0  0  0
  147.0239  138.6113  152.2455 H   0  0  0  0  0  0  0  0  0  0  0  0
  145.7198  140.7434  152.2024 H   0  0  0  0  0  0  0  0  0  0  0  0
  146.4332  142.6933  153.5361 H   0  0  0  0  0  0  0  0  0  0  0  0
  148.4659  142.6009  154.9641 H   0  0  0  0  0  0  0  0  0  0  0  0
  151.7963  141.1507  155.6652 H   0  0  0  0  0  0  0  0  0  0  0  0
  150.3201  142.0606  155.7748 H   0  0  0  0  0  0  0  0  0  0  0  0
  150.9152  139.6588  157.5759 H   0  0  0  0  0  0  0  0  0  0  0  0
  149.1437  141.0016  158.6746 H   0  0  0  0  0  0  0  0  0  0  0  0
  152.5200  139.9376  159.2776 H   0  0  0  0  0  0  0  0  0  0  0  0
  153.8512  141.3950  160.7778 H   0  0  0  0  0  0  0  0  0  0  0  0
  153.5333  143.8620  160.7290 H   0  0  0  0  0  0  0  0  0  0  0  0
  150.5462  143.4221  157.6595 H   0  0  0  0  0  0  0  0  0  0  0  0
  149.3797  137.4861  153.4592 H   0  0  0  0  0  0  0  0  0  0  0  0
  1  2  1  0  0  0  0
  1 27  1  0  0  0  0
  1 28  1  0  0  0  0
  1 29  1  0  0  0  0
  2  3  2  0  0  0  0
  2  4  1  0  0  0  0
  4  5  1  0  0  0  0
  4 30  1  0  0  0  0
  5 26  1  0  0  0  0
  5  6  1  0  0  0  0
  5  7  1  0  0  0  0
  6 31  1  0  0  0  0
  6 32  1  0  0  0  0
  6 33  1  0  0  0  0
  7 15  1  0  0  0  0
  7  8  2  0  0  0  0
  8  9  1  0  0  0  0
  8 46  1  0  0  0  0
  9 14  2  0  0  0  0
  9 10  1  0  0  0  0
 10 11  2  0  0  0  0
 10 34  1  0  0  0  0
 11 12  1  0  0  0  0
 11 35  1  0  0  0  0
 12 13  2  0  0  0  0
 12 36  1  0  0  0  0
 13 14  1  0  0  0  0
 13 37  1  0  0  0  0
 14 15  1  0  0  0  0
 15 16  1  0  0  0  0
 16 17  1  0  0  0  0
 16 38  1  0  0  0  0
 16 39  1  0  0  0  0
 17 18  1  0  0  0  0
 17 19  1  0  0  0  0
 17 40  1  0  0  0  0
 18 41  1  0  0  0  0
 19 25  1  0  0  0  0
 19 20  2  0  0  0  0
 20 21  1  0  0  0  0
 20 42  1  0  0  0  0
 21 22  2  0  0  0  0
 21 43  1  0  0  0  0
 22 23  1  0  0  0  0
 22 44  1  0  0  0  0
 23 24  1  0  0  0  0
 23 25  2  0  0  0  0
 25 45  1  0  0  0  0
M  CHG  1   8   1
M  END
> <s_m_source_file>
AV-unprocessed.smi

> <i_m_source_file_index>
1667

> <i_lp_mmshare_version>
43012

> <i_f3d_flags>
0

> <s_epik_input>
W0NIM11DKD1PKVtOSF1bQ0BASF0oW0NIM10pYyhuMSluKGMoYzEyKVtjSF1bY0hdW2NIXVtjSF0yKVtDSDJdW0NASF0oW09IXSljM1tjSF1bY0hdW2NIXWMoRilbY0hdMw==

> <s_epik_cmdline>
J2VwaWtfcHl0aG9uJywgJy1waCcsICc3LjAnLCAnLXRuJywgJzgnLCAnLW1hJywgJzIwMCcsICctbWV0YWxfYmluZGluZycsICctaW1hZScsICc8aW5maWxlLm1hZT4nLCAnLW9tYWUnLCAnPG91dGZpbGUubWFlPic=

> <r_epik_Ionization_Penalty>
0.950383

> <r_epik_Ionization_Penalty_Charging>
0.950379

> <r_epik_Ionization_Penalty_Neutral>
3.60962e-06

> <r_epik_State_Penalty>
0.994584

> <r_epik_Charging_Adjusted_Penalty>
1.94496

> <i_epik_Tot_Q>
1

> <i_epik_Tot_abs_Q>
1

> <r_epik_Metal_State_Penalty>
1.10485

> <b_epik_Metal_Only>
0

> <s_lp_Force_Field>
OPLS_2005

> <r_lp_Energy>
12.0521

> <b_lp_Chiralities_Consistent>
1

> <s_lp_Variant>
AV-unprocessed.smi:1667-5

> <Gold.Version>
5.8.1

> <Gold.Id.Protein>
6NUR|6NUR_protein|mol2

> <Gold.PLP.Fitness>
57.8587

> <Gold.PLP.PLP>
-53.2160

> <Gold.PLP.part.hbond>
-1.6130

> <Gold.PLP.part.metal>
0.0000

> <Gold.PLP.part.buried>
-0.9488

> <Gold.PLP.part.nonpolar>
-52.8652

> <Gold.PLP.part.repulsive>
1.3920

> <Gold.PLP.ligand.clash>
0.0000

> <Gold.PLP.ligand.torsion>
0.7114

> <Gold.PLP.Chemscore.Hbond>
2.0000

> <Gold.PLP.Chemscore.CHOScore>
0.0000

> <Gold.PLP.Chemscore.Metal>
0.0000

> <Gold.Chemscore.Hbonds>
donor molecule, donor type, donor heavy atom, donor atom, acceptor molecule, acceptor atom, score
      L1  H     8    46       P1  7948  1.90

> <Gold.PLP.Chemscore.Internal.Correction>
0.0655

> <Gold.Rescore>
     Score         DG    S(hbond)    S(metal)    S(lipo)     H(rot)  DE(clash)    DE(int)     intcor
     15.03     -17.83       0.87        0.00     136.00       2.53       2.20       0.59       ----

> <Gold.Chemscore.Fitness>
15.0292

> <Gold.Chemscore.DG>
-17.8284

> <Gold.Chemscore.ZeroCoef>
-5.4800

> <Gold.Chemscore.Hbond>
0.8750

> <Gold.Chemscore.Metal>
0.0000

> <Gold.Chemscore.Lipo>
135.9969

> <Gold.Chemscore.Internal_Hbond>
0.0000

> <Gold.Chemscore.DEClash>
2.2045

> <Gold.Chemscore.DEInternal>
0.5947

> <Gold.Chemscore.Rot>
2.5335

> <Gold.Chemscore.Internal.Correction>
   9.000000E+99

> <Gold.Chemscore.Hbonds>
donor molecule, donor type, donor heavy atom, donor atom, acceptor molecule, acceptor atom, score
      L1  H     8    46       P1  7948  0.83

> <Gold.Chemscore.Hbond.Weighted>
-2.9224

> <Gold.Chemscore.Metal.Weighted>
-0.0000

> <Gold.Chemscore.Lipo.Weighted>
-15.9116

> <Gold.Chemscore.Internal_Hbond.Weighted>
0.0000

> <Gold.Chemscore.DEClash.Weighted>
2.2045

> <Gold.Chemscore.DEInternal.Weighted>
0.5947

> <Gold.Chemscore.Rot.Weighted>
6.4856

> <Gold.Chemscore.Internal.Correction.Weighted>
   9.000000E+99

> <Gold.Protein.RotatedTorsions>
[ 6907 6896 6895 6894 ] final   44.02 input  -60.11 | X-H torsion
[ 7974 7965 7964 7962 ] final   35.90 input  175.53 | X-H torsion
[ 8008 7997 7996 7995 ] final   46.27 input   59.86 | X-H torsion
[ 10167 10162 10161 10158 ] final  -86.09 input  -65.29 | X-H torsion
[ 10718 10713 10712 10709 ] final  136.24 input   66.30 | X-H torsion
[ 10763 10752 10751 10750 ] final  -15.50 input  -60.55 | X-H torsion
[ 11005 11000 10999 10996 ] final   40.09 input  -57.11 | X-H torsion

> <Gold.Protein.ActiveResidues>
 VAL166  LYS551  ARG553  GLY616  TRP617  ASP618  TYR619  PRO620  LYS621  CYS622 
 ASP623  PHE694  ASN695  SER759  ASP760  ASP761  ALA762  ILE779  LEU786  VAL792 
 PHE793  MET794  SER795  GLU796  ALA797  LYS798  CYS799  TRP800  GLU811  SER814 

> <Gold.Protein.RotatedAtoms>
  152.2274  134.8355  160.0477 H   0  0  0  0  0  0  0  0  0  0  0  0  # atno 6907 bound_to 6896
  151.9116  133.3557  159.3874 H   0  0  0  0  0  0  0  0  0  0  0  0  # atno 6908 bound_to 6896
  150.7016  134.4651  159.5443 H   0  0  0  0  0  0  0  0  0  0  0  0  # atno 6909 bound_to 6896
  146.1250  139.6085  142.9264 H   0  0  0  0  0  0  0  0  0  0  0  0  # atno 7974 bound_to 7965
  155.3496  140.3413  155.4239 H   0  0  0  0  0  0  0  0  0  0  0  0  # atno 8008 bound_to 7997
  156.1771  140.1651  156.8379 H   0  0  0  0  0  0  0  0  0  0  0  0  # atno 8009 bound_to 7997
  154.5293  140.0749  156.8299 H   0  0  0  0  0  0  0  0  0  0  0  0  # atno 8010 bound_to 7997
  140.3975  143.2677  151.9185 H   0  0  0  0  0  0  0  0  0  0  0  0  # atno 10167 bound_to 10162
  157.4487  131.1064  151.0059 H   0  0  0  0  0  0  0  0  0  0  0  0  # atno 10718 bound_to 10713
  153.5443  135.7012  153.5621 H   0  0  0  0  0  0  0  0  0  0  0  0  # atno 10763 bound_to 10752
  153.3573  135.3979  155.1692 H   0  0  0  0  0  0  0  0  0  0  0  0  # atno 10764 bound_to 10752
  154.8669  135.3780  154.4950 H   0  0  0  0  0  0  0  0  0  0  0  0  # atno 10765 bound_to 10752
  140.1965  134.3923  155.8119 H   0  0  0  0  0  0  0  0  0  0  0  0  # atno 11005 bound_to 11000
  145.5384  141.0422  143.2344 LP  0  0  0  0  0  0  0  0  0  0  0  0  # atno 17320 bound_to 7965
  144.7634  139.6903  143.7225 LP  0  0  0  0  0  0  0  0  0  0  0  0  # atno 17321 bound_to 7965
  139.4786  144.5667  151.8154 LP  0  0  0  0  0  0  0  0  0  0  0  0  # atno 17342 bound_to 10162
  140.4775  144.1498  150.5927 LP  0  0  0  0  0  0  0  0  0  0  0  0  # atno 17343 bound_to 10162
  157.0896  130.5937  149.5437 LP  0  0  0  0  0  0  0  0  0  0  0  0  # atno 17370 bound_to 10713
  155.9978  130.5050  150.7548 LP  0  0  0  0  0  0  0  0  0  0  0  0  # atno 17371 bound_to 10713
  141.2227  133.7072  156.8184 LP  0  0  0  0  0  0  0  0  0  0  0  0  # atno 17394 bound_to 11000
  140.2102  134.8833  157.3266 LP  0  0  0  0  0  0  0  0  0  0  0  0  # atno 17395 bound_to 11000

$$$$
