AV-unprocessed.smi:1816|AV-procd|sdf|7364|dock5
  -GOLD-   22720 9 23D 1   1.00000     0.00000
 Structure written by MMmdl.
 36 37  0  0  0  0  0  0  0  0  2 V2000
  148.2355  139.0622  153.8899 C   0  0  0  0  0  0  0  0  0  0  0  0
  146.6996  139.0925  153.7217 C   0  0  2  0  0  0  0  0  0  0  0  0
  146.2975  138.7150  152.2719 C   0  0  0  0  0  0  0  0  0  0  0  0
  146.6635  137.3474  151.9160 N   0  0  0  0  0  0  0  0  0  0  0  0
  145.7924  136.3463  151.7273 C   0  0  0  0  0  0  0  0  0  0  0  0
  144.5739  136.4819  151.8378 O   0  0  0  0  0  0  0  0  0  0  0  0
  146.4236  135.2041  151.4123 N   0  0  0  0  0  0  0  0  0  0  0  0
  145.8464  133.9360  151.1553 C   0  0  0  0  0  0  0  0  0  0  0  0
  146.6443  132.9221  150.8165 N   0  0  0  0  0  0  0  0  0  0  0  0
  145.9285  131.7416  150.5970 C   0  0  0  0  0  0  0  0  0  0  0  0
  144.5741  131.8760  150.7763 C   0  0  0  0  0  0  0  0  0  0  0  0
  144.1368  133.5014  151.2299 S   0  0  0  0  0  0  0  0  0  0  0  0
  146.1363  140.4235  154.0902 N   0  3  0  0  0  0  0  0  0  0  0  0
  146.0982  140.7108  155.5473 C   0  0  0  0  0  0  0  0  0  0  0  0
  146.4404  142.1960  155.7292 C   0  0  0  0  0  0  0  0  0  0  0  0
  146.3926  142.7817  154.3232 C   0  0  0  0  0  0  0  0  0  0  0  0
  146.7717  141.5942  153.4465 C   0  0  0  0  0  0  0  0  0  0  0  0
  148.6514  138.0932  153.6137 H   0  0  0  0  0  0  0  0  0  0  0  0
  148.5378  139.2371  154.9222 H   0  0  0  0  0  0  0  0  0  0  0  0
  148.7169  139.8168  153.2673 H   0  0  0  0  0  0  0  0  0  0  0  0
  146.2755  138.3586  154.4090 H   0  0  0  0  0  0  0  0  0  0  0  0
  145.2257  138.8348  152.1090 H   0  0  0  0  0  0  0  0  0  0  0  0
  146.7878  139.3862  151.5662 H   0  0  0  0  0  0  0  0  0  0  0  0
  147.6478  137.1517  151.8030 H   0  0  0  0  0  0  0  0  0  0  0  0
  147.4305  135.2422  151.3526 H   0  0  0  0  0  0  0  0  0  0  0  0
  146.4653  130.8477  150.3150 H   0  0  0  0  0  0  0  0  0  0  0  0
  143.8105  131.1202  150.6689 H   0  0  0  0  0  0  0  0  0  0  0  0
  145.1031  140.4832  155.9308 H   0  0  0  0  0  0  0  0  0  0  0  0
  146.8144  140.0995  156.0990 H   0  0  0  0  0  0  0  0  0  0  0  0
  145.7607  142.7029  156.4148 H   0  0  0  0  0  0  0  0  0  0  0  0
  147.4496  142.2928  156.1322 H   0  0  0  0  0  0  0  0  0  0  0  0
  145.3777  143.1068  154.0900 H   0  0  0  0  0  0  0  0  0  0  0  0
  147.0590  143.6351  154.1944 H   0  0  0  0  0  0  0  0  0  0  0  0
  147.8562  141.4714  153.4433 H   0  0  0  0  0  0  0  0  0  0  0  0
  146.4380  141.7258  152.4167 H   0  0  0  0  0  0  0  0  0  0  0  0
  145.1748  140.4326  153.7812 H   0  0  0  0  0  0  0  0  0  0  0  0
  1  2  1  0  0  0  0
  1 18  1  0  0  0  0
  1 19  1  0  0  0  0
  1 20  1  0  0  0  0
  2  3  1  0  0  0  0
  2 13  1  0  0  0  0
  2 21  1  0  0  0  0
  3  4  1  0  0  0  0
  3 22  1  0  0  0  0
  3 23  1  0  0  0  0
  4  5  1  0  0  0  0
  4 24  1  0  0  0  0
  5  6  2  0  0  0  0
  5  7  1  0  0  0  0
  7  8  1  0  0  0  0
  7 25  1  0  0  0  0
  8 12  1  0  0  0  0
  8  9  2  0  0  0  0
  9 10  1  0  0  0  0
 10 11  2  0  0  0  0
 10 26  1  0  0  0  0
 11 12  1  0  0  0  0
 11 27  1  0  0  0  0
 13 17  1  0  0  0  0
 13 14  1  0  0  0  0
 13 36  1  0  0  0  0
 14 15  1  0  0  0  0
 14 28  1  0  0  0  0
 14 29  1  0  0  0  0
 15 16  1  0  0  0  0
 15 30  1  0  0  0  0
 15 31  1  0  0  0  0
 16 17  1  0  0  0  0
 16 32  1  0  0  0  0
 16 33  1  0  0  0  0
 17 34  1  0  0  0  0
 17 35  1  0  0  0  0
M  CHG  1  13   1
M  END
> <s_m_source_file>
AV-unprocessed.smi

> <i_m_source_file_index>
1816

> <i_lp_mmshare_version>
43012

> <i_f3d_flags>
0

> <s_epik_input>
W0NIMl0xW0NIMl1bQ0gyXVtDSDJdTjFbQ0BIXShbQ0gzXSlbQ0gyXVtOSF1DKD1PKVtOSF1jMm5bY0hdW2NIXXMy

> <s_epik_cmdline>
J2VwaWtfcHl0aG9uJywgJy1waCcsICc3LjAnLCAnLXRuJywgJzgnLCAnLW1hJywgJzIwMCcsICctbWV0YWxfYmluZGluZycsICctaW1hZScsICc8aW5maWxlLm1hZT4nLCAnLW9tYWUnLCAnPG91dGZpbGUubWFlPic=

> <r_lp_tautomer_probability>
0.999

> <r_epik_Ionization_Penalty>
0.000988651

> <r_epik_Ionization_Penalty_Charging>
0.000848324

> <r_epik_Ionization_Penalty_Neutral>
0.000140327

> <r_epik_State_Penalty>
0.000546901

> <r_epik_Charging_Adjusted_Penalty>
0.00139523

> <i_epik_Tot_Q>
1

> <i_epik_Tot_abs_Q>
1

> <r_epik_Metal_State_Penalty>
0.0571994

> <b_epik_Metal_Only>
0

> <s_lp_Force_Field>
OPLS_2005

> <r_lp_Energy>
26.1685

> <b_lp_Chiralities_Consistent>
1

> <s_lp_Variant>
AV-unprocessed.smi:1816-1

> <Gold.Version>
5.8.1

> <Gold.Id.Protein>
6NUR|6NUR_protein|mol2

> <Gold.PLP.Fitness>
42.4793

> <Gold.PLP.PLP>
-28.7251

> <Gold.PLP.part.hbond>
-2.9501

> <Gold.PLP.part.metal>
0.0000

> <Gold.PLP.part.buried>
-3.9966

> <Gold.PLP.part.nonpolar>
-23.3377

> <Gold.PLP.part.repulsive>
1.8637

> <Gold.PLP.ligand.clash>
0.0000

> <Gold.PLP.ligand.torsion>
0.2483

> <Gold.PLP.Chemscore.Hbond>
3.9280

> <Gold.PLP.Chemscore.CHOScore>
0.8083

> <Gold.PLP.Chemscore.Metal>
0.0000

> <Gold.Chemscore.Hbonds>
donor molecule, donor type, donor heavy atom, donor atom, acceptor molecule, acceptor atom, score
      L1  H     4    24       P1  7948  1.00
      L1  H     7    25       P1  7948  0.91
      L1  H    13    36       P1 10175  2.00
      L1  C    10    26       P1 10747  0.81

> <Gold.PLP.Chemscore.Internal.Correction>
0.0419

> <Gold.Rescore>
     Score         DG    S(hbond)    S(metal)    S(lipo)     H(rot)  DE(clash)    DE(int)     intcor
     16.57     -17.58       2.65        0.00      62.93       1.60       0.16       0.85       ----

> <Gold.Chemscore.Fitness>
16.5688

> <Gold.Chemscore.DG>
-17.5841

> <Gold.Chemscore.ZeroCoef>
-5.4800

> <Gold.Chemscore.Hbond>
2.6481

> <Gold.Chemscore.Metal>
0.0000

> <Gold.Chemscore.Lipo>
62.9311

> <Gold.Chemscore.Internal_Hbond>
0.0000

> <Gold.Chemscore.DEClash>
0.1625

> <Gold.Chemscore.DEInternal>
0.8528

> <Gold.Chemscore.Rot>
1.6029

> <Gold.Chemscore.Internal.Correction>
   9.000000E+99

> <Gold.Chemscore.Hbonds>
donor molecule, donor type, donor heavy atom, donor atom, acceptor molecule, acceptor atom, score
      L1  H     4    24       P1  7948  0.95
      L1  H     7    25       P1  7948  0.63
      L1  H    13    36       P1 10175  0.97

> <Gold.Chemscore.Hbond.Weighted>
-8.8447

> <Gold.Chemscore.Metal.Weighted>
-0.0000

> <Gold.Chemscore.Lipo.Weighted>
-7.3629

> <Gold.Chemscore.Internal_Hbond.Weighted>
0.0000

> <Gold.Chemscore.DEClash.Weighted>
0.1625

> <Gold.Chemscore.DEInternal.Weighted>
0.8528

> <Gold.Chemscore.Rot.Weighted>
4.1035

> <Gold.Chemscore.Internal.Correction.Weighted>
   9.000000E+99

> <Gold.Protein.RotatedTorsions>
[ 6907 6896 6895 6894 ] final  -51.94 input  -60.11 | X-H torsion
[ 7974 7965 7964 7962 ] final   -9.24 input  175.53 | X-H torsion
[ 8008 7997 7996 7995 ] final -175.55 input   59.86 | X-H torsion
[ 10167 10162 10161 10158 ] final  104.04 input  -65.29 | X-H torsion
[ 10718 10713 10712 10709 ] final  -13.93 input   66.30 | X-H torsion
[ 10763 10752 10751 10750 ] final -166.98 input  -60.55 | X-H torsion
[ 11005 11000 10999 10996 ] final  168.10 input  -57.11 | X-H torsion

> <Gold.Protein.ActiveResidues>
 VAL166  LYS551  ARG553  GLY616  TRP617  ASP618  TYR619  PRO620  LYS621  CYS622 
 ASP623  PHE694  ASN695  SER759  ASP760  ASP761  ALA762  ILE779  LEU786  VAL792 
 PHE793  MET794  SER795  GLU796  ALA797  LYS798  CYS799  TRP800  GLU811  SER814 

> <Gold.Protein.RotatedAtoms>
  150.8565  134.7905  159.7048 H   0  0  0  0  0  0  0  0  0  0  0  0  # atno 6907 bound_to 6896
  152.4615  134.5171  159.9781 H   0  0  0  0  0  0  0  0  0  0  0  0  # atno 6908 bound_to 6896
  151.5282  133.3416  159.2949 H   0  0  0  0  0  0  0  0  0  0  0  0  # atno 6909 bound_to 6896
  146.2257  140.2587  142.8350 H   0  0  0  0  0  0  0  0  0  0  0  0  # atno 7974 bound_to 7965
  155.9840  140.1187  157.0700 H   0  0  0  0  0  0  0  0  0  0  0  0  # atno 8008 bound_to 7997
  154.4191  140.1139  156.5542 H   0  0  0  0  0  0  0  0  0  0  0  0  # atno 8009 bound_to 7997
  155.6432  140.3473  155.4724 H   0  0  0  0  0  0  0  0  0  0  0  0  # atno 8010 bound_to 7997
  139.7211  144.7058  151.0870 H   0  0  0  0  0  0  0  0  0  0  0  0  # atno 10167 bound_to 10162
  156.6233  130.4881  149.6156 H   0  0  0  0  0  0  0  0  0  0  0  0  # atno 10718 bound_to 10713
  154.6778  135.2949  154.9654 H   0  0  0  0  0  0  0  0  0  0  0  0  # atno 10763 bound_to 10752
  154.0659  135.6625  153.4822 H   0  0  0  0  0  0  0  0  0  0  0  0  # atno 10764 bound_to 10752
  153.0528  135.5163  154.7806 H   0  0  0  0  0  0  0  0  0  0  0  0  # atno 10765 bound_to 10752
  140.2837  134.7729  157.3780 H   0  0  0  0  0  0  0  0  0  0  0  0  # atno 11005 bound_to 11000
  144.9356  140.8023  143.5662 LP  0  0  0  0  0  0  0  0  0  0  0  0  # atno 17320 bound_to 7965
  145.2534  139.2022  143.4930 LP  0  0  0  0  0  0  0  0  0  0  0  0  # atno 17321 bound_to 7965
  140.7754  143.5164  150.9589 LP  0  0  0  0  0  0  0  0  0  0  0  0  # atno 17342 bound_to 10162
  139.8851  143.7023  152.3152 LP  0  0  0  0  0  0  0  0  0  0  0  0  # atno 17343 bound_to 10162
  156.2294  130.6785  151.1448 LP  0  0  0  0  0  0  0  0  0  0  0  0  # atno 17370 bound_to 10713
  157.7221  131.0674  150.6090 LP  0  0  0  0  0  0  0  0  0  0  0  0  # atno 17371 bound_to 10713
  140.1259  134.5158  155.8145 LP  0  0  0  0  0  0  0  0  0  0  0  0  # atno 17394 bound_to 11000
  141.2158  133.6772  156.6952 LP  0  0  0  0  0  0  0  0  0  0  0  0  # atno 17395 bound_to 11000

$$$$
