AV-unprocessed.smi:2133|AV-procd|sdf|8693|dock4
  -GOLD-   2272011453D 1   1.00000     0.00000
 Structure written by MMmdl.
 45 47  0  0  0  0  0  0  0  0  1 V2000
  144.7877  136.4884  162.8254 C   0  0  0  0  0  0  0  0  0  0  0  0
  145.8071  136.0384  161.8594 N   0  0  0  0  0  0  0  0  0  0  0  0
  146.1926  136.9063  160.8718 C   0  0  0  0  0  0  0  0  0  0  0  0
  145.7648  138.0528  160.7335 O   0  0  0  0  0  0  0  0  0  0  0  0
  147.1902  136.3528  159.9519 C   0  0  0  0  0  0  0  0  0  0  0  0
  147.7157  135.1109  160.0904 C   0  0  0  0  0  0  0  0  0  0  0  0
  148.6424  134.8407  159.0895 N   0  0  0  0  0  0  0  0  0  0  0  0
  148.6246  135.9702  158.3815 C   0  0  0  0  0  0  0  0  0  0  0  0
  147.7729  136.9197  158.8204 N   0  0  0  0  0  0  0  0  0  0  0  0
  147.5511  138.2246  158.2147 C   0  0  0  0  0  0  0  0  0  0  0  0
  148.5314  138.5385  157.0624 C   0  0  1  0  0  0  0  0  0  0  0  0
  148.1153  139.7006  156.3766 O   0  0  0  0  0  0  0  0  0  0  0  0
  150.0107  138.6793  157.4676 C   0  0  0  0  0  0  0  0  0  0  0  0
  150.2552  139.9698  158.0038 O   0  0  0  0  0  0  0  0  0  0  0  0
  151.6369  140.2566  158.1336 C   0  0  0  0  0  0  0  0  0  0  0  0
  151.8733  141.7363  158.3536 C   0  0  0  0  0  0  0  0  0  0  0  0
  152.5959  142.1808  159.4806 C   0  0  0  0  0  0  0  0  0  0  0  0
  152.8147  143.5576  159.6818 C   0  0  0  0  0  0  0  0  0  0  0  0
  152.3155  144.4936  158.7552 C   0  0  0  0  0  0  0  0  0  0  0  0
  151.5953  144.0526  157.6280 C   0  0  0  0  0  0  0  0  0  0  0  0
  151.3737  142.6762  157.4279 C   0  0  0  0  0  0  0  0  0  0  0  0
  147.2706  134.3058  161.1704 N   0  0  0  0  0  0  0  0  0  0  0  0
  147.8329  132.9614  161.3290 C   0  0  0  0  0  0  0  0  0  0  0  0
  146.3072  134.7596  162.0370 C   0  0  0  0  0  0  0  0  0  0  0  0
  145.9009  134.0370  162.9517 O   0  0  0  0  0  0  0  0  0  0  0  0
  144.3533  137.4654  162.6110 H   0  0  0  0  0  0  0  0  0  0  0  0
  145.2179  136.5472  163.8263 H   0  0  0  0  0  0  0  0  0  0  0  0
  143.9526  135.7866  162.8600 H   0  0  0  0  0  0  0  0  0  0  0  0
  149.2424  136.1078  157.5061 H   0  0  0  0  0  0  0  0  0  0  0  0
  146.5181  138.2852  157.8712 H   0  0  0  0  0  0  0  0  0  0  0  0
  147.6540  138.9768  158.9985 H   0  0  0  0  0  0  0  0  0  0  0  0
  148.4764  137.7317  156.3320 H   0  0  0  0  0  0  0  0  0  0  0  0
  147.4068  139.4694  155.7954 H   0  0  0  0  0  0  0  0  0  0  0  0
  150.2415  137.9295  158.2263 H   0  0  0  0  0  0  0  0  0  0  0  0
  150.6680  138.4827  156.6190 H   0  0  0  0  0  0  0  0  0  0  0  0
  152.0552  139.7066  158.9784 H   0  0  0  0  0  0  0  0  0  0  0  0
  152.1720  139.9290  157.2408 H   0  0  0  0  0  0  0  0  0  0  0  0
  152.9841  141.4678  160.1930 H   0  0  0  0  0  0  0  0  0  0  0  0
  153.3664  143.8955  160.5466 H   0  0  0  0  0  0  0  0  0  0  0  0
  152.4848  145.5492  158.9092 H   0  0  0  0  0  0  0  0  0  0  0  0
  151.2126  144.7702  156.9173 H   0  0  0  0  0  0  0  0  0  0  0  0
  150.8194  142.3437  156.5624 H   0  0  0  0  0  0  0  0  0  0  0  0
  148.0918  132.7581  162.3693 H   0  0  0  0  0  0  0  0  0  0  0  0
  148.7438  132.8215  160.7471 H   0  0  0  0  0  0  0  0  0  0  0  0
  147.1119  132.2109  161.0033 H   0  0  0  0  0  0  0  0  0  0  0  0
  1  2  1  0  0  0  0
  1 26  1  0  0  0  0
  1 27  1  0  0  0  0
  1 28  1  0  0  0  0
  2 24  1  0  0  0  0
  2  3  1  0  0  0  0
  3  4  2  0  0  0  0
  3  5  1  0  0  0  0
  5  9  1  0  0  0  0
  5  6  2  0  0  0  0
  6  7  1  0  0  0  0
  6 22  1  0  0  0  0
  7  8  2  0  0  0  0
  8  9  1  0  0  0  0
  8 29  1  0  0  0  0
  9 10  1  0  0  0  0
 10 11  1  0  0  0  0
 10 30  1  0  0  0  0
 10 31  1  0  0  0  0
 11 12  1  0  0  0  0
 11 13  1  0  0  0  0
 11 32  1  0  0  0  0
 12 33  1  0  0  0  0
 13 14  1  0  0  0  0
 13 34  1  0  0  0  0
 13 35  1  0  0  0  0
 14 15  1  0  0  0  0
 15 16  1  0  0  0  0
 15 36  1  0  0  0  0
 15 37  1  0  0  0  0
 16 21  1  0  0  0  0
 16 17  2  0  0  0  0
 17 18  1  0  0  0  0
 17 38  1  0  0  0  0
 18 19  2  0  0  0  0
 18 39  1  0  0  0  0
 19 20  1  0  0  0  0
 19 40  1  0  0  0  0
 20 21  2  0  0  0  0
 20 41  1  0  0  0  0
 21 42  1  0  0  0  0
 22 23  1  0  0  0  0
 22 24  1  0  0  0  0
 23 43  1  0  0  0  0
 23 44  1  0  0  0  0
 23 45  1  0  0  0  0
 24 25  2  0  0  0  0
M  END
> <s_m_source_file>
AV-unprocessed.smi

> <i_m_source_file_index>
2133

> <i_lp_mmshare_version>
43012

> <i_f3d_flags>
0

> <s_epik_input>
Tz1jMW4oW0NIM10pYyg9TyluKFtDSDNdKWMoYzEyKW5bY0hdbjJbQ0gyXVtDQEhdKFtPSF0pW0NIMl1PW0NIMl1jM1tjSF1bY0hdW2NIXVtjSF1bY0hdMw==

> <s_epik_cmdline>
J2VwaWtfcHl0aG9uJywgJy1waCcsICc3LjAnLCAnLXRuJywgJzgnLCAnLW1hJywgJzIwMCcsICctbWV0YWxfYmluZGluZycsICctaW1hZScsICc8aW5maWxlLm1hZT4nLCAnLW9tYWUnLCAnPG91dGZpbGUubWFlPic=

> <r_lp_tautomer_probability>
1

> <r_epik_Ionization_Penalty>
1.52174e-06

> <r_epik_Ionization_Penalty_Charging>
3.83535e-09

> <r_epik_Ionization_Penalty_Neutral>
1.5179e-06

> <r_epik_State_Penalty>
-0

> <r_epik_Charging_Adjusted_Penalty>
3.83535e-09

> <i_epik_Tot_Q>
0

> <i_epik_Tot_abs_Q>
0

> <r_epik_Metal_State_Penalty>
-0

> <b_epik_Metal_Only>
0

> <s_lp_Force_Field>
OPLS_2005

> <r_lp_Energy>
39.5783

> <b_lp_Chiralities_Consistent>
1

> <s_lp_Variant>
AV-unprocessed.smi:2133-2

> <Gold.Version>
5.8.1

> <Gold.Id.Protein>
6NUR|6NUR_protein|mol2

> <Gold.PLP.Fitness>
49.6044

> <Gold.PLP.PLP>
-44.3683

> <Gold.PLP.part.hbond>
-3.0000

> <Gold.PLP.part.metal>
0.0000

> <Gold.PLP.part.buried>
-5.9964

> <Gold.PLP.part.nonpolar>
-35.4894

> <Gold.PLP.part.repulsive>
0.0319

> <Gold.PLP.ligand.clash>
0.0000

> <Gold.PLP.ligand.torsion>
0.3529

> <Gold.PLP.Chemscore.Hbond>
1.9280

> <Gold.PLP.Chemscore.CHOScore>
0.0000

> <Gold.PLP.Chemscore.Metal>
0.0000

> <Gold.Chemscore.Hbonds>
donor molecule, donor type, donor heavy atom, donor atom, acceptor molecule, acceptor atom, score
      P1  H  6896  6908       L1     7  0.86
      P1  H  6934  6947       L1     4  0.91

> <Gold.PLP.Chemscore.Internal.Correction>
0.1580

> <Gold.Rescore>
     Score         DG    S(hbond)    S(metal)    S(lipo)     H(rot)  DE(clash)    DE(int)     intcor
     13.39     -14.23       1.48        0.00      96.25       2.91       0.37       0.48       ----

> <Gold.Chemscore.Fitness>
13.3852

> <Gold.Chemscore.DG>
-14.2350

> <Gold.Chemscore.ZeroCoef>
-5.4800

> <Gold.Chemscore.Hbond>
1.4824

> <Gold.Chemscore.Metal>
0.0000

> <Gold.Chemscore.Lipo>
96.2534

> <Gold.Chemscore.Internal_Hbond>
0.0000

> <Gold.Chemscore.DEClash>
0.3658

> <Gold.Chemscore.DEInternal>
0.4839

> <Gold.Chemscore.Rot>
2.9132

> <Gold.Chemscore.Internal.Correction>
   9.000000E+99

> <Gold.Chemscore.Hbonds>
donor molecule, donor type, donor heavy atom, donor atom, acceptor molecule, acceptor atom, score
      P1  H  6896  6908       L1     7  0.41
      P1  H  6934  6947       L1     4  0.45

> <Gold.Chemscore.Hbond.Weighted>
-4.9511

> <Gold.Chemscore.Metal.Weighted>
-0.0000

> <Gold.Chemscore.Lipo.Weighted>
-11.2617

> <Gold.Chemscore.Internal_Hbond.Weighted>
0.0000

> <Gold.Chemscore.DEClash.Weighted>
0.3658

> <Gold.Chemscore.DEInternal.Weighted>
0.4839

> <Gold.Chemscore.Rot.Weighted>
7.4578

> <Gold.Chemscore.Internal.Correction.Weighted>
   9.000000E+99

> <Gold.Protein.RotatedTorsions>
[ 6907 6896 6895 6894 ] final  167.81 input  -60.11 | X-H torsion
[ 7974 7965 7964 7962 ] final  -17.04 input  175.53 | X-H torsion
[ 8008 7997 7996 7995 ] final  -33.85 input   59.86 | X-H torsion
[ 10167 10162 10161 10158 ] final   82.91 input  -65.29 | X-H torsion
[ 10718 10713 10712 10709 ] final  -87.32 input   66.30 | X-H torsion
[ 10763 10752 10751 10750 ] final  126.08 input  -60.55 | X-H torsion
[ 11005 11000 10999 10996 ] final   11.95 input  -57.11 | X-H torsion

> <Gold.Protein.ActiveResidues>
 VAL166  LYS551  ARG553  GLY616  TRP617  ASP618  TYR619  PRO620  LYS621  CYS622 
 ASP623  PHE694  ASN695  SER759  ASP760  ASP761  ALA762  ILE779  LEU786  VAL792 
 PHE793  MET794  SER795  GLU796  ALA797  LYS798  CYS799  TRP800  GLU811  SER814 

> <Gold.Protein.RotatedAtoms>
  151.8575  133.3451  159.3692 H   0  0  0  0  0  0  0  0  0  0  0  0  # atno 6907 bound_to 6896
  150.7188  134.5239  159.5676 H   0  0  0  0  0  0  0  0  0  0  0  0  # atno 6908 bound_to 6896
  152.2745  134.7897  160.0459 H   0  0  0  0  0  0  0  0  0  0  0  0  # atno 6909 bound_to 6896
  146.1960  140.3722  142.8440 H   0  0  0  0  0  0  0  0  0  0  0  0  # atno 7974 bound_to 7965
  154.4137  140.1699  156.1955 H   0  0  0  0  0  0  0  0  0  0  0  0  # atno 8008 bound_to 7997
  155.9567  140.3396  155.6431 H   0  0  0  0  0  0  0  0  0  0  0  0  # atno 8009 bound_to 7997
  155.6800  140.0721  157.2479 H   0  0  0  0  0  0  0  0  0  0  0  0  # atno 8010 bound_to 7997
  139.9238  144.6195  150.8413 H   0  0  0  0  0  0  0  0  0  0  0  0  # atno 10167 bound_to 10162
  155.9986  130.4796  150.4850 H   0  0  0  0  0  0  0  0  0  0  0  0  # atno 10718 bound_to 10713
  153.6876  135.3304  155.3194 H   0  0  0  0  0  0  0  0  0  0  0  0  # atno 10763 bound_to 10752
  154.8449  135.4424  154.1542 H   0  0  0  0  0  0  0  0  0  0  0  0  # atno 10764 bound_to 10752
  153.2575  135.6987  153.7691 H   0  0  0  0  0  0  0  0  0  0  0  0  # atno 10765 bound_to 10752
  140.4974  134.0780  155.7785 H   0  0  0  0  0  0  0  0  0  0  0  0  # atno 11005 bound_to 11000
  144.8581  140.7100  143.6125 LP  0  0  0  0  0  0  0  0  0  0  0  0  # atno 17320 bound_to 7965
  145.3643  139.1674  143.4366 LP  0  0  0  0  0  0  0  0  0  0  0  0  # atno 17321 bound_to 7965
  140.7655  143.3278  151.2478 LP  0  0  0  0  0  0  0  0  0  0  0  0  # atno 17342 bound_to 10162
  139.6839  143.9807  152.2823 LP  0  0  0  0  0  0  0  0  0  0  0  0  # atno 17343 bound_to 10162
  157.2851  131.0615  151.2172 LP  0  0  0  0  0  0  0  0  0  0  0  0  # atno 17370 bound_to 10713
  157.3204  130.6934  149.6266 LP  0  0  0  0  0  0  0  0  0  0  0  0  # atno 17371 bound_to 10713
  141.1453  133.9066  157.2230 LP  0  0  0  0  0  0  0  0  0  0  0  0  # atno 17394 bound_to 11000
  139.9733  135.0121  156.9568 LP  0  0  0  0  0  0  0  0  0  0  0  0  # atno 17395 bound_to 11000

$$$$
