AV-unprocessed.smi:2470|AV-procd|sdf|9736|dock10
  -GOLD-   2272013373D 1   1.00000     0.00000
 Structure written by MMmdl.
 33 34  0  0  0  0  0  0  0  0  1 V2000
  146.5000  138.6968  152.1030 C   0  0  0  0  0  0  0  0  0  0  0  0
  146.8399  139.8222  152.9051 O   0  0  0  0  0  0  0  0  0  0  0  0
  148.0140  139.7762  153.6276 C   0  0  0  0  0  0  0  0  0  0  0  0
  148.4535  140.9319  154.3048 C   0  0  0  0  0  0  0  0  0  0  0  0
  149.6597  140.8419  155.0351 C   0  0  0  0  0  0  0  0  0  0  0  0
  150.0626  142.0258  155.7078 N   0  0  0  0  0  0  0  0  0  0  0  0
  150.9097  142.1425  156.7453 C   0  0  0  0  0  0  0  0  0  0  0  0
  151.5148  141.2119  157.2781 O   0  0  0  0  0  0  0  0  0  0  0  0
  151.0227  143.4208  157.1361 N   0  0  0  0  0  0  0  0  0  0  0  0
  151.8523  143.9024  158.2366 C   0  0  1  0  0  0  0  0  0  0  0  0
  153.0039  144.7558  157.6822 C   0  0  0  0  0  0  0  0  0  0  0  0
  151.0531  144.6759  159.2681 C   0  0  0  0  0  0  0  0  0  0  0  0
  151.7329  145.6080  160.2421 C   0  0  0  0  0  0  0  0  0  0  0  0
  151.1163  144.3172  160.7332 C   0  0  0  0  0  0  0  0  0  0  0  0
  150.3482  139.6739  155.0629 N   0  0  0  0  0  0  0  0  0  0  0  0
  149.8484  138.6373  154.3877 C   0  0  0  0  0  0  0  0  0  0  0  0
  148.7224  138.6220  153.6738 N   0  0  0  0  0  0  0  0  0  0  0  0
  145.5567  138.8896  151.5925 H   0  0  0  0  0  0  0  0  0  0  0  0
  146.3707  137.7998  152.7103 H   0  0  0  0  0  0  0  0  0  0  0  0
  147.2560  138.5065  151.3397 H   0  0  0  0  0  0  0  0  0  0  0  0
  147.8824  141.8480  154.2635 H   0  0  0  0  0  0  0  0  0  0  0  0
  149.6510  142.8814  155.3659 H   0  0  0  0  0  0  0  0  0  0  0  0
  150.4875  144.1168  156.6382 H   0  0  0  0  0  0  0  0  0  0  0  0
  152.2885  143.0415  158.7475 H   0  0  0  0  0  0  0  0  0  0  0  0
  153.6524  145.1084  158.4849 H   0  0  0  0  0  0  0  0  0  0  0  0
  152.6293  145.6306  157.1497 H   0  0  0  0  0  0  0  0  0  0  0  0
  153.6236  144.1843  156.9906 H   0  0  0  0  0  0  0  0  0  0  0  0
  150.0826  145.0091  158.9041 H   0  0  0  0  0  0  0  0  0  0  0  0
  152.8192  145.6667  160.2154 H   0  0  0  0  0  0  0  0  0  0  0  0
  151.2212  146.5362  160.4885 H   0  0  0  0  0  0  0  0  0  0  0  0
  150.1943  144.3855  161.3069 H   0  0  0  0  0  0  0  0  0  0  0  0
  151.7935  143.5195  161.0323 H   0  0  0  0  0  0  0  0  0  0  0  0
  150.4125  137.7171  154.4232 H   0  0  0  0  0  0  0  0  0  0  0  0
  1  2  1  0  0  0  0
  1 18  1  0  0  0  0
  1 19  1  0  0  0  0
  1 20  1  0  0  0  0
  2  3  1  0  0  0  0
  3 17  1  0  0  0  0
  3  4  2  0  0  0  0
  4  5  1  0  0  0  0
  4 21  1  0  0  0  0
  5  6  1  0  0  0  0
  5 15  2  0  0  0  0
  6  7  1  0  0  0  0
  6 22  1  0  0  0  0
  7  8  2  0  0  0  0
  7  9  1  0  0  0  0
  9 10  1  0  0  0  0
  9 23  1  0  0  0  0
 10 11  1  0  0  0  0
 10 12  1  0  0  0  0
 10 24  1  0  0  0  0
 11 25  1  0  0  0  0
 11 26  1  0  0  0  0
 11 27  1  0  0  0  0
 12 14  1  0  0  0  0
 12 13  1  0  0  0  0
 12 28  1  0  0  0  0
 13 14  1  0  0  0  0
 13 29  1  0  0  0  0
 13 30  1  0  0  0  0
 14 31  1  0  0  0  0
 14 32  1  0  0  0  0
 15 16  1  0  0  0  0
 16 17  2  0  0  0  0
 16 33  1  0  0  0  0
M  END
> <s_m_source_file>
AV-unprocessed.smi

> <i_m_source_file_index>
2470

> <i_lp_mmshare_version>
43012

> <i_f3d_flags>
0

> <s_epik_input>
W0NIM11PYzFbY0hdYyhuW2NIXW4xKVtOSF1DKD1PKVtOSF1bQ0BIXShbQ0gzXSlbQ0hdMltDSDJdW0NIMl0y

> <s_epik_cmdline>
J2VwaWtfcHl0aG9uJywgJy1waCcsICc3LjAnLCAnLXRuJywgJzgnLCAnLW1hJywgJzIwMCcsICctbWV0YWxfYmluZGluZycsICctaW1hZScsICc8aW5maWxlLm1hZT4nLCAnLW9tYWUnLCAnPG91dGZpbGUubWFlPic=

> <r_lp_tautomer_probability>
1

> <r_epik_Ionization_Penalty>
2.81207e-05

> <r_epik_Ionization_Penalty_Charging>
0

> <r_epik_Ionization_Penalty_Neutral>
2.81207e-05

> <r_epik_State_Penalty>
-0

> <r_epik_Charging_Adjusted_Penalty>
0

> <i_epik_Tot_Q>
0

> <i_epik_Tot_abs_Q>
0

> <r_epik_Metal_State_Penalty>
-0

> <b_epik_Metal_Only>
0

> <s_lp_Force_Field>
OPLS_2005

> <r_lp_Energy>
11.1381

> <b_lp_Chiralities_Consistent>
1

> <s_lp_Variant>
AV-unprocessed.smi:2470-2

> <Gold.Version>
5.8.1

> <Gold.Id.Protein>
6NUR|6NUR_protein|mol2

> <Gold.PLP.Fitness>
41.6107

> <Gold.PLP.PLP>
-36.7142

> <Gold.PLP.part.hbond>
-2.0000

> <Gold.PLP.part.metal>
0.0000

> <Gold.PLP.part.buried>
-5.2319

> <Gold.PLP.part.nonpolar>
-32.4725

> <Gold.PLP.part.repulsive>
1.8482

> <Gold.PLP.ligand.clash>
0.0000

> <Gold.PLP.ligand.torsion>
1.0867

> <Gold.PLP.Chemscore.Hbond>
2.0000

> <Gold.PLP.Chemscore.CHOScore>
0.0000

> <Gold.PLP.Chemscore.Metal>
0.0000

> <Gold.Chemscore.Hbonds>
donor molecule, donor type, donor heavy atom, donor atom, acceptor molecule, acceptor atom, score
      L1  H     6    22       P1  8028  1.00
      L1  H     9    23       P1  8028  1.00

> <Gold.PLP.Chemscore.Internal.Correction>
1.0700

> <Gold.Rescore>
     Score         DG    S(hbond)    S(metal)    S(lipo)     H(rot)  DE(clash)    DE(int)     intcor
     14.38     -16.86       1.92        0.00      77.66       1.61       0.09       2.39       ----

> <Gold.Chemscore.Fitness>
14.3795

> <Gold.Chemscore.DG>
-16.8592

> <Gold.Chemscore.ZeroCoef>
-5.4800

> <Gold.Chemscore.Hbond>
1.9213

> <Gold.Chemscore.Metal>
0.0000

> <Gold.Chemscore.Lipo>
77.6599

> <Gold.Chemscore.Internal_Hbond>
0.0000

> <Gold.Chemscore.DEClash>
0.0886

> <Gold.Chemscore.DEInternal>
2.3911

> <Gold.Chemscore.Rot>
1.6109

> <Gold.Chemscore.Internal.Correction>
   9.000000E+99

> <Gold.Chemscore.Hbonds>
donor molecule, donor type, donor heavy atom, donor atom, acceptor molecule, acceptor atom, score
      L1  H     6    22       P1  8028  0.92
      L1  H     9    23       P1  8028  0.96

> <Gold.Chemscore.Hbond.Weighted>
-6.4170

> <Gold.Chemscore.Metal.Weighted>
-0.0000

> <Gold.Chemscore.Lipo.Weighted>
-9.0862

> <Gold.Chemscore.Internal_Hbond.Weighted>
0.0000

> <Gold.Chemscore.DEClash.Weighted>
0.0886

> <Gold.Chemscore.DEInternal.Weighted>
2.3911

> <Gold.Chemscore.Rot.Weighted>
4.1240

> <Gold.Chemscore.Internal.Correction.Weighted>
   9.000000E+99

> <Gold.Protein.RotatedTorsions>
[ 6907 6896 6895 6894 ] final  106.19 input  -60.11 | X-H torsion
[ 7974 7965 7964 7962 ] final   23.37 input  175.53 | X-H torsion
[ 8008 7997 7996 7995 ] final -122.07 input   59.86 | X-H torsion
[ 10167 10162 10161 10158 ] final -114.54 input  -65.29 | X-H torsion
[ 10718 10713 10712 10709 ] final -164.09 input   66.30 | X-H torsion
[ 10763 10752 10751 10750 ] final  -77.29 input  -60.55 | X-H torsion
[ 11005 11000 10999 10996 ] final  160.71 input  -57.11 | X-H torsion

> <Gold.Protein.ActiveResidues>
 VAL166  LYS551  ARG553  GLY616  TRP617  ASP618  TYR619  PRO620  LYS621  CYS622 
 ASP623  PHE694  ASN695  SER759  ASP760  ASP761  ALA762  ILE779  LEU786  VAL792 
 PHE793  MET794  SER795  GLU796  ALA797  LYS798  CYS799  TRP800  GLU811  SER814 

> <Gold.Protein.RotatedAtoms>
  152.5203  133.9417  159.7629 H   0  0  0  0  0  0  0  0  0  0  0  0  # atno 6907 bound_to 6896
  150.9746  133.6300  159.2739 H   0  0  0  0  0  0  0  0  0  0  0  0  # atno 6908 bound_to 6896
  151.3499  135.0888  159.9452 H   0  0  0  0  0  0  0  0  0  0  0  0  # atno 6909 bound_to 6896
  146.1987  139.7753  142.8778 H   0  0  0  0  0  0  0  0  0  0  0  0  # atno 7974 bound_to 7965
  155.1582  140.0405  157.2836 H   0  0  0  0  0  0  0  0  0  0  0  0  # atno 8008 bound_to 7997
  154.6355  140.2534  155.7356 H   0  0  0  0  0  0  0  0  0  0  0  0  # atno 8009 bound_to 7997
  156.2506  140.2866  156.0726 H   0  0  0  0  0  0  0  0  0  0  0  0  # atno 8010 bound_to 7997
  140.0999  143.4623  152.1819 H   0  0  0  0  0  0  0  0  0  0  0  0  # atno 10167 bound_to 10162
  156.6340  130.8941  151.2983 H   0  0  0  0  0  0  0  0  0  0  0  0  # atno 10718 bound_to 10713
  154.5110  135.5769  153.6604 H   0  0  0  0  0  0  0  0  0  0  0  0  # atno 10763 bound_to 10752
  152.9897  135.6158  154.2879 H   0  0  0  0  0  0  0  0  0  0  0  0  # atno 10764 bound_to 10752
  154.2794  135.2851  155.2683 H   0  0  0  0  0  0  0  0  0  0  0  0  # atno 10765 bound_to 10752
  140.2086  134.8284  157.3096 H   0  0  0  0  0  0  0  0  0  0  0  0  # atno 11005 bound_to 11000
  145.3557  141.0316  143.3313 LP  0  0  0  0  0  0  0  0  0  0  0  0  # atno 17320 bound_to 7965
  144.8636  139.5141  143.6801 LP  0  0  0  0  0  0  0  0  0  0  0  0  # atno 17321 bound_to 7965
  139.5677  144.7445  151.3976 LP  0  0  0  0  0  0  0  0  0  0  0  0  # atno 17342 bound_to 10162
  140.6984  143.7693  150.7362 LP  0  0  0  0  0  0  0  0  0  0  0  0  # atno 17343 bound_to 10162
  157.7191  130.9535  150.1369 LP  0  0  0  0  0  0  0  0  0  0  0  0  # atno 17370 bound_to 10713
  156.2212  130.3674  149.8554 LP  0  0  0  0  0  0  0  0  0  0  0  0  # atno 17371 bound_to 10713
  140.1975  134.4295  155.7681 LP  0  0  0  0  0  0  0  0  0  0  0  0  # atno 17394 bound_to 11000
  141.2226  133.7056  156.8129 LP  0  0  0  0  0  0  0  0  0  0  0  0  # atno 17395 bound_to 11000

$$$$
