AV-unprocessed.smi:2990|AV-procd|sdf|11395|dock7
  -GOLD-   2272016323D 1   1.00000     0.00000
 Structure written by MMmdl.
 40 42  0  0  0  0  0  0  0  0  2 V2000
  149.7608  140.6495  154.5371 C   0  0  0  0  0  0  0  0  0  0  0  0
  150.4273  141.1711  155.7657 C   0  0  0  0  0  0  0  0  0  0  0  0
  150.3624  142.4496  156.2329 N   0  3  0  0  0  0  0  0  0  0  0  0
  151.1114  142.5627  157.4050 C   0  0  0  0  0  0  0  0  0  0  0  0
  151.3439  143.6551  158.2351 C   0  0  0  0  0  0  0  0  0  0  0  0
  152.1580  143.4299  159.3646 C   0  0  0  0  0  0  0  0  0  0  0  0
  152.7045  142.1583  159.6334 C   0  0  0  0  0  0  0  0  0  0  0  0
  152.4636  141.0589  158.7831 C   0  0  0  0  0  0  0  0  0  0  0  0
  151.6595  141.2898  157.6670 C   0  0  0  0  0  0  0  0  0  0  0  0
  151.2127  140.4644  156.6276 N   0  0  0  0  0  0  0  0  0  0  0  0
  151.6143  139.0488  156.5915 C   0  0  0  0  0  0  0  0  0  0  0  0
  152.4896  138.7050  155.3698 C   0  0  2  0  0  0  0  0  0  0  0  0
  152.3556  137.3362  155.0437 O   0  0  0  0  0  0  0  0  0  0  0  0
  153.9771  139.0053  155.6053 C   0  0  0  0  0  0  0  0  0  0  0  0
  154.7084  138.6487  154.4397 O   0  0  0  0  0  0  0  0  0  0  0  0
  156.0207  138.2542  154.5872 C   0  0  0  0  0  0  0  0  0  0  0  0
  156.8771  138.4604  153.4858 C   0  0  0  0  0  0  0  0  0  0  0  0
  158.2328  138.0843  153.5460 C   0  0  0  0  0  0  0  0  0  0  0  0
  158.7480  137.4942  154.7147 C   0  0  0  0  0  0  0  0  0  0  0  0
  157.9054  137.2838  155.8219 C   0  0  0  0  0  0  0  0  0  0  0  0
  156.5493  137.6611  155.7622 C   0  0  0  0  0  0  0  0  0  0  0  0
  149.1684  141.4311  154.0609 H   0  0  0  0  0  0  0  0  0  0  0  0
  149.1006  139.8198  154.7901 H   0  0  0  0  0  0  0  0  0  0  0  0
  150.5076  140.2973  153.8254 H   0  0  0  0  0  0  0  0  0  0  0  0
  150.9246  144.6298  158.0321 H   0  0  0  0  0  0  0  0  0  0  0  0
  152.3657  144.2483  160.0389 H   0  0  0  0  0  0  0  0  0  0  0  0
  153.3209  142.0224  160.5103 H   0  0  0  0  0  0  0  0  0  0  0  0
  152.8828  140.0880  159.0025 H   0  0  0  0  0  0  0  0  0  0  0  0
  152.1656  138.8502  157.5112 H   0  0  0  0  0  0  0  0  0  0  0  0
  150.7258  138.4186  156.6335 H   0  0  0  0  0  0  0  0  0  0  0  0
  152.1488  139.2783  154.5067 H   0  0  0  0  0  0  0  0  0  0  0  0
  151.9475  137.2691  154.1940 H   0  0  0  0  0  0  0  0  0  0  0  0
  154.1156  140.0623  155.8402 H   0  0  0  0  0  0  0  0  0  0  0  0
  154.3372  138.4187  156.4525 H   0  0  0  0  0  0  0  0  0  0  0  0
  156.4902  138.9124  152.5844 H   0  0  0  0  0  0  0  0  0  0  0  0
  158.8766  138.2484  152.6947 H   0  0  0  0  0  0  0  0  0  0  0  0
  159.7870  137.2035  154.7614 H   0  0  0  0  0  0  0  0  0  0  0  0
  158.2998  136.8308  156.7195 H   0  0  0  0  0  0  0  0  0  0  0  0
  155.9354  137.4826  156.6317 H   0  0  0  0  0  0  0  0  0  0  0  0
  149.8419  143.1902  155.7806 H   0  0  0  0  0  0  0  0  0  0  0  0
  1  2  1  0  0  0  0
  1 22  1  0  0  0  0
  1 23  1  0  0  0  0
  1 24  1  0  0  0  0
  2 10  1  0  0  0  0
  2  3  2  0  0  0  0
  3  4  1  0  0  0  0
  3 40  1  0  0  0  0
  4  9  2  0  0  0  0
  4  5  1  0  0  0  0
  5  6  2  0  0  0  0
  5 25  1  0  0  0  0
  6  7  1  0  0  0  0
  6 26  1  0  0  0  0
  7  8  2  0  0  0  0
  7 27  1  0  0  0  0
  8  9  1  0  0  0  0
  8 28  1  0  0  0  0
  9 10  1  0  0  0  0
 10 11  1  0  0  0  0
 11 12  1  0  0  0  0
 11 29  1  0  0  0  0
 11 30  1  0  0  0  0
 12 13  1  0  0  0  0
 12 14  1  0  0  0  0
 12 31  1  0  0  0  0
 13 32  1  0  0  0  0
 14 15  1  0  0  0  0
 14 33  1  0  0  0  0
 14 34  1  0  0  0  0
 15 16  1  0  0  0  0
 16 21  1  0  0  0  0
 16 17  2  0  0  0  0
 17 18  1  0  0  0  0
 17 35  1  0  0  0  0
 18 19  2  0  0  0  0
 18 36  1  0  0  0  0
 19 20  1  0  0  0  0
 19 37  1  0  0  0  0
 20 21  2  0  0  0  0
 20 38  1  0  0  0  0
 21 39  1  0  0  0  0
M  CHG  1   3   1
M  END
> <s_m_source_file>
AV-unprocessed.smi

> <i_m_source_file_index>
2990

> <i_lp_mmshare_version>
43012

> <i_f3d_flags>
0

> <s_epik_input>
W2NIXTFbY0hdW2NIXVtjSF1jKGMxMiluKGMobjIpW0NIM10pW0NIMl1bQ0BIXShbT0hdKVtDSDJdT2MzW2NIXVtjSF1bY0hdW2NIXVtjSF0z

> <s_epik_cmdline>
J2VwaWtfcHl0aG9uJywgJy1waCcsICc3LjAnLCAnLXRuJywgJzgnLCAnLW1hJywgJzIwMCcsICctbWV0YWxfYmluZGluZycsICctaW1hZScsICc8aW5maWxlLm1hZT4nLCAnLW9tYWUnLCAnPG91dGZpbGUubWFlPic=

> <r_lp_tautomer_probability>
1

> <r_epik_Ionization_Penalty>
1.00673

> <r_epik_Ionization_Penalty_Charging>
1.00673

> <r_epik_Ionization_Penalty_Neutral>
2.3993e-06

> <r_epik_State_Penalty>
1.05579

> <r_epik_Charging_Adjusted_Penalty>
2.06252

> <i_epik_Tot_Q>
1

> <i_epik_Tot_abs_Q>
1

> <r_epik_Metal_State_Penalty>
5.03947

> <b_epik_Metal_Only>
0

> <s_lp_Force_Field>
OPLS_2005

> <r_lp_Energy>
19.3411

> <b_lp_Chiralities_Consistent>
1

> <s_lp_Variant>
AV-unprocessed.smi:2990-3

> <Gold.Version>
5.8.1

> <Gold.Id.Protein>
6NUR|6NUR_protein|mol2

> <Gold.PLP.Fitness>
49.7659

> <Gold.PLP.PLP>
-43.6588

> <Gold.PLP.part.hbond>
-2.9553

> <Gold.PLP.part.metal>
0.0000

> <Gold.PLP.part.buried>
2.7859

> <Gold.PLP.part.nonpolar>
-43.0548

> <Gold.PLP.part.repulsive>
0.0938

> <Gold.PLP.ligand.clash>
0.0000

> <Gold.PLP.ligand.torsion>
0.8491

> <Gold.PLP.Chemscore.Hbond>
2.5760

> <Gold.PLP.Chemscore.CHOScore>
0.0000

> <Gold.PLP.Chemscore.Metal>
0.0000

> <Gold.Chemscore.Hbonds>
donor molecule, donor type, donor heavy atom, donor atom, acceptor molecule, acceptor atom, score
      L1  H     3    40       P1  8028  2.00
      P1  H 10752 10763       L1    13  0.32

> <Gold.PLP.Chemscore.Internal.Correction>
0.0773

> <Gold.Rescore>
     Score         DG    S(hbond)    S(metal)    S(lipo)     H(rot)  DE(clash)    DE(int)     intcor
     17.94     -21.33       1.04        0.00     152.26       2.12       2.49       0.90       ----

> <Gold.Chemscore.Fitness>
17.9364

> <Gold.Chemscore.DG>
-21.3308

> <Gold.Chemscore.ZeroCoef>
-5.4800

> <Gold.Chemscore.Hbond>
1.0359

> <Gold.Chemscore.Metal>
0.0000

> <Gold.Chemscore.Lipo>
152.2576

> <Gold.Chemscore.Internal_Hbond>
0.0000

> <Gold.Chemscore.DEClash>
2.4912

> <Gold.Chemscore.DEInternal>
0.9032

> <Gold.Chemscore.Rot>
2.1184

> <Gold.Chemscore.Internal.Correction>
   9.000000E+99

> <Gold.Chemscore.Hbonds>
donor molecule, donor type, donor heavy atom, donor atom, acceptor molecule, acceptor atom, score
      L1  H     3    40       P1  8028  0.99
      P1  H 10752 10763       L1    13  0.02

> <Gold.Chemscore.Hbond.Weighted>
-3.4598

> <Gold.Chemscore.Metal.Weighted>
-0.0000

> <Gold.Chemscore.Lipo.Weighted>
-17.8141

> <Gold.Chemscore.Internal_Hbond.Weighted>
0.0000

> <Gold.Chemscore.DEClash.Weighted>
2.4912

> <Gold.Chemscore.DEInternal.Weighted>
0.9032

> <Gold.Chemscore.Rot.Weighted>
5.4231

> <Gold.Chemscore.Internal.Correction.Weighted>
   9.000000E+99

> <Gold.Protein.RotatedTorsions>
[ 6907 6896 6895 6894 ] final  101.52 input  -60.11 | X-H torsion
[ 7974 7965 7964 7962 ] final   -2.54 input  175.53 | X-H torsion
[ 8008 7997 7996 7995 ] final  -68.59 input   59.86 | X-H torsion
[ 10167 10162 10161 10158 ] final -171.39 input  -65.29 | X-H torsion
[ 10718 10713 10712 10709 ] final   15.41 input   66.30 | X-H torsion
[ 10763 10752 10751 10750 ] final   79.24 input  -60.55 | X-H torsion
[ 11005 11000 10999 10996 ] final -176.15 input  -57.11 | X-H torsion

> <Gold.Protein.ActiveResidues>
 VAL166  LYS551  ARG553  GLY616  TRP617  ASP618  TYR619  PRO620  LYS621  CYS622 
 ASP623  PHE694  ASN695  SER759  ASP760  ASP761  ALA762  ILE779  LEU786  VAL792 
 PHE793  MET794  SER795  GLU796  ALA797  LYS798  CYS799  TRP800  GLU811  SER814 

> <Gold.Protein.RotatedAtoms>
  152.5347  134.0113  159.7939 H   0  0  0  0  0  0  0  0  0  0  0  0  # atno 6907 bound_to 6896
  151.0315  133.5778  159.2667 H   0  0  0  0  0  0  0  0  0  0  0  0  # atno 6908 bound_to 6896
  151.2781  135.0713  159.9213 H   0  0  0  0  0  0  0  0  0  0  0  0  # atno 6909 bound_to 6896
  146.2403  140.1586  142.8333 H   0  0  0  0  0  0  0  0  0  0  0  0  # atno 7974 bound_to 7965
  154.4879  140.0870  156.7528 H   0  0  0  0  0  0  0  0  0  0  0  0  # atno 8008 bound_to 7997
  155.4304  140.3449  155.4261 H   0  0  0  0  0  0  0  0  0  0  0  0  # atno 8009 bound_to 7997
  156.1287  140.1495  156.9085 H   0  0  0  0  0  0  0  0  0  0  0  0  # atno 8010 bound_to 7997
  139.5805  144.1433  152.1509 H   0  0  0  0  0  0  0  0  0  0  0  0  # atno 10167 bound_to 10162
  157.0531  130.6278  149.5771 H   0  0  0  0  0  0  0  0  0  0  0  0  # atno 10718 bound_to 10713
  153.0937  135.4847  154.8738 H   0  0  0  0  0  0  0  0  0  0  0  0  # atno 10763 bound_to 10752
  154.7299  135.3058  154.8911 H   0  0  0  0  0  0  0  0  0  0  0  0  # atno 10764 bound_to 10752
  153.9550  135.6819  153.4797 H   0  0  0  0  0  0  0  0  0  0  0  0  # atno 10765 bound_to 10752
  140.4553  134.6305  157.4819 H   0  0  0  0  0  0  0  0  0  0  0  0  # atno 11005 bound_to 11000
  145.0108  140.8712  143.5225 LP  0  0  0  0  0  0  0  0  0  0  0  0  # atno 17320 bound_to 7965
  145.1619  139.2453  143.5387 LP  0  0  0  0  0  0  0  0  0  0  0  0  # atno 17321 bound_to 7965
  140.0986  144.5559  150.7005 LP  0  0  0  0  0  0  0  0  0  0  0  0  # atno 17342 bound_to 10162
  140.7084  143.2485  151.4656 LP  0  0  0  0  0  0  0  0  0  0  0  0  # atno 17343 bound_to 10162
  156.0001  130.5079  150.7632 LP  0  0  0  0  0  0  0  0  0  0  0  0  # atno 17370 bound_to 10713
  157.5014  131.0919  151.0309 LP  0  0  0  0  0  0  0  0  0  0  0  0  # atno 17371 bound_to 10713
  139.9980  134.6881  155.9577 LP  0  0  0  0  0  0  0  0  0  0  0  0  # atno 17394 bound_to 11000
  141.1646  133.6537  156.4434 LP  0  0  0  0  0  0  0  0  0  0  0  0  # atno 17395 bound_to 11000

$$$$
