AV-unprocessed.smi:469|AV-procd|sdf|2653|dock8
  -GOLD-   2262023 63D 1   1.00000     0.00000
 Structure written by MMmdl.
 37 38  0  0  0  0  0  0  0  0  1 V2000
  152.3036  144.6275  160.0633 C   0  0  0  0  0  0  0  0  0  0  0  0
  151.5629  143.8640  159.0707 N   0  0  0  0  0  0  0  0  0  0  0  0
  150.9736  142.6843  159.3114 C   0  0  0  0  0  0  0  0  0  0  0  0
  151.0015  142.1319  160.4122 O   0  0  0  0  0  0  0  0  0  0  0  0
  150.2347  142.0510  158.1232 C   0  0  0  0  0  0  0  0  0  0  0  0
  149.0588  142.8188  157.6810 N   0  0  0  0  0  0  0  0  0  0  0  0
  148.1011  143.1378  158.6630 C   0  0  0  0  0  0  0  0  0  0  0  0
  147.0097  143.8663  158.3772 C   0  0  0  0  0  0  0  0  0  0  0  0
  145.7296  144.1283  159.6320 S   0  0  0  0  0  0  0  0  0  0  0  0
  145.3983  145.5617  159.6416 O   0  0  0  0  0  0  0  0  0  0  0  0
  144.6679  143.1343  159.4077 O   0  0  0  0  0  0  0  0  0  0  0  0
  146.4750  143.7581  161.1481 N   0  0  0  0  0  0  0  0  0  0  0  0
  147.7535  144.4083  161.4654 C   0  0  0  0  0  0  0  0  0  0  0  0
  147.5502  145.0778  162.8238 C   0  0  0  0  0  0  0  0  0  0  0  0
  146.5340  144.1728  163.5038 C   0  0  0  0  0  0  0  0  0  0  0  0
  145.6291  143.7400  162.3507 C   0  0  0  0  0  0  0  0  0  0  0  0
  146.7881  144.2600  157.0049 C   0  0  0  0  0  0  0  0  0  0  0  0
  147.6849  143.9331  156.0531 C   0  0  0  0  0  0  0  0  0  0  0  0
  148.9037  143.1785  156.3693 C   0  0  0  0  0  0  0  0  0  0  0  0
  149.7332  142.8862  155.5076 O   0  0  0  0  0  0  0  0  0  0  0  0
  152.6492  145.5658  159.6290 H   0  0  0  0  0  0  0  0  0  0  0  0
  153.1746  144.0699  160.4102 H   0  0  0  0  0  0  0  0  0  0  0  0
  151.6743  144.8618  160.9233 H   0  0  0  0  0  0  0  0  0  0  0  0
  151.4931  144.2565  158.1429 H   0  0  0  0  0  0  0  0  0  0  0  0
  150.9419  141.9416  157.2996 H   0  0  0  0  0  0  0  0  0  0  0  0
  149.9455  141.0317  158.3861 H   0  0  0  0  0  0  0  0  0  0  0  0
  148.3069  142.7429  159.6474 H   0  0  0  0  0  0  0  0  0  0  0  0
  148.5298  143.6448  161.5220 H   0  0  0  0  0  0  0  0  0  0  0  0
  148.0401  145.1269  160.6967 H   0  0  0  0  0  0  0  0  0  0  0  0
  148.4765  145.1774  163.3902 H   0  0  0  0  0  0  0  0  0  0  0  0
  147.1275  146.0745  162.6878 H   0  0  0  0  0  0  0  0  0  0  0  0
  147.0372  143.3031  163.9285 H   0  0  0  0  0  0  0  0  0  0  0  0
  145.9887  144.6732  164.3044 H   0  0  0  0  0  0  0  0  0  0  0  0
  144.8122  144.4533  162.2328 H   0  0  0  0  0  0  0  0  0  0  0  0
  145.1963  142.7514  162.5058 H   0  0  0  0  0  0  0  0  0  0  0  0
  145.9027  144.8175  156.7375 H   0  0  0  0  0  0  0  0  0  0  0  0
  147.5043  144.2349  155.0318 H   0  0  0  0  0  0  0  0  0  0  0  0
  1  2  1  0  0  0  0
  1 21  1  0  0  0  0
  1 22  1  0  0  0  0
  1 23  1  0  0  0  0
  2  3  1  0  0  0  0
  2 24  1  0  0  0  0
  3  4  2  0  0  0  0
  3  5  1  0  0  0  0
  5  6  1  0  0  0  0
  5 25  1  0  0  0  0
  5 26  1  0  0  0  0
  6 19  1  0  0  0  0
  6  7  1  0  0  0  0
  7  8  2  0  0  0  0
  7 27  1  0  0  0  0
  8  9  1  0  0  0  0
  8 17  1  0  0  0  0
  9 10  2  0  0  0  0
  9 11  2  0  0  0  0
  9 12  1  0  0  0  0
 12 16  1  0  0  0  0
 12 13  1  0  0  0  0
 13 14  1  0  0  0  0
 13 28  1  0  0  0  0
 13 29  1  0  0  0  0
 14 15  1  0  0  0  0
 14 30  1  0  0  0  0
 14 31  1  0  0  0  0
 15 16  1  0  0  0  0
 15 32  1  0  0  0  0
 15 33  1  0  0  0  0
 16 34  1  0  0  0  0
 16 35  1  0  0  0  0
 17 18  2  0  0  0  0
 17 36  1  0  0  0  0
 18 19  1  0  0  0  0
 18 37  1  0  0  0  0
 19 20  2  0  0  0  0
M  END
> <s_m_source_file>
AV-unprocessed.smi

> <i_m_source_file_index>
469

> <i_lp_mmshare_version>
43012

> <i_f3d_flags>
0

> <s_epik_input>
W0NIM11bTkhdQyg9TylbQ0gyXW4xW2NIXWMoW2NIXVtjSF1jMT1PKVMoPU8pKD1PKU4yW0NIMl1bQ0gyXVtDSDJdW0NIMl0y

> <s_epik_cmdline>
J2VwaWtfcHl0aG9uJywgJy1waCcsICc3LjAnLCAnLXRuJywgJzgnLCAnLW1hJywgJzIwMCcsICctbWV0YWxfYmluZGluZycsICctaW1hZScsICc8aW5maWxlLm1hZT4nLCAnLW9tYWUnLCAnPG91dGZpbGUubWFlPic=

> <r_lp_tautomer_probability>
1

> <r_epik_Ionization_Penalty>
2.91909e-08

> <r_epik_Ionization_Penalty_Charging>
9.91299e-09

> <r_epik_Ionization_Penalty_Neutral>
1.92779e-08

> <r_epik_State_Penalty>
-0

> <r_epik_Charging_Adjusted_Penalty>
9.91299e-09

> <i_epik_Tot_Q>
0

> <i_epik_Tot_abs_Q>
0

> <r_epik_Metal_State_Penalty>
-0

> <b_epik_Metal_Only>
0

> <s_lp_Force_Field>
OPLS_2005

> <r_lp_Energy>
18.9882

> <b_lp_Chiralities_Consistent>
1

> <s_lp_Variant>
AV-unprocessed.smi:469-1

> <Gold.Version>
5.8.1

> <Gold.Id.Protein>
6NUR|6NUR_protein|mol2

> <Gold.PLP.Fitness>
35.0434

> <Gold.PLP.PLP>
-33.1325

> <Gold.PLP.part.hbond>
-2.0165

> <Gold.PLP.part.metal>
0.0000

> <Gold.PLP.part.buried>
-7.2451

> <Gold.PLP.part.nonpolar>
-24.6749

> <Gold.PLP.part.repulsive>
0.2632

> <Gold.PLP.ligand.clash>
0.0000

> <Gold.PLP.ligand.torsion>
1.5189

> <Gold.PLP.Chemscore.Hbond>
0.8356

> <Gold.PLP.Chemscore.CHOScore>
0.0000

> <Gold.PLP.Chemscore.Metal>
0.0000

> <Gold.PLP.Chemscore.Internal.Correction>
2.4419

> <Gold.Rescore>
     Score         DG    S(hbond)    S(metal)    S(lipo)     H(rot)  DE(clash)    DE(int)     intcor
      8.69     -10.28       0.86        0.00      51.88       1.62       0.02       1.58       ----

> <Gold.Chemscore.Fitness>
8.6872

> <Gold.Chemscore.DG>
-10.2811

> <Gold.Chemscore.ZeroCoef>
-5.4800

> <Gold.Chemscore.Hbond>
0.8637

> <Gold.Chemscore.Metal>
0.0000

> <Gold.Chemscore.Lipo>
51.8821

> <Gold.Chemscore.Internal_Hbond>
0.0000

> <Gold.Chemscore.DEClash>
0.0159

> <Gold.Chemscore.DEInternal>
1.5780

> <Gold.Chemscore.Rot>
1.6226

> <Gold.Chemscore.Internal.Correction>
   9.000000E+99

> <Gold.Chemscore.Hbonds>
donor molecule, donor type, donor heavy atom, donor atom, acceptor molecule, acceptor atom, score
      P1  H  6933  6945       L1     4  0.01

> <Gold.Chemscore.Hbond.Weighted>
-2.8848

> <Gold.Chemscore.Metal.Weighted>
-0.0000

> <Gold.Chemscore.Lipo.Weighted>
-6.0702

> <Gold.Chemscore.Internal_Hbond.Weighted>
0.0000

> <Gold.Chemscore.DEClash.Weighted>
0.0159

> <Gold.Chemscore.DEInternal.Weighted>
1.5780

> <Gold.Chemscore.Rot.Weighted>
4.1539

> <Gold.Chemscore.Internal.Correction.Weighted>
   9.000000E+99

> <Gold.Protein.RotatedTorsions>
[ 6907 6896 6895 6894 ] final -141.92 input  -60.11 | X-H torsion
[ 7974 7965 7964 7962 ] final -153.89 input  175.53 | X-H torsion
[ 8008 7997 7996 7995 ] final   35.68 input   59.86 | X-H torsion
[ 10167 10162 10161 10158 ] final   13.24 input  -65.29 | X-H torsion
[ 10718 10713 10712 10709 ] final -110.57 input   66.30 | X-H torsion
[ 10763 10752 10751 10750 ] final -131.48 input  -60.55 | X-H torsion
[ 11005 11000 10999 10996 ] final  -44.38 input  -57.11 | X-H torsion

> <Gold.Protein.ActiveResidues>
 VAL166  LYS551  ARG553  GLY616  TRP617  ASP618  TYR619  PRO620  LYS621  CYS622 
 ASP623  PHE694  ASN695  SER759  ASP760  ASP761  ALA762  ILE779  LEU786  VAL792 
 PHE793  MET794  SER795  GLU796  ALA797  LYS798  CYS799  TRP800  GLU811  SER814 

> <Gold.Protein.RotatedAtoms>
  151.0802  133.5396  159.2620 H   0  0  0  0  0  0  0  0  0  0  0  0  # atno 6907 bound_to 6896
  151.2302  135.0551  159.8994 H   0  0  0  0  0  0  0  0  0  0  0  0  # atno 6908 bound_to 6896
  152.5423  134.0592  159.8198 H   0  0  0  0  0  0  0  0  0  0  0  0  # atno 6909 bound_to 6896
  144.7717  140.4463  143.5902 H   0  0  0  0  0  0  0  0  0  0  0  0  # atno 7974 bound_to 7965
  155.1750  140.3295  155.4385 H   0  0  0  0  0  0  0  0  0  0  0  0  # atno 8008 bound_to 7997
  156.2497  140.1937  156.6801 H   0  0  0  0  0  0  0  0  0  0  0  0  # atno 8009 bound_to 7997
  154.6311  140.0582  156.9719 H   0  0  0  0  0  0  0  0  0  0  0  0  # atno 8010 bound_to 7997
  140.6016  143.8593  150.6971 H   0  0  0  0  0  0  0  0  0  0  0  0  # atno 10167 bound_to 10162
  156.0598  130.5822  150.8255 H   0  0  0  0  0  0  0  0  0  0  0  0  # atno 10718 bound_to 10713
  154.8750  135.3829  154.4253 H   0  0  0  0  0  0  0  0  0  0  0  0  # atno 10763 bound_to 10752
  153.4952  135.7030  153.5867 H   0  0  0  0  0  0  0  0  0  0  0  0  # atno 10764 bound_to 10752
  153.4223  135.3898  155.2086 H   0  0  0  0  0  0  0  0  0  0  0  0  # atno 10765 bound_to 10752
  141.0447  133.6766  156.2865 H   0  0  0  0  0  0  0  0  0  0  0  0  # atno 11005 bound_to 11000
  145.6304  139.1535  143.2972 LP  0  0  0  0  0  0  0  0  0  0  0  0  # atno 17320 bound_to 7965
  146.1868  140.6408  142.9164 LP  0  0  0  0  0  0  0  0  0  0  0  0  # atno 17321 bound_to 7965
  140.2141  143.3860  152.1695 LP  0  0  0  0  0  0  0  0  0  0  0  0  # atno 17342 bound_to 10162
  139.5295  144.7142  151.5108 LP  0  0  0  0  0  0  0  0  0  0  0  0  # atno 17343 bound_to 10162
  157.5597  131.0945  150.9576 LP  0  0  0  0  0  0  0  0  0  0  0  0  # atno 17370 bound_to 10713
  156.9817  130.5529  149.5297 LP  0  0  0  0  0  0  0  0  0  0  0  0  # atno 17371 bound_to 10713
  140.6169  134.5401  157.5542 LP  0  0  0  0  0  0  0  0  0  0  0  0  # atno 17394 bound_to 11000
  139.9302  134.7978  156.0952 LP  0  0  0  0  0  0  0  0  0  0  0  0  # atno 17395 bound_to 11000

$$$$
