AV-unprocessed.smi:3031|AV-procd|sdf|11543|dock4
  -GOLD-   2272016493D 1   1.00000     0.00000
 Structure written by MMmdl.
 47 48  0  0  0  0  0  0  0  0  2 V2000
  151.1236  142.9362  158.6413 C   0  0  0  0  0  0  0  0  0  0  0  0
  150.5992  141.9200  157.6683 C   0  0  0  0  0  0  0  0  0  0  0  0
  150.5222  140.5078  157.8330 C   0  0  0  0  0  0  0  0  0  0  0  0
  150.0095  139.8947  156.7785 N   0  0  0  0  0  0  0  0  0  0  0  0
  149.7378  140.8907  155.9081 N   0  0  0  0  0  0  0  0  0  0  0  0
  149.1617  140.5833  154.6111 C   0  0  0  0  0  0  0  0  0  0  0  0
  149.0349  139.0655  154.3739 C   0  0  2  0  0  0  0  0  0  0  0  0
  150.4180  138.3943  154.3719 C   0  0  0  0  0  0  0  0  0  0  0  0
  148.3202  138.8068  153.1032 N   0  3  0  0  0  0  0  0  0  0  0  0
  146.8928  139.1883  153.0854 C   0  0  0  0  0  0  0  0  0  0  0  0
  146.0900  138.2568  152.1617 C   0  0  1  0  0  0  0  0  0  0  0  0
  146.7071  138.1969  150.8912 O   0  0  0  0  0  0  0  0  0  0  0  0
  145.8460  136.8190  152.6767 C   0  0  0  0  0  0  0  0  0  0  0  0
  144.9790  135.9577  151.8644 N   0  0  0  0  0  0  0  0  0  0  0  0
  144.3447  134.9333  152.6906 C   0  0  0  0  0  0  0  0  0  0  0  0
  143.4180  134.0191  151.8704 C   0  0  0  0  0  0  0  0  0  0  0  0
  144.1590  133.4140  150.8167 O   0  0  0  0  0  0  0  0  0  0  0  0
  144.7695  134.3708  149.9578 C   0  0  0  0  0  0  0  0  0  0  0  0
  145.6953  135.2851  150.7795 C   0  0  0  0  0  0  0  0  0  0  0  0
  150.0839  142.1231  156.4195 C   0  0  0  0  0  0  0  0  0  0  0  0
  151.3333  142.4948  159.6159 H   0  0  0  0  0  0  0  0  0  0  0  0
  150.4101  143.7447  158.8023 H   0  0  0  0  0  0  0  0  0  0  0  0
  152.0500  143.3895  158.2885 H   0  0  0  0  0  0  0  0  0  0  0  0
  150.8245  139.9135  158.6829 H   0  0  0  0  0  0  0  0  0  0  0  0
  148.1910  141.0748  154.5257 H   0  0  0  0  0  0  0  0  0  0  0  0
  149.8021  141.0297  153.8492 H   0  0  0  0  0  0  0  0  0  0  0  0
  148.4496  138.6470  155.1943 H   0  0  0  0  0  0  0  0  0  0  0  0
  150.9536  138.6016  155.2989 H   0  0  0  0  0  0  0  0  0  0  0  0
  151.0333  138.7558  153.5472 H   0  0  0  0  0  0  0  0  0  0  0  0
  150.3424  137.3108  154.2820 H   0  0  0  0  0  0  0  0  0  0  0  0
  148.7826  139.3445  152.3831 H   0  0  0  0  0  0  0  0  0  0  0  0
  146.4980  139.1540  154.1000 H   0  0  0  0  0  0  0  0  0  0  0  0
  146.8127  140.2163  152.7297 H   0  0  0  0  0  0  0  0  0  0  0  0
  145.1047  138.7013  152.0137 H   0  0  0  0  0  0  0  0  0  0  0  0
  146.0384  138.2724  150.2271 H   0  0  0  0  0  0  0  0  0  0  0  0
  146.8004  136.3208  152.8527 H   0  0  0  0  0  0  0  0  0  0  0  0
  145.4003  136.9282  153.6668 H   0  0  0  0  0  0  0  0  0  0  0  0
  145.1077  134.3274  153.1818 H   0  0  0  0  0  0  0  0  0  0  0  0
  143.7636  135.4048  153.4840 H   0  0  0  0  0  0  0  0  0  0  0  0
  142.9958  133.2387  152.5040 H   0  0  0  0  0  0  0  0  0  0  0  0
  142.5815  134.5860  151.4579 H   0  0  0  0  0  0  0  0  0  0  0  0
  145.3378  133.8473  149.1891 H   0  0  0  0  0  0  0  0  0  0  0  0
  144.0023  134.9554  149.4476 H   0  0  0  0  0  0  0  0  0  0  0  0
  146.1515  136.0038  150.1052 H   0  0  0  0  0  0  0  0  0  0  0  0
  146.5112  134.6880  151.1902 H   0  0  0  0  0  0  0  0  0  0  0  0
  149.9380  143.0340  155.8574 H   0  0  0  0  0  0  0  0  0  0  0  0
  148.4042  137.8277  152.8693 H   0  0  0  0  0  0  0  0  0  0  0  0
  1  2  1  0  0  0  0
  1 21  1  0  0  0  0
  1 22  1  0  0  0  0
  1 23  1  0  0  0  0
  2 20  2  0  0  0  0
  2  3  1  0  0  0  0
  3  4  2  0  0  0  0
  3 24  1  0  0  0  0
  4  5  1  0  0  0  0
  5  6  1  0  0  0  0
  5 20  1  0  0  0  0
  6  7  1  0  0  0  0
  6 25  1  0  0  0  0
  6 26  1  0  0  0  0
  7  8  1  0  0  0  0
  7  9  1  0  0  0  0
  7 27  1  0  0  0  0
  8 28  1  0  0  0  0
  8 29  1  0  0  0  0
  8 30  1  0  0  0  0
  9 10  1  0  0  0  0
  9 31  1  0  0  0  0
  9 47  1  0  0  0  0
 10 11  1  0  0  0  0
 10 32  1  0  0  0  0
 10 33  1  0  0  0  0
 11 12  1  0  0  0  0
 11 13  1  0  0  0  0
 11 34  1  0  0  0  0
 12 35  1  0  0  0  0
 13 14  1  0  0  0  0
 13 36  1  0  0  0  0
 13 37  1  0  0  0  0
 14 19  1  0  0  0  0
 14 15  1  0  0  0  0
 15 16  1  0  0  0  0
 15 38  1  0  0  0  0
 15 39  1  0  0  0  0
 16 17  1  0  0  0  0
 16 40  1  0  0  0  0
 16 41  1  0  0  0  0
 17 18  1  0  0  0  0
 18 19  1  0  0  0  0
 18 42  1  0  0  0  0
 18 43  1  0  0  0  0
 19 44  1  0  0  0  0
 19 45  1  0  0  0  0
 20 46  1  0  0  0  0
M  CHG  1   9   1
M  END
> <s_m_source_file>
AV-unprocessed.smi

> <i_m_source_file_index>
3031

> <i_lp_mmshare_version>
43012

> <i_f3d_flags>
0

> <s_epik_input>
W0NIM11jMVtjSF1ubihbY0hdMSlbQ0gyXVtDQEhdKFtDSDNdKVtOSF1bQ0gyXVtDQEhdKFtPSF0pW0NIMl1OMltDSDJdW0NIMl1PW0NIMl1bQ0gyXTI=

> <s_epik_cmdline>
J2VwaWtfcHl0aG9uJywgJy1waCcsICc3LjAnLCAnLXRuJywgJzgnLCAnLW1hJywgJzIwMCcsICctbWV0YWxfYmluZGluZycsICctaW1hZScsICc8aW5maWxlLm1hZT4nLCAnLW9tYWUnLCAnPG91dGZpbGUubWFlPic=

> <r_lp_tautomer_probability>
1

> <r_epik_Ionization_Penalty>
0.108564

> <r_epik_Ionization_Penalty_Charging>
0.01811

> <r_epik_Ionization_Penalty_Neutral>
0.0904541

> <r_epik_State_Penalty>
0.141043

> <r_epik_Charging_Adjusted_Penalty>
0.159153

> <i_epik_Tot_Q>
1

> <i_epik_Tot_abs_Q>
1

> <r_epik_Metal_State_Penalty>
0.141052

> <b_epik_Metal_Only>
0

> <s_lp_Force_Field>
OPLS_2005

> <r_lp_Energy>
34.8443

> <b_lp_Chiralities_Consistent>
1

> <s_lp_Variant>
AV-unprocessed.smi:3031-3

> <Gold.Version>
5.8.1

> <Gold.Id.Protein>
6NUR|6NUR_protein|mol2

> <Gold.PLP.Fitness>
56.1676

> <Gold.PLP.PLP>
-39.6094

> <Gold.PLP.part.hbond>
-4.4286

> <Gold.PLP.part.metal>
0.0000

> <Gold.PLP.part.buried>
-5.4456

> <Gold.PLP.part.nonpolar>
-31.0771

> <Gold.PLP.part.repulsive>
0.4001

> <Gold.PLP.ligand.clash>
0.0000

> <Gold.PLP.ligand.torsion>
0.6271

> <Gold.PLP.Chemscore.Hbond>
4.9100

> <Gold.PLP.Chemscore.CHOScore>
1.0000

> <Gold.PLP.Chemscore.Metal>
0.0000

> <Gold.Chemscore.Hbonds>
donor molecule, donor type, donor heavy atom, donor atom, acceptor molecule, acceptor atom, score
      L1  H     9    31       P1  7957  1.00
      L1  H     9    47       P1  7948  2.00
      L1  H    12    35       P1 10171  0.52
      P1  H  7954  7966       L1    12  1.00
      L1  C    20    46       P1  8028  0.91

> <Gold.PLP.Chemscore.Internal.Correction>
0.0824

> <Gold.Rescore>
     Score         DG    S(hbond)    S(metal)    S(lipo)     H(rot)  DE(clash)    DE(int)     intcor
     20.48     -21.44       3.67        0.00      89.21       2.63       0.05       0.91       ----

> <Gold.Chemscore.Fitness>
20.4756

> <Gold.Chemscore.DG>
-21.4363

> <Gold.Chemscore.ZeroCoef>
-5.4800

> <Gold.Chemscore.Hbond>
3.6659

> <Gold.Chemscore.Metal>
0.0000

> <Gold.Chemscore.Lipo>
89.2092

> <Gold.Chemscore.Internal_Hbond>
0.0000

> <Gold.Chemscore.DEClash>
0.0475

> <Gold.Chemscore.DEInternal>
0.9133

> <Gold.Chemscore.Rot>
2.6270

> <Gold.Chemscore.Internal.Correction>
   9.000000E+99

> <Gold.Chemscore.Hbonds>
donor molecule, donor type, donor heavy atom, donor atom, acceptor molecule, acceptor atom, score
      L1  H     9    31       P1  7957  0.99
      L1  H     9    47       P1  7948  0.98
      L1  H    12    35       P1 10171  0.51
      P1  H  7954  7966       L1    12  0.30

> <Gold.Chemscore.Hbond.Weighted>
-12.2440

> <Gold.Chemscore.Metal.Weighted>
-0.0000

> <Gold.Chemscore.Lipo.Weighted>
-10.4375

> <Gold.Chemscore.Internal_Hbond.Weighted>
0.0000

> <Gold.Chemscore.DEClash.Weighted>
0.0475

> <Gold.Chemscore.DEInternal.Weighted>
0.9133

> <Gold.Chemscore.Rot.Weighted>
6.7251

> <Gold.Chemscore.Internal.Correction.Weighted>
   9.000000E+99

> <Gold.Protein.RotatedTorsions>
[ 6907 6896 6895 6894 ] final -103.76 input  -60.11 | X-H torsion
[ 7974 7965 7964 7962 ] final -141.43 input  175.53 | X-H torsion
[ 8008 7997 7996 7995 ] final   13.07 input   59.86 | X-H torsion
[ 10167 10162 10161 10158 ] final  132.27 input  -65.29 | X-H torsion
[ 10718 10713 10712 10709 ] final -116.81 input   66.30 | X-H torsion
[ 10763 10752 10751 10750 ] final  -56.34 input  -60.55 | X-H torsion
[ 11005 11000 10999 10996 ] final  -12.15 input  -57.11 | X-H torsion

> <Gold.Protein.ActiveResidues>
 VAL166  LYS551  ARG553  GLY616  TRP617  ASP618  TYR619  PRO620  LYS621  CYS622 
 ASP623  PHE694  ASN695  SER759  ASP760  ASP761  ALA762  ILE779  LEU786  VAL792 
 PHE793  MET794  SER795  GLU796  ALA797  LYS798  CYS799  TRP800  GLU811  SER814 

> <Gold.Protein.RotatedAtoms>
  150.7255  134.0380  159.3755 H   0  0  0  0  0  0  0  0  0  0  0  0  # atno 6907 bound_to 6896
  151.8352  135.0606  160.0451 H   0  0  0  0  0  0  0  0  0  0  0  0  # atno 6908 bound_to 6896
  152.2903  133.5519  159.5590 H   0  0  0  0  0  0  0  0  0  0  0  0  # atno 6909 bound_to 6896
  144.8520  140.6080  143.5384 H   0  0  0  0  0  0  0  0  0  0  0  0  # atno 7974 bound_to 7965
  154.8294  140.2897  155.5733 H   0  0  0  0  0  0  0  0  0  0  0  0  # atno 8008 bound_to 7997
  156.3004  140.2535  156.3147 H   0  0  0  0  0  0  0  0  0  0  0  0  # atno 8009 bound_to 7997
  154.9249  140.0385  157.2007 H   0  0  0  0  0  0  0  0  0  0  0  0  # atno 8010 bound_to 7997
  139.5347  144.6669  151.4828 H   0  0  0  0  0  0  0  0  0  0  0  0  # atno 10167 bound_to 10162
  156.0990  130.6156  150.9084 H   0  0  0  0  0  0  0  0  0  0  0  0  # atno 10718 bound_to 10713
  154.2051  135.6404  153.5098 H   0  0  0  0  0  0  0  0  0  0  0  0  # atno 10763 bound_to 10752
  153.0003  135.5460  154.6274 H   0  0  0  0  0  0  0  0  0  0  0  0  # atno 10764 bound_to 10752
  154.5697  135.2916  155.0813 H   0  0  0  0  0  0  0  0  0  0  0  0  # atno 10765 bound_to 10752
  140.7627  133.8502  155.9139 H   0  0  0  0  0  0  0  0  0  0  0  0  # atno 11005 bound_to 11000
  145.4482  139.1527  143.3933 LP  0  0  0  0  0  0  0  0  0  0  0  0  # atno 17320 bound_to 7965
  146.2792  140.4606  142.8783 LP  0  0  0  0  0  0  0  0  0  0  0  0  # atno 17321 bound_to 7965
  140.6546  143.8626  150.6821 LP  0  0  0  0  0  0  0  0  0  0  0  0  # atno 17342 bound_to 10162
  140.2001  143.3966  152.1798 LP  0  0  0  0  0  0  0  0  0  0  0  0  # atno 17343 bound_to 10162
  157.6156  131.0933  150.8716 LP  0  0  0  0  0  0  0  0  0  0  0  0  # atno 17370 bound_to 10713
  156.8848  130.5192  149.5289 LP  0  0  0  0  0  0  0  0  0  0  0  0  # atno 17371 bound_to 10713
  140.9648  134.1609  157.4625 LP  0  0  0  0  0  0  0  0  0  0  0  0  # atno 17394 bound_to 11000
  139.8768  134.9957  156.5759 LP  0  0  0  0  0  0  0  0  0  0  0  0  # atno 17395 bound_to 11000

$$$$
