AV-unprocessed.smi:256|AV-procd|sdf|1958|dock8
  -GOLD-   2262021103D 1   1.00000     0.00000
 Structure written by MMmdl.
 62 65  0  0  0  0  0  0  0  0  2 V2000
  148.1498  133.3392  152.5807 C   0  0  0  0  0  0  0  0  0  0  0  0
  146.7712  134.0159  152.5752 C   0  0  0  0  0  0  0  0  0  0  0  0
  145.6687  133.2307  153.3369 C   0  0  1  0  0  0  0  0  0  0  0  0
  145.7545  133.3659  154.8775 C   0  0  0  0  0  0  0  0  0  0  0  0
  145.2917  134.6730  155.3402 N   0  0  0  0  0  0  0  0  0  0  0  0
  146.2270  135.6549  155.4509 C   0  0  0  0  0  0  0  0  0  0  0  0
  145.8654  136.9530  155.2650 N   0  0  0  0  0  0  0  0  0  0  0  0
  146.7766  137.9273  155.3262 C   0  0  0  0  0  0  0  0  0  0  0  0
  148.0858  137.8294  155.5587 N   0  0  0  0  0  0  0  0  0  0  0  0
  148.4558  136.5341  155.7670 C   0  0  0  0  0  0  0  0  0  0  0  0
  147.5982  135.3977  155.7413 C   0  0  0  0  0  0  0  0  0  0  0  0
  148.3320  134.2505  156.0205 N   0  0  0  0  0  0  0  0  0  0  0  0
  149.5530  134.6811  156.1823 C   0  0  0  0  0  0  0  0  0  0  0  0
  149.7206  136.0387  156.0318 N   0  0  0  0  0  0  0  0  0  0  0  0
  150.9674  136.7809  156.1448 C   0  0  0  0  0  0  0  0  0  0  0  0
  151.4437  137.4205  154.8115 C   0  0  0  0  0  0  0  0  0  0  0  0
  151.7625  136.3654  153.9228 O   0  0  0  0  0  0  0  0  0  0  0  0
  150.3820  138.3037  154.1200 C   0  0  0  0  0  0  0  0  0  0  0  0
  150.2001  139.6417  154.8572 C   0  0  0  0  0  0  0  0  0  0  0  0
  151.4476  140.3220  154.9391 O   0  0  0  0  0  0  0  0  0  0  0  0
  152.4250  139.6050  155.6858 C   0  0  0  0  0  0  0  0  0  0  0  0
  152.7242  138.2571  155.0045 C   0  0  0  0  0  0  0  0  0  0  0  0
  143.9425  135.0124  154.8937 C   0  0  0  0  0  0  0  0  0  0  0  0
  143.8132  134.8942  153.3642 C   0  0  0  0  0  0  0  0  0  0  0  0
  144.2808  133.5670  152.8833 N   0  3  1  0  0  0  0  0  0  0  0  0
  143.9851  133.3582  151.4394 C   0  0  0  0  0  0  0  0  0  0  0  0
  144.0852  131.8850  150.9968 C   0  0  0  0  0  0  0  0  0  0  0  0
  144.4032  131.7608  149.6166 O   0  0  0  0  0  0  0  0  0  0  0  0
  145.7257  132.1522  149.2829 C   0  0  0  0  0  0  0  0  0  0  0  0
  148.8471  133.8862  151.9458 H   0  0  0  0  0  0  0  0  0  0  0  0
  148.0911  132.3180  152.2037 H   0  0  0  0  0  0  0  0  0  0  0  0
  148.5854  133.3074  153.5785 H   0  0  0  0  0  0  0  0  0  0  0  0
  146.8710  135.0265  152.9680 H   0  0  0  0  0  0  0  0  0  0  0  0
  146.4834  134.1318  151.5313 H   0  0  0  0  0  0  0  0  0  0  0  0
  145.8319  132.1740  153.1281 H   0  0  0  0  0  0  0  0  0  0  0  0
  145.1063  132.6163  155.3334 H   0  0  0  0  0  0  0  0  0  0  0  0
  146.7544  133.1256  155.2307 H   0  0  0  0  0  0  0  0  0  0  0  0
  146.4048  138.9279  155.1599 H   0  0  0  0  0  0  0  0  0  0  0  0
  150.3726  134.0149  156.4096 H   0  0  0  0  0  0  0  0  0  0  0  0
  150.8353  137.5427  156.9126 H   0  0  0  0  0  0  0  0  0  0  0  0
  151.7296  136.1019  156.5296 H   0  0  0  0  0  0  0  0  0  0  0  0
  151.4383  136.5885  153.0635 H   0  0  0  0  0  0  0  0  0  0  0  0
  150.6992  138.5218  153.0989 H   0  0  0  0  0  0  0  0  0  0  0  0
  149.4269  137.7861  154.0291 H   0  0  0  0  0  0  0  0  0  0  0  0
  149.4929  140.2710  154.3167 H   0  0  0  0  0  0  0  0  0  0  0  0
  149.7900  139.4947  155.8565 H   0  0  0  0  0  0  0  0  0  0  0  0
  153.3336  140.2049  155.7359 H   0  0  0  0  0  0  0  0  0  0  0  0
  152.0859  139.4674  156.7130 H   0  0  0  0  0  0  0  0  0  0  0  0
  153.4660  137.6999  155.5779 H   0  0  0  0  0  0  0  0  0  0  0  0
  153.1790  138.4617  154.0339 H   0  0  0  0  0  0  0  0  0  0  0  0
  143.2483  134.3196  155.3709 H   0  0  0  0  0  0  0  0  0  0  0  0
  143.6512  136.0075  155.2321 H   0  0  0  0  0  0  0  0  0  0  0  0
  142.7691  135.0405  153.0856 H   0  0  0  0  0  0  0  0  0  0  0  0
  144.3787  135.6843  152.8694 H   0  0  0  0  0  0  0  0  0  0  0  0
  142.9764  133.7179  151.2363 H   0  0  0  0  0  0  0  0  0  0  0  0
  144.6373  133.9795  150.8261 H   0  0  0  0  0  0  0  0  0  0  0  0
  144.8218  131.3556  151.6032 H   0  0  0  0  0  0  0  0  0  0  0  0
  143.1394  131.3743  151.1760 H   0  0  0  0  0  0  0  0  0  0  0  0
  145.9007  131.9655  148.2235 H   0  0  0  0  0  0  0  0  0  0  0  0
  146.4629  131.5809  149.8483 H   0  0  0  0  0  0  0  0  0  0  0  0
  145.8921  133.2144  149.4612 H   0  0  0  0  0  0  0  0  0  0  0  0
  143.6913  132.9016  153.3631 H   0  0  0  0  0  0  0  0  0  0  0  0
  1  2  1  0  0  0  0
  1 30  1  0  0  0  0
  1 31  1  0  0  0  0
  1 32  1  0  0  0  0
  2  3  1  0  0  0  0
  2 33  1  0  0  0  0
  2 34  1  0  0  0  0
  3 25  1  0  0  0  0
  3  4  1  0  0  0  0
  3 35  1  0  0  0  0
  4  5  1  0  0  0  0
  4 36  1  0  0  0  0
  4 37  1  0  0  0  0
  5  6  1  0  0  0  0
  5 23  1  0  0  0  0
  6 11  1  0  0  0  0
  6  7  2  0  0  0  0
  7  8  1  0  0  0  0
  8  9  2  0  0  0  0
  8 38  1  0  0  0  0
  9 10  1  0  0  0  0
 10 14  1  0  0  0  0
 10 11  2  0  0  0  0
 11 12  1  0  0  0  0
 12 13  2  0  0  0  0
 13 14  1  0  0  0  0
 13 39  1  0  0  0  0
 14 15  1  0  0  0  0
 15 16  1  0  0  0  0
 15 40  1  0  0  0  0
 15 41  1  0  0  0  0
 16 22  1  0  0  0  0
 16 17  1  0  0  0  0
 16 18  1  0  0  0  0
 17 42  1  0  0  0  0
 18 19  1  0  0  0  0
 18 43  1  0  0  0  0
 18 44  1  0  0  0  0
 19 20  1  0  0  0  0
 19 45  1  0  0  0  0
 19 46  1  0  0  0  0
 20 21  1  0  0  0  0
 21 22  1  0  0  0  0
 21 47  1  0  0  0  0
 21 48  1  0  0  0  0
 22 49  1  0  0  0  0
 22 50  1  0  0  0  0
 23 24  1  0  0  0  0
 23 51  1  0  0  0  0
 23 52  1  0  0  0  0
 24 25  1  0  0  0  0
 24 53  1  0  0  0  0
 24 54  1  0  0  0  0
 25 26  1  0  0  0  0
 25 62  1  0  0  0  0
 26 27  1  0  0  0  0
 26 55  1  0  0  0  0
 26 56  1  0  0  0  0
 27 28  1  0  0  0  0
 27 57  1  0  0  0  0
 27 58  1  0  0  0  0
 28 29  1  0  0  0  0
 29 59  1  0  0  0  0
 29 60  1  0  0  0  0
 29 61  1  0  0  0  0
M  CHG  1  25   1
M  END
> <s_m_source_file>
AV-unprocessed.smi

> <i_m_source_file_index>
256

> <i_lp_mmshare_version>
43012

> <i_f3d_flags>
0

> <s_epik_input>
W0NIM11PW0NIMl1bQ0gyXU4xW0NIMl1bQ0gyXU4oW0NIMl1bQ0BIXTFbQ0gyXVtDSDNdKWMobltjSF1uMiljKGMyMyluW2NIXW4zW0NIMl1DNChbT0hdKVtDSDJdW0NIMl1PW0NIMl1bQ0gyXTQ=

> <s_epik_cmdline>
J2VwaWtfcHl0aG9uJywgJy1waCcsICc3LjAnLCAnLXRuJywgJzgnLCAnLW1hJywgJzIwMCcsICctbWV0YWxfYmluZGluZycsICctaW1hZScsICc8aW5maWxlLm1hZT4nLCAnLW9tYWUnLCAnPG91dGZpbGUubWFlPic=

> <r_lp_tautomer_probability>
1

> <r_epik_Ionization_Penalty>
0.233023

> <r_epik_Ionization_Penalty_Charging>
0.23295

> <r_epik_Ionization_Penalty_Neutral>
7.2493e-05

> <r_epik_State_Penalty>
0.223667

> <r_epik_Charging_Adjusted_Penalty>
0.456618

> <i_epik_Tot_Q>
1

> <i_epik_Tot_abs_Q>
1

> <r_epik_Metal_State_Penalty>
0.226879

> <b_epik_Metal_Only>
0

> <s_lp_Force_Field>
OPLS_2005

> <r_lp_Energy>
45.4801

> <b_lp_Chiralities_Consistent>
1

> <s_lp_Variant>
AV-unprocessed.smi:256-2

> <Gold.Version>
5.8.1

> <Gold.Id.Protein>
6NUR|6NUR_protein|mol2

> <Gold.PLP.Fitness>
50.8795

> <Gold.PLP.PLP>
-36.1410

> <Gold.PLP.part.hbond>
-4.8546

> <Gold.PLP.part.metal>
0.0000

> <Gold.PLP.part.buried>
-1.8138

> <Gold.PLP.part.nonpolar>
-29.3098

> <Gold.PLP.part.repulsive>
0.2908

> <Gold.PLP.ligand.clash>
0.0000

> <Gold.PLP.ligand.torsion>
0.7021

> <Gold.PLP.Chemscore.Hbond>
5.2155

> <Gold.PLP.Chemscore.CHOScore>
0.0000

> <Gold.PLP.Chemscore.Metal>
0.0000

> <Gold.Chemscore.Hbonds>
donor molecule, donor type, donor heavy atom, donor atom, acceptor molecule, acceptor atom, score
      L1  H    17    42       P1  7949  0.88
      L1  H    25    62       P1 10957  1.76
      P1  H  7989  7998       L1    20  1.00
      P1  H 10752 10764       L1    17  0.80
      P1  H 10785 10796       L1    28  0.33

> <Gold.PLP.Chemscore.Internal.Correction>
0.4963

> <Gold.Rescore>
     Score         DG    S(hbond)    S(metal)    S(lipo)     H(rot)  DE(clash)    DE(int)     intcor
     17.14     -21.62       3.78        0.00      87.98       2.65       0.11       4.37       ----

> <Gold.Chemscore.Fitness>
17.1417

> <Gold.Chemscore.DG>
-21.6201

> <Gold.Chemscore.ZeroCoef>
-5.4800

> <Gold.Chemscore.Hbond>
3.7785

> <Gold.Chemscore.Metal>
0.0000

> <Gold.Chemscore.Lipo>
87.9844

> <Gold.Chemscore.Internal_Hbond>
0.0000

> <Gold.Chemscore.DEClash>
0.1106

> <Gold.Chemscore.DEInternal>
4.3678

> <Gold.Chemscore.Rot>
2.6462

> <Gold.Chemscore.Internal.Correction>
   9.000000E+99

> <Gold.Chemscore.Hbonds>
donor molecule, donor type, donor heavy atom, donor atom, acceptor molecule, acceptor atom, score
      L1  H    17    42       P1  7949  0.76
      L1  H    25    62       P1 10957  0.60
      P1  H  7989  7998       L1    20  0.40
      P1  H 10752 10764       L1    17  0.61
      P1  H 10785 10796       L1    28  0.23

> <Gold.Chemscore.Hbond.Weighted>
-12.6201

> <Gold.Chemscore.Metal.Weighted>
-0.0000

> <Gold.Chemscore.Lipo.Weighted>
-10.2942

> <Gold.Chemscore.Internal_Hbond.Weighted>
0.0000

> <Gold.Chemscore.DEClash.Weighted>
0.1106

> <Gold.Chemscore.DEInternal.Weighted>
4.3678

> <Gold.Chemscore.Rot.Weighted>
6.7742

> <Gold.Chemscore.Internal.Correction.Weighted>
   9.000000E+99

> <Gold.Protein.RotatedTorsions>
[ 6907 6896 6895 6894 ] final -147.99 input  -60.11 | X-H torsion
[ 7974 7965 7964 7962 ] final  -70.15 input  175.53 | X-H torsion
[ 8008 7997 7996 7995 ] final   25.89 input   59.86 | X-H torsion
[ 10167 10162 10161 10158 ] final  -60.97 input  -65.29 | X-H torsion
[ 10718 10713 10712 10709 ] final  -62.40 input   66.30 | X-H torsion
[ 10763 10752 10751 10750 ] final  -69.75 input  -60.55 | X-H torsion
[ 11005 11000 10999 10996 ] final  -90.77 input  -57.11 | X-H torsion

> <Gold.Protein.ActiveResidues>
 VAL166  LYS551  ARG553  GLY616  TRP617  ASP618  TYR619  PRO620  LYS621  CYS622 
 ASP623  PHE694  ASN695  SER759  ASP760  ASP761  ALA762  ILE779  LEU786  VAL792 
 PHE793  MET794  SER795  GLU796  ALA797  LYS798  CYS799  TRP800  GLU811  SER814 

> <Gold.Protein.RotatedAtoms>
  151.1635  133.4830  159.2593 H   0  0  0  0  0  0  0  0  0  0  0  0  # atno 6907 bound_to 6896
  151.1430  135.0189  159.8644 H   0  0  0  0  0  0  0  0  0  0  0  0  # atno 6908 bound_to 6896
  152.5462  134.1526  159.8578 H   0  0  0  0  0  0  0  0  0  0  0  0  # atno 6909 bound_to 6896
  145.6946  140.9140  143.0763 H   0  0  0  0  0  0  0  0  0  0  0  0  # atno 7974 bound_to 7965
  155.0188  140.3145  155.4801 H   0  0  0  0  0  0  0  0  0  0  0  0  # atno 8008 bound_to 7997
  156.2896  140.2201  156.5247 H   0  0  0  0  0  0  0  0  0  0  0  0  # atno 8009 bound_to 7997
  154.7470  140.0469  157.0848 H   0  0  0  0  0  0  0  0  0  0  0  0  # atno 8010 bound_to 7997
  140.6037  143.2368  151.5871 H   0  0  0  0  0  0  0  0  0  0  0  0  # atno 10167 bound_to 10162
  156.0858  130.4208  150.1129 H   0  0  0  0  0  0  0  0  0  0  0  0  # atno 10718 bound_to 10713
  154.4079  135.6016  153.5935 H   0  0  0  0  0  0  0  0  0  0  0  0  # atno 10763 bound_to 10752
  152.9789  135.5922  154.4105 H   0  0  0  0  0  0  0  0  0  0  0  0  # atno 10764 bound_to 10752
  154.3913  135.2842  155.2131 H   0  0  0  0  0  0  0  0  0  0  0  0  # atno 10765 bound_to 10752
  141.1559  133.7713  156.9785 H   0  0  0  0  0  0  0  0  0  0  0  0  # atno 11005 bound_to 11000
  144.6986  139.8867  143.7450 LP  0  0  0  0  0  0  0  0  0  0  0  0  # atno 17320 bound_to 7965
  146.0851  139.3840  143.0440 LP  0  0  0  0  0  0  0  0  0  0  0  0  # atno 17321 bound_to 7965
  139.5309  144.2919  152.1145 LP  0  0  0  0  0  0  0  0  0  0  0  0  # atno 17342 bound_to 10162
  140.2104  144.4568  150.6388 LP  0  0  0  0  0  0  0  0  0  0  0  0  # atno 17343 bound_to 10162
  156.9151  130.9664  151.3557 LP  0  0  0  0  0  0  0  0  0  0  0  0  # atno 17370 bound_to 10713
  157.5991  130.8499  149.8775 LP  0  0  0  0  0  0  0  0  0  0  0  0  # atno 17371 bound_to 10713
  140.1082  134.9493  157.2025 LP  0  0  0  0  0  0  0  0  0  0  0  0  # atno 17394 bound_to 11000
  140.3229  134.2896  155.7242 LP  0  0  0  0  0  0  0  0  0  0  0  0  # atno 17395 bound_to 11000

$$$$
