AV-unprocessed.smi:3321|AV-procd|sdf|12769|dock10
  -GOLD-   2272019113D 1   1.00000     0.00000
 Structure written by MMmdl.
 41 42  0  0  0  0  0  0  0  0  2 V2000
  146.8792  137.4360  155.7638 C   0  0  0  0  0  0  0  0  0  0  0  0
  147.5921  137.9467  154.5013 C   0  0  2  0  0  0  0  0  0  0  0  0
  147.2074  137.1049  153.3437 N   0  3  0  0  0  0  0  0  0  0  0  0
  146.0318  137.5850  152.5860 C   0  0  0  0  0  0  0  0  0  0  0  0
  145.8492  136.7863  151.2876 C   0  0  0  0  0  0  0  0  0  0  0  0
  145.1395  135.5423  151.5160 N   0  0  0  0  0  0  0  0  0  0  0  0
  144.8005  134.5665  150.6023 C   0  0  0  0  0  0  0  0  0  0  0  0
  144.1376  133.5859  151.2830 C   0  0  0  0  0  0  0  0  0  0  0  0
  144.1155  134.0603  152.6243 C   0  0  0  0  0  0  0  0  0  0  0  0
  144.7143  135.2328  152.7598 N   0  0  0  0  0  0  0  0  0  0  0  0
  149.1203  137.9525  154.7204 C   0  0  0  0  0  0  0  0  0  0  0  0
  149.6550  136.9037  155.0851 O   0  0  0  0  0  0  0  0  0  0  0  0
  149.8337  139.0881  154.5140 N   0  0  0  0  0  0  0  0  0  0  0  0
  151.2806  139.2537  154.7086 C   0  0  0  0  0  0  0  0  0  0  0  0
  151.5078  140.0869  155.9826 C   0  0  0  0  0  0  0  0  0  0  0  0
  150.7844  141.4443  155.8809 C   0  0  0  0  0  0  0  0  0  0  0  0
  149.3122  141.2812  155.4539 C   0  0  0  0  0  0  0  0  0  0  0  0
  149.1921  140.3752  154.2140 C   0  0  0  0  0  0  0  0  0  0  0  0
  147.1265  138.0389  156.6384 H   0  0  0  0  0  0  0  0  0  0  0  0
  147.1532  136.4038  155.9874 H   0  0  0  0  0  0  0  0  0  0  0  0
  145.7963  137.4709  155.6411 H   0  0  0  0  0  0  0  0  0  0  0  0
  147.2350  138.9509  154.2764 H   0  0  0  0  0  0  0  0  0  0  0  0
  147.9993  137.0414  152.7197 H   0  0  0  0  0  0  0  0  0  0  0  0
  145.1405  137.4909  153.2079 H   0  0  0  0  0  0  0  0  0  0  0  0
  146.1524  138.6445  152.3561 H   0  0  0  0  0  0  0  0  0  0  0  0
  145.2941  137.3713  150.5525 H   0  0  0  0  0  0  0  0  0  0  0  0
  146.8188  136.5553  150.8440 H   0  0  0  0  0  0  0  0  0  0  0  0
  145.0569  134.6483  149.5561 H   0  0  0  0  0  0  0  0  0  0  0  0
  143.7292  132.6692  150.8842 H   0  0  0  0  0  0  0  0  0  0  0  0
  143.6851  133.5909  153.4967 H   0  0  0  0  0  0  0  0  0  0  0  0
  151.8332  138.3180  154.7586 H   0  0  0  0  0  0  0  0  0  0  0  0
  151.6994  139.7778  153.8482 H   0  0  0  0  0  0  0  0  0  0  0  0
  151.1394  139.5377  156.8502 H   0  0  0  0  0  0  0  0  0  0  0  0
  152.5744  140.2447  156.1448 H   0  0  0  0  0  0  0  0  0  0  0  0
  150.8454  141.9767  156.8304 H   0  0  0  0  0  0  0  0  0  0  0  0
  151.2987  142.0654  155.1465 H   0  0  0  0  0  0  0  0  0  0  0  0
  148.7398  140.8491  156.2758 H   0  0  0  0  0  0  0  0  0  0  0  0
  148.8720  142.2576  155.2501 H   0  0  0  0  0  0  0  0  0  0  0  0
  149.6861  140.8395  153.3592 H   0  0  0  0  0  0  0  0  0  0  0  0
  148.1443  140.2745  153.9284 H   0  0  0  0  0  0  0  0  0  0  0  0
  146.9920  136.1803  153.6881 H   0  0  0  0  0  0  0  0  0  0  0  0
  1  2  1  0  0  0  0
  1 19  1  0  0  0  0
  1 20  1  0  0  0  0
  1 21  1  0  0  0  0
  2  3  1  0  0  0  0
  2 11  1  0  0  0  0
  2 22  1  0  0  0  0
  3  4  1  0  0  0  0
  3 23  1  0  0  0  0
  3 41  1  0  0  0  0
  4  5  1  0  0  0  0
  4 24  1  0  0  0  0
  4 25  1  0  0  0  0
  5  6  1  0  0  0  0
  5 26  1  0  0  0  0
  5 27  1  0  0  0  0
  6 10  1  0  0  0  0
  6  7  1  0  0  0  0
  7  8  2  0  0  0  0
  7 28  1  0  0  0  0
  8  9  1  0  0  0  0
  8 29  1  0  0  0  0
  9 10  2  0  0  0  0
  9 30  1  0  0  0  0
 11 12  2  0  0  0  0
 11 13  1  0  0  0  0
 13 18  1  0  0  0  0
 13 14  1  0  0  0  0
 14 15  1  0  0  0  0
 14 31  1  0  0  0  0
 14 32  1  0  0  0  0
 15 16  1  0  0  0  0
 15 33  1  0  0  0  0
 15 34  1  0  0  0  0
 16 17  1  0  0  0  0
 16 35  1  0  0  0  0
 16 36  1  0  0  0  0
 17 18  1  0  0  0  0
 17 37  1  0  0  0  0
 17 38  1  0  0  0  0
 18 39  1  0  0  0  0
 18 40  1  0  0  0  0
M  CHG  1   3   1
M  END
> <s_m_source_file>
AV-unprocessed.smi

> <i_m_source_file_index>
3321

> <i_lp_mmshare_version>
43012

> <i_f3d_flags>
0

> <s_epik_input>
W0NIMl0xW0NIMl1bQ0gyXVtDSDJdW0NIMl1OMUMoPU8pW0NASF0oW0NIM10pW05IXVtDSDJdW0NIMl1uMltjSF1bY0hdW2NIXW4y

> <s_epik_cmdline>
J2VwaWtfcHl0aG9uJywgJy1waCcsICc3LjAnLCAnLXRuJywgJzgnLCAnLW1hJywgJzIwMCcsICctbWV0YWxfYmluZGluZycsICctaW1hZScsICc8aW5maWxlLm1hZT4nLCAnLW9tYWUnLCAnPG91dGZpbGUubWFlPic=

> <r_lp_tautomer_probability>
1

> <r_epik_Ionization_Penalty>
0.202061

> <r_epik_Ionization_Penalty_Charging>
0.202058

> <r_epik_Ionization_Penalty_Neutral>
2.46932e-06

> <r_epik_State_Penalty>
0.191938

> <r_epik_Charging_Adjusted_Penalty>
0.393996

> <i_epik_Tot_Q>
1

> <i_epik_Tot_abs_Q>
1

> <r_epik_Metal_State_Penalty>
0.192188

> <b_epik_Metal_Only>
0

> <s_lp_Force_Field>
OPLS_2005

> <r_lp_Energy>
26.3396

> <b_lp_Chiralities_Consistent>
1

> <s_lp_Variant>
AV-unprocessed.smi:3321-1

> <Gold.Version>
5.8.1

> <Gold.Id.Protein>
6NUR|6NUR_protein|mol2

> <Gold.PLP.Fitness>
40.9892

> <Gold.PLP.PLP>
-30.2699

> <Gold.PLP.part.hbond>
-0.8879

> <Gold.PLP.part.metal>
0.0000

> <Gold.PLP.part.buried>
0.5714

> <Gold.PLP.part.nonpolar>
-30.5110

> <Gold.PLP.part.repulsive>
0.2393

> <Gold.PLP.ligand.clash>
0.0000

> <Gold.PLP.ligand.torsion>
0.6631

> <Gold.PLP.Chemscore.Hbond>
2.0000

> <Gold.PLP.Chemscore.CHOScore>
1.9934

> <Gold.PLP.Chemscore.Metal>
0.0000

> <Gold.Chemscore.Hbonds>
donor molecule, donor type, donor heavy atom, donor atom, acceptor molecule, acceptor atom, score
      L1  H     3    23       P1  7948  1.92
      L1  C     7    28       P1  7921  1.00
      L1  C     9    30       P1 10957  1.00

> <Gold.PLP.Chemscore.Internal.Correction>
0.0655

> <Gold.Rescore>
     Score         DG    S(hbond)    S(metal)    S(lipo)     H(rot)  DE(clash)    DE(int)     intcor
     11.04     -11.75       0.96        0.00      65.37       1.79       0.07       0.64       ----

> <Gold.Chemscore.Fitness>
11.0383

> <Gold.Chemscore.DG>
-11.7498

> <Gold.Chemscore.ZeroCoef>
-5.4800

> <Gold.Chemscore.Hbond>
0.9614

> <Gold.Chemscore.Metal>
0.0000

> <Gold.Chemscore.Lipo>
65.3680

> <Gold.Chemscore.Internal_Hbond>
0.0000

> <Gold.Chemscore.DEClash>
0.0719

> <Gold.Chemscore.DEInternal>
0.6396

> <Gold.Chemscore.Rot>
1.7928

> <Gold.Chemscore.Internal.Correction>
   9.000000E+99

> <Gold.Chemscore.Hbonds>
donor molecule, donor type, donor heavy atom, donor atom, acceptor molecule, acceptor atom, score
      L1  H     3    23       P1  7948  0.88

> <Gold.Chemscore.Hbond.Weighted>
-3.2112

> <Gold.Chemscore.Metal.Weighted>
-0.0000

> <Gold.Chemscore.Lipo.Weighted>
-7.6481

> <Gold.Chemscore.Internal_Hbond.Weighted>
0.0000

> <Gold.Chemscore.DEClash.Weighted>
0.0719

> <Gold.Chemscore.DEInternal.Weighted>
0.6396

> <Gold.Chemscore.Rot.Weighted>
4.5895

> <Gold.Chemscore.Internal.Correction.Weighted>
   9.000000E+99

> <Gold.Protein.RotatedTorsions>
[ 6907 6896 6895 6894 ] final   58.44 input  -60.11 | X-H torsion
[ 7974 7965 7964 7962 ] final   -1.37 input  175.53 | X-H torsion
[ 8008 7997 7996 7995 ] final -111.78 input   59.86 | X-H torsion
[ 10167 10162 10161 10158 ] final -116.95 input  -65.29 | X-H torsion
[ 10718 10713 10712 10709 ] final  107.01 input   66.30 | X-H torsion
[ 10763 10752 10751 10750 ] final  168.19 input  -60.55 | X-H torsion
[ 11005 11000 10999 10996 ] final   61.33 input  -57.11 | X-H torsion

> <Gold.Protein.ActiveResidues>
 VAL166  LYS551  ARG553  GLY616  TRP617  ASP618  TYR619  PRO620  LYS621  CYS622 
 ASP623  PHE694  ASN695  SER759  ASP760  ASP761  ALA762  ILE779  LEU786  VAL792 
 PHE793  MET794  SER795  GLU796  ALA797  LYS798  CYS799  TRP800  GLU811  SER814 

> <Gold.Protein.RotatedAtoms>
  152.3825  134.6569  160.0137 H   0  0  0  0  0  0  0  0  0  0  0  0  # atno 6907 bound_to 6896
  151.6828  133.3306  159.3231 H   0  0  0  0  0  0  0  0  0  0  0  0  # atno 6908 bound_to 6896
  150.7758  134.6702  159.6432 H   0  0  0  0  0  0  0  0  0  0  0  0  # atno 6909 bound_to 6896
  146.2417  140.1411  142.8335 H   0  0  0  0  0  0  0  0  0  0  0  0  # atno 7974 bound_to 7965
  154.9950  140.0395  157.2336 H   0  0  0  0  0  0  0  0  0  0  0  0  # atno 8008 bound_to 7997
  154.7594  140.2781  155.6204 H   0  0  0  0  0  0  0  0  0  0  0  0  # atno 8009 bound_to 7997
  156.2901  140.2631  156.2368 H   0  0  0  0  0  0  0  0  0  0  0  0  # atno 8010 bound_to 7997
  140.0737  143.4853  152.1965 H   0  0  0  0  0  0  0  0  0  0  0  0  # atno 10167 bound_to 10162
  157.6645  131.0863  150.6093 H   0  0  0  0  0  0  0  0  0  0  0  0  # atno 10718 bound_to 10713
  154.3650  135.2753  155.2299 H   0  0  0  0  0  0  0  0  0  0  0  0  # atno 10763 bound_to 10752
  154.4471  135.5940  153.6170 H   0  0  0  0  0  0  0  0  0  0  0  0  # atno 10764 bound_to 10752
  152.9841  135.6033  154.3874 H   0  0  0  0  0  0  0  0  0  0  0  0  # atno 10765 bound_to 10752
  140.0169  134.6212  155.9697 H   0  0  0  0  0  0  0  0  0  0  0  0  # atno 11005 bound_to 11000
  145.0246  140.8821  143.5146 LP  0  0  0  0  0  0  0  0  0  0  0  0  # atno 17320 bound_to 7965
  145.1465  139.2540  143.5463 LP  0  0  0  0  0  0  0  0  0  0  0  0  # atno 17321 bound_to 7965
  139.5821  144.7515  151.3614 LP  0  0  0  0  0  0  0  0  0  0  0  0  # atno 17342 bound_to 10162
  140.7113  143.7383  150.7572 LP  0  0  0  0  0  0  0  0  0  0  0  0  # atno 17343 bound_to 10162
  156.6394  130.4454  149.5758 LP  0  0  0  0  0  0  0  0  0  0  0  0  # atno 17370 bound_to 10713
  156.2221  130.6743  151.1378 LP  0  0  0  0  0  0  0  0  0  0  0  0  # atno 17371 bound_to 10713
  141.1748  133.6539  156.4788 LP  0  0  0  0  0  0  0  0  0  0  0  0  # atno 17394 bound_to 11000
  140.4456  134.6976  157.5014 LP  0  0  0  0  0  0  0  0  0  0  0  0  # atno 17395 bound_to 11000

$$$$
