AV-unprocessed.smi:2140|AV-procd|sdf|8717|dock6
  -GOLD-   2272011483D 1   1.00000     0.00000
 Structure written by MMmdl.
 40 41  0  0  0  0  0  0  0  0  2 V2000
  146.3643  132.5855  154.4231 C   0  0  0  0  0  0  0  0  0  0  0  0
  147.5416  132.4387  153.4282 C   0  0  1  0  0  0  0  0  0  0  0  0
  148.8652  132.8969  154.0985 C   0  0  0  0  0  0  0  0  0  0  0  0
  149.1445  134.3174  153.9054 N   0  0  0  0  0  0  0  0  0  0  0  0
  149.8513  135.0790  154.7527 C   0  0  0  0  0  0  0  0  0  0  0  0
  150.3340  134.6522  155.8014 O   0  0  0  0  0  0  0  0  0  0  0  0
  149.9417  136.3451  154.3116 N   0  0  0  0  0  0  0  0  0  0  0  0
  150.6355  137.4387  154.8971 C   0  0  0  0  0  0  0  0  0  0  0  0
  151.4684  137.3370  156.0383 C   0  0  0  0  0  0  0  0  0  0  0  0
  152.1192  138.4933  156.5097 C   0  0  0  0  0  0  0  0  0  0  0  0
  151.9202  139.7057  155.8215 C   0  0  0  0  0  0  0  0  0  0  0  0
  151.1402  139.8145  154.7255 N   0  0  0  0  0  0  0  0  0  0  0  0
  150.5200  138.7017  154.2786 C   0  0  0  0  0  0  0  0  0  0  0  0
  147.6888  131.0515  152.8768 N   0  3  0  0  0  0  0  0  0  0  0  0
  148.2474  130.0415  153.8185 C   0  0  0  0  0  0  0  0  0  0  0  0
  148.3783  128.6644  153.1447 C   0  0  0  0  0  0  0  0  0  0  0  0
  147.1170  128.2482  152.6437 O   0  0  0  0  0  0  0  0  0  0  0  0
  146.6258  129.1472  151.6607 C   0  0  0  0  0  0  0  0  0  0  0  0
  146.4211  130.5339  152.2919 C   0  0  0  0  0  0  0  0  0  0  0  0
  146.3002  133.5955  154.8277 H   0  0  0  0  0  0  0  0  0  0  0  0
  146.4681  131.9028  155.2670 H   0  0  0  0  0  0  0  0  0  0  0  0
  145.4012  132.4000  153.9477 H   0  0  0  0  0  0  0  0  0  0  0  0
  147.3232  133.0998  152.5879 H   0  0  0  0  0  0  0  0  0  0  0  0
  148.8174  132.7095  155.1717 H   0  0  0  0  0  0  0  0  0  0  0  0
  149.7250  132.3364  153.7348 H   0  0  0  0  0  0  0  0  0  0  0  0
  148.7760  134.7476  153.0694 H   0  0  0  0  0  0  0  0  0  0  0  0
  149.4161  136.5652  153.4782 H   0  0  0  0  0  0  0  0  0  0  0  0
  151.6330  136.4015  156.5496 H   0  0  0  0  0  0  0  0  0  0  0  0
  152.7607  138.4505  157.3775 H   0  0  0  0  0  0  0  0  0  0  0  0
  152.4054  140.6102  156.1566 H   0  0  0  0  0  0  0  0  0  0  0  0
  149.9066  138.8258  153.3979 H   0  0  0  0  0  0  0  0  0  0  0  0
  149.2408  130.3329  154.1576 H   0  0  0  0  0  0  0  0  0  0  0  0
  147.6074  129.9676  154.6993 H   0  0  0  0  0  0  0  0  0  0  0  0
  149.1123  128.6941  152.3375 H   0  0  0  0  0  0  0  0  0  0  0  0
  148.7308  127.9266  153.8658 H   0  0  0  0  0  0  0  0  0  0  0  0
  147.3136  129.1990  150.8150 H   0  0  0  0  0  0  0  0  0  0  0  0
  145.6787  128.7666  151.2779 H   0  0  0  0  0  0  0  0  0  0  0  0
  145.6591  130.4735  153.0707 H   0  0  0  0  0  0  0  0  0  0  0  0
  146.0348  131.2050  151.5272 H   0  0  0  0  0  0  0  0  0  0  0  0
  148.3556  131.1178  152.1209 H   0  0  0  0  0  0  0  0  0  0  0  0
  1  2  1  0  0  0  0
  1 20  1  0  0  0  0
  1 21  1  0  0  0  0
  1 22  1  0  0  0  0
  2  3  1  0  0  0  0
  2 14  1  0  0  0  0
  2 23  1  0  0  0  0
  3  4  1  0  0  0  0
  3 24  1  0  0  0  0
  3 25  1  0  0  0  0
  4  5  1  0  0  0  0
  4 26  1  0  0  0  0
  5  6  2  0  0  0  0
  5  7  1  0  0  0  0
  7  8  1  0  0  0  0
  7 27  1  0  0  0  0
  8 13  1  0  0  0  0
  8  9  2  0  0  0  0
  9 10  1  0  0  0  0
  9 28  1  0  0  0  0
 10 11  2  0  0  0  0
 10 29  1  0  0  0  0
 11 12  1  0  0  0  0
 11 30  1  0  0  0  0
 12 13  2  0  0  0  0
 13 31  1  0  0  0  0
 14 19  1  0  0  0  0
 14 15  1  0  0  0  0
 14 40  1  0  0  0  0
 15 16  1  0  0  0  0
 15 32  1  0  0  0  0
 15 33  1  0  0  0  0
 16 17  1  0  0  0  0
 16 34  1  0  0  0  0
 16 35  1  0  0  0  0
 17 18  1  0  0  0  0
 18 19  1  0  0  0  0
 18 36  1  0  0  0  0
 18 37  1  0  0  0  0
 19 38  1  0  0  0  0
 19 39  1  0  0  0  0
M  CHG  1  14   1
M  END
> <s_m_source_file>
AV-unprocessed.smi

> <i_m_source_file_index>
2140

> <i_lp_mmshare_version>
43012

> <i_f3d_flags>
0

> <s_epik_input>
W0NIMl0xW0NIMl1PW0NIMl1bQ0gyXU4xW0NASF0oW0NIM10pW0NIMl1bTkhdQyg9TylbTkhdYzJbY0hdW2NIXVtjSF1uW2NIXTI=

> <s_epik_cmdline>
J2VwaWtfcHl0aG9uJywgJy1waCcsICc3LjAnLCAnLXRuJywgJzgnLCAnLW1hJywgJzIwMCcsICctbWV0YWxfYmluZGluZycsICctaW1hZScsICc8aW5maWxlLm1hZT4nLCAnLW9tYWUnLCAnPG91dGZpbGUubWFlPic=

> <r_epik_Ionization_Penalty>
0.60672

> <r_epik_Ionization_Penalty_Charging>
0.602531

> <r_epik_Ionization_Penalty_Neutral>
0.00418997

> <r_epik_State_Penalty>
0.607459

> <r_epik_Charging_Adjusted_Penalty>
1.20999

> <i_epik_Tot_Q>
1

> <i_epik_Tot_abs_Q>
1

> <r_epik_Metal_State_Penalty>
0.604586

> <b_epik_Metal_Only>
0

> <s_lp_Force_Field>
OPLS_2005

> <r_lp_Energy>
23.4588

> <b_lp_Chiralities_Consistent>
1

> <s_lp_Variant>
AV-unprocessed.smi:2140-4

> <Gold.Version>
5.8.1

> <Gold.Id.Protein>
6NUR|6NUR_protein|mol2

> <Gold.PLP.Fitness>
44.8782

> <Gold.PLP.PLP>
-31.9123

> <Gold.PLP.part.hbond>
-5.0000

> <Gold.PLP.part.metal>
0.0000

> <Gold.PLP.part.buried>
-2.4669

> <Gold.PLP.part.nonpolar>
-24.6430

> <Gold.PLP.part.repulsive>
0.2710

> <Gold.PLP.ligand.clash>
0.0000

> <Gold.PLP.ligand.torsion>
0.7180

> <Gold.PLP.Chemscore.Hbond>
3.7840

> <Gold.PLP.Chemscore.CHOScore>
1.0000

> <Gold.PLP.Chemscore.Metal>
0.0000

> <Gold.Chemscore.Hbonds>
donor molecule, donor type, donor heavy atom, donor atom, acceptor molecule, acceptor atom, score
      L1  H     4    26       P1  7948  0.85
      L1  H     7    27       P1  7948  0.99
      L1  H    14    40       P1 10747  1.00
      P1  H  7989  7998       L1    12  1.00
      L1  C    13    31       P1  7957  0.95

> <Gold.PLP.Chemscore.Internal.Correction>
0.0498

> <Gold.Rescore>
     Score         DG    S(hbond)    S(metal)    S(lipo)     H(rot)  DE(clash)    DE(int)     intcor
     17.85     -19.75       2.84        0.00      74.00       1.52       0.06       1.85       ----

> <Gold.Chemscore.Fitness>
17.8458

> <Gold.Chemscore.DG>
-19.7525

> <Gold.Chemscore.ZeroCoef>
-5.4800

> <Gold.Chemscore.Hbond>
2.8445

> <Gold.Chemscore.Metal>
0.0000

> <Gold.Chemscore.Lipo>
73.9978

> <Gold.Chemscore.Internal_Hbond>
0.0000

> <Gold.Chemscore.DEClash>
0.0601

> <Gold.Chemscore.DEInternal>
1.8466

> <Gold.Chemscore.Rot>
1.5179

> <Gold.Chemscore.Internal.Correction>
   9.000000E+99

> <Gold.Chemscore.Hbonds>
donor molecule, donor type, donor heavy atom, donor atom, acceptor molecule, acceptor atom, score
      L1  H     4    26       P1  7948  0.19
      L1  H     7    27       P1  7948  0.78
      L1  H    14    40       P1 10747  0.96
      P1  H  7989  7998       L1    12  0.84

> <Gold.Chemscore.Hbond.Weighted>
-9.5006

> <Gold.Chemscore.Metal.Weighted>
-0.0000

> <Gold.Chemscore.Lipo.Weighted>
-8.6577

> <Gold.Chemscore.Internal_Hbond.Weighted>
0.0000

> <Gold.Chemscore.DEClash.Weighted>
0.0601

> <Gold.Chemscore.DEInternal.Weighted>
1.8466

> <Gold.Chemscore.Rot.Weighted>
3.8859

> <Gold.Chemscore.Internal.Correction.Weighted>
   9.000000E+99

> <Gold.Protein.RotatedTorsions>
[ 6907 6896 6895 6894 ] final  -94.00 input  -60.11 | X-H torsion
[ 7974 7965 7964 7962 ] final  -97.10 input  175.53 | X-H torsion
[ 8008 7997 7996 7995 ] final -122.11 input   59.86 | X-H torsion
[ 10167 10162 10161 10158 ] final  -53.20 input  -65.29 | X-H torsion
[ 10718 10713 10712 10709 ] final   -4.07 input   66.30 | X-H torsion
[ 10763 10752 10751 10750 ] final    2.01 input  -60.55 | X-H torsion
[ 11005 11000 10999 10996 ] final  -32.59 input  -57.11 | X-H torsion

> <Gold.Protein.ActiveResidues>
 VAL166  LYS551  ARG553  GLY616  TRP617  ASP618  TYR619  PRO620  LYS621  CYS622 
 ASP623  PHE694  ASN695  SER759  ASP760  ASP761  ALA762  ILE779  LEU786  VAL792 
 PHE793  MET794  SER795  GLU796  ALA797  LYS798  CYS799  TRP800  GLU811  SER814 

> <Gold.Protein.RotatedAtoms>
  150.6933  134.1880  159.4273 H   0  0  0  0  0  0  0  0  0  0  0  0  # atno 6907 bound_to 6896
  151.9852  135.0005  160.0568 H   0  0  0  0  0  0  0  0  0  0  0  0  # atno 6908 bound_to 6896
  152.1718  133.4614  159.4950 H   0  0  0  0  0  0  0  0  0  0  0  0  # atno 6909 bound_to 6896
  145.3381  140.9454  143.2623 H   0  0  0  0  0  0  0  0  0  0  0  0  # atno 7974 bound_to 7965
  155.1588  140.0405  157.2838 H   0  0  0  0  0  0  0  0  0  0  0  0  # atno 8008 bound_to 7997
  154.6351  140.2533  155.7361 H   0  0  0  0  0  0  0  0  0  0  0  0  # atno 8009 bound_to 7997
  156.2504  140.2867  156.0720 H   0  0  0  0  0  0  0  0  0  0  0  0  # atno 8010 bound_to 7997
  140.6497  143.2558  151.4758 H   0  0  0  0  0  0  0  0  0  0  0  0  # atno 10167 bound_to 10162
  156.7668  130.5287  149.5775 H   0  0  0  0  0  0  0  0  0  0  0  0  # atno 10718 bound_to 10713
  153.3008  135.6956  153.7205 H   0  0  0  0  0  0  0  0  0  0  0  0  # atno 10763 bound_to 10752
  153.6119  135.3443  155.2982 H   0  0  0  0  0  0  0  0  0  0  0  0  # atno 10764 bound_to 10752
  154.8550  135.4365  154.2119 H   0  0  0  0  0  0  0  0  0  0  0  0  # atno 10765 bound_to 10752
  140.9565  133.7190  156.1301 H   0  0  0  0  0  0  0  0  0  0  0  0  # atno 11005 bound_to 11000
  144.8811  139.4902  143.6722 LP  0  0  0  0  0  0  0  0  0  0  0  0  # atno 17320 bound_to 7965
  146.3018  139.7452  142.9085 LP  0  0  0  0  0  0  0  0  0  0  0  0  # atno 17321 bound_to 7965
  139.5711  144.1927  152.1837 LP  0  0  0  0  0  0  0  0  0  0  0  0  # atno 17342 bound_to 10162
  140.1223  144.5362  150.6855 LP  0  0  0  0  0  0  0  0  0  0  0  0  # atno 17343 bound_to 10162
  156.1303  130.6173  151.0324 LP  0  0  0  0  0  0  0  0  0  0  0  0  # atno 17370 bound_to 10713
  157.6709  131.0861  150.7614 LP  0  0  0  0  0  0  0  0  0  0  0  0  # atno 17371 bound_to 10713
  140.7529  134.4025  157.5538 LP  0  0  0  0  0  0  0  0  0  0  0  0  # atno 17394 bound_to 11000
  139.8864  134.8911  156.2588 LP  0  0  0  0  0  0  0  0  0  0  0  0  # atno 17395 bound_to 11000

$$$$
