AV-unprocessed.smi:3100|AV-procd|sdf|11805|dock2
  -GOLD-   2272017183D 1   1.00000     0.00000
 Structure written by MMmdl.
 28 29  0  0  0  0  0  0  0  0  1 V2000
  153.3979  142.5542  160.8747 C   0  0  0  0  0  0  0  0  0  0  0  0
  152.3476  143.3413  160.0845 C   0  0  1  0  0  0  0  0  0  0  0  0
  152.8667  143.9415  158.7830 C   0  0  0  0  0  0  0  0  0  0  0  0
  151.5780  144.1866  158.0246 C   0  0  0  0  0  0  0  0  0  0  0  0
  150.6508  143.0612  158.5179 C   0  0  1  0  0  0  0  0  0  0  0  0
  150.4179  141.9527  157.4844 C   0  0  0  0  0  0  0  0  0  0  0  0
  149.2744  141.7047  157.0997 O   0  0  0  0  0  0  0  0  0  0  0  0
  151.5233  141.3206  157.0486 N   0  0  0  0  0  0  0  0  0  0  0  0
  151.6125  140.2540  156.1159 C   0  0  0  0  0  0  0  0  0  0  0  0
  150.5191  140.1206  155.2278 C   0  0  0  0  0  0  0  0  0  0  0  0
  150.4605  139.1565  154.2822 N   0  0  0  0  0  0  0  0  0  0  0  0
  151.5091  138.3084  154.2189 C   0  0  0  0  0  0  0  0  0  0  0  0
  152.6067  138.4261  155.0946 C   0  0  0  0  0  0  0  0  0  0  0  0
  152.6589  139.3924  156.0369 N   0  0  0  0  0  0  0  0  0  0  0  0
  151.3033  142.4835  159.6479 O   0  0  0  0  0  0  0  0  0  0  0  0
  154.2199  143.2005  161.1838 H   0  0  0  0  0  0  0  0  0  0  0  0
  153.8147  141.7421  160.2783 H   0  0  0  0  0  0  0  0  0  0  0  0
  152.9615  142.1170  161.7728 H   0  0  0  0  0  0  0  0  0  0  0  0
  151.9157  144.1260  160.7081 H   0  0  0  0  0  0  0  0  0  0  0  0
  153.4539  144.8478  158.9335 H   0  0  0  0  0  0  0  0  0  0  0  0
  153.4825  143.2179  158.2465 H   0  0  0  0  0  0  0  0  0  0  0  0
  151.1601  145.1547  158.3040 H   0  0  0  0  0  0  0  0  0  0  0  0
  151.7311  144.1982  156.9443 H   0  0  0  0  0  0  0  0  0  0  0  0
  149.6969  143.4859  158.8353 H   0  0  0  0  0  0  0  0  0  0  0  0
  152.4008  141.6384  157.4338 H   0  0  0  0  0  0  0  0  0  0  0  0
  149.6779  140.7970  155.2737 H   0  0  0  0  0  0  0  0  0  0  0  0
  151.4736  137.5342  153.4668 H   0  0  0  0  0  0  0  0  0  0  0  0
  153.4434  137.7453  155.0393 H   0  0  0  0  0  0  0  0  0  0  0  0
  1  2  1  0  0  0  0
  1 16  1  0  0  0  0
  1 17  1  0  0  0  0
  1 18  1  0  0  0  0
  2 15  1  0  0  0  0
  2  3  1  0  0  0  0
  2 19  1  0  0  0  0
  3  4  1  0  0  0  0
  3 20  1  0  0  0  0
  3 21  1  0  0  0  0
  4  5  1  0  0  0  0
  4 22  1  0  0  0  0
  4 23  1  0  0  0  0
  5  6  1  0  0  0  0
  5 15  1  0  0  0  0
  5 24  1  0  0  0  0
  6  7  2  0  0  0  0
  6  8  1  0  0  0  0
  8  9  1  0  0  0  0
  8 25  1  0  0  0  0
  9 14  1  0  0  0  0
  9 10  2  0  0  0  0
 10 11  1  0  0  0  0
 10 26  1  0  0  0  0
 11 12  2  0  0  0  0
 12 13  1  0  0  0  0
 12 27  1  0  0  0  0
 13 14  2  0  0  0  0
 13 28  1  0  0  0  0
M  END
> <s_m_source_file>
AV-unprocessed.smi

> <i_m_source_file_index>
3100

> <i_lp_mmshare_version>
43012

> <i_f3d_flags>
0

> <s_epik_input>
W0NIM11bQ0BASF0xW0NIMl1bQ0gyXVtDQEhdKE8xKUMoPU8pW05IXWMyW2NIXW5bY0hdW2NIXW4y

> <s_epik_cmdline>
J2VwaWtfcHl0aG9uJywgJy1waCcsICc3LjAnLCAnLXRuJywgJzgnLCAnLW1hJywgJzIwMCcsICctbWV0YWxfYmluZGluZycsICctaW1hZScsICc8aW5maWxlLm1hZT4nLCAnLW9tYWUnLCAnPG91dGZpbGUubWFlPic=

> <r_lp_tautomer_probability>
1

> <r_epik_Ionization_Penalty>
2.81186e-06

> <r_epik_Ionization_Penalty_Charging>
0

> <r_epik_Ionization_Penalty_Neutral>
2.81186e-06

> <r_epik_State_Penalty>
-0

> <r_epik_Charging_Adjusted_Penalty>
0

> <i_epik_Tot_Q>
0

> <i_epik_Tot_abs_Q>
0

> <r_epik_Metal_State_Penalty>
-0

> <b_epik_Metal_Only>
0

> <s_lp_Force_Field>
OPLS_2005

> <r_lp_Energy>
25.9666

> <b_lp_Chiralities_Consistent>
1

> <s_lp_Variant>
AV-unprocessed.smi:3100-2

> <Gold.Version>
5.8.1

> <Gold.Id.Protein>
6NUR|6NUR_protein|mol2

> <Gold.PLP.Fitness>
39.9273

> <Gold.PLP.PLP>
-34.1407

> <Gold.PLP.part.hbond>
-2.2494

> <Gold.PLP.part.metal>
0.0000

> <Gold.PLP.part.buried>
-3.6711

> <Gold.PLP.part.nonpolar>
-28.2972

> <Gold.PLP.part.repulsive>
0.3930

> <Gold.PLP.ligand.clash>
0.0000

> <Gold.PLP.ligand.torsion>
0.1106

> <Gold.PLP.Chemscore.Hbond>
1.0000

> <Gold.PLP.Chemscore.CHOScore>
1.0000

> <Gold.PLP.Chemscore.Metal>
0.0000

> <Gold.Chemscore.Hbonds>
donor molecule, donor type, donor heavy atom, donor atom, acceptor molecule, acceptor atom, score
      P1  H  7997  8009       L1    14  1.00
      L1  C    12    27       P1  7949  1.00

> <Gold.PLP.Chemscore.Internal.Correction>
0.0077

> <Gold.Rescore>
     Score         DG    S(hbond)    S(metal)    S(lipo)     H(rot)  DE(clash)    DE(int)     intcor
     14.17     -15.86       0.93        0.00      84.10       1.00       0.10       1.58       ----

> <Gold.Chemscore.Fitness>
14.1727

> <Gold.Chemscore.DG>
-15.8567

> <Gold.Chemscore.ZeroCoef>
-5.4800

> <Gold.Chemscore.Hbond>
0.9272

> <Gold.Chemscore.Metal>
0.0000

> <Gold.Chemscore.Lipo>
84.1019

> <Gold.Chemscore.Internal_Hbond>
0.0000

> <Gold.Chemscore.DEClash>
0.0997

> <Gold.Chemscore.DEInternal>
1.5843

> <Gold.Chemscore.Rot>
1.0000

> <Gold.Chemscore.Internal.Correction>
   9.000000E+99

> <Gold.Chemscore.Hbonds>
donor molecule, donor type, donor heavy atom, donor atom, acceptor molecule, acceptor atom, score
      P1  H  7997  8009       L1    14  0.64

> <Gold.Chemscore.Hbond.Weighted>
-3.0968

> <Gold.Chemscore.Metal.Weighted>
-0.0000

> <Gold.Chemscore.Lipo.Weighted>
-9.8399

> <Gold.Chemscore.Internal_Hbond.Weighted>
0.0000

> <Gold.Chemscore.DEClash.Weighted>
0.0997

> <Gold.Chemscore.DEInternal.Weighted>
1.5843

> <Gold.Chemscore.Rot.Weighted>
2.5600

> <Gold.Chemscore.Internal.Correction.Weighted>
   9.000000E+99

> <Gold.Protein.RotatedTorsions>
[ 6907 6896 6895 6894 ] final  154.55 input  -60.11 | X-H torsion
[ 7974 7965 7964 7962 ] final  156.14 input  175.53 | X-H torsion
[ 8008 7997 7996 7995 ] final -144.13 input   59.86 | X-H torsion
[ 10167 10162 10161 10158 ] final  155.00 input  -65.29 | X-H torsion
[ 10718 10713 10712 10709 ] final  -78.30 input   66.30 | X-H torsion
[ 10763 10752 10751 10750 ] final   50.46 input  -60.55 | X-H torsion
[ 11005 11000 10999 10996 ] final -151.70 input  -57.11 | X-H torsion

> <Gold.Protein.ActiveResidues>
 VAL166  LYS551  ARG553  GLY616  TRP617  ASP618  TYR619  PRO620  LYS621  CYS622 
 ASP623  PHE694  ASN695  SER759  ASP760  ASP761  ALA762  ILE779  LEU786  VAL792 
 PHE793  MET794  SER795  GLU796  ALA797  LYS798  CYS799  TRP800  GLU811  SER814 

> <Gold.Protein.RotatedAtoms>
  152.0569  133.4044  159.4400 H   0  0  0  0  0  0  0  0  0  0  0  0  # atno 6907 bound_to 6896
  150.6867  134.3244  159.4810 H   0  0  0  0  0  0  0  0  0  0  0  0  # atno 6908 bound_to 6896
  152.1061  134.9307  160.0619 H   0  0  0  0  0  0  0  0  0  0  0  0  # atno 6909 bound_to 6896
  144.7981  139.7163  143.6193 H   0  0  0  0  0  0  0  0  0  0  0  0  # atno 7974 bound_to 7965
  155.5219  140.0592  157.2905 H   0  0  0  0  0  0  0  0  0  0  0  0  # atno 8008 bound_to 7997
  154.4514  140.1951  156.0452 H   0  0  0  0  0  0  0  0  0  0  0  0  # atno 8009 bound_to 7997
  156.0713  140.3259  155.7583 H   0  0  0  0  0  0  0  0  0  0  0  0  # atno 8010 bound_to 7997
  139.4822  144.5137  151.7984 H   0  0  0  0  0  0  0  0  0  0  0  0  # atno 10167 bound_to 10162
  156.0121  130.4514  150.3475 H   0  0  0  0  0  0  0  0  0  0  0  0  # atno 10718 bound_to 10713
  152.9784  135.5878  154.4256 H   0  0  0  0  0  0  0  0  0  0  0  0  # atno 10763 bound_to 10752
  154.3875  135.2767  155.2176 H   0  0  0  0  0  0  0  0  0  0  0  0  # atno 10764 bound_to 10752
  154.4063  135.6092  153.5981 H   0  0  0  0  0  0  0  0  0  0  0  0  # atno 10765 bound_to 10752
  140.7267  134.3666  157.5174 H   0  0  0  0  0  0  0  0  0  0  0  0  # atno 11005 bound_to 11000
  146.2255  139.5715  142.9590 LP  0  0  0  0  0  0  0  0  0  0  0  0  # atno 17320 bound_to 7965
  145.5621  141.0403  143.2220 LP  0  0  0  0  0  0  0  0  0  0  0  0  # atno 17321 bound_to 7965
  140.4643  144.1677  150.5910 LP  0  0  0  0  0  0  0  0  0  0  0  0  # atno 17342 bound_to 10162
  140.4450  143.2510  151.9422 LP  0  0  0  0  0  0  0  0  0  0  0  0  # atno 17343 bound_to 10162
  157.1569  131.0335  151.2859 LP  0  0  0  0  0  0  0  0  0  0  0  0  # atno 17370 bound_to 10713
  157.4345  130.7509  149.7017 LP  0  0  0  0  0  0  0  0  0  0  0  0  # atno 17371 bound_to 10713
  139.8835  134.8991  156.2760 LP  0  0  0  0  0  0  0  0  0  0  0  0  # atno 17394 bound_to 11000
  140.9956  133.7182  156.0881 LP  0  0  0  0  0  0  0  0  0  0  0  0  # atno 17395 bound_to 11000

$$$$
