AV-unprocessed.smi:35|AV-procd|sdf|250|dock4
  -GOLD-   2262016 13D 1   1.00000     0.00000
 Structure written by MMmdl.
 29 30  0  0  0  0  0  0  0  0  1 V2000
  152.8437  143.0941  160.4755 O   0  0  0  0  0  0  0  0  0  0  0  0
  152.0895  142.5367  159.6811 C   0  0  0  0  0  0  0  0  0  0  0  0
  152.1832  141.1583  159.4672 N   0  0  0  0  0  0  0  0  0  0  0  0
  151.3827  140.4172  158.5957 C   0  0  0  0  0  0  0  0  0  0  0  0
  151.5621  139.2063  158.4726 O   0  0  0  0  0  0  0  0  0  0  0  0
  150.3893  141.1176  157.8761 N   0  0  0  0  0  0  0  0  0  0  0  0
  149.5049  140.3405  156.9202 C   0  0  1  0  0  0  0  0  0  0  0  0
  148.3432  141.0772  156.6590 O   0  0  0  0  0  0  0  0  0  0  0  0
  148.3177  141.4645  155.2900 C   0  0  2  0  0  0  0  0  0  0  0  0
  146.8774  141.7533  154.8312 C   0  0  0  0  0  0  0  0  0  0  0  0
  146.6074  143.1385  154.7682 O   0  0  0  0  0  0  0  0  0  0  0  0
  149.0683  140.3397  154.5760 C   0  0  1  0  0  0  0  0  0  0  0  0
  149.5236  140.7004  153.2849 O   0  0  0  0  0  0  0  0  0  0  0  0
  150.1926  140.0434  155.5634 C   0  0  1  0  0  0  0  0  0  0  0  0
  151.3407  140.8457  155.3263 O   0  0  0  0  0  0  0  0  0  0  0  0
  150.2668  142.4913  158.0468 C   0  0  0  0  0  0  0  0  0  0  0  0
  151.0538  143.1960  158.8934 C   0  0  0  0  0  0  0  0  0  0  0  0
  150.7237  145.1468  158.9911 Br  0  0  0  0  0  0  0  0  0  0  0  0
  152.8914  140.6577  159.9840 H   0  0  0  0  0  0  0  0  0  0  0  0
  149.1962  139.4393  157.4536 H   0  0  0  0  0  0  0  0  0  0  0  0
  148.8964  142.3863  155.2090 H   0  0  0  0  0  0  0  0  0  0  0  0
  146.6867  141.2978  153.8591 H   0  0  0  0  0  0  0  0  0  0  0  0
  146.1729  141.3096  155.5347 H   0  0  0  0  0  0  0  0  0  0  0  0
  147.4293  143.6050  154.7552 H   0  0  0  0  0  0  0  0  0  0  0  0
  148.4384  139.4537  154.4924 H   0  0  0  0  0  0  0  0  0  0  0  0
  149.2969  140.0084  152.6828 H   0  0  0  0  0  0  0  0  0  0  0  0
  150.4939  138.9960  155.5272 H   0  0  0  0  0  0  0  0  0  0  0  0
  152.0482  140.5174  155.8596 H   0  0  0  0  0  0  0  0  0  0  0  0
  149.5237  143.0383  157.4874 H   0  0  0  0  0  0  0  0  0  0  0  0
  1  2  2  0  0  0  0
  2 17  1  0  0  0  0
  2  3  1  0  0  0  0
  3 19  1  0  0  0  0
  3  4  1  0  0  0  0
  4  5  2  0  0  0  0
  4  6  1  0  0  0  0
  6  7  1  0  0  0  0
  6 16  1  0  0  0  0
  7 14  1  0  0  0  0
  7  8  1  0  0  0  0
  7 20  1  0  0  0  0
  8  9  1  0  0  0  0
  9 10  1  0  0  0  0
  9 12  1  0  0  0  0
  9 21  1  0  0  0  0
 10 11  1  0  0  0  0
 10 22  1  0  0  0  0
 10 23  1  0  0  0  0
 11 24  1  0  0  0  0
 12 13  1  0  0  0  0
 12 14  1  0  0  0  0
 12 25  1  0  0  0  0
 13 26  1  0  0  0  0
 14 15  1  0  0  0  0
 14 27  1  0  0  0  0
 15 28  1  0  0  0  0
 16 17  2  0  0  0  0
 16 29  1  0  0  0  0
 17 18  1  0  0  0  0
M  END
> <s_m_source_file>
AV-unprocessed.smi

> <i_m_source_file_index>
35

> <i_lp_mmshare_version>
43012

> <i_f3d_flags>
0

> <s_epik_input>
Tz1jMVtuSF1jKD1PKW4oW2NIXWMxQnIpW0NAQEhdMk9bQ0BASF0oW0NIMl1bT0hdKVtDQEBIXShbT0hdKVtDQEhdMltPSF0=

> <s_epik_cmdline>
J2VwaWtfcHl0aG9uJywgJy1waCcsICc3LjAnLCAnLXRuJywgJzgnLCAnLW1hJywgJzIwMCcsICctbWV0YWxfYmluZGluZycsICctaW1hZScsICc8aW5maWxlLm1hZT4nLCAnLW9tYWUnLCAnPG91dGZpbGUubWFlPic=

> <r_lp_tautomer_probability>
0.999537

> <r_epik_Ionization_Penalty>
0.10812

> <r_epik_Ionization_Penalty_Charging>
0.108119

> <r_epik_Ionization_Penalty_Neutral>
4.93006e-07

> <r_epik_State_Penalty>
0.0979238

> <r_epik_Charging_Adjusted_Penalty>
0.206043

> <i_epik_Tot_Q>
0

> <i_epik_Tot_abs_Q>
0

> <r_epik_Metal_State_Penalty>
3.07911

> <b_epik_Metal_Only>
0

> <s_epik_Chemistry_Notes>
This compound contains an acetal/aminal-like group ( X-CH(R)-Y where X, Y are N, S, or O) that may be acid/base labile, releasing an aldehyde.

> <s_lp_Force_Field>
OPLS_2005

> <r_lp_Energy>
39.8494

> <b_lp_Chiralities_Consistent>
1

> <s_lp_Variant>
AV-unprocessed.smi:35-4

> <Gold.Version>
5.8.1

> <Gold.Id.Protein>
6NUR|6NUR_protein|mol2

> <Gold.PLP.Fitness>
36.7238

> <Gold.PLP.PLP>
-27.0998

> <Gold.PLP.part.hbond>
-3.7142

> <Gold.PLP.part.metal>
0.0000

> <Gold.PLP.part.buried>
-3.3593

> <Gold.PLP.part.nonpolar>
-20.6353

> <Gold.PLP.part.repulsive>
0.2013

> <Gold.PLP.ligand.clash>
0.0000

> <Gold.PLP.ligand.torsion>
1.1469

> <Gold.PLP.Chemscore.Hbond>
2.9616

> <Gold.PLP.Chemscore.CHOScore>
1.0000

> <Gold.PLP.Chemscore.Metal>
0.0000

> <Gold.Chemscore.Hbonds>
donor molecule, donor type, donor heavy atom, donor atom, acceptor molecule, acceptor atom, score
      L1  H    11    24       P1  8028  0.75
      L1  H    13    26       P1  7957  0.48
      P1  H  7989  7998       L1    15  0.70
      P1  H  8011  8017       L1    13  1.00
      L1  C    16    29       P1  8028  0.94

> <Gold.PLP.Chemscore.Internal.Correction>
0.0331

> <Gold.Rescore>
     Score         DG    S(hbond)    S(metal)    S(lipo)     H(rot)  DE(clash)    DE(int)     intcor
      7.43      -8.33       1.99        0.00      47.93       3.67       0.09       0.81       ----

> <Gold.Chemscore.Fitness>
7.4343

> <Gold.Chemscore.DG>
-8.3297

> <Gold.Chemscore.ZeroCoef>
-5.4800

> <Gold.Chemscore.Hbond>
1.9873

> <Gold.Chemscore.Metal>
0.0000

> <Gold.Chemscore.Lipo>
47.9273

> <Gold.Chemscore.Internal_Hbond>
0.0000

> <Gold.Chemscore.DEClash>
0.0899

> <Gold.Chemscore.DEInternal>
0.8055

> <Gold.Chemscore.Rot>
3.6701

> <Gold.Chemscore.Internal.Correction>
   9.000000E+99

> <Gold.Chemscore.Hbonds>
donor molecule, donor type, donor heavy atom, donor atom, acceptor molecule, acceptor atom, score
      L1  H    11    24       P1  8028  0.09
      L1  H    13    26       P1  7957  0.46
      P1  H  7989  7998       L1    15  0.45
      P1  H  8011  8017       L1    13  0.77

> <Gold.Chemscore.Hbond.Weighted>
-6.6376

> <Gold.Chemscore.Metal.Weighted>
-0.0000

> <Gold.Chemscore.Lipo.Weighted>
-5.6075

> <Gold.Chemscore.Internal_Hbond.Weighted>
0.0000

> <Gold.Chemscore.DEClash.Weighted>
0.0899

> <Gold.Chemscore.DEInternal.Weighted>
0.8055

> <Gold.Chemscore.Rot.Weighted>
9.3955

> <Gold.Chemscore.Internal.Correction.Weighted>
   9.000000E+99

> <Gold.Protein.RotatedTorsions>
[ 6907 6896 6895 6894 ] final  147.52 input  -60.11 | X-H torsion
[ 7974 7965 7964 7962 ] final  -28.61 input  175.53 | X-H torsion
[ 8008 7997 7996 7995 ] final  -13.91 input   59.86 | X-H torsion
[ 10167 10162 10161 10158 ] final   98.47 input  -65.29 | X-H torsion
[ 10718 10713 10712 10709 ] final -112.23 input   66.30 | X-H torsion
[ 10763 10752 10751 10750 ] final   27.09 input  -60.55 | X-H torsion
[ 11005 11000 10999 10996 ] final  -47.18 input  -57.11 | X-H torsion

> <Gold.Protein.ActiveResidues>
 VAL166  LYS551  ARG553  GLY616  TRP617  ASP618  TYR619  PRO620  LYS621  CYS622 
 ASP623  PHE694  ASN695  SER759  ASP760  ASP761  ALA762  ILE779  LEU786  VAL792 
 PHE793  MET794  SER795  GLU796  ALA797  LYS798  CYS799  TRP800  GLU811  SER814 

> <Gold.Protein.RotatedAtoms>
  152.1537  133.4538  159.4825 H   0  0  0  0  0  0  0  0  0  0  0  0  # atno 6907 bound_to 6896
  150.6898  134.2157  159.4386 H   0  0  0  0  0  0  0  0  0  0  0  0  # atno 6908 bound_to 6896
  152.0056  134.9904  160.0617 H   0  0  0  0  0  0  0  0  0  0  0  0  # atno 6909 bound_to 6896
  146.1276  140.5305  142.8708 H   0  0  0  0  0  0  0  0  0  0  0  0  # atno 7974 bound_to 7965
  154.5253  140.2237  155.8901 H   0  0  0  0  0  0  0  0  0  0  0  0  # atno 8008 bound_to 7997
  156.1707  140.3122  155.8932 H   0  0  0  0  0  0  0  0  0  0  0  0  # atno 8009 bound_to 7997
  155.3564  140.0458  157.3037 H   0  0  0  0  0  0  0  0  0  0  0  0  # atno 8010 bound_to 7997
  139.7706  144.6924  151.0162 H   0  0  0  0  0  0  0  0  0  0  0  0  # atno 10167 bound_to 10162
  156.0693  130.5909  150.8480 H   0  0  0  0  0  0  0  0  0  0  0  0  # atno 10718 bound_to 10713
  153.0579  135.6545  154.0533 H   0  0  0  0  0  0  0  0  0  0  0  0  # atno 10763 bound_to 10752
  154.0208  135.2920  155.3382 H   0  0  0  0  0  0  0  0  0  0  0  0  # atno 10764 bound_to 10752
  154.6903  135.5285  153.8450 H   0  0  0  0  0  0  0  0  0  0  0  0  # atno 10765 bound_to 10752
  141.0625  133.6704  156.3261 H   0  0  0  0  0  0  0  0  0  0  0  0  # atno 11005 bound_to 11000
  144.7658  140.5526  143.6704 LP  0  0  0  0  0  0  0  0  0  0  0  0  # atno 17320 bound_to 7965
  145.5332  139.1475  143.3488 LP  0  0  0  0  0  0  0  0  0  0  0  0  # atno 17321 bound_to 7965
  140.7813  143.4593  151.0300 LP  0  0  0  0  0  0  0  0  0  0  0  0  # atno 17342 bound_to 10162
  139.8277  143.7733  152.3179 LP  0  0  0  0  0  0  0  0  0  0  0  0  # atno 17343 bound_to 10162
  157.5755  131.0946  150.9353 LP  0  0  0  0  0  0  0  0  0  0  0  0  # atno 17370 bound_to 10713
  156.9560  130.5437  149.5284 LP  0  0  0  0  0  0  0  0  0  0  0  0  # atno 17371 bound_to 10713
  140.5840  134.5717  157.5485 LP  0  0  0  0  0  0  0  0  0  0  0  0  # atno 17394 bound_to 11000
  139.9446  134.7726  156.0595 LP  0  0  0  0  0  0  0  0  0  0  0  0  # atno 17395 bound_to 11000

$$$$
