AV-unprocessed.smi:1051|AV-procd|sdf|4615|dock5
  -GOLD-   22720 3113D 1   1.00000     0.00000
 Structure written by MMmdl.
 45 47  0  0  0  0  0  0  0  0  1 V2000
  152.5055  138.0716  155.5996 C   0  0  0  0  0  0  0  0  0  0  0  0
  151.9029  139.4195  155.9931 C   0  0  0  0  0  0  0  0  0  0  0  0
  152.5015  140.1156  156.8129 O   0  0  0  0  0  0  0  0  0  0  0  0
  150.6147  139.8213  155.3583 C   0  0  0  0  0  0  0  0  0  0  0  0
  150.1649  141.1538  155.4938 C   0  0  0  0  0  0  0  0  0  0  0  0
  148.9549  141.5616  154.9042 C   0  0  0  0  0  0  0  0  0  0  0  0
  148.1817  140.6408  154.1752 C   0  0  0  0  0  0  0  0  0  0  0  0
  148.6050  139.3057  154.0269 C   0  0  0  0  0  0  0  0  0  0  0  0
  147.7844  138.4715  153.2988 O   0  0  0  0  0  0  0  0  0  0  0  0
  146.4472  138.8844  153.0483 C   0  0  0  0  0  0  0  0  0  0  0  0
  145.7241  137.7693  152.2788 C   0  0  1  0  0  0  0  0  0  0  0  0
  146.3333  137.6741  151.0069 O   0  0  0  0  0  0  0  0  0  0  0  0
  145.8408  136.4031  152.9855 C   0  0  0  0  0  0  0  0  0  0  0  0
  144.6646  135.5701  152.7451 N   0  0  0  0  0  0  0  0  0  0  0  0
  143.4390  135.7292  153.2992 C   0  0  0  0  0  0  0  0  0  0  0  0
  143.1188  136.6069  154.1008 O   0  0  0  0  0  0  0  0  0  0  0  0
  142.6304  134.7587  152.8128 N   0  0  0  0  0  0  0  0  0  0  0  0
  141.2269  134.5380  153.1403 C   0  0  0  0  0  0  0  0  0  0  0  0
  143.3559  133.9615  151.9182 C   0  0  0  0  0  0  0  0  0  0  0  0
  142.9706  132.8456  151.1559 C   0  0  0  0  0  0  0  0  0  0  0  0
  143.9567  132.2564  150.3300 C   0  0  0  0  0  0  0  0  0  0  0  0
  145.2745  132.7813  150.2833 C   0  0  0  0  0  0  0  0  0  0  0  0
  145.6349  133.9064  151.0615 C   0  0  0  0  0  0  0  0  0  0  0  0
  144.6365  134.4716  151.8742 C   0  0  0  0  0  0  0  0  0  0  0  0
  149.8277  138.9027  154.6221 C   0  0  0  0  0  0  0  0  0  0  0  0
  151.8192  137.2600  155.8421 H   0  0  0  0  0  0  0  0  0  0  0  0
  153.4385  137.9000  156.1367 H   0  0  0  0  0  0  0  0  0  0  0  0
  152.7180  138.0455  154.5306 H   0  0  0  0  0  0  0  0  0  0  0  0
  150.7427  141.8778  156.0500 H   0  0  0  0  0  0  0  0  0  0  0  0
  148.6193  142.5824  155.0120 H   0  0  0  0  0  0  0  0  0  0  0  0
  147.2528  140.9615  153.7266 H   0  0  0  0  0  0  0  0  0  0  0  0
  145.9421  139.0629  153.9993 H   0  0  0  0  0  0  0  0  0  0  0  0
  146.4272  139.8115  152.4724 H   0  0  0  0  0  0  0  0  0  0  0  0
  144.6794  138.0538  152.1455 H   0  0  0  0  0  0  0  0  0  0  0  0
  147.0736  137.0900  151.0719 H   0  0  0  0  0  0  0  0  0  0  0  0
  146.7564  135.8846  152.6987 H   0  0  0  0  0  0  0  0  0  0  0  0
  145.9209  136.5515  154.0635 H   0  0  0  0  0  0  0  0  0  0  0  0
  141.1052  133.5757  153.6382 H   0  0  0  0  0  0  0  0  0  0  0  0
  140.6228  134.5322  152.2326 H   0  0  0  0  0  0  0  0  0  0  0  0
  140.8334  135.3115  153.8010 H   0  0  0  0  0  0  0  0  0  0  0  0
  141.9651  132.4534  151.1956 H   0  0  0  0  0  0  0  0  0  0  0  0
  143.7034  131.3971  149.7265 H   0  0  0  0  0  0  0  0  0  0  0  0
  146.0119  132.3167  149.6454 H   0  0  0  0  0  0  0  0  0  0  0  0
  146.6355  134.3110  151.0276 H   0  0  0  0  0  0  0  0  0  0  0  0
  150.1661  137.8847  154.5131 H   0  0  0  0  0  0  0  0  0  0  0  0
  1  2  1  0  0  0  0
  1 26  1  0  0  0  0
  1 27  1  0  0  0  0
  1 28  1  0  0  0  0
  2  3  2  0  0  0  0
  2  4  1  0  0  0  0
  4 25  1  0  0  0  0
  4  5  2  0  0  0  0
  5  6  1  0  0  0  0
  5 29  1  0  0  0  0
  6  7  2  0  0  0  0
  6 30  1  0  0  0  0
  7  8  1  0  0  0  0
  7 31  1  0  0  0  0
  8  9  1  0  0  0  0
  8 25  2  0  0  0  0
  9 10  1  0  0  0  0
 10 11  1  0  0  0  0
 10 32  1  0  0  0  0
 10 33  1  0  0  0  0
 11 12  1  0  0  0  0
 11 13  1  0  0  0  0
 11 34  1  0  0  0  0
 12 35  1  0  0  0  0
 13 14  1  0  0  0  0
 13 36  1  0  0  0  0
 13 37  1  0  0  0  0
 14 24  1  0  0  0  0
 14 15  1  0  0  0  0
 15 16  2  0  0  0  0
 15 17  1  0  0  0  0
 17 18  1  0  0  0  0
 17 19  1  0  0  0  0
 18 38  1  0  0  0  0
 18 39  1  0  0  0  0
 18 40  1  0  0  0  0
 19 24  2  0  0  0  0
 19 20  1  0  0  0  0
 20 21  2  0  0  0  0
 20 41  1  0  0  0  0
 21 22  1  0  0  0  0
 21 42  1  0  0  0  0
 22 23  2  0  0  0  0
 22 43  1  0  0  0  0
 23 24  1  0  0  0  0
 23 44  1  0  0  0  0
 25 45  1  0  0  0  0
M  END
> <s_m_source_file>
AV-unprocessed.smi

> <i_m_source_file_index>
1051

> <i_lp_mmshare_version>
43012

> <i_f3d_flags>
0

> <s_epik_input>
W0NIM11DKD1PKWMxW2NIXVtjSF1bY0hdYyhbY0hdMSlPW0NIMl1bQ0BIXShbT0hdKVtDSDJdbihjKD1PKW4yW0NIM10pYyhjMjMpW2NIXVtjSF1bY0hdW2NIXTM=

> <s_epik_cmdline>
J2VwaWtfcHl0aG9uJywgJy1waCcsICc3LjAnLCAnLXRuJywgJzgnLCAnLW1hJywgJzIwMCcsICctbWV0YWxfYmluZGluZycsICctaW1hZScsICc8aW5maWxlLm1hZT4nLCAnLW9tYWUnLCAnPG91dGZpbGUubWFlPic=

> <r_lp_tautomer_probability>
1

> <r_epik_Ionization_Penalty>
2.40143e-06

> <r_epik_Ionization_Penalty_Charging>
2.1343e-09

> <r_epik_Ionization_Penalty_Neutral>
2.3993e-06

> <r_epik_State_Penalty>
-0

> <r_epik_Charging_Adjusted_Penalty>
2.1343e-09

> <i_epik_Tot_Q>
0

> <i_epik_Tot_abs_Q>
0

> <r_epik_Metal_State_Penalty>
-0

> <b_epik_Metal_Only>
0

> <s_lp_Force_Field>
OPLS_2005

> <r_lp_Energy>
51.4738

> <b_lp_Chiralities_Consistent>
1

> <s_lp_Variant>
AV-unprocessed.smi:1051-2

> <Gold.Version>
5.8.1

> <Gold.Id.Protein>
6NUR|6NUR_protein|mol2

> <Gold.PLP.Fitness>
51.5554

> <Gold.PLP.PLP>
-48.5298

> <Gold.PLP.part.hbond>
-4.0000

> <Gold.PLP.part.metal>
0.0000

> <Gold.PLP.part.buried>
-1.4190

> <Gold.PLP.part.nonpolar>
-45.6926

> <Gold.PLP.part.repulsive>
2.8529

> <Gold.PLP.ligand.clash>
1.3195

> <Gold.PLP.ligand.torsion>
0.8919

> <Gold.PLP.Chemscore.Hbond>
1.9913

> <Gold.PLP.Chemscore.CHOScore>
0.0000

> <Gold.PLP.Chemscore.Metal>
0.0000

> <Gold.Chemscore.Hbonds>
donor molecule, donor type, donor heavy atom, donor atom, acceptor molecule, acceptor atom, score
      L1  H    12    35       P1  7948  0.67
      P1  H  7997  8009       L1     3  1.00

> <Gold.PLP.Chemscore.Internal.Correction>
0.1551

> <Gold.Rescore>
     Score         DG    S(hbond)    S(metal)    S(lipo)     H(rot)  DE(clash)    DE(int)     intcor
     17.10     -19.28       1.94        0.00     112.94       2.30       1.36       0.81       ----

> <Gold.Chemscore.Fitness>
17.1042

> <Gold.Chemscore.DG>
-19.2809

> <Gold.Chemscore.ZeroCoef>
-5.4800

> <Gold.Chemscore.Hbond>
1.9373

> <Gold.Chemscore.Metal>
0.0000

> <Gold.Chemscore.Lipo>
112.9429

> <Gold.Chemscore.Internal_Hbond>
0.0000

> <Gold.Chemscore.DEClash>
1.3623

> <Gold.Chemscore.DEInternal>
0.8144

> <Gold.Chemscore.Rot>
2.2984

> <Gold.Chemscore.Internal.Correction>
   9.000000E+99

> <Gold.Chemscore.Hbonds>
donor molecule, donor type, donor heavy atom, donor atom, acceptor molecule, acceptor atom, score
      L1  H    12    35       P1  7948  0.66
      P1  H  7997  8009       L1     3  0.88

> <Gold.Chemscore.Hbond.Weighted>
-6.4705

> <Gold.Chemscore.Metal.Weighted>
-0.0000

> <Gold.Chemscore.Lipo.Weighted>
-13.2143

> <Gold.Chemscore.Internal_Hbond.Weighted>
0.0000

> <Gold.Chemscore.DEClash.Weighted>
1.3623

> <Gold.Chemscore.DEInternal.Weighted>
0.8144

> <Gold.Chemscore.Rot.Weighted>
5.8839

> <Gold.Chemscore.Internal.Correction.Weighted>
   9.000000E+99

> <Gold.Protein.RotatedTorsions>
[ 6907 6896 6895 6894 ] final  -20.80 input  -60.11 | X-H torsion
[ 7974 7965 7964 7962 ] final -132.85 input  175.53 | X-H torsion
[ 8008 7997 7996 7995 ] final  178.76 input   59.86 | X-H torsion
[ 10167 10162 10161 10158 ] final   25.39 input  -65.29 | X-H torsion
[ 10718 10713 10712 10709 ] final   80.81 input   66.30 | X-H torsion
[ 10763 10752 10751 10750 ] final  -32.55 input  -60.55 | X-H torsion
[ 11005 11000 10999 10996 ] final   95.13 input  -57.11 | X-H torsion

> <Gold.Protein.ActiveResidues>
 VAL166  LYS551  ARG553  GLY616  TRP617  ASP618  TYR619  PRO620  LYS621  CYS622 
 ASP623  PHE694  ASN695  SER759  ASP760  ASP761  ALA762  ILE779  LEU786  VAL792 
 PHE793  MET794  SER795  GLU796  ALA797  LYS798  CYS799  TRP800  GLU811  SER814 

> <Gold.Protein.RotatedAtoms>
  151.2427  135.0595  159.9031 H   0  0  0  0  0  0  0  0  0  0  0  0  # atno 6907 bound_to 6896
  152.5391  134.0416  159.8080 H   0  0  0  0  0  0  0  0  0  0  0  0  # atno 6908 bound_to 6896
  151.0613  133.5493  159.2665 H   0  0  0  0  0  0  0  0  0  0  0  0  # atno 6909 bound_to 6896
  144.9247  140.7056  143.4943 H   0  0  0  0  0  0  0  0  0  0  0  0  # atno 7974 bound_to 7965
  156.0511  140.1325  157.0049 H   0  0  0  0  0  0  0  0  0  0  0  0  # atno 8008 bound_to 7997
  154.4435  140.1011  156.6447 H   0  0  0  0  0  0  0  0  0  0  0  0  # atno 8009 bound_to 7997
  155.5523  140.3463  155.4473 H   0  0  0  0  0  0  0  0  0  0  0  0  # atno 8010 bound_to 7997
  140.5110  144.0161  150.6372 H   0  0  0  0  0  0  0  0  0  0  0  0  # atno 10167 bound_to 10162
  157.6816  130.9976  150.2134 H   0  0  0  0  0  0  0  0  0  0  0  0  # atno 10718 bound_to 10713
  153.8156  135.6878  153.4834 H   0  0  0  0  0  0  0  0  0  0  0  0  # atno 10763 bound_to 10752
  153.1601  135.4583  154.9758 H   0  0  0  0  0  0  0  0  0  0  0  0  # atno 10764 bound_to 10752
  154.7949  135.3315  154.7633 H   0  0  0  0  0  0  0  0  0  0  0  0  # atno 10765 bound_to 10752
  139.8792  134.8882  156.3965 H   0  0  0  0  0  0  0  0  0  0  0  0  # atno 11005 bound_to 11000
  145.3239  139.1780  143.4573 LP  0  0  0  0  0  0  0  0  0  0  0  0  # atno 17320 bound_to 7965
  146.3220  140.3260  142.8637 LP  0  0  0  0  0  0  0  0  0  0  0  0  # atno 17321 bound_to 7965
  140.3483  143.2978  152.0514 LP  0  0  0  0  0  0  0  0  0  0  0  0  # atno 17342 bound_to 10162
  139.4896  144.6392  151.6912 LP  0  0  0  0  0  0  0  0  0  0  0  0  # atno 17343 bound_to 10162
  156.2801  130.3732  149.7944 LP  0  0  0  0  0  0  0  0  0  0  0  0  # atno 17370 bound_to 10713
  156.5635  130.8394  151.3336 LP  0  0  0  0  0  0  0  0  0  0  0  0  # atno 17371 bound_to 10713
  140.9296  133.7588  156.0008 LP  0  0  0  0  0  0  0  0  0  0  0  0  # atno 17394 bound_to 11000
  140.8345  134.3139  157.5336 LP  0  0  0  0  0  0  0  0  0  0  0  0  # atno 17395 bound_to 11000

$$$$
