AV-unprocessed.smi:2480|AV-procd|sdf|9769|dock1
  -GOLD-   2272013413D 1   1.00000     0.00000
 Structure written by MMmdl.
 33 34  0  0  0  0  0  0  0  0  3 V2000
  151.1142  142.7727  157.2671 O   0  0  0  0  0  0  0  0  0  0  0  0
  151.4789  141.6547  157.6245 C   0  0  0  0  0  0  0  0  0  0  0  0
  151.1245  140.5006  157.0263 N   0  0  0  0  0  0  0  0  0  0  0  0
  150.3302  140.2899  155.8633 C   0  0  0  0  0  0  0  0  0  0  0  0
  149.1992  141.0877  155.5614 C   0  0  0  0  0  0  0  0  0  0  0  0
  148.4704  140.8223  154.3870 C   0  0  0  0  0  0  0  0  0  0  0  0
  148.7871  139.8357  153.5258 N   0  0  0  0  0  0  0  0  0  0  0  0
  149.8525  139.0630  153.8211 C   0  0  0  0  0  0  0  0  0  0  0  0
  150.6539  139.2281  154.9741 C   0  0  0  0  0  0  0  0  0  0  0  0
  151.7890  138.3127  155.1989 N   0  3  0  0  0  0  0  0  0  0  0  0
  151.7340  137.1790  154.7329 O   0  0  0  0  0  0  0  0  0  0  0  0
  152.7504  138.7462  155.8246 O   0  5  0  0  0  0  0  0  0  0  0  0
  152.2972  141.4951  158.6818 N   0  0  0  0  0  0  0  0  0  0  0  0
  152.8714  142.5226  159.5544 C   0  0  2  0  0  0  0  0  0  0  0  0
  153.4785  141.8940  160.8027 C   0  0  0  0  0  0  0  0  0  0  0  0
  153.3054  142.3811  162.0433 C   0  0  0  0  0  0  0  0  0  0  0  0
  152.4922  143.6252  162.3479 C   0  0  0  0  0  0  0  0  0  0  0  0
  152.2105  144.4551  161.0830 C   0  0  0  0  0  0  0  0  0  0  0  0
  151.7871  143.5638  159.9056 C   0  0  0  0  0  0  0  0  0  0  0  0
  151.5565  139.6691  157.4032 H   0  0  0  0  0  0  0  0  0  0  0  0
  148.8721  141.8885  156.2060 H   0  0  0  0  0  0  0  0  0  0  0  0
  147.6060  141.4189  154.1343 H   0  0  0  0  0  0  0  0  0  0  0  0
  150.0650  138.2752  153.1133 H   0  0  0  0  0  0  0  0  0  0  0  0
  152.5292  140.5426  158.9248 H   0  0  0  0  0  0  0  0  0  0  0  0
  153.6763  143.0440  159.0335 H   0  0  0  0  0  0  0  0  0  0  0  0
  154.0799  141.0074  160.6629 H   0  0  0  0  0  0  0  0  0  0  0  0
  153.7489  141.8715  162.8861 H   0  0  0  0  0  0  0  0  0  0  0  0
  151.5556  143.3123  162.8107 H   0  0  0  0  0  0  0  0  0  0  0  0
  153.0226  144.2335  163.0810 H   0  0  0  0  0  0  0  0  0  0  0  0
  151.4423  145.2005  161.2901 H   0  0  0  0  0  0  0  0  0  0  0  0
  153.1085  145.0085  160.8049 H   0  0  0  0  0  0  0  0  0  0  0  0
  151.5625  144.1764  159.0319 H   0  0  0  0  0  0  0  0  0  0  0  0
  150.8578  143.0573  160.1715 H   0  0  0  0  0  0  0  0  0  0  0  0
  1  2  2  0  0  0  0
  2  3  1  0  0  0  0
  2 13  1  0  0  0  0
  3  4  1  0  0  0  0
  3 20  1  0  0  0  0
  4  9  1  0  0  0  0
  4  5  2  0  0  0  0
  5  6  1  0  0  0  0
  5 21  1  0  0  0  0
  6  7  2  0  0  0  0
  6 22  1  0  0  0  0
  7  8  1  0  0  0  0
  8  9  2  0  0  0  0
  8 23  1  0  0  0  0
  9 10  1  0  0  0  0
 10 11  2  0  0  0  0
 10 12  1  0  0  0  0
 13 14  1  0  0  0  0
 13 24  1  0  0  0  0
 14 19  1  0  0  0  0
 14 15  1  0  0  0  0
 14 25  1  0  0  0  0
 15 16  2  0  0  0  0
 15 26  1  0  0  0  0
 16 17  1  0  0  0  0
 16 27  1  0  0  0  0
 17 18  1  0  0  0  0
 17 28  1  0  0  0  0
 17 29  1  0  0  0  0
 18 19  1  0  0  0  0
 18 30  1  0  0  0  0
 18 31  1  0  0  0  0
 19 32  1  0  0  0  0
 19 33  1  0  0  0  0
M  CHG  1  10   1
M  CHG  1  12  -1
M  END
> <s_m_source_file>
AV-unprocessed.smi

> <i_m_source_file_index>
2480

> <i_lp_mmshare_version>
43012

> <i_f3d_flags>
0

> <s_epik_input>
W0NIMl0xW0NIMl1bQ0gyXVtDSF09W0NIXVtDQEhdMVtOSF1DKD1PKVtOSF1jMltjSF1bY0hdbltjSF1jMltOK10oPU8pW08tXQ==

> <s_epik_cmdline>
J2VwaWtfcHl0aG9uJywgJy1waCcsICc3LjAnLCAnLXRuJywgJzgnLCAnLW1hJywgJzIwMCcsICctbWV0YWxfYmluZGluZycsICctaW1hZScsICc8aW5maWxlLm1hZT4nLCAnLW9tYWUnLCAnPG91dGZpbGUubWFlPic=

> <r_lp_tautomer_probability>
1

> <r_epik_Ionization_Penalty>
0.000149203

> <r_epik_Ionization_Penalty_Charging>
0

> <r_epik_Ionization_Penalty_Neutral>
0.000149203

> <r_epik_State_Penalty>
-0

> <r_epik_Charging_Adjusted_Penalty>
0

> <i_epik_Tot_Q>
0

> <i_epik_Tot_abs_Q>
2

> <r_epik_Metal_State_Penalty>
-0

> <b_epik_Metal_Only>
0

> <s_lp_Force_Field>
OPLS_2005

> <r_lp_Energy>
27.2011

> <b_lp_Chiralities_Consistent>
1

> <s_lp_Variant>
AV-unprocessed.smi:2480-1

> <Gold.Version>
5.8.1

> <Gold.Id.Protein>
6NUR|6NUR_protein|mol2

> <Gold.PLP.Fitness>
45.1957

> <Gold.PLP.PLP>
-38.0070

> <Gold.PLP.part.hbond>
-2.0000

> <Gold.PLP.part.metal>
0.0000

> <Gold.PLP.part.buried>
-4.6153

> <Gold.PLP.part.nonpolar>
-36.0911

> <Gold.PLP.part.repulsive>
4.3076

> <Gold.PLP.ligand.clash>
0.0000

> <Gold.PLP.ligand.torsion>
0.7838

> <Gold.PLP.Chemscore.Hbond>
1.9920

> <Gold.PLP.Chemscore.CHOScore>
0.9237

> <Gold.PLP.Chemscore.Metal>
0.0000

> <Gold.Chemscore.Hbonds>
donor molecule, donor type, donor heavy atom, donor atom, acceptor molecule, acceptor atom, score
      P1  H  7997  8008       L1    12  0.70
      P1  H 10752 10765       L1    11  1.00
      L1  C     8    23       P1  7948  0.85
      L1  C     8    23       P1  7957  0.13

> <Gold.PLP.Chemscore.Internal.Correction>
0.0091

> <Gold.Rescore>
     Score         DG    S(hbond)    S(metal)    S(lipo)     H(rot)  DE(clash)    DE(int)     intcor
     15.14     -21.21       1.82        0.00     104.28       1.00       1.69       4.38       ----

> <Gold.Chemscore.Fitness>
15.1353

> <Gold.Chemscore.DG>
-21.2091

> <Gold.Chemscore.ZeroCoef>
-5.4800

> <Gold.Chemscore.Hbond>
1.8227

> <Gold.Chemscore.Metal>
0.0000

> <Gold.Chemscore.Lipo>
104.2846

> <Gold.Chemscore.Internal_Hbond>
0.0000

> <Gold.Chemscore.DEClash>
1.6944

> <Gold.Chemscore.DEInternal>
4.3794

> <Gold.Chemscore.Rot>
1.0000

> <Gold.Chemscore.Internal.Correction>
   9.000000E+99

> <Gold.Chemscore.Hbonds>
donor molecule, donor type, donor heavy atom, donor atom, acceptor molecule, acceptor atom, score
      P1  H  7997  8008       L1    12  0.71
      P1  H 10752 10765       L1    11  0.95

> <Gold.Chemscore.Hbond.Weighted>
-6.0878

> <Gold.Chemscore.Metal.Weighted>
-0.0000

> <Gold.Chemscore.Lipo.Weighted>
-12.2013

> <Gold.Chemscore.Internal_Hbond.Weighted>
0.0000

> <Gold.Chemscore.DEClash.Weighted>
1.6944

> <Gold.Chemscore.DEInternal.Weighted>
4.3794

> <Gold.Chemscore.Rot.Weighted>
2.5600

> <Gold.Chemscore.Internal.Correction.Weighted>
   9.000000E+99

> <Gold.Protein.RotatedTorsions>
[ 6907 6896 6895 6894 ] final    7.02 input  -60.11 | X-H torsion
[ 7974 7965 7964 7962 ] final   74.98 input  175.53 | X-H torsion
[ 8008 7997 7996 7995 ] final  -39.22 input   59.86 | X-H torsion
[ 10167 10162 10161 10158 ] final   24.37 input  -65.29 | X-H torsion
[ 10718 10713 10712 10709 ] final  101.88 input   66.30 | X-H torsion
[ 10763 10752 10751 10750 ] final  166.02 input  -60.55 | X-H torsion
[ 11005 11000 10999 10996 ] final   31.93 input  -57.11 | X-H torsion

> <Gold.Protein.ActiveResidues>
 VAL166  LYS551  ARG553  GLY616  TRP617  ASP618  TYR619  PRO620  LYS621  CYS622 
 ASP623  PHE694  ASN695  SER759  ASP760  ASP761  ALA762  ILE779  LEU786  VAL792 
 PHE793  MET794  SER795  GLU796  ALA797  LYS798  CYS799  TRP800  GLU811  SER814 

> <Gold.Protein.RotatedAtoms>
  151.6831  135.0958  160.0219 H   0  0  0  0  0  0  0  0  0  0  0  0  # atno 6907 bound_to 6896
  152.3823  133.6559  159.6180 H   0  0  0  0  0  0  0  0  0  0  0  0  # atno 6908 bound_to 6896
  150.7757  133.9009  159.3382 H   0  0  0  0  0  0  0  0  0  0  0  0  # atno 6909 bound_to 6896
  145.7214  139.2649  143.1594 H   0  0  0  0  0  0  0  0  0  0  0  0  # atno 7974 bound_to 7965
  154.4026  140.1557  156.2828 H   0  0  0  0  0  0  0  0  0  0  0  0  # atno 8008 bound_to 7997
  155.8855  140.3441  155.5896 H   0  0  0  0  0  0  0  0  0  0  0  0  # atno 8009 bound_to 7997
  155.7618  140.0818  157.2142 H   0  0  0  0  0  0  0  0  0  0  0  0  # atno 8010 bound_to 7997
  140.5194  144.0028  150.6409 H   0  0  0  0  0  0  0  0  0  0  0  0  # atno 10167 bound_to 10162
  157.6817  131.0738  150.5319 H   0  0  0  0  0  0  0  0  0  0  0  0  # atno 10718 bound_to 10713
  154.3328  135.2754  155.2463 H   0  0  0  0  0  0  0  0  0  0  0  0  # atno 10763 bound_to 10752
  154.4767  135.5869  153.6364 H   0  0  0  0  0  0  0  0  0  0  0  0  # atno 10764 bound_to 10752
  152.9865  135.6101  154.3522 H   0  0  0  0  0  0  0  0  0  0  0  0  # atno 10765 bound_to 10752
  140.2788  134.2997  155.7806 H   0  0  0  0  0  0  0  0  0  0  0  0  # atno 11005 bound_to 11000
  146.0622  140.7958  142.9729 LP  0  0  0  0  0  0  0  0  0  0  0  0  # atno 17320 bound_to 7965
  144.6916  140.3215  143.7231 LP  0  0  0  0  0  0  0  0  0  0  0  0  # atno 17321 bound_to 7965
  140.3373  143.3041  152.0625 LP  0  0  0  0  0  0  0  0  0  0  0  0  # atno 17342 bound_to 10162
  139.4919  144.6467  151.6762 LP  0  0  0  0  0  0  0  0  0  0  0  0  # atno 17343 bound_to 10162
  156.5629  130.4260  149.6055 LP  0  0  0  0  0  0  0  0  0  0  0  0  # atno 17370 bound_to 10713
  156.2806  130.7068  151.1891 LP  0  0  0  0  0  0  0  0  0  0  0  0  # atno 17371 bound_to 10713
  141.2166  133.7512  156.9448 LP  0  0  0  0  0  0  0  0  0  0  0  0  # atno 17394 bound_to 11000
  140.1303  134.9360  157.2328 LP  0  0  0  0  0  0  0  0  0  0  0  0  # atno 17395 bound_to 11000

$$$$
