AV-unprocessed.smi:3322|AV-procd|sdf|12776|dock10
  -GOLD-   2272019123D 1   1.00000     0.00000
 Structure written by MMmdl.
 38 39  0  0  0  0  0  0  0  0  1 V2000
  147.0801  141.1112  153.4837 C   0  0  0  0  0  0  0  0  0  0  0  0
  147.8782  139.8694  153.9139 C   0  0  1  0  0  0  0  0  0  0  0  0
  147.8393  138.8733  152.8267 N   0  0  0  0  0  0  0  0  0  0  0  0
  146.5006  138.6374  152.2935 C   0  0  0  0  0  0  0  0  0  0  0  0
  145.8149  137.4973  153.0649 C   0  0  0  0  0  0  0  0  0  0  0  0
  145.2982  136.4648  152.1831 N   0  0  0  0  0  0  0  0  0  0  0  0
  145.9488  135.8125  151.1570 C   0  0  0  0  0  0  0  0  0  0  0  0
  145.0666  134.9201  150.6184 C   0  0  0  0  0  0  0  0  0  0  0  0
  143.8867  135.1023  151.3927 C   0  0  0  0  0  0  0  0  0  0  0  0
  144.0283  136.0271  152.3283 N   0  0  0  0  0  0  0  0  0  0  0  0
  149.3105  140.2786  154.3345 C   0  0  0  0  0  0  0  0  0  0  0  0
  149.6980  141.4133  154.0488 O   0  0  0  0  0  0  0  0  0  0  0  0
  150.1039  139.4045  155.0048 N   0  0  0  0  0  0  0  0  0  0  0  0
  149.6549  138.0605  155.3862 C   0  0  0  0  0  0  0  0  0  0  0  0
  150.5038  137.0243  154.6298 C   0  0  0  0  0  0  0  0  0  0  0  0
  151.8795  137.2180  154.9450 O   0  0  0  0  0  0  0  0  0  0  0  0
  152.3468  138.5217  154.6108 C   0  0  0  0  0  0  0  0  0  0  0  0
  151.5179  139.5842  155.3562 C   0  0  0  0  0  0  0  0  0  0  0  0
  147.0266  141.8543  154.2796 H   0  0  0  0  0  0  0  0  0  0  0  0
  146.0556  140.8455  153.2208 H   0  0  0  0  0  0  0  0  0  0  0  0
  147.5297  141.5919  152.6136 H   0  0  0  0  0  0  0  0  0  0  0  0
  147.3674  139.4096  154.7584 H   0  0  0  0  0  0  0  0  0  0  0  0
  148.4520  139.1344  152.0670 H   0  0  0  0  0  0  0  0  0  0  0  0
  145.8948  139.5395  152.3777 H   0  0  0  0  0  0  0  0  0  0  0  0
  146.5559  138.3851  151.2337 H   0  0  0  0  0  0  0  0  0  0  0  0
  146.4993  137.0486  153.7873 H   0  0  0  0  0  0  0  0  0  0  0  0
  144.9779  137.8961  153.6389 H   0  0  0  0  0  0  0  0  0  0  0  0
  146.9740  136.0345  150.8997 H   0  0  0  0  0  0  0  0  0  0  0  0
  145.2379  134.2403  149.7970 H   0  0  0  0  0  0  0  0  0  0  0  0
  142.9381  134.5933  151.3039 H   0  0  0  0  0  0  0  0  0  0  0  0
  149.7766  137.9314  156.4626 H   0  0  0  0  0  0  0  0  0  0  0  0
  148.5976  137.8864  155.1825 H   0  0  0  0  0  0  0  0  0  0  0  0
  150.2140  136.0142  154.9193 H   0  0  0  0  0  0  0  0  0  0  0  0
  150.3502  137.1059  153.5525 H   0  0  0  0  0  0  0  0  0  0  0  0
  153.3978  138.6003  154.8890 H   0  0  0  0  0  0  0  0  0  0  0  0
  152.2900  138.6713  153.5315 H   0  0  0  0  0  0  0  0  0  0  0  0
  151.9209  140.5649  155.1174 H   0  0  0  0  0  0  0  0  0  0  0  0
  151.6379  139.4656  156.4340 H   0  0  0  0  0  0  0  0  0  0  0  0
  1  2  1  0  0  0  0
  1 19  1  0  0  0  0
  1 20  1  0  0  0  0
  1 21  1  0  0  0  0
  2  3  1  0  0  0  0
  2 11  1  0  0  0  0
  2 22  1  0  0  0  0
  3  4  1  0  0  0  0
  3 23  1  0  0  0  0
  4  5  1  0  0  0  0
  4 24  1  0  0  0  0
  4 25  1  0  0  0  0
  5  6  1  0  0  0  0
  5 26  1  0  0  0  0
  5 27  1  0  0  0  0
  6 10  1  0  0  0  0
  6  7  1  0  0  0  0
  7  8  2  0  0  0  0
  7 28  1  0  0  0  0
  8  9  1  0  0  0  0
  8 29  1  0  0  0  0
  9 10  2  0  0  0  0
  9 30  1  0  0  0  0
 11 12  2  0  0  0  0
 11 13  1  0  0  0  0
 13 18  1  0  0  0  0
 13 14  1  0  0  0  0
 14 15  1  0  0  0  0
 14 31  1  0  0  0  0
 14 32  1  0  0  0  0
 15 16  1  0  0  0  0
 15 33  1  0  0  0  0
 15 34  1  0  0  0  0
 16 17  1  0  0  0  0
 17 18  1  0  0  0  0
 17 35  1  0  0  0  0
 17 36  1  0  0  0  0
 18 37  1  0  0  0  0
 18 38  1  0  0  0  0
M  END
> <s_m_source_file>
AV-unprocessed.smi

> <i_m_source_file_index>
3322

> <i_lp_mmshare_version>
43012

> <i_f3d_flags>
0

> <s_epik_input>
W0NIMl0xW0NIMl1PW0NIMl1bQ0gyXU4xQyg9TylbQ0BIXShbQ0gzXSlbTkhdW0NIMl1bQ0gyXW4yW2NIXVtjSF1bY0hdbjI=

> <s_epik_cmdline>
J2VwaWtfcHl0aG9uJywgJy1waCcsICc3LjAnLCAnLXRuJywgJzgnLCAnLW1hJywgJzIwMCcsICctbWV0YWxfYmluZGluZycsICctaW1hZScsICc8aW5maWxlLm1hZT4nLCAnLW9tYWUnLCAnPG91dGZpbGUubWFlPic=

> <r_lp_tautomer_probability>
1

> <r_epik_Ionization_Penalty>
0.511228

> <r_epik_Ionization_Penalty_Charging>
0

> <r_epik_Ionization_Penalty_Neutral>
0.511228

> <r_epik_State_Penalty>
0.51753

> <r_epik_Charging_Adjusted_Penalty>
0.51753

> <i_epik_Tot_Q>
0

> <i_epik_Tot_abs_Q>
0

> <r_epik_Metal_State_Penalty>
0.517012

> <b_epik_Metal_Only>
0

> <s_lp_Force_Field>
OPLS_2005

> <r_lp_Energy>
27.6931

> <b_lp_Chiralities_Consistent>
1

> <s_lp_Variant>
AV-unprocessed.smi:3322-4

> <Gold.Version>
5.8.1

> <Gold.Id.Protein>
6NUR|6NUR_protein|mol2

> <Gold.PLP.Fitness>
47.3441

> <Gold.PLP.PLP>
-35.2676

> <Gold.PLP.part.hbond>
-5.0000

> <Gold.PLP.part.metal>
0.0000

> <Gold.PLP.part.buried>
-1.2971

> <Gold.PLP.part.nonpolar>
-29.8665

> <Gold.PLP.part.repulsive>
0.4470

> <Gold.PLP.ligand.clash>
0.0000

> <Gold.PLP.ligand.torsion>
0.9794

> <Gold.PLP.Chemscore.Hbond>
2.9734

> <Gold.PLP.Chemscore.CHOScore>
1.6746

> <Gold.PLP.Chemscore.Metal>
0.0000

> <Gold.Chemscore.Hbonds>
donor molecule, donor type, donor heavy atom, donor atom, acceptor molecule, acceptor atom, score
      L1  H     3    23       P1  7957  1.00
      P1  H  7989  7998       L1    12  0.23
      P1  H  8011  8017       L1    12  0.67
      P1  H 10752 10764       L1    16  0.94
      L1  C     7    28       P1  7948  1.00
      L1  C     9    30       P1 10186  0.58

> <Gold.PLP.Chemscore.Internal.Correction>
0.0911

> <Gold.Rescore>
     Score         DG    S(hbond)    S(metal)    S(lipo)     H(rot)  DE(clash)    DE(int)     intcor
     15.95     -17.23       2.58        0.00      67.22       1.84       0.44       0.84       ----

> <Gold.Chemscore.Fitness>
15.9468

> <Gold.Chemscore.DG>
-17.2257

> <Gold.Chemscore.ZeroCoef>
-5.4800

> <Gold.Chemscore.Hbond>
2.5754

> <Gold.Chemscore.Metal>
0.0000

> <Gold.Chemscore.Lipo>
67.2234

> <Gold.Chemscore.Internal_Hbond>
0.0000

> <Gold.Chemscore.DEClash>
0.4437

> <Gold.Chemscore.DEInternal>
0.8351

> <Gold.Chemscore.Rot>
1.8442

> <Gold.Chemscore.Internal.Correction>
   9.000000E+99

> <Gold.Chemscore.Hbonds>
donor molecule, donor type, donor heavy atom, donor atom, acceptor molecule, acceptor atom, score
      L1  H     3    23       P1  7957  0.99
      P1  H  7989  7998       L1    12  0.05
      P1  H  8011  8017       L1    12  0.66
      P1  H 10752 10764       L1    16  0.74

> <Gold.Chemscore.Hbond.Weighted>
-8.6017

> <Gold.Chemscore.Metal.Weighted>
-0.0000

> <Gold.Chemscore.Lipo.Weighted>
-7.8651

> <Gold.Chemscore.Internal_Hbond.Weighted>
0.0000

> <Gold.Chemscore.DEClash.Weighted>
0.4437

> <Gold.Chemscore.DEInternal.Weighted>
0.8351

> <Gold.Chemscore.Rot.Weighted>
4.7212

> <Gold.Chemscore.Internal.Correction.Weighted>
   9.000000E+99

> <Gold.Protein.RotatedTorsions>
[ 6907 6896 6895 6894 ] final  -25.39 input  -60.11 | X-H torsion
[ 7974 7965 7964 7962 ] final  147.69 input  175.53 | X-H torsion
[ 8008 7997 7996 7995 ] final   83.69 input   59.86 | X-H torsion
[ 10167 10162 10161 10158 ] final   41.88 input  -65.29 | X-H torsion
[ 10718 10713 10712 10709 ] final -175.71 input   66.30 | X-H torsion
[ 10763 10752 10751 10750 ] final  -57.94 input  -60.55 | X-H torsion
[ 11005 11000 10999 10996 ] final  107.56 input  -57.11 | X-H torsion

> <Gold.Protein.ActiveResidues>
 VAL166  LYS551  ARG553  GLY616  TRP617  ASP618  TYR619  PRO620  LYS621  CYS622 
 ASP623  PHE694  ASN695  SER759  ASP760  ASP761  ALA762  ILE779  LEU786  VAL792 
 PHE793  MET794  SER795  GLU796  ALA797  LYS798  CYS799  TRP800  GLU811  SER814 

> <Gold.Protein.RotatedAtoms>
  151.1758  135.0339  159.8771 H   0  0  0  0  0  0  0  0  0  0  0  0  # atno 6907 bound_to 6896
  152.5447  134.1118  159.8372 H   0  0  0  0  0  0  0  0  0  0  0  0  # atno 6908 bound_to 6896
  151.1230  133.5044  159.2634 H   0  0  0  0  0  0  0  0  0  0  0  0  # atno 6909 bound_to 6896
  144.8572  139.6060  143.5947 H   0  0  0  0  0  0  0  0  0  0  0  0  # atno 7974 bound_to 7965
  155.9273  140.3417  155.6220 H   0  0  0  0  0  0  0  0  0  0  0  0  # atno 8008 bound_to 7997
  155.7201  140.0782  157.2353 H   0  0  0  0  0  0  0  0  0  0  0  0  # atno 8009 bound_to 7997
  154.4079  140.1607  156.2380 H   0  0  0  0  0  0  0  0  0  0  0  0  # atno 8010 bound_to 7997
  140.3599  144.2241  150.6139 H   0  0  0  0  0  0  0  0  0  0  0  0  # atno 10167 bound_to 10162
  156.8039  130.9562  151.3118 H   0  0  0  0  0  0  0  0  0  0  0  0  # atno 10718 bound_to 10713
  154.2304  135.6362  153.5173 H   0  0  0  0  0  0  0  0  0  0  0  0  # atno 10763 bound_to 10752
  152.9950  135.5518  154.6019 H   0  0  0  0  0  0  0  0  0  0  0  0  # atno 10764 bound_to 10752
  154.5501  135.2901  155.0991 H   0  0  0  0  0  0  0  0  0  0  0  0  # atno 10765 bound_to 10752
  139.8830  134.9404  156.5838 H   0  0  0  0  0  0  0  0  0  0  0  0  # atno 11005 bound_to 11000
  146.2832  139.6934  142.9214 LP  0  0  0  0  0  0  0  0  0  0  0  0  # atno 17320 bound_to 7965
  145.4383  141.0420  143.2872 LP  0  0  0  0  0  0  0  0  0  0  0  0  # atno 17321 bound_to 7965
  140.5137  143.2284  151.8496 LP  0  0  0  0  0  0  0  0  0  0  0  0  # atno 17342 bound_to 10162
  139.4815  144.4920  151.9173 LP  0  0  0  0  0  0  0  0  0  0  0  0  # atno 17343 bound_to 10162
  157.6540  130.8908  149.9690 LP  0  0  0  0  0  0  0  0  0  0  0  0  # atno 17370 bound_to 10713
  156.1084  130.3651  150.0092 LP  0  0  0  0  0  0  0  0  0  0  0  0  # atno 17371 bound_to 10713
  140.8007  133.8508  155.8724 LP  0  0  0  0  0  0  0  0  0  0  0  0  # atno 17394 bound_to 11000
  140.9595  134.1674  157.4665 LP  0  0  0  0  0  0  0  0  0  0  0  0  # atno 17395 bound_to 11000

$$$$
