AV-unprocessed.smi:334|AV-procd|sdf|2362|dock5
  -GOLD-   2262022273D 1   1.00000     0.00000
 Structure written by MMmdl.
 44 46  0  0  0  0  0  0  0  0  3 V2000
  150.2836  141.6156  156.6817 C   0  0  0  0  0  0  0  0  0  0  0  0
  151.4131  141.3631  157.6943 C   0  0  2  0  0  0  0  0  0  0  0  0
  151.3496  139.9613  158.1062 N   0  0  0  0  0  0  0  0  0  0  0  0
  152.3431  139.0637  158.0121 C   0  0  0  0  0  0  0  0  0  0  0  0
  153.4610  139.3328  157.5703 O   0  0  0  0  0  0  0  0  0  0  0  0
  152.0165  137.6534  158.5235 C   0  0  0  0  0  0  0  0  0  0  0  0
  150.5948  137.2956  158.3855 N   0  0  0  0  0  0  0  0  0  0  0  0
  149.8702  137.0833  159.5752 C   0  0  0  0  0  0  0  0  0  0  0  0
  148.5658  136.7455  159.5685 C   0  0  0  0  0  0  0  0  0  0  0  0
  147.8391  136.5255  160.7997 N   0  3  0  0  0  0  0  0  0  0  0  0
  148.3800  136.8149  161.8620 O   0  0  0  0  0  0  0  0  0  0  0  0
  146.7062  136.0563  160.7470 O   0  5  0  0  0  0  0  0  0  0  0  0
  147.9125  136.6048  158.2815 C   0  0  0  0  0  0  0  0  0  0  0  0
  148.6011  136.8024  157.1401 C   0  0  0  0  0  0  0  0  0  0  0  0
  150.0221  137.1648  157.1498 C   0  0  0  0  0  0  0  0  0  0  0  0
  150.6585  137.3392  156.1103 O   0  0  0  0  0  0  0  0  0  0  0  0
  151.3154  142.2954  158.9288 C   0  0  2  0  0  0  0  0  0  0  0  0
  151.0461  143.7761  158.5625 C   0  0  0  0  0  0  0  0  0  0  0  0
  152.1780  144.5330  159.2795 C   0  0  1  0  0  0  0  0  0  0  0  0
  151.9494  144.4830  160.8009 C   0  0  0  0  0  0  0  0  0  0  0  0
  152.2771  143.0177  161.1421 C   0  0  0  0  0  0  0  0  0  0  0  0
  152.6169  142.4151  159.7653 C   0  0  2  0  0  0  0  0  0  0  0  0
  153.3483  143.5754  159.0990 C   0  0  0  0  0  0  0  0  0  0  0  0
  150.3080  142.6344  156.2952 H   0  0  0  0  0  0  0  0  0  0  0  0
  149.3031  141.4559  157.1318 H   0  0  0  0  0  0  0  0  0  0  0  0
  150.3693  140.9445  155.8264 H   0  0  0  0  0  0  0  0  0  0  0  0
  152.3578  141.5571  157.1842 H   0  0  0  0  0  0  0  0  0  0  0  0
  150.4710  139.6468  158.4921 H   0  0  0  0  0  0  0  0  0  0  0  0
  152.6428  136.9422  157.9827 H   0  0  0  0  0  0  0  0  0  0  0  0
  152.3277  137.5686  159.5666 H   0  0  0  0  0  0  0  0  0  0  0  0
  150.4487  137.2053  160.4799 H   0  0  0  0  0  0  0  0  0  0  0  0
  146.8674  136.3393  158.2232 H   0  0  0  0  0  0  0  0  0  0  0  0
  148.0951  136.6915  156.1923 H   0  0  0  0  0  0  0  0  0  0  0  0
  150.5124  141.9233  159.5670 H   0  0  0  0  0  0  0  0  0  0  0  0
  151.1201  143.9432  157.4873 H   0  0  0  0  0  0  0  0  0  0  0  0
  150.0571  144.1086  158.8796 H   0  0  0  0  0  0  0  0  0  0  0  0
  152.3424  145.5397  158.8944 H   0  0  0  0  0  0  0  0  0  0  0  0
  152.6297  145.1592  161.3200 H   0  0  0  0  0  0  0  0  0  0  0  0
  150.9297  144.7568  161.0747 H   0  0  0  0  0  0  0  0  0  0  0  0
  153.1381  142.9650  161.8096 H   0  0  0  0  0  0  0  0  0  0  0  0
  151.4470  142.5061  161.6305 H   0  0  0  0  0  0  0  0  0  0  0  0
  153.1982  141.4969  159.8443 H   0  0  0  0  0  0  0  0  0  0  0  0
  153.6020  143.3894  158.0540 H   0  0  0  0  0  0  0  0  0  0  0  0
  154.2476  143.8849  159.6347 H   0  0  0  0  0  0  0  0  0  0  0  0
  1  2  1  0  0  0  0
  1 24  1  0  0  0  0
  1 25  1  0  0  0  0
  1 26  1  0  0  0  0
  2  3  1  0  0  0  0
  2 17  1  0  0  0  0
  2 27  1  0  0  0  0
  3  4  1  0  0  0  0
  3 28  1  0  0  0  0
  4  5  2  0  0  0  0
  4  6  1  0  0  0  0
  6  7  1  0  0  0  0
  6 29  1  0  0  0  0
  6 30  1  0  0  0  0
  7 15  1  0  0  0  0
  7  8  1  0  0  0  0
  8  9  2  0  0  0  0
  8 31  1  0  0  0  0
  9 10  1  0  0  0  0
  9 13  1  0  0  0  0
 10 11  2  0  0  0  0
 10 12  1  0  0  0  0
 13 14  2  0  0  0  0
 13 32  1  0  0  0  0
 14 15  1  0  0  0  0
 14 33  1  0  0  0  0
 15 16  2  0  0  0  0
 17 22  1  0  0  0  0
 17 18  1  0  0  0  0
 17 34  1  0  0  0  0
 18 19  1  0  0  0  0
 18 35  1  0  0  0  0
 18 36  1  0  0  0  0
 19 23  1  0  0  0  0
 19 20  1  0  0  0  0
 19 37  1  0  0  0  0
 20 21  1  0  0  0  0
 20 38  1  0  0  0  0
 20 39  1  0  0  0  0
 21 22  1  0  0  0  0
 21 40  1  0  0  0  0
 21 41  1  0  0  0  0
 22 23  1  0  0  0  0
 22 42  1  0  0  0  0
 23 43  1  0  0  0  0
 23 44  1  0  0  0  0
M  CHG  1  10   1
M  CHG  1  12  -1
M  END
> <s_m_source_file>
AV-unprocessed.smi

> <i_m_source_file_index>
334

> <i_lp_mmshare_version>
43012

> <i_f3d_flags>
0

> <s_epik_input>
W0NIMl0xW0NIMl1bQ0BIXShbQ0gyXTIpW0NAQEhdKFtDSDJdW0NAQEhdMTIpW0NASF0oW0NIM10pW05IXUMoPU8pW0NIMl1uM1tjSF1jKFtOK10oPU8pW08tXSlbY0hdW2NIXWMzPU8=

> <s_epik_cmdline>
J2VwaWtfcHl0aG9uJywgJy1waCcsICc3LjAnLCAnLXRuJywgJzgnLCAnLW1hJywgJzIwMCcsICctbWV0YWxfYmluZGluZycsICctaW1hZScsICc8aW5maWxlLm1hZT4nLCAnLW9tYWUnLCAnPG91dGZpbGUubWFlPic=

> <r_lp_tautomer_probability>
1

> <r_epik_Ionization_Penalty>
2.17081e-08

> <r_epik_Ionization_Penalty_Charging>
8.1195e-11

> <r_epik_Ionization_Penalty_Neutral>
2.16269e-08

> <r_epik_State_Penalty>
-0

> <r_epik_Charging_Adjusted_Penalty>
8.1195e-11

> <i_epik_Tot_Q>
0

> <i_epik_Tot_abs_Q>
2

> <r_epik_Metal_State_Penalty>
-0

> <b_epik_Metal_Only>
0

> <s_lp_Force_Field>
OPLS_2005

> <r_lp_Energy>
62.1866

> <b_lp_Chiralities_Consistent>
1

> <s_lp_Variant>
AV-unprocessed.smi:334-1

> <Gold.Version>
5.8.1

> <Gold.Id.Protein>
6NUR|6NUR_protein|mol2

> <Gold.PLP.Fitness>
45.6687

> <Gold.PLP.PLP>
-41.0513

> <Gold.PLP.part.hbond>
-2.2074

> <Gold.PLP.part.metal>
0.0000

> <Gold.PLP.part.buried>
-5.9175

> <Gold.PLP.part.nonpolar>
-33.7572

> <Gold.PLP.part.repulsive>
0.1223

> <Gold.PLP.ligand.clash>
0.0000

> <Gold.PLP.ligand.torsion>
0.7043

> <Gold.PLP.Chemscore.Hbond>
2.0000

> <Gold.PLP.Chemscore.CHOScore>
0.0000

> <Gold.PLP.Chemscore.Metal>
0.0000

> <Gold.Chemscore.Hbonds>
donor molecule, donor type, donor heavy atom, donor atom, acceptor molecule, acceptor atom, score
      P1  H  6931  6943       L1    11  1.00
      P1  H  7997  8008       L1     5  0.78

> <Gold.PLP.Chemscore.Internal.Correction>
0.0259

> <Gold.Rescore>
     Score         DG    S(hbond)    S(metal)    S(lipo)     H(rot)  DE(clash)    DE(int)     intcor
     19.61     -20.35       1.98        0.00     108.70       1.75       0.00       0.74       ----

> <Gold.Chemscore.Fitness>
19.6150

> <Gold.Chemscore.DG>
-20.3517

> <Gold.Chemscore.ZeroCoef>
-5.4800

> <Gold.Chemscore.Hbond>
1.9843

> <Gold.Chemscore.Metal>
0.0000

> <Gold.Chemscore.Lipo>
108.6960

> <Gold.Chemscore.Internal_Hbond>
0.0000

> <Gold.Chemscore.DEClash>
0.0000

> <Gold.Chemscore.DEInternal>
0.7367

> <Gold.Chemscore.Rot>
1.7474

> <Gold.Chemscore.Internal.Correction>
   9.000000E+99

> <Gold.Chemscore.Hbonds>
donor molecule, donor type, donor heavy atom, donor atom, acceptor molecule, acceptor atom, score
      P1  H  6931  6943       L1    11  0.90
      P1  H  7997  8008       L1     5  0.79

> <Gold.Chemscore.Hbond.Weighted>
-6.6276

> <Gold.Chemscore.Metal.Weighted>
-0.0000

> <Gold.Chemscore.Lipo.Weighted>
-12.7174

> <Gold.Chemscore.Internal_Hbond.Weighted>
0.0000

> <Gold.Chemscore.DEClash.Weighted>
0.0000

> <Gold.Chemscore.DEInternal.Weighted>
0.7367

> <Gold.Chemscore.Rot.Weighted>
4.4733

> <Gold.Chemscore.Internal.Correction.Weighted>
   9.000000E+99

> <Gold.Protein.RotatedTorsions>
[ 6907 6896 6895 6894 ] final    9.26 input  -60.11 | X-H torsion
[ 7974 7965 7964 7962 ] final  -92.91 input  175.53 | X-H torsion
[ 8008 7997 7996 7995 ] final  -88.12 input   59.86 | X-H torsion
[ 10167 10162 10161 10158 ] final   41.88 input  -65.29 | X-H torsion
[ 10718 10713 10712 10709 ] final -165.13 input   66.30 | X-H torsion
[ 10763 10752 10751 10750 ] final   36.14 input  -60.55 | X-H torsion
[ 11005 11000 10999 10996 ] final  -76.97 input  -57.11 | X-H torsion

> <Gold.Protein.ActiveResidues>
 VAL166  LYS551  ARG553  GLY616  TRP617  ASP618  TYR619  PRO620  LYS621  CYS622 
 ASP623  PHE694  ASN695  SER759  ASP760  ASP761  ALA762  ILE779  LEU786  VAL792 
 PHE793  MET794  SER795  GLU796  ALA797  LYS798  CYS799  TRP800  GLU811  SER814 

> <Gold.Protein.RotatedAtoms>
  151.7193  135.0897  160.0281 H   0  0  0  0  0  0  0  0  0  0  0  0  # atno 6907 bound_to 6896
  152.3612  133.6295  159.6025 H   0  0  0  0  0  0  0  0  0  0  0  0  # atno 6908 bound_to 6896
  150.7606  133.9337  159.3476 H   0  0  0  0  0  0  0  0  0  0  0  0  # atno 6909 bound_to 6896
  145.3935  140.9530  143.2327 H   0  0  0  0  0  0  0  0  0  0  0  0  # atno 7974 bound_to 7965
  154.6711  140.0557  157.0166 H   0  0  0  0  0  0  0  0  0  0  0  0  # atno 8008 bound_to 7997
  155.1087  140.3236  155.4508 H   0  0  0  0  0  0  0  0  0  0  0  0  # atno 8009 bound_to 7997
  156.2658  140.2018  156.6212 H   0  0  0  0  0  0  0  0  0  0  0  0  # atno 8010 bound_to 7997
  140.3599  144.2241  150.6139 H   0  0  0  0  0  0  0  0  0  0  0  0  # atno 10167 bound_to 10162
  156.6490  130.8999  151.3010 H   0  0  0  0  0  0  0  0  0  0  0  0  # atno 10718 bound_to 10713
  153.0089  135.6314  154.1939 H   0  0  0  0  0  0  0  0  0  0  0  0  # atno 10763 bound_to 10752
  154.1681  135.2820  155.3090 H   0  0  0  0  0  0  0  0  0  0  0  0  # atno 10764 bound_to 10752
  154.5929  135.5612  153.7357 H   0  0  0  0  0  0  0  0  0  0  0  0  # atno 10765 bound_to 10752
  141.1657  133.7004  156.7750 H   0  0  0  0  0  0  0  0  0  0  0  0  # atno 11005 bound_to 11000
  144.8423  139.5452  143.6894 LP  0  0  0  0  0  0  0  0  0  0  0  0  # atno 17320 bound_to 7965
  146.2786  139.6818  142.9245 LP  0  0  0  0  0  0  0  0  0  0  0  0  # atno 17321 bound_to 7965
  140.5137  143.2284  151.8496 LP  0  0  0  0  0  0  0  0  0  0  0  0  # atno 17342 bound_to 10162
  139.4815  144.4920  151.9173 LP  0  0  0  0  0  0  0  0  0  0  0  0  # atno 17343 bound_to 10162
  157.7147  130.9483  150.1213 LP  0  0  0  0  0  0  0  0  0  0  0  0  # atno 17370 bound_to 10713
  156.2099  130.3666  149.8683 LP  0  0  0  0  0  0  0  0  0  0  0  0  # atno 17371 bound_to 10713
  140.2436  134.8594  157.3598 LP  0  0  0  0  0  0  0  0  0  0  0  0  # atno 17394 bound_to 11000
  140.1771  134.4536  155.7795 LP  0  0  0  0  0  0  0  0  0  0  0  0  # atno 17395 bound_to 11000

$$$$
