AV-unprocessed.smi:1231|AV-procd|sdf|5160|dock3
  -GOLD-   22720 4233D 1   1.00000     0.00000
 Structure written by MMmdl.
 42 43  0  0  0  0  0  0  0  0  1 V2000
  152.1835  138.3441  154.4452 C   0  0  0  0  0  0  0  0  0  0  0  0
  150.9355  139.0451  154.9915 C   0  0  2  0  0  0  0  0  0  0  0  0
  149.7293  138.9034  154.0456 C   0  0  0  0  0  0  0  0  0  0  0  0
  148.5669  139.6368  154.5302 N   0  0  0  0  0  0  0  0  0  0  0  0
  147.4238  139.4548  153.6372 C   0  0  0  0  0  0  0  0  0  0  0  0
  146.5125  138.2632  153.9875 C   0  0  0  0  0  0  0  0  0  0  0  0
  146.6899  137.1604  153.0507 N   0  0  0  0  0  0  0  0  0  0  0  0
  145.7236  136.3174  152.6593 C   0  0  0  0  0  0  0  0  0  0  0  0
  144.5644  136.3756  153.0707 O   0  0  0  0  0  0  0  0  0  0  0  0
  146.1911  135.4225  151.7711 N   0  0  0  0  0  0  0  0  0  0  0  0
  145.4836  134.3754  151.1229 C   0  0  0  0  0  0  0  0  0  0  0  0
  146.2928  133.4466  150.4298 C   0  0  0  0  0  0  0  0  0  0  0  0
  145.6877  132.3702  149.7525 C   0  0  0  0  0  0  0  0  0  0  0  0
  144.2871  132.2496  149.7867 C   0  0  0  0  0  0  0  0  0  0  0  0
  143.5553  133.2164  150.5005 C   0  0  0  0  0  0  0  0  0  0  0  0
  144.1330  134.2489  151.1500 N   0  0  0  0  0  0  0  0  0  0  0  0
  148.9288  141.0434  154.6964 C   0  0  0  0  0  0  0  0  0  0  0  0
  150.1577  141.2417  155.6065 C   0  0  1  0  0  0  0  0  0  0  0  0
  149.8536  141.0205  157.0979 C   0  0  0  0  0  0  0  0  0  0  0  0
  151.2430  140.4276  155.1604 O   0  0  0  0  0  0  0  0  0  0  0  0
  152.0086  137.2758  154.3160 H   0  0  0  0  0  0  0  0  0  0  0  0
  153.0260  138.4628  155.1270 H   0  0  0  0  0  0  0  0  0  0  0  0
  152.4761  138.7555  153.4788 H   0  0  0  0  0  0  0  0  0  0  0  0
  150.6926  138.6067  155.9600 H   0  0  0  0  0  0  0  0  0  0  0  0
  150.0012  139.2590  153.0502 H   0  0  0  0  0  0  0  0  0  0  0  0
  149.4806  137.8465  153.9408 H   0  0  0  0  0  0  0  0  0  0  0  0
  146.8331  140.3716  153.6039 H   0  0  0  0  0  0  0  0  0  0  0  0
  147.7960  139.3031  152.6230 H   0  0  0  0  0  0  0  0  0  0  0  0
  146.7040  137.9229  155.0065 H   0  0  0  0  0  0  0  0  0  0  0  0
  145.4626  138.5505  153.9465 H   0  0  0  0  0  0  0  0  0  0  0  0
  147.6142  137.0389  152.6636 H   0  0  0  0  0  0  0  0  0  0  0  0
  147.1661  135.5041  151.5240 H   0  0  0  0  0  0  0  0  0  0  0  0
  147.3677  133.5547  150.4136 H   0  0  0  0  0  0  0  0  0  0  0  0
  146.2885  131.6505  149.2165 H   0  0  0  0  0  0  0  0  0  0  0  0
  143.7867  131.4379  149.2796 H   0  0  0  0  0  0  0  0  0  0  0  0
  142.4781  133.1597  150.5516 H   0  0  0  0  0  0  0  0  0  0  0  0
  149.1431  141.4782  153.7189 H   0  0  0  0  0  0  0  0  0  0  0  0
  148.0938  141.6093  155.1075 H   0  0  0  0  0  0  0  0  0  0  0  0
  150.4878  142.2755  155.5006 H   0  0  0  0  0  0  0  0  0  0  0  0
  149.1021  141.7278  157.4493 H   0  0  0  0  0  0  0  0  0  0  0  0
  150.7497  141.1634  157.7022 H   0  0  0  0  0  0  0  0  0  0  0  0
  149.4734  140.0184  157.2954 H   0  0  0  0  0  0  0  0  0  0  0  0
  1  2  1  0  0  0  0
  1 21  1  0  0  0  0
  1 22  1  0  0  0  0
  1 23  1  0  0  0  0
  2 20  1  0  0  0  0
  2  3  1  0  0  0  0
  2 24  1  0  0  0  0
  3  4  1  0  0  0  0
  3 25  1  0  0  0  0
  3 26  1  0  0  0  0
  4  5  1  0  0  0  0
  4 17  1  0  0  0  0
  5  6  1  0  0  0  0
  5 27  1  0  0  0  0
  5 28  1  0  0  0  0
  6  7  1  0  0  0  0
  6 29  1  0  0  0  0
  6 30  1  0  0  0  0
  7  8  1  0  0  0  0
  7 31  1  0  0  0  0
  8  9  2  0  0  0  0
  8 10  1  0  0  0  0
 10 11  1  0  0  0  0
 10 32  1  0  0  0  0
 11 16  1  0  0  0  0
 11 12  2  0  0  0  0
 12 13  1  0  0  0  0
 12 33  1  0  0  0  0
 13 14  2  0  0  0  0
 13 34  1  0  0  0  0
 14 15  1  0  0  0  0
 14 35  1  0  0  0  0
 15 16  2  0  0  0  0
 15 36  1  0  0  0  0
 17 18  1  0  0  0  0
 17 37  1  0  0  0  0
 17 38  1  0  0  0  0
 18 19  1  0  0  0  0
 18 20  1  0  0  0  0
 18 39  1  0  0  0  0
 19 40  1  0  0  0  0
 19 41  1  0  0  0  0
 19 42  1  0  0  0  0
M  END
> <s_m_source_file>
AV-unprocessed.smi

> <i_m_source_file_index>
1231

> <i_lp_mmshare_version>
43012

> <i_f3d_flags>
0

> <s_epik_input>
W0NIM11bQ0BASF0xW0NIMl1OKFtDSDJdW0NASF0oTzEpW0NIM10pW0NIMl1bQ0gyXVtOSF1DKD1PKVtOSF1jMltjSF1bY0hdW2NIXVtjSF1uMg==

> <s_epik_cmdline>
J2VwaWtfcHl0aG9uJywgJy1waCcsICc3LjAnLCAnLXRuJywgJzgnLCAnLW1hJywgJzIwMCcsICctbWV0YWxfYmluZGluZycsICctaW1hZScsICc8aW5maWxlLm1hZT4nLCAnLW9tYWUnLCAnPG91dGZpbGUubWFlPic=

> <r_epik_Ionization_Penalty>
0.266037

> <r_epik_Ionization_Penalty_Charging>
0

> <r_epik_Ionization_Penalty_Neutral>
0.266037

> <r_epik_State_Penalty>
0.257924

> <r_epik_Charging_Adjusted_Penalty>
0.257924

> <i_epik_Tot_Q>
0

> <i_epik_Tot_abs_Q>
0

> <r_epik_Metal_State_Penalty>
0.257923

> <b_epik_Metal_Only>
0

> <s_lp_Force_Field>
OPLS_2005

> <r_lp_Energy>
23.857

> <b_lp_Chiralities_Consistent>
1

> <s_lp_Variant>
AV-unprocessed.smi:1231-1

> <Gold.Version>
5.8.1

> <Gold.Id.Protein>
6NUR|6NUR_protein|mol2

> <Gold.PLP.Fitness>
47.8431

> <Gold.PLP.PLP>
-37.8801

> <Gold.PLP.part.hbond>
-3.0000

> <Gold.PLP.part.metal>
0.0000

> <Gold.PLP.part.buried>
-4.0761

> <Gold.PLP.part.nonpolar>
-30.8830

> <Gold.PLP.part.repulsive>
0.5028

> <Gold.PLP.ligand.clash>
0.0000

> <Gold.PLP.ligand.torsion>
0.9466

> <Gold.PLP.Chemscore.Hbond>
2.9440

> <Gold.PLP.Chemscore.CHOScore>
1.0000

> <Gold.PLP.Chemscore.Metal>
0.0000

> <Gold.Chemscore.Hbonds>
donor molecule, donor type, donor heavy atom, donor atom, acceptor molecule, acceptor atom, score
      L1  H     7    31       P1  7948  1.00
      L1  H    10    32       P1  7948  1.00
      P1  H  7989  7998       L1    20  0.98
      L1  C    15    36       P1 10186  0.98

> <Gold.PLP.Chemscore.Internal.Correction>
0.0240

> <Gold.Rescore>
     Score         DG    S(hbond)    S(metal)    S(lipo)     H(rot)  DE(clash)    DE(int)     intcor
     17.39     -19.80       2.25        0.00      91.34       1.52       0.20       2.21       ----

> <Gold.Chemscore.Fitness>
17.3927

> <Gold.Chemscore.DG>
-19.8020

> <Gold.Chemscore.ZeroCoef>
-5.4800

> <Gold.Chemscore.Hbond>
2.2504

> <Gold.Chemscore.Metal>
0.0000

> <Gold.Chemscore.Lipo>
91.3436

> <Gold.Chemscore.Internal_Hbond>
0.0000

> <Gold.Chemscore.DEClash>
0.1964

> <Gold.Chemscore.DEInternal>
2.2129

> <Gold.Chemscore.Rot>
1.5162

> <Gold.Chemscore.Internal.Correction>
   9.000000E+99

> <Gold.Chemscore.Hbonds>
donor molecule, donor type, donor heavy atom, donor atom, acceptor molecule, acceptor atom, score
      L1  H     7    31       P1  7948  0.99
      L1  H    10    32       P1  7948  0.94
      P1  H  7989  7998       L1    20  0.20

> <Gold.Chemscore.Hbond.Weighted>
-7.5163

> <Gold.Chemscore.Metal.Weighted>
-0.0000

> <Gold.Chemscore.Lipo.Weighted>
-10.6872

> <Gold.Chemscore.Internal_Hbond.Weighted>
0.0000

> <Gold.Chemscore.DEClash.Weighted>
0.1964

> <Gold.Chemscore.DEInternal.Weighted>
2.2129

> <Gold.Chemscore.Rot.Weighted>
3.8814

> <Gold.Chemscore.Internal.Correction.Weighted>
   9.000000E+99

> <Gold.Protein.RotatedTorsions>
[ 6907 6896 6895 6894 ] final   41.29 input  -60.11 | X-H torsion
[ 7974 7965 7964 7962 ] final  -20.90 input  175.53 | X-H torsion
[ 8008 7997 7996 7995 ] final   48.90 input   59.86 | X-H torsion
[ 10167 10162 10161 10158 ] final  -52.51 input  -65.29 | X-H torsion
[ 10718 10713 10712 10709 ] final  147.83 input   66.30 | X-H torsion
[ 10763 10752 10751 10750 ] final  159.80 input  -60.55 | X-H torsion
[ 11005 11000 10999 10996 ] final  170.26 input  -57.11 | X-H torsion

> <Gold.Protein.ActiveResidues>
 VAL166  LYS551  ARG553  GLY616  TRP617  ASP618  TYR619  PRO620  LYS621  CYS622 
 ASP623  PHE694  ASN695  SER759  ASP760  ASP761  ALA762  ILE779  LEU786  VAL792 
 PHE793  MET794  SER795  GLU796  ALA797  LYS798  CYS799  TRP800  GLU811  SER814 

> <Gold.Protein.RotatedAtoms>
  152.1934  134.8651  160.0515 H   0  0  0  0  0  0  0  0  0  0  0  0  # atno 6907 bound_to 6896
  151.9532  133.3667  159.4016 H   0  0  0  0  0  0  0  0  0  0  0  0  # atno 6908 bound_to 6896
  150.6940  134.4242  159.5263 H   0  0  0  0  0  0  0  0  0  0  0  0  # atno 6909 bound_to 6896
  146.1763  140.4267  142.8512 H   0  0  0  0  0  0  0  0  0  0  0  0  # atno 7974 bound_to 7965
  155.3933  140.3434  155.4252 H   0  0  0  0  0  0  0  0  0  0  0  0  # atno 8008 bound_to 7997
  156.1545  140.1581  156.8748 H   0  0  0  0  0  0  0  0  0  0  0  0  # atno 8009 bound_to 7997
  154.5082  140.0797  156.7918 H   0  0  0  0  0  0  0  0  0  0  0  0  # atno 8010 bound_to 7997
  140.6533  143.2581  151.4658 H   0  0  0  0  0  0  0  0  0  0  0  0  # atno 10167 bound_to 10162
  157.3162  131.0896  151.1277 H   0  0  0  0  0  0  0  0  0  0  0  0  # atno 10718 bound_to 10713
  154.2374  135.2776  155.2867 H   0  0  0  0  0  0  0  0  0  0  0  0  # atno 10763 bound_to 10752
  154.5574  135.5657  153.6979 H   0  0  0  0  0  0  0  0  0  0  0  0  # atno 10764 bound_to 10752
  153.0007  135.6289  154.2517 H   0  0  0  0  0  0  0  0  0  0  0  0  # atno 10765 bound_to 10752
  140.3065  134.7552  157.3957 H   0  0  0  0  0  0  0  0  0  0  0  0  # atno 11005 bound_to 11000
  144.8241  140.6599  143.6334 LP  0  0  0  0  0  0  0  0  0  0  0  0  # atno 17320 bound_to 7965
  145.4203  139.1565  143.4077 LP  0  0  0  0  0  0  0  0  0  0  0  0  # atno 17321 bound_to 7965
  139.5752  144.1836  152.1893 LP  0  0  0  0  0  0  0  0  0  0  0  0  # atno 17342 bound_to 10162
  140.1144  144.5428  150.6903 LP  0  0  0  0  0  0  0  0  0  0  0  0  # atno 17343 bound_to 10162
  157.2580  130.6645  149.5961 LP  0  0  0  0  0  0  0  0  0  0  0  0  # atno 17370 bound_to 10713
  155.9682  130.4517  150.5747 LP  0  0  0  0  0  0  0  0  0  0  0  0  # atno 17371 bound_to 10713
  140.1063  134.5405  155.8307 LP  0  0  0  0  0  0  0  0  0  0  0  0  # atno 17394 bound_to 11000
  141.2117  133.6710  156.6604 LP  0  0  0  0  0  0  0  0  0  0  0  0  # atno 17395 bound_to 11000

$$$$
