AV-unprocessed.smi:23|AV-procd|sdf|174|dock7
  -GOLD-   2262015433D 1   1.00000     0.00000
 Structure written by MMmdl.
 53 56  0  0  0  0  0  0  0  0  1 V2000
  152.8997  142.9245  162.1864 C   0  0  0  0  0  0  0  0  0  0  0  0
  152.1168  142.2613  161.2006 O   0  0  0  0  0  0  0  0  0  0  0  0
  152.3196  142.5906  159.8222 C   0  0  2  0  0  0  0  0  0  0  0  0
  153.8370  142.3786  159.6469 C   0  0  0  0  0  0  0  0  0  0  0  0
  151.9227  144.0634  159.5428 C   0  0  0  0  0  0  0  0  0  0  0  0
  152.0612  144.4163  158.0511 C   0  0  0  0  0  0  0  0  0  0  0  0
  151.2997  143.4126  157.1691 C   0  0  0  0  0  0  0  0  0  0  0  0
  151.7009  142.0399  157.4785 N   0  0  0  0  0  0  0  0  0  0  0  0
  151.4151  141.0711  156.5732 C   0  0  0  0  0  0  0  0  0  0  0  0
  152.3615  140.1532  156.2395 N   0  0  0  0  0  0  0  0  0  0  0  0
  152.0921  139.2044  155.3381 C   0  0  0  0  0  0  0  0  0  0  0  0
  150.9602  138.9898  154.6649 N   0  0  0  0  0  0  0  0  0  0  0  0
  150.0021  139.8994  155.0040 C   0  0  0  0  0  0  0  0  0  0  0  0
  150.1464  140.9658  155.9362 C   0  0  0  0  0  0  0  0  0  0  0  0
  148.9608  141.6869  156.0170 N   0  0  0  0  0  0  0  0  0  0  0  0
  148.1677  141.0915  155.1687 C   0  0  0  0  0  0  0  0  0  0  0  0
  148.7015  139.9899  154.5384 N   0  0  0  0  0  0  0  0  0  0  0  0
  148.0661  139.1812  153.5389 C   0  0  0  0  0  0  0  0  0  0  0  0
  146.6255  139.4564  153.0963 C   0  0  0  0  0  0  0  0  0  0  0  0
  146.3672  137.9404  152.9504 C   0  0  0  0  0  0  0  0  0  0  0  0
  145.0551  137.4387  153.5729 C   0  0  0  0  0  0  0  0  0  0  0  0
  143.9353  137.8367  152.8079 O   0  0  0  0  0  0  0  0  0  0  0  0
  146.4513  137.3441  151.5273 C   0  0  0  0  0  0  0  0  0  0  0  0
  146.6719  138.3140  150.5233 O   0  0  0  0  0  0  0  0  0  0  0  0
  147.6108  137.7515  153.8479 C   0  0  0  0  0  0  0  0  0  0  0  0
  151.5371  141.6446  158.8778 C   0  0  0  0  0  0  0  0  0  0  0  0
  152.6450  142.5167  163.1645 H   0  0  0  0  0  0  0  0  0  0  0  0
  152.6916  143.9931  162.2255 H   0  0  0  0  0  0  0  0  0  0  0  0
  153.9690  142.7744  162.0468 H   0  0  0  0  0  0  0  0  0  0  0  0
  154.1678  142.5656  158.6257 H   0  0  0  0  0  0  0  0  0  0  0  0
  154.1181  141.3534  159.8904 H   0  0  0  0  0  0  0  0  0  0  0  0
  154.4059  143.0387  160.3024 H   0  0  0  0  0  0  0  0  0  0  0  0
  150.8853  144.2391  159.8234 H   0  0  0  0  0  0  0  0  0  0  0  0
  152.5230  144.7428  160.1489 H   0  0  0  0  0  0  0  0  0  0  0  0
  151.6870  145.4246  157.8715 H   0  0  0  0  0  0  0  0  0  0  0  0
  153.1130  144.4308  157.7658 H   0  0  0  0  0  0  0  0  0  0  0  0
  150.2254  143.5160  157.3281 H   0  0  0  0  0  0  0  0  0  0  0  0
  151.4933  143.6347  156.1187 H   0  0  0  0  0  0  0  0  0  0  0  0
  152.8987  138.5180  155.1266 H   0  0  0  0  0  0  0  0  0  0  0  0
  147.1614  141.4393  154.9848 H   0  0  0  0  0  0  0  0  0  0  0  0
  148.7391  139.1926  152.6809 H   0  0  0  0  0  0  0  0  0  0  0  0
  146.0258  139.9098  153.8876 H   0  0  0  0  0  0  0  0  0  0  0  0
  146.5404  140.0258  152.1703 H   0  0  0  0  0  0  0  0  0  0  0  0
  145.0520  136.3522  153.6669 H   0  0  0  0  0  0  0  0  0  0  0  0
  144.9259  137.8347  154.5806 H   0  0  0  0  0  0  0  0  0  0  0  0
  144.2042  137.9289  151.9066 H   0  0  0  0  0  0  0  0  0  0  0  0
  147.2581  136.6133  151.4629 H   0  0  0  0  0  0  0  0  0  0  0  0
  145.5323  136.8166  151.2702 H   0  0  0  0  0  0  0  0  0  0  0  0
  145.8453  138.5113  150.1097 H   0  0  0  0  0  0  0  0  0  0  0  0
  148.3046  136.9784  153.5155 H   0  0  0  0  0  0  0  0  0  0  0  0
  147.3604  137.6181  154.9016 H   0  0  0  0  0  0  0  0  0  0  0  0
  151.8463  140.6136  159.0481 H   0  0  0  0  0  0  0  0  0  0  0  0
  150.4690  141.6861  159.0899 H   0  0  0  0  0  0  0  0  0  0  0  0
  1  2  1  0  0  0  0
  1 27  1  0  0  0  0
  1 28  1  0  0  0  0
  1 29  1  0  0  0  0
  2  3  1  0  0  0  0
  3 26  1  0  0  0  0
  3  4  1  0  0  0  0
  3  5  1  0  0  0  0
  4 30  1  0  0  0  0
  4 31  1  0  0  0  0
  4 32  1  0  0  0  0
  5  6  1  0  0  0  0
  5 33  1  0  0  0  0
  5 34  1  0  0  0  0
  6  7  1  0  0  0  0
  6 35  1  0  0  0  0
  6 36  1  0  0  0  0
  7  8  1  0  0  0  0
  7 37  1  0  0  0  0
  7 38  1  0  0  0  0
  8  9  1  0  0  0  0
  8 26  1  0  0  0  0
  9 14  1  0  0  0  0
  9 10  2  0  0  0  0
 10 11  1  0  0  0  0
 11 12  2  0  0  0  0
 11 39  1  0  0  0  0
 12 13  1  0  0  0  0
 13 17  1  0  0  0  0
 13 14  2  0  0  0  0
 14 15  1  0  0  0  0
 15 16  2  0  0  0  0
 16 17  1  0  0  0  0
 16 40  1  0  0  0  0
 17 18  1  0  0  0  0
 18 25  1  0  0  0  0
 18 19  1  0  0  0  0
 18 41  1  0  0  0  0
 19 20  1  0  0  0  0
 19 42  1  0  0  0  0
 19 43  1  0  0  0  0
 20 21  1  0  0  0  0
 20 23  1  0  0  0  0
 20 25  1  0  0  0  0
 21 22  1  0  0  0  0
 21 44  1  0  0  0  0
 21 45  1  0  0  0  0
 22 46  1  0  0  0  0
 23 24  1  0  0  0  0
 23 47  1  0  0  0  0
 23 48  1  0  0  0  0
 24 49  1  0  0  0  0
 25 50  1  0  0  0  0
 25 51  1  0  0  0  0
 26 52  1  0  0  0  0
 26 53  1  0  0  0  0
M  END
> <s_m_source_file>
AV-unprocessed.smi

> <i_m_source_file_index>
23

> <i_lp_mmshare_version>
43012

> <i_f3d_flags>
0

> <s_epik_input>
W0NIM11PW0NAQF0xKFtDSDNdKVtDSDJdW0NIMl1bQ0gyXU4oW0NIMl0xKWMobltjSF1uMiljKGMyMyluW2NIXW4zW0NIXShbQ0gyXTQpW0NIMl1DNChbQ0gyXVtPSF0pW0NIMl1bT0hd

> <s_epik_cmdline>
J2VwaWtfcHl0aG9uJywgJy1waCcsICc3LjAnLCAnLXRuJywgJzgnLCAnLW1hJywgJzIwMCcsICctbWV0YWxfYmluZGluZycsICctaW1hZScsICc8aW5maWxlLm1hZT4nLCAnLW9tYWUnLCAnPG91dGZpbGUubWFlPic=

> <r_lp_tautomer_probability>
1

> <r_epik_Ionization_Penalty>
0.00233978

> <r_epik_Ionization_Penalty_Charging>
0

> <r_epik_Ionization_Penalty_Neutral>
0.00233978

> <r_epik_State_Penalty>
0.00146422

> <r_epik_Charging_Adjusted_Penalty>
0.00146422

> <i_epik_Tot_Q>
0

> <i_epik_Tot_abs_Q>
0

> <r_epik_Metal_State_Penalty>
-0

> <b_epik_Metal_Only>
0

> <s_lp_Force_Field>
OPLS_2005

> <r_lp_Energy>
49.2291

> <b_lp_Chiralities_Consistent>
1

> <s_lp_Variant>
AV-unprocessed.smi:23-2

> <Gold.Version>
5.8.1

> <Gold.Id.Protein>
6NUR|6NUR_protein|mol2

> <Gold.PLP.Fitness>
57.5210

> <Gold.PLP.PLP>
-48.0456

> <Gold.PLP.part.hbond>
-5.4369

> <Gold.PLP.part.metal>
0.0000

> <Gold.PLP.part.buried>
3.0325

> <Gold.PLP.part.nonpolar>
-46.3123

> <Gold.PLP.part.repulsive>
1.1881

> <Gold.PLP.ligand.clash>
0.0000

> <Gold.PLP.ligand.torsion>
1.8183

> <Gold.PLP.Chemscore.Hbond>
4.0798

> <Gold.PLP.Chemscore.CHOScore>
0.0000

> <Gold.PLP.Chemscore.Metal>
0.0000

> <Gold.Chemscore.Hbonds>
donor molecule, donor type, donor heavy atom, donor atom, acceptor molecule, acceptor atom, score
      L1  H    22    46       P1 10171  0.54
      L1  H    24    49       P1 10171  1.00
      P1  H  6933  6945       L1     2  0.09
      P1  H  7954  7966       L1    24  0.88
      P1  H  7997  8009       L1    10  1.00

> <Gold.PLP.Chemscore.Internal.Correction>
0.8725

> <Gold.Rescore>
     Score         DG    S(hbond)    S(metal)    S(lipo)     H(rot)  DE(clash)    DE(int)     intcor
     13.09     -20.27       2.72        0.00     122.82       3.38       5.44       1.74       ----

> <Gold.Chemscore.Fitness>
13.0898

> <Gold.Chemscore.DG>
-20.2687

> <Gold.Chemscore.ZeroCoef>
-5.4800

> <Gold.Chemscore.Hbond>
2.7190

> <Gold.Chemscore.Metal>
0.0000

> <Gold.Chemscore.Lipo>
122.8153

> <Gold.Chemscore.Internal_Hbond>
0.0000

> <Gold.Chemscore.DEClash>
5.4352

> <Gold.Chemscore.DEInternal>
1.7436

> <Gold.Chemscore.Rot>
3.3837

> <Gold.Chemscore.Internal.Correction>
   9.000000E+99

> <Gold.Chemscore.Hbonds>
donor molecule, donor type, donor heavy atom, donor atom, acceptor molecule, acceptor atom, score
      L1  H    22    46       P1 10171  0.52
      L1  H    24    49       P1 10171  0.98
      P1  H  6933  6945       L1     2  0.05
      P1  H  7954  7966       L1    24  0.39
      P1  H  7997  8009       L1    10  0.44

> <Gold.Chemscore.Hbond.Weighted>
-9.0816

> <Gold.Chemscore.Metal.Weighted>
-0.0000

> <Gold.Chemscore.Lipo.Weighted>
-14.3694

> <Gold.Chemscore.Internal_Hbond.Weighted>
0.0000

> <Gold.Chemscore.DEClash.Weighted>
5.4352

> <Gold.Chemscore.DEInternal.Weighted>
1.7436

> <Gold.Chemscore.Rot.Weighted>
8.6622

> <Gold.Chemscore.Internal.Correction.Weighted>
   9.000000E+99

> <Gold.Protein.RotatedTorsions>
[ 6907 6896 6895 6894 ] final  112.03 input  -60.11 | X-H torsion
[ 7974 7965 7964 7962 ] final  -10.37 input  175.53 | X-H torsion
[ 8008 7997 7996 7995 ] final -164.08 input   59.86 | X-H torsion
[ 10167 10162 10161 10158 ] final  -71.21 input  -65.29 | X-H torsion
[ 10718 10713 10712 10709 ] final  -71.11 input   66.30 | X-H torsion
[ 10763 10752 10751 10750 ] final   46.47 input  -60.55 | X-H torsion
[ 11005 11000 10999 10996 ] final  159.41 input  -57.11 | X-H torsion

> <Gold.Protein.ActiveResidues>
 VAL166  LYS551  ARG553  GLY616  TRP617  ASP618  TYR619  PRO620  LYS621  CYS622 
 ASP623  PHE694  ASN695  SER759  ASP760  ASP761  ALA762  ILE779  LEU786  VAL792 
 PHE793  MET794  SER795  GLU796  ALA797  LYS798  CYS799  TRP800  GLU811  SER814 

> <Gold.Protein.RotatedAtoms>
  152.4938  133.8574  159.7232 H   0  0  0  0  0  0  0  0  0  0  0  0  # atno 6907 bound_to 6896
  150.9095  133.7006  159.2865 H   0  0  0  0  0  0  0  0  0  0  0  0  # atno 6908 bound_to 6896
  151.4421  135.1025  159.9725 H   0  0  0  0  0  0  0  0  0  0  0  0  # atno 6909 bound_to 6896
  146.2222  140.2754  142.8359 H   0  0  0  0  0  0  0  0  0  0  0  0  # atno 7974 bound_to 7965
  155.8305  140.0933  157.1795 H   0  0  0  0  0  0  0  0  0  0  0  0  # atno 8008 bound_to 7997
  154.3980  140.1420  156.3669 H   0  0  0  0  0  0  0  0  0  0  0  0  # atno 8009 bound_to 7997
  155.8171  140.3447  155.5494 H   0  0  0  0  0  0  0  0  0  0  0  0  # atno 8010 bound_to 7997
  140.5291  143.2323  151.7295 H   0  0  0  0  0  0  0  0  0  0  0  0  # atno 10167 bound_to 10162
  156.0377  130.4345  150.2395 H   0  0  0  0  0  0  0  0  0  0  0  0  # atno 10718 bound_to 10713
  152.9810  135.6007  154.3605 H   0  0  0  0  0  0  0  0  0  0  0  0  # atno 10763 bound_to 10752
  154.3287  135.2769  155.2485 H   0  0  0  0  0  0  0  0  0  0  0  0  # atno 10764 bound_to 10752
  154.4619  135.5964  153.6317 H   0  0  0  0  0  0  0  0  0  0  0  0  # atno 10765 bound_to 10752
  140.1959  134.8373  157.2964 H   0  0  0  0  0  0  0  0  0  0  0  0  # atno 11005 bound_to 11000
  144.9236  140.7896  143.5733 LP  0  0  0  0  0  0  0  0  0  0  0  0  # atno 17320 bound_to 7965
  145.2693  139.1961  143.4850 LP  0  0  0  0  0  0  0  0  0  0  0  0  # atno 17321 bound_to 7965
  139.4948  144.4141  152.0048 LP  0  0  0  0  0  0  0  0  0  0  0  0  # atno 17342 bound_to 10162
  140.3242  144.3392  150.6002 LP  0  0  0  0  0  0  0  0  0  0  0  0  # atno 17343 bound_to 10162
  157.0493  131.0058  151.3259 LP  0  0  0  0  0  0  0  0  0  0  0  0  # atno 17370 bound_to 10713
  157.5152  130.7963  149.7748 LP  0  0  0  0  0  0  0  0  0  0  0  0  # atno 17371 bound_to 10713
  140.2108  134.4141  155.7614 LP  0  0  0  0  0  0  0  0  0  0  0  0  # atno 17394 bound_to 11000
  141.2227  133.7117  156.8335 LP  0  0  0  0  0  0  0  0  0  0  0  0  # atno 17395 bound_to 11000

$$$$
