AV-unprocessed.smi:3018|AV-procd|sdf|11484|dock9
  -GOLD-   2272016423D 1   1.00000     0.00000
 Structure written by MMmdl.
 44 45  0  0  0  0  0  0  0  0  2 V2000
  151.6326  138.8763  155.8613 C   0  0  0  0  0  0  0  0  0  0  0  0
  151.8991  140.3649  156.1167 C   0  0  0  0  0  0  0  0  0  0  0  0
  150.6035  141.1822  156.2746 C   0  0  1  0  0  0  0  0  0  0  0  0
  150.9667  142.5421  156.5073 O   0  0  0  0  0  0  0  0  0  0  0  0
  151.0980  142.9389  157.8699 C   0  0  0  0  0  0  0  0  0  0  0  0
  151.5479  144.4099  157.8814 C   0  0  0  0  0  0  0  0  0  0  0  0
  151.8085  144.9063  159.3130 C   0  0  0  0  0  0  0  0  0  0  0  0
  152.8357  144.0166  160.0311 C   0  0  0  0  0  0  0  0  0  0  0  0
  152.3983  142.5433  160.0194 C   0  0  0  0  0  0  0  0  0  0  0  0
  152.1349  142.0503  158.5871 C   0  0  0  0  0  0  0  0  0  0  0  0
  149.7325  141.0885  155.0127 C   0  0  0  0  0  0  0  0  0  0  0  0
  150.0152  140.2847  154.1244 O   0  0  0  0  0  0  0  0  0  0  0  0
  148.6803  141.9200  154.9540 N   0  0  0  0  0  0  0  0  0  0  0  0
  147.6835  141.9574  153.8864 C   0  0  0  0  0  0  0  0  0  0  0  0
  146.5052  142.8912  154.2295 C   0  0  0  0  0  0  0  0  0  0  0  0
  146.0806  142.7870  155.6719 C   0  0  0  0  0  0  0  0  0  0  0  0
  146.5543  141.9749  156.5421 N   0  0  0  0  0  0  0  0  0  0  0  0
  145.8433  142.2651  157.6437 N   0  0  0  0  0  0  0  0  0  0  0  0
  144.9619  143.2429  157.4223 C   0  0  0  0  0  0  0  0  0  0  0  0
  144.2010  143.6795  158.2832 O   0  0  0  0  0  0  0  0  0  0  0  0
  145.0997  143.6064  156.1348 N   0  5  0  0  0  0  0  0  0  0  0  0
  146.0082  141.7624  158.5033 H   0  0  0  0  0  0  0  0  0  0  0  0
  152.5684  138.3302  155.7405 H   0  0  0  0  0  0  0  0  0  0  0  0
  151.0438  138.7316  154.9552 H   0  0  0  0  0  0  0  0  0  0  0  0
  151.0886  138.4241  156.6911 H   0  0  0  0  0  0  0  0  0  0  0  0
  152.5208  140.4725  157.0068 H   0  0  0  0  0  0  0  0  0  0  0  0
  152.4843  140.7612  155.2851 H   0  0  0  0  0  0  0  0  0  0  0  0
  150.0496  140.7842  157.1261 H   0  0  0  0  0  0  0  0  0  0  0  0
  150.1416  142.8750  158.3905 H   0  0  0  0  0  0  0  0  0  0  0  0
  152.4556  144.5216  157.2867 H   0  0  0  0  0  0  0  0  0  0  0  0
  150.7890  145.0325  157.4064 H   0  0  0  0  0  0  0  0  0  0  0  0
  152.1615  145.9376  159.2908 H   0  0  0  0  0  0  0  0  0  0  0  0
  150.8728  144.9109  159.8739 H   0  0  0  0  0  0  0  0  0  0  0  0
  153.8063  144.1129  159.5430 H   0  0  0  0  0  0  0  0  0  0  0  0
  152.9707  144.3571  161.0582 H   0  0  0  0  0  0  0  0  0  0  0  0
  153.1631  141.9254  160.4905 H   0  0  0  0  0  0  0  0  0  0  0  0
  151.4937  142.4261  160.6174 H   0  0  0  0  0  0  0  0  0  0  0  0
  151.7975  141.0148  158.6200 H   0  0  0  0  0  0  0  0  0  0  0  0
  153.0691  142.0522  158.0238 H   0  0  0  0  0  0  0  0  0  0  0  0
  148.5345  142.5480  155.7306 H   0  0  0  0  0  0  0  0  0  0  0  0
  148.1840  142.3309  152.9930 H   0  0  0  0  0  0  0  0  0  0  0  0
  147.3227  140.9592  153.6315 H   0  0  0  0  0  0  0  0  0  0  0  0
  146.7702  143.9231  153.9960 H   0  0  0  0  0  0  0  0  0  0  0  0
  145.6594  142.6494  153.5845 H   0  0  0  0  0  0  0  0  0  0  0  0
  1  2  1  0  0  0  0
  1 23  1  0  0  0  0
  1 24  1  0  0  0  0
  1 25  1  0  0  0  0
  2  3  1  0  0  0  0
  2 26  1  0  0  0  0
  2 27  1  0  0  0  0
  3  4  1  0  0  0  0
  3 11  1  0  0  0  0
  3 28  1  0  0  0  0
  4  5  1  0  0  0  0
  5 10  1  0  0  0  0
  5  6  1  0  0  0  0
  5 29  1  0  0  0  0
  6  7  1  0  0  0  0
  6 30  1  0  0  0  0
  6 31  1  0  0  0  0
  7  8  1  0  0  0  0
  7 32  1  0  0  0  0
  7 33  1  0  0  0  0
  8  9  1  0  0  0  0
  8 34  1  0  0  0  0
  8 35  1  0  0  0  0
  9 10  1  0  0  0  0
  9 36  1  0  0  0  0
  9 37  1  0  0  0  0
 10 38  1  0  0  0  0
 10 39  1  0  0  0  0
 11 12  2  0  0  0  0
 11 13  1  0  0  0  0
 13 14  1  0  0  0  0
 13 40  1  0  0  0  0
 14 15  1  0  0  0  0
 14 41  1  0  0  0  0
 14 42  1  0  0  0  0
 15 16  1  0  0  0  0
 15 43  1  0  0  0  0
 15 44  1  0  0  0  0
 16 21  1  0  0  0  0
 16 17  2  0  0  0  0
 17 18  1  0  0  0  0
 18 22  1  0  0  0  0
 18 19  1  0  0  0  0
 19 20  2  0  0  0  0
 19 21  1  0  0  0  0
M  CHG  1  21  -1
M  END
> <s_m_source_file>
AV-unprocessed.smi

> <i_m_source_file_index>
3018

> <i_lp_mmshare_version>
43012

> <i_f3d_flags>
0

> <s_epik_input>
W0NIMl0xW0NIMl1bQ0gyXVtDSDJdW0NIMl1bQ0hdMU9bQ0BASF0oW0NIMl1bQ0gzXSlDKD1PKVtOSF1bQ0gyXVtDSDJdYzJuW25IXWMoPU8pW25IXTI=

> <s_epik_cmdline>
J2VwaWtfcHl0aG9uJywgJy1waCcsICc3LjAnLCAnLXRuJywgJzgnLCAnLW1hJywgJzIwMCcsICctbWV0YWxfYmluZGluZycsICctaW1hZScsICc8aW5maWxlLm1hZT4nLCAnLW9tYWUnLCAnPG91dGZpbGUubWFlPic=

> <r_lp_tautomer_probability>
1

> <r_epik_Ionization_Penalty>
13.7173

> <r_epik_Ionization_Penalty_Charging>
13.7173

> <r_epik_Ionization_Penalty_Neutral>
5.37575e-06

> <r_epik_State_Penalty>
4.05785

> <r_epik_Charging_Adjusted_Penalty>
17.7751

> <i_epik_Tot_Q>
-1

> <i_epik_Tot_abs_Q>
1

> <r_epik_Metal_State_Penalty>
0.460256

> <b_epik_Metal_Only>
1

> <s_lp_Force_Field>
OPLS_2005

> <r_lp_Energy>
25.1559

> <b_lp_Chiralities_Consistent>
1

> <s_lp_Variant>
AV-unprocessed.smi:3018-6

> <Gold.Version>
5.8.1

> <Gold.Id.Protein>
6NUR|6NUR_protein|mol2

> <Gold.PLP.Fitness>
43.5519

> <Gold.PLP.PLP>
-41.5127

> <Gold.PLP.part.hbond>
-2.0000

> <Gold.PLP.part.metal>
0.0000

> <Gold.PLP.part.buried>
-5.7438

> <Gold.PLP.part.nonpolar>
-33.7458

> <Gold.PLP.part.repulsive>
1.7277

> <Gold.PLP.ligand.clash>
0.0039

> <Gold.PLP.ligand.torsion>
0.7370

> <Gold.PLP.Chemscore.Hbond>
1.1194

> <Gold.PLP.Chemscore.CHOScore>
0.0000

> <Gold.PLP.Chemscore.Metal>
0.0000

> <Gold.Chemscore.Hbonds>
donor molecule, donor type, donor heavy atom, donor atom, acceptor molecule, acceptor atom, score
      L1  H    13    40       P1  8028  0.29
      P1  H  7989  7998       L1    12  0.86

> <Gold.PLP.Chemscore.Internal.Correction>
0.1588

> <Gold.Rescore>
     Score         DG    S(hbond)    S(metal)    S(lipo)     H(rot)  DE(clash)    DE(int)     intcor
      8.78     -13.05       1.08        0.00      99.00       2.98       0.35       3.92       ----

> <Gold.Chemscore.Fitness>
8.7783

> <Gold.Chemscore.DG>
-13.0493

> <Gold.Chemscore.ZeroCoef>
-5.4800

> <Gold.Chemscore.Hbond>
1.0801

> <Gold.Chemscore.Metal>
0.0000

> <Gold.Chemscore.Lipo>
99.0022

> <Gold.Chemscore.Internal_Hbond>
0.0000

> <Gold.Chemscore.DEClash>
0.3521

> <Gold.Chemscore.DEInternal>
3.9189

> <Gold.Chemscore.Rot>
2.9772

> <Gold.Chemscore.Internal.Correction>
   9.000000E+99

> <Gold.Chemscore.Hbonds>
donor molecule, donor type, donor heavy atom, donor atom, acceptor molecule, acceptor atom, score
      L1  H    13    40       P1  8028  0.29
      P1  H  7989  7998       L1    12  0.38

> <Gold.Chemscore.Hbond.Weighted>
-3.6077

> <Gold.Chemscore.Metal.Weighted>
-0.0000

> <Gold.Chemscore.Lipo.Weighted>
-11.5833

> <Gold.Chemscore.Internal_Hbond.Weighted>
0.0000

> <Gold.Chemscore.DEClash.Weighted>
0.3521

> <Gold.Chemscore.DEInternal.Weighted>
3.9189

> <Gold.Chemscore.Rot.Weighted>
7.6216

> <Gold.Chemscore.Internal.Correction.Weighted>
   9.000000E+99

> <Gold.Protein.RotatedTorsions>
[ 6907 6896 6895 6894 ] final -106.11 input  -60.11 | X-H torsion
[ 7974 7965 7964 7962 ] final    4.39 input  175.53 | X-H torsion
[ 8008 7997 7996 7995 ] final  176.29 input   59.86 | X-H torsion
[ 10167 10162 10161 10158 ] final  175.11 input  -65.29 | X-H torsion
[ 10718 10713 10712 10709 ] final  -20.52 input   66.30 | X-H torsion
[ 10763 10752 10751 10750 ] final  137.21 input  -60.55 | X-H torsion
[ 11005 11000 10999 10996 ] final -137.50 input  -57.11 | X-H torsion

> <Gold.Protein.ActiveResidues>
 VAL166  LYS551  ARG553  GLY616  TRP617  ASP618  TYR619  PRO620  LYS621  CYS622 
 ASP623  PHE694  ASN695  SER759  ASP760  ASP761  ALA762  ILE779  LEU786  VAL792 
 PHE793  MET794  SER795  GLU796  ALA797  LYS798  CYS799  TRP800  GLU811  SER814 

> <Gold.Protein.RotatedAtoms>
  150.7372  134.0025  159.3642 H   0  0  0  0  0  0  0  0  0  0  0  0  # atno 6907 bound_to 6896
  151.7980  135.0715  160.0406 H   0  0  0  0  0  0  0  0  0  0  0  0  # atno 6908 bound_to 6896
  152.3161  133.5767  159.5749 H   0  0  0  0  0  0  0  0  0  0  0  0  # atno 6909 bound_to 6896
  146.2444  140.0542  142.8373 H   0  0  0  0  0  0  0  0  0  0  0  0  # atno 7974 bound_to 7965
  156.0780  140.1387  156.9747 H   0  0  0  0  0  0  0  0  0  0  0  0  # atno 8008 bound_to 7997
  154.4569  140.0958  156.6832 H   0  0  0  0  0  0  0  0  0  0  0  0  # atno 8009 bound_to 7997
  155.5121  140.3454  155.4392 H   0  0  0  0  0  0  0  0  0  0  0  0  # atno 8010 bound_to 7997
  139.5165  144.3069  152.0328 H   0  0  0  0  0  0  0  0  0  0  0  0  # atno 10167 bound_to 10162
  156.5307  130.4654  149.6548 H   0  0  0  0  0  0  0  0  0  0  0  0  # atno 10718 bound_to 10713
  153.8692  135.3058  155.3441 H   0  0  0  0  0  0  0  0  0  0  0  0  # atno 10763 bound_to 10752
  154.7813  135.4834  153.9854 H   0  0  0  0  0  0  0  0  0  0  0  0  # atno 10764 bound_to 10752
  153.1416  135.6825  153.9114 H   0  0  0  0  0  0  0  0  0  0  0  0  # atno 10765 bound_to 10752
  140.8705  134.2057  157.4654 H   0  0  0  0  0  0  0  0  0  0  0  0  # atno 11005 bound_to 11000
  145.0958  140.9314  143.4742 LP  0  0  0  0  0  0  0  0  0  0  0  0  # atno 17320 bound_to 7965
  145.0724  139.3021  143.5825 LP  0  0  0  0  0  0  0  0  0  0  0  0  # atno 17321 bound_to 7965
  140.2514  144.4164  150.6220 LP  0  0  0  0  0  0  0  0  0  0  0  0  # atno 17342 bound_to 10162
  140.6221  143.2177  151.6671 LP  0  0  0  0  0  0  0  0  0  0  0  0  # atno 17343 bound_to 10162
  156.3062  130.7204  151.2087 LP  0  0  0  0  0  0  0  0  0  0  0  0  # atno 17370 bound_to 10713
  157.7422  131.0493  150.5041 LP  0  0  0  0  0  0  0  0  0  0  0  0  # atno 17371 bound_to 10713
  139.8712  134.9772  156.4949 LP  0  0  0  0  0  0  0  0  0  0  0  0  # atno 17394 bound_to 11000
  140.8579  133.8082  155.9234 LP  0  0  0  0  0  0  0  0  0  0  0  0  # atno 17395 bound_to 11000

$$$$
