AV-unprocessed.smi:2183|AV-procd|sdf|8867|dock9
  -GOLD-   2272012 63D 1   1.00000     0.00000
 Structure written by MMmdl.
 41 43  0  0  0  0  0  0  0  0  2 V2000
  148.4350  142.5301  154.3604 O   0  0  0  0  0  0  0  0  0  0  0  0
  148.8627  141.3978  155.0842 C   0  0  0  0  0  0  0  0  0  0  0  0
  149.8142  141.7522  156.1789 C   0  0  0  0  0  0  0  0  0  0  0  0
  150.2639  143.0049  156.4710 N   0  3  0  0  0  0  0  0  0  0  0  0
  151.1481  142.9502  157.5492 C   0  0  0  0  0  0  0  0  0  0  0  0
  151.8538  143.9578  158.1995 C   0  0  0  0  0  0  0  0  0  0  0  0
  152.6756  143.5621  159.2751 C   0  0  0  0  0  0  0  0  0  0  0  0
  152.7719  142.2110  159.6665 C   0  0  0  0  0  0  0  0  0  0  0  0
  152.0525  141.1981  158.9987 C   0  0  0  0  0  0  0  0  0  0  0  0
  151.2431  141.5969  157.9348 C   0  0  0  0  0  0  0  0  0  0  0  0
  150.4048  140.8944  157.0601 N   0  0  0  0  0  0  0  0  0  0  0  0
  150.2782  139.4331  157.1813 C   0  0  0  0  0  0  0  0  0  0  0  0
  149.9427  138.9801  158.6163 C   0  0  2  0  0  0  0  0  0  0  0  0
  150.9818  138.1666  159.1217 O   0  0  0  0  0  0  0  0  0  0  0  0
  148.6250  138.1959  158.6927 C   0  0  0  0  0  0  0  0  0  0  0  0
  148.2523  138.0610  160.0580 O   0  0  0  0  0  0  0  0  0  0  0  0
  147.6108  136.9057  160.4496 C   0  0  0  0  0  0  0  0  0  0  0  0
  147.2542  136.8022  161.8102 C   0  0  0  0  0  0  0  0  0  0  0  0
  146.5959  135.6569  162.2982 C   0  0  0  0  0  0  0  0  0  0  0  0
  146.2871  134.5977  161.4248 C   0  0  0  0  0  0  0  0  0  0  0  0
  145.4815  133.1926  162.0194 Cl  0  0  0  0  0  0  0  0  0  0  0  0
  146.6372  134.6873  160.0645 C   0  0  0  0  0  0  0  0  0  0  0  0
  147.2953  135.8333  159.5770 C   0  0  0  0  0  0  0  0  0  0  0  0
  148.7826  143.3035  154.7780 H   0  0  0  0  0  0  0  0  0  0  0  0
  147.9923  140.8959  155.5077 H   0  0  0  0  0  0  0  0  0  0  0  0
  149.3359  140.6945  154.3991 H   0  0  0  0  0  0  0  0  0  0  0  0
  151.7814  144.9935  157.9016 H   0  0  0  0  0  0  0  0  0  0  0  0
  153.2429  144.3096  159.8107 H   0  0  0  0  0  0  0  0  0  0  0  0
  153.4104  141.9452  160.4966 H   0  0  0  0  0  0  0  0  0  0  0  0
  152.1319  140.1674  159.3111 H   0  0  0  0  0  0  0  0  0  0  0  0
  149.4866  139.1240  156.4977 H   0  0  0  0  0  0  0  0  0  0  0  0
  151.1890  138.9576  156.8172 H   0  0  0  0  0  0  0  0  0  0  0  0
  149.8693  139.8519  159.2670 H   0  0  0  0  0  0  0  0  0  0  0  0
  151.7856  138.4043  158.6856 H   0  0  0  0  0  0  0  0  0  0  0  0
  147.8473  138.7108  158.1259 H   0  0  0  0  0  0  0  0  0  0  0  0
  148.7634  137.2049  158.2564 H   0  0  0  0  0  0  0  0  0  0  0  0
  147.4877  137.6103  162.4877 H   0  0  0  0  0  0  0  0  0  0  0  0
  146.3290  135.5931  163.3428 H   0  0  0  0  0  0  0  0  0  0  0  0
  146.4018  133.8764  159.3911 H   0  0  0  0  0  0  0  0  0  0  0  0
  147.5485  135.8638  158.5283 H   0  0  0  0  0  0  0  0  0  0  0  0
  149.9879  143.8354  155.9632 H   0  0  0  0  0  0  0  0  0  0  0  0
  1  2  1  0  0  0  0
  1 24  1  0  0  0  0
  2  3  1  0  0  0  0
  2 25  1  0  0  0  0
  2 26  1  0  0  0  0
  3 11  1  0  0  0  0
  3  4  2  0  0  0  0
  4  5  1  0  0  0  0
  4 41  1  0  0  0  0
  5 10  2  0  0  0  0
  5  6  1  0  0  0  0
  6  7  2  0  0  0  0
  6 27  1  0  0  0  0
  7  8  1  0  0  0  0
  7 28  1  0  0  0  0
  8  9  2  0  0  0  0
  8 29  1  0  0  0  0
  9 10  1  0  0  0  0
  9 30  1  0  0  0  0
 10 11  1  0  0  0  0
 11 12  1  0  0  0  0
 12 13  1  0  0  0  0
 12 31  1  0  0  0  0
 12 32  1  0  0  0  0
 13 14  1  0  0  0  0
 13 15  1  0  0  0  0
 13 33  1  0  0  0  0
 14 34  1  0  0  0  0
 15 16  1  0  0  0  0
 15 35  1  0  0  0  0
 15 36  1  0  0  0  0
 16 17  1  0  0  0  0
 17 23  1  0  0  0  0
 17 18  2  0  0  0  0
 18 19  1  0  0  0  0
 18 37  1  0  0  0  0
 19 20  2  0  0  0  0
 19 38  1  0  0  0  0
 20 21  1  0  0  0  0
 20 22  1  0  0  0  0
 22 23  2  0  0  0  0
 22 39  1  0  0  0  0
 23 40  1  0  0  0  0
M  CHG  1   4   1
M  END
> <s_m_source_file>
AV-unprocessed.smi

> <i_m_source_file_index>
2183

> <i_lp_mmshare_version>
43012

> <i_f3d_flags>
0

> <s_epik_input>
W2NIXTFbY0hdW2NIXVtjSF1jKGMxMiluKGMobjIpW0NIMl1bT0hdKVtDSDJdW0NASF0oW09IXSlbQ0gyXU9jM1tjSF1bY0hdYyhDbClbY0hdW2NIXTM=

> <s_epik_cmdline>
J2VwaWtfcHl0aG9uJywgJy1waCcsICc3LjAnLCAnLXRuJywgJzgnLCAnLW1hJywgJzIwMCcsICctbWV0YWxfYmluZGluZycsICctaW1hZScsICc8aW5maWxlLm1hZT4nLCAnLW9tYWUnLCAnPG91dGZpbGUubWFlPic=

> <r_lp_tautomer_probability>
1

> <r_epik_Ionization_Penalty>
1.40052

> <r_epik_Ionization_Penalty_Charging>
1.39966

> <r_epik_Ionization_Penalty_Neutral>
0.000858184

> <r_epik_State_Penalty>
1.4817

> <r_epik_Charging_Adjusted_Penalty>
2.88136

> <i_epik_Tot_Q>
1

> <i_epik_Tot_abs_Q>
1

> <r_epik_Metal_State_Penalty>
5.5238

> <b_epik_Metal_Only>
0

> <s_lp_Force_Field>
OPLS_2005

> <r_lp_Energy>
17.0634

> <b_lp_Chiralities_Consistent>
1

> <s_lp_Variant>
AV-unprocessed.smi:2183-3

> <Gold.Version>
5.8.1

> <Gold.Id.Protein>
6NUR|6NUR_protein|mol2

> <Gold.PLP.Fitness>
58.0826

> <Gold.PLP.PLP>
-49.9005

> <Gold.PLP.part.hbond>
-5.0000

> <Gold.PLP.part.metal>
0.0000

> <Gold.PLP.part.buried>
-6.2534

> <Gold.PLP.part.nonpolar>
-39.6384

> <Gold.PLP.part.repulsive>
0.0739

> <Gold.PLP.ligand.clash>
0.0000

> <Gold.PLP.ligand.torsion>
1.1078

> <Gold.PLP.Chemscore.Hbond>
3.4330

> <Gold.PLP.Chemscore.CHOScore>
0.0000

> <Gold.PLP.Chemscore.Metal>
0.0000

> <Gold.Chemscore.Hbonds>
donor molecule, donor type, donor heavy atom, donor atom, acceptor molecule, acceptor atom, score
      L1  H     1    24       P1  8028  1.00
      L1  H     4    41       P1  8028  1.39
      P1  H  6931  6943       L1    16  0.11
      P1  H  6934  6947       L1    16  0.21

> <Gold.PLP.Chemscore.Internal.Correction>
0.0987

> <Gold.Rescore>
     Score         DG    S(hbond)    S(metal)    S(lipo)     H(rot)  DE(clash)    DE(int)     intcor
     17.45     -19.00       1.95        0.00     128.22       3.13       0.10       1.44       ----

> <Gold.Chemscore.Fitness>
17.4518

> <Gold.Chemscore.DG>
-18.9970

> <Gold.Chemscore.ZeroCoef>
-5.4800

> <Gold.Chemscore.Hbond>
1.9549

> <Gold.Chemscore.Metal>
0.0000

> <Gold.Chemscore.Lipo>
128.2189

> <Gold.Chemscore.Internal_Hbond>
0.0000

> <Gold.Chemscore.DEClash>
0.1007

> <Gold.Chemscore.DEInternal>
1.4445

> <Gold.Chemscore.Rot>
3.1305

> <Gold.Chemscore.Internal.Correction>
   9.000000E+99

> <Gold.Chemscore.Hbonds>
donor molecule, donor type, donor heavy atom, donor atom, acceptor molecule, acceptor atom, score
      L1  H     1    24       P1  8028  0.99
      L1  H     4    41       P1  8028  0.69
      P1  H  6931  6943       L1    16  0.01
      P1  H  6934  6947       L1    16  0.02

> <Gold.Chemscore.Hbond.Weighted>
-6.5295

> <Gold.Chemscore.Metal.Weighted>
-0.0000

> <Gold.Chemscore.Lipo.Weighted>
-15.0016

> <Gold.Chemscore.Internal_Hbond.Weighted>
0.0000

> <Gold.Chemscore.DEClash.Weighted>
0.1007

> <Gold.Chemscore.DEInternal.Weighted>
1.4445

> <Gold.Chemscore.Rot.Weighted>
8.0141

> <Gold.Chemscore.Internal.Correction.Weighted>
   9.000000E+99

> <Gold.Protein.RotatedTorsions>
[ 6907 6896 6895 6894 ] final   48.48 input  -60.11 | X-H torsion
[ 7974 7965 7964 7962 ] final   90.67 input  175.53 | X-H torsion
[ 8008 7997 7996 7995 ] final  171.42 input   59.86 | X-H torsion
[ 10167 10162 10161 10158 ] final -145.37 input  -65.29 | X-H torsion
[ 10718 10713 10712 10709 ] final  -42.28 input   66.30 | X-H torsion
[ 10763 10752 10751 10750 ] final  -15.41 input  -60.55 | X-H torsion
[ 11005 11000 10999 10996 ] final   35.13 input  -57.11 | X-H torsion

> <Gold.Protein.ActiveResidues>
 VAL166  LYS551  ARG553  GLY616  TRP617  ASP618  TYR619  PRO620  LYS621  CYS622 
 ASP623  PHE694  ASN695  SER759  ASP760  ASP761  ALA762  ILE779  LEU786  VAL792 
 PHE793  MET794  SER795  GLU796  ALA797  LYS798  CYS799  TRP800  GLU811  SER814 

> <Gold.Protein.RotatedAtoms>
  152.2799  134.7840  160.0398 H   0  0  0  0  0  0  0  0  0  0  0  0  # atno 6907 bound_to 6896
  151.8422  133.3420  159.3655 H   0  0  0  0  0  0  0  0  0  0  0  0  # atno 6908 bound_to 6896
  150.7185  134.5308  159.5744 H   0  0  0  0  0  0  0  0  0  0  0  0  # atno 6909 bound_to 6896
  145.5159  139.2278  143.2699 H   0  0  0  0  0  0  0  0  0  0  0  0  # atno 7974 bound_to 7965
  156.1273  140.1512  156.9118 H   0  0  0  0  0  0  0  0  0  0  0  0  # atno 8008 bound_to 7997
  154.4881  140.0859  156.7573 H   0  0  0  0  0  0  0  0  0  0  0  0  # atno 8009 bound_to 7997
  155.4320  140.3427  155.4283 H   0  0  0  0  0  0  0  0  0  0  0  0  # atno 8010 bound_to 7997
  139.7811  143.8099  152.2639 H   0  0  0  0  0  0  0  0  0  0  0  0  # atno 10167 bound_to 10162
  156.2612  130.4197  149.8540 H   0  0  0  0  0  0  0  0  0  0  0  0  # atno 10718 bound_to 10713
  153.5429  135.7013  153.5628 H   0  0  0  0  0  0  0  0  0  0  0  0  # atno 10763 bound_to 10752
  153.3586  135.3976  155.1701 H   0  0  0  0  0  0  0  0  0  0  0  0  # atno 10764 bound_to 10752
  154.8671  135.3783  154.4935 H   0  0  0  0  0  0  0  0  0  0  0  0  # atno 10765 bound_to 10752
  140.2458  134.3361  155.7908 H   0  0  0  0  0  0  0  0  0  0  0  0  # atno 11005 bound_to 11000
  146.2137  140.5968  142.9048 LP  0  0  0  0  0  0  0  0  0  0  0  0  # atno 17320 bound_to 7965
  144.7702  140.5621  143.6675 LP  0  0  0  0  0  0  0  0  0  0  0  0  # atno 17321 bound_to 7965
  139.8162  144.7315  150.9632 LP  0  0  0  0  0  0  0  0  0  0  0  0  # atno 17342 bound_to 10162
  140.7818  143.4203  151.0852 LP  0  0  0  0  0  0  0  0  0  0  0  0  # atno 17343 bound_to 10162
  156.6054  130.8564  151.3442 LP  0  0  0  0  0  0  0  0  0  0  0  0  # atno 17370 bound_to 10713
  157.7251  130.9612  150.1601 LP  0  0  0  0  0  0  0  0  0  0  0  0  # atno 17371 bound_to 10713
  141.2206  133.7325  156.8958 LP  0  0  0  0  0  0  0  0  0  0  0  0  # atno 17394 bound_to 11000
  140.1607  134.9167  157.2711 LP  0  0  0  0  0  0  0  0  0  0  0  0  # atno 17395 bound_to 11000

$$$$
