AV-unprocessed.smi:2104|AV-procd|sdf|8588|dock4
  -GOLD-   2272011323D 1   1.00000     0.00000
 Structure written by MMmdl.
 42 43  0  0  0  0  0  0  0  0  2 V2000
  145.7597  133.5566  162.4808 C   0  0  0  0  0  0  0  0  0  0  0  0
  146.7001  134.4125  161.7033 C   0  0  0  0  0  0  0  0  0  0  0  0
  147.3200  135.5976  161.9797 C   0  0  0  0  0  0  0  0  0  0  0  0
  148.0723  135.8532  160.8007 C   0  0  0  0  0  0  0  0  0  0  0  0
  148.8714  136.9103  160.5915 N   0  5  0  0  0  0  0  0  0  0  0  0
  149.5504  137.0305  159.4276 C   0  0  0  0  0  0  0  0  0  0  0  0
  149.9080  136.1083  158.6910 O   0  0  0  0  0  0  0  0  0  0  0  0
  149.8179  138.2998  159.0892 N   0  0  0  0  0  0  0  0  0  0  0  0
  150.4582  138.7451  157.8550 C   0  0  0  0  0  0  0  0  0  0  0  0
  150.3958  140.2729  157.7066 C   0  0  0  0  0  0  0  0  0  0  0  0
  151.1956  140.8620  158.7220 O   0  0  0  0  0  0  0  0  0  0  0  0
  152.2123  141.7362  158.2471 C   0  0  1  0  0  0  0  0  0  0  0  0
  151.5773  142.9801  157.5848 C   0  0  0  0  0  0  0  0  0  0  0  0
  150.7855  143.8228  158.5980 C   0  0  0  0  0  0  0  0  0  0  0  0
  151.6637  144.2268  159.7913 C   0  0  0  0  0  0  0  0  0  0  0  0
  152.3026  142.9975  160.4572 C   0  0  0  0  0  0  0  0  0  0  0  0
  153.0990  142.1517  159.4425 C   0  0  1  0  0  0  0  0  0  0  0  0
  153.7723  140.9421  160.1096 C   0  0  0  0  0  0  0  0  0  0  0  0
  147.9345  134.8990  159.8956 N   0  0  0  0  0  0  0  0  0  0  0  0
  147.0513  133.9735  160.4647 O   0  0  0  0  0  0  0  0  0  0  0  0
  145.0175  134.1669  162.9953 H   0  0  0  0  0  0  0  0  0  0  0  0
  146.2984  132.9755  163.2289 H   0  0  0  0  0  0  0  0  0  0  0  0
  145.2309  132.8613  161.8285 H   0  0  0  0  0  0  0  0  0  0  0  0
  147.2460  136.1910  162.8785 H   0  0  0  0  0  0  0  0  0  0  0  0
  149.5067  139.0203  159.7238 H   0  0  0  0  0  0  0  0  0  0  0  0
  151.4976  138.4169  157.8725 H   0  0  0  0  0  0  0  0  0  0  0  0
  149.9900  138.2595  156.9975 H   0  0  0  0  0  0  0  0  0  0  0  0
  150.7737  140.5769  156.7300 H   0  0  0  0  0  0  0  0  0  0  0  0
  149.3603  140.6079  157.7605 H   0  0  0  0  0  0  0  0  0  0  0  0
  152.8343  141.2108  157.5199 H   0  0  0  0  0  0  0  0  0  0  0  0
  152.3655  143.5945  157.1484 H   0  0  0  0  0  0  0  0  0  0  0  0
  150.9276  142.6984  156.7569 H   0  0  0  0  0  0  0  0  0  0  0  0
  150.3873  144.7128  158.1104 H   0  0  0  0  0  0  0  0  0  0  0  0
  149.9232  143.2566  158.9523 H   0  0  0  0  0  0  0  0  0  0  0  0
  152.4463  144.9074  159.4540 H   0  0  0  0  0  0  0  0  0  0  0  0
  151.0684  144.7771  160.5203 H   0  0  0  0  0  0  0  0  0  0  0  0
  152.9570  143.3223  161.2666 H   0  0  0  0  0  0  0  0  0  0  0  0
  151.5241  142.3878  160.9180 H   0  0  0  0  0  0  0  0  0  0  0  0
  153.8989  142.7815  159.0502 H   0  0  0  0  0  0  0  0  0  0  0  0
  153.0366  140.2687  160.5506 H   0  0  0  0  0  0  0  0  0  0  0  0
  154.4482  141.2595  160.9040 H   0  0  0  0  0  0  0  0  0  0  0  0
  154.3564  140.3707  159.3879 H   0  0  0  0  0  0  0  0  0  0  0  0
  1  2  1  0  0  0  0
  1 21  1  0  0  0  0
  1 22  1  0  0  0  0
  1 23  1  0  0  0  0
  2 20  1  0  0  0  0
  2  3  2  0  0  0  0
  3  4  1  0  0  0  0
  3 24  1  0  0  0  0
  4  5  1  0  0  0  0
  4 19  2  0  0  0  0
  5  6  1  0  0  0  0
  6  7  2  0  0  0  0
  6  8  1  0  0  0  0
  8  9  1  0  0  0  0
  8 25  1  0  0  0  0
  9 10  1  0  0  0  0
  9 26  1  0  0  0  0
  9 27  1  0  0  0  0
 10 11  1  0  0  0  0
 10 28  1  0  0  0  0
 10 29  1  0  0  0  0
 11 12  1  0  0  0  0
 12 17  1  0  0  0  0
 12 13  1  0  0  0  0
 12 30  1  0  0  0  0
 13 14  1  0  0  0  0
 13 31  1  0  0  0  0
 13 32  1  0  0  0  0
 14 15  1  0  0  0  0
 14 33  1  0  0  0  0
 14 34  1  0  0  0  0
 15 16  1  0  0  0  0
 15 35  1  0  0  0  0
 15 36  1  0  0  0  0
 16 17  1  0  0  0  0
 16 37  1  0  0  0  0
 16 38  1  0  0  0  0
 17 18  1  0  0  0  0
 17 39  1  0  0  0  0
 18 40  1  0  0  0  0
 18 41  1  0  0  0  0
 18 42  1  0  0  0  0
 19 20  1  0  0  0  0
M  CHG  1   5  -1
M  END
> <s_m_source_file>
AV-unprocessed.smi

> <i_m_source_file_index>
2104

> <i_lp_mmshare_version>
43012

> <i_f3d_flags>
0

> <s_epik_input>
W0NIM11jMVtjSF1jKG5vMSlbTkhdQyg9TylbTkhdW0NIMl1bQ0gyXU9bQ0BASF0yW0NIMl1bQ0gyXVtDSDJdW0NIMl1bQ0BIXTJbQ0gzXQ==

> <s_epik_cmdline>
J2VwaWtfcHl0aG9uJywgJy1waCcsICc3LjAnLCAnLXRuJywgJzgnLCAnLW1hJywgJzIwMCcsICctbWV0YWxfYmluZGluZycsICctaW1hZScsICc8aW5maWxlLm1hZT4nLCAnLW9tYWUnLCAnPG91dGZpbGUubWFlPic=

> <r_lp_tautomer_probability>
1

> <r_epik_Ionization_Penalty>
6.47137

> <r_epik_Ionization_Penalty_Charging>
6.47125

> <r_epik_Ionization_Penalty_Neutral>
0.000118933

> <r_epik_State_Penalty>
6.47124

> <r_epik_Charging_Adjusted_Penalty>
12.9425

> <i_epik_Tot_Q>
-1

> <i_epik_Tot_abs_Q>
1

> <r_epik_Metal_State_Penalty>
2.3995

> <b_epik_Metal_Only>
1

> <s_lp_Force_Field>
OPLS_2005

> <r_lp_Energy>
3.93088

> <b_lp_Chiralities_Consistent>
1

> <s_lp_Variant>
AV-unprocessed.smi:2104-6

> <Gold.Version>
5.8.1

> <Gold.Id.Protein>
6NUR|6NUR_protein|mol2

> <Gold.PLP.Fitness>
44.1644

> <Gold.PLP.PLP>
-37.2831

> <Gold.PLP.part.hbond>
-2.0000

> <Gold.PLP.part.metal>
0.0000

> <Gold.PLP.part.buried>
-6.2038

> <Gold.PLP.part.nonpolar>
-31.1478

> <Gold.PLP.part.repulsive>
1.0853

> <Gold.PLP.ligand.clash>
0.0000

> <Gold.PLP.ligand.torsion>
0.5994

> <Gold.PLP.Chemscore.Hbond>
2.6320

> <Gold.PLP.Chemscore.CHOScore>
0.0000

> <Gold.PLP.Chemscore.Metal>
0.0000

> <Gold.Chemscore.Hbonds>
donor molecule, donor type, donor heavy atom, donor atom, acceptor molecule, acceptor atom, score
      P1  H  6896  6909       L1     7  1.00
      P1  H  6931  6943       L1     5  1.60

> <Gold.PLP.Chemscore.Internal.Correction>
0.1841

> <Gold.Rescore>
     Score         DG    S(hbond)    S(metal)    S(lipo)     H(rot)  DE(clash)    DE(int)     intcor
     16.46     -18.84       1.67        0.00     103.90       1.71       0.21       2.17       ----

> <Gold.Chemscore.Fitness>
16.4593

> <Gold.Chemscore.DG>
-18.8376

> <Gold.Chemscore.ZeroCoef>
-5.4800

> <Gold.Chemscore.Hbond>
1.6707

> <Gold.Chemscore.Metal>
0.0000

> <Gold.Chemscore.Lipo>
103.8956

> <Gold.Chemscore.Internal_Hbond>
0.0000

> <Gold.Chemscore.DEClash>
0.2121

> <Gold.Chemscore.DEInternal>
2.1662

> <Gold.Chemscore.Rot>
1.7103

> <Gold.Chemscore.Internal.Correction>
   9.000000E+99

> <Gold.Chemscore.Hbonds>
donor molecule, donor type, donor heavy atom, donor atom, acceptor molecule, acceptor atom, score
      P1  H  6896  6909       L1     7  0.65
      P1  H  6931  6943       L1     5  0.75

> <Gold.Chemscore.Hbond.Weighted>
-5.5802

> <Gold.Chemscore.Metal.Weighted>
-0.0000

> <Gold.Chemscore.Lipo.Weighted>
-12.1558

> <Gold.Chemscore.Internal_Hbond.Weighted>
0.0000

> <Gold.Chemscore.DEClash.Weighted>
0.2121

> <Gold.Chemscore.DEInternal.Weighted>
2.1662

> <Gold.Chemscore.Rot.Weighted>
4.3784

> <Gold.Chemscore.Internal.Correction.Weighted>
   9.000000E+99

> <Gold.Protein.RotatedTorsions>
[ 6907 6896 6895 6894 ] final   74.12 input  -60.11 | X-H torsion
[ 7974 7965 7964 7962 ] final  154.23 input  175.53 | X-H torsion
[ 8008 7997 7996 7995 ] final  136.36 input   59.86 | X-H torsion
[ 10167 10162 10161 10158 ] final   66.17 input  -65.29 | X-H torsion
[ 10718 10713 10712 10709 ] final   67.11 input   66.30 | X-H torsion
[ 10763 10752 10751 10750 ] final   -2.18 input  -60.55 | X-H torsion
[ 11005 11000 10999 10996 ] final  -31.25 input  -57.11 | X-H torsion

> <Gold.Protein.ActiveResidues>
 VAL166  LYS551  ARG553  GLY616  TRP617  ASP618  TYR619  PRO620  LYS621  CYS622 
 ASP623  PHE694  ASN695  SER759  ASP760  ASP761  ALA762  ILE779  LEU786  VAL792 
 PHE793  MET794  SER795  GLU796  ALA797  LYS798  CYS799  TRP800  GLU811  SER814 

> <Gold.Protein.RotatedAtoms>
  152.4959  134.4319  159.9514 H   0  0  0  0  0  0  0  0  0  0  0  0  # atno 6907 bound_to 6896
  151.4298  133.3667  159.2775 H   0  0  0  0  0  0  0  0  0  0  0  0  # atno 6908 bound_to 6896
  150.9163  134.8603  159.7518 H   0  0  0  0  0  0  0  0  0  0  0  0  # atno 6909 bound_to 6896
  144.8102  139.6905  143.6144 H   0  0  0  0  0  0  0  0  0  0  0  0  # atno 7974 bound_to 7965
  156.3004  140.2447  156.3733 H   0  0  0  0  0  0  0  0  0  0  0  0  # atno 8008 bound_to 7997
  154.8769  140.0414  157.1778 H   0  0  0  0  0  0  0  0  0  0  0  0  # atno 8009 bound_to 7997
  154.8737  140.2939  155.5470 H   0  0  0  0  0  0  0  0  0  0  0  0  # atno 8010 bound_to 7997
  140.1034  144.4884  150.7023 H   0  0  0  0  0  0  0  0  0  0  0  0  # atno 10167 bound_to 10162
  157.6210  130.9303  150.0198 H   0  0  0  0  0  0  0  0  0  0  0  0  # atno 10718 bound_to 10713
  153.3547  135.6987  153.6760 H   0  0  0  0  0  0  0  0  0  0  0  0  # atno 10763 bound_to 10752
  153.5473  135.3561  155.2745 H   0  0  0  0  0  0  0  0  0  0  0  0  # atno 10764 bound_to 10752
  154.8659  135.4218  154.2790 H   0  0  0  0  0  0  0  0  0  0  0  0  # atno 10765 bound_to 10752
  140.9452  133.7254  156.1135 H   0  0  0  0  0  0  0  0  0  0  0  0  # atno 11005 bound_to 11000
  146.2400  139.5982  142.9498 LP  0  0  0  0  0  0  0  0  0  0  0  0  # atno 17320 bound_to 7965
  145.5341  141.0425  143.2367 LP  0  0  0  0  0  0  0  0  0  0  0  0  # atno 17321 bound_to 7965
  140.6966  143.2407  151.4985 LP  0  0  0  0  0  0  0  0  0  0  0  0  # atno 17342 bound_to 10162
  139.5659  144.2044  152.1764 LP  0  0  0  0  0  0  0  0  0  0  0  0  # atno 17343 bound_to 10162
  156.1356  130.3643  149.9663 LP  0  0  0  0  0  0  0  0  0  0  0  0  # atno 17370 bound_to 10713
  156.7715  130.9188  151.3644 LP  0  0  0  0  0  0  0  0  0  0  0  0  # atno 17371 bound_to 10713
  140.7680  134.3865  157.5513 LP  0  0  0  0  0  0  0  0  0  0  0  0  # atno 17394 bound_to 11000
  139.8831  134.9003  156.2787 LP  0  0  0  0  0  0  0  0  0  0  0  0  # atno 17395 bound_to 11000

$$$$
