AV-unprocessed.smi:2007|AV-procd|sdf|8135|dock10
  -GOLD-   2272010373D 1   1.00000     0.00000
 Structure written by MMmdl.
 37 38  0  0  0  0  0  0  0  0  2 V2000
  152.8397  138.5975  155.0544 C   0  0  0  0  0  0  0  0  0  0  0  0
  151.3521  138.7431  155.4022 C   0  0  2  0  0  0  0  0  0  0  0  0
  150.4590  138.3862  154.1907 C   0  0  0  0  0  0  0  0  0  0  0  0
  149.7386  137.0976  154.3523 N   0  3  0  0  0  0  0  0  0  0  0  0
  150.5946  136.0185  154.8982 C   0  0  0  0  0  0  0  0  0  0  0  0
  149.8081  134.6983  154.9719 C   0  0  0  0  0  0  0  0  0  0  0  0
  148.6351  134.8814  155.7554 O   0  0  0  0  0  0  0  0  0  0  0  0
  147.7664  135.8574  155.1932 C   0  0  0  0  0  0  0  0  0  0  0  0
  148.4871  137.2144  155.1395 C   0  0  0  0  0  0  0  0  0  0  0  0
  151.1058  140.1084  155.8696 N   0  0  0  0  0  0  0  0  0  0  0  0
  151.7048  140.7053  156.9112 C   0  0  0  0  0  0  0  0  0  0  0  0
  152.5283  140.1423  157.6330 O   0  0  0  0  0  0  0  0  0  0  0  0
  151.2804  141.9722  157.0589 N   0  0  0  0  0  0  0  0  0  0  0  0
  151.6459  142.9065  158.0634 C   0  0  0  0  0  0  0  0  0  0  0  0
  151.4818  144.2304  157.9570 N   0  0  0  0  0  0  0  0  0  0  0  0
  151.9335  144.9075  159.0927 C   0  0  0  0  0  0  0  0  0  0  0  0
  152.4470  144.0779  160.0584 C   0  0  0  0  0  0  0  0  0  0  0  0
  152.3795  142.4029  159.5791 S   0  0  0  0  0  0  0  0  0  0  0  0
  153.0705  137.5791  154.7410 H   0  0  0  0  0  0  0  0  0  0  0  0
  153.4696  138.8257  155.9151 H   0  0  0  0  0  0  0  0  0  0  0  0
  153.1276  139.2678  154.2435 H   0  0  0  0  0  0  0  0  0  0  0  0
  151.1515  138.0467  156.2174 H   0  0  0  0  0  0  0  0  0  0  0  0
  149.7307  139.1882  154.0598 H   0  0  0  0  0  0  0  0  0  0  0  0
  151.0474  138.3604  153.2721 H   0  0  0  0  0  0  0  0  0  0  0  0
  151.4725  135.8847  154.2649 H   0  0  0  0  0  0  0  0  0  0  0  0
  150.9514  136.3000  155.8901 H   0  0  0  0  0  0  0  0  0  0  0  0
  149.5415  134.3475  153.9735 H   0  0  0  0  0  0  0  0  0  0  0  0
  150.4206  133.9212  155.4295 H   0  0  0  0  0  0  0  0  0  0  0  0
  147.4439  135.5473  154.1976 H   0  0  0  0  0  0  0  0  0  0  0  0
  146.8707  135.9316  155.8097 H   0  0  0  0  0  0  0  0  0  0  0  0
  148.7174  137.5552  156.1501 H   0  0  0  0  0  0  0  0  0  0  0  0
  147.8253  137.9577  154.6956 H   0  0  0  0  0  0  0  0  0  0  0  0
  150.4428  140.6516  155.3358 H   0  0  0  0  0  0  0  0  0  0  0  0
  150.6127  142.3069  156.3796 H   0  0  0  0  0  0  0  0  0  0  0  0
  151.8523  145.9839  159.1291 H   0  0  0  0  0  0  0  0  0  0  0  0
  152.8585  144.3495  161.0193 H   0  0  0  0  0  0  0  0  0  0  0  0
  149.4714  136.8031  153.4234 H   0  0  0  0  0  0  0  0  0  0  0  0
  1  2  1  0  0  0  0
  1 19  1  0  0  0  0
  1 20  1  0  0  0  0
  1 21  1  0  0  0  0
  2  3  1  0  0  0  0
  2 10  1  0  0  0  0
  2 22  1  0  0  0  0
  3  4  1  0  0  0  0
  3 23  1  0  0  0  0
  3 24  1  0  0  0  0
  4  9  1  0  0  0  0
  4  5  1  0  0  0  0
  4 37  1  0  0  0  0
  5  6  1  0  0  0  0
  5 25  1  0  0  0  0
  5 26  1  0  0  0  0
  6  7  1  0  0  0  0
  6 27  1  0  0  0  0
  6 28  1  0  0  0  0
  7  8  1  0  0  0  0
  8  9  1  0  0  0  0
  8 29  1  0  0  0  0
  8 30  1  0  0  0  0
  9 31  1  0  0  0  0
  9 32  1  0  0  0  0
 10 11  1  0  0  0  0
 10 33  1  0  0  0  0
 11 12  2  0  0  0  0
 11 13  1  0  0  0  0
 13 14  1  0  0  0  0
 13 34  1  0  0  0  0
 14 18  1  0  0  0  0
 14 15  2  0  0  0  0
 15 16  1  0  0  0  0
 16 17  2  0  0  0  0
 16 35  1  0  0  0  0
 17 18  1  0  0  0  0
 17 36  1  0  0  0  0
M  CHG  1   4   1
M  END
> <s_m_source_file>
AV-unprocessed.smi

> <i_m_source_file_index>
2007

> <i_lp_mmshare_version>
43012

> <i_f3d_flags>
0

> <s_epik_input>
W0NIMl0xW0NIMl1PW0NIMl1bQ0gyXU4xW0NIMl1bQ0BASF0oW0NIM10pW05IXUMoPU8pW05IXWMybltjSF1bY0hdczI=

> <s_epik_cmdline>
J2VwaWtfcHl0aG9uJywgJy1waCcsICc3LjAnLCAnLXRuJywgJzgnLCAnLW1hJywgJzIwMCcsICctbWV0YWxfYmluZGluZycsICctaW1hZScsICc8aW5maWxlLm1hZT4nLCAnLW9tYWUnLCAnPG91dGZpbGUubWFlPic=

> <r_lp_tautomer_probability>
0.999

> <r_epik_Ionization_Penalty>
0.695848

> <r_epik_Ionization_Penalty_Charging>
0.695697

> <r_epik_Ionization_Penalty_Neutral>
0.000150585

> <r_epik_State_Penalty>
0.717972

> <r_epik_Charging_Adjusted_Penalty>
1.41367

> <i_epik_Tot_Q>
1

> <i_epik_Tot_abs_Q>
1

> <r_epik_Metal_State_Penalty>
0.763271

> <b_epik_Metal_Only>
0

> <s_lp_Force_Field>
OPLS_2005

> <r_lp_Energy>
20.6348

> <b_lp_Chiralities_Consistent>
1

> <s_lp_Variant>
AV-unprocessed.smi:2007-3

> <Gold.Version>
5.8.1

> <Gold.Id.Protein>
6NUR|6NUR_protein|mol2

> <Gold.PLP.Fitness>
40.7249

> <Gold.PLP.PLP>
-33.5914

> <Gold.PLP.part.hbond>
-2.0769

> <Gold.PLP.part.metal>
0.0000

> <Gold.PLP.part.buried>
-4.3526

> <Gold.PLP.part.nonpolar>
-27.0867

> <Gold.PLP.part.repulsive>
0.4126

> <Gold.PLP.ligand.clash>
0.0000

> <Gold.PLP.ligand.torsion>
0.9519

> <Gold.PLP.Chemscore.Hbond>
3.0000

> <Gold.PLP.Chemscore.CHOScore>
0.0000

> <Gold.PLP.Chemscore.Metal>
0.0000

> <Gold.Chemscore.Hbonds>
donor molecule, donor type, donor heavy atom, donor atom, acceptor molecule, acceptor atom, score
      L1  H     4    37       P1  7948  2.00
      P1  H  7997  8008       L1    12  0.86

> <Gold.PLP.Chemscore.Internal.Correction>
0.0374

> <Gold.Rescore>
     Score         DG    S(hbond)    S(metal)    S(lipo)     H(rot)  DE(clash)    DE(int)     intcor
     13.81     -16.76       1.95        0.00      76.34       1.63       0.03       2.93       ----

> <Gold.Chemscore.Fitness>
13.8092

> <Gold.Chemscore.DG>
-16.7649

> <Gold.Chemscore.ZeroCoef>
-5.4800

> <Gold.Chemscore.Hbond>
1.9543

> <Gold.Chemscore.Metal>
0.0000

> <Gold.Chemscore.Lipo>
76.3406

> <Gold.Chemscore.Internal_Hbond>
0.0000

> <Gold.Chemscore.DEClash>
0.0304

> <Gold.Chemscore.DEInternal>
2.9253

> <Gold.Chemscore.Rot>
1.6306

> <Gold.Chemscore.Internal.Correction>
   9.000000E+99

> <Gold.Chemscore.Hbonds>
donor molecule, donor type, donor heavy atom, donor atom, acceptor molecule, acceptor atom, score
      L1  H     4    37       P1  7948  0.85
      P1  H  7997  8008       L1    12  0.60

> <Gold.Chemscore.Hbond.Weighted>
-6.5274

> <Gold.Chemscore.Metal.Weighted>
-0.0000

> <Gold.Chemscore.Lipo.Weighted>
-8.9319

> <Gold.Chemscore.Internal_Hbond.Weighted>
0.0000

> <Gold.Chemscore.DEClash.Weighted>
0.0304

> <Gold.Chemscore.DEInternal.Weighted>
2.9253

> <Gold.Chemscore.Rot.Weighted>
4.1743

> <Gold.Chemscore.Internal.Correction.Weighted>
   9.000000E+99

> <Gold.Protein.RotatedTorsions>
[ 6907 6896 6895 6894 ] final  -15.88 input  -60.11 | X-H torsion
[ 7974 7965 7964 7962 ] final  148.99 input  175.53 | X-H torsion
[ 8008 7997 7996 7995 ] final  -62.87 input   59.86 | X-H torsion
[ 10167 10162 10161 10158 ] final -174.99 input  -65.29 | X-H torsion
[ 10718 10713 10712 10709 ] final  172.35 input   66.30 | X-H torsion
[ 10763 10752 10751 10750 ] final  -33.16 input  -60.55 | X-H torsion
[ 11005 11000 10999 10996 ] final  -50.74 input  -57.11 | X-H torsion

> <Gold.Protein.ActiveResidues>
 VAL166  LYS551  ARG553  GLY616  TRP617  ASP618  TYR619  PRO620  LYS621  CYS622 
 ASP623  PHE694  ASN695  SER759  ASP760  ASP761  ALA762  ILE779  LEU786  VAL792 
 PHE793  MET794  SER795  GLU796  ALA797  LYS798  CYS799  TRP800  GLU811  SER814 

> <Gold.Protein.RotatedAtoms>
  151.3172  135.0809  159.9292 H   0  0  0  0  0  0  0  0  0  0  0  0  # atno 6907 bound_to 6896
  152.5265  133.9676  159.7757 H   0  0  0  0  0  0  0  0  0  0  0  0  # atno 6908 bound_to 6896
  150.9990  133.6023  159.2728 H   0  0  0  0  0  0  0  0  0  0  0  0  # atno 6909 bound_to 6896
  144.8471  139.6224  143.5990 H   0  0  0  0  0  0  0  0  0  0  0  0  # atno 7974 bound_to 7965
  154.4523  140.0987  156.6654 H   0  0  0  0  0  0  0  0  0  0  0  0  # atno 8008 bound_to 7997
  155.5247  140.3480  155.4395 H   0  0  0  0  0  0  0  0  0  0  0  0  # atno 8009 bound_to 7997
  156.0706  140.1348  156.9822 H   0  0  0  0  0  0  0  0  0  0  0  0  # atno 8010 bound_to 7997
  139.5604  144.1883  152.1230 H   0  0  0  0  0  0  0  0  0  0  0  0  # atno 10167 bound_to 10162
  156.9803  131.0117  151.2883 H   0  0  0  0  0  0  0  0  0  0  0  0  # atno 10718 bound_to 10713
  153.8257  135.6870  153.4821 H   0  0  0  0  0  0  0  0  0  0  0  0  # atno 10763 bound_to 10752
  153.1542  135.4606  154.9678 H   0  0  0  0  0  0  0  0  0  0  0  0  # atno 10764 bound_to 10752
  154.7908  135.3301  154.7725 H   0  0  0  0  0  0  0  0  0  0  0  0  # atno 10765 bound_to 10752
  141.0833  133.6648  156.3775 H   0  0  0  0  0  0  0  0  0  0  0  0  # atno 11005 bound_to 11000
  146.2754  139.6739  142.9267 LP  0  0  0  0  0  0  0  0  0  0  0  0  # atno 17320 bound_to 7965
  145.4574  141.0431  143.2770 LP  0  0  0  0  0  0  0  0  0  0  0  0  # atno 17321 bound_to 7965
  140.1395  144.5215  150.6752 LP  0  0  0  0  0  0  0  0  0  0  0  0  # atno 17342 bound_to 10162
  140.6883  143.2362  151.5199 LP  0  0  0  0  0  0  0  0  0  0  0  0  # atno 17343 bound_to 10162
  157.5531  130.8195  149.8170 LP  0  0  0  0  0  0  0  0  0  0  0  0  # atno 17370 bound_to 10713
  156.0247  130.3783  150.1858 LP  0  0  0  0  0  0  0  0  0  0  0  0  # atno 17371 bound_to 10713
  140.5420  134.6111  157.5383 LP  0  0  0  0  0  0  0  0  0  0  0  0  # atno 17394 bound_to 11000
  139.9648  134.7391  156.0161 LP  0  0  0  0  0  0  0  0  0  0  0  0  # atno 17395 bound_to 11000

$$$$
