AV-unprocessed.smi:87|AV-procd|sdf|821|dock7
  -GOLD-   2262017223D 1   1.00000     0.00000
 Structure written by MMmdl.
 58 60  0  0  0  0  0  0  0  0  1 V2000
  147.3632  141.4559  154.7242 C   0  0  0  0  0  0  0  0  0  0  0  0
  148.8951  141.4430  154.8346 C   0  0  0  0  0  0  0  0  0  0  0  0
  149.4811  140.1421  155.4330 C   0  0  0  0  0  0  0  0  0  0  0  0
  151.0252  140.1326  155.3628 C   0  0  0  0  0  0  0  0  0  0  0  0
  151.6536  138.7471  155.5719 C   0  0  0  0  0  0  0  0  0  0  0  0
  148.8930  138.9004  154.7154 C   0  0  0  0  0  0  0  0  0  0  0  0
  148.1950  137.9717  155.6086 N   0  0  0  0  0  0  0  0  0  0  0  0
  147.5528  138.5513  156.7864 C   0  0  0  0  0  0  0  0  0  0  0  0
  147.3701  137.5358  157.9240 C   0  0  0  0  0  0  0  0  0  0  0  0
  148.6419  137.1918  158.5757 C   0  0  0  0  0  0  0  0  0  0  0  0
  149.6425  136.9208  159.0892 N   0  0  0  0  0  0  0  0  0  0  0  0
  147.4831  136.9556  155.0555 C   0  0  0  0  0  0  0  0  0  0  0  0
  147.7913  135.6651  155.3556 N   0  0  0  0  0  0  0  0  0  0  0  0
  147.1209  134.6608  154.7833 C   0  0  0  0  0  0  0  0  0  0  0  0
  146.1314  134.7203  153.8903 N   0  0  0  0  0  0  0  0  0  0  0  0
  145.8171  136.0120  153.5873 C   0  0  0  0  0  0  0  0  0  0  0  0
  146.4308  137.1779  154.1246 C   0  0  0  0  0  0  0  0  0  0  0  0
  145.8364  138.3154  153.5908 N   0  0  0  0  0  0  0  0  0  0  0  0
  144.9410  137.8486  152.7645 C   0  0  0  0  0  0  0  0  0  0  0  0
  144.8744  136.4759  152.6875 N   0  0  0  0  0  0  0  0  0  0  0  0
  144.0028  135.6946  151.8301 C   0  0  0  0  0  0  0  0  0  0  0  0
  143.9816  134.1927  152.1931 C   0  0  1  0  0  0  0  0  0  0  0  0
  142.7326  133.6817  151.7725 O   0  0  0  0  0  0  0  0  0  0  0  0
  145.1142  133.3532  151.5559 C   0  0  2  0  0  0  0  0  0  0  0  0
  145.0021  133.1945  150.0366 C   0  0  0  0  0  0  0  0  0  0  0  0
  145.7772  131.9203  149.7946 C   0  0  0  0  0  0  0  0  0  0  0  0
  145.3645  131.0812  150.9972 C   0  0  0  0  0  0  0  0  0  0  0  0
  145.1014  132.0105  152.0435 O   0  0  0  0  0  0  0  0  0  0  0  0
  147.0244  142.3537  154.2071 H   0  0  0  0  0  0  0  0  0  0  0  0
  146.8809  141.4456  155.7008 H   0  0  0  0  0  0  0  0  0  0  0  0
  147.0019  140.5956  154.1600 H   0  0  0  0  0  0  0  0  0  0  0  0
  149.2885  141.5922  153.8288 H   0  0  0  0  0  0  0  0  0  0  0  0
  149.2303  142.3032  155.4149 H   0  0  0  0  0  0  0  0  0  0  0  0
  149.2035  140.1092  156.4868 H   0  0  0  0  0  0  0  0  0  0  0  0
  151.3568  140.5455  154.4093 H   0  0  0  0  0  0  0  0  0  0  0  0
  151.4349  140.7879  156.1299 H   0  0  0  0  0  0  0  0  0  0  0  0
  152.7405  138.8210  155.6080 H   0  0  0  0  0  0  0  0  0  0  0  0
  151.4038  138.0581  154.7659 H   0  0  0  0  0  0  0  0  0  0  0  0
  151.3218  138.3024  156.5105 H   0  0  0  0  0  0  0  0  0  0  0  0
  148.2005  139.2330  153.9413 H   0  0  0  0  0  0  0  0  0  0  0  0
  149.6733  138.3477  154.1934 H   0  0  0  0  0  0  0  0  0  0  0  0
  148.1216  139.4073  157.1480 H   0  0  0  0  0  0  0  0  0  0  0  0
  146.5801  138.9468  156.4931 H   0  0  0  0  0  0  0  0  0  0  0  0
  146.6983  137.9271  158.6877 H   0  0  0  0  0  0  0  0  0  0  0  0
  146.9348  136.6088  157.5507 H   0  0  0  0  0  0  0  0  0  0  0  0
  147.4270  133.6676  155.0771 H   0  0  0  0  0  0  0  0  0  0  0  0
  144.3131  138.4979  152.1718 H   0  0  0  0  0  0  0  0  0  0  0  0
  142.9982  136.1146  151.8947 H   0  0  0  0  0  0  0  0  0  0  0  0
  144.3309  135.8271  150.7980 H   0  0  0  0  0  0  0  0  0  0  0  0
  144.0284  134.0828  153.2771 H   0  0  0  0  0  0  0  0  0  0  0  0
  142.5775  133.9631  150.8839 H   0  0  0  0  0  0  0  0  0  0  0  0
  146.0863  133.7869  151.7964 H   0  0  0  0  0  0  0  0  0  0  0  0
  143.9613  133.0577  149.7394 H   0  0  0  0  0  0  0  0  0  0  0  0
  145.4040  134.0472  149.4885 H   0  0  0  0  0  0  0  0  0  0  0  0
  145.5417  131.4462  148.8415 H   0  0  0  0  0  0  0  0  0  0  0  0
  146.8490  132.1217  149.8239 H   0  0  0  0  0  0  0  0  0  0  0  0
  144.4459  130.5334  150.7846 H   0  0  0  0  0  0  0  0  0  0  0  0
  146.1298  130.3608  151.2865 H   0  0  0  0  0  0  0  0  0  0  0  0
  1  2  1  0  0  0  0
  1 29  1  0  0  0  0
  1 30  1  0  0  0  0
  1 31  1  0  0  0  0
  2  3  1  0  0  0  0
  2 32  1  0  0  0  0
  2 33  1  0  0  0  0
  3  4  1  0  0  0  0
  3  6  1  0  0  0  0
  3 34  1  0  0  0  0
  4  5  1  0  0  0  0
  4 35  1  0  0  0  0
  4 36  1  0  0  0  0
  5 37  1  0  0  0  0
  5 38  1  0  0  0  0
  5 39  1  0  0  0  0
  6  7  1  0  0  0  0
  6 40  1  0  0  0  0
  6 41  1  0  0  0  0
  7  8  1  0  0  0  0
  7 12  1  0  0  0  0
  8  9  1  0  0  0  0
  8 42  1  0  0  0  0
  8 43  1  0  0  0  0
  9 10  1  0  0  0  0
  9 44  1  0  0  0  0
  9 45  1  0  0  0  0
 10 11  3  0  0  0  0
 12 17  1  0  0  0  0
 12 13  2  0  0  0  0
 13 14  1  0  0  0  0
 14 15  2  0  0  0  0
 14 46  1  0  0  0  0
 15 16  1  0  0  0  0
 16 20  1  0  0  0  0
 16 17  2  0  0  0  0
 17 18  1  0  0  0  0
 18 19  2  0  0  0  0
 19 20  1  0  0  0  0
 19 47  1  0  0  0  0
 20 21  1  0  0  0  0
 21 22  1  0  0  0  0
 21 48  1  0  0  0  0
 21 49  1  0  0  0  0
 22 23  1  0  0  0  0
 22 24  1  0  0  0  0
 22 50  1  0  0  0  0
 23 51  1  0  0  0  0
 24 28  1  0  0  0  0
 24 25  1  0  0  0  0
 24 52  1  0  0  0  0
 25 26  1  0  0  0  0
 25 53  1  0  0  0  0
 25 54  1  0  0  0  0
 26 27  1  0  0  0  0
 26 55  1  0  0  0  0
 26 56  1  0  0  0  0
 27 28  1  0  0  0  0
 27 57  1  0  0  0  0
 27 58  1  0  0  0  0
M  END
> <s_m_source_file>
AV-unprocessed.smi

> <i_m_source_file_index>
87

> <i_lp_mmshare_version>
43012

> <i_f3d_flags>
0

> <s_epik_input>
W0NIM11bQ0gyXVtDSF0oW0NIMl1bQ0gzXSlbQ0gyXU4oW0NIMl1bQ0gyXUMjTiljKG5bY0hdbjEpYyhjMTIpbltjSF1uMltDSDJdW0NASF0oW09IXSlbQ0BASF0zW0NIMl1bQ0gyXVtDSDJdTzM=

> <s_epik_cmdline>
J2VwaWtfcHl0aG9uJywgJy1waCcsICc3LjAnLCAnLXRuJywgJzgnLCAnLW1hJywgJzIwMCcsICctbWV0YWxfYmluZGluZycsICctaW1hZScsICc8aW5maWxlLm1hZT4nLCAnLW9tYWUnLCAnPG91dGZpbGUubWFlPic=

> <r_lp_tautomer_probability>
1

> <r_epik_Ionization_Penalty>
0.000348566

> <r_epik_Ionization_Penalty_Charging>
0

> <r_epik_Ionization_Penalty_Neutral>
0.000348566

> <r_epik_State_Penalty>
-0

> <r_epik_Charging_Adjusted_Penalty>
0

> <i_epik_Tot_Q>
0

> <i_epik_Tot_abs_Q>
0

> <r_epik_Metal_State_Penalty>
-0

> <b_epik_Metal_Only>
0

> <s_lp_Force_Field>
OPLS_2005

> <r_lp_Energy>
32.9267

> <b_lp_Chiralities_Consistent>
1

> <s_lp_Variant>
AV-unprocessed.smi:87-2

> <Gold.Version>
5.8.1

> <Gold.Id.Protein>
6NUR|6NUR_protein|mol2

> <Gold.PLP.Fitness>
42.8469

> <Gold.PLP.PLP>
-35.3974

> <Gold.PLP.part.hbond>
-2.0000

> <Gold.PLP.part.metal>
0.0000

> <Gold.PLP.part.buried>
-2.9143

> <Gold.PLP.part.nonpolar>
-31.4721

> <Gold.PLP.part.repulsive>
0.5560

> <Gold.PLP.ligand.clash>
0.0000

> <Gold.PLP.ligand.torsion>
2.1143

> <Gold.PLP.Chemscore.Hbond>
1.5863

> <Gold.PLP.Chemscore.CHOScore>
2.0000

> <Gold.PLP.Chemscore.Metal>
0.0000

> <Gold.Chemscore.Hbonds>
donor molecule, donor type, donor heavy atom, donor atom, acceptor molecule, acceptor atom, score
      L1  H    23    51       P1 10186  0.66
      L1  C    19    47       P1 10171  1.00
      L1  C    19    47       P1 10175  1.00

> <Gold.PLP.Chemscore.Internal.Correction>
0.9192

> <Gold.Rescore>
     Score         DG    S(hbond)    S(metal)    S(lipo)     H(rot)  DE(clash)    DE(int)     intcor
      6.02     -11.03       1.38        0.00      87.55       3.64       0.31       4.70       ----

> <Gold.Chemscore.Fitness>
6.0203

> <Gold.Chemscore.DG>
-11.0320

> <Gold.Chemscore.ZeroCoef>
-5.4800

> <Gold.Chemscore.Hbond>
1.3829

> <Gold.Chemscore.Metal>
0.0000

> <Gold.Chemscore.Lipo>
87.5505

> <Gold.Chemscore.Internal_Hbond>
0.0000

> <Gold.Chemscore.DEClash>
0.3103

> <Gold.Chemscore.DEInternal>
4.7014

> <Gold.Chemscore.Rot>
3.6368

> <Gold.Chemscore.Internal.Correction>
   9.000000E+99

> <Gold.Chemscore.Hbonds>
donor molecule, donor type, donor heavy atom, donor atom, acceptor molecule, acceptor atom, score
      L1  H    23    51       P1 10186  0.39
      P1  H  6896  6907       L1    11  0.05

> <Gold.Chemscore.Hbond.Weighted>
-4.6188

> <Gold.Chemscore.Metal.Weighted>
-0.0000

> <Gold.Chemscore.Lipo.Weighted>
-10.2434

> <Gold.Chemscore.Internal_Hbond.Weighted>
0.0000

> <Gold.Chemscore.DEClash.Weighted>
0.3103

> <Gold.Chemscore.DEInternal.Weighted>
4.7014

> <Gold.Chemscore.Rot.Weighted>
9.3102

> <Gold.Chemscore.Internal.Correction.Weighted>
   9.000000E+99

> <Gold.Protein.RotatedTorsions>
[ 6907 6896 6895 6894 ] final  -33.96 input  -60.11 | X-H torsion
[ 7974 7965 7964 7962 ] final   40.46 input  175.53 | X-H torsion
[ 8008 7997 7996 7995 ] final  -27.47 input   59.86 | X-H torsion
[ 10167 10162 10161 10158 ] final  133.43 input  -65.29 | X-H torsion
[ 10718 10713 10712 10709 ] final   20.23 input   66.30 | X-H torsion
[ 10763 10752 10751 10750 ] final   52.36 input  -60.55 | X-H torsion
[ 11005 11000 10999 10996 ] final   12.42 input  -57.11 | X-H torsion

> <Gold.Protein.ActiveResidues>
 VAL166  LYS551  ARG553  GLY616  TRP617  ASP618  TYR619  PRO620  LYS621  CYS622 
 ASP623  PHE694  ASN695  SER759  ASP760  ASP761  ALA762  ILE779  LEU786  VAL792 
 PHE793  MET794  SER795  GLU796  ALA797  LYS798  CYS799  TRP800  GLU811  SER814 

> <Gold.Protein.RotatedAtoms>
  151.0588  134.9723  159.8249 H   0  0  0  0  0  0  0  0  0  0  0  0  # atno 6907 bound_to 6896
  152.5392  134.2444  159.8884 H   0  0  0  0  0  0  0  0  0  0  0  0  # atno 6908 bound_to 6896
  151.2463  133.4330  159.2643 H   0  0  0  0  0  0  0  0  0  0  0  0  # atno 6909 bound_to 6896
  146.0902  139.5530  142.9480 H   0  0  0  0  0  0  0  0  0  0  0  0  # atno 7974 bound_to 7965
  154.4376  140.1871  156.0938 H   0  0  0  0  0  0  0  0  0  0  0  0  # atno 8008 bound_to 7997
  156.0345  140.3327  155.7150 H   0  0  0  0  0  0  0  0  0  0  0  0  # atno 8009 bound_to 7997
  155.5790  140.0620  157.2778 H   0  0  0  0  0  0  0  0  0  0  0  0  # atno 8010 bound_to 7997
  139.5297  144.6616  151.4995 H   0  0  0  0  0  0  0  0  0  0  0  0  # atno 10167 bound_to 10162
  157.1215  130.6552  149.5925 H   0  0  0  0  0  0  0  0  0  0  0  0  # atno 10718 bound_to 10713
  152.9788  135.5815  154.4566 H   0  0  0  0  0  0  0  0  0  0  0  0  # atno 10763 bound_to 10752
  154.4148  135.2770  155.2015 H   0  0  0  0  0  0  0  0  0  0  0  0  # atno 10764 bound_to 10752
  154.3790  135.6151  153.5834 H   0  0  0  0  0  0  0  0  0  0  0  0  # atno 10765 bound_to 10752
  140.4921  134.0830  155.7774 H   0  0  0  0  0  0  0  0  0  0  0  0  # atno 11005 bound_to 11000
  145.6053  141.0349  143.1996 LP  0  0  0  0  0  0  0  0  0  0  0  0  # atno 17320 bound_to 7965
  144.7355  139.7599  143.7331 LP  0  0  0  0  0  0  0  0  0  0  0  0  # atno 17321 bound_to 7965
  140.6467  143.8781  150.6744 LP  0  0  0  0  0  0  0  0  0  0  0  0  # atno 17342 bound_to 10162
  140.2132  143.3867  152.1701 LP  0  0  0  0  0  0  0  0  0  0  0  0  # atno 17343 bound_to 10162
  155.9827  130.4843  150.6897 LP  0  0  0  0  0  0  0  0  0  0  0  0  # atno 17370 bound_to 10713
  157.4472  131.0868  151.0883 LP  0  0  0  0  0  0  0  0  0  0  0  0  # atno 17371 bound_to 10713
  141.1478  133.9023  157.2172 LP  0  0  0  0  0  0  0  0  0  0  0  0  # atno 17394 bound_to 11000
  139.9763  135.0113  156.9638 LP  0  0  0  0  0  0  0  0  0  0  0  0  # atno 17395 bound_to 11000

$$$$
