AV-unprocessed.smi:698|AV-procd|sdf|3398|dock9
  -GOLD-   22720 0383D 1   1.00000     0.00000
 Structure written by MMmdl.
 33 34  0  0  0  0  0  0  0  0  1 V2000
  154.5015  140.7133  162.0242 C   0  0  0  0  0  0  0  0  0  0  0  0
  153.6517  141.8563  161.4640 C   0  0  0  0  0  0  0  0  0  0  0  0
  153.4268  141.6229  160.0767 O   0  0  0  0  0  0  0  0  0  0  0  0
  152.7233  142.5671  159.3571 C   0  0  0  0  0  0  0  0  0  0  0  0
  152.8026  143.9157  159.7525 C   0  0  0  0  0  0  0  0  0  0  0  0
  152.0843  144.8742  159.0159 C   0  0  0  0  0  0  0  0  0  0  0  0
  151.3145  144.4499  157.9161 C   0  0  0  0  0  0  0  0  0  0  0  0
  151.2817  143.0782  157.5808 C   0  0  0  0  0  0  0  0  0  0  0  0
  150.4761  142.7497  156.4584 N   0  0  0  0  0  0  0  0  0  0  0  0
  150.2517  141.5368  155.9191 C   0  0  0  0  0  0  0  0  0  0  0  0
  150.7201  140.4820  156.3501 O   0  0  0  0  0  0  0  0  0  0  0  0
  149.3244  141.5211  154.6979 C   0  0  1  0  0  0  0  0  0  0  0  0
  149.0946  140.1254  154.0860 C   0  0  0  0  0  0  0  0  0  0  0  0
  147.6395  139.8311  154.3962 C   0  0  0  0  0  0  0  0  0  0  0  0
  147.0398  141.2291  154.4425 C   0  0  0  0  0  0  0  0  0  0  0  0
  148.0392  141.9813  155.1114 O   0  0  0  0  0  0  0  0  0  0  0  0
  151.9810  142.1639  158.2966 N   0  0  0  0  0  0  0  0  0  0  0  0
  154.6850  140.8515  163.0900 H   0  0  0  0  0  0  0  0  0  0  0  0
  155.4678  140.6617  161.5221 H   0  0  0  0  0  0  0  0  0  0  0  0
  154.0022  139.7531  161.8923 H   0  0  0  0  0  0  0  0  0  0  0  0
  152.7020  141.9028  161.9996 H   0  0  0  0  0  0  0  0  0  0  0  0
  154.1702  142.8048  161.6133 H   0  0  0  0  0  0  0  0  0  0  0  0
  153.4019  144.2081  160.6021 H   0  0  0  0  0  0  0  0  0  0  0  0
  152.1222  145.9182  159.2895 H   0  0  0  0  0  0  0  0  0  0  0  0
  150.7556  145.1735  157.3404 H   0  0  0  0  0  0  0  0  0  0  0  0
  150.0109  143.5273  156.0139 H   0  0  0  0  0  0  0  0  0  0  0  0
  149.7094  142.1937  153.9293 H   0  0  0  0  0  0  0  0  0  0  0  0
  149.2429  140.1717  153.0065 H   0  0  0  0  0  0  0  0  0  0  0  0
  149.7589  139.3497  154.4691 H   0  0  0  0  0  0  0  0  0  0  0  0
  147.1643  139.1859  153.6571 H   0  0  0  0  0  0  0  0  0  0  0  0
  147.5533  139.3555  155.3741 H   0  0  0  0  0  0  0  0  0  0  0  0
  146.8938  141.6257  153.4367 H   0  0  0  0  0  0  0  0  0  0  0  0
  146.0875  141.2644  154.9717 H   0  0  0  0  0  0  0  0  0  0  0  0
  1  2  1  0  0  0  0
  1 18  1  0  0  0  0
  1 19  1  0  0  0  0
  1 20  1  0  0  0  0
  2  3  1  0  0  0  0
  2 21  1  0  0  0  0
  2 22  1  0  0  0  0
  3  4  1  0  0  0  0
  4 17  1  0  0  0  0
  4  5  2  0  0  0  0
  5  6  1  0  0  0  0
  5 23  1  0  0  0  0
  6  7  2  0  0  0  0
  6 24  1  0  0  0  0
  7  8  1  0  0  0  0
  7 25  1  0  0  0  0
  8  9  1  0  0  0  0
  8 17  2  0  0  0  0
  9 10  1  0  0  0  0
  9 26  1  0  0  0  0
 10 11  2  0  0  0  0
 10 12  1  0  0  0  0
 12 16  1  0  0  0  0
 12 13  1  0  0  0  0
 12 27  1  0  0  0  0
 13 14  1  0  0  0  0
 13 28  1  0  0  0  0
 13 29  1  0  0  0  0
 14 15  1  0  0  0  0
 14 30  1  0  0  0  0
 14 31  1  0  0  0  0
 15 16  1  0  0  0  0
 15 32  1  0  0  0  0
 15 33  1  0  0  0  0
M  END
> <s_m_source_file>
AV-unprocessed.smi

> <i_m_source_file_index>
698

> <i_lp_mmshare_version>
43012

> <i_f3d_flags>
0

> <s_epik_input>
W0NIM11bQ0gyXU9jMVtjSF1bY0hdW2NIXWMobjEpW05IXUMoPU8pW0NAQEhdMltDSDJdW0NIMl1bQ0gyXU8y

> <s_epik_cmdline>
J2VwaWtfcHl0aG9uJywgJy1waCcsICc3LjAnLCAnLXRuJywgJzgnLCAnLW1hJywgJzIwMCcsICctbWV0YWxfYmluZGluZycsICctaW1hZScsICc8aW5maWxlLm1hZT4nLCAnLW9tYWUnLCAnPG91dGZpbGUubWFlPic=

> <r_lp_tautomer_probability>
1

> <r_epik_Ionization_Penalty>
3.42089e-05

> <r_epik_Ionization_Penalty_Charging>
0

> <r_epik_Ionization_Penalty_Neutral>
3.42089e-05

> <r_epik_State_Penalty>
-0

> <r_epik_Charging_Adjusted_Penalty>
0

> <i_epik_Tot_Q>
0

> <i_epik_Tot_abs_Q>
0

> <r_epik_Metal_State_Penalty>
-0

> <b_epik_Metal_Only>
0

> <s_lp_Force_Field>
OPLS_2005

> <r_lp_Energy>
20.5333

> <b_lp_Chiralities_Consistent>
1

> <s_lp_Variant>
AV-unprocessed.smi:698-2

> <Gold.Version>
5.8.1

> <Gold.Id.Protein>
6NUR|6NUR_protein|mol2

> <Gold.PLP.Fitness>
39.9796

> <Gold.PLP.PLP>
-37.7550

> <Gold.PLP.part.hbond>
-1.0000

> <Gold.PLP.part.metal>
0.0000

> <Gold.PLP.part.buried>
-3.8045

> <Gold.PLP.part.nonpolar>
-34.6052

> <Gold.PLP.part.repulsive>
1.7184

> <Gold.PLP.ligand.clash>
0.0000

> <Gold.PLP.ligand.torsion>
0.3908

> <Gold.PLP.Chemscore.Hbond>
1.0000

> <Gold.PLP.Chemscore.CHOScore>
0.0000

> <Gold.PLP.Chemscore.Metal>
0.0000

> <Gold.Chemscore.Hbonds>
donor molecule, donor type, donor heavy atom, donor atom, acceptor molecule, acceptor atom, score
      L1  H     9    26       P1  8028  1.00

> <Gold.PLP.Chemscore.Internal.Correction>
0.0062

> <Gold.Rescore>
     Score         DG    S(hbond)    S(metal)    S(lipo)     H(rot)  DE(clash)    DE(int)     intcor
     12.82     -14.79       1.00        0.00      82.06       1.42       0.24       1.73       ----

> <Gold.Chemscore.Fitness>
12.8183

> <Gold.Chemscore.DG>
-14.7866

> <Gold.Chemscore.ZeroCoef>
-5.4800

> <Gold.Chemscore.Hbond>
0.9990

> <Gold.Chemscore.Metal>
0.0000

> <Gold.Chemscore.Lipo>
82.0629

> <Gold.Chemscore.Internal_Hbond>
0.0000

> <Gold.Chemscore.DEClash>
0.2421

> <Gold.Chemscore.DEInternal>
1.7261

> <Gold.Chemscore.Rot>
1.4185

> <Gold.Chemscore.Internal.Correction>
   9.000000E+99

> <Gold.Chemscore.Hbonds>
donor molecule, donor type, donor heavy atom, donor atom, acceptor molecule, acceptor atom, score
      L1  H     9    26       P1  8028  1.00

> <Gold.Chemscore.Hbond.Weighted>
-3.3366

> <Gold.Chemscore.Metal.Weighted>
-0.0000

> <Gold.Chemscore.Lipo.Weighted>
-9.6014

> <Gold.Chemscore.Internal_Hbond.Weighted>
0.0000

> <Gold.Chemscore.DEClash.Weighted>
0.2421

> <Gold.Chemscore.DEInternal.Weighted>
1.7261

> <Gold.Chemscore.Rot.Weighted>
3.6313

> <Gold.Chemscore.Internal.Correction.Weighted>
   9.000000E+99

> <Gold.Protein.RotatedTorsions>
[ 6907 6896 6895 6894 ] final  -27.78 input  -60.11 | X-H torsion
[ 7974 7965 7964 7962 ] final  154.40 input  175.53 | X-H torsion
[ 8008 7997 7996 7995 ] final -101.21 input   59.86 | X-H torsion
[ 10167 10162 10161 10158 ] final  -65.55 input  -65.29 | X-H torsion
[ 10718 10713 10712 10709 ] final -125.70 input   66.30 | X-H torsion
[ 10763 10752 10751 10750 ] final   68.24 input  -60.55 | X-H torsion
[ 11005 11000 10999 10996 ] final  -64.65 input  -57.11 | X-H torsion

> <Gold.Protein.ActiveResidues>
 VAL166  LYS551  ARG553  GLY616  TRP617  ASP618  TYR619  PRO620  LYS621  CYS622 
 ASP623  PHE694  ASN695  SER759  ASP760  ASP761  ALA762  ILE779  LEU786  VAL792 
 PHE793  MET794  SER795  GLU796  ALA797  LYS798  CYS799  TRP800  GLU811  SER814 

> <Gold.Protein.RotatedAtoms>
  151.1421  135.0185  159.8630 H   0  0  0  0  0  0  0  0  0  0  0  0  # atno 6907 bound_to 6896
  152.5452  134.1487  159.8519 H   0  0  0  0  0  0  0  0  0  0  0  0  # atno 6908 bound_to 6896
  151.1564  133.4828  159.2627 H   0  0  0  0  0  0  0  0  0  0  0  0  # atno 6909 bound_to 6896
  144.8091  139.6929  143.6149 H   0  0  0  0  0  0  0  0  0  0  0  0  # atno 7974 bound_to 7965
  154.8393  140.0436  157.1531 H   0  0  0  0  0  0  0  0  0  0  0  0  # atno 8008 bound_to 7997
  154.9064  140.3007  155.5269 H   0  0  0  0  0  0  0  0  0  0  0  0  # atno 8009 bound_to 7997
  156.2991  140.2366  156.4098 H   0  0  0  0  0  0  0  0  0  0  0  0  # atno 8010 bound_to 7997
  140.5722  143.2319  151.6516 H   0  0  0  0  0  0  0  0  0  0  0  0  # atno 10167 bound_to 10162
  156.1698  130.6660  151.0165 H   0  0  0  0  0  0  0  0  0  0  0  0  # atno 10718 bound_to 10713
  153.0225  135.5254  154.7103 H   0  0  0  0  0  0  0  0  0  0  0  0  # atno 10763 bound_to 10752
  154.6187  135.2886  155.0352 H   0  0  0  0  0  0  0  0  0  0  0  0  # atno 10764 bound_to 10752
  154.1347  135.6587  153.4982 H   0  0  0  0  0  0  0  0  0  0  0  0  # atno 10765 bound_to 10752
  141.1431  133.6669  156.5866 H   0  0  0  0  0  0  0  0  0  0  0  0  # atno 11005 bound_to 11000
  146.2387  139.5957  142.9506 LP  0  0  0  0  0  0  0  0  0  0  0  0  # atno 17320 bound_to 7965
  145.5366  141.0423  143.2353 LP  0  0  0  0  0  0  0  0  0  0  0  0  # atno 17321 bound_to 7965
  139.5123  144.3479  152.0679 LP  0  0  0  0  0  0  0  0  0  0  0  0  # atno 17342 bound_to 10162
  140.2618  144.4059  150.6183 LP  0  0  0  0  0  0  0  0  0  0  0  0  # atno 17343 bound_to 10162
  157.6795  131.0842  150.7408 LP  0  0  0  0  0  0  0  0  0  0  0  0  # atno 17370 bound_to 10713
  156.7467  130.4756  149.5465 LP  0  0  0  0  0  0  0  0  0  0  0  0  # atno 17371 bound_to 10713
  140.3796  134.7535  157.4652 LP  0  0  0  0  0  0  0  0  0  0  0  0  # atno 17394 bound_to 11000
  140.0648  134.5945  155.8708 LP  0  0  0  0  0  0  0  0  0  0  0  0  # atno 17395 bound_to 11000

$$$$
