AV-unprocessed.smi:1047|AV-procd|sdf|4572|dock9
  -GOLD-   22720 3 33D 1   1.00000     0.00000
 Structure written by MMmdl.
 56 58  0  0  0  0  0  0  0  0  2 V2000
  148.8570  135.1657  155.0455 C   0  0  0  0  0  0  0  0  0  0  0  0
  147.3718  135.0431  154.6763 C   0  0  0  0  0  0  0  0  0  0  0  0
  146.9598  136.0239  153.6413 N   0  3  1  0  0  0  0  0  0  0  0  0
  145.6057  135.7451  153.1074 C   0  0  0  0  0  0  0  0  0  0  0  0
  145.2440  136.7542  152.0057 C   0  0  0  0  0  0  0  0  0  0  0  0
  145.3431  138.0748  152.5222 O   0  0  0  0  0  0  0  0  0  0  0  0
  146.6658  138.3926  152.9434 C   0  0  1  0  0  0  0  0  0  0  0  0
  146.6798  139.8607  153.3940 C   0  0  0  0  0  0  0  0  0  0  0  0
  148.0265  140.2753  153.7689 N   0  0  0  0  0  0  0  0  0  0  0  0
  148.0655  141.5106  154.5483 C   0  0  0  0  0  0  0  0  0  0  0  0
  148.8887  141.3502  155.8394 C   0  0  2  0  0  0  0  0  0  0  0  0
  148.1838  141.9326  156.9191 O   0  0  0  0  0  0  0  0  0  0  0  0
  150.3255  141.9024  155.7372 C   0  0  0  0  0  0  0  0  0  0  0  0
  151.2523  141.1961  156.6028 N   0  0  0  0  0  0  0  0  0  0  0  0
  151.8404  140.0083  156.3643 C   0  0  0  0  0  0  0  0  0  0  0  0
  152.6602  139.5367  157.2992 N   0  0  0  0  0  0  0  0  0  0  0  0
  152.6002  140.5375  158.2540 C   0  0  0  0  0  0  0  0  0  0  0  0
  153.2466  140.6524  159.5040 C   0  0  0  0  0  0  0  0  0  0  0  0
  153.0360  141.7809  160.3281 C   0  0  0  0  0  0  0  0  0  0  0  0
  153.7543  141.8645  161.6633 C   0  0  0  0  0  0  0  0  0  0  0  0
  152.1655  142.8172  159.9050 C   0  0  0  0  0  0  0  0  0  0  0  0
  151.9273  144.0411  160.7717 C   0  0  0  0  0  0  0  0  0  0  0  0
  151.5088  142.7167  158.6608 C   0  0  0  0  0  0  0  0  0  0  0  0
  151.7284  141.5900  157.8486 C   0  0  0  0  0  0  0  0  0  0  0  0
  147.0572  137.4363  154.0871 C   0  0  0  0  0  0  0  0  0  0  0  0
  149.1444  134.3763  155.7403 H   0  0  0  0  0  0  0  0  0  0  0  0
  149.0829  136.1164  155.5272 H   0  0  0  0  0  0  0  0  0  0  0  0
  149.4912  135.0745  154.1632 H   0  0  0  0  0  0  0  0  0  0  0  0
  147.2056  134.0344  154.2955 H   0  0  0  0  0  0  0  0  0  0  0  0
  146.7445  135.1462  155.5630 H   0  0  0  0  0  0  0  0  0  0  0  0
  145.5654  134.7327  152.7035 H   0  0  0  0  0  0  0  0  0  0  0  0
  144.8755  135.7979  153.9166 H   0  0  0  0  0  0  0  0  0  0  0  0
  145.8963  136.6379  151.1387 H   0  0  0  0  0  0  0  0  0  0  0  0
  144.2237  136.5850  151.6616 H   0  0  0  0  0  0  0  0  0  0  0  0
  147.3621  138.2628  152.1120 H   0  0  0  0  0  0  0  0  0  0  0  0
  146.2887  140.4968  152.5988 H   0  0  0  0  0  0  0  0  0  0  0  0
  146.0158  139.9858  154.2503 H   0  0  0  0  0  0  0  0  0  0  0  0
  148.5935  140.3901  152.9342 H   0  0  0  0  0  0  0  0  0  0  0  0
  148.4851  142.3197  153.9489 H   0  0  0  0  0  0  0  0  0  0  0  0
  147.0497  141.8130  154.8058 H   0  0  0  0  0  0  0  0  0  0  0  0
  148.9513  140.2832  156.0573 H   0  0  0  0  0  0  0  0  0  0  0  0
  148.3553  142.8621  156.9216 H   0  0  0  0  0  0  0  0  0  0  0  0
  150.6858  141.8228  154.7108 H   0  0  0  0  0  0  0  0  0  0  0  0
  150.3557  142.9612  155.9954 H   0  0  0  0  0  0  0  0  0  0  0  0
  151.6540  139.4575  155.4537 H   0  0  0  0  0  0  0  0  0  0  0  0
  153.9100  139.8630  159.8257 H   0  0  0  0  0  0  0  0  0  0  0  0
  154.4334  142.7170  161.6774 H   0  0  0  0  0  0  0  0  0  0  0  0
  154.3408  140.9660  161.8569 H   0  0  0  0  0  0  0  0  0  0  0  0
  153.0387  141.9776  162.4777 H   0  0  0  0  0  0  0  0  0  0  0  0
  151.2593  144.7509  160.2831 H   0  0  0  0  0  0  0  0  0  0  0  0
  152.8674  144.5539  160.9758 H   0  0  0  0  0  0  0  0  0  0  0  0
  151.4750  143.7544  161.7213 H   0  0  0  0  0  0  0  0  0  0  0  0
  150.8403  143.4969  158.3279 H   0  0  0  0  0  0  0  0  0  0  0  0
  146.4067  137.5938  154.9491 H   0  0  0  0  0  0  0  0  0  0  0  0
  148.0740  137.6594  154.4089 H   0  0  0  0  0  0  0  0  0  0  0  0
  147.5982  135.9132  152.8664 H   0  0  0  0  0  0  0  0  0  0  0  0
  1  2  1  0  0  0  0
  1 26  1  0  0  0  0
  1 27  1  0  0  0  0
  1 28  1  0  0  0  0
  2  3  1  0  0  0  0
  2 29  1  0  0  0  0
  2 30  1  0  0  0  0
  3 25  1  0  0  0  0
  3  4  1  0  0  0  0
  3 56  1  0  0  0  0
  4  5  1  0  0  0  0
  4 31  1  0  0  0  0
  4 32  1  0  0  0  0
  5  6  1  0  0  0  0
  5 33  1  0  0  0  0
  5 34  1  0  0  0  0
  6  7  1  0  0  0  0
  7  8  1  0  0  0  0
  7 25  1  0  0  0  0
  7 35  1  0  0  0  0
  8  9  1  0  0  0  0
  8 36  1  0  0  0  0
  8 37  1  0  0  0  0
  9 10  1  0  0  0  0
  9 38  1  0  0  0  0
 10 11  1  0  0  0  0
 10 39  1  0  0  0  0
 10 40  1  0  0  0  0
 11 12  1  0  0  0  0
 11 13  1  0  0  0  0
 11 41  1  0  0  0  0
 12 42  1  0  0  0  0
 13 14  1  0  0  0  0
 13 43  1  0  0  0  0
 13 44  1  0  0  0  0
 14 24  1  0  0  0  0
 14 15  1  0  0  0  0
 15 16  2  0  0  0  0
 15 45  1  0  0  0  0
 16 17  1  0  0  0  0
 17 24  2  0  0  0  0
 17 18  1  0  0  0  0
 18 19  2  0  0  0  0
 18 46  1  0  0  0  0
 19 20  1  0  0  0  0
 19 21  1  0  0  0  0
 20 47  1  0  0  0  0
 20 48  1  0  0  0  0
 20 49  1  0  0  0  0
 21 22  1  0  0  0  0
 21 23  2  0  0  0  0
 22 50  1  0  0  0  0
 22 51  1  0  0  0  0
 22 52  1  0  0  0  0
 23 24  1  0  0  0  0
 23 53  1  0  0  0  0
 25 54  1  0  0  0  0
 25 55  1  0  0  0  0
M  CHG  1   3   1
M  END
> <s_m_source_file>
AV-unprocessed.smi

> <i_m_source_file_index>
1047

> <i_lp_mmshare_version>
43012

> <i_f3d_flags>
0

> <s_epik_input>
W0NIM11bQ0gyXU4xW0NIMl1bQ0gyXU9bQ0BIXShbQ0gyXTEpW0NIMl1bTkhdW0NIMl1bQ0BIXShbT0hdKVtDSDJdbihbY0hdbjIpYyhjMjMpW2NIXWMoW0NIM10pYyhbY0hdMylbQ0gzXQ==

> <s_epik_cmdline>
J2VwaWtfcHl0aG9uJywgJy1waCcsICc3LjAnLCAnLXRuJywgJzgnLCAnLW1hJywgJzIwMCcsICctbWV0YWxfYmluZGluZycsICctaW1hZScsICc8aW5maWxlLm1hZT4nLCAnLW9tYWUnLCAnPG91dGZpbGUubWFlPic=

> <r_epik_Ionization_Penalty>
1.19246

> <r_epik_Ionization_Penalty_Charging>
0.210041

> <r_epik_Ionization_Penalty_Neutral>
0.982415

> <r_epik_State_Penalty>
1.57595

> <r_epik_Charging_Adjusted_Penalty>
1.78599

> <i_epik_Tot_Q>
1

> <i_epik_Tot_abs_Q>
1

> <r_epik_Metal_State_Penalty>
1.46172

> <b_epik_Metal_Only>
0

> <s_lp_Force_Field>
OPLS_2005

> <r_lp_Energy>
30.4626

> <b_lp_Chiralities_Consistent>
1

> <s_lp_Variant>
AV-unprocessed.smi:1047-13

> <Gold.Version>
5.8.1

> <Gold.Id.Protein>
6NUR|6NUR_protein|mol2

> <Gold.PLP.Fitness>
56.4485

> <Gold.PLP.PLP>
-44.5686

> <Gold.PLP.part.hbond>
-4.0000

> <Gold.PLP.part.metal>
0.0000

> <Gold.PLP.part.buried>
-3.4212

> <Gold.PLP.part.nonpolar>
-38.0906

> <Gold.PLP.part.repulsive>
0.6623

> <Gold.PLP.ligand.clash>
0.0000

> <Gold.PLP.ligand.torsion>
1.6549

> <Gold.PLP.Chemscore.Hbond>
5.0000

> <Gold.PLP.Chemscore.CHOScore>
0.0000

> <Gold.PLP.Chemscore.Metal>
0.0000

> <Gold.Chemscore.Hbonds>
donor molecule, donor type, donor heavy atom, donor atom, acceptor molecule, acceptor atom, score
      L1  H     3    56       P1  7948  2.00
      L1  H     9    38       P1  7957  0.91
      L1  H    12    42       P1  8028  0.32
      P1  H  7997  8010       L1    16  0.55

> <Gold.PLP.Chemscore.Internal.Correction>
0.1897

> <Gold.Rescore>
     Score         DG    S(hbond)    S(metal)    S(lipo)     H(rot)  DE(clash)    DE(int)     intcor
     20.35     -22.55       2.73        0.00     125.44       2.62       0.56       1.64       ----

> <Gold.Chemscore.Fitness>
20.3526

> <Gold.Chemscore.DG>
-22.5502

> <Gold.Chemscore.ZeroCoef>
-5.4800

> <Gold.Chemscore.Hbond>
2.7256

> <Gold.Chemscore.Metal>
0.0000

> <Gold.Chemscore.Lipo>
125.4376

> <Gold.Chemscore.Internal_Hbond>
0.0000

> <Gold.Chemscore.DEClash>
0.5565

> <Gold.Chemscore.DEInternal>
1.6411

> <Gold.Chemscore.Rot>
2.6209

> <Gold.Chemscore.Internal.Correction>
   9.000000E+99

> <Gold.Chemscore.Hbonds>
donor molecule, donor type, donor heavy atom, donor atom, acceptor molecule, acceptor atom, score
      L1  H     3    56       P1  7948  0.99
      L1  H     9    38       P1  7957  0.87
      L1  H    12    42       P1  8028  0.16
      P1  H  7997  8010       L1    16  0.02

> <Gold.Chemscore.Hbond.Weighted>
-9.1036

> <Gold.Chemscore.Metal.Weighted>
-0.0000

> <Gold.Chemscore.Lipo.Weighted>
-14.6762

> <Gold.Chemscore.Internal_Hbond.Weighted>
0.0000

> <Gold.Chemscore.DEClash.Weighted>
0.5565

> <Gold.Chemscore.DEInternal.Weighted>
1.6411

> <Gold.Chemscore.Rot.Weighted>
6.7096

> <Gold.Chemscore.Internal.Correction.Weighted>
   9.000000E+99

> <Gold.Protein.RotatedTorsions>
[ 6907 6896 6895 6894 ] final   25.85 input  -60.11 | X-H torsion
[ 7974 7965 7964 7962 ] final   99.93 input  175.53 | X-H torsion
[ 8008 7997 7996 7995 ] final   47.18 input   59.86 | X-H torsion
[ 10167 10162 10161 10158 ] final -147.00 input  -65.29 | X-H torsion
[ 10718 10713 10712 10709 ] final  -58.75 input   66.30 | X-H torsion
[ 10763 10752 10751 10750 ] final   14.71 input  -60.55 | X-H torsion
[ 11005 11000 10999 10996 ] final -150.81 input  -57.11 | X-H torsion

> <Gold.Protein.ActiveResidues>
 VAL166  LYS551  ARG553  GLY616  TRP617  ASP618  TYR619  PRO620  LYS621  CYS622 
 ASP623  PHE694  ASN695  SER759  ASP760  ASP761  ALA762  ILE779  LEU786  VAL792 
 PHE793  MET794  SER795  GLU796  ALA797  LYS798  CYS799  TRP800  GLU811  SER814 

> <Gold.Protein.RotatedAtoms>
  151.9786  135.0040  160.0556 H   0  0  0  0  0  0  0  0  0  0  0  0  # atno 6907 bound_to 6896
  152.1717  133.4643  159.4921 H   0  0  0  0  0  0  0  0  0  0  0  0  # atno 6908 bound_to 6896
  150.6903  134.1862  159.4310 H   0  0  0  0  0  0  0  0  0  0  0  0  # atno 6909 bound_to 6896
  145.3923  139.2361  143.3345 H   0  0  0  0  0  0  0  0  0  0  0  0  # atno 7974 bound_to 7965
  155.3648  140.3420  155.4241 H   0  0  0  0  0  0  0  0  0  0  0  0  # atno 8008 bound_to 7997
  156.1694  140.1627  156.8508 H   0  0  0  0  0  0  0  0  0  0  0  0  # atno 8009 bound_to 7997
  154.5218  140.0765  156.8168 H   0  0  0  0  0  0  0  0  0  0  0  0  # atno 8010 bound_to 7997
  139.7662  143.8304  152.2616 H   0  0  0  0  0  0  0  0  0  0  0  0  # atno 10167 bound_to 10162
  156.1112  130.4175  150.0620 H   0  0  0  0  0  0  0  0  0  0  0  0  # atno 10718 bound_to 10713
  153.1595  135.6793  153.8763 H   0  0  0  0  0  0  0  0  0  0  0  0  # atno 10763 bound_to 10752
  153.8163  135.3136  155.3407 H   0  0  0  0  0  0  0  0  0  0  0  0  # atno 10764 bound_to 10752
  154.7922  135.4828  154.0168 H   0  0  0  0  0  0  0  0  0  0  0  0  # atno 10765 bound_to 10752
  140.7362  134.3566  157.5157 H   0  0  0  0  0  0  0  0  0  0  0  0  # atno 11005 bound_to 11000
  146.2792  140.4608  142.8783 LP  0  0  0  0  0  0  0  0  0  0  0  0  # atno 17320 bound_to 7965
  144.8431  140.6888  143.6216 LP  0  0  0  0  0  0  0  0  0  0  0  0  # atno 17321 bound_to 7965
  139.8325  144.7247  150.9432 LP  0  0  0  0  0  0  0  0  0  0  0  0  # atno 17342 bound_to 10162
  140.7811  143.4057  151.1076 LP  0  0  0  0  0  0  0  0  0  0  0  0  # atno 17343 bound_to 10162
  156.8583  130.9482  151.3620 LP  0  0  0  0  0  0  0  0  0  0  0  0  # atno 17370 bound_to 10713
  157.6293  130.8717  149.9246 LP  0  0  0  0  0  0  0  0  0  0  0  0  # atno 17371 bound_to 10713
  139.8815  134.9051  156.2892 LP  0  0  0  0  0  0  0  0  0  0  0  0  # atno 17394 bound_to 11000
  140.9877  133.7228  156.0767 LP  0  0  0  0  0  0  0  0  0  0  0  0  # atno 17395 bound_to 11000

$$$$
