AV-unprocessed.smi:1107|AV-procd|sdf|4784|dock6
  -GOLD-   22720 3323D 1   1.00000     0.00000
 Structure written by MMmdl.
 49 50  0  0  0  0  0  0  0  0  2 V2000
  150.7711  143.2425  158.0075 C   0  0  0  0  0  0  0  0  0  0  0  0
  150.9056  142.0341  157.1075 C   0  0  0  0  0  0  0  0  0  0  0  0
  149.9858  142.0062  156.0728 N   0  0  0  0  0  0  0  0  0  0  0  0
  150.0202  140.9302  155.2036 C   0  0  0  0  0  0  0  0  0  0  0  0
  148.9656  140.9720  154.1122 C   0  0  0  0  0  0  0  0  0  0  0  0
  150.9303  139.9344  155.3546 C   0  0  0  0  0  0  0  0  0  0  0  0
  150.9894  138.7136  154.4386 C   0  0  0  0  0  0  0  0  0  0  0  0
  150.2910  137.4774  155.0011 C   0  0  0  0  0  0  0  0  0  0  0  0
  149.6173  137.5606  156.0268 O   0  0  0  0  0  0  0  0  0  0  0  0
  150.5096  136.3286  154.3422 N   0  0  0  0  0  0  0  0  0  0  0  0
  150.1281  134.9927  154.7984 C   0  0  1  0  0  0  0  0  0  0  0  0
  150.8579  134.6629  156.1074 C   0  0  0  0  0  0  0  0  0  0  0  0
  148.5928  134.8941  154.9519 C   0  0  0  0  0  0  0  0  0  0  0  0
  147.8801  134.6343  153.6721 N   0  3  0  0  0  0  0  0  0  0  0  0
  146.4305  134.9486  153.7584 C   0  0  0  0  0  0  0  0  0  0  0  0
  145.7512  134.8277  152.3836 C   0  0  0  0  0  0  0  0  0  0  0  0
  145.9835  133.4420  151.7675 C   0  0  0  0  0  0  0  0  0  0  0  0
  147.4840  133.1250  151.7317 C   0  0  0  0  0  0  0  0  0  0  0  0
  148.1108  133.2698  153.1277 C   0  0  0  0  0  0  0  0  0  0  0  0
  151.8875  140.0191  156.4833 C   0  0  0  0  0  0  0  0  0  0  0  0
  152.7196  139.1362  156.6883 O   0  0  0  0  0  0  0  0  0  0  0  0
  151.8114  141.1322  157.3349 N   0  0  0  0  0  0  0  0  0  0  0  0
  149.2928  142.7259  155.9240 H   0  0  0  0  0  0  0  0  0  0  0  0
  151.5406  143.2420  158.7805 H   0  0  0  0  0  0  0  0  0  0  0  0
  149.7967  143.2433  158.4972 H   0  0  0  0  0  0  0  0  0  0  0  0
  150.8702  144.1615  157.4290 H   0  0  0  0  0  0  0  0  0  0  0  0
  148.3182  140.0972  154.1721 H   0  0  0  0  0  0  0  0  0  0  0  0
  149.4345  140.9893  153.1282 H   0  0  0  0  0  0  0  0  0  0  0  0
  148.3353  141.8583  154.1962 H   0  0  0  0  0  0  0  0  0  0  0  0
  152.0240  138.4682  154.1947 H   0  0  0  0  0  0  0  0  0  0  0  0
  150.5318  138.9580  153.4799 H   0  0  0  0  0  0  0  0  0  0  0  0
  151.0546  136.3765  153.4928 H   0  0  0  0  0  0  0  0  0  0  0  0
  150.4416  134.2469  154.0664 H   0  0  0  0  0  0  0  0  0  0  0  0
  150.6007  133.6628  156.4575 H   0  0  0  0  0  0  0  0  0  0  0  0
  150.5997  135.3690  156.8974 H   0  0  0  0  0  0  0  0  0  0  0  0
  151.9396  134.6956  155.9724 H   0  0  0  0  0  0  0  0  0  0  0  0
  148.3285  134.1323  155.6869 H   0  0  0  0  0  0  0  0  0  0  0  0
  148.2342  135.8434  155.3532 H   0  0  0  0  0  0  0  0  0  0  0  0
  145.9542  134.2780  154.4754 H   0  0  0  0  0  0  0  0  0  0  0  0
  146.2937  135.9639  154.1332 H   0  0  0  0  0  0  0  0  0  0  0  0
  144.6818  135.0192  152.4776 H   0  0  0  0  0  0  0  0  0  0  0  0
  146.1419  135.5944  151.7160 H   0  0  0  0  0  0  0  0  0  0  0  0
  145.4612  132.6856  152.3548 H   0  0  0  0  0  0  0  0  0  0  0  0
  145.5652  133.4021  150.7612 H   0  0  0  0  0  0  0  0  0  0  0  0
  147.6430  132.1148  151.3537 H   0  0  0  0  0  0  0  0  0  0  0  0
  147.9851  133.7978  151.0353 H   0  0  0  0  0  0  0  0  0  0  0  0
  149.1776  133.0631  153.0538 H   0  0  0  0  0  0  0  0  0  0  0  0
  147.6927  132.5272  153.8093 H   0  0  0  0  0  0  0  0  0  0  0  0
  148.2673  135.2822  153.0010 H   0  0  0  0  0  0  0  0  0  0  0  0
  1 24  1  0  0  0  0
  1 25  1  0  0  0  0
  1 26  1  0  0  0  0
  1  2  1  0  0  0  0
  2  3  1  0  0  0  0
  2 22  2  0  0  0  0
  3  4  1  0  0  0  0
  3 23  1  0  0  0  0
  4  6  2  0  0  0  0
  4  5  1  0  0  0  0
  5 27  1  0  0  0  0
  5 28  1  0  0  0  0
  5 29  1  0  0  0  0
  6 20  1  0  0  0  0
  6  7  1  0  0  0  0
  7  8  1  0  0  0  0
  7 30  1  0  0  0  0
  7 31  1  0  0  0  0
  8  9  2  0  0  0  0
  8 10  1  0  0  0  0
 10 11  1  0  0  0  0
 10 32  1  0  0  0  0
 11 12  1  0  0  0  0
 11 13  1  0  0  0  0
 11 33  1  0  0  0  0
 12 34  1  0  0  0  0
 12 35  1  0  0  0  0
 12 36  1  0  0  0  0
 13 14  1  0  0  0  0
 13 37  1  0  0  0  0
 13 38  1  0  0  0  0
 14 19  1  0  0  0  0
 14 15  1  0  0  0  0
 14 49  1  0  0  0  0
 15 16  1  0  0  0  0
 15 39  1  0  0  0  0
 15 40  1  0  0  0  0
 16 17  1  0  0  0  0
 16 41  1  0  0  0  0
 16 42  1  0  0  0  0
 17 18  1  0  0  0  0
 17 43  1  0  0  0  0
 17 44  1  0  0  0  0
 18 19  1  0  0  0  0
 18 45  1  0  0  0  0
 18 46  1  0  0  0  0
 19 47  1  0  0  0  0
 19 48  1  0  0  0  0
 20 21  2  0  0  0  0
 20 22  1  0  0  0  0
M  CHG  1  14   1
M  END
> <s_m_source_file>
AV-unprocessed.smi

> <i_m_source_file_index>
1107

> <i_lp_mmshare_version>
43012

> <i_f3d_flags>
0

> <s_epik_input>
W0NIM11jMW5jKFtDSDNdKWMoYyg9TylbbkhdMSlbQ0gyXUMoPU8pW05IXVtDQEhdKFtDSDNdKVtDSDJdTjJbQ0gyXVtDSDJdW0NIMl1bQ0gyXVtDSDJdMg==

> <s_epik_cmdline>
J2VwaWtfcHl0aG9uJywgJy1waCcsICc3LjAnLCAnLXRuJywgJzgnLCAnLW1hJywgJzIwMCcsICctbWV0YWxfYmluZGluZycsICctaW1hZScsICc8aW5maWxlLm1hZT4nLCAnLW9tYWUnLCAnPG91dGZpbGUubWFlPic=

> <r_lp_tautomer_probability>
0.156392

> <r_epik_Ionization_Penalty>
0.0190033

> <r_epik_Ionization_Penalty_Charging>
0.0189172

> <r_epik_Ionization_Penalty_Neutral>
8.60838e-05

> <r_epik_State_Penalty>
1.15342

> <r_epik_Charging_Adjusted_Penalty>
1.17233

> <i_epik_Tot_Q>
1

> <i_epik_Tot_abs_Q>
1

> <r_epik_Metal_State_Penalty>
1.34593

> <b_epik_Metal_Only>
0

> <s_lp_Force_Field>
OPLS_2005

> <r_lp_Energy>
24.7354

> <b_lp_Chiralities_Consistent>
1

> <s_lp_Variant>
AV-unprocessed.smi:1107-4

> <Gold.Version>
5.8.1

> <Gold.Id.Protein>
6NUR|6NUR_protein|mol2

> <Gold.PLP.Fitness>
51.1520

> <Gold.PLP.PLP>
-37.6620

> <Gold.PLP.part.hbond>
-5.0000

> <Gold.PLP.part.metal>
0.0000

> <Gold.PLP.part.buried>
-0.0790

> <Gold.PLP.part.nonpolar>
-31.4125

> <Gold.PLP.part.repulsive>
0.2050

> <Gold.PLP.ligand.clash>
0.0000

> <Gold.PLP.ligand.torsion>
0.7276

> <Gold.PLP.Chemscore.Hbond>
4.9587

> <Gold.PLP.Chemscore.CHOScore>
0.0000

> <Gold.PLP.Chemscore.Metal>
0.0000

> <Gold.Chemscore.Hbonds>
donor molecule, donor type, donor heavy atom, donor atom, acceptor molecule, acceptor atom, score
      L1  H     3    23       P1  8028  0.90
      L1  H    10    32       P1  7949  0.92
      L1  H    14    49       P1  7948  2.00
      P1  H  7997  8008       L1    21  1.00

> <Gold.PLP.Chemscore.Internal.Correction>
0.0690

> <Gold.Rescore>
     Score         DG    S(hbond)    S(metal)    S(lipo)     H(rot)  DE(clash)    DE(int)     intcor
     17.54     -18.59       2.76        0.00      76.67       1.98       0.29       0.76       ----

> <Gold.Chemscore.Fitness>
17.5366

> <Gold.Chemscore.DG>
-18.5855

> <Gold.Chemscore.ZeroCoef>
-5.4800

> <Gold.Chemscore.Hbond>
2.7584

> <Gold.Chemscore.Metal>
0.0000

> <Gold.Chemscore.Lipo>
76.6722

> <Gold.Chemscore.Internal_Hbond>
0.0000

> <Gold.Chemscore.DEClash>
0.2909

> <Gold.Chemscore.DEInternal>
0.7580

> <Gold.Chemscore.Rot>
1.9837

> <Gold.Chemscore.Internal.Correction>
   9.000000E+99

> <Gold.Chemscore.Hbonds>
donor molecule, donor type, donor heavy atom, donor atom, acceptor molecule, acceptor atom, score
      L1  H     3    23       P1  8028  0.83
      L1  H    10    32       P1  7949  0.25
      L1  H    14    49       P1  7948  0.97
      P1  H  7997  8008       L1    21  0.35

> <Gold.Chemscore.Hbond.Weighted>
-9.2132

> <Gold.Chemscore.Metal.Weighted>
-0.0000

> <Gold.Chemscore.Lipo.Weighted>
-8.9707

> <Gold.Chemscore.Internal_Hbond.Weighted>
0.0000

> <Gold.Chemscore.DEClash.Weighted>
0.2909

> <Gold.Chemscore.DEInternal.Weighted>
0.7580

> <Gold.Chemscore.Rot.Weighted>
5.0783

> <Gold.Chemscore.Internal.Correction.Weighted>
   9.000000E+99

> <Gold.Protein.RotatedTorsions>
[ 6907 6896 6895 6894 ] final  -41.29 input  -60.11 | X-H torsion
[ 7974 7965 7964 7962 ] final  133.47 input  175.53 | X-H torsion
[ 8008 7997 7996 7995 ] final  -53.78 input   59.86 | X-H torsion
[ 10167 10162 10161 10158 ] final -128.70 input  -65.29 | X-H torsion
[ 10718 10713 10712 10709 ] final  147.66 input   66.30 | X-H torsion
[ 10763 10752 10751 10750 ] final  103.47 input  -60.55 | X-H torsion
[ 11005 11000 10999 10996 ] final  -23.47 input  -57.11 | X-H torsion

> <Gold.Protein.ActiveResidues>
 VAL166  LYS551  ARG553  GLY616  TRP617  ASP618  TYR619  PRO620  LYS621  CYS622 
 ASP623  PHE694  ASN695  SER759  ASP760  ASP761  ALA762  ILE779  LEU786  VAL792 
 PHE793  MET794  SER795  GLU796  ALA797  LYS798  CYS799  TRP800  GLU811  SER814 

> <Gold.Protein.RotatedAtoms>
  150.9684  134.9061  159.7773 H   0  0  0  0  0  0  0  0  0  0  0  0  # atno 6907 bound_to 6896
  152.5182  134.3574  159.9283 H   0  0  0  0  0  0  0  0  0  0  0  0  # atno 6908 bound_to 6896
  151.3584  133.3858  159.2722 H   0  0  0  0  0  0  0  0  0  0  0  0  # atno 6909 bound_to 6896
  144.9862  139.4453  143.5362 H   0  0  0  0  0  0  0  0  0  0  0  0  # atno 7974 bound_to 7965
  154.4143  140.1192  156.5209 H   0  0  0  0  0  0  0  0  0  0  0  0  # atno 8008 bound_to 7997
  155.6703  140.3496  155.4797 H   0  0  0  0  0  0  0  0  0  0  0  0  # atno 8009 bound_to 7997
  155.9638  140.1128  157.0862 H   0  0  0  0  0  0  0  0  0  0  0  0  # atno 8010 bound_to 7997
  139.9475  143.6093  152.2485 H   0  0  0  0  0  0  0  0  0  0  0  0  # atno 10167 bound_to 10162
  157.3182  131.0899  151.1262 H   0  0  0  0  0  0  0  0  0  0  0  0  # atno 10718 bound_to 10713
  153.3530  135.3976  155.1661 H   0  0  0  0  0  0  0  0  0  0  0  0  # atno 10763 bound_to 10752
  154.8666  135.3661  154.5197 H   0  0  0  0  0  0  0  0  0  0  0  0  # atno 10764 bound_to 10752
  153.5650  135.7080  153.5590 H   0  0  0  0  0  0  0  0  0  0  0  0  # atno 10765 bound_to 10752
  140.8754  133.7691  156.0237 H   0  0  0  0  0  0  0  0  0  0  0  0  # atno 11005 bound_to 11000
  146.3420  139.9165  142.8773 LP  0  0  0  0  0  0  0  0  0  0  0  0  # atno 17320 bound_to 7965
  145.2351  140.9988  143.3968 LP  0  0  0  0  0  0  0  0  0  0  0  0  # atno 17321 bound_to 7965
  139.6655  144.7662  151.1882 LP  0  0  0  0  0  0  0  0  0  0  0  0  # atno 17342 bound_to 10162
  140.7593  143.5945  150.8762 LP  0  0  0  0  0  0  0  0  0  0  0  0  # atno 17343 bound_to 10162
  157.2557  130.6635  149.5951 LP  0  0  0  0  0  0  0  0  0  0  0  0  # atno 17370 bound_to 10713
  155.9683  130.4524  150.5773 LP  0  0  0  0  0  0  0  0  0  0  0  0  # atno 17371 bound_to 10713
  140.8524  134.2938  157.5270 LP  0  0  0  0  0  0  0  0  0  0  0  0  # atno 17394 bound_to 11000
  139.8715  134.9475  156.3968 LP  0  0  0  0  0  0  0  0  0  0  0  0  # atno 17395 bound_to 11000

$$$$
