AV-unprocessed.smi:910|AV-procd|sdf|4134|dock9
  -GOLD-   22720 2 43D 1   1.00000     0.00000
 Structure written by MMmdl.
 45 46  0  0  0  0  0  0  0  0  2 V2000
  146.8690  135.7762  154.8925 C   0  0  0  0  0  0  0  0  0  0  0  0
  148.3594  135.6465  154.8911 C   0  0  0  0  0  0  0  0  0  0  0  0
  149.1936  136.7246  155.1422 N   0  0  0  0  0  0  0  0  0  0  0  0
  150.4373  136.2464  155.0695 C   0  0  0  0  0  0  0  0  0  0  0  0
  151.5673  136.9468  155.2564 N   0  5  0  0  0  0  0  0  0  0  0  0
  151.5083  138.2949  155.3377 C   0  0  0  0  0  0  0  0  0  0  0  0
  151.3550  139.0761  154.3956 O   0  0  0  0  0  0  0  0  0  0  0  0
  151.6619  138.7680  156.5832 N   0  0  0  0  0  0  0  0  0  0  0  0
  151.7896  140.1744  156.9530 C   0  0  0  0  0  0  0  0  0  0  0  0
  152.1043  140.3226  158.4496 C   0  0  0  0  0  0  0  0  0  0  0  0
  151.9394  141.6815  158.8251 O   0  0  0  0  0  0  0  0  0  0  0  0
  153.1386  142.3677  159.1608 C   0  0  2  0  0  0  0  0  0  0  0  0
  153.6440  141.7788  160.4909 C   0  0  0  0  0  0  0  0  0  0  0  0
  152.6804  142.0777  161.6527 C   0  0  0  0  0  0  0  0  0  0  0  0
  152.4151  143.5848  161.7847 C   0  0  0  0  0  0  0  0  0  0  0  0
  151.9035  144.1798  160.4634 C   0  0  0  0  0  0  0  0  0  0  0  0
  152.8706  143.8873  159.2983 C   0  0  2  0  0  0  0  0  0  0  0  0
  152.3909  144.5358  157.9911 C   0  0  0  0  0  0  0  0  0  0  0  0
  150.4596  134.9167  154.7695 O   0  0  0  0  0  0  0  0  0  0  0  0
  149.1459  134.5495  154.6625 C   0  0  0  0  0  0  0  0  0  0  0  0
  148.8420  133.1256  154.3426 C   0  0  0  0  0  0  0  0  0  0  0  0
  146.5044  136.1073  153.9202 H   0  0  0  0  0  0  0  0  0  0  0  0
  146.5355  136.4997  155.6369 H   0  0  0  0  0  0  0  0  0  0  0  0
  146.3889  134.8245  155.1205 H   0  0  0  0  0  0  0  0  0  0  0  0
  151.7743  138.0909  157.3231 H   0  0  0  0  0  0  0  0  0  0  0  0
  152.5436  140.6766  156.3451 H   0  0  0  0  0  0  0  0  0  0  0  0
  150.8397  140.6610  156.7320 H   0  0  0  0  0  0  0  0  0  0  0  0
  151.4267  139.7057  159.0409 H   0  0  0  0  0  0  0  0  0  0  0  0
  153.1183  139.9756  158.6518 H   0  0  0  0  0  0  0  0  0  0  0  0
  153.9056  142.1975  158.4025 H   0  0  0  0  0  0  0  0  0  0  0  0
  153.7830  140.7019  160.3920 H   0  0  0  0  0  0  0  0  0  0  0  0
  154.6254  142.1951  160.7207 H   0  0  0  0  0  0  0  0  0  0  0  0
  151.7366  141.5551  161.4907 H   0  0  0  0  0  0  0  0  0  0  0  0
  153.0910  141.6893  162.5847 H   0  0  0  0  0  0  0  0  0  0  0  0
  151.6894  143.7663  162.5779 H   0  0  0  0  0  0  0  0  0  0  0  0
  153.3330  144.0928  162.0826 H   0  0  0  0  0  0  0  0  0  0  0  0
  150.9167  143.7740  160.2384 H   0  0  0  0  0  0  0  0  0  0  0  0
  151.7699  145.2561  160.5771 H   0  0  0  0  0  0  0  0  0  0  0  0
  153.8236  144.3578  159.5445 H   0  0  0  0  0  0  0  0  0  0  0  0
  151.4109  144.1615  157.6954 H   0  0  0  0  0  0  0  0  0  0  0  0
  153.0866  144.3401  157.1750 H   0  0  0  0  0  0  0  0  0  0  0  0
  152.3067  145.6171  158.1004 H   0  0  0  0  0  0  0  0  0  0  0  0
  148.4083  132.6219  155.2063 H   0  0  0  0  0  0  0  0  0  0  0  0
  149.7450  132.5870  154.0548 H   0  0  0  0  0  0  0  0  0  0  0  0
  148.1316  133.0586  153.5187 H   0  0  0  0  0  0  0  0  0  0  0  0
  1 22  1  0  0  0  0
  1 23  1  0  0  0  0
  1 24  1  0  0  0  0
  1  2  1  0  0  0  0
  2  3  1  0  0  0  0
  2 20  2  0  0  0  0
  3  4  2  0  0  0  0
  4 19  1  0  0  0  0
  4  5  1  0  0  0  0
  5  6  1  0  0  0  0
  6  8  1  0  0  0  0
  6  7  2  0  0  0  0
  8  9  1  0  0  0  0
  8 25  1  0  0  0  0
  9 10  1  0  0  0  0
  9 26  1  0  0  0  0
  9 27  1  0  0  0  0
 10 11  1  0  0  0  0
 10 28  1  0  0  0  0
 10 29  1  0  0  0  0
 11 12  1  0  0  0  0
 12 17  1  0  0  0  0
 12 13  1  0  0  0  0
 12 30  1  0  0  0  0
 13 14  1  0  0  0  0
 13 31  1  0  0  0  0
 13 32  1  0  0  0  0
 14 15  1  0  0  0  0
 14 33  1  0  0  0  0
 14 34  1  0  0  0  0
 15 16  1  0  0  0  0
 15 35  1  0  0  0  0
 15 36  1  0  0  0  0
 16 17  1  0  0  0  0
 16 37  1  0  0  0  0
 16 38  1  0  0  0  0
 17 18  1  0  0  0  0
 17 39  1  0  0  0  0
 18 40  1  0  0  0  0
 18 41  1  0  0  0  0
 18 42  1  0  0  0  0
 19 20  1  0  0  0  0
 20 21  1  0  0  0  0
 21 43  1  0  0  0  0
 21 44  1  0  0  0  0
 21 45  1  0  0  0  0
M  CHG  1   5  -1
M  END
> <s_m_source_file>
AV-unprocessed.smi

> <i_m_source_file_index>
910

> <i_lp_mmshare_version>
43012

> <i_f3d_flags>
0

> <s_epik_input>
W0NIM11jMW5jKG9jMVtDSDNdKVtOSF1DKD1PKVtOSF1bQ0gyXVtDSDJdT1tDQEBIXTJbQ0gyXVtDSDJdW0NIMl1bQ0gyXVtDQEhdMltDSDNd

> <s_epik_cmdline>
J2VwaWtfcHl0aG9uJywgJy1waCcsICc3LjAnLCAnLXRuJywgJzgnLCAnLW1hJywgJzIwMCcsICctbWV0YWxfYmluZGluZycsICctaW1hZScsICc8aW5maWxlLm1hZT4nLCAnLW9tYWUnLCAnPG91dGZpbGUubWFlPic=

> <r_lp_tautomer_probability>
0.107061

> <r_epik_Ionization_Penalty>
10.1763

> <r_epik_Ionization_Penalty_Charging>
7.13067

> <r_epik_Ionization_Penalty_Neutral>
3.04564

> <r_epik_State_Penalty>
5.57927

> <r_epik_Charging_Adjusted_Penalty>
12.7099

> <i_epik_Tot_Q>
-1

> <i_epik_Tot_abs_Q>
1

> <r_epik_Metal_State_Penalty>
1.52303

> <b_epik_Metal_Only>
1

> <s_lp_Force_Field>
OPLS_2005

> <r_lp_Energy>
5.26856

> <b_lp_Chiralities_Consistent>
1

> <s_lp_Variant>
AV-unprocessed.smi:910-19

> <Gold.Version>
5.8.1

> <Gold.Id.Protein>
6NUR|6NUR_protein|mol2

> <Gold.PLP.Fitness>
48.7703

> <Gold.PLP.PLP>
-42.0800

> <Gold.PLP.part.hbond>
-2.0000

> <Gold.PLP.part.metal>
0.0000

> <Gold.PLP.part.buried>
-4.4154

> <Gold.PLP.part.nonpolar>
-36.0988

> <Gold.PLP.part.repulsive>
0.5956

> <Gold.PLP.ligand.clash>
0.0000

> <Gold.PLP.ligand.torsion>
1.1885

> <Gold.PLP.Chemscore.Hbond>
3.0000

> <Gold.PLP.Chemscore.CHOScore>
0.0000

> <Gold.PLP.Chemscore.Metal>
0.0000

> <Gold.Chemscore.Hbonds>
donor molecule, donor type, donor heavy atom, donor atom, acceptor molecule, acceptor atom, score
      P1  H  7989  7998       L1     7  1.00
      P1  H 10752 10764       L1     5  1.98

> <Gold.PLP.Chemscore.Internal.Correction>
0.0674

> <Gold.Rescore>
     Score         DG    S(hbond)    S(metal)    S(lipo)     H(rot)  DE(clash)    DE(int)     intcor
     17.80     -19.00       1.48        0.00     108.81       1.62       0.02       1.18       ----

> <Gold.Chemscore.Fitness>
17.8031

> <Gold.Chemscore.DG>
-19.0028

> <Gold.Chemscore.ZeroCoef>
-5.4800

> <Gold.Chemscore.Hbond>
1.4766

> <Gold.Chemscore.Metal>
0.0000

> <Gold.Chemscore.Lipo>
108.8062

> <Gold.Chemscore.Internal_Hbond>
0.0000

> <Gold.Chemscore.DEClash>
0.0169

> <Gold.Chemscore.DEInternal>
1.1829

> <Gold.Chemscore.Rot>
1.6169

> <Gold.Chemscore.Internal.Correction>
   9.000000E+99

> <Gold.Chemscore.Hbonds>
donor molecule, donor type, donor heavy atom, donor atom, acceptor molecule, acceptor atom, score
      P1  H  7989  7998       L1     7  0.94
      P1  H 10752 10764       L1     5  0.24

> <Gold.Chemscore.Hbond.Weighted>
-4.9318

> <Gold.Chemscore.Metal.Weighted>
-0.0000

> <Gold.Chemscore.Lipo.Weighted>
-12.7303

> <Gold.Chemscore.Internal_Hbond.Weighted>
0.0000

> <Gold.Chemscore.DEClash.Weighted>
0.0169

> <Gold.Chemscore.DEInternal.Weighted>
1.1829

> <Gold.Chemscore.Rot.Weighted>
4.1393

> <Gold.Chemscore.Internal.Correction.Weighted>
   9.000000E+99

> <Gold.Protein.RotatedTorsions>
[ 6907 6896 6895 6894 ] final  160.72 input  -60.11 | X-H torsion
[ 7974 7965 7964 7962 ] final  -68.74 input  175.53 | X-H torsion
[ 8008 7997 7996 7995 ] final -114.61 input   59.86 | X-H torsion
[ 10167 10162 10161 10158 ] final  124.74 input  -65.29 | X-H torsion
[ 10718 10713 10712 10709 ] final  -43.33 input   66.30 | X-H torsion
[ 10763 10752 10751 10750 ] final  -58.55 input  -60.55 | X-H torsion
[ 11005 11000 10999 10996 ] final  133.03 input  -57.11 | X-H torsion

> <Gold.Protein.ActiveResidues>
 VAL166  LYS551  ARG553  GLY616  TRP617  ASP618  TYR619  PRO620  LYS621  CYS622 
 ASP623  PHE694  ASN695  SER759  ASP760  ASP761  ALA762  ILE779  LEU786  VAL792 
 PHE793  MET794  SER795  GLU796  ALA797  LYS798  CYS799  TRP800  GLU811  SER814 

> <Gold.Protein.RotatedAtoms>
  151.9664  133.3711  159.4054 H   0  0  0  0  0  0  0  0  0  0  0  0  # atno 6907 bound_to 6896
  150.6956  134.4186  159.5204 H   0  0  0  0  0  0  0  0  0  0  0  0  # atno 6908 bound_to 6896
  152.1883  134.8694  160.0570 H   0  0  0  0  0  0  0  0  0  0  0  0  # atno 6909 bound_to 6896
  145.7127  140.9071  143.0672 H   0  0  0  0  0  0  0  0  0  0  0  0  # atno 7974 bound_to 7965
  155.0390  140.0392  157.2502 H   0  0  0  0  0  0  0  0  0  0  0  0  # atno 8008 bound_to 7997
  154.7232  140.2716  155.6498 H   0  0  0  0  0  0  0  0  0  0  0  0  # atno 8009 bound_to 7997
  156.2822  140.2698  156.1910 H   0  0  0  0  0  0  0  0  0  0  0  0  # atno 8010 bound_to 7997
  139.5725  144.6946  151.3742 H   0  0  0  0  0  0  0  0  0  0  0  0  # atno 10167 bound_to 10162
  156.2501  130.4187  149.8659 H   0  0  0  0  0  0  0  0  0  0  0  0  # atno 10718 bound_to 10713
  154.2399  135.6345  153.5203 H   0  0  0  0  0  0  0  0  0  0  0  0  # atno 10763 bound_to 10752
  152.9932  135.5539  154.5922 H   0  0  0  0  0  0  0  0  0  0  0  0  # atno 10764 bound_to 10752
  154.5425  135.2896  155.1057 H   0  0  0  0  0  0  0  0  0  0  0  0  # atno 10765 bound_to 10752
  139.9826  134.9543  156.9666 H   0  0  0  0  0  0  0  0  0  0  0  0  # atno 11005 bound_to 11000
  144.6937  139.9096  143.7463 LP  0  0  0  0  0  0  0  0  0  0  0  0  # atno 17320 bound_to 7965
  146.0698  139.3687  143.0530 LP  0  0  0  0  0  0  0  0  0  0  0  0  # atno 17321 bound_to 7965
  140.7009  143.7635  150.7401 LP  0  0  0  0  0  0  0  0  0  0  0  0  # atno 17342 bound_to 10162
  140.1145  143.4668  152.2350 LP  0  0  0  0  0  0  0  0  0  0  0  0  # atno 17343 bound_to 10162
  156.6210  130.8626  151.3475 LP  0  0  0  0  0  0  0  0  0  0  0  0  # atno 17370 bound_to 10713
  157.7211  130.9560  150.1443 LP  0  0  0  0  0  0  0  0  0  0  0  0  # atno 17371 bound_to 10713
  140.5065  134.1044  155.7261 LP  0  0  0  0  0  0  0  0  0  0  0  0  # atno 17394 bound_to 11000
  141.1496  133.8993  157.2131 LP  0  0  0  0  0  0  0  0  0  0  0  0  # atno 17395 bound_to 11000

$$$$
