AV-unprocessed.smi:868|AV-procd|sdf|4002|dock7
  -GOLD-   22720 1483D 1   1.00000     0.00000
 Structure written by MMmdl.
 47 49  0  0  0  0  0  0  0  0  1 V2000
  153.8810  141.4773  162.0758 C   0  0  0  0  0  0  0  0  0  0  0  0
  153.2194  142.5038  161.1417 C   0  0  0  0  0  0  0  0  0  0  0  0
  152.3367  143.4679  161.9488 C   0  0  0  0  0  0  0  0  0  0  0  0
  152.3998  141.8568  159.9940 C   0  0  0  0  0  0  0  0  0  0  0  0
  151.8061  142.7993  158.9231 C   0  0  0  0  0  0  0  0  0  0  0  0
  151.2957  141.9825  157.7096 C   0  0  0  0  0  0  0  0  0  0  0  0
  151.6689  140.8244  157.5198 O   0  0  0  0  0  0  0  0  0  0  0  0
  150.4492  142.6147  156.8807 N   0  0  0  0  0  0  0  0  0  0  0  0
  149.9082  142.0565  155.6480 C   0  0  0  0  0  0  0  0  0  0  0  0
  149.1122  140.7704  155.9210 C   0  0  0  0  0  0  0  0  0  0  0  0
  148.2864  140.3481  154.7465 C   0  0  0  0  0  0  0  0  0  0  0  0
  148.3506  139.1274  154.2011 N   0  0  0  0  0  0  0  0  0  0  0  0
  147.4065  139.1198  153.1943 N   0  0  0  0  0  0  0  0  0  0  0  0
  146.8603  140.3341  153.2385 C   0  0  0  0  0  0  0  0  0  0  0  0
  147.3720  141.1554  154.1693 N   0  0  0  0  0  0  0  0  0  0  0  0
  146.9712  142.5097  154.5126 C   0  0  0  0  0  0  0  0  0  0  0  0
  145.5603  142.6477  155.0403 C   0  0  0  0  0  0  0  0  0  0  0  0
  145.8868  143.0817  153.6290 C   0  0  0  0  0  0  0  0  0  0  0  0
  150.8056  143.8853  159.4009 C   0  0  0  0  0  0  0  0  0  0  0  0
  151.5183  144.9298  158.5432 C   0  0  0  0  0  0  0  0  0  0  0  0
  152.7035  143.9692  158.4513 C   0  0  0  0  0  0  0  0  0  0  0  0
  153.1462  140.7887  162.4941 H   0  0  0  0  0  0  0  0  0  0  0  0
  154.3831  141.9718  162.9079 H   0  0  0  0  0  0  0  0  0  0  0  0
  154.6373  140.8907  161.5558 H   0  0  0  0  0  0  0  0  0  0  0  0
  154.0150  143.1090  160.7067 H   0  0  0  0  0  0  0  0  0  0  0  0
  151.5151  142.9408  162.4349 H   0  0  0  0  0  0  0  0  0  0  0  0
  151.9064  144.2382  161.3084 H   0  0  0  0  0  0  0  0  0  0  0  0
  152.9127  143.9736  162.7245 H   0  0  0  0  0  0  0  0  0  0  0  0
  153.0371  141.1224  159.4998 H   0  0  0  0  0  0  0  0  0  0  0  0
  151.5951  141.2656  160.4336 H   0  0  0  0  0  0  0  0  0  0  0  0
  150.1853  143.5627  157.1075 H   0  0  0  0  0  0  0  0  0  0  0  0
  149.2852  142.7944  155.1395 H   0  0  0  0  0  0  0  0  0  0  0  0
  150.7435  141.8417  154.9811 H   0  0  0  0  0  0  0  0  0  0  0  0
  149.7865  139.9624  156.2039 H   0  0  0  0  0  0  0  0  0  0  0  0
  148.4456  140.9181  156.7718 H   0  0  0  0  0  0  0  0  0  0  0  0
  146.0608  140.6298  152.5751 H   0  0  0  0  0  0  0  0  0  0  0  0
  147.7817  143.1315  154.8875 H   0  0  0  0  0  0  0  0  0  0  0  0
  144.9504  141.7533  155.1535 H   0  0  0  0  0  0  0  0  0  0  0  0
  145.3745  143.4306  155.7725 H   0  0  0  0  0  0  0  0  0  0  0  0
  145.9164  144.1506  153.4279 H   0  0  0  0  0  0  0  0  0  0  0  0
  145.5075  142.4658  152.8155 H   0  0  0  0  0  0  0  0  0  0  0  0
  149.7578  143.7440  159.1348 H   0  0  0  0  0  0  0  0  0  0  0  0
  150.8982  144.0967  160.4672 H   0  0  0  0  0  0  0  0  0  0  0  0
  151.0295  145.0909  157.5812 H   0  0  0  0  0  0  0  0  0  0  0  0
  151.7316  145.8691  159.0539 H   0  0  0  0  0  0  0  0  0  0  0  0
  153.4900  144.2084  159.1687 H   0  0  0  0  0  0  0  0  0  0  0  0
  153.1161  143.8826  157.4450 H   0  0  0  0  0  0  0  0  0  0  0  0
  1  2  1  0  0  0  0
  1 22  1  0  0  0  0
  1 23  1  0  0  0  0
  1 24  1  0  0  0  0
  2  3  1  0  0  0  0
  2  4  1  0  0  0  0
  2 25  1  0  0  0  0
  3 26  1  0  0  0  0
  3 27  1  0  0  0  0
  3 28  1  0  0  0  0
  4  5  1  0  0  0  0
  4 29  1  0  0  0  0
  4 30  1  0  0  0  0
  5 21  1  0  0  0  0
  5  6  1  0  0  0  0
  5 19  1  0  0  0  0
  6  7  2  0  0  0  0
  6  8  1  0  0  0  0
  8  9  1  0  0  0  0
  8 31  1  0  0  0  0
  9 10  1  0  0  0  0
  9 32  1  0  0  0  0
  9 33  1  0  0  0  0
 10 11  1  0  0  0  0
 10 34  1  0  0  0  0
 10 35  1  0  0  0  0
 11 15  1  0  0  0  0
 11 12  2  0  0  0  0
 12 13  1  0  0  0  0
 13 14  2  0  0  0  0
 14 15  1  0  0  0  0
 14 36  1  0  0  0  0
 15 16  1  0  0  0  0
 16 18  1  0  0  0  0
 16 17  1  0  0  0  0
 16 37  1  0  0  0  0
 17 18  1  0  0  0  0
 17 38  1  0  0  0  0
 17 39  1  0  0  0  0
 18 40  1  0  0  0  0
 18 41  1  0  0  0  0
 19 20  1  0  0  0  0
 19 42  1  0  0  0  0
 19 43  1  0  0  0  0
 20 21  1  0  0  0  0
 20 44  1  0  0  0  0
 20 45  1  0  0  0  0
 21 46  1  0  0  0  0
 21 47  1  0  0  0  0
M  END
> <s_m_source_file>
AV-unprocessed.smi

> <i_m_source_file_index>
868

> <i_lp_mmshare_version>
43012

> <i_f3d_flags>
0

> <s_epik_input>
W0NIM11bQ0hdKFtDSDNdKVtDSDJdQzEoW0NIMl1bQ0gyXVtDSDJdMSlDKD1PKVtOSF1bQ0gyXVtDSDJdYzJubltjSF1uMltDSF0zW0NIMl1bQ0gyXTM=

> <s_epik_cmdline>
J2VwaWtfcHl0aG9uJywgJy1waCcsICc3LjAnLCAnLXRuJywgJzgnLCAnLW1hJywgJzIwMCcsICctbWV0YWxfYmluZGluZycsICctaW1hZScsICc8aW5maWxlLm1hZT4nLCAnLW9tYWUnLCAnPG91dGZpbGUubWFlPic=

> <r_lp_tautomer_probability>
1

> <r_epik_Ionization_Penalty>
0.000232087

> <r_epik_Ionization_Penalty_Charging>
0

> <r_epik_Ionization_Penalty_Neutral>
0.000232087

> <r_epik_State_Penalty>
-0

> <r_epik_Charging_Adjusted_Penalty>
0

> <i_epik_Tot_Q>
0

> <i_epik_Tot_abs_Q>
0

> <r_epik_Metal_State_Penalty>
-0

> <b_epik_Metal_Only>
0

> <s_lp_Force_Field>
OPLS_2005

> <r_lp_Energy>
30.4352

> <b_lp_Chiralities_Consistent>
1

> <s_lp_Variant>
AV-unprocessed.smi:868-1

> <Gold.Version>
5.8.1

> <Gold.Id.Protein>
6NUR|6NUR_protein|mol2

> <Gold.PLP.Fitness>
49.6991

> <Gold.PLP.PLP>
-47.2461

> <Gold.PLP.part.hbond>
-1.0000

> <Gold.PLP.part.metal>
0.0000

> <Gold.PLP.part.buried>
-4.3896

> <Gold.PLP.part.nonpolar>
-42.9186

> <Gold.PLP.part.repulsive>
1.4076

> <Gold.PLP.ligand.clash>
0.0000

> <Gold.PLP.ligand.torsion>
0.9034

> <Gold.PLP.Chemscore.Hbond>
0.1310

> <Gold.PLP.Chemscore.CHOScore>
1.0000

> <Gold.PLP.Chemscore.Metal>
0.0000

> <Gold.Chemscore.Hbonds>
donor molecule, donor type, donor heavy atom, donor atom, acceptor molecule, acceptor atom, score
      L1  H     8    31       P1  8028  0.18
      L1  C    14    36       P1 10175  1.00

> <Gold.PLP.Chemscore.Internal.Correction>
0.8666

> <Gold.Rescore>
     Score         DG    S(hbond)    S(metal)    S(lipo)     H(rot)  DE(clash)    DE(int)     intcor
     12.44     -14.33       0.12        0.00     119.63       2.17       0.41       1.49       ----

> <Gold.Chemscore.Fitness>
12.4389

> <Gold.Chemscore.DG>
-14.3341

> <Gold.Chemscore.ZeroCoef>
-5.4800

> <Gold.Chemscore.Hbond>
0.1208

> <Gold.Chemscore.Metal>
0.0000

> <Gold.Chemscore.Lipo>
119.6310

> <Gold.Chemscore.Internal_Hbond>
0.0000

> <Gold.Chemscore.DEClash>
0.4057

> <Gold.Chemscore.DEInternal>
1.4895

> <Gold.Chemscore.Rot>
2.1664

> <Gold.Chemscore.Internal.Correction>
   9.000000E+99

> <Gold.Chemscore.Hbonds>
donor molecule, donor type, donor heavy atom, donor atom, acceptor molecule, acceptor atom, score
      L1  H     8    31       P1  8028  0.18

> <Gold.Chemscore.Hbond.Weighted>
-0.4033

> <Gold.Chemscore.Metal.Weighted>
-0.0000

> <Gold.Chemscore.Lipo.Weighted>
-13.9968

> <Gold.Chemscore.Internal_Hbond.Weighted>
0.0000

> <Gold.Chemscore.DEClash.Weighted>
0.4057

> <Gold.Chemscore.DEInternal.Weighted>
1.4895

> <Gold.Chemscore.Rot.Weighted>
5.5461

> <Gold.Chemscore.Internal.Correction.Weighted>
   9.000000E+99

> <Gold.Protein.RotatedTorsions>
[ 6907 6896 6895 6894 ] final  140.85 input  -60.11 | X-H torsion
[ 7974 7965 7964 7962 ] final   47.62 input  175.53 | X-H torsion
[ 8008 7997 7996 7995 ] final   70.45 input   59.86 | X-H torsion
[ 10167 10162 10161 10158 ] final  126.69 input  -65.29 | X-H torsion
[ 10718 10713 10712 10709 ] final  -35.99 input   66.30 | X-H torsion
[ 10763 10752 10751 10750 ] final -156.17 input  -60.55 | X-H torsion
[ 11005 11000 10999 10996 ] final  -40.41 input  -57.11 | X-H torsion

> <Gold.Protein.ActiveResidues>
 VAL166  LYS551  ARG553  GLY616  TRP617  ASP618  TYR619  PRO620  LYS621  CYS622 
 ASP623  PHE694  ASN695  SER759  ASP760  ASP761  ALA762  ILE779  LEU786  VAL792 
 PHE793  MET794  SER795  GLU796  ALA797  LYS798  CYS799  TRP800  GLU811  SER814 

> <Gold.Protein.RotatedAtoms>
  152.2381  133.5112  159.5253 H   0  0  0  0  0  0  0  0  0  0  0  0  # atno 6907 bound_to 6896
  150.7056  134.1126  159.4015 H   0  0  0  0  0  0  0  0  0  0  0  0  # atno 6908 bound_to 6896
  151.9047  135.0363  160.0560 H   0  0  0  0  0  0  0  0  0  0  0  0  # atno 6909 bound_to 6896
  146.0281  139.4730  142.9855 H   0  0  0  0  0  0  0  0  0  0  0  0  # atno 7974 bound_to 7965
  155.7390  140.3490  155.5095 H   0  0  0  0  0  0  0  0  0  0  0  0  # atno 8008 bound_to 7997
  155.9112  140.1051  157.1299 H   0  0  0  0  0  0  0  0  0  0  0  0  # atno 8009 bound_to 7997
  154.4056  140.1267  156.4547 H   0  0  0  0  0  0  0  0  0  0  0  0  # atno 8010 bound_to 7997
  139.5618  144.6886  151.4022 H   0  0  0  0  0  0  0  0  0  0  0  0  # atno 10167 bound_to 10162
  156.3321  130.4281  149.7863 H   0  0  0  0  0  0  0  0  0  0  0  0  # atno 10718 bound_to 10713
  154.7733  135.3152  154.8145 H   0  0  0  0  0  0  0  0  0  0  0  0  # atno 10763 bound_to 10752
  153.8875  135.6829  153.4767 H   0  0  0  0  0  0  0  0  0  0  0  0  # atno 10764 bound_to 10752
  153.1351  135.4763  154.9345 H   0  0  0  0  0  0  0  0  0  0  0  0  # atno 10765 bound_to 10752
  141.0172  133.6879  156.2318 H   0  0  0  0  0  0  0  0  0  0  0  0  # atno 11005 bound_to 11000
  145.7086  141.0113  143.1466 LP  0  0  0  0  0  0  0  0  0  0  0  0  # atno 17320 bound_to 7965
  144.7018  139.8729  143.7442 LP  0  0  0  0  0  0  0  0  0  0  0  0  # atno 17321 bound_to 7965
  140.6898  143.7888  150.7239 LP  0  0  0  0  0  0  0  0  0  0  0  0  # atno 17342 bound_to 10162
  140.1367  143.4477  152.2220 LP  0  0  0  0  0  0  0  0  0  0  0  0  # atno 17343 bound_to 10162
  156.5131  130.8181  151.3176 LP  0  0  0  0  0  0  0  0  0  0  0  0  # atno 17370 bound_to 10713
  157.7432  130.9907  150.2575 LP  0  0  0  0  0  0  0  0  0  0  0  0  # atno 17371 bound_to 10713
  140.6634  134.4944  157.5584 LP  0  0  0  0  0  0  0  0  0  0  0  0  # atno 17394 bound_to 11000
  139.9124  134.8316  156.1481 LP  0  0  0  0  0  0  0  0  0  0  0  0  # atno 17395 bound_to 11000

$$$$
