AV-unprocessed.smi:2751|AV-procd|sdf|10602|dock6
  -GOLD-   2272015 53D 1   1.00000     0.00000
 Structure written by MMmdl.
 34 35  0  0  0  0  0  0  0  0  1 V2000
  152.6764  138.4315  158.7093 O   0  0  0  0  0  0  0  0  0  0  0  0
  152.7561  139.5476  158.1861 C   0  0  0  0  0  0  0  0  0  0  0  0
  153.0683  140.6369  158.9040 N   0  0  0  0  0  0  0  0  0  0  0  0
  153.3387  140.6569  160.3374 C   0  0  0  0  0  0  0  0  0  0  0  0
  153.3536  142.0928  160.8890 C   0  0  0  0  0  0  0  0  0  0  0  0
  152.2839  142.9905  160.2478 C   0  0  1  0  0  0  0  0  0  0  0  0
  152.1905  144.3617  160.9453 C   0  0  0  0  0  0  0  0  0  0  0  0
  151.1720  145.2609  160.2355 C   0  0  0  0  0  0  0  0  0  0  0  0
  151.5040  145.3380  158.7417 C   0  0  0  0  0  0  0  0  0  0  0  0
  151.6406  143.9255  158.1514 C   0  0  0  0  0  0  0  0  0  0  0  0
  152.6212  143.1891  158.8758 O   0  0  0  0  0  0  0  0  0  0  0  0
  152.5525  139.8963  156.8579 N   0  0  0  0  0  0  0  0  0  0  0  0
  151.6324  139.3017  156.1617 C   0  0  0  0  0  0  0  0  0  0  0  0
  150.7135  138.2991  156.4606 N   0  0  0  0  0  0  0  0  0  0  0  0
  149.9727  138.0510  155.3391 C   0  0  0  0  0  0  0  0  0  0  0  0
  150.4018  138.8599  154.3752 C   0  0  0  0  0  0  0  0  0  0  0  0
  151.4165  139.6365  154.8486 O   0  0  0  0  0  0  0  0  0  0  0  0
  153.1180  141.5214  158.4192 H   0  0  0  0  0  0  0  0  0  0  0  0
  152.6044  140.0466  160.8657 H   0  0  0  0  0  0  0  0  0  0  0  0
  154.3082  140.1864  160.5033 H   0  0  0  0  0  0  0  0  0  0  0  0
  153.1922  142.0573  161.9672 H   0  0  0  0  0  0  0  0  0  0  0  0
  154.3374  142.5402  160.7414 H   0  0  0  0  0  0  0  0  0  0  0  0
  151.3178  142.4864  160.3110 H   0  0  0  0  0  0  0  0  0  0  0  0
  151.9094  144.2361  161.9915 H   0  0  0  0  0  0  0  0  0  0  0  0
  153.1683  144.8452  160.9399 H   0  0  0  0  0  0  0  0  0  0  0  0
  150.1681  144.8556  160.3687 H   0  0  0  0  0  0  0  0  0  0  0  0
  151.1703  146.2576  160.6775 H   0  0  0  0  0  0  0  0  0  0  0  0
  150.7328  145.8969  158.2113 H   0  0  0  0  0  0  0  0  0  0  0  0
  152.4386  145.8827  158.6021 H   0  0  0  0  0  0  0  0  0  0  0  0
  150.6851  143.3991  158.1740 H   0  0  0  0  0  0  0  0  0  0  0  0
  151.9459  143.9847  157.1067 H   0  0  0  0  0  0  0  0  0  0  0  0
  150.5832  137.8117  157.3357 H   0  0  0  0  0  0  0  0  0  0  0  0
  149.1960  137.3008  155.3516 H   0  0  0  0  0  0  0  0  0  0  0  0
  150.1035  138.9979  153.3464 H   0  0  0  0  0  0  0  0  0  0  0  0
  1  2  2  0  0  0  0
  2 12  1  0  0  0  0
  2  3  1  0  0  0  0
  3  4  1  0  0  0  0
  3 18  1  0  0  0  0
  4  5  1  0  0  0  0
  4 19  1  0  0  0  0
  4 20  1  0  0  0  0
  5  6  1  0  0  0  0
  5 21  1  0  0  0  0
  5 22  1  0  0  0  0
  6 11  1  0  0  0  0
  6  7  1  0  0  0  0
  6 23  1  0  0  0  0
  7  8  1  0  0  0  0
  7 24  1  0  0  0  0
  7 25  1  0  0  0  0
  8  9  1  0  0  0  0
  8 26  1  0  0  0  0
  8 27  1  0  0  0  0
  9 10  1  0  0  0  0
  9 28  1  0  0  0  0
  9 29  1  0  0  0  0
 10 11  1  0  0  0  0
 10 30  1  0  0  0  0
 10 31  1  0  0  0  0
 12 13  2  0  0  0  0
 13 17  1  0  0  0  0
 13 14  1  0  0  0  0
 14 32  1  0  0  0  0
 14 15  1  0  0  0  0
 15 33  1  0  0  0  0
 15 16  2  0  0  0  0
 16 34  1  0  0  0  0
 16 17  1  0  0  0  0
M  END
> <s_m_source_file>
AV-unprocessed.smi

> <i_m_source_file_index>
2751

> <i_lp_mmshare_version>
43012

> <i_f3d_flags>
0

> <s_epik_input>
bzFbY0hdW2NIXW5jMVtOSF1DKD1PKVtOSF1bQ0gyXVtDSDJdW0NAQEhdMltDSDJdW0NIMl1bQ0gyXVtDSDJdTzI=

> <s_epik_cmdline>
J2VwaWtfcHl0aG9uJywgJy1waCcsICc3LjAnLCAnLXRuJywgJzgnLCAnLW1hJywgJzIwMCcsICctbWV0YWxfYmluZGluZycsICctaW1hZScsICc8aW5maWxlLm1hZT4nLCAnLW9tYWUnLCAnPG91dGZpbGUubWFlPic=

> <r_lp_tautomer_probability>
0.107061

> <r_epik_Ionization_Penalty>
1.421

> <r_epik_Ionization_Penalty_Charging>
1.42064

> <r_epik_Ionization_Penalty_Neutral>
0.0003614

> <r_epik_State_Penalty>
2.61489

> <r_epik_Charging_Adjusted_Penalty>
4.03553

> <i_epik_Tot_Q>
0

> <i_epik_Tot_abs_Q>
0

> <r_epik_Metal_State_Penalty>
3.57288

> <b_epik_Metal_Only>
0

> <s_lp_Force_Field>
OPLS_2005

> <r_lp_Energy>
32.5629

> <b_lp_Chiralities_Consistent>
1

> <s_lp_Variant>
AV-unprocessed.smi:2751-8

> <Gold.Version>
5.8.1

> <Gold.Id.Protein>
6NUR|6NUR_protein|mol2

> <Gold.PLP.Fitness>
44.6548

> <Gold.PLP.PLP>
-36.5902

> <Gold.PLP.part.hbond>
-2.0000

> <Gold.PLP.part.metal>
0.0000

> <Gold.PLP.part.buried>
-4.9661

> <Gold.PLP.part.nonpolar>
-29.0513

> <Gold.PLP.part.repulsive>
0.1571

> <Gold.PLP.ligand.clash>
0.0000

> <Gold.PLP.ligand.torsion>
0.4746

> <Gold.PLP.Chemscore.Hbond>
2.0000

> <Gold.PLP.Chemscore.CHOScore>
1.0000

> <Gold.PLP.Chemscore.Metal>
0.0000

> <Gold.Chemscore.Hbonds>
donor molecule, donor type, donor heavy atom, donor atom, acceptor molecule, acceptor atom, score
      P1  H  7989  7998       L1    17  1.00
      P1  H  7997  8009       L1    12  1.00
      L1  C    16    34       P1  7957  1.00

> <Gold.PLP.Chemscore.Internal.Correction>
0.0138

> <Gold.Rescore>
     Score         DG    S(hbond)    S(metal)    S(lipo)     H(rot)  DE(clash)    DE(int)     intcor
     12.80     -14.96       0.94        0.00      89.78       1.63       0.04       2.12       ----

> <Gold.Chemscore.Fitness>
12.7957

> <Gold.Chemscore.DG>
-14.9559

> <Gold.Chemscore.ZeroCoef>
-5.4800

> <Gold.Chemscore.Hbond>
0.9434

> <Gold.Chemscore.Metal>
0.0000

> <Gold.Chemscore.Lipo>
89.7838

> <Gold.Chemscore.Internal_Hbond>
0.0000

> <Gold.Chemscore.DEClash>
0.0355

> <Gold.Chemscore.DEInternal>
2.1246

> <Gold.Chemscore.Rot>
1.6328

> <Gold.Chemscore.Internal.Correction>
   9.000000E+99

> <Gold.Chemscore.Hbonds>
donor molecule, donor type, donor heavy atom, donor atom, acceptor molecule, acceptor atom, score
      P1  H  7989  7998       L1    17  0.40
      P1  H  7997  8009       L1    12  0.28

> <Gold.Chemscore.Hbond.Weighted>
-3.1511

> <Gold.Chemscore.Metal.Weighted>
-0.0000

> <Gold.Chemscore.Lipo.Weighted>
-10.5047

> <Gold.Chemscore.Internal_Hbond.Weighted>
0.0000

> <Gold.Chemscore.DEClash.Weighted>
0.0355

> <Gold.Chemscore.DEInternal.Weighted>
2.1246

> <Gold.Chemscore.Rot.Weighted>
4.1799

> <Gold.Chemscore.Internal.Correction.Weighted>
   9.000000E+99

> <Gold.Protein.RotatedTorsions>
[ 6907 6896 6895 6894 ] final  -46.72 input  -60.11 | X-H torsion
[ 7974 7965 7964 7962 ] final   90.41 input  175.53 | X-H torsion
[ 8008 7997 7996 7995 ] final -157.94 input   59.86 | X-H torsion
[ 10167 10162 10161 10158 ] final   19.41 input  -65.29 | X-H torsion
[ 10718 10713 10712 10709 ] final  -70.23 input   66.30 | X-H torsion
[ 10763 10752 10751 10750 ] final   75.52 input  -60.55 | X-H torsion
[ 11005 11000 10999 10996 ] final   67.92 input  -57.11 | X-H torsion

> <Gold.Protein.ActiveResidues>
 VAL166  LYS551  ARG553  GLY616  TRP617  ASP618  TYR619  PRO620  LYS621  CYS622 
 ASP623  PHE694  ASN695  SER759  ASP760  ASP761  ALA762  ILE779  LEU786  VAL792 
 PHE793  MET794  SER795  GLU796  ALA797  LYS798  CYS799  TRP800  GLU811  SER814 

> <Gold.Protein.RotatedAtoms>
  150.9083  134.8499  159.7407 H   0  0  0  0  0  0  0  0  0  0  0  0  # atno 6907 bound_to 6896
  152.4930  134.4398  159.9549 H   0  0  0  0  0  0  0  0  0  0  0  0  # atno 6908 bound_to 6896
  151.4442  133.3595  159.2821 H   0  0  0  0  0  0  0  0  0  0  0  0  # atno 6909 bound_to 6896
  145.5194  139.2279  143.2680 H   0  0  0  0  0  0  0  0  0  0  0  0  # atno 7974 bound_to 7965
  155.7400  140.0813  157.2250 H   0  0  0  0  0  0  0  0  0  0  0  0  # atno 8008 bound_to 7997
  154.4023  140.1579  156.2660 H   0  0  0  0  0  0  0  0  0  0  0  0  # atno 8009 bound_to 7997
  155.9029  140.3408  155.6043 H   0  0  0  0  0  0  0  0  0  0  0  0  # atno 8010 bound_to 7997
  140.5581  143.9388  150.6623 H   0  0  0  0  0  0  0  0  0  0  0  0  # atno 10167 bound_to 10162
  156.0418  130.4327  150.2264 H   0  0  0  0  0  0  0  0  0  0  0  0  # atno 10718 bound_to 10713
  153.0661  135.4985  154.8202 H   0  0  0  0  0  0  0  0  0  0  0  0  # atno 10763 bound_to 10752
  154.6955  135.2992  154.9420 H   0  0  0  0  0  0  0  0  0  0  0  0  # atno 10764 bound_to 10752
  154.0161  135.6748  153.4821 H   0  0  0  0  0  0  0  0  0  0  0  0  # atno 10765 bound_to 10752
  139.9742  134.6850  156.0387 H   0  0  0  0  0  0  0  0  0  0  0  0  # atno 11005 bound_to 11000
  146.2116  140.6005  142.9057 LP  0  0  0  0  0  0  0  0  0  0  0  0  # atno 17320 bound_to 7965
  144.7684  140.5583  143.6687 LP  0  0  0  0  0  0  0  0  0  0  0  0  # atno 17321 bound_to 7965
  140.2831  143.3375  152.1132 LP  0  0  0  0  0  0  0  0  0  0  0  0  # atno 17342 bound_to 10162
  139.5057  144.6800  151.6032 LP  0  0  0  0  0  0  0  0  0  0  0  0  # atno 17343 bound_to 10162
  157.0358  131.0021  151.3298 LP  0  0  0  0  0  0  0  0  0  0  0  0  # atno 17370 bound_to 10713
  157.5244  130.8019  149.7846 LP  0  0  0  0  0  0  0  0  0  0  0  0  # atno 17371 bound_to 10713
  141.1420  133.6563  156.3757 LP  0  0  0  0  0  0  0  0  0  0  0  0  # atno 17394 bound_to 11000
  140.5230  134.6286  157.5324 LP  0  0  0  0  0  0  0  0  0  0  0  0  # atno 17395 bound_to 11000

$$$$
