AV-unprocessed.smi:259|AV-procd|sdf|1973|dock1
  -GOLD-   2262021133D 1   1.00000     0.00000
 Structure written by MMmdl.
 54 57  0  0  0  0  0  0  0  0  1 V2000
  152.1766  144.8469  159.2508 C   0  0  0  0  0  0  0  0  0  0  0  0
  151.2869  143.7271  158.9845 N   0  0  0  0  0  0  0  0  0  0  0  0
  151.1103  143.1752  157.7753 C   0  0  0  0  0  0  0  0  0  0  0  0
  151.6926  143.5743  156.7670 O   0  0  0  0  0  0  0  0  0  0  0  0
  150.1138  142.0070  157.6975 C   0  0  0  0  0  0  0  0  0  0  0  0
  150.0124  141.2831  156.3264 C   0  0  1  0  0  0  0  0  0  0  0  0
  149.5655  142.2234  155.3650 O   0  0  0  0  0  0  0  0  0  0  0  0
  151.3644  140.6669  155.8793 C   0  0  0  0  0  0  0  0  0  0  0  0
  151.2181  139.7672  154.6409 C   0  0  0  0  0  0  0  0  0  0  0  0
  150.1325  138.7062  154.8597 C   0  0  0  0  0  0  0  0  0  0  0  0
  148.8770  139.3471  155.2263 N   0  0  0  0  0  0  0  0  0  0  0  0
  147.8138  138.5199  155.1560 C   0  0  0  0  0  0  0  0  0  0  0  0
  147.4342  137.9042  156.3022 N   0  0  0  0  0  0  0  0  0  0  0  0
  146.3894  137.0709  156.2975 C   0  0  0  0  0  0  0  0  0  0  0  0
  145.6012  136.7256  155.2769 N   0  0  0  0  0  0  0  0  0  0  0  0
  145.9758  137.3537  154.1253 C   0  0  0  0  0  0  0  0  0  0  0  0
  147.0610  138.2618  153.9759 C   0  0  0  0  0  0  0  0  0  0  0  0
  147.1299  138.7046  152.6606 N   0  0  0  0  0  0  0  0  0  0  0  0
  146.1460  138.0880  152.0648 C   0  0  0  0  0  0  0  0  0  0  0  0
  145.3954  137.2629  152.8718 N   0  0  0  0  0  0  0  0  0  0  0  0
  144.2476  136.4615  152.4751 C   0  0  0  0  0  0  0  0  0  0  0  0
  144.6124  135.2231  151.6355 C   0  0  0  0  0  0  0  0  0  0  0  0
  144.4090  135.5591  150.1437 C   0  0  0  0  0  0  0  0  0  0  0  0
  145.3731  136.4717  149.6577 O   0  0  0  0  0  0  0  0  0  0  0  0
  145.9326  134.5268  151.9966 C   0  0  0  0  0  0  0  0  0  0  0  0
  145.2782  133.2536  152.1913 O   0  0  0  0  0  0  0  0  0  0  0  0
  143.9914  133.9074  152.1261 C   0  0  0  0  0  0  0  0  0  0  0  0
  148.9193  140.1916  156.4187 C   0  0  0  0  0  0  0  0  0  0  0  0
  152.1692  145.0822  160.3150 H   0  0  0  0  0  0  0  0  0  0  0  0
  151.8575  145.7345  158.7027 H   0  0  0  0  0  0  0  0  0  0  0  0
  153.2008  144.6079  158.9615 H   0  0  0  0  0  0  0  0  0  0  0  0
  150.7704  143.3508  159.7663 H   0  0  0  0  0  0  0  0  0  0  0  0
  150.3869  141.2758  158.4603 H   0  0  0  0  0  0  0  0  0  0  0  0
  149.1330  142.3844  157.9905 H   0  0  0  0  0  0  0  0  0  0  0  0
  149.4452  143.0563  155.7952 H   0  0  0  0  0  0  0  0  0  0  0  0
  152.0994  141.4457  155.6729 H   0  0  0  0  0  0  0  0  0  0  0  0
  151.7733  140.0705  156.6961 H   0  0  0  0  0  0  0  0  0  0  0  0
  150.9645  140.3752  153.7716 H   0  0  0  0  0  0  0  0  0  0  0  0
  152.1696  139.2859  154.4139 H   0  0  0  0  0  0  0  0  0  0  0  0
  150.0020  138.1165  153.9509 H   0  0  0  0  0  0  0  0  0  0  0  0
  150.4330  138.0169  155.6499 H   0  0  0  0  0  0  0  0  0  0  0  0
  146.1511  136.6154  157.2473 H   0  0  0  0  0  0  0  0  0  0  0  0
  145.9401  138.2217  151.0128 H   0  0  0  0  0  0  0  0  0  0  0  0
  143.7241  136.1653  153.3851 H   0  0  0  0  0  0  0  0  0  0  0  0
  143.5506  137.1000  151.9311 H   0  0  0  0  0  0  0  0  0  0  0  0
  144.4591  134.6573  149.5327 H   0  0  0  0  0  0  0  0  0  0  0  0
  143.4302  136.0062  149.9698 H   0  0  0  0  0  0  0  0  0  0  0  0
  145.0514  137.3499  149.7935 H   0  0  0  0  0  0  0  0  0  0  0  0
  146.6633  134.5042  151.1872 H   0  0  0  0  0  0  0  0  0  0  0  0
  146.3886  134.8858  152.9198 H   0  0  0  0  0  0  0  0  0  0  0  0
  143.5250  133.9777  153.1101 H   0  0  0  0  0  0  0  0  0  0  0  0
  143.3145  133.4340  151.4142 H   0  0  0  0  0  0  0  0  0  0  0  0
  149.1244  139.5598  157.2832 H   0  0  0  0  0  0  0  0  0  0  0  0
  147.9408  140.6450  156.5873 H   0  0  0  0  0  0  0  0  0  0  0  0
  1  2  1  0  0  0  0
  1 29  1  0  0  0  0
  1 30  1  0  0  0  0
  1 31  1  0  0  0  0
  2  3  1  0  0  0  0
  2 32  1  0  0  0  0
  3  4  2  0  0  0  0
  3  5  1  0  0  0  0
  5  6  1  0  0  0  0
  5 33  1  0  0  0  0
  5 34  1  0  0  0  0
  6 28  1  0  0  0  0
  6  7  1  0  0  0  0
  6  8  1  0  0  0  0
  7 35  1  0  0  0  0
  8  9  1  0  0  0  0
  8 36  1  0  0  0  0
  8 37  1  0  0  0  0
  9 10  1  0  0  0  0
  9 38  1  0  0  0  0
  9 39  1  0  0  0  0
 10 11  1  0  0  0  0
 10 40  1  0  0  0  0
 10 41  1  0  0  0  0
 11 12  1  0  0  0  0
 11 28  1  0  0  0  0
 12 17  1  0  0  0  0
 12 13  2  0  0  0  0
 13 14  1  0  0  0  0
 14 15  2  0  0  0  0
 14 42  1  0  0  0  0
 15 16  1  0  0  0  0
 16 20  1  0  0  0  0
 16 17  2  0  0  0  0
 17 18  1  0  0  0  0
 18 19  2  0  0  0  0
 19 20  1  0  0  0  0
 19 43  1  0  0  0  0
 20 21  1  0  0  0  0
 21 22  1  0  0  0  0
 21 44  1  0  0  0  0
 21 45  1  0  0  0  0
 22 27  1  0  0  0  0
 22 23  1  0  0  0  0
 22 25  1  0  0  0  0
 23 24  1  0  0  0  0
 23 46  1  0  0  0  0
 23 47  1  0  0  0  0
 24 48  1  0  0  0  0
 25 26  1  0  0  0  0
 25 49  1  0  0  0  0
 25 50  1  0  0  0  0
 26 27  1  0  0  0  0
 27 51  1  0  0  0  0
 27 52  1  0  0  0  0
 28 53  1  0  0  0  0
 28 54  1  0  0  0  0
M  END
> <s_m_source_file>
AV-unprocessed.smi

> <i_m_source_file_index>
259

> <i_lp_mmshare_version>
43012

> <i_f3d_flags>
0

> <s_epik_input>
W0NIM11bTkhdQyg9TylbQ0gyXVtDQEBdMShbT0hdKVtDSDJdW0NIMl1bQ0gyXU4oW0NIMl0xKWMobltjSF1uMiljKGMyMyluW2NIXW4zW0NIMl1DNChbQ0gyXVtPSF0pW0NIMl1PW0NIMl00

> <s_epik_cmdline>
J2VwaWtfcHl0aG9uJywgJy1waCcsICc3LjAnLCAnLXRuJywgJzgnLCAnLW1hJywgJzIwMCcsICctbWV0YWxfYmluZGluZycsICctaW1hZScsICc8aW5maWxlLm1hZT4nLCAnLW9tYWUnLCAnPG91dGZpbGUubWFlPic=

> <r_lp_tautomer_probability>
1

> <r_epik_Ionization_Penalty>
0.00366363

> <r_epik_Ionization_Penalty_Charging>
0

> <r_epik_Ionization_Penalty_Neutral>
0.00366363

> <r_epik_State_Penalty>
0.00243014

> <r_epik_Charging_Adjusted_Penalty>
0.00243014

> <i_epik_Tot_Q>
0

> <i_epik_Tot_abs_Q>
0

> <r_epik_Metal_State_Penalty>
-0

> <b_epik_Metal_Only>
0

> <s_lp_Force_Field>
OPLS_2005

> <r_lp_Energy>
40.2539

> <b_lp_Chiralities_Consistent>
1

> <s_lp_Variant>
AV-unprocessed.smi:259-1

> <Gold.Version>
5.8.1

> <Gold.Id.Protein>
6NUR|6NUR_protein|mol2

> <Gold.PLP.Fitness>
41.8060

> <Gold.PLP.PLP>
-35.3984

> <Gold.PLP.part.hbond>
-3.0000

> <Gold.PLP.part.metal>
0.0000

> <Gold.PLP.part.buried>
-0.4669

> <Gold.PLP.part.nonpolar>
-33.1756

> <Gold.PLP.part.repulsive>
0.7132

> <Gold.PLP.ligand.clash>
0.0000

> <Gold.PLP.ligand.torsion>
1.6962

> <Gold.PLP.Chemscore.Hbond>
2.0000

> <Gold.PLP.Chemscore.CHOScore>
0.9977

> <Gold.PLP.Chemscore.Metal>
0.0000

> <Gold.Chemscore.Hbonds>
donor molecule, donor type, donor heavy atom, donor atom, acceptor molecule, acceptor atom, score
      L1  H     7    35       P1  8028  0.93
      L1  H    24    48       P1 10171  1.00
      L1  C    19    43       P1 10171  1.00

> <Gold.PLP.Chemscore.Internal.Correction>
0.8070

> <Gold.Rescore>
     Score         DG    S(hbond)    S(metal)    S(lipo)     H(rot)  DE(clash)    DE(int)     intcor
      6.00      -9.45       1.99        0.00      66.74       4.09       0.15       3.30       ----

> <Gold.Chemscore.Fitness>
6.0040

> <Gold.Chemscore.DG>
-9.4478

> <Gold.Chemscore.ZeroCoef>
-5.4800

> <Gold.Chemscore.Hbond>
1.9853

> <Gold.Chemscore.Metal>
0.0000

> <Gold.Chemscore.Lipo>
66.7417

> <Gold.Chemscore.Internal_Hbond>
0.0000

> <Gold.Chemscore.DEClash>
0.1461

> <Gold.Chemscore.DEInternal>
3.2977

> <Gold.Chemscore.Rot>
4.0906

> <Gold.Chemscore.Internal.Correction>
   9.000000E+99

> <Gold.Chemscore.Hbonds>
donor molecule, donor type, donor heavy atom, donor atom, acceptor molecule, acceptor atom, score
      L1  H     7    35       P1  8028  0.91
      L1  H    24    48       P1 10171  0.98

> <Gold.Chemscore.Hbond.Weighted>
-6.6310

> <Gold.Chemscore.Metal.Weighted>
-0.0000

> <Gold.Chemscore.Lipo.Weighted>
-7.8088

> <Gold.Chemscore.Internal_Hbond.Weighted>
0.0000

> <Gold.Chemscore.DEClash.Weighted>
0.1461

> <Gold.Chemscore.DEInternal.Weighted>
3.2977

> <Gold.Chemscore.Rot.Weighted>
10.4719

> <Gold.Chemscore.Internal.Correction.Weighted>
   9.000000E+99

> <Gold.Protein.RotatedTorsions>
[ 6907 6896 6895 6894 ] final   77.99 input  -60.11 | X-H torsion
[ 7974 7965 7964 7962 ] final  -56.57 input  175.53 | X-H torsion
[ 8008 7997 7996 7995 ] final  -19.72 input   59.86 | X-H torsion
[ 10167 10162 10161 10158 ] final   20.07 input  -65.29 | X-H torsion
[ 10718 10713 10712 10709 ] final  167.76 input   66.30 | X-H torsion
[ 10763 10752 10751 10750 ] final -136.47 input  -60.55 | X-H torsion
[ 11005 11000 10999 10996 ] final -130.98 input  -57.11 | X-H torsion

> <Gold.Protein.ActiveResidues>
 VAL166  LYS551  ARG553  GLY616  TRP617  ASP618  TYR619  PRO620  LYS621  CYS622 
 ASP623  PHE694  ASN695  SER759  ASP760  ASP761  ALA762  ILE779  LEU786  VAL792 
 PHE793  MET794  SER795  GLU796  ALA797  LYS798  CYS799  TRP800  GLU811  SER814 

> <Gold.Protein.RotatedAtoms>
  152.5141  134.3732  159.9325 H   0  0  0  0  0  0  0  0  0  0  0  0  # atno 6907 bound_to 6896
  151.3687  133.3856  159.2705 H   0  0  0  0  0  0  0  0  0  0  0  0  # atno 6908 bound_to 6896
  150.9594  134.9004  159.7780 H   0  0  0  0  0  0  0  0  0  0  0  0  # atno 6909 bound_to 6896
  145.8611  140.8285  142.9936 H   0  0  0  0  0  0  0  0  0  0  0  0  # atno 7974 bound_to 7965
  154.4817  140.2081  155.9748 H   0  0  0  0  0  0  0  0  0  0  0  0  # atno 8008 bound_to 7997
  156.1175  140.3219  155.8130 H   0  0  0  0  0  0  0  0  0  0  0  0  # atno 8009 bound_to 7997
  155.4526  140.0518  157.2990 H   0  0  0  0  0  0  0  0  0  0  0  0  # atno 8010 bound_to 7997
  140.5531  143.9473  150.6591 H   0  0  0  0  0  0  0  0  0  0  0  0  # atno 10167 bound_to 10162
  157.0469  131.0302  151.2694 H   0  0  0  0  0  0  0  0  0  0  0  0  # atno 10718 bound_to 10713
  154.8683  135.3671  154.5066 H   0  0  0  0  0  0  0  0  0  0  0  0  # atno 10763 bound_to 10752
  153.5703  135.7021  153.5512 H   0  0  0  0  0  0  0  0  0  0  0  0  # atno 10764 bound_to 10752
  153.3547  135.4062  155.1636 H   0  0  0  0  0  0  0  0  0  0  0  0  # atno 10765 bound_to 10752
  140.9299  134.1333  157.4244 H   0  0  0  0  0  0  0  0  0  0  0  0  # atno 11005 bound_to 11000
  144.6726  140.1097  143.7456 LP  0  0  0  0  0  0  0  0  0  0  0  0  # atno 17320 bound_to 7965
  145.9247  139.2568  143.1360 LP  0  0  0  0  0  0  0  0  0  0  0  0  # atno 17321 bound_to 7965
  140.2904  143.3328  152.1067 LP  0  0  0  0  0  0  0  0  0  0  0  0  # atno 17342 bound_to 10162
  139.5036  144.6758  151.6131 LP  0  0  0  0  0  0  0  0  0  0  0  0  # atno 17343 bound_to 10162
  157.5060  130.7909  149.7655 LP  0  0  0  0  0  0  0  0  0  0  0  0  # atno 17370 bound_to 10713
  156.0020  130.3875  150.2571 LP  0  0  0  0  0  0  0  0  0  0  0  0  # atno 17371 bound_to 10713
  139.8794  135.0001  156.5993 LP  0  0  0  0  0  0  0  0  0  0  0  0  # atno 17394 bound_to 11000
  140.7876  133.8608  155.8619 LP  0  0  0  0  0  0  0  0  0  0  0  0  # atno 17395 bound_to 11000

$$$$
