AV-unprocessed.smi:290|AV-procd|sdf|2217|dock8
  -GOLD-   2262022 53D 1   1.00000     0.00000
 Structure written by MMmdl.
 59 62  0  0  0  0  0  0  0  0  2 V2000
  145.5172  132.9312  162.6847 C   0  0  0  0  0  0  0  0  0  0  0  0
  146.9974  133.3302  162.5699 C   0  0  2  0  0  0  0  0  0  0  0  0
  147.2263  134.5889  163.1871 O   0  0  0  0  0  0  0  0  0  0  0  0
  148.4732  135.0617  162.7120 C   0  0  0  0  0  0  0  0  0  0  0  0
  148.3977  134.7650  161.2192 C   0  0  0  0  0  0  0  0  0  0  0  0
  147.5838  133.4694  161.1395 C   0  0  2  0  0  0  0  0  0  0  0  0
  146.5655  133.6478  160.1682 O   0  0  0  0  0  0  0  0  0  0  0  0
  148.4528  132.2599  160.7147 C   0  0  0  0  0  0  0  0  0  0  0  0
  148.6743  132.1813  159.2785 N   0  0  0  0  0  0  0  0  0  0  0  0
  148.9834  133.2236  158.4342 C   0  0  0  0  0  0  0  0  0  0  0  0
  149.1278  132.8994  157.1785 N   0  0  0  0  0  0  0  0  0  0  0  0
  148.9042  131.5277  157.1534 C   0  0  0  0  0  0  0  0  0  0  0  0
  148.9000  130.5347  156.1319 C   0  0  0  0  0  0  0  0  0  0  0  0
  149.1414  130.7598  154.8215 N   0  0  0  0  0  0  0  0  0  0  0  0
  149.6239  132.1061  154.5180 C   0  0  0  0  0  0  0  0  0  0  0  0
  149.0291  132.4841  153.1575 C   0  0  0  0  0  0  0  0  0  0  0  0
  147.7359  131.6639  153.1523 C   0  0  1  0  0  0  0  0  0  0  0  0
  146.9872  131.5374  151.8629 N   0  3  1  0  0  0  0  0  0  0  0  0
  146.1241  130.3301  151.8512 C   0  0  0  0  0  0  0  0  0  0  0  0
  146.2617  132.7599  151.4156 C   0  0  0  0  0  0  0  0  0  0  0  0
  145.3855  132.5198  150.1727 C   0  0  0  0  0  0  0  0  0  0  0  0
  145.0084  133.7521  149.5964 O   0  0  0  0  0  0  0  0  0  0  0  0
  148.1400  130.3456  153.8396 C   0  0  1  0  0  0  0  0  0  0  0  0
  148.7399  129.2623  152.9275 C   0  0  0  0  0  0  0  0  0  0  0  0
  148.6692  129.2498  156.4960 N   0  0  0  0  0  0  0  0  0  0  0  0
  148.4305  128.9495  157.7762 C   0  0  0  0  0  0  0  0  0  0  0  0
  148.3868  129.7664  158.8305 N   0  0  0  0  0  0  0  0  0  0  0  0
  148.6338  131.0583  158.4699 C   0  0  0  0  0  0  0  0  0  0  0  0
  147.0693  132.1557  153.8629 H   0  0  0  0  0  0  0  0  0  0  0  0
  147.2647  129.9093  154.3211 H   0  0  0  0  0  0  0  0  0  0  0  0
  145.3282  131.9734  162.1994 H   0  0  0  0  0  0  0  0  0  0  0  0
  144.8642  133.6766  162.2298 H   0  0  0  0  0  0  0  0  0  0  0  0
  145.2247  132.8344  163.7303 H   0  0  0  0  0  0  0  0  0  0  0  0
  147.5921  132.6112  163.1345 H   0  0  0  0  0  0  0  0  0  0  0  0
  148.6117  136.1218  162.9253 H   0  0  0  0  0  0  0  0  0  0  0  0
  149.2846  134.5040  163.1829 H   0  0  0  0  0  0  0  0  0  0  0  0
  147.8765  135.5874  160.7259 H   0  0  0  0  0  0  0  0  0  0  0  0
  149.3857  134.6880  160.7637 H   0  0  0  0  0  0  0  0  0  0  0  0
  146.0764  134.4265  160.3854 H   0  0  0  0  0  0  0  0  0  0  0  0
  149.4250  132.2972  161.2080 H   0  0  0  0  0  0  0  0  0  0  0  0
  147.9835  131.3305  161.0402 H   0  0  0  0  0  0  0  0  0  0  0  0
  149.0935  134.2407  158.7811 H   0  0  0  0  0  0  0  0  0  0  0  0
  149.2853  132.8093  155.2813 H   0  0  0  0  0  0  0  0  0  0  0  0
  150.7138  132.1340  154.5002 H   0  0  0  0  0  0  0  0  0  0  0  0
  148.8572  133.5559  153.0562 H   0  0  0  0  0  0  0  0  0  0  0  0
  149.7207  132.1748  152.3746 H   0  0  0  0  0  0  0  0  0  0  0  0
  145.3302  130.4135  152.5944 H   0  0  0  0  0  0  0  0  0  0  0  0
  146.7054  129.4350  152.0743 H   0  0  0  0  0  0  0  0  0  0  0  0
  145.6641  130.1663  150.8782 H   0  0  0  0  0  0  0  0  0  0  0  0
  145.6499  133.1377  152.2362 H   0  0  0  0  0  0  0  0  0  0  0  0
  146.9616  133.5554  151.1685 H   0  0  0  0  0  0  0  0  0  0  0  0
  145.8792  131.8993  149.4262 H   0  0  0  0  0  0  0  0  0  0  0  0
  144.4776  131.9907  150.4637 H   0  0  0  0  0  0  0  0  0  0  0  0
  145.7262  134.0718  149.0703 H   0  0  0  0  0  0  0  0  0  0  0  0
  148.0272  128.9358  152.1713 H   0  0  0  0  0  0  0  0  0  0  0  0
  149.0134  128.3819  153.5097 H   0  0  0  0  0  0  0  0  0  0  0  0
  149.6428  129.6079  152.4242 H   0  0  0  0  0  0  0  0  0  0  0  0
  148.2478  127.9055  157.9854 H   0  0  0  0  0  0  0  0  0  0  0  0
  147.6965  131.3691  151.1634 H   0  0  0  0  0  0  0  0  0  0  0  0
  1  2  1  0  0  0  0
  1 31  1  0  0  0  0
  1 32  1  0  0  0  0
  1 33  1  0  0  0  0
  2  6  1  0  0  0  0
  2  3  1  0  0  0  0
  2 34  1  0  0  0  0
  3  4  1  0  0  0  0
  4  5  1  0  0  0  0
  4 35  1  0  0  0  0
  4 36  1  0  0  0  0
  5  6  1  0  0  0  0
  5 37  1  0  0  0  0
  5 38  1  0  0  0  0
  6  7  1  0  0  0  0
  6  8  1  0  0  0  0
  7 39  1  0  0  0  0
  8  9  1  0  0  0  0
  8 40  1  0  0  0  0
  8 41  1  0  0  0  0
  9 28  1  0  0  0  0
  9 10  1  0  0  0  0
 10 11  2  0  0  0  0
 10 42  1  0  0  0  0
 11 12  1  0  0  0  0
 12 28  2  0  0  0  0
 12 13  1  0  0  0  0
 13 14  1  0  0  0  0
 13 25  2  0  0  0  0
 14 23  1  0  0  0  0
 14 15  1  0  0  0  0
 15 16  1  0  0  0  0
 15 43  1  0  0  0  0
 15 44  1  0  0  0  0
 16 17  1  0  0  0  0
 16 45  1  0  0  0  0
 16 46  1  0  0  0  0
 17 29  1  0  0  0  0
 17 18  1  0  0  0  0
 17 23  1  0  0  0  0
 18 19  1  0  0  0  0
 18 20  1  0  0  0  0
 18 59  1  0  0  0  0
 19 47  1  0  0  0  0
 19 48  1  0  0  0  0
 19 49  1  0  0  0  0
 20 21  1  0  0  0  0
 20 50  1  0  0  0  0
 20 51  1  0  0  0  0
 21 22  1  0  0  0  0
 21 52  1  0  0  0  0
 21 53  1  0  0  0  0
 22 54  1  0  0  0  0
 23 30  1  0  0  0  0
 23 24  1  0  0  0  0
 24 55  1  0  0  0  0
 24 56  1  0  0  0  0
 24 57  1  0  0  0  0
 25 26  1  0  0  0  0
 26 27  2  0  0  0  0
 26 58  1  0  0  0  0
 27 28  1  0  0  0  0
M  CHG  1  18   1
M  END
> <s_m_source_file>
AV-unprocessed.smi

> <i_m_source_file_index>
290

> <i_lp_mmshare_version>
43012

> <i_f3d_flags>
0

> <s_epik_input>
W0NIMl0xW0NIMl1PW0NAQEhdKFtDSDNdKVtDQEBdMShbT0hdKVtDSDJdbihbY0hdbjIpYyhjMjMpbltjSF1uYzNONFtDSDJdW0NIMl1bQ0BIXShbQ0BIXTRbQ0gzXSlOKFtDSDNdKVtDSDJdW0NIMl1bT0hd

> <s_epik_cmdline>
J2VwaWtfcHl0aG9uJywgJy1waCcsICc3LjAnLCAnLXRuJywgJzgnLCAnLW1hJywgJzIwMCcsICctbWV0YWxfYmluZGluZycsICctaW1hZScsICc8aW5maWxlLm1hZT4nLCAnLW9tYWUnLCAnPG91dGZpbGUubWFlPic=

> <r_lp_tautomer_probability>
1

> <r_epik_Ionization_Penalty>
0.0036983

> <r_epik_Ionization_Penalty_Charging>
0.0032725

> <r_epik_Ionization_Penalty_Neutral>
0.000425798

> <r_epik_State_Penalty>
-0

> <r_epik_Charging_Adjusted_Penalty>
0.0032725

> <i_epik_Tot_Q>
1

> <i_epik_Tot_abs_Q>
1

> <r_epik_Metal_State_Penalty>
-0

> <b_epik_Metal_Only>
0

> <s_lp_Force_Field>
OPLS_2005

> <r_lp_Energy>
65.9865

> <b_lp_Chiralities_Consistent>
1

> <s_lp_Variant>
AV-unprocessed.smi:290-3

> <Gold.Version>
5.8.1

> <Gold.Id.Protein>
6NUR|6NUR_protein|mol2

> <Gold.PLP.Fitness>
45.2913

> <Gold.PLP.PLP>
-41.1912

> <Gold.PLP.part.hbond>
-2.0000

> <Gold.PLP.part.metal>
0.0000

> <Gold.PLP.part.buried>
-5.2852

> <Gold.PLP.part.nonpolar>
-33.7267

> <Gold.PLP.part.repulsive>
0.0153

> <Gold.PLP.ligand.clash>
0.0000

> <Gold.PLP.ligand.torsion>
1.1407

> <Gold.PLP.Chemscore.Hbond>
2.0000

> <Gold.PLP.Chemscore.CHOScore>
0.0000

> <Gold.PLP.Chemscore.Metal>
0.0000

> <Gold.Chemscore.Hbonds>
donor molecule, donor type, donor heavy atom, donor atom, acceptor molecule, acceptor atom, score
      L1  H    18    59       P1 10747  1.00
      L1  H    22    54       P1  7921  0.91

> <Gold.PLP.Chemscore.Internal.Correction>
0.3816

> <Gold.Rescore>
     Score         DG    S(hbond)    S(metal)    S(lipo)     H(rot)  DE(clash)    DE(int)     intcor
     10.41     -13.70       1.78        0.00      99.68       3.67       0.21       3.08       ----

> <Gold.Chemscore.Fitness>
10.4067

> <Gold.Chemscore.DG>
-13.7004

> <Gold.Chemscore.ZeroCoef>
-5.4800

> <Gold.Chemscore.Hbond>
1.7790

> <Gold.Chemscore.Metal>
0.0000

> <Gold.Chemscore.Lipo>
99.6837

> <Gold.Chemscore.Internal_Hbond>
0.0000

> <Gold.Chemscore.DEClash>
0.2124

> <Gold.Chemscore.DEInternal>
3.0814

> <Gold.Chemscore.Rot>
3.6658

> <Gold.Chemscore.Internal.Correction>
   9.000000E+99

> <Gold.Chemscore.Hbonds>
donor molecule, donor type, donor heavy atom, donor atom, acceptor molecule, acceptor atom, score
      L1  H    18    59       P1 10747  1.00
      L1  H    22    54       P1  7921  0.44

> <Gold.Chemscore.Hbond.Weighted>
-5.9419

> <Gold.Chemscore.Metal.Weighted>
-0.0000

> <Gold.Chemscore.Lipo.Weighted>
-11.6630

> <Gold.Chemscore.Internal_Hbond.Weighted>
0.0000

> <Gold.Chemscore.DEClash.Weighted>
0.2124

> <Gold.Chemscore.DEInternal.Weighted>
3.0814

> <Gold.Chemscore.Rot.Weighted>
9.3844

> <Gold.Chemscore.Internal.Correction.Weighted>
   9.000000E+99

> <Gold.Protein.RotatedTorsions>
[ 6907 6896 6895 6894 ] final -132.17 input  -60.11 | X-H torsion
[ 7974 7965 7964 7962 ] final  -68.63 input  175.53 | X-H torsion
[ 8008 7997 7996 7995 ] final   45.76 input   59.86 | X-H torsion
[ 10167 10162 10161 10158 ] final   18.86 input  -65.29 | X-H torsion
[ 10718 10713 10712 10709 ] final  -15.97 input   66.30 | X-H torsion
[ 10763 10752 10751 10750 ] final   40.34 input  -60.55 | X-H torsion
[ 11005 11000 10999 10996 ] final  110.68 input  -57.11 | X-H torsion

> <Gold.Protein.ActiveResidues>
 VAL166  LYS551  ARG553  GLY616  TRP617  ASP618  TYR619  PRO620  LYS621  CYS622 
 ASP623  PHE694  ASN695  SER759  ASP760  ASP761  ALA762  ILE779  LEU786  VAL792 
 PHE793  MET794  SER795  GLU796  ALA797  LYS798  CYS799  TRP800  GLU811  SER814 

> <Gold.Protein.RotatedAtoms>
  150.9593  133.6463  159.2757 H   0  0  0  0  0  0  0  0  0  0  0  0  # atno 6907 bound_to 6896
  151.3791  135.0935  159.9500 H   0  0  0  0  0  0  0  0  0  0  0  0  # atno 6908 bound_to 6896
  152.5141  133.9131  159.7552 H   0  0  0  0  0  0  0  0  0  0  0  0  # atno 6909 bound_to 6896
  145.7141  140.9066  143.0665 H   0  0  0  0  0  0  0  0  0  0  0  0  # atno 7974 bound_to 7965
  155.3412  140.3408  155.4239 H   0  0  0  0  0  0  0  0  0  0  0  0  # atno 8008 bound_to 7997
  156.1812  140.1664  156.8306 H   0  0  0  0  0  0  0  0  0  0  0  0  # atno 8009 bound_to 7997
  154.5336  140.0740  156.8371 H   0  0  0  0  0  0  0  0  0  0  0  0  # atno 8010 bound_to 7997
  140.5622  143.9316  150.6651 H   0  0  0  0  0  0  0  0  0  0  0  0  # atno 10167 bound_to 10162
  156.5942  130.4807  149.6266 H   0  0  0  0  0  0  0  0  0  0  0  0  # atno 10718 bound_to 10713
  152.9939  135.6194  154.2610 H   0  0  0  0  0  0  0  0  0  0  0  0  # atno 10763 bound_to 10752
  154.2346  135.2791  155.2879 H   0  0  0  0  0  0  0  0  0  0  0  0  # atno 10764 bound_to 10752
  154.5421  135.5758  153.6906 H   0  0  0  0  0  0  0  0  0  0  0  0  # atno 10765 bound_to 10752
  139.8887  134.9490  156.6316 H   0  0  0  0  0  0  0  0  0  0  0  0  # atno 11005 bound_to 11000
  144.6934  139.9114  143.7463 LP  0  0  0  0  0  0  0  0  0  0  0  0  # atno 17320 bound_to 7965
  146.0686  139.3676  143.0537 LP  0  0  0  0  0  0  0  0  0  0  0  0  # atno 17321 bound_to 7965
  140.2770  143.3416  152.1186 LP  0  0  0  0  0  0  0  0  0  0  0  0  # atno 17342 bound_to 10162
  139.5075  144.6834  151.5950 LP  0  0  0  0  0  0  0  0  0  0  0  0  # atno 17343 bound_to 10162
  156.2524  130.6915  151.1657 LP  0  0  0  0  0  0  0  0  0  0  0  0  # atno 17370 bound_to 10713
  157.7296  131.0623  150.5766 LP  0  0  0  0  0  0  0  0  0  0  0  0  # atno 17371 bound_to 10713
  140.7662  133.8776  155.8456 LP  0  0  0  0  0  0  0  0  0  0  0  0  # atno 17394 bound_to 11000
  140.9880  134.1316  157.4434 LP  0  0  0  0  0  0  0  0  0  0  0  0  # atno 17395 bound_to 11000

$$$$
