AV-unprocessed.smi:711|AV-procd|sdf|3466|dock9
  -GOLD-   22720 0453D 1   1.00000     0.00000
 Structure written by MMmdl.
 28 29  0  0  0  0  0  0  0  0  2 V2000
  149.1289  138.7131  153.7859 O   0  0  0  0  0  0  0  0  0  0  0  0
  149.7159  139.5433  154.4784 C   0  0  0  0  0  0  0  0  0  0  0  0
  150.8660  139.2566  155.1556 N   0  5  0  0  0  0  0  0  0  0  0  0
  151.5321  140.1651  155.9328 C   0  0  0  0  0  0  0  0  0  0  0  0
  152.5630  139.8761  156.5403 O   0  0  0  0  0  0  0  0  0  0  0  0
  151.0291  141.4315  156.0425 N   0  0  0  0  0  0  0  0  0  0  0  0
  151.6549  142.4774  156.8674 C   0  0  0  0  0  0  0  0  0  0  0  0
  150.7907  142.8628  158.0891 C   0  0  2  0  0  0  0  0  0  0  0  0
  150.2451  144.1466  157.8602 O   0  0  0  0  0  0  0  0  0  0  0  0
  151.5505  142.7822  159.4087 C   0  0  0  0  0  0  0  0  0  0  0  0
  151.6822  143.9299  160.2220 C   0  0  0  0  0  0  0  0  0  0  0  0
  152.4039  143.8686  161.4294 C   0  0  0  0  0  0  0  0  0  0  0  0
  153.0009  142.6592  161.8320 C   0  0  0  0  0  0  0  0  0  0  0  0
  153.6950  142.5999  162.9931 F   0  0  0  0  0  0  0  0  0  0  0  0
  152.8762  141.5120  161.0259 C   0  0  0  0  0  0  0  0  0  0  0  0
  152.1549  141.5709  159.8176 C   0  0  0  0  0  0  0  0  0  0  0  0
  152.0548  140.4586  159.0502 F   0  0  0  0  0  0  0  0  0  0  0  0
  149.8494  141.7782  155.3628 C   0  0  0  0  0  0  0  0  0  0  0  0
  149.1791  140.8973  154.5956 C   0  0  0  0  0  0  0  0  0  0  0  0
  147.7268  141.3524  153.7779 Cl  0  0  0  0  0  0  0  0  0  0  0  0
  152.6513  142.1791  157.1977 H   0  0  0  0  0  0  0  0  0  0  0  0
  151.8208  143.3586  156.2455 H   0  0  0  0  0  0  0  0  0  0  0  0
  149.9381  142.1852  158.1377 H   0  0  0  0  0  0  0  0  0  0  0  0
  149.7799  144.1302  157.0380 H   0  0  0  0  0  0  0  0  0  0  0  0
  151.2382  144.8657  159.9159 H   0  0  0  0  0  0  0  0  0  0  0  0
  152.5032  144.7510  162.0440 H   0  0  0  0  0  0  0  0  0  0  0  0
  153.3383  140.5854  161.3325 H   0  0  0  0  0  0  0  0  0  0  0  0
  149.5237  142.7976  155.5099 H   0  0  0  0  0  0  0  0  0  0  0  0
  1  2  2  0  0  0  0
  2 19  1  0  0  0  0
  2  3  1  0  0  0  0
  3  4  1  0  0  0  0
  4  5  2  0  0  0  0
  4  6  1  0  0  0  0
  6  7  1  0  0  0  0
  6 18  1  0  0  0  0
  7  8  1  0  0  0  0
  7 21  1  0  0  0  0
  7 22  1  0  0  0  0
  8  9  1  0  0  0  0
  8 10  1  0  0  0  0
  8 23  1  0  0  0  0
  9 24  1  0  0  0  0
 10 16  1  0  0  0  0
 10 11  2  0  0  0  0
 11 12  1  0  0  0  0
 11 25  1  0  0  0  0
 12 13  2  0  0  0  0
 12 26  1  0  0  0  0
 13 14  1  0  0  0  0
 13 15  1  0  0  0  0
 15 16  2  0  0  0  0
 15 27  1  0  0  0  0
 16 17  1  0  0  0  0
 18 19  2  0  0  0  0
 18 28  1  0  0  0  0
 19 20  1  0  0  0  0
M  CHG  1   3  -1
M  END
> <s_m_source_file>
AV-unprocessed.smi

> <i_m_source_file_index>
711

> <i_lp_mmshare_version>
43012

> <i_f3d_flags>
0

> <s_epik_input>
Tz1jMVtuSF1jKD1PKW4oW2NIXWMxQ2wpW0NIMl1bQ0BIXShbT0hdKWMyW2NIXVtjSF1jKEYpW2NIXWMyRg==

> <s_epik_cmdline>
J2VwaWtfcHl0aG9uJywgJy1waCcsICc3LjAnLCAnLXRuJywgJzgnLCAnLW1hJywgJzIwMCcsICctbWV0YWxfYmluZGluZycsICctaW1hZScsICc8aW5maWxlLm1hZT4nLCAnLW9tYWUnLCAnPG91dGZpbGUubWFlPic=

> <r_epik_Ionization_Penalty>
1.7979

> <r_epik_Ionization_Penalty_Charging>
3.23819e-08

> <r_epik_Ionization_Penalty_Neutral>
1.7979

> <r_epik_State_Penalty>
1.91135

> <r_epik_Charging_Adjusted_Penalty>
1.91135

> <i_epik_Tot_Q>
-1

> <i_epik_Tot_abs_Q>
1

> <r_epik_Metal_State_Penalty>
0.014155

> <b_epik_Metal_Only>
0

> <s_lp_Force_Field>
OPLS_2005

> <r_lp_Energy>
19.2938

> <b_lp_Chiralities_Consistent>
1

> <s_lp_Variant>
AV-unprocessed.smi:711-3

> <Gold.Version>
5.8.1

> <Gold.Id.Protein>
6NUR|6NUR_protein|mol2

> <Gold.PLP.Fitness>
52.4226

> <Gold.PLP.PLP>
-44.9311

> <Gold.PLP.part.hbond>
-3.0000

> <Gold.PLP.part.metal>
0.0000

> <Gold.PLP.part.buried>
-4.6446

> <Gold.PLP.part.nonpolar>
-36.8057

> <Gold.PLP.part.repulsive>
1.1893

> <Gold.PLP.ligand.clash>
0.0018

> <Gold.PLP.ligand.torsion>
0.7631

> <Gold.PLP.Chemscore.Hbond>
2.0000

> <Gold.PLP.Chemscore.CHOScore>
1.0000

> <Gold.PLP.Chemscore.Metal>
0.0000

> <Gold.Chemscore.Hbonds>
donor molecule, donor type, donor heavy atom, donor atom, acceptor molecule, acceptor atom, score
      L1  H     9    24       P1  8028  1.00
      P1  H  7997  8010       L1     5  1.00
      L1  C    18    28       P1  8028  0.99

> <Gold.PLP.Chemscore.Internal.Correction>
0.0194

> <Gold.Rescore>
     Score         DG    S(hbond)    S(metal)    S(lipo)     H(rot)  DE(clash)    DE(int)     intcor
     13.22     -18.22       1.90        0.00     105.35       2.32       1.62       3.38       ----

> <Gold.Chemscore.Fitness>
13.2174

> <Gold.Chemscore.DG>
-18.2184

> <Gold.Chemscore.ZeroCoef>
-5.4800

> <Gold.Chemscore.Hbond>
1.8990

> <Gold.Chemscore.Metal>
0.0000

> <Gold.Chemscore.Lipo>
105.3498

> <Gold.Chemscore.Internal_Hbond>
0.0000

> <Gold.Chemscore.DEClash>
1.6194

> <Gold.Chemscore.DEInternal>
3.3816

> <Gold.Chemscore.Rot>
2.3164

> <Gold.Chemscore.Internal.Correction>
   9.000000E+99

> <Gold.Chemscore.Hbonds>
donor molecule, donor type, donor heavy atom, donor atom, acceptor molecule, acceptor atom, score
      L1  H     9    24       P1  8028  0.74
      P1  H  7997  8010       L1     5  0.94

> <Gold.Chemscore.Hbond.Weighted>
-6.3426

> <Gold.Chemscore.Metal.Weighted>
-0.0000

> <Gold.Chemscore.Lipo.Weighted>
-12.3259

> <Gold.Chemscore.Internal_Hbond.Weighted>
0.0000

> <Gold.Chemscore.DEClash.Weighted>
1.6194

> <Gold.Chemscore.DEInternal.Weighted>
3.3816

> <Gold.Chemscore.Rot.Weighted>
5.9301

> <Gold.Chemscore.Internal.Correction.Weighted>
   9.000000E+99

> <Gold.Protein.RotatedTorsions>
[ 6907 6896 6895 6894 ] final   -6.11 input  -60.11 | X-H torsion
[ 7974 7965 7964 7962 ] final  -66.53 input  175.53 | X-H torsion
[ 8008 7997 7996 7995 ] final   54.27 input   59.86 | X-H torsion
[ 10167 10162 10161 10158 ] final  128.23 input  -65.29 | X-H torsion
[ 10718 10713 10712 10709 ] final   48.22 input   66.30 | X-H torsion
[ 10763 10752 10751 10750 ] final -110.28 input  -60.55 | X-H torsion
[ 11005 11000 10999 10996 ] final  142.64 input  -57.11 | X-H torsion

> <Gold.Protein.ActiveResidues>
 VAL166  LYS551  ARG553  GLY616  TRP617  ASP618  TYR619  PRO620  LYS621  CYS622 
 ASP623  PHE694  ASN695  SER759  ASP760  ASP761  ALA762  ILE779  LEU786  VAL792 
 PHE793  MET794  SER795  GLU796  ALA797  LYS798  CYS799  TRP800  GLU811  SER814 

> <Gold.Protein.RotatedAtoms>
  151.4708  135.1045  159.9750 H   0  0  0  0  0  0  0  0  0  0  0  0  # atno 6907 bound_to 6896
  152.4817  133.8267  159.7092 H   0  0  0  0  0  0  0  0  0  0  0  0  # atno 6908 bound_to 6896
  150.8894  133.7203  159.2936 H   0  0  0  0  0  0  0  0  0  0  0  0  # atno 6909 bound_to 6896
  145.7406  140.8955  143.0532 H   0  0  0  0  0  0  0  0  0  0  0  0  # atno 7974 bound_to 7965
  155.4820  140.3468  155.4341 H   0  0  0  0  0  0  0  0  0  0  0  0  # atno 8008 bound_to 7997
  156.1033  140.1441  156.9467 H   0  0  0  0  0  0  0  0  0  0  0  0  # atno 8009 bound_to 7997
  154.4708  140.0901  156.7117 H   0  0  0  0  0  0  0  0  0  0  0  0  # atno 8010 bound_to 7997
  139.5538  144.6833  151.4245 H   0  0  0  0  0  0  0  0  0  0  0  0  # atno 10167 bound_to 10162
  157.4664  130.8228  149.7941 H   0  0  0  0  0  0  0  0  0  0  0  0  # atno 10718 bound_to 10713
  154.8239  135.4570  154.0861 H   0  0  0  0  0  0  0  0  0  0  0  0  # atno 10763 bound_to 10752
  153.2191  135.6892  153.8028 H   0  0  0  0  0  0  0  0  0  0  0  0  # atno 10764 bound_to 10752
  153.7451  135.3306  155.3288 H   0  0  0  0  0  0  0  0  0  0  0  0  # atno 10765 bound_to 10752
  140.0492  134.9264  157.0986 H   0  0  0  0  0  0  0  0  0  0  0  0  # atno 11005 bound_to 11000
  144.6871  139.9456  143.7476 LP  0  0  0  0  0  0  0  0  0  0  0  0  # atno 17320 bound_to 7965
  146.0451  139.3458  143.0673 LP  0  0  0  0  0  0  0  0  0  0  0  0  # atno 17321 bound_to 7965
  140.6806  143.8090  150.7116 LP  0  0  0  0  0  0  0  0  0  0  0  0  # atno 17342 bound_to 10162
  140.1542  143.4331  152.2110 LP  0  0  0  0  0  0  0  0  0  0  0  0  # atno 17343 bound_to 10162
  156.0052  130.3859  150.2456 LP  0  0  0  0  0  0  0  0  0  0  0  0  # atno 17370 bound_to 10713
  157.0636  131.0097  151.3214 LP  0  0  0  0  0  0  0  0  0  0  0  0  # atno 17371 bound_to 10713
  140.3944  134.2149  155.7165 LP  0  0  0  0  0  0  0  0  0  0  0  0  # atno 17394 bound_to 11000
  141.1922  133.8178  157.0849 LP  0  0  0  0  0  0  0  0  0  0  0  0  # atno 17395 bound_to 11000

$$$$
