AV-unprocessed.smi:847|AV-procd|sdf|3938|dock8
  -GOLD-   22720 1403D 1   1.00000     0.00000
 Structure written by MMmdl.
 46 47  0  0  0  0  0  0  0  0  1 V2000
  143.3811  147.3862  154.1788 C   0  0  0  0  0  0  0  0  0  0  0  0
  142.2859  146.6102  154.6321 O   0  0  0  0  0  0  0  0  0  0  0  0
  142.3336  145.2744  154.1588 C   0  0  0  0  0  0  0  0  0  0  0  0
  143.4198  144.5090  154.9202 C   0  0  0  0  0  0  0  0  0  0  0  0
  144.4452  144.1374  154.0040 O   0  0  0  0  0  0  0  0  0  0  0  0
  145.5398  143.4483  154.4837 C   0  0  0  0  0  0  0  0  0  0  0  0
  146.4301  142.8704  153.5564 C   0  0  0  0  0  0  0  0  0  0  0  0
  147.5525  142.1711  154.0386 C   0  0  0  0  0  0  0  0  0  0  0  0
  147.7470  142.0706  155.4318 C   0  0  0  0  0  0  0  0  0  0  0  0
  148.9519  141.3453  156.0044 C   0  0  0  0  0  0  0  0  0  0  0  0
  149.9390  142.2671  156.5543 N   0  0  0  0  0  0  0  0  0  0  0  0
  150.5747  142.1166  157.7260 C   0  0  0  0  0  0  0  0  0  0  0  0
  150.3391  141.1987  158.5128 O   0  0  0  0  0  0  0  0  0  0  0  0
  151.6476  143.1703  158.0595 C   0  0  1  0  0  0  0  0  0  0  0  0
  151.0353  144.5800  158.0419 C   0  0  0  0  0  0  0  0  0  0  0  0
  151.8574  145.3698  159.0429 C   0  0  0  0  0  0  0  0  0  0  0  0
  152.3233  144.3357  160.0670 C   0  0  0  0  0  0  0  0  0  0  0  0
  152.2551  143.0336  159.3984 N   0  0  0  0  0  0  0  0  0  0  0  0
  152.7464  141.8911  159.9390 C   0  0  0  0  0  0  0  0  0  0  0  0
  153.3074  141.9381  161.3623 C   0  0  0  0  0  0  0  0  0  0  0  0
  152.7755  140.8185  159.3353 O   0  0  0  0  0  0  0  0  0  0  0  0
  146.7985  142.6800  156.2795 C   0  0  0  0  0  0  0  0  0  0  0  0
  145.7197  143.3524  155.8251 N   0  0  0  0  0  0  0  0  0  0  0  0
  152.4589  143.1172  157.3310 H   0  0  0  0  0  0  0  0  0  0  0  0
  143.2982  148.4004  154.5693 H   0  0  0  0  0  0  0  0  0  0  0  0
  143.3993  147.4453  153.0898 H   0  0  0  0  0  0  0  0  0  0  0  0
  144.3288  146.9695  154.5228 H   0  0  0  0  0  0  0  0  0  0  0  0
  141.3665  144.7997  154.3303 H   0  0  0  0  0  0  0  0  0  0  0  0
  142.5281  145.2451  153.0856 H   0  0  0  0  0  0  0  0  0  0  0  0
  143.8142  145.1226  155.7321 H   0  0  0  0  0  0  0  0  0  0  0  0
  142.9828  143.6108  155.3595 H   0  0  0  0  0  0  0  0  0  0  0  0
  146.2578  142.9657  152.4944 H   0  0  0  0  0  0  0  0  0  0  0  0
  148.2520  141.7244  153.3479 H   0  0  0  0  0  0  0  0  0  0  0  0
  148.6298  140.6753  156.8020 H   0  0  0  0  0  0  0  0  0  0  0  0
  149.3937  140.7104  155.2344 H   0  0  0  0  0  0  0  0  0  0  0  0
  150.1939  143.0556  155.9771 H   0  0  0  0  0  0  0  0  0  0  0  0
  151.0507  145.0282  157.0480 H   0  0  0  0  0  0  0  0  0  0  0  0
  149.9968  144.5652  158.3784 H   0  0  0  0  0  0  0  0  0  0  0  0
  152.7265  145.7931  158.5374 H   0  0  0  0  0  0  0  0  0  0  0  0
  151.3038  146.1934  159.4945 H   0  0  0  0  0  0  0  0  0  0  0  0
  153.3283  144.5683  160.4218 H   0  0  0  0  0  0  0  0  0  0  0  0
  151.6507  144.3308  160.9260 H   0  0  0  0  0  0  0  0  0  0  0  0
  152.5680  142.3324  162.0595 H   0  0  0  0  0  0  0  0  0  0  0  0
  154.2004  142.5617  161.4056 H   0  0  0  0  0  0  0  0  0  0  0  0
  153.5821  140.9380  161.6994 H   0  0  0  0  0  0  0  0  0  0  0  0
  146.9092  142.6336  157.3529 H   0  0  0  0  0  0  0  0  0  0  0  0
  1  2  1  0  0  0  0
  1 25  1  0  0  0  0
  1 26  1  0  0  0  0
  1 27  1  0  0  0  0
  2  3  1  0  0  0  0
  3  4  1  0  0  0  0
  3 28  1  0  0  0  0
  3 29  1  0  0  0  0
  4  5  1  0  0  0  0
  4 30  1  0  0  0  0
  4 31  1  0  0  0  0
  5  6  1  0  0  0  0
  6 23  1  0  0  0  0
  6  7  2  0  0  0  0
  7  8  1  0  0  0  0
  7 32  1  0  0  0  0
  8  9  2  0  0  0  0
  8 33  1  0  0  0  0
  9 10  1  0  0  0  0
  9 22  1  0  0  0  0
 10 11  1  0  0  0  0
 10 34  1  0  0  0  0
 10 35  1  0  0  0  0
 11 12  1  0  0  0  0
 11 36  1  0  0  0  0
 12 13  2  0  0  0  0
 12 14  1  0  0  0  0
 14 24  1  0  0  0  0
 14 18  1  0  0  0  0
 14 15  1  0  0  0  0
 15 16  1  0  0  0  0
 15 37  1  0  0  0  0
 15 38  1  0  0  0  0
 16 17  1  0  0  0  0
 16 39  1  0  0  0  0
 16 40  1  0  0  0  0
 17 18  1  0  0  0  0
 17 41  1  0  0  0  0
 17 42  1  0  0  0  0
 18 19  1  0  0  0  0
 19 20  1  0  0  0  0
 19 21  2  0  0  0  0
 20 43  1  0  0  0  0
 20 44  1  0  0  0  0
 20 45  1  0  0  0  0
 22 23  2  0  0  0  0
 22 46  1  0  0  0  0
M  END
> <s_m_source_file>
AV-unprocessed.smi

> <i_m_source_file_index>
847

> <i_lp_mmshare_version>
43012

> <i_f3d_flags>
0

> <s_epik_input>
W0NIM11PW0NIMl1bQ0gyXU9jMVtjSF1bY0hdYyhbY0hdbjEpW0NIMl1bTkhdQyg9TylbQ0BASF0yW0NIMl1bQ0gyXVtDSDJdTjJDKD1PKVtDSDNd

> <s_epik_cmdline>
J2VwaWtfcHl0aG9uJywgJy1waCcsICc3LjAnLCAnLXRuJywgJzgnLCAnLW1hJywgJzIwMCcsICctbWV0YWxfYmluZGluZycsICctaW1hZScsICc8aW5maWxlLm1hZT4nLCAnLW9tYWUnLCAnPG91dGZpbGUubWFlPic=

> <r_lp_tautomer_probability>
1

> <r_epik_Ionization_Penalty>
6.04138e-05

> <r_epik_Ionization_Penalty_Charging>
0

> <r_epik_Ionization_Penalty_Neutral>
6.04138e-05

> <r_epik_State_Penalty>
-0

> <r_epik_Charging_Adjusted_Penalty>
0

> <i_epik_Tot_Q>
0

> <i_epik_Tot_abs_Q>
0

> <r_epik_Metal_State_Penalty>
-0

> <b_epik_Metal_Only>
0

> <s_lp_Force_Field>
OPLS_2005

> <r_lp_Energy>
14.1261

> <b_lp_Chiralities_Consistent>
1

> <s_lp_Variant>
AV-unprocessed.smi:847-2

> <Gold.Version>
5.8.1

> <Gold.Id.Protein>
6NUR|6NUR_protein|mol2

> <Gold.PLP.Fitness>
45.9886

> <Gold.PLP.PLP>
-45.6090

> <Gold.PLP.part.hbond>
-1.0000

> <Gold.PLP.part.metal>
0.0000

> <Gold.PLP.part.buried>
-2.7922

> <Gold.PLP.part.nonpolar>
-41.8237

> <Gold.PLP.part.repulsive>
0.3468

> <Gold.PLP.ligand.clash>
0.0000

> <Gold.PLP.ligand.torsion>
0.8173

> <Gold.PLP.Chemscore.Hbond>
0.6400

> <Gold.PLP.Chemscore.CHOScore>
0.0000

> <Gold.PLP.Chemscore.Metal>
0.0000

> <Gold.Chemscore.Hbonds>
donor molecule, donor type, donor heavy atom, donor atom, acceptor molecule, acceptor atom, score
      L1  H    11    36       P1  8028  0.34

> <Gold.PLP.Chemscore.Internal.Correction>
0.0941

> <Gold.Rescore>
     Score         DG    S(hbond)    S(metal)    S(lipo)     H(rot)  DE(clash)    DE(int)     intcor
      9.48     -14.44       0.99        0.00      98.88       2.31       0.27       4.69       ----

> <Gold.Chemscore.Fitness>
9.4843

> <Gold.Chemscore.DG>
-14.4404

> <Gold.Chemscore.ZeroCoef>
-5.4800

> <Gold.Chemscore.Hbond>
0.9868

> <Gold.Chemscore.Metal>
0.0000

> <Gold.Chemscore.Lipo>
98.8752

> <Gold.Chemscore.Internal_Hbond>
0.0000

> <Gold.Chemscore.DEClash>
0.2654

> <Gold.Chemscore.DEInternal>
4.6907

> <Gold.Chemscore.Rot>
2.3062

> <Gold.Chemscore.Internal.Correction>
   9.000000E+99

> <Gold.Chemscore.Hbonds>
donor molecule, donor type, donor heavy atom, donor atom, acceptor molecule, acceptor atom, score
      L1  H    11    36       P1  8028  0.33

> <Gold.Chemscore.Hbond.Weighted>
-3.2958

> <Gold.Chemscore.Metal.Weighted>
-0.0000

> <Gold.Chemscore.Lipo.Weighted>
-11.5684

> <Gold.Chemscore.Internal_Hbond.Weighted>
0.0000

> <Gold.Chemscore.DEClash.Weighted>
0.2654

> <Gold.Chemscore.DEInternal.Weighted>
4.6907

> <Gold.Chemscore.Rot.Weighted>
5.9038

> <Gold.Chemscore.Internal.Correction.Weighted>
   9.000000E+99

> <Gold.Protein.RotatedTorsions>
[ 6907 6896 6895 6894 ] final   17.56 input  -60.11 | X-H torsion
[ 7974 7965 7964 7962 ] final -178.23 input  175.53 | X-H torsion
[ 8008 7997 7996 7995 ] final -111.83 input   59.86 | X-H torsion
[ 10167 10162 10161 10158 ] final  -37.48 input  -65.29 | X-H torsion
[ 10718 10713 10712 10709 ] final   -7.20 input   66.30 | X-H torsion
[ 10763 10752 10751 10750 ] final   57.62 input  -60.55 | X-H torsion
[ 11005 11000 10999 10996 ] final -147.68 input  -57.11 | X-H torsion

> <Gold.Protein.ActiveResidues>
 VAL166  LYS551  ARG553  GLY616  TRP617  ASP618  TYR619  PRO620  LYS621  CYS622 
 ASP623  PHE694  ASN695  SER759  ASP760  ASP761  ALA762  ILE779  LEU786  VAL792 
 PHE793  MET794  SER795  GLU796  ALA797  LYS798  CYS799  TRP800  GLU811  SER814 

> <Gold.Protein.RotatedAtoms>
  151.8516  135.0556  160.0459 H   0  0  0  0  0  0  0  0  0  0  0  0  # atno 6907 bound_to 6896
  152.2732  133.5397  159.5460 H   0  0  0  0  0  0  0  0  0  0  0  0  # atno 6908 bound_to 6896
  150.7160  134.0585  159.3865 H   0  0  0  0  0  0  0  0  0  0  0  0  # atno 6909 bound_to 6896
  144.7130  140.0899  143.6422 H   0  0  0  0  0  0  0  0  0  0  0  0  # atno 7974 bound_to 7965
  154.9958  140.0394  157.2339 H   0  0  0  0  0  0  0  0  0  0  0  0  # atno 8008 bound_to 7997
  154.7588  140.2780  155.6209 H   0  0  0  0  0  0  0  0  0  0  0  0  # atno 8009 bound_to 7997
  156.2900  140.2632  156.2361 H   0  0  0  0  0  0  0  0  0  0  0  0  # atno 8010 bound_to 7997
  140.7117  143.3339  151.2507 H   0  0  0  0  0  0  0  0  0  0  0  0  # atno 10167 bound_to 10162
  156.7207  130.5150  149.5869 H   0  0  0  0  0  0  0  0  0  0  0  0  # atno 10718 bound_to 10713
  152.9854  135.5635  154.5421 H   0  0  0  0  0  0  0  0  0  0  0  0  # atno 10763 bound_to 10752
  154.4873  135.2791  155.1526 H   0  0  0  0  0  0  0  0  0  0  0  0  # atno 10764 bound_to 10752
  154.3010  135.6307  153.5478 H   0  0  0  0  0  0  0  0  0  0  0  0  # atno 10765 bound_to 10752
  140.7691  134.3209  157.5080 H   0  0  0  0  0  0  0  0  0  0  0  0  # atno 11005 bound_to 11000
  145.9629  139.2813  143.1145 LP  0  0  0  0  0  0  0  0  0  0  0  0  # atno 17320 bound_to 7965
  145.9201  140.9121  143.0409 LP  0  0  0  0  0  0  0  0  0  0  0  0  # atno 17321 bound_to 7965
  139.6829  143.9824  152.2818 LP  0  0  0  0  0  0  0  0  0  0  0  0  # atno 17342 bound_to 10162
  139.9460  144.6651  150.8219 LP  0  0  0  0  0  0  0  0  0  0  0  0  # atno 17343 bound_to 10162
  156.1596  130.6365  151.0702 LP  0  0  0  0  0  0  0  0  0  0  0  0  # atno 17370 bound_to 10713
  157.6899  131.0813  150.7137 LP  0  0  0  0  0  0  0  0  0  0  0  0  # atno 17371 bound_to 10713
  139.8758  134.9250  156.3363 LP  0  0  0  0  0  0  0  0  0  0  0  0  # atno 17394 bound_to 11000
  140.9590  133.7401  156.0376 LP  0  0  0  0  0  0  0  0  0  0  0  0  # atno 17395 bound_to 11000

$$$$
