AV-unprocessed.smi:1021|AV-procd|sdf|4455|dock4
  -GOLD-   22720 2423D 1   1.00000     0.00000
 Structure written by MMmdl.
 42 44  0  0  0  0  0  0  0  0  1 V2000
  151.2972  136.8386  154.4023 O   0  0  0  0  0  0  0  0  0  0  0  0
  151.0658  138.1872  154.0553 C   0  0  0  0  0  0  0  0  0  0  0  0
  151.6860  139.1277  155.0985 C   0  0  0  0  0  0  0  0  0  0  0  0
  150.8197  139.2953  156.3587 C   0  0  0  0  0  0  0  0  0  0  0  0
  151.2189  140.4892  157.1759 C   0  0  0  0  0  0  0  0  0  0  0  0
  151.0948  141.7279  156.6976 N   0  0  0  0  0  0  0  0  0  0  0  0
  151.5850  142.5051  157.7279 C   0  0  0  0  0  0  0  0  0  0  0  0
  151.7284  143.9074  157.8322 C   0  0  0  0  0  0  0  0  0  0  0  0
  152.2666  144.4851  159.0009 C   0  0  0  0  0  0  0  0  0  0  0  0
  152.6685  143.6707  160.0792 C   0  0  0  0  0  0  0  0  0  0  0  0
  152.5337  142.2716  159.9955 C   0  0  0  0  0  0  0  0  0  0  0  0
  151.9948  141.6992  158.8273 C   0  0  0  0  0  0  0  0  0  0  0  0
  151.7326  140.3908  158.4301 N   0  0  0  0  0  0  0  0  0  0  0  0
  151.9699  139.1933  159.2281 C   0  0  0  0  0  0  0  0  0  0  0  0
  153.4296  138.7016  159.1665 C   0  0  1  0  0  0  0  0  0  0  0  0
  154.3098  139.8079  159.1082 O   0  0  0  0  0  0  0  0  0  0  0  0
  153.7463  137.7704  160.3265 C   0  0  0  0  0  0  0  0  0  0  0  0
  154.0329  136.4106  160.0785 C   0  0  0  0  0  0  0  0  0  0  0  0
  154.3201  135.5391  161.1474 C   0  0  0  0  0  0  0  0  0  0  0  0
  154.3203  136.0217  162.4702 C   0  0  0  0  0  0  0  0  0  0  0  0
  154.5973  135.1839  163.4970 F   0  0  0  0  0  0  0  0  0  0  0  0
  154.0306  137.3759  162.7243 C   0  0  0  0  0  0  0  0  0  0  0  0
  153.7422  138.2476  161.6561 C   0  0  0  0  0  0  0  0  0  0  0  0
  150.6479  136.5747  155.0363 H   0  0  0  0  0  0  0  0  0  0  0  0
  151.4730  138.3843  153.0631 H   0  0  0  0  0  0  0  0  0  0  0  0
  149.9892  138.3492  153.9996 H   0  0  0  0  0  0  0  0  0  0  0  0
  152.6585  138.7274  155.3849 H   0  0  0  0  0  0  0  0  0  0  0  0
  151.8840  140.1017  154.6491 H   0  0  0  0  0  0  0  0  0  0  0  0
  149.7729  139.4108  156.0753 H   0  0  0  0  0  0  0  0  0  0  0  0
  150.8652  138.3892  156.9599 H   0  0  0  0  0  0  0  0  0  0  0  0
  151.4251  144.5392  157.0109 H   0  0  0  0  0  0  0  0  0  0  0  0
  152.3726  145.5578  159.0694 H   0  0  0  0  0  0  0  0  0  0  0  0
  153.0812  144.1202  160.9704 H   0  0  0  0  0  0  0  0  0  0  0  0
  152.8450  141.6462  160.8187 H   0  0  0  0  0  0  0  0  0  0  0  0
  151.6967  139.4080  160.2615 H   0  0  0  0  0  0  0  0  0  0  0  0
  151.2843  138.4108  158.9027 H   0  0  0  0  0  0  0  0  0  0  0  0
  153.5769  138.1423  158.2436 H   0  0  0  0  0  0  0  0  0  0  0  0
  155.0645  139.6191  159.6447 H   0  0  0  0  0  0  0  0  0  0  0  0
  154.0322  136.0302  159.0675 H   0  0  0  0  0  0  0  0  0  0  0  0
  154.5392  134.4998  160.9525 H   0  0  0  0  0  0  0  0  0  0  0  0
  154.0281  137.7464  163.7387 H   0  0  0  0  0  0  0  0  0  0  0  0
  153.5160  139.2835  161.8624 H   0  0  0  0  0  0  0  0  0  0  0  0
  1  2  1  0  0  0  0
  1 24  1  0  0  0  0
  2  3  1  0  0  0  0
  2 25  1  0  0  0  0
  2 26  1  0  0  0  0
  3  4  1  0  0  0  0
  3 27  1  0  0  0  0
  3 28  1  0  0  0  0
  4  5  1  0  0  0  0
  4 29  1  0  0  0  0
  4 30  1  0  0  0  0
  5 13  1  0  0  0  0
  5  6  2  0  0  0  0
  6  7  1  0  0  0  0
  7 12  2  0  0  0  0
  7  8  1  0  0  0  0
  8  9  2  0  0  0  0
  8 31  1  0  0  0  0
  9 10  1  0  0  0  0
  9 32  1  0  0  0  0
 10 11  2  0  0  0  0
 10 33  1  0  0  0  0
 11 12  1  0  0  0  0
 11 34  1  0  0  0  0
 12 13  1  0  0  0  0
 13 14  1  0  0  0  0
 14 15  1  0  0  0  0
 14 35  1  0  0  0  0
 14 36  1  0  0  0  0
 15 16  1  0  0  0  0
 15 17  1  0  0  0  0
 15 37  1  0  0  0  0
 16 38  1  0  0  0  0
 17 23  1  0  0  0  0
 17 18  2  0  0  0  0
 18 19  1  0  0  0  0
 18 39  1  0  0  0  0
 19 20  2  0  0  0  0
 19 40  1  0  0  0  0
 20 21  1  0  0  0  0
 20 22  1  0  0  0  0
 22 23  2  0  0  0  0
 22 41  1  0  0  0  0
 23 42  1  0  0  0  0
M  END
> <s_m_source_file>
AV-unprocessed.smi

> <i_m_source_file_index>
1021

> <i_lp_mmshare_version>
43012

> <i_f3d_flags>
0

> <s_epik_input>
W09IXVtDSDJdW0NIMl1bQ0gyXWMobjEpbihjKGMxMilbY0hdW2NIXVtjSF1bY0hdMilbQ0gyXVtDQEhdKFtPSF0pYzNbY0hdW2NIXWMoRilbY0hdW2NIXTM=

> <s_epik_cmdline>
J2VwaWtfcHl0aG9uJywgJy1waCcsICc3LjAnLCAnLXRuJywgJzgnLCAnLW1hJywgJzIwMCcsICctbWV0YWxfYmluZGluZycsICctaW1hZScsICc8aW5maWxlLm1hZT4nLCAnLW9tYWUnLCAnPG91dGZpbGUubWFlPic=

> <r_epik_Ionization_Penalty>
0.182562

> <r_epik_Ionization_Penalty_Charging>
0

> <r_epik_Ionization_Penalty_Neutral>
0.182562

> <r_epik_State_Penalty>
0.172086

> <r_epik_Charging_Adjusted_Penalty>
0.172086

> <i_epik_Tot_Q>
0

> <i_epik_Tot_abs_Q>
0

> <r_epik_Metal_State_Penalty>
0.000199649

> <b_epik_Metal_Only>
0

> <s_lp_Force_Field>
OPLS_2005

> <r_lp_Energy>
11.397

> <b_lp_Chiralities_Consistent>
1

> <s_lp_Variant>
AV-unprocessed.smi:1021-2

> <Gold.Version>
5.8.1

> <Gold.Id.Protein>
6NUR|6NUR_protein|mol2

> <Gold.PLP.Fitness>
53.4947

> <Gold.PLP.PLP>
-48.8917

> <Gold.PLP.part.hbond>
-2.8073

> <Gold.PLP.part.metal>
0.0000

> <Gold.PLP.part.buried>
-5.9323

> <Gold.PLP.part.nonpolar>
-40.1425

> <Gold.PLP.part.repulsive>
0.0544

> <Gold.PLP.ligand.clash>
0.0000

> <Gold.PLP.ligand.torsion>
0.7570

> <Gold.PLP.Chemscore.Hbond>
2.0000

> <Gold.PLP.Chemscore.CHOScore>
0.0000

> <Gold.PLP.Chemscore.Metal>
0.0000

> <Gold.Chemscore.Hbonds>
donor molecule, donor type, donor heavy atom, donor atom, acceptor molecule, acceptor atom, score
      P1  H  7997  8010       L1    16  0.94
      P1  H 10752 10764       L1     1  1.00

> <Gold.PLP.Chemscore.Internal.Correction>
0.1169

> <Gold.Rescore>
     Score         DG    S(hbond)    S(metal)    S(lipo)     H(rot)  DE(clash)    DE(int)     intcor
     17.92     -18.91       1.71        0.00     133.24       3.07       0.24       0.76       ----

> <Gold.Chemscore.Fitness>
17.9163

> <Gold.Chemscore.DG>
-18.9115

> <Gold.Chemscore.ZeroCoef>
-5.4800

> <Gold.Chemscore.Hbond>
1.7103

> <Gold.Chemscore.Metal>
0.0000

> <Gold.Chemscore.Lipo>
133.2381

> <Gold.Chemscore.Internal_Hbond>
0.0000

> <Gold.Chemscore.DEClash>
0.2356

> <Gold.Chemscore.DEInternal>
0.7596

> <Gold.Chemscore.Rot>
3.0741

> <Gold.Chemscore.Internal.Correction>
   9.000000E+99

> <Gold.Chemscore.Hbonds>
donor molecule, donor type, donor heavy atom, donor atom, acceptor molecule, acceptor atom, score
      P1  H  7997  8010       L1    16  0.17
      P1  H 10752 10764       L1     1  0.86

> <Gold.Chemscore.Hbond.Weighted>
-5.7125

> <Gold.Chemscore.Metal.Weighted>
-0.0000

> <Gold.Chemscore.Lipo.Weighted>
-15.5889

> <Gold.Chemscore.Internal_Hbond.Weighted>
0.0000

> <Gold.Chemscore.DEClash.Weighted>
0.2356

> <Gold.Chemscore.DEInternal.Weighted>
0.7596

> <Gold.Chemscore.Rot.Weighted>
7.8698

> <Gold.Chemscore.Internal.Correction.Weighted>
   9.000000E+99

> <Gold.Protein.RotatedTorsions>
[ 6907 6896 6895 6894 ] final   -8.50 input  -60.11 | X-H torsion
[ 7974 7965 7964 7962 ] final   25.76 input  175.53 | X-H torsion
[ 8008 7997 7996 7995 ] final   -7.12 input   59.86 | X-H torsion
[ 10167 10162 10161 10158 ] final  -67.03 input  -65.29 | X-H torsion
[ 10718 10713 10712 10709 ] final  139.11 input   66.30 | X-H torsion
[ 10763 10752 10751 10750 ] final  -75.24 input  -60.55 | X-H torsion
[ 11005 11000 10999 10996 ] final   95.80 input  -57.11 | X-H torsion

> <Gold.Protein.ActiveResidues>
 VAL166  LYS551  ARG553  GLY616  TRP617  ASP618  TYR619  PRO620  LYS621  CYS622 
 ASP623  PHE694  ASN695  SER759  ASP760  ASP761  ALA762  ILE779  LEU786  VAL792 
 PHE793  MET794  SER795  GLU796  ALA797  LYS798  CYS799  TRP800  GLU811  SER814 

> <Gold.Protein.RotatedAtoms>
  151.4327  135.1011  159.9646 H   0  0  0  0  0  0  0  0  0  0  0  0  # atno 6907 bound_to 6896
  152.4950  133.8602  159.7257 H   0  0  0  0  0  0  0  0  0  0  0  0  # atno 6908 bound_to 6896
  150.9143  133.6900  159.2875 H   0  0  0  0  0  0  0  0  0  0  0  0  # atno 6909 bound_to 6896
  146.1872  139.7422  142.8858 H   0  0  0  0  0  0  0  0  0  0  0  0  # atno 7974 bound_to 7965
  154.5869  140.2415  155.7974 H   0  0  0  0  0  0  0  0  0  0  0  0  # atno 8008 bound_to 7997
  156.2220  140.2994  155.9930 H   0  0  0  0  0  0  0  0  0  0  0  0  # atno 8009 bound_to 7997
  155.2441  140.0408  157.2969 H   0  0  0  0  0  0  0  0  0  0  0  0  # atno 8010 bound_to 7997
  140.5613  143.2313  151.6722 H   0  0  0  0  0  0  0  0  0  0  0  0  # atno 10167 bound_to 10162
  157.4180  131.1035  151.0384 H   0  0  0  0  0  0  0  0  0  0  0  0  # atno 10718 bound_to 10713
  154.4839  135.5837  153.6410 H   0  0  0  0  0  0  0  0  0  0  0  0  # atno 10763 bound_to 10752
  152.9852  135.6096  154.3211 H   0  0  0  0  0  0  0  0  0  0  0  0  # atno 10764 bound_to 10752
  154.3104  135.2845  155.2548 H   0  0  0  0  0  0  0  0  0  0  0  0  # atno 10765 bound_to 10752
  139.8786  134.8918  156.4065 H   0  0  0  0  0  0  0  0  0  0  0  0  # atno 11005 bound_to 11000
  145.3902  141.0371  143.3128 LP  0  0  0  0  0  0  0  0  0  0  0  0  # atno 17320 bound_to 7965
  144.8420  139.5457  143.6896 LP  0  0  0  0  0  0  0  0  0  0  0  0  # atno 17321 bound_to 7965
  139.5071  144.3656  152.0520 LP  0  0  0  0  0  0  0  0  0  0  0  0  # atno 17342 bound_to 10162
  140.2783  144.3888  150.6127 LP  0  0  0  0  0  0  0  0  0  0  0  0  # atno 17343 bound_to 10162
  157.1324  130.6108  149.5533 LP  0  0  0  0  0  0  0  0  0  0  0  0  # atno 17370 bound_to 10713
  155.9871  130.4909  150.7111 LP  0  0  0  0  0  0  0  0  0  0  0  0  # atno 17371 bound_to 10713
  140.9230  133.7631  155.9930 LP  0  0  0  0  0  0  0  0  0  0  0  0  # atno 17394 bound_to 11000
  140.8417  134.3058  157.5310 LP  0  0  0  0  0  0  0  0  0  0  0  0  # atno 17395 bound_to 11000

$$$$
