AV-unprocessed.smi:699|AV-procd|sdf|3404|dock1
  -GOLD-   22720 0383D 1   1.00000     0.00000
 Structure written by MMmdl.
 35 36  0  0  0  0  0  0  0  0  2 V2000
  147.1383  134.5544  152.7363 N   0  0  0  0  0  0  0  0  0  0  0  0
  146.5604  133.8541  151.7571 C   0  0  0  0  0  0  0  0  0  0  0  0
  146.8504  132.6784  151.5412 O   0  0  0  0  0  0  0  0  0  0  0  0
  145.4968  134.5853  150.9090 C   0  0  1  0  0  0  0  0  0  0  0  0
  144.1173  133.9323  151.0804 C   0  0  0  0  0  0  0  0  0  0  0  0
  143.4761  134.6250  152.2855 C   0  0  0  0  0  0  0  0  0  0  0  0
  144.0695  136.0390  152.3204 C   0  0  0  0  0  0  0  0  0  0  0  0
  145.2318  136.0622  151.3088 C   0  0  1  0  0  0  0  0  0  0  0  0
  146.3920  136.7723  151.8513 N   0  0  0  0  0  0  0  0  0  0  0  0
  146.3435  137.9541  152.4824 C   0  0  0  0  0  0  0  0  0  0  0  0
  145.2976  138.5694  152.6879 O   0  0  0  0  0  0  0  0  0  0  0  0
  147.5705  138.3560  152.8567 N   0  0  0  0  0  0  0  0  0  0  0  0
  147.9512  139.5524  153.5240 C   0  0  0  0  0  0  0  0  0  0  0  0
  147.0762  140.6574  153.4283 C   0  0  0  0  0  0  0  0  0  0  0  0
  147.4013  141.8623  154.0840 C   0  0  0  0  0  0  0  0  0  0  0  0
  148.5397  141.9494  154.8046 N   0  3  0  0  0  0  0  0  0  0  0  0
  149.4004  140.9175  154.9365 C   0  0  0  0  0  0  0  0  0  0  0  0
  149.1284  139.6874  154.3040 C   0  0  0  0  0  0  0  0  0  0  0  0
  147.8456  134.1210  153.3119 H   0  0  0  0  0  0  0  0  0  0  0  0
  146.8733  135.5161  152.8930 H   0  0  0  0  0  0  0  0  0  0  0  0
  145.8030  134.5371  149.8626 H   0  0  0  0  0  0  0  0  0  0  0  0
  143.5180  134.1225  150.1891 H   0  0  0  0  0  0  0  0  0  0  0  0
  144.1636  132.8497  151.2084 H   0  0  0  0  0  0  0  0  0  0  0  0
  142.3878  134.6354  152.2178 H   0  0  0  0  0  0  0  0  0  0  0  0
  143.7381  134.0939  153.2014 H   0  0  0  0  0  0  0  0  0  0  0  0
  143.3197  136.7838  152.0520 H   0  0  0  0  0  0  0  0  0  0  0  0
  144.4037  136.2730  153.3322 H   0  0  0  0  0  0  0  0  0  0  0  0
  144.8842  136.5938  150.4207 H   0  0  0  0  0  0  0  0  0  0  0  0
  147.2923  136.3341  151.7210 H   0  0  0  0  0  0  0  0  0  0  0  0
  148.3197  137.7026  152.6808 H   0  0  0  0  0  0  0  0  0  0  0  0
  146.1638  140.5876  152.8535 H   0  0  0  0  0  0  0  0  0  0  0  0
  146.7884  142.7514  154.0553 H   0  0  0  0  0  0  0  0  0  0  0  0
  150.2733  141.1032  155.5453 H   0  0  0  0  0  0  0  0  0  0  0  0
  149.8220  138.8723  154.4411 H   0  0  0  0  0  0  0  0  0  0  0  0
  148.7564  142.8297  155.2730 H   0  0  0  0  0  0  0  0  0  0  0  0
  1  2  1  0  0  0  0
  1 19  1  0  0  0  0
  1 20  1  0  0  0  0
  2  3  2  0  0  0  0
  2  4  1  0  0  0  0
  4  8  1  0  0  0  0
  4  5  1  0  0  0  0
  4 21  1  0  0  0  0
  5  6  1  0  0  0  0
  5 22  1  0  0  0  0
  5 23  1  0  0  0  0
  6  7  1  0  0  0  0
  6 24  1  0  0  0  0
  6 25  1  0  0  0  0
  7  8  1  0  0  0  0
  7 26  1  0  0  0  0
  7 27  1  0  0  0  0
  8  9  1  0  0  0  0
  8 28  1  0  0  0  0
  9 10  1  0  0  0  0
  9 29  1  0  0  0  0
 10 11  2  0  0  0  0
 10 12  1  0  0  0  0
 12 13  1  0  0  0  0
 12 30  1  0  0  0  0
 13 18  1  0  0  0  0
 13 14  2  0  0  0  0
 14 15  1  0  0  0  0
 14 31  1  0  0  0  0
 15 16  2  0  0  0  0
 15 32  1  0  0  0  0
 16 17  1  0  0  0  0
 16 35  1  0  0  0  0
 17 18  2  0  0  0  0
 17 33  1  0  0  0  0
 18 34  1  0  0  0  0
M  CHG  1  16   1
M  END
> <s_m_source_file>
AV-unprocessed.smi

> <i_m_source_file_index>
699

> <i_lp_mmshare_version>
43012

> <i_f3d_flags>
0

> <s_epik_input>
W05IMl1DKD1PKVtDQEBIXTFbQ0gyXVtDSDJdW0NIMl1bQ0BIXTFbTkhdQyg9TylbTkhdYzJbY0hdW2NIXW5bY0hdW2NIXTI=

> <s_epik_cmdline>
J2VwaWtfcHl0aG9uJywgJy1waCcsICc3LjAnLCAnLXRuJywgJzgnLCAnLW1hJywgJzIwMCcsICctbWV0YWxfYmluZGluZycsICctaW1hZScsICc8aW5maWxlLm1hZT4nLCAnLW9tYWUnLCAnPG91dGZpbGUubWFlPic=

> <r_epik_Ionization_Penalty>
1.0332

> <r_epik_Ionization_Penalty_Charging>
1.03318

> <r_epik_Ionization_Penalty_Neutral>
1.91967e-05

> <r_epik_State_Penalty>
1.08452

> <r_epik_Charging_Adjusted_Penalty>
2.11769

> <i_epik_Tot_Q>
1

> <i_epik_Tot_abs_Q>
1

> <r_epik_Metal_State_Penalty>
1.18144

> <b_epik_Metal_Only>
0

> <s_lp_Force_Field>
OPLS_2005

> <r_lp_Energy>
24.8241

> <b_lp_Chiralities_Consistent>
1

> <s_lp_Variant>
AV-unprocessed.smi:699-6

> <Gold.Version>
5.8.1

> <Gold.Id.Protein>
6NUR|6NUR_protein|mol2

> <Gold.PLP.Fitness>
41.1244

> <Gold.PLP.PLP>
-29.6850

> <Gold.PLP.part.hbond>
-4.7978

> <Gold.PLP.part.metal>
0.0000

> <Gold.PLP.part.buried>
-3.4033

> <Gold.PLP.part.nonpolar>
-27.2694

> <Gold.PLP.part.repulsive>
4.8126

> <Gold.PLP.ligand.clash>
0.0000

> <Gold.PLP.ligand.torsion>
0.2880

> <Gold.PLP.Chemscore.Hbond>
4.0000

> <Gold.PLP.Chemscore.CHOScore>
0.0000

> <Gold.PLP.Chemscore.Metal>
0.0000

> <Gold.Chemscore.Hbonds>
donor molecule, donor type, donor heavy atom, donor atom, acceptor molecule, acceptor atom, score
      L1  H     9    29       P1  7948  1.00
      L1  H    12    30       P1  7948  1.00
      L1  H    16    35       P1  8028  2.00

> <Gold.PLP.Chemscore.Internal.Correction>
0.0155

> <Gold.Rescore>
     Score         DG    S(hbond)    S(metal)    S(lipo)     H(rot)  DE(clash)    DE(int)     intcor
     11.60     -18.43       2.90        0.00      60.75       1.50       2.07       4.76       ----

> <Gold.Chemscore.Fitness>
11.5951

> <Gold.Chemscore.DG>
-18.4251

> <Gold.Chemscore.ZeroCoef>
-5.4800

> <Gold.Chemscore.Hbond>
2.9003

> <Gold.Chemscore.Metal>
0.0000

> <Gold.Chemscore.Lipo>
60.7491

> <Gold.Chemscore.Internal_Hbond>
0.0000

> <Gold.Chemscore.DEClash>
2.0651

> <Gold.Chemscore.DEInternal>
4.7649

> <Gold.Chemscore.Rot>
1.5038

> <Gold.Chemscore.Internal.Correction>
   9.000000E+99

> <Gold.Chemscore.Hbonds>
donor molecule, donor type, donor heavy atom, donor atom, acceptor molecule, acceptor atom, score
      L1  H     9    29       P1  7948  0.98
      L1  H    12    30       P1  7948  0.95
      L1  H    16    35       P1  8028  0.99

> <Gold.Chemscore.Hbond.Weighted>
-9.6871

> <Gold.Chemscore.Metal.Weighted>
-0.0000

> <Gold.Chemscore.Lipo.Weighted>
-7.1076

> <Gold.Chemscore.Internal_Hbond.Weighted>
0.0000

> <Gold.Chemscore.DEClash.Weighted>
2.0651

> <Gold.Chemscore.DEInternal.Weighted>
4.7649

> <Gold.Chemscore.Rot.Weighted>
3.8496

> <Gold.Chemscore.Internal.Correction.Weighted>
   9.000000E+99

> <Gold.Protein.RotatedTorsions>
[ 6907 6896 6895 6894 ] final -171.84 input  -60.11 | X-H torsion
[ 7974 7965 7964 7962 ] final   88.83 input  175.53 | X-H torsion
[ 8008 7997 7996 7995 ] final  112.30 input   59.86 | X-H torsion
[ 10167 10162 10161 10158 ] final   76.58 input  -65.29 | X-H torsion
[ 10718 10713 10712 10709 ] final  124.69 input   66.30 | X-H torsion
[ 10763 10752 10751 10750 ] final  -14.09 input  -60.55 | X-H torsion
[ 11005 11000 10999 10996 ] final  140.12 input  -57.11 | X-H torsion

> <Gold.Protein.ActiveResidues>
 VAL166  LYS551  ARG553  GLY616  TRP617  ASP618  TYR619  PRO620  LYS621  CYS622 
 ASP623  PHE694  ASN695  SER759  ASP760  ASP761  ALA762  ILE779  LEU786  VAL792 
 PHE793  MET794  SER795  GLU796  ALA797  LYS798  CYS799  TRP800  GLU811  SER814 

> <Gold.Protein.RotatedAtoms>
  151.5304  133.3450  159.2916 H   0  0  0  0  0  0  0  0  0  0  0  0  # atno 6907 bound_to 6896
  150.8597  134.7948  159.7084 H   0  0  0  0  0  0  0  0  0  0  0  0  # atno 6908 bound_to 6896
  152.4620  134.5171  159.9823 H   0  0  0  0  0  0  0  0  0  0  0  0  # atno 6909 bound_to 6896
  145.5405  139.2288  143.2568 H   0  0  0  0  0  0  0  0  0  0  0  0  # atno 7974 bound_to 7965
  156.2183  140.3002  155.9891 H   0  0  0  0  0  0  0  0  0  0  0  0  # atno 8008 bound_to 7997
  155.2548  140.0427  157.3008 H   0  0  0  0  0  0  0  0  0  0  0  0  # atno 8009 bound_to 7997
  154.5801  140.2373  155.8074 H   0  0  0  0  0  0  0  0  0  0  0  0  # atno 8010 bound_to 7997
  139.9907  144.5759  150.7820 H   0  0  0  0  0  0  0  0  0  0  0  0  # atno 10167 bound_to 10162
  157.5565  131.1092  150.8613 H   0  0  0  0  0  0  0  0  0  0  0  0  # atno 10718 bound_to 10713
  153.5231  135.7015  153.5721 H   0  0  0  0  0  0  0  0  0  0  0  0  # atno 10763 bound_to 10752
  153.3762  135.3932  155.1824 H   0  0  0  0  0  0  0  0  0  0  0  0  # atno 10764 bound_to 10752
  154.8692  135.3824  154.4721 H   0  0  0  0  0  0  0  0  0  0  0  0  # atno 10765 bound_to 10752
  140.0304  134.9354  157.0651 H   0  0  0  0  0  0  0  0  0  0  0  0  # atno 11005 bound_to 11000
  146.1984  140.6224  142.9113 LP  0  0  0  0  0  0  0  0  0  0  0  0  # atno 17320 bound_to 7965
  144.7580  140.5353  143.6755 LP  0  0  0  0  0  0  0  0  0  0  0  0  # atno 17321 bound_to 7965
  140.7455  143.2877  151.3417 LP  0  0  0  0  0  0  0  0  0  0  0  0  # atno 17342 bound_to 10162
  139.6342  144.0663  152.2502 LP  0  0  0  0  0  0  0  0  0  0  0  0  # atno 17343 bound_to 10162
  156.9123  130.5285  149.5280 LP  0  0  0  0  0  0  0  0  0  0  0  0  # atno 17370 bound_to 10713
  156.0623  130.5673  150.9217 LP  0  0  0  0  0  0  0  0  0  0  0  0  # atno 17371 bound_to 10713
  140.4235  134.1855  155.7165 LP  0  0  0  0  0  0  0  0  0  0  0  0  # atno 17394 bound_to 11000
  141.1827  133.8378  157.1198 LP  0  0  0  0  0  0  0  0  0  0  0  0  # atno 17395 bound_to 11000

$$$$
