AV-unprocessed.smi:765|AV-procd|sdf|3650|dock6
  -GOLD-   22720 1 53D 1   1.00000     0.00000
 Structure written by MMmdl.
 39 40  0  0  0  0  0  0  0  0  1 V2000
  149.8482  138.6121  154.4771 C   0  0  0  0  0  0  0  0  0  0  0  0
  149.3494  140.0119  154.8608 C   0  0  1  0  0  0  0  0  0  0  0  0
  148.4462  140.6082  153.7662 C   0  0  0  0  0  0  0  0  0  0  0  0
  147.9341  142.0037  154.1514 C   0  0  0  0  0  0  0  0  0  0  0  0
  147.2201  141.9802  155.5153 C   0  0  0  0  0  0  0  0  0  0  0  0
  148.1052  141.4012  156.6411 C   0  0  2  0  0  0  0  0  0  0  0  0
  147.2952  141.2963  157.8694 C   0  0  0  0  0  0  0  0  0  0  0  0
  146.6585  141.2150  158.8324 N   0  0  0  0  0  0  0  0  0  0  0  0
  149.2369  142.3099  156.8430 N   0  0  0  0  0  0  0  0  0  0  0  0
  150.2606  142.1569  157.6997 C   0  0  0  0  0  0  0  0  0  0  0  0
  150.3050  141.2658  158.5481 O   0  0  0  0  0  0  0  0  0  0  0  0
  151.4214  143.1512  157.5345 C   0  0  1  0  0  0  0  0  0  0  0  0
  151.2556  144.0800  156.3143 C   0  0  0  0  0  0  0  0  0  0  0  0
  151.6089  143.9037  158.7712 N   0  0  0  0  0  0  0  0  0  0  0  0
  151.6459  145.2739  158.9353 C   0  0  0  0  0  0  0  0  0  0  0  0
  151.9016  145.5235  160.2531 C   0  0  0  0  0  0  0  0  0  0  0  0
  152.0173  144.2270  160.8263 C   0  0  0  0  0  0  0  0  0  0  0  0
  151.8483  143.2613  159.9386 N   0  0  0  0  0  0  0  0  0  0  0  0
  148.6062  139.9975  156.2143 C   0  0  0  0  0  0  0  0  0  0  0  0
  149.0199  137.9131  154.3585 H   0  0  0  0  0  0  0  0  0  0  0  0
  150.5165  138.2117  155.2398 H   0  0  0  0  0  0  0  0  0  0  0  0
  150.4003  138.6373  153.5372 H   0  0  0  0  0  0  0  0  0  0  0  0
  150.2298  140.6487  154.9564 H   0  0  0  0  0  0  0  0  0  0  0  0
  148.9909  140.6671  152.8231 H   0  0  0  0  0  0  0  0  0  0  0  0
  147.5961  139.9475  153.5900 H   0  0  0  0  0  0  0  0  0  0  0  0
  148.7686  142.7053  154.1777 H   0  0  0  0  0  0  0  0  0  0  0  0
  147.2521  142.3706  153.3840 H   0  0  0  0  0  0  0  0  0  0  0  0
  146.8914  142.9871  155.7761 H   0  0  0  0  0  0  0  0  0  0  0  0
  146.3119  141.3816  155.4273 H   0  0  0  0  0  0  0  0  0  0  0  0
  149.2940  143.0855  156.1996 H   0  0  0  0  0  0  0  0  0  0  0  0
  152.3256  142.5618  157.3741 H   0  0  0  0  0  0  0  0  0  0  0  0
  151.1879  143.5065  155.3893 H   0  0  0  0  0  0  0  0  0  0  0  0
  152.1094  144.7514  156.2193 H   0  0  0  0  0  0  0  0  0  0  0  0
  150.3584  144.6959  156.3879 H   0  0  0  0  0  0  0  0  0  0  0  0
  151.4936  145.9516  158.1084 H   0  0  0  0  0  0  0  0  0  0  0  0
  151.9969  146.4856  160.7339 H   0  0  0  0  0  0  0  0  0  0  0  0
  152.2219  143.9600  161.8526 H   0  0  0  0  0  0  0  0  0  0  0  0
  147.7526  139.3215  156.1446 H   0  0  0  0  0  0  0  0  0  0  0  0
  149.2514  139.5742  156.9847 H   0  0  0  0  0  0  0  0  0  0  0  0
  1  2  1  0  0  0  0
  1 20  1  0  0  0  0
  1 21  1  0  0  0  0
  1 22  1  0  0  0  0
  2 19  1  0  0  0  0
  2  3  1  0  0  0  0
  2 23  1  0  0  0  0
  3  4  1  0  0  0  0
  3 24  1  0  0  0  0
  3 25  1  0  0  0  0
  4  5  1  0  0  0  0
  4 26  1  0  0  0  0
  4 27  1  0  0  0  0
  5  6  1  0  0  0  0
  5 28  1  0  0  0  0
  5 29  1  0  0  0  0
  6  7  1  0  0  0  0
  6  9  1  0  0  0  0
  6 19  1  0  0  0  0
  7  8  3  0  0  0  0
  9 10  1  0  0  0  0
  9 30  1  0  0  0  0
 10 11  2  0  0  0  0
 10 12  1  0  0  0  0
 12 13  1  0  0  0  0
 12 14  1  0  0  0  0
 12 31  1  0  0  0  0
 13 32  1  0  0  0  0
 13 33  1  0  0  0  0
 13 34  1  0  0  0  0
 14 18  1  0  0  0  0
 14 15  1  0  0  0  0
 15 16  2  0  0  0  0
 15 35  1  0  0  0  0
 16 17  1  0  0  0  0
 16 36  1  0  0  0  0
 17 18  2  0  0  0  0
 17 37  1  0  0  0  0
 19 38  1  0  0  0  0
 19 39  1  0  0  0  0
M  END
> <s_m_source_file>
AV-unprocessed.smi

> <i_m_source_file_index>
765

> <i_lp_mmshare_version>
43012

> <i_f3d_flags>
0

> <s_epik_input>
W0NIM11bQ0BASF0oW0NIMl0xKVtDSDJdW0NIMl1bQ0gyXVtDQEBdMShDI04pW05IXUMoPU8pW0NASF0oW0NIM10pbjJbY0hdW2NIXVtjSF1uMg==

> <s_epik_cmdline>
J2VwaWtfcHl0aG9uJywgJy1waCcsICc3LjAnLCAnLXRuJywgJzgnLCAnLW1hJywgJzIwMCcsICctbWV0YWxfYmluZGluZycsICctaW1hZScsICc8aW5maWxlLm1hZT4nLCAnLW9tYWUnLCAnPG91dGZpbGUubWFlPic=

> <r_lp_tautomer_probability>
1

> <r_epik_Ionization_Penalty>
2.71142e-05

> <r_epik_Ionization_Penalty_Charging>
0

> <r_epik_Ionization_Penalty_Neutral>
2.71142e-05

> <r_epik_State_Penalty>
-0

> <r_epik_Charging_Adjusted_Penalty>
0

> <i_epik_Tot_Q>
0

> <i_epik_Tot_abs_Q>
0

> <r_epik_Metal_State_Penalty>
-0

> <b_epik_Metal_Only>
0

> <s_lp_Force_Field>
OPLS_2005

> <r_lp_Energy>
11.0403

> <b_lp_Chiralities_Consistent>
1

> <s_lp_Variant>
AV-unprocessed.smi:765-8

> <Gold.Version>
5.8.1

> <Gold.Id.Protein>
6NUR|6NUR_protein|mol2

> <Gold.PLP.Fitness>
38.4451

> <Gold.PLP.PLP>
-34.3892

> <Gold.PLP.part.hbond>
-2.0000

> <Gold.PLP.part.metal>
0.0000

> <Gold.PLP.part.buried>
2.4598

> <Gold.PLP.part.nonpolar>
-34.0376

> <Gold.PLP.part.repulsive>
0.0393

> <Gold.PLP.ligand.clash>
0.4938

> <Gold.PLP.ligand.torsion>
0.0792

> <Gold.PLP.Chemscore.Hbond>
1.5360

> <Gold.PLP.Chemscore.CHOScore>
0.0000

> <Gold.PLP.Chemscore.Metal>
0.0000

> <Gold.Chemscore.Hbonds>
donor molecule, donor type, donor heavy atom, donor atom, acceptor molecule, acceptor atom, score
      L1  H     9    30       P1  8028  1.00
      P1  H  6934  6946       L1     8  0.46

> <Gold.PLP.Chemscore.Internal.Correction>
0.1001

> <Gold.Rescore>
     Score         DG    S(hbond)    S(metal)    S(lipo)     H(rot)  DE(clash)    DE(int)     intcor
     15.25     -18.23       1.82        0.00      88.07       1.42       1.64       1.34       ----

> <Gold.Chemscore.Fitness>
15.2498

> <Gold.Chemscore.DG>
-18.2287

> <Gold.Chemscore.ZeroCoef>
-5.4800

> <Gold.Chemscore.Hbond>
1.8191

> <Gold.Chemscore.Metal>
0.0000

> <Gold.Chemscore.Lipo>
88.0676

> <Gold.Chemscore.Internal_Hbond>
0.0000

> <Gold.Chemscore.DEClash>
1.6354

> <Gold.Chemscore.DEInternal>
1.3435

> <Gold.Chemscore.Rot>
1.4183

> <Gold.Chemscore.Internal.Correction>
   9.000000E+99

> <Gold.Chemscore.Hbonds>
donor molecule, donor type, donor heavy atom, donor atom, acceptor molecule, acceptor atom, score
      L1  H     9    30       P1  8028  0.97
      P1  H  6934  6946       L1     8  0.46

> <Gold.Chemscore.Hbond.Weighted>
-6.0757

> <Gold.Chemscore.Metal.Weighted>
-0.0000

> <Gold.Chemscore.Lipo.Weighted>
-10.3039

> <Gold.Chemscore.Internal_Hbond.Weighted>
0.0000

> <Gold.Chemscore.DEClash.Weighted>
1.6354

> <Gold.Chemscore.DEInternal.Weighted>
1.3435

> <Gold.Chemscore.Rot.Weighted>
3.6309

> <Gold.Chemscore.Internal.Correction.Weighted>
   9.000000E+99

> <Gold.Protein.RotatedTorsions>
[ 6907 6896 6895 6894 ] final   57.90 input  -60.11 | X-H torsion
[ 7974 7965 7964 7962 ] final -147.50 input  175.53 | X-H torsion
[ 8008 7997 7996 7995 ] final -151.84 input   59.86 | X-H torsion
[ 10167 10162 10161 10158 ] final   -0.55 input  -65.29 | X-H torsion
[ 10718 10713 10712 10709 ] final  -95.66 input   66.30 | X-H torsion
[ 10763 10752 10751 10750 ] final  -61.99 input  -60.55 | X-H torsion
[ 11005 11000 10999 10996 ] final  135.51 input  -57.11 | X-H torsion

> <Gold.Protein.ActiveResidues>
 VAL166  LYS551  ARG553  GLY616  TRP617  ASP618  TYR619  PRO620  LYS621  CYS622 
 ASP623  PHE694  ASN695  SER759  ASP760  ASP761  ALA762  ILE779  LEU786  VAL792 
 PHE793  MET794  SER795  GLU796  ALA797  LYS798  CYS799  TRP800  GLU811  SER814 

> <Gold.Protein.RotatedAtoms>
  152.3774  134.6642  160.0154 H   0  0  0  0  0  0  0  0  0  0  0  0  # atno 6907 bound_to 6896
  151.6916  133.3305  159.3252 H   0  0  0  0  0  0  0  0  0  0  0  0  # atno 6908 bound_to 6896
  150.7720  134.6629  159.6394 H   0  0  0  0  0  0  0  0  0  0  0  0  # atno 6909 bound_to 6896
  144.8089  140.5318  143.5656 H   0  0  0  0  0  0  0  0  0  0  0  0  # atno 7974 bound_to 7965
  155.6457  140.0706  157.2604 H   0  0  0  0  0  0  0  0  0  0  0  0  # atno 8008 bound_to 7997
  154.4174  140.1742  156.1670 H   0  0  0  0  0  0  0  0  0  0  0  0  # atno 8009 bound_to 7997
  155.9819  140.3353  155.6674 H   0  0  0  0  0  0  0  0  0  0  0  0  # atno 8010 bound_to 7997
  140.6772  143.6881  150.8050 H   0  0  0  0  0  0  0  0  0  0  0  0  # atno 10167 bound_to 10162
  156.0047  130.5118  150.6109 H   0  0  0  0  0  0  0  0  0  0  0  0  # atno 10718 bound_to 10713
  154.2931  135.6249  153.5393 H   0  0  0  0  0  0  0  0  0  0  0  0  # atno 10763 bound_to 10752
  152.9850  135.5660  154.5368 H   0  0  0  0  0  0  0  0  0  0  0  0  # atno 10764 bound_to 10752
  154.4983  135.2870  155.1417 H   0  0  0  0  0  0  0  0  0  0  0  0  # atno 10765 bound_to 10752
  139.9985  134.9488  157.0018 H   0  0  0  0  0  0  0  0  0  0  0  0  # atno 11005 bound_to 11000
  145.5371  139.1475  143.3467 LP  0  0  0  0  0  0  0  0  0  0  0  0  # atno 17320 bound_to 7965
  146.2385  140.5511  142.8944 LP  0  0  0  0  0  0  0  0  0  0  0  0  # atno 17321 bound_to 7965
  140.0576  143.5187  152.2643 LP  0  0  0  0  0  0  0  0  0  0  0  0  # atno 17342 bound_to 10162
  139.6072  144.7599  151.3035 LP  0  0  0  0  0  0  0  0  0  0  0  0  # atno 17343 bound_to 10162
  157.3942  131.0800  151.1367 LP  0  0  0  0  0  0  0  0  0  0  0  0  # atno 17370 bound_to 10713
  157.2049  130.6411  149.5752 LP  0  0  0  0  0  0  0  0  0  0  0  0  # atno 17371 bound_to 10713
  140.4773  134.1325  155.7211 LP  0  0  0  0  0  0  0  0  0  0  0  0  # atno 17394 bound_to 11000
  141.1623  133.8769  157.1813 LP  0  0  0  0  0  0  0  0  0  0  0  0  # atno 17395 bound_to 11000

$$$$
