AV-unprocessed.smi:1240|AV-procd|sdf|5209|dock7
  -GOLD-   22720 4303D 1   1.00000     0.00000
 Structure written by MMmdl.
 49 51  0  0  0  0  0  0  0  0  3 V2000
  146.5956  131.9420  153.9993 O   0  0  0  0  0  0  0  0  0  0  0  0
  147.2506  131.6532  152.9985 C   0  0  0  0  0  0  0  0  0  0  0  0
  148.4502  131.0595  153.0521 N   0  0  0  0  0  0  0  0  0  0  0  0
  149.1404  130.7198  154.2932 C   0  0  0  0  0  0  0  0  0  0  0  0
  150.6053  131.2275  154.2994 C   0  0  2  0  0  0  0  0  0  0  0  0
  151.5235  130.3136  155.1771 C   0  0  1  0  0  0  0  0  0  0  0  0
  151.7602  128.9220  154.5996 C   0  0  0  0  0  0  0  0  0  0  0  0
  153.0458  128.4899  155.2843 C   0  0  0  0  0  0  0  0  0  0  0  0
  153.8321  129.6663  155.2470 O   0  0  0  0  0  0  0  0  0  0  0  0
  152.9787  130.8014  155.3474 C   0  0  0  0  0  0  0  0  0  0  0  0
  150.5918  132.6853  154.6643 N   0  3  0  0  0  0  0  0  0  0  0  0
  149.8744  133.6270  153.7652 C   0  0  0  0  0  0  0  0  0  0  0  0
  150.0728  135.0790  154.2341 C   0  0  0  0  0  0  0  0  0  0  0  0
  149.6245  135.2175  155.5750 O   0  0  0  0  0  0  0  0  0  0  0  0
  150.3577  134.3871  156.4647 C   0  0  0  0  0  0  0  0  0  0  0  0
  150.1629  132.9144  156.0690 C   0  0  0  0  0  0  0  0  0  0  0  0
  146.8631  131.8664  151.7290 N   0  0  0  0  0  0  0  0  0  0  0  0
  145.6737  132.4929  151.2665 C   0  0  0  0  0  0  0  0  0  0  0  0
  144.8726  133.1641  152.2167 C   0  0  0  0  0  0  0  0  0  0  0  0
  143.6764  133.7855  151.8031 C   0  0  0  0  0  0  0  0  0  0  0  0
  143.3003  133.7249  150.5076 N   0  3  0  0  0  0  0  0  0  0  0  0
  144.0241  133.0815  149.5666 C   0  0  0  0  0  0  0  0  0  0  0  0
  145.2297  132.4420  149.9205 C   0  0  0  0  0  0  0  0  0  0  0  0
  148.9285  130.8591  152.1860 H   0  0  0  0  0  0  0  0  0  0  0  0
  148.5829  131.1257  155.1380 H   0  0  0  0  0  0  0  0  0  0  0  0
  149.1085  129.6383  154.4260 H   0  0  0  0  0  0  0  0  0  0  0  0
  150.9775  131.1445  153.2767 H   0  0  0  0  0  0  0  0  0  0  0  0
  151.0778  130.1700  156.1625 H   0  0  0  0  0  0  0  0  0  0  0  0
  150.9381  128.2312  154.7901 H   0  0  0  0  0  0  0  0  0  0  0  0
  151.9219  128.9737  153.5218 H   0  0  0  0  0  0  0  0  0  0  0  0
  152.8595  128.2063  156.3213 H   0  0  0  0  0  0  0  0  0  0  0  0
  153.5385  127.6588  154.7794 H   0  0  0  0  0  0  0  0  0  0  0  0
  153.2642  131.5161  154.5751 H   0  0  0  0  0  0  0  0  0  0  0  0
  153.1302  131.2764  156.3166 H   0  0  0  0  0  0  0  0  0  0  0  0
  150.2468  133.5520  152.7446 H   0  0  0  0  0  0  0  0  0  0  0  0
  148.8094  133.3939  153.7560 H   0  0  0  0  0  0  0  0  0  0  0  0
  151.1201  135.3752  154.1553 H   0  0  0  0  0  0  0  0  0  0  0  0
  149.5020  135.7585  153.6011 H   0  0  0  0  0  0  0  0  0  0  0  0
  151.4146  134.6593  156.4524 H   0  0  0  0  0  0  0  0  0  0  0  0
  149.9972  134.5539  157.4799 H   0  0  0  0  0  0  0  0  0  0  0  0
  149.1130  132.6374  156.1786 H   0  0  0  0  0  0  0  0  0  0  0  0
  150.7274  132.2836  156.7547 H   0  0  0  0  0  0  0  0  0  0  0  0
  147.4634  131.4909  151.0097 H   0  0  0  0  0  0  0  0  0  0  0  0
  145.1715  133.2114  153.2540 H   0  0  0  0  0  0  0  0  0  0  0  0
  143.0136  134.3236  152.4650 H   0  0  0  0  0  0  0  0  0  0  0  0
  143.6172  133.0921  148.5660 H   0  0  0  0  0  0  0  0  0  0  0  0
  145.7822  131.9160  149.1568 H   0  0  0  0  0  0  0  0  0  0  0  0
  151.5588  132.9727  154.6173 H   0  0  0  0  0  0  0  0  0  0  0  0
  142.4305  134.1800  150.2290 H   0  0  0  0  0  0  0  0  0  0  0  0
  1  2  2  0  0  0  0
  2  3  1  0  0  0  0
  2 17  1  0  0  0  0
  3  4  1  0  0  0  0
  3 24  1  0  0  0  0
  4  5  1  0  0  0  0
  4 25  1  0  0  0  0
  4 26  1  0  0  0  0
  5  6  1  0  0  0  0
  5 11  1  0  0  0  0
  5 27  1  0  0  0  0
  6 10  1  0  0  0  0
  6  7  1  0  0  0  0
  6 28  1  0  0  0  0
  7  8  1  0  0  0  0
  7 29  1  0  0  0  0
  7 30  1  0  0  0  0
  8  9  1  0  0  0  0
  8 31  1  0  0  0  0
  8 32  1  0  0  0  0
  9 10  1  0  0  0  0
 10 33  1  0  0  0  0
 10 34  1  0  0  0  0
 11 16  1  0  0  0  0
 11 12  1  0  0  0  0
 11 48  1  0  0  0  0
 12 13  1  0  0  0  0
 12 35  1  0  0  0  0
 12 36  1  0  0  0  0
 13 14  1  0  0  0  0
 13 37  1  0  0  0  0
 13 38  1  0  0  0  0
 14 15  1  0  0  0  0
 15 16  1  0  0  0  0
 15 39  1  0  0  0  0
 15 40  1  0  0  0  0
 16 41  1  0  0  0  0
 16 42  1  0  0  0  0
 17 18  1  0  0  0  0
 17 43  1  0  0  0  0
 18 23  1  0  0  0  0
 18 19  2  0  0  0  0
 19 20  1  0  0  0  0
 19 44  1  0  0  0  0
 20 21  2  0  0  0  0
 20 45  1  0  0  0  0
 21 22  1  0  0  0  0
 21 49  1  0  0  0  0
 22 23  2  0  0  0  0
 22 46  1  0  0  0  0
 23 47  1  0  0  0  0
M  CHG  1  11   1
M  CHG  1  21   1
M  END
> <s_m_source_file>
AV-unprocessed.smi

> <i_m_source_file_index>
1240

> <i_lp_mmshare_version>
43012

> <i_f3d_flags>
0

> <s_epik_input>
W2NIXTFbY0hdbltjSF1bY0hdYzFbTkhdQyg9TylbTkhdW0NIMl1bQ0BIXShbQ0BASF0yW0NIMl1bQ0gyXU9bQ0gyXTIpTjNbQ0gyXVtDSDJdT1tDSDJdW0NIMl0z

> <s_epik_cmdline>
J2VwaWtfcHl0aG9uJywgJy1waCcsICc3LjAnLCAnLXRuJywgJzgnLCAnLW1hJywgJzIwMCcsICctbWV0YWxfYmluZGluZycsICctaW1hZScsICc8aW5maWxlLm1hZT4nLCAnLW9tYWUnLCAnPG91dGZpbGUubWFlPic=

> <r_epik_Ionization_Penalty>
2.08105

> <r_epik_Ionization_Penalty_Charging>
2.08103

> <r_epik_Ionization_Penalty_Neutral>
2.04144e-05

> <r_epik_State_Penalty>
2.15598

> <r_epik_Charging_Adjusted_Penalty>
4.23701

> <i_epik_Tot_Q>
2

> <i_epik_Tot_abs_Q>
2

> <r_epik_Metal_State_Penalty>
2.25158

> <b_epik_Metal_Only>
0

> <s_lp_Force_Field>
OPLS_2005

> <r_lp_Energy>
62.0114

> <b_lp_Chiralities_Consistent>
1

> <s_lp_Variant>
AV-unprocessed.smi:1240-15

> <Gold.Version>
5.8.1

> <Gold.Id.Protein>
6NUR|6NUR_protein|mol2

> <Gold.PLP.Fitness>
48.6202

> <Gold.PLP.PLP>
-37.6761

> <Gold.PLP.part.hbond>
-3.0000

> <Gold.PLP.part.metal>
0.0000

> <Gold.PLP.part.buried>
-4.9027

> <Gold.PLP.part.nonpolar>
-29.2409

> <Gold.PLP.part.repulsive>
0.3095

> <Gold.PLP.ligand.clash>
0.0000

> <Gold.PLP.ligand.torsion>
0.4757

> <Gold.PLP.Chemscore.Hbond>
3.9120

> <Gold.PLP.Chemscore.CHOScore>
0.0000

> <Gold.PLP.Chemscore.Metal>
0.0000

> <Gold.Chemscore.Hbonds>
donor molecule, donor type, donor heavy atom, donor atom, acceptor molecule, acceptor atom, score
      L1  H     3    24       P1 10747  1.00
      L1  H    17    43       P1 10747  1.00
      L1  H    21    49       P1 10186  2.00

> <Gold.PLP.Chemscore.Internal.Correction>
0.1594

> <Gold.Rescore>
     Score         DG    S(hbond)    S(metal)    S(lipo)     H(rot)  DE(clash)    DE(int)     intcor
     17.80     -20.45       2.50        0.00      94.81       1.74       0.04       2.60       ----

> <Gold.Chemscore.Fitness>
17.8031

> <Gold.Chemscore.DG>
-20.4471

> <Gold.Chemscore.ZeroCoef>
-5.4800

> <Gold.Chemscore.Hbond>
2.4953

> <Gold.Chemscore.Metal>
0.0000

> <Gold.Chemscore.Lipo>
94.8076

> <Gold.Chemscore.Internal_Hbond>
0.0000

> <Gold.Chemscore.DEClash>
0.0407

> <Gold.Chemscore.DEInternal>
2.6033

> <Gold.Chemscore.Rot>
1.7421

> <Gold.Chemscore.Internal.Correction>
   9.000000E+99

> <Gold.Chemscore.Hbonds>
donor molecule, donor type, donor heavy atom, donor atom, acceptor molecule, acceptor atom, score
      L1  H     3    24       P1 10747  0.48
      L1  H    17    43       P1 10747  0.99
      L1  H    21    49       P1 10186  0.86

> <Gold.Chemscore.Hbond.Weighted>
-8.3343

> <Gold.Chemscore.Metal.Weighted>
-0.0000

> <Gold.Chemscore.Lipo.Weighted>
-11.0925

> <Gold.Chemscore.Internal_Hbond.Weighted>
0.0000

> <Gold.Chemscore.DEClash.Weighted>
0.0407

> <Gold.Chemscore.DEInternal.Weighted>
2.6033

> <Gold.Chemscore.Rot.Weighted>
4.4597

> <Gold.Chemscore.Internal.Correction.Weighted>
   9.000000E+99

> <Gold.Protein.RotatedTorsions>
[ 6907 6896 6895 6894 ] final   59.44 input  -60.11 | X-H torsion
[ 7974 7965 7964 7962 ] final   88.50 input  175.53 | X-H torsion
[ 8008 7997 7996 7995 ] final   54.94 input   59.86 | X-H torsion
[ 10167 10162 10161 10158 ] final   99.46 input  -65.29 | X-H torsion
[ 10718 10713 10712 10709 ] final  137.00 input   66.30 | X-H torsion
[ 10763 10752 10751 10750 ] final  -36.87 input  -60.55 | X-H torsion
[ 11005 11000 10999 10996 ] final   65.29 input  -57.11 | X-H torsion

> <Gold.Protein.ActiveResidues>
 VAL166  LYS551  ARG553  GLY616  TRP617  ASP618  TYR619  PRO620  LYS621  CYS622 
 ASP623  PHE694  ASN695  SER759  ASP760  ASP761  ALA762  ILE779  LEU786  VAL792 
 PHE793  MET794  SER795  GLU796  ALA797  LYS798  CYS799  TRP800  GLU811  SER814 

> <Gold.Protein.RotatedAtoms>
  152.3915  134.6434  160.0105 H   0  0  0  0  0  0  0  0  0  0  0  0  # atno 6907 bound_to 6896
  151.6666  133.3309  159.3194 H   0  0  0  0  0  0  0  0  0  0  0  0  # atno 6908 bound_to 6896
  150.7830  134.6835  159.6501 H   0  0  0  0  0  0  0  0  0  0  0  0  # atno 6909 bound_to 6896
  145.5448  139.2291  143.2545 H   0  0  0  0  0  0  0  0  0  0  0  0  # atno 7974 bound_to 7965
  155.4930  140.3472  155.4358 H   0  0  0  0  0  0  0  0  0  0  0  0  # atno 8008 bound_to 7997
  156.0964  140.1424  156.9553 H   0  0  0  0  0  0  0  0  0  0  0  0  # atno 8009 bound_to 7997
  154.4666  140.0915  156.7014 H   0  0  0  0  0  0  0  0  0  0  0  0  # atno 8010 bound_to 7997
  139.7615  144.6952  151.0285 H   0  0  0  0  0  0  0  0  0  0  0  0  # atno 10167 bound_to 10162
  157.4407  131.1057  151.0147 H   0  0  0  0  0  0  0  0  0  0  0  0  # atno 10718 bound_to 10713
  153.8870  135.6816  153.4763 H   0  0  0  0  0  0  0  0  0  0  0  0  # atno 10763 bound_to 10752
  153.1202  135.4743  154.9180 H   0  0  0  0  0  0  0  0  0  0  0  0  # atno 10764 bound_to 10752
  154.7641  135.3219  154.8273 H   0  0  0  0  0  0  0  0  0  0  0  0  # atno 10765 bound_to 10752
  139.9904  134.6601  156.0101 H   0  0  0  0  0  0  0  0  0  0  0  0  # atno 11005 bound_to 11000
  146.1956  140.6270  142.9125 LP  0  0  0  0  0  0  0  0  0  0  0  0  # atno 17320 bound_to 7965
  144.7558  140.5305  143.6769 LP  0  0  0  0  0  0  0  0  0  0  0  0  # atno 17321 bound_to 7965
  140.7807  143.4691  151.0171 LP  0  0  0  0  0  0  0  0  0  0  0  0  # atno 17342 bound_to 10162
  139.8377  143.7605  152.3180 LP  0  0  0  0  0  0  0  0  0  0  0  0  # atno 17343 bound_to 10162
  157.1011  130.5982  149.5460 LP  0  0  0  0  0  0  0  0  0  0  0  0  # atno 17370 bound_to 10713
  155.9947  130.5012  150.7432 LP  0  0  0  0  0  0  0  0  0  0  0  0  # atno 17371 bound_to 10713
  141.1561  133.6543  156.4165 LP  0  0  0  0  0  0  0  0  0  0  0  0  # atno 17394 bound_to 11000
  140.4920  134.6567  157.5214 LP  0  0  0  0  0  0  0  0  0  0  0  0  # atno 17395 bound_to 11000

$$$$
