AV-unprocessed.smi:2306|AV-procd|sdf|9249|dock8
  -GOLD-   2272012473D 1   1.00000     0.00000
 Structure written by MMmdl.
 41 42  0  0  0  0  0  0  0  0  1 V2000
  152.3211  143.7044  161.2698 C   0  0  0  0  0  0  0  0  0  0  0  0
  152.0838  143.0095  159.9407 C   0  0  0  0  0  0  0  0  0  0  0  0
  151.2679  143.6962  159.0370 N   0  0  0  0  0  0  0  0  0  0  0  0
  151.0060  143.1775  157.8823 C   0  0  0  0  0  0  0  0  0  0  0  0
  151.5210  141.9270  157.5003 N   0  0  0  0  0  0  0  0  0  0  0  0
  151.1459  141.4449  156.1600 C   0  0  0  0  0  0  0  0  0  0  0  0
  149.6139  141.4184  155.9567 C   0  0  1  0  0  0  0  0  0  0  0  0
  149.2935  141.0994  154.6176 O   0  0  0  0  0  0  0  0  0  0  0  0
  148.9056  140.3914  156.8573 C   0  0  0  0  0  0  0  0  0  0  0  0
  147.5737  140.8087  157.1149 O   0  0  0  0  0  0  0  0  0  0  0  0
  146.6829  140.5105  156.0528 C   0  0  0  0  0  0  0  0  0  0  0  0
  146.1064  141.7684  155.4316 C   0  0  0  0  0  0  0  0  0  0  0  0
  145.1645  142.5426  156.1413 C   0  0  0  0  0  0  0  0  0  0  0  0
  144.6181  143.7029  155.5583 C   0  0  0  0  0  0  0  0  0  0  0  0
  145.0060  144.0896  154.2608 C   0  0  0  0  0  0  0  0  0  0  0  0
  145.9389  143.3145  153.5454 C   0  0  0  0  0  0  0  0  0  0  0  0
  146.4861  142.1547  154.1282 C   0  0  0  0  0  0  0  0  0  0  0  0
  152.3386  141.1994  158.3144 C   0  0  0  0  0  0  0  0  0  0  0  0
  152.8052  140.1149  157.9615 O   0  0  0  0  0  0  0  0  0  0  0  0
  152.6209  141.7984  159.6289 C   0  0  0  0  0  0  0  0  0  0  0  0
  153.5153  141.0042  160.5728 C   0  0  0  0  0  0  0  0  0  0  0  0
  153.3863  143.8746  161.4277 H   0  0  0  0  0  0  0  0  0  0  0  0
  151.9385  143.0981  162.0911 H   0  0  0  0  0  0  0  0  0  0  0  0
  151.8198  144.6723  161.3074 H   0  0  0  0  0  0  0  0  0  0  0  0
  150.3801  143.6748  157.1393 H   0  0  0  0  0  0  0  0  0  0  0  0
  151.6288  142.0282  155.3735 H   0  0  0  0  0  0  0  0  0  0  0  0
  151.5425  140.4367  156.0218 H   0  0  0  0  0  0  0  0  0  0  0  0
  149.1889  142.4001  156.1696 H   0  0  0  0  0  0  0  0  0  0  0  0
  149.6273  141.7831  154.0567 H   0  0  0  0  0  0  0  0  0  0  0  0
  148.8781  139.4279  156.3459 H   0  0  0  0  0  0  0  0  0  0  0  0
  149.4570  140.2441  157.7879 H   0  0  0  0  0  0  0  0  0  0  0  0
  147.2034  139.9513  155.2739 H   0  0  0  0  0  0  0  0  0  0  0  0
  145.8726  139.8796  156.4217 H   0  0  0  0  0  0  0  0  0  0  0  0
  144.8592  142.2513  157.1357 H   0  0  0  0  0  0  0  0  0  0  0  0
  143.9003  144.2954  156.1060 H   0  0  0  0  0  0  0  0  0  0  0  0
  144.5868  144.9789  153.8135 H   0  0  0  0  0  0  0  0  0  0  0  0
  146.2341  143.6086  152.5489 H   0  0  0  0  0  0  0  0  0  0  0  0
  147.1989  141.5633  153.5722 H   0  0  0  0  0  0  0  0  0  0  0  0
  153.0786  140.0244  160.7694 H   0  0  0  0  0  0  0  0  0  0  0  0
  153.6671  141.4925  161.5339 H   0  0  0  0  0  0  0  0  0  0  0  0
  154.4968  140.8528  160.1221 H   0  0  0  0  0  0  0  0  0  0  0  0
  1  2  1  0  0  0  0
  1 22  1  0  0  0  0
  1 23  1  0  0  0  0
  1 24  1  0  0  0  0
  2 20  2  0  0  0  0
  2  3  1  0  0  0  0
  3  4  2  0  0  0  0
  4  5  1  0  0  0  0
  4 25  1  0  0  0  0
  5  6  1  0  0  0  0
  5 18  1  0  0  0  0
  6  7  1  0  0  0  0
  6 26  1  0  0  0  0
  6 27  1  0  0  0  0
  7  8  1  0  0  0  0
  7  9  1  0  0  0  0
  7 28  1  0  0  0  0
  8 29  1  0  0  0  0
  9 10  1  0  0  0  0
  9 30  1  0  0  0  0
  9 31  1  0  0  0  0
 10 11  1  0  0  0  0
 11 12  1  0  0  0  0
 11 32  1  0  0  0  0
 11 33  1  0  0  0  0
 12 17  1  0  0  0  0
 12 13  2  0  0  0  0
 13 14  1  0  0  0  0
 13 34  1  0  0  0  0
 14 15  2  0  0  0  0
 14 35  1  0  0  0  0
 15 16  1  0  0  0  0
 15 36  1  0  0  0  0
 16 17  2  0  0  0  0
 16 37  1  0  0  0  0
 17 38  1  0  0  0  0
 18 19  2  0  0  0  0
 18 20  1  0  0  0  0
 20 21  1  0  0  0  0
 21 39  1  0  0  0  0
 21 40  1  0  0  0  0
 21 41  1  0  0  0  0
M  END
> <s_m_source_file>
AV-unprocessed.smi

> <i_m_source_file_index>
2306

> <i_lp_mmshare_version>
43012

> <i_f3d_flags>
0

> <s_epik_input>
W0NIM11jMW5bY0hdbihjKD1PKWMxW0NIM10pW0NIMl1bQ0BIXShbT0hdKVtDSDJdT1tDSDJdYzJbY0hdW2NIXVtjSF1bY0hdW2NIXTI=

> <s_epik_cmdline>
J2VwaWtfcHl0aG9uJywgJy1waCcsICc3LjAnLCAnLXRuJywgJzgnLCAnLW1hJywgJzIwMCcsICctbWV0YWxfYmluZGluZycsICctaW1hZScsICc8aW5maWxlLm1hZT4nLCAnLW9tYWUnLCAnPG91dGZpbGUubWFlPic=

> <r_lp_tautomer_probability>
1

> <r_epik_Ionization_Penalty>
5.35985e-05

> <r_epik_Ionization_Penalty_Charging>
1.17753e-07

> <r_epik_Ionization_Penalty_Neutral>
5.34808e-05

> <r_epik_State_Penalty>
-0

> <r_epik_Charging_Adjusted_Penalty>
1.17753e-07

> <i_epik_Tot_Q>
0

> <i_epik_Tot_abs_Q>
0

> <r_epik_Metal_State_Penalty>
-0

> <b_epik_Metal_Only>
0

> <s_lp_Force_Field>
OPLS_2005

> <r_lp_Energy>
24.4772

> <b_lp_Chiralities_Consistent>
1

> <s_lp_Variant>
AV-unprocessed.smi:2306-2

> <Gold.Version>
5.8.1

> <Gold.Id.Protein>
6NUR|6NUR_protein|mol2

> <Gold.PLP.Fitness>
44.9851

> <Gold.PLP.PLP>
-40.9236

> <Gold.PLP.part.hbond>
-1.1371

> <Gold.PLP.part.metal>
0.0000

> <Gold.PLP.part.buried>
-7.6503

> <Gold.PLP.part.nonpolar>
-31.5768

> <Gold.PLP.part.repulsive>
0.1071

> <Gold.PLP.ligand.clash>
0.0000

> <Gold.PLP.ligand.torsion>
0.9284

> <Gold.PLP.Chemscore.Hbond>
0.9440

> <Gold.PLP.Chemscore.CHOScore>
1.0000

> <Gold.PLP.Chemscore.Metal>
0.0000

> <Gold.Chemscore.Hbonds>
donor molecule, donor type, donor heavy atom, donor atom, acceptor molecule, acceptor atom, score
      P1  H  7997  8009       L1    19  0.96
      L1  C     4    25       P1  8028  1.00

> <Gold.PLP.Chemscore.Internal.Correction>
0.0863

> <Gold.Rescore>
     Score         DG    S(hbond)    S(metal)    S(lipo)     H(rot)  DE(clash)    DE(int)     intcor
     11.49     -12.49       0.93        0.00      88.50       2.52       0.01       0.99       ----

> <Gold.Chemscore.Fitness>
11.4921

> <Gold.Chemscore.DG>
-12.4862

> <Gold.Chemscore.ZeroCoef>
-5.4800

> <Gold.Chemscore.Hbond>
0.9261

> <Gold.Chemscore.Metal>
0.0000

> <Gold.Chemscore.Lipo>
88.4993

> <Gold.Chemscore.Internal_Hbond>
0.0000

> <Gold.Chemscore.DEClash>
0.0064

> <Gold.Chemscore.DEInternal>
0.9878

> <Gold.Chemscore.Rot>
2.5162

> <Gold.Chemscore.Internal.Correction>
   9.000000E+99

> <Gold.Chemscore.Hbonds>
donor molecule, donor type, donor heavy atom, donor atom, acceptor molecule, acceptor atom, score
      P1  H  7997  8009       L1    19  0.84

> <Gold.Chemscore.Hbond.Weighted>
-3.0932

> <Gold.Chemscore.Metal.Weighted>
-0.0000

> <Gold.Chemscore.Lipo.Weighted>
-10.3544

> <Gold.Chemscore.Internal_Hbond.Weighted>
0.0000

> <Gold.Chemscore.DEClash.Weighted>
0.0064

> <Gold.Chemscore.DEInternal.Weighted>
0.9878

> <Gold.Chemscore.Rot.Weighted>
6.4414

> <Gold.Chemscore.Internal.Correction.Weighted>
   9.000000E+99

> <Gold.Protein.RotatedTorsions>
[ 6907 6896 6895 6894 ] final  141.11 input  -60.11 | X-H torsion
[ 7974 7965 7964 7962 ] final   23.61 input  175.53 | X-H torsion
[ 8008 7997 7996 7995 ] final  152.99 input   59.86 | X-H torsion
[ 10167 10162 10161 10158 ] final  174.47 input  -65.29 | X-H torsion
[ 10718 10713 10712 10709 ] final  177.51 input   66.30 | X-H torsion
[ 10763 10752 10751 10750 ] final  161.42 input  -60.55 | X-H torsion
[ 11005 11000 10999 10996 ] final  -91.94 input  -57.11 | X-H torsion

> <Gold.Protein.ActiveResidues>
 VAL166  LYS551  ARG553  GLY616  TRP617  ASP618  TYR619  PRO620  LYS621  CYS622 
 ASP623  PHE694  ASN695  SER759  ASP760  ASP761  ALA762  ILE779  LEU786  VAL792 
 PHE793  MET794  SER795  GLU796  ALA797  LYS798  CYS799  TRP800  GLU811  SER814 

> <Gold.Protein.RotatedAtoms>
  152.2349  133.5088  159.5236 H   0  0  0  0  0  0  0  0  0  0  0  0  # atno 6907 bound_to 6896
  150.7048  134.1166  159.4028 H   0  0  0  0  0  0  0  0  0  0  0  0  # atno 6908 bound_to 6896
  151.9087  135.0348  160.0563 H   0  0  0  0  0  0  0  0  0  0  0  0  # atno 6909 bound_to 6896
  146.1976  139.7720  142.8785 H   0  0  0  0  0  0  0  0  0  0  0  0  # atno 7974 bound_to 7965
  156.2603  140.2006  156.6420 H   0  0  0  0  0  0  0  0  0  0  0  0  # atno 8008 bound_to 7997
  154.6602  140.0561  157.0078 H   0  0  0  0  0  0  0  0  0  0  0  0  # atno 8009 bound_to 7997
  155.1288  140.3231  155.4482 H   0  0  0  0  0  0  0  0  0  0  0  0  # atno 8010 bound_to 7997
  139.5143  144.3143  152.0262 H   0  0  0  0  0  0  0  0  0  0  0  0  # atno 10167 bound_to 10162
  156.9043  130.9889  151.3031 H   0  0  0  0  0  0  0  0  0  0  0  0  # atno 10718 bound_to 10713
  154.2627  135.2768  155.2771 H   0  0  0  0  0  0  0  0  0  0  0  0  # atno 10763 bound_to 10752
  154.5370  135.5713  153.6810 H   0  0  0  0  0  0  0  0  0  0  0  0  # atno 10764 bound_to 10752
  152.9959  135.6241  154.2778 H   0  0  0  0  0  0  0  0  0  0  0  0  # atno 10765 bound_to 10752
  141.1533  133.7788  156.9950 H   0  0  0  0  0  0  0  0  0  0  0  0  # atno 11005 bound_to 11000
  145.3592  141.0322  143.3294 LP  0  0  0  0  0  0  0  0  0  0  0  0  # atno 17320 bound_to 7965
  144.8613  139.5172  143.6811 LP  0  0  0  0  0  0  0  0  0  0  0  0  # atno 17321 bound_to 7965
  140.2586  144.4091  150.6194 LP  0  0  0  0  0  0  0  0  0  0  0  0  # atno 17342 bound_to 10162
  140.6173  143.2173  151.6765 LP  0  0  0  0  0  0  0  0  0  0  0  0  # atno 17343 bound_to 10162
  157.6007  130.8510  149.8797 LP  0  0  0  0  0  0  0  0  0  0  0  0  # atno 17370 bound_to 10713
  156.0567  130.3707  150.1076 LP  0  0  0  0  0  0  0  0  0  0  0  0  # atno 17371 bound_to 10713
  140.0978  134.9554  157.1876 LP  0  0  0  0  0  0  0  0  0  0  0  0  # atno 17394 bound_to 11000
  140.3359  134.2757  155.7220 LP  0  0  0  0  0  0  0  0  0  0  0  0  # atno 17395 bound_to 11000

$$$$
