AV-unprocessed.smi:1433|AV-procd|sdf|5846|dock4
  -GOLD-   22720 5513D 1   1.00000     0.00000
 Structure written by MMmdl.
 45 46  0  0  0  0  0  0  0  0  2 V2000
  149.4764  139.5671  152.6839 C   0  0  0  0  0  0  0  0  0  0  0  0
  149.5101  139.5889  154.2228 C   0  0  1  0  0  0  0  0  0  0  0  0
  148.6270  138.5051  154.8743 C   0  0  0  0  0  0  0  0  0  0  0  0
  149.2376  137.1531  154.7530 N   0  3  2  0  0  0  0  0  0  0  0  0
  148.4384  136.0122  155.3078 C   0  0  2  0  0  0  0  0  0  0  0  0
  149.3349  134.7602  155.4272 C   0  0  0  0  0  0  0  0  0  0  0  0
  147.1498  135.6831  154.5019 C   0  0  0  0  0  0  0  0  0  0  0  0
  147.3699  134.7073  153.4383 N   0  0  0  0  0  0  0  0  0  0  0  0
  146.6634  133.5788  153.2685 C   0  0  0  0  0  0  0  0  0  0  0  0
  145.7505  133.2314  154.0178 O   0  0  0  0  0  0  0  0  0  0  0  0
  147.0387  132.7109  152.0672 C   0  0  0  0  0  0  0  0  0  0  0  0
  145.9881  132.7316  151.0661 N   0  0  0  0  0  0  0  0  0  0  0  0
  145.9201  132.0285  149.8812 C   0  0  0  0  0  0  0  0  0  0  0  0
  144.7432  132.3648  149.2761 C   0  0  0  0  0  0  0  0  0  0  0  0
  144.1507  133.2904  150.1800 C   0  0  0  0  0  0  0  0  0  0  0  0
  144.8972  133.5074  151.2511 N   0  0  0  0  0  0  0  0  0  0  0  0
  150.6216  137.1855  155.2944 C   0  0  0  0  0  0  0  0  0  0  0  0
  151.4685  138.2557  154.5850 C   0  0  2  0  0  0  0  0  0  0  0  0
  152.8774  138.3598  155.1794 C   0  0  0  0  0  0  0  0  0  0  0  0
  150.8399  139.5239  154.7326 O   0  0  0  0  0  0  0  0  0  0  0  0
  148.4692  139.7650  152.3165 H   0  0  0  0  0  0  0  0  0  0  0  0
  149.7855  138.6056  152.2747 H   0  0  0  0  0  0  0  0  0  0  0  0
  150.1329  140.3334  152.2707 H   0  0  0  0  0  0  0  0  0  0  0  0
  149.1197  140.5600  154.5290 H   0  0  0  0  0  0  0  0  0  0  0  0
  148.4805  138.7360  155.9308 H   0  0  0  0  0  0  0  0  0  0  0  0
  147.6485  138.5411  154.3961 H   0  0  0  0  0  0  0  0  0  0  0  0
  148.1207  136.3000  156.3112 H   0  0  0  0  0  0  0  0  0  0  0  0
  148.8089  133.9297  155.8979 H   0  0  0  0  0  0  0  0  0  0  0  0
  150.2224  134.9397  156.0323 H   0  0  0  0  0  0  0  0  0  0  0  0
  149.6701  134.4233  154.4456 H   0  0  0  0  0  0  0  0  0  0  0  0
  146.3669  135.2846  155.1487 H   0  0  0  0  0  0  0  0  0  0  0  0
  146.7504  136.5889  154.0442 H   0  0  0  0  0  0  0  0  0  0  0  0
  148.0970  134.9153  152.7683 H   0  0  0  0  0  0  0  0  0  0  0  0
  147.9747  133.0510  151.6204 H   0  0  0  0  0  0  0  0  0  0  0  0
  147.1950  131.6816  152.3926 H   0  0  0  0  0  0  0  0  0  0  0  0
  146.7057  131.3543  149.5728 H   0  0  0  0  0  0  0  0  0  0  0  0
  144.3627  132.0041  148.3321 H   0  0  0  0  0  0  0  0  0  0  0  0
  143.2063  133.8070  150.0905 H   0  0  0  0  0  0  0  0  0  0  0  0
  150.5852  137.3885  156.3663 H   0  0  0  0  0  0  0  0  0  0  0  0
  151.1060  136.2175  155.1759 H   0  0  0  0  0  0  0  0  0  0  0  0
  151.5657  138.0078  153.5280 H   0  0  0  0  0  0  0  0  0  0  0  0
  153.4136  137.4149  155.0891 H   0  0  0  0  0  0  0  0  0  0  0  0
  152.8421  138.6248  156.2368 H   0  0  0  0  0  0  0  0  0  0  0  0
  153.4620  139.1232  154.6653 H   0  0  0  0  0  0  0  0  0  0  0  0
  149.3144  136.9802  153.7607 H   0  0  0  0  0  0  0  0  0  0  0  0
  1  2  1  0  0  0  0
  1 21  1  0  0  0  0
  1 22  1  0  0  0  0
  1 23  1  0  0  0  0
  2 20  1  0  0  0  0
  2  3  1  0  0  0  0
  2 24  1  0  0  0  0
  3  4  1  0  0  0  0
  3 25  1  0  0  0  0
  3 26  1  0  0  0  0
  4  5  1  0  0  0  0
  4 17  1  0  0  0  0
  4 45  1  0  0  0  0
  5  6  1  0  0  0  0
  5  7  1  0  0  0  0
  5 27  1  0  0  0  0
  6 28  1  0  0  0  0
  6 29  1  0  0  0  0
  6 30  1  0  0  0  0
  7  8  1  0  0  0  0
  7 31  1  0  0  0  0
  7 32  1  0  0  0  0
  8  9  1  0  0  0  0
  8 33  1  0  0  0  0
  9 10  2  0  0  0  0
  9 11  1  0  0  0  0
 11 12  1  0  0  0  0
 11 34  1  0  0  0  0
 11 35  1  0  0  0  0
 12 16  1  0  0  0  0
 12 13  1  0  0  0  0
 13 14  2  0  0  0  0
 13 36  1  0  0  0  0
 14 15  1  0  0  0  0
 14 37  1  0  0  0  0
 15 16  2  0  0  0  0
 15 38  1  0  0  0  0
 17 18  1  0  0  0  0
 17 39  1  0  0  0  0
 17 40  1  0  0  0  0
 18 19  1  0  0  0  0
 18 20  1  0  0  0  0
 18 41  1  0  0  0  0
 19 42  1  0  0  0  0
 19 43  1  0  0  0  0
 19 44  1  0  0  0  0
M  CHG  1   4   1
M  END
> <s_m_source_file>
AV-unprocessed.smi

> <i_m_source_file_index>
1433

> <i_lp_mmshare_version>
43012

> <i_f3d_flags>
0

> <s_epik_input>
W0NIM11bQ0BASF0xW0NIMl1OKFtDSDJdW0NASF0oTzEpW0NIM10pW0NASF0oW0NIM10pW0NIMl1bTkhdQyg9TylbQ0gyXW4yW2NIXVtjSF1bY0hdbjI=

> <s_epik_cmdline>
J2VwaWtfcHl0aG9uJywgJy1waCcsICc3LjAnLCAnLXRuJywgJzgnLCAnLW1hJywgJzIwMCcsICctbWV0YWxfYmluZGluZycsICctaW1hZScsICc8aW5maWxlLm1hZT4nLCAnLW9tYWUnLCAnPG91dGZpbGUubWFlPic=

> <r_lp_tautomer_probability>
1

> <r_epik_Ionization_Penalty>
0.748405

> <r_epik_Ionization_Penalty_Charging>
0.748396

> <r_epik_Ionization_Penalty_Neutral>
8.54426e-06

> <r_epik_State_Penalty>
0.775162

> <r_epik_Charging_Adjusted_Penalty>
1.52356

> <i_epik_Tot_Q>
1

> <i_epik_Tot_abs_Q>
1

> <r_epik_Metal_State_Penalty>
0.775167

> <b_epik_Metal_Only>
0

> <s_lp_Force_Field>
OPLS_2005

> <r_lp_Energy>
23.467

> <b_lp_Chiralities_Consistent>
1

> <s_lp_Variant>
AV-unprocessed.smi:1433-12

> <Gold.Version>
5.8.1

> <Gold.Id.Protein>
6NUR|6NUR_protein|mol2

> <Gold.PLP.Fitness>
45.0129

> <Gold.PLP.PLP>
-28.4087

> <Gold.PLP.part.hbond>
-3.0000

> <Gold.PLP.part.metal>
0.0000

> <Gold.PLP.part.buried>
4.1646

> <Gold.PLP.part.nonpolar>
-29.1704

> <Gold.PLP.part.repulsive>
0.2799

> <Gold.PLP.ligand.clash>
0.0458

> <Gold.PLP.ligand.torsion>
0.6801

> <Gold.PLP.Chemscore.Hbond>
3.9825

> <Gold.PLP.Chemscore.CHOScore>
1.9995

> <Gold.PLP.Chemscore.Metal>
0.0000

> <Gold.Chemscore.Hbonds>
donor molecule, donor type, donor heavy atom, donor atom, acceptor molecule, acceptor atom, score
      L1  H     4    45       P1  7948  1.89
      L1  H     8    33       P1  7948  0.94
      P1  H  7989  7998       L1    20  0.85
      L1  C    13    36       P1 10747  1.00
      L1  C    15    38       P1 10186  1.00

> <Gold.PLP.Chemscore.Internal.Correction>
0.0645

> <Gold.Rescore>
     Score         DG    S(hbond)    S(metal)    S(lipo)     H(rot)  DE(clash)    DE(int)     intcor
     13.82     -18.39       2.09        0.00      91.44       1.87       2.46       2.11       ----

> <Gold.Chemscore.Fitness>
13.8166

> <Gold.Chemscore.DG>
-18.3861

> <Gold.Chemscore.ZeroCoef>
-5.4800

> <Gold.Chemscore.Hbond>
2.0911

> <Gold.Chemscore.Metal>
0.0000

> <Gold.Chemscore.Lipo>
91.4350

> <Gold.Chemscore.Internal_Hbond>
0.0000

> <Gold.Chemscore.DEClash>
2.4556

> <Gold.Chemscore.DEInternal>
2.1139

> <Gold.Chemscore.Rot>
1.8657

> <Gold.Chemscore.Internal.Correction>
   9.000000E+99

> <Gold.Chemscore.Hbonds>
donor molecule, donor type, donor heavy atom, donor atom, acceptor molecule, acceptor atom, score
      L1  H     4    45       P1  7948  0.87
      L1  H     8    33       P1  7948  0.78
      P1  H  7989  7998       L1    20  0.11

> <Gold.Chemscore.Hbond.Weighted>
-6.9844

> <Gold.Chemscore.Metal.Weighted>
-0.0000

> <Gold.Chemscore.Lipo.Weighted>
-10.6979

> <Gold.Chemscore.Internal_Hbond.Weighted>
0.0000

> <Gold.Chemscore.DEClash.Weighted>
2.4556

> <Gold.Chemscore.DEInternal.Weighted>
2.1139

> <Gold.Chemscore.Rot.Weighted>
4.7761

> <Gold.Chemscore.Internal.Correction.Weighted>
   9.000000E+99

> <Gold.Protein.RotatedTorsions>
[ 6907 6896 6895 6894 ] final   35.39 input  -60.11 | X-H torsion
[ 7974 7965 7964 7962 ] final  175.30 input  175.53 | X-H torsion
[ 8008 7997 7996 7995 ] final -104.11 input   59.86 | X-H torsion
[ 10167 10162 10161 10158 ] final  105.49 input  -65.29 | X-H torsion
[ 10718 10713 10712 10709 ] final  -38.47 input   66.30 | X-H torsion
[ 10763 10752 10751 10750 ] final   50.93 input  -60.55 | X-H torsion
[ 11005 11000 10999 10996 ] final   38.79 input  -57.11 | X-H torsion

> <Gold.Protein.ActiveResidues>
 VAL166  LYS551  ARG553  GLY616  TRP617  ASP618  TYR619  PRO620  LYS621  CYS622 
 ASP623  PHE694  ASN695  SER759  ASP760  ASP761  ALA762  ILE779  LEU786  VAL792 
 PHE793  MET794  SER795  GLU796  ALA797  LYS798  CYS799  TRP800  GLU811  SER814 

> <Gold.Protein.RotatedAtoms>
  152.1155  134.9244  160.0564 H   0  0  0  0  0  0  0  0  0  0  0  0  # atno 6907 bound_to 6896
  152.0405  133.3970  159.4343 H   0  0  0  0  0  0  0  0  0  0  0  0  # atno 6908 bound_to 6896
  150.6846  134.3341  159.4883 H   0  0  0  0  0  0  0  0  0  0  0  0  # atno 6909 bound_to 6896
  144.7204  139.9926  143.6440 H   0  0  0  0  0  0  0  0  0  0  0  0  # atno 7974 bound_to 7965
  154.8806  140.0419  157.1780 H   0  0  0  0  0  0  0  0  0  0  0  0  # atno 8008 bound_to 7997
  154.8643  140.2949  155.5499 H   0  0  0  0  0  0  0  0  0  0  0  0  # atno 8009 bound_to 7997
  156.2999  140.2441  156.3622 H   0  0  0  0  0  0  0  0  0  0  0  0  # atno 8010 bound_to 7997
  139.7088  144.7081  151.1061 H   0  0  0  0  0  0  0  0  0  0  0  0  # atno 10167 bound_to 10162
  156.3034  130.4243  149.8120 H   0  0  0  0  0  0  0  0  0  0  0  0  # atno 10718 bound_to 10713
  152.9784  135.5862  154.4333 H   0  0  0  0  0  0  0  0  0  0  0  0  # atno 10763 bound_to 10752
  154.3944  135.2768  155.2137 H   0  0  0  0  0  0  0  0  0  0  0  0  # atno 10764 bound_to 10752
  154.3995  135.6106  153.5943 H   0  0  0  0  0  0  0  0  0  0  0  0  # atno 10765 bound_to 10752
  140.2092  134.3776  155.8057 H   0  0  0  0  0  0  0  0  0  0  0  0  # atno 11005 bound_to 11000
  146.0400  139.3413  143.0703 LP  0  0  0  0  0  0  0  0  0  0  0  0  # atno 17320 bound_to 7965
  145.8347  140.9612  143.0831 LP  0  0  0  0  0  0  0  0  0  0  0  0  # atno 17321 bound_to 7965
  140.7728  143.5321  150.9411 LP  0  0  0  0  0  0  0  0  0  0  0  0  # atno 17342 bound_to 10162
  139.9005  143.6842  152.3132 LP  0  0  0  0  0  0  0  0  0  0  0  0  # atno 17343 bound_to 10162
  156.5490  130.8333  151.3293 LP  0  0  0  0  0  0  0  0  0  0  0  0  # atno 17370 bound_to 10713
  157.7373  130.9794  150.2188 LP  0  0  0  0  0  0  0  0  0  0  0  0  # atno 17371 bound_to 10713
  141.2226  133.7134  156.8388 LP  0  0  0  0  0  0  0  0  0  0  0  0  # atno 17394 bound_to 11000
  140.1970  134.8925  157.3125 LP  0  0  0  0  0  0  0  0  0  0  0  0  # atno 17395 bound_to 11000

$$$$
