AV-unprocessed.smi:3346|AV-procd|sdf|12909|dock7
  -GOLD-   2272019323D 1   1.00000     0.00000
 Structure written by MMmdl.
 47 48  0  0  0  0  0  0  0  0  1 V2000
  153.2928  141.5311  160.4673 C   0  0  0  0  0  0  0  0  0  0  0  0
  152.6401  142.7978  159.8940 C   0  0  0  0  0  0  0  0  0  0  0  0
  152.1365  143.7002  161.0332 C   0  0  0  0  0  0  0  0  0  0  0  0
  151.5240  142.4283  158.8910 C   0  0  0  0  0  0  0  0  0  0  0  0
  151.3085  143.4375  157.7423 C   0  0  2  0  0  0  0  0  0  0  0  0
  151.1283  144.8624  158.2959 C   0  0  0  0  0  0  0  0  0  0  0  0
  150.1190  143.0503  156.9916 N   0  0  0  0  0  0  0  0  0  0  0  0
  150.1931  141.6777  156.5128 C   0  0  0  0  0  0  0  0  0  0  0  0
  149.0511  141.3322  155.5710 C   0  0  0  0  0  0  0  0  0  0  0  0
  148.0966  142.3221  155.2559 C   0  0  0  0  0  0  0  0  0  0  0  0
  147.0496  142.0099  154.3701 C   0  0  0  0  0  0  0  0  0  0  0  0
  146.9988  140.7116  153.8309 C   0  0  0  0  0  0  0  0  0  0  0  0
  147.9017  139.7532  154.1249 N   0  0  0  0  0  0  0  0  0  0  0  0
  148.9121  140.0491  154.9791 C   0  0  0  0  0  0  0  0  0  0  0  0
  149.8211  139.0223  155.2869 N   0  0  0  0  0  0  0  0  0  0  0  0
  149.3810  137.7148  154.8197 C   0  0  0  0  0  0  0  0  0  0  0  0
  150.3055  136.6212  155.3814 C   0  0  0  0  0  0  0  0  0  0  0  0
  151.6544  136.9015  155.0169 O   0  0  0  0  0  0  0  0  0  0  0  0
  152.1001  138.1529  155.5338 C   0  0  0  0  0  0  0  0  0  0  0  0
  151.2211  139.2844  154.9735 C   0  0  0  0  0  0  0  0  0  0  0  0
  152.5711  140.9278  161.0188 H   0  0  0  0  0  0  0  0  0  0  0  0
  154.1070  141.7815  161.1480 H   0  0  0  0  0  0  0  0  0  0  0  0
  153.7102  140.9097  159.6745 H   0  0  0  0  0  0  0  0  0  0  0  0
  153.4199  143.3389  159.3591 H   0  0  0  0  0  0  0  0  0  0  0  0
  151.3233  143.2273  161.5842 H   0  0  0  0  0  0  0  0  0  0  0  0
  151.7761  144.6586  160.6609 H   0  0  0  0  0  0  0  0  0  0  0  0
  152.9360  143.9157  161.7426 H   0  0  0  0  0  0  0  0  0  0  0  0
  151.7298  141.4454  158.4636 H   0  0  0  0  0  0  0  0  0  0  0  0
  150.5916  142.3150  159.4458 H   0  0  0  0  0  0  0  0  0  0  0  0
  152.1790  143.4241  157.0869 H   0  0  0  0  0  0  0  0  0  0  0  0
  151.9863  145.1536  158.9026 H   0  0  0  0  0  0  0  0  0  0  0  0
  150.2406  144.9362  158.9252 H   0  0  0  0  0  0  0  0  0  0  0  0
  151.0364  145.6022  157.5012 H   0  0  0  0  0  0  0  0  0  0  0  0
  149.9731  143.6868  156.2211 H   0  0  0  0  0  0  0  0  0  0  0  0
  151.1308  141.5180  155.9811 H   0  0  0  0  0  0  0  0  0  0  0  0
  150.1975  140.9909  157.3599 H   0  0  0  0  0  0  0  0  0  0  0  0
  148.1674  143.3106  155.6853 H   0  0  0  0  0  0  0  0  0  0  0  0
  146.3057  142.7478  154.1090 H   0  0  0  0  0  0  0  0  0  0  0  0
  146.2111  140.4343  153.1461 H   0  0  0  0  0  0  0  0  0  0  0  0
  148.3507  137.5306  155.1223 H   0  0  0  0  0  0  0  0  0  0  0  0
  149.4004  137.6958  153.7292 H   0  0  0  0  0  0  0  0  0  0  0  0
  150.2194  136.5609  156.4671 H   0  0  0  0  0  0  0  0  0  0  0  0
  150.0226  135.6464  154.9844 H   0  0  0  0  0  0  0  0  0  0  0  0
  152.0682  138.1390  156.6245 H   0  0  0  0  0  0  0  0  0  0  0  0
  153.1403  138.3069  155.2470 H   0  0  0  0  0  0  0  0  0  0  0  0
  151.3546  139.3517  153.8928 H   0  0  0  0  0  0  0  0  0  0  0  0
  151.5225  140.2418  155.3996 H   0  0  0  0  0  0  0  0  0  0  0  0
  1  2  1  0  0  0  0
  1 21  1  0  0  0  0
  1 22  1  0  0  0  0
  1 23  1  0  0  0  0
  2  3  1  0  0  0  0
  2  4  1  0  0  0  0
  2 24  1  0  0  0  0
  3 25  1  0  0  0  0
  3 26  1  0  0  0  0
  3 27  1  0  0  0  0
  4  5  1  0  0  0  0
  4 28  1  0  0  0  0
  4 29  1  0  0  0  0
  5  6  1  0  0  0  0
  5  7  1  0  0  0  0
  5 30  1  0  0  0  0
  6 31  1  0  0  0  0
  6 32  1  0  0  0  0
  6 33  1  0  0  0  0
  7  8  1  0  0  0  0
  7 34  1  0  0  0  0
  8  9  1  0  0  0  0
  8 35  1  0  0  0  0
  8 36  1  0  0  0  0
  9 14  1  0  0  0  0
  9 10  2  0  0  0  0
 10 11  1  0  0  0  0
 10 37  1  0  0  0  0
 11 12  2  0  0  0  0
 11 38  1  0  0  0  0
 12 13  1  0  0  0  0
 12 39  1  0  0  0  0
 13 14  2  0  0  0  0
 14 15  1  0  0  0  0
 15 20  1  0  0  0  0
 15 16  1  0  0  0  0
 16 17  1  0  0  0  0
 16 40  1  0  0  0  0
 16 41  1  0  0  0  0
 17 18  1  0  0  0  0
 17 42  1  0  0  0  0
 17 43  1  0  0  0  0
 18 19  1  0  0  0  0
 19 20  1  0  0  0  0
 19 44  1  0  0  0  0
 19 45  1  0  0  0  0
 20 46  1  0  0  0  0
 20 47  1  0  0  0  0
M  END
> <s_m_source_file>
AV-unprocessed.smi

> <i_m_source_file_index>
3346

> <i_lp_mmshare_version>
43012

> <i_f3d_flags>
0

> <s_epik_input>
W0NIM11bQ0hdKFtDSDNdKVtDSDJdW0NASF0oW0NIM10pW05IXVtDSDJdYzFbY0hdW2NIXVtjSF1uYzFOMltDSDJdW0NIMl1PW0NIMl1bQ0gyXTI=

> <s_epik_cmdline>
J2VwaWtfcHl0aG9uJywgJy1waCcsICc3LjAnLCAnLXRuJywgJzgnLCAnLW1hJywgJzIwMCcsICctbWV0YWxfYmluZGluZycsICctaW1hZScsICc8aW5maWxlLm1hZT4nLCAnLW9tYWUnLCAnPG91dGZpbGUubWFlPic=

> <r_lp_tautomer_probability>
1

> <r_epik_Ionization_Penalty>
2.09752

> <r_epik_Ionization_Penalty_Charging>
0

> <r_epik_Ionization_Penalty_Neutral>
2.09752

> <r_epik_State_Penalty>
2.22589

> <r_epik_Charging_Adjusted_Penalty>
2.22589

> <i_epik_Tot_Q>
0

> <i_epik_Tot_abs_Q>
0

> <r_epik_Metal_State_Penalty>
2.21996

> <b_epik_Metal_Only>
0

> <s_lp_Force_Field>
OPLS_2005

> <r_lp_Energy>
25.807

> <b_lp_Chiralities_Consistent>
1

> <s_lp_Variant>
AV-unprocessed.smi:3346-3

> <Gold.Version>
5.8.1

> <Gold.Id.Protein>
6NUR|6NUR_protein|mol2

> <Gold.PLP.Fitness>
47.1527

> <Gold.PLP.PLP>
-39.4925

> <Gold.PLP.part.hbond>
-1.8065

> <Gold.PLP.part.metal>
0.0000

> <Gold.PLP.part.buried>
0.6294

> <Gold.PLP.part.nonpolar>
-40.2417

> <Gold.PLP.part.repulsive>
0.3800

> <Gold.PLP.ligand.clash>
0.0000

> <Gold.PLP.ligand.torsion>
0.5350

> <Gold.PLP.Chemscore.Hbond>
1.9840

> <Gold.PLP.Chemscore.CHOScore>
0.8562

> <Gold.PLP.Chemscore.Metal>
0.0000

> <Gold.Chemscore.Hbonds>
donor molecule, donor type, donor heavy atom, donor atom, acceptor molecule, acceptor atom, score
      L1  H     7    34       P1  8028  0.82
      P1  H 10752 10763       L1    18  0.99
      L1  C    12    39       P1 10175  0.80

> <Gold.PLP.Chemscore.Internal.Correction>
0.2097

> <Gold.Rescore>
     Score         DG    S(hbond)    S(metal)    S(lipo)     H(rot)  DE(clash)    DE(int)     intcor
     19.83     -21.51       1.90        0.00     116.64       1.55       0.21       1.46       ----

> <Gold.Chemscore.Fitness>
19.8349

> <Gold.Chemscore.DG>
-21.5082

> <Gold.Chemscore.ZeroCoef>
-5.4800

> <Gold.Chemscore.Hbond>
1.9022

> <Gold.Chemscore.Metal>
0.0000

> <Gold.Chemscore.Lipo>
116.6368

> <Gold.Chemscore.Internal_Hbond>
0.0000

> <Gold.Chemscore.DEClash>
0.2100

> <Gold.Chemscore.DEInternal>
1.4633

> <Gold.Chemscore.Rot>
1.5514

> <Gold.Chemscore.Internal.Correction>
   9.000000E+99

> <Gold.Chemscore.Hbonds>
donor molecule, donor type, donor heavy atom, donor atom, acceptor molecule, acceptor atom, score
      L1  H     7    34       P1  8028  0.80
      P1  H 10752 10763       L1    18  0.91

> <Gold.Chemscore.Hbond.Weighted>
-6.3533

> <Gold.Chemscore.Metal.Weighted>
-0.0000

> <Gold.Chemscore.Lipo.Weighted>
-13.6465

> <Gold.Chemscore.Internal_Hbond.Weighted>
0.0000

> <Gold.Chemscore.DEClash.Weighted>
0.2100

> <Gold.Chemscore.DEInternal.Weighted>
1.4633

> <Gold.Chemscore.Rot.Weighted>
3.9715

> <Gold.Chemscore.Internal.Correction.Weighted>
   9.000000E+99

> <Gold.Protein.RotatedTorsions>
[ 6907 6896 6895 6894 ] final -170.65 input  -60.11 | X-H torsion
[ 7974 7965 7964 7962 ] final  145.05 input  175.53 | X-H torsion
[ 8008 7997 7996 7995 ] final  -81.32 input   59.86 | X-H torsion
[ 10167 10162 10161 10158 ] final    5.64 input  -65.29 | X-H torsion
[ 10718 10713 10712 10709 ] final   31.69 input   66.30 | X-H torsion
[ 10763 10752 10751 10750 ] final   41.47 input  -60.55 | X-H torsion
[ 11005 11000 10999 10996 ] final  -37.07 input  -57.11 | X-H torsion

> <Gold.Protein.ActiveResidues>
 VAL166  LYS551  ARG553  GLY616  TRP617  ASP618  TYR619  PRO620  LYS621  CYS622 
 ASP623  PHE694  ASN695  SER759  ASP760  ASP761  ALA762  ILE779  LEU786  VAL792 
 PHE793  MET794  SER795  GLU796  ALA797  LYS798  CYS799  TRP800  GLU811  SER814 

> <Gold.Protein.RotatedAtoms>
  151.5112  133.3484  159.2885 H   0  0  0  0  0  0  0  0  0  0  0  0  # atno 6907 bound_to 6896
  150.8711  134.8087  159.7166 H   0  0  0  0  0  0  0  0  0  0  0  0  # atno 6908 bound_to 6896
  152.4699  134.4996  159.9772 H   0  0  0  0  0  0  0  0  0  0  0  0  # atno 6909 bound_to 6896
  144.8784  139.5737  143.5854 H   0  0  0  0  0  0  0  0  0  0  0  0  # atno 7974 bound_to 7965
  154.5971  140.0649  156.9318 H   0  0  0  0  0  0  0  0  0  0  0  0  # atno 8008 bound_to 7997
  155.2195  140.3329  155.4299 H   0  0  0  0  0  0  0  0  0  0  0  0  # atno 8009 bound_to 7997
  156.2294  140.1834  156.7265 H   0  0  0  0  0  0  0  0  0  0  0  0  # atno 8010 bound_to 7997
  140.6471  143.7636  150.7516 H   0  0  0  0  0  0  0  0  0  0  0  0  # atno 10167 bound_to 10162
  157.2757  130.7230  149.6529 H   0  0  0  0  0  0  0  0  0  0  0  0  # atno 10718 bound_to 10713
  152.9907  135.6161  154.2793 H   0  0  0  0  0  0  0  0  0  0  0  0  # atno 10763 bound_to 10752
  154.2523  135.2785  155.2813 H   0  0  0  0  0  0  0  0  0  0  0  0  # atno 10764 bound_to 10752
  154.5278  135.5797  153.6791 H   0  0  0  0  0  0  0  0  0  0  0  0  # atno 10765 bound_to 10752
  140.9923  133.6998  156.1873 H   0  0  0  0  0  0  0  0  0  0  0  0  # atno 11005 bound_to 11000
  146.2978  139.7332  142.9113 LP  0  0  0  0  0  0  0  0  0  0  0  0  # atno 17320 bound_to 7965
  145.3999  141.0384  143.3076 LP  0  0  0  0  0  0  0  0  0  0  0  0  # atno 17321 bound_to 7965
  140.1279  143.4553  152.2273 LP  0  0  0  0  0  0  0  0  0  0  0  0  # atno 17342 bound_to 10162
  139.5682  144.7448  151.3962 LP  0  0  0  0  0  0  0  0  0  0  0  0  # atno 17343 bound_to 10162
  155.9663  130.4353  150.5088 LP  0  0  0  0  0  0  0  0  0  0  0  0  # atno 17370 bound_to 10713
  157.3021  131.0647  151.2061 LP  0  0  0  0  0  0  0  0  0  0  0  0  # atno 17371 bound_to 10713
  140.7020  134.4554  157.5586 LP  0  0  0  0  0  0  0  0  0  0  0  0  # atno 17394 bound_to 11000
  139.8998  134.8582  156.1944 LP  0  0  0  0  0  0  0  0  0  0  0  0  # atno 17395 bound_to 11000

$$$$
