AV-unprocessed.smi:1760|AV-procd|sdf|7089|dock9
  -GOLD-   22720 8303D 1   1.00000     0.00000
 Structure written by MMmdl.
 44 46  0  0  0  0  0  0  0  0  2 V2000
  148.6607  140.1522  156.8471 O   0  0  0  0  0  0  0  0  0  0  0  0
  149.3040  140.6151  155.9056 C   0  0  0  0  0  0  0  0  0  0  0  0
  150.4693  141.2814  156.0015 N   0  0  0  0  0  0  0  0  0  0  0  0
  151.1912  141.6454  157.1507 C   0  0  0  0  0  0  0  0  0  0  0  0
  151.0352  142.8138  157.8263 C   0  0  0  0  0  0  0  0  0  0  0  0
  151.8264  143.1367  159.0018 C   0  0  0  0  0  0  0  0  0  0  0  0
  151.5879  144.4112  159.7962 C   0  0  0  0  0  0  0  0  0  0  0  0
  152.0301  145.4823  159.1361 F   0  0  0  0  0  0  0  0  0  0  0  0
  150.2835  144.5692  160.0167 F   0  0  0  0  0  0  0  0  0  0  0  0
  152.2056  144.3627  160.9767 F   0  0  0  0  0  0  0  0  0  0  0  0
  152.7207  142.2117  159.3961 C   0  0  0  0  0  0  0  0  0  0  0  0
  152.9024  141.0176  158.6949 N   0  0  0  0  0  0  0  0  0  0  0  0
  152.2002  140.6688  157.5934 C   0  0  0  0  0  0  0  0  0  0  0  0
  152.4198  139.5972  157.0296 O   0  0  0  0  0  0  0  0  0  0  0  0
  148.9281  140.4940  154.6239 N   0  0  0  0  0  0  0  0  0  0  0  0
  147.7325  139.8043  154.1452 C   0  0  2  0  0  0  0  0  0  0  0  0
  147.6855  138.3778  154.7176 C   0  0  0  0  0  0  0  0  0  0  0  0
  146.4982  137.5883  154.1421 C   0  0  0  0  0  0  0  0  0  0  0  0
  146.5475  137.5591  152.6592 N   0  3  1  0  0  0  0  0  0  0  0  0
  145.4846  136.7068  152.0840 C   0  0  0  0  0  0  0  0  0  0  0  0
  145.8054  135.2309  152.1237 C   0  0  0  0  0  0  0  0  0  0  0  0
  145.8960  135.9908  150.8188 C   0  0  0  0  0  0  0  0  0  0  0  0
  146.5445  138.9267  152.0827 C   0  0  0  0  0  0  0  0  0  0  0  0
  147.7331  139.7495  152.6081 C   0  0  0  0  0  0  0  0  0  0  0  0
  153.6041  140.3817  159.0456 H   0  0  0  0  0  0  0  0  0  0  0  0
  150.9176  141.5298  155.1315 H   0  0  0  0  0  0  0  0  0  0  0  0
  150.3280  143.5561  157.4945 H   0  0  0  0  0  0  0  0  0  0  0  0
  153.3526  142.3095  160.2667 H   0  0  0  0  0  0  0  0  0  0  0  0
  149.5245  140.9063  153.9212 H   0  0  0  0  0  0  0  0  0  0  0  0
  146.8314  140.3306  154.4660 H   0  0  0  0  0  0  0  0  0  0  0  0
  148.6142  137.8533  154.4872 H   0  0  0  0  0  0  0  0  0  0  0  0
  147.6118  138.4132  155.8054 H   0  0  0  0  0  0  0  0  0  0  0  0
  146.5167  136.5690  154.5300 H   0  0  0  0  0  0  0  0  0  0  0  0
  145.5568  138.0336  154.4678 H   0  0  0  0  0  0  0  0  0  0  0  0
  144.4611  137.0541  152.2146 H   0  0  0  0  0  0  0  0  0  0  0  0
  146.7389  134.9178  152.5879 H   0  0  0  0  0  0  0  0  0  0  0  0
  144.9736  134.5393  152.2413 H   0  0  0  0  0  0  0  0  0  0  0  0
  145.1236  135.8003  150.0766 H   0  0  0  0  0  0  0  0  0  0  0  0
  146.8894  136.1825  150.4169 H   0  0  0  0  0  0  0  0  0  0  0  0
  146.5965  138.8666  150.9948 H   0  0  0  0  0  0  0  0  0  0  0  0
  145.6046  139.4243  152.3272 H   0  0  0  0  0  0  0  0  0  0  0  0
  147.6925  140.7592  152.1974 H   0  0  0  0  0  0  0  0  0  0  0  0
  148.6647  139.3073  152.2514 H   0  0  0  0  0  0  0  0  0  0  0  0
  147.4280  137.1356  152.4035 H   0  0  0  0  0  0  0  0  0  0  0  0
  1  2  2  0  0  0  0
  2  3  1  0  0  0  0
  2 15  1  0  0  0  0
  3  4  1  0  0  0  0
  3 26  1  0  0  0  0
  4 13  1  0  0  0  0
  4  5  2  0  0  0  0
  5  6  1  0  0  0  0
  5 27  1  0  0  0  0
  6  7  1  0  0  0  0
  6 11  2  0  0  0  0
  7  8  1  0  0  0  0
  7  9  1  0  0  0  0
  7 10  1  0  0  0  0
 11 12  1  0  0  0  0
 11 28  1  0  0  0  0
 12 25  1  0  0  0  0
 12 13  1  0  0  0  0
 13 14  2  0  0  0  0
 15 16  1  0  0  0  0
 15 29  1  0  0  0  0
 16 24  1  0  0  0  0
 16 17  1  0  0  0  0
 16 30  1  0  0  0  0
 17 18  1  0  0  0  0
 17 31  1  0  0  0  0
 17 32  1  0  0  0  0
 18 19  1  0  0  0  0
 18 33  1  0  0  0  0
 18 34  1  0  0  0  0
 19 20  1  0  0  0  0
 19 23  1  0  0  0  0
 19 44  1  0  0  0  0
 20 22  1  0  0  0  0
 20 21  1  0  0  0  0
 20 35  1  0  0  0  0
 21 22  1  0  0  0  0
 21 36  1  0  0  0  0
 21 37  1  0  0  0  0
 22 38  1  0  0  0  0
 22 39  1  0  0  0  0
 23 24  1  0  0  0  0
 23 40  1  0  0  0  0
 23 41  1  0  0  0  0
 24 42  1  0  0  0  0
 24 43  1  0  0  0  0
M  CHG  1  19   1
M  END
> <s_m_source_file>
AV-unprocessed.smi

> <i_m_source_file_index>
1760

> <i_lp_mmshare_version>
43012

> <i_f3d_flags>
0

> <s_epik_input>
W0NIMl0xW0NIMl1bQ0hdMU4oW0NIMl1bQ0gyXTIpW0NIMl1bQ0gyXVtDSF0yW05IXUMoPU8pW05IXWMzW2NIXWMoQyhGKShGKUYpW2NIXVtuSF1jMz1P

> <s_epik_cmdline>
J2VwaWtfcHl0aG9uJywgJy1waCcsICc3LjAnLCAnLXRuJywgJzgnLCAnLW1hJywgJzIwMCcsICctbWV0YWxfYmluZGluZycsICctaW1hZScsICc8aW5maWxlLm1hZT4nLCAnLW9tYWUnLCAnPG91dGZpbGUubWFlPic=

> <r_lp_tautomer_probability>
0.999

> <r_epik_Ionization_Penalty>
0.131122

> <r_epik_Ionization_Penalty_Charging>
0.131104

> <r_epik_Ionization_Penalty_Neutral>
1.84439e-05

> <r_epik_State_Penalty>
0.116042

> <r_epik_Charging_Adjusted_Penalty>
0.247146

> <i_epik_Tot_Q>
1

> <i_epik_Tot_abs_Q>
1

> <r_epik_Metal_State_Penalty>
0.492282

> <b_epik_Metal_Only>
0

> <s_lp_Force_Field>
OPLS_2005

> <r_lp_Energy>
37.3321

> <b_lp_Chiralities_Consistent>
1

> <s_lp_Variant>
AV-unprocessed.smi:1760-1

> <Gold.Version>
5.8.1

> <Gold.Id.Protein>
6NUR|6NUR_protein|mol2

> <Gold.PLP.Fitness>
44.9106

> <Gold.PLP.PLP>
-40.4463

> <Gold.PLP.part.hbond>
-1.9545

> <Gold.PLP.part.metal>
0.0000

> <Gold.PLP.part.buried>
-0.6652

> <Gold.PLP.part.nonpolar>
-37.5708

> <Gold.PLP.part.repulsive>
0.3750

> <Gold.PLP.ligand.clash>
1.1374

> <Gold.PLP.ligand.torsion>
1.7827

> <Gold.PLP.Chemscore.Hbond>
2.6232

> <Gold.PLP.Chemscore.CHOScore>
0.0000

> <Gold.PLP.Chemscore.Metal>
0.0000

> <Gold.Chemscore.Hbonds>
donor molecule, donor type, donor heavy atom, donor atom, acceptor molecule, acceptor atom, score
      L1  H    19    44       P1  7948  2.00
      P1  H  7997  8008       L1    14  0.61

> <Gold.PLP.Chemscore.Internal.Correction>
1.2977

> <Gold.Rescore>
     Score         DG    S(hbond)    S(metal)    S(lipo)     H(rot)  DE(clash)    DE(int)     intcor
     12.51     -16.79       1.02        0.00      95.81       1.29       1.80       2.48       ----

> <Gold.Chemscore.Fitness>
12.5138

> <Gold.Chemscore.DG>
-16.7911

> <Gold.Chemscore.ZeroCoef>
-5.4800

> <Gold.Chemscore.Hbond>
1.0171

> <Gold.Chemscore.Metal>
0.0000

> <Gold.Chemscore.Lipo>
95.8109

> <Gold.Chemscore.Internal_Hbond>
0.0000

> <Gold.Chemscore.DEClash>
1.7984

> <Gold.Chemscore.DEInternal>
2.4789

> <Gold.Chemscore.Rot>
1.2875

> <Gold.Chemscore.Internal.Correction>
   9.000000E+99

> <Gold.Chemscore.Hbonds>
donor molecule, donor type, donor heavy atom, donor atom, acceptor molecule, acceptor atom, score
      L1  H    19    44       P1  7948  1.00
      P1  H  7997  8008       L1    14  0.05

> <Gold.Chemscore.Hbond.Weighted>
-3.3972

> <Gold.Chemscore.Metal.Weighted>
-0.0000

> <Gold.Chemscore.Lipo.Weighted>
-11.2099

> <Gold.Chemscore.Internal_Hbond.Weighted>
0.0000

> <Gold.Chemscore.DEClash.Weighted>
1.7984

> <Gold.Chemscore.DEInternal.Weighted>
2.4789

> <Gold.Chemscore.Rot.Weighted>
3.2960

> <Gold.Chemscore.Internal.Correction.Weighted>
   9.000000E+99

> <Gold.Protein.RotatedTorsions>
[ 6907 6896 6895 6894 ] final  175.09 input  -60.11 | X-H torsion
[ 7974 7965 7964 7962 ] final    7.54 input  175.53 | X-H torsion
[ 8008 7997 7996 7995 ] final  -61.86 input   59.86 | X-H torsion
[ 10167 10162 10161 10158 ] final -156.56 input  -65.29 | X-H torsion
[ 10718 10713 10712 10709 ] final   80.83 input   66.30 | X-H torsion
[ 10763 10752 10751 10750 ] final  150.26 input  -60.55 | X-H torsion
[ 11005 11000 10999 10996 ] final  105.59 input  -57.11 | X-H torsion

> <Gold.Protein.ActiveResidues>
 VAL166  LYS551  ARG553  GLY616  TRP617  ASP618  TYR619  PRO620  LYS621  CYS622 
 ASP623  PHE694  ASN695  SER759  ASP760  ASP761  ALA762  ILE779  LEU786  VAL792 
 PHE793  MET794  SER795  GLU796  ALA797  LYS798  CYS799  TRP800  GLU811  SER814 

> <Gold.Protein.RotatedAtoms>
  151.7418  133.3322  159.3367 H   0  0  0  0  0  0  0  0  0  0  0  0  # atno 6907 bound_to 6896
  150.7570  134.6271  159.6176 H   0  0  0  0  0  0  0  0  0  0  0  0  # atno 6908 bound_to 6896
  152.3525  134.6987  160.0283 H   0  0  0  0  0  0  0  0  0  0  0  0  # atno 6909 bound_to 6896
  146.2425  140.0068  142.8410 H   0  0  0  0  0  0  0  0  0  0  0  0  # atno 7974 bound_to 7965
  154.4469  140.1008  156.6497 H   0  0  0  0  0  0  0  0  0  0  0  0  # atno 8008 bound_to 7997
  155.5411  140.3483  155.4428 H   0  0  0  0  0  0  0  0  0  0  0  0  # atno 8009 bound_to 7997
  156.0596  140.1323  156.9945 H   0  0  0  0  0  0  0  0  0  0  0  0  # atno 8010 bound_to 7997
  139.6840  143.9532  152.2352 H   0  0  0  0  0  0  0  0  0  0  0  0  # atno 10167 bound_to 10162
  157.6817  130.9977  150.2137 H   0  0  0  0  0  0  0  0  0  0  0  0  # atno 10718 bound_to 10713
  154.0846  135.2857  155.3283 H   0  0  0  0  0  0  0  0  0  0  0  0  # atno 10763 bound_to 10752
  154.6661  135.5317  153.8082 H   0  0  0  0  0  0  0  0  0  0  0  0  # atno 10764 bound_to 10752
  153.0436  135.6546  154.1019 H   0  0  0  0  0  0  0  0  0  0  0  0  # atno 10765 bound_to 10752
  139.8804  134.9341  156.5537 H   0  0  0  0  0  0  0  0  0  0  0  0  # atno 11005 bound_to 11000
  145.1364  140.9547  143.4514 LP  0  0  0  0  0  0  0  0  0  0  0  0  # atno 17320 bound_to 7965
  145.0338  139.3318  143.6011 LP  0  0  0  0  0  0  0  0  0  0  0  0  # atno 17321 bound_to 7965
  139.9330  144.6729  150.8343 LP  0  0  0  0  0  0  0  0  0  0  0  0  # atno 17342 bound_to 10162
  140.7662  143.3296  151.2440 LP  0  0  0  0  0  0  0  0  0  0  0  0  # atno 17343 bound_to 10162
  156.2803  130.3732  149.7942 LP  0  0  0  0  0  0  0  0  0  0  0  0  # atno 17370 bound_to 10713
  156.5633  130.8393  151.3335 LP  0  0  0  0  0  0  0  0  0  0  0  0  # atno 17371 bound_to 10713
  140.8221  133.8346  155.8905 LP  0  0  0  0  0  0  0  0  0  0  0  0  # atno 17394 bound_to 11000
  140.9409  134.1902  157.4798 LP  0  0  0  0  0  0  0  0  0  0  0  0  # atno 17395 bound_to 11000

$$$$
