AV-unprocessed.smi:1218|AV-procd|sdf|5109|dock1
  -GOLD-   22720 4163D 1   1.00000     0.00000
 Structure written by MMmdl.
 45 46  0  0  0  0  0  0  0  0  2 V2000
  144.7255  132.2051  150.2826 C   0  0  0  0  0  0  0  0  0  0  0  0
  145.1087  133.0084  151.5370 C   0  0  0  0  0  0  0  0  0  0  0  0
  143.8940  133.7836  152.0689 C   0  0  0  0  0  0  0  0  0  0  0  0
  146.2884  133.9681  151.2688 C   0  0  0  0  0  0  0  0  0  0  0  0
  147.1418  134.1955  152.4633 N   0  3  2  0  0  0  0  0  0  0  0  0
  148.0062  133.0394  152.8073 C   0  0  0  0  0  0  0  0  0  0  0  0
  148.8786  133.3664  154.0300 C   0  0  0  0  0  0  0  0  0  0  0  0
  148.0469  133.7418  155.1195 O   0  0  0  0  0  0  0  0  0  0  0  0
  147.2871  134.9133  154.8386 C   0  0  2  0  0  0  0  0  0  0  0  0
  146.5033  135.2964  156.1062 C   0  0  0  0  0  0  0  0  0  0  0  0
  147.3980  135.5348  157.2326 N   0  0  0  0  0  0  0  0  0  0  0  0
  147.1609  136.3950  158.2346 C   0  0  0  0  0  0  0  0  0  0  0  0
  146.1226  137.0485  158.3361 O   0  0  0  0  0  0  0  0  0  0  0  0
  148.2759  136.5640  159.2661 C   0  0  0  0  0  0  0  0  0  0  0  0
  147.7814  136.2968  160.6044 N   0  0  0  0  0  0  0  0  0  0  0  0
  147.4900  135.0785  161.1825 C   0  0  0  0  0  0  0  0  0  0  0  0
  147.0457  135.3263  162.4497 C   0  0  0  0  0  0  0  0  0  0  0  0
  147.0995  136.7443  162.5560 C   0  0  0  0  0  0  0  0  0  0  0  0
  147.5375  137.3229  161.4495 N   0  0  0  0  0  0  0  0  0  0  0  0
  146.3561  134.6214  153.6462 C   0  0  0  0  0  0  0  0  0  0  0  0
  144.4252  132.8629  149.4662 H   0  0  0  0  0  0  0  0  0  0  0  0
  143.8928  131.5316  150.4883 H   0  0  0  0  0  0  0  0  0  0  0  0
  145.5561  131.5937  149.9295 H   0  0  0  0  0  0  0  0  0  0  0  0
  145.3911  132.3003  152.3155 H   0  0  0  0  0  0  0  0  0  0  0  0
  143.5397  134.5152  151.3419 H   0  0  0  0  0  0  0  0  0  0  0  0
  144.1404  134.3184  152.9867 H   0  0  0  0  0  0  0  0  0  0  0  0
  143.0657  133.1112  152.2952 H   0  0  0  0  0  0  0  0  0  0  0  0
  146.8951  133.5464  150.4657 H   0  0  0  0  0  0  0  0  0  0  0  0
  145.9263  134.9297  150.9014 H   0  0  0  0  0  0  0  0  0  0  0  0
  147.3848  132.1674  153.0176 H   0  0  0  0  0  0  0  0  0  0  0  0
  148.6508  132.7777  151.9692 H   0  0  0  0  0  0  0  0  0  0  0  0
  149.4644  132.4933  154.3178 H   0  0  0  0  0  0  0  0  0  0  0  0
  149.5873  134.1650  153.8039 H   0  0  0  0  0  0  0  0  0  0  0  0
  147.9627  135.7286  154.5729 H   0  0  0  0  0  0  0  0  0  0  0  0
  145.8951  136.1842  155.9256 H   0  0  0  0  0  0  0  0  0  0  0  0
  145.8122  134.4978  156.3772 H   0  0  0  0  0  0  0  0  0  0  0  0
  148.2807  135.0437  157.2281 H   0  0  0  0  0  0  0  0  0  0  0  0
  149.0907  135.8732  159.0457 H   0  0  0  0  0  0  0  0  0  0  0  0
  148.6904  137.5730  159.2265 H   0  0  0  0  0  0  0  0  0  0  0  0
  147.6208  134.1482  160.6493 H   0  0  0  0  0  0  0  0  0  0  0  0
  146.7303  134.6044  163.1884 H   0  0  0  0  0  0  0  0  0  0  0  0
  146.8339  137.3658  163.3985 H   0  0  0  0  0  0  0  0  0  0  0  0
  145.7838  135.5176  153.4024 H   0  0  0  0  0  0  0  0  0  0  0  0
  145.6380  133.8423  153.9075 H   0  0  0  0  0  0  0  0  0  0  0  0
  147.7530  134.9676  152.2379 H   0  0  0  0  0  0  0  0  0  0  0  0
  1  2  1  0  0  0  0
  1 21  1  0  0  0  0
  1 22  1  0  0  0  0
  1 23  1  0  0  0  0
  2  3  1  0  0  0  0
  2  4  1  0  0  0  0
  2 24  1  0  0  0  0
  3 25  1  0  0  0  0
  3 26  1  0  0  0  0
  3 27  1  0  0  0  0
  4  5  1  0  0  0  0
  4 28  1  0  0  0  0
  4 29  1  0  0  0  0
  5 20  1  0  0  0  0
  5  6  1  0  0  0  0
  5 45  1  0  0  0  0
  6  7  1  0  0  0  0
  6 30  1  0  0  0  0
  6 31  1  0  0  0  0
  7  8  1  0  0  0  0
  7 32  1  0  0  0  0
  7 33  1  0  0  0  0
  8  9  1  0  0  0  0
  9 10  1  0  0  0  0
  9 20  1  0  0  0  0
  9 34  1  0  0  0  0
 10 11  1  0  0  0  0
 10 35  1  0  0  0  0
 10 36  1  0  0  0  0
 11 12  1  0  0  0  0
 11 37  1  0  0  0  0
 12 13  2  0  0  0  0
 12 14  1  0  0  0  0
 14 15  1  0  0  0  0
 14 38  1  0  0  0  0
 14 39  1  0  0  0  0
 15 19  1  0  0  0  0
 15 16  1  0  0  0  0
 16 17  2  0  0  0  0
 16 40  1  0  0  0  0
 17 18  1  0  0  0  0
 17 41  1  0  0  0  0
 18 19  2  0  0  0  0
 18 42  1  0  0  0  0
 20 43  1  0  0  0  0
 20 44  1  0  0  0  0
M  CHG  1   5   1
M  END
> <s_m_source_file>
AV-unprocessed.smi

> <i_m_source_file_index>
1218

> <i_lp_mmshare_version>
43012

> <i_f3d_flags>
0

> <s_epik_input>
W0NIM11bQ0hdKFtDSDNdKVtDSDJdTjFbQ0gyXVtDSDJdT1tDQEhdKFtDSDJdMSlbQ0gyXVtOSF1DKD1PKVtDSDJdbjJbY0hdW2NIXVtjSF1uMg==

> <s_epik_cmdline>
J2VwaWtfcHl0aG9uJywgJy1waCcsICc3LjAnLCAnLXRuJywgJzgnLCAnLW1hJywgJzIwMCcsICctbWV0YWxfYmluZGluZycsICctaW1hZScsICc8aW5maWxlLm1hZT4nLCAnLW9tYWUnLCAnPG91dGZpbGUubWFlPic=

> <r_lp_tautomer_probability>
1

> <r_epik_Ionization_Penalty>
0.0995066

> <r_epik_Ionization_Penalty_Charging>
0.0994921

> <r_epik_Ionization_Penalty_Neutral>
1.44634e-05

> <r_epik_State_Penalty>
0.0895432

> <r_epik_Charging_Adjusted_Penalty>
0.189035

> <i_epik_Tot_Q>
1

> <i_epik_Tot_abs_Q>
1

> <r_epik_Metal_State_Penalty>
0.0895432

> <b_epik_Metal_Only>
0

> <s_lp_Force_Field>
OPLS_2005

> <r_lp_Energy>
17.6202

> <b_lp_Chiralities_Consistent>
1

> <s_lp_Variant>
AV-unprocessed.smi:1218-4

> <Gold.Version>
5.8.1

> <Gold.Id.Protein>
6NUR|6NUR_protein|mol2

> <Gold.PLP.Fitness>
45.1102

> <Gold.PLP.PLP>
-35.0641

> <Gold.PLP.part.hbond>
-3.0000

> <Gold.PLP.part.metal>
0.0000

> <Gold.PLP.part.buried>
-4.8954

> <Gold.PLP.part.nonpolar>
-27.0832

> <Gold.PLP.part.repulsive>
0.0659

> <Gold.PLP.ligand.clash>
0.0000

> <Gold.PLP.ligand.torsion>
0.8161

> <Gold.PLP.Chemscore.Hbond>
3.8480

> <Gold.PLP.Chemscore.CHOScore>
0.0000

> <Gold.PLP.Chemscore.Metal>
0.0000

> <Gold.Chemscore.Hbonds>
donor molecule, donor type, donor heavy atom, donor atom, acceptor molecule, acceptor atom, score
      L1  H     5    45       P1  7948  2.00
      P1  H  6931  6943       L1    19  0.88
      P1  H  6934  6947       L1    19  0.83

> <Gold.PLP.Chemscore.Internal.Correction>
0.1343

> <Gold.Rescore>
     Score         DG    S(hbond)    S(metal)    S(lipo)     H(rot)  DE(clash)    DE(int)     intcor
     16.53     -17.32       2.43        0.00      74.68       1.96       0.01       0.78       ----

> <Gold.Chemscore.Fitness>
16.5309

> <Gold.Chemscore.DG>
-17.3226

> <Gold.Chemscore.ZeroCoef>
-5.4800

> <Gold.Chemscore.Hbond>
2.4339

> <Gold.Chemscore.Metal>
0.0000

> <Gold.Chemscore.Lipo>
74.6751

> <Gold.Chemscore.Internal_Hbond>
0.0000

> <Gold.Chemscore.DEClash>
0.0121

> <Gold.Chemscore.DEInternal>
0.7795

> <Gold.Chemscore.Rot>
1.9624

> <Gold.Chemscore.Internal.Correction>
   9.000000E+99

> <Gold.Chemscore.Hbonds>
donor molecule, donor type, donor heavy atom, donor atom, acceptor molecule, acceptor atom, score
      L1  H     5    45       P1  7948  0.88
      P1  H  6931  6943       L1    19  0.46
      P1  H  6934  6947       L1    19  0.83

> <Gold.Chemscore.Hbond.Weighted>
-8.1293

> <Gold.Chemscore.Metal.Weighted>
-0.0000

> <Gold.Chemscore.Lipo.Weighted>
-8.7370

> <Gold.Chemscore.Internal_Hbond.Weighted>
0.0000

> <Gold.Chemscore.DEClash.Weighted>
0.0121

> <Gold.Chemscore.DEInternal.Weighted>
0.7795

> <Gold.Chemscore.Rot.Weighted>
5.0237

> <Gold.Chemscore.Internal.Correction.Weighted>
   9.000000E+99

> <Gold.Protein.RotatedTorsions>
[ 6907 6896 6895 6894 ] final -159.90 input  -60.11 | X-H torsion
[ 7974 7965 7964 7962 ] final   85.28 input  175.53 | X-H torsion
[ 8008 7997 7996 7995 ] final  -37.62 input   59.86 | X-H torsion
[ 10167 10162 10161 10158 ] final  -14.38 input  -65.29 | X-H torsion
[ 10718 10713 10712 10709 ] final  -86.06 input   66.30 | X-H torsion
[ 10763 10752 10751 10750 ] final   68.90 input  -60.55 | X-H torsion
[ 11005 11000 10999 10996 ] final  141.03 input  -57.11 | X-H torsion

> <Gold.Protein.ActiveResidues>
 VAL166  LYS551  ARG553  GLY616  TRP617  ASP618  TYR619  PRO620  LYS621  CYS622 
 ASP623  PHE694  ASN695  SER759  ASP760  ASP761  ALA762  ILE779  LEU786  VAL792 
 PHE793  MET794  SER795  GLU796  ALA797  LYS798  CYS799  TRP800  GLU811  SER814 

> <Gold.Protein.RotatedAtoms>
  151.3408  133.3963  159.2670 H   0  0  0  0  0  0  0  0  0  0  0  0  # atno 6907 bound_to 6896
  150.9880  134.9221  159.7893 H   0  0  0  0  0  0  0  0  0  0  0  0  # atno 6908 bound_to 6896
  152.5238  134.3372  159.9256 H   0  0  0  0  0  0  0  0  0  0  0  0  # atno 6909 bound_to 6896
  145.5876  139.2333  143.2318 H   0  0  0  0  0  0  0  0  0  0  0  0  # atno 7974 bound_to 7965
  154.4050  140.1599  156.2566 H   0  0  0  0  0  0  0  0  0  0  0  0  # atno 8008 bound_to 7997
  155.9073  140.3429  155.6049 H   0  0  0  0  0  0  0  0  0  0  0  0  # atno 8009 bound_to 7997
  155.7378  140.0788  157.2250 H   0  0  0  0  0  0  0  0  0  0  0  0  # atno 8010 bound_to 7997
  140.7200  143.5328  150.9500 H   0  0  0  0  0  0  0  0  0  0  0  0  # atno 10167 bound_to 10162
  155.9992  130.4752  150.4657 H   0  0  0  0  0  0  0  0  0  0  0  0  # atno 10718 bound_to 10713
  153.0259  135.5230  154.7206 H   0  0  0  0  0  0  0  0  0  0  0  0  # atno 10763 bound_to 10752
  154.6262  135.2895  155.0271 H   0  0  0  0  0  0  0  0  0  0  0  0  # atno 10764 bound_to 10752
  154.1240  135.6603  153.4961 H   0  0  0  0  0  0  0  0  0  0  0  0  # atno 10765 bound_to 10752
  140.0371  134.9323  157.0773 H   0  0  0  0  0  0  0  0  0  0  0  0  # atno 11005 bound_to 11000
  146.1671  140.6702  142.9250 LP  0  0  0  0  0  0  0  0  0  0  0  0  # atno 17320 bound_to 7965
  144.7366  140.4825  143.6899 LP  0  0  0  0  0  0  0  0  0  0  0  0  # atno 17321 bound_to 7965
  139.9049  143.6791  152.3125 LP  0  0  0  0  0  0  0  0  0  0  0  0  # atno 17342 bound_to 10162
  139.7153  144.7613  151.1044 LP  0  0  0  0  0  0  0  0  0  0  0  0  # atno 17343 bound_to 10162
  157.2677  131.0580  151.2280 LP  0  0  0  0  0  0  0  0  0  0  0  0  # atno 17370 bound_to 10713
  157.3372  130.7015  149.6359 LP  0  0  0  0  0  0  0  0  0  0  0  0  # atno 17371 bound_to 10713
  140.4129  134.1962  155.7163 LP  0  0  0  0  0  0  0  0  0  0  0  0  # atno 17394 bound_to 11000
  141.1863  133.8305  157.1073 LP  0  0  0  0  0  0  0  0  0  0  0  0  # atno 17395 bound_to 11000

$$$$
