AV-unprocessed.smi:1211|AV-procd|sdf|5078|dock5
  -GOLD-   22720 4123D 1   1.00000     0.00000
 Structure written by MMmdl.
 47 49  0  0  0  0  0  0  0  0  1 V2000
  147.4395  132.7592  152.5544 C   0  0  0  0  0  0  0  0  0  0  0  0
  146.1970  133.0559  151.7303 C   0  0  0  0  0  0  0  0  0  0  0  0
  145.5218  131.9932  151.0931 C   0  0  0  0  0  0  0  0  0  0  0  0
  144.3726  132.2686  150.3322 C   0  0  0  0  0  0  0  0  0  0  0  0
  143.9440  133.6039  150.2417 C   0  0  0  0  0  0  0  0  0  0  0  0
  144.5829  134.6255  150.8473 N   0  0  0  0  0  0  0  0  0  0  0  0
  145.6943  134.3768  151.5847 C   0  0  0  0  0  0  0  0  0  0  0  0
  146.4212  135.4045  152.2486 N   0  0  0  0  0  0  0  0  0  0  0  0
  145.9490  136.4043  153.0138 C   0  0  0  0  0  0  0  0  0  0  0  0
  144.7638  136.6017  153.2833 O   0  0  0  0  0  0  0  0  0  0  0  0
  146.9446  137.1777  153.4634 N   0  0  0  0  0  0  0  0  0  0  0  0
  146.7696  138.3359  154.3341 C   0  0  0  0  0  0  0  0  0  0  0  0
  148.1394  138.9303  154.7945 C   0  0  1  0  0  0  0  0  0  0  0  0
  149.1989  137.8755  154.7601 N   0  0  0  0  0  0  0  0  0  0  0  0
  150.5792  138.3349  154.9718 C   0  0  0  0  0  0  0  0  0  0  0  0
  151.6035  137.1948  154.8342 C   0  0  0  0  0  0  0  0  0  0  0  0
  151.2836  136.1462  155.7382 O   0  0  0  0  0  0  0  0  0  0  0  0
  149.9818  135.6226  155.5123 C   0  0  0  0  0  0  0  0  0  0  0  0
  148.9409  136.7442  155.6616 C   0  0  0  0  0  0  0  0  0  0  0  0
  148.4510  140.1501  153.8791 C   0  0  0  0  0  0  0  0  0  0  0  0
  147.5011  141.3015  154.2281 C   0  0  0  0  0  0  0  0  0  0  0  0
  147.1403  141.1874  155.9963 S   0  0  0  0  0  0  0  0  0  0  0  0
  147.9485  139.5748  156.1913 C   0  0  0  0  0  0  0  0  0  0  0  0
  147.6765  131.6950  152.5457 H   0  0  0  0  0  0  0  0  0  0  0  0
  147.2908  133.0612  153.5916 H   0  0  0  0  0  0  0  0  0  0  0  0
  148.2998  133.2974  152.1560 H   0  0  0  0  0  0  0  0  0  0  0  0
  145.8777  130.9774  151.1845 H   0  0  0  0  0  0  0  0  0  0  0  0
  143.8338  131.4776  149.8320 H   0  0  0  0  0  0  0  0  0  0  0  0
  143.0655  133.8591  149.6678 H   0  0  0  0  0  0  0  0  0  0  0  0
  147.4223  135.3720  152.1257 H   0  0  0  0  0  0  0  0  0  0  0  0
  147.8918  136.9469  153.2013 H   0  0  0  0  0  0  0  0  0  0  0  0
  146.1683  139.0762  153.8069 H   0  0  0  0  0  0  0  0  0  0  0  0
  146.1529  138.0482  155.1855 H   0  0  0  0  0  0  0  0  0  0  0  0
  150.8584  139.0889  154.2401 H   0  0  0  0  0  0  0  0  0  0  0  0
  150.6881  138.7858  155.9574 H   0  0  0  0  0  0  0  0  0  0  0  0
  151.6204  136.8118  153.8126 H   0  0  0  0  0  0  0  0  0  0  0  0
  152.6065  137.5601  155.0546 H   0  0  0  0  0  0  0  0  0  0  0  0
  149.9267  135.1748  154.5189 H   0  0  0  0  0  0  0  0  0  0  0  0
  149.7881  134.8280  156.2329 H   0  0  0  0  0  0  0  0  0  0  0  0
  148.9341  137.0867  156.6970 H   0  0  0  0  0  0  0  0  0  0  0  0
  147.9651  136.3035  155.4701 H   0  0  0  0  0  0  0  0  0  0  0  0
  149.4489  140.5399  154.0656 H   0  0  0  0  0  0  0  0  0  0  0  0
  148.4109  139.9040  152.8177 H   0  0  0  0  0  0  0  0  0  0  0  0
  147.9348  142.2718  153.9857 H   0  0  0  0  0  0  0  0  0  0  0  0
  146.5677  141.2173  153.6714 H   0  0  0  0  0  0  0  0  0  0  0  0
  147.3727  138.9440  156.8693 H   0  0  0  0  0  0  0  0  0  0  0  0
  148.9038  139.7695  156.6757 H   0  0  0  0  0  0  0  0  0  0  0  0
  1  2  1  0  0  0  0
  1 24  1  0  0  0  0
  1 25  1  0  0  0  0
  1 26  1  0  0  0  0
  2  7  1  0  0  0  0
  2  3  2  0  0  0  0
  3  4  1  0  0  0  0
  3 27  1  0  0  0  0
  4  5  2  0  0  0  0
  4 28  1  0  0  0  0
  5  6  1  0  0  0  0
  5 29  1  0  0  0  0
  6  7  2  0  0  0  0
  7  8  1  0  0  0  0
  8  9  1  0  0  0  0
  8 30  1  0  0  0  0
  9 10  2  0  0  0  0
  9 11  1  0  0  0  0
 11 12  1  0  0  0  0
 11 31  1  0  0  0  0
 12 13  1  0  0  0  0
 12 32  1  0  0  0  0
 12 33  1  0  0  0  0
 13 23  1  0  0  0  0
 13 14  1  0  0  0  0
 13 20  1  0  0  0  0
 14 19  1  0  0  0  0
 14 15  1  0  0  0  0
 15 16  1  0  0  0  0
 15 34  1  0  0  0  0
 15 35  1  0  0  0  0
 16 17  1  0  0  0  0
 16 36  1  0  0  0  0
 16 37  1  0  0  0  0
 17 18  1  0  0  0  0
 18 19  1  0  0  0  0
 18 38  1  0  0  0  0
 18 39  1  0  0  0  0
 19 40  1  0  0  0  0
 19 41  1  0  0  0  0
 20 21  1  0  0  0  0
 20 42  1  0  0  0  0
 20 43  1  0  0  0  0
 21 22  1  0  0  0  0
 21 44  1  0  0  0  0
 21 45  1  0  0  0  0
 22 23  1  0  0  0  0
 23 46  1  0  0  0  0
 23 47  1  0  0  0  0
M  END
> <s_m_source_file>
AV-unprocessed.smi

> <i_m_source_file_index>
1211

> <i_lp_mmshare_version>
43012

> <i_f3d_flags>
0

> <s_epik_input>
W0NIM11jMVtjSF1bY0hdW2NIXW5jMVtOSF1DKD1PKVtOSF1bQ0gyXVtDQF0yKFtDSDJdW0NIMl1TW0NIMl0yKU4zW0NIMl1bQ0gyXU9bQ0gyXVtDSDJdMw==

> <s_epik_cmdline>
J2VwaWtfcHl0aG9uJywgJy1waCcsICc3LjAnLCAnLXRuJywgJzgnLCAnLW1hJywgJzIwMCcsICctbWV0YWxfYmluZGluZycsICctaW1hZScsICc8aW5maWxlLm1hZT4nLCAnLW9tYWUnLCAnPG91dGZpbGUubWFlPic=

> <r_epik_Ionization_Penalty>
0.0195636

> <r_epik_Ionization_Penalty_Charging>
0

> <r_epik_Ionization_Penalty_Neutral>
0.0195636

> <r_epik_State_Penalty>
0.0155843

> <r_epik_Charging_Adjusted_Penalty>
0.0155843

> <i_epik_Tot_Q>
0

> <i_epik_Tot_abs_Q>
0

> <r_epik_Metal_State_Penalty>
0.0155842

> <b_epik_Metal_Only>
0

> <s_lp_Force_Field>
OPLS_2005

> <r_lp_Energy>
55.2683

> <b_lp_Chiralities_Consistent>
1

> <s_lp_Variant>
AV-unprocessed.smi:1211-1

> <Gold.Version>
5.8.1

> <Gold.Id.Protein>
6NUR|6NUR_protein|mol2

> <Gold.PLP.Fitness>
43.6404

> <Gold.PLP.PLP>
-34.2887

> <Gold.PLP.part.hbond>
-2.9583

> <Gold.PLP.part.metal>
0.0000

> <Gold.PLP.part.buried>
-4.6847

> <Gold.PLP.part.nonpolar>
-28.3578

> <Gold.PLP.part.repulsive>
0.6079

> <Gold.PLP.ligand.clash>
0.0000

> <Gold.PLP.ligand.torsion>
1.1635

> <Gold.PLP.Chemscore.Hbond>
2.8640

> <Gold.PLP.Chemscore.CHOScore>
1.0000

> <Gold.PLP.Chemscore.Metal>
0.0000

> <Gold.Chemscore.Hbonds>
donor molecule, donor type, donor heavy atom, donor atom, acceptor molecule, acceptor atom, score
      L1  H     8    30       P1  7948  1.00
      L1  H    11    31       P1  7948  0.90
      L1  C     5    29       P1 10186  1.00

> <Gold.PLP.Chemscore.Internal.Correction>
0.0866

> <Gold.Rescore>
     Score         DG    S(hbond)    S(metal)    S(lipo)     H(rot)  DE(clash)    DE(int)     intcor
     17.60     -19.27       2.23        0.00      85.70       1.44       0.48       1.20       ----

> <Gold.Chemscore.Fitness>
17.5994

> <Gold.Chemscore.DG>
-19.2745

> <Gold.Chemscore.ZeroCoef>
-5.4800

> <Gold.Chemscore.Hbond>
2.2320

> <Gold.Chemscore.Metal>
0.0000

> <Gold.Chemscore.Lipo>
85.7037

> <Gold.Chemscore.Internal_Hbond>
0.0000

> <Gold.Chemscore.DEClash>
0.4786

> <Gold.Chemscore.DEInternal>
1.1965

> <Gold.Chemscore.Rot>
1.4405

> <Gold.Chemscore.Internal.Correction>
   9.000000E+99

> <Gold.Chemscore.Hbonds>
donor molecule, donor type, donor heavy atom, donor atom, acceptor molecule, acceptor atom, score
      L1  H     8    30       P1  7948  0.94
      L1  H    11    31       P1  7948  0.88

> <Gold.Chemscore.Hbond.Weighted>
-7.4547

> <Gold.Chemscore.Metal.Weighted>
-0.0000

> <Gold.Chemscore.Lipo.Weighted>
-10.0273

> <Gold.Chemscore.Internal_Hbond.Weighted>
0.0000

> <Gold.Chemscore.DEClash.Weighted>
0.4786

> <Gold.Chemscore.DEInternal.Weighted>
1.1965

> <Gold.Chemscore.Rot.Weighted>
3.6876

> <Gold.Chemscore.Internal.Correction.Weighted>
   9.000000E+99

> <Gold.Protein.RotatedTorsions>
[ 6907 6896 6895 6894 ] final -116.08 input  -60.11 | X-H torsion
[ 7974 7965 7964 7962 ] final  168.17 input  175.53 | X-H torsion
[ 8008 7997 7996 7995 ] final  -82.10 input   59.86 | X-H torsion
[ 10167 10162 10161 10158 ] final  -64.63 input  -65.29 | X-H torsion
[ 10718 10713 10712 10709 ] final  -81.49 input   66.30 | X-H torsion
[ 10763 10752 10751 10750 ] final  -54.03 input  -60.55 | X-H torsion
[ 11005 11000 10999 10996 ] final  -74.23 input  -57.11 | X-H torsion

> <Gold.Protein.ActiveResidues>
 VAL166  LYS551  ARG553  GLY616  TRP617  ASP618  TYR619  PRO620  LYS621  CYS622 
 ASP623  PHE694  ASN695  SER759  ASP760  ASP761  ALA762  ILE779  LEU786  VAL792 
 PHE793  MET794  SER795  GLU796  ALA797  LYS798  CYS799  TRP800  GLU811  SER814 

> <Gold.Protein.RotatedAtoms>
  150.8028  133.8567  159.3220 H   0  0  0  0  0  0  0  0  0  0  0  0  # atno 6907 bound_to 6896
  151.6375  135.1014  160.0144 H   0  0  0  0  0  0  0  0  0  0  0  0  # atno 6908 bound_to 6896
  152.4116  133.6933  159.6438 H   0  0  0  0  0  0  0  0  0  0  0  0  # atno 6909 bound_to 6896
  144.7398  139.8868  143.6400 H   0  0  0  0  0  0  0  0  0  0  0  0  # atno 7974 bound_to 7965
  154.6051  140.0638  156.9420 H   0  0  0  0  0  0  0  0  0  0  0  0  # atno 8008 bound_to 7997
  155.2066  140.3319  155.4316 H   0  0  0  0  0  0  0  0  0  0  0  0  # atno 8009 bound_to 7997
  156.2342  140.1855  156.7146 H   0  0  0  0  0  0  0  0  0  0  0  0  # atno 8010 bound_to 7997
  140.5787  143.2325  151.6388 H   0  0  0  0  0  0  0  0  0  0  0  0  # atno 10167 bound_to 10162
  156.0049  130.4605  150.3960 H   0  0  0  0  0  0  0  0  0  0  0  0  # atno 10718 bound_to 10713
  154.1682  135.6463  153.5003 H   0  0  0  0  0  0  0  0  0  0  0  0  # atno 10763 bound_to 10752
  153.0091  135.5377  154.6640 H   0  0  0  0  0  0  0  0  0  0  0  0  # atno 10764 bound_to 10752
  154.5972  135.2940  155.0546 H   0  0  0  0  0  0  0  0  0  0  0  0  # atno 10765 bound_to 10752
  141.1632  133.6904  156.7333 H   0  0  0  0  0  0  0  0  0  0  0  0  # atno 11005 bound_to 11000
  146.1171  139.4183  143.0251 LP  0  0  0  0  0  0  0  0  0  0  0  0  # atno 17320 bound_to 7965
  145.7359  141.0026  143.1327 LP  0  0  0  0  0  0  0  0  0  0  0  0  # atno 17321 bound_to 7965
  139.5157  144.3369  152.0775 LP  0  0  0  0  0  0  0  0  0  0  0  0  # atno 17342 bound_to 10162
  140.2517  144.4162  150.6219 LP  0  0  0  0  0  0  0  0  0  0  0  0  # atno 17343 bound_to 10162
  157.2032  131.0443  151.2639 LP  0  0  0  0  0  0  0  0  0  0  0  0  # atno 17370 bound_to 10713
  157.3957  130.7306  149.6730 LP  0  0  0  0  0  0  0  0  0  0  0  0  # atno 17371 bound_to 10713
  140.2728  134.8378  157.3863 LP  0  0  0  0  0  0  0  0  0  0  0  0  # atno 17394 bound_to 11000
  140.1505  134.4856  155.7965 LP  0  0  0  0  0  0  0  0  0  0  0  0  # atno 17395 bound_to 11000

$$$$
