AV-unprocessed.smi:564|AV-procd|sdf|2949|dock3
  -GOLD-   2262023453D 1   1.00000     0.00000
 Structure written by MMmdl.
 50 51  0  0  0  0  0  0  0  0  2 V2000
  151.0177  138.5285  154.4095 C   0  0  0  0  0  0  0  0  0  0  0  0
  151.1138  139.5343  155.5211 C   0  0  0  0  0  0  0  0  0  0  0  0
  151.9306  139.2893  156.5317 N   0  0  0  0  0  0  0  0  0  0  0  0
  151.8052  140.3567  157.3448 N   0  0  0  0  0  0  0  0  0  0  0  0
  152.5836  140.4116  158.5670 C   0  0  0  0  0  0  0  0  0  0  0  0
  150.9092  141.2814  156.8447 C   0  0  0  0  0  0  0  0  0  0  0  0
  150.5994  142.5604  157.5534 C   0  0  0  0  0  0  0  0  0  0  0  0
  150.4333  140.7809  155.6620 C   0  0  0  0  0  0  0  0  0  0  0  0
  149.4295  141.4012  154.7188 C   0  0  0  0  0  0  0  0  0  0  0  0
  148.2091  140.4953  154.5107 C   0  0  0  0  0  0  0  0  0  0  0  0
  147.4755  140.1817  155.4498 O   0  0  0  0  0  0  0  0  0  0  0  0
  148.0019  140.0737  153.2541 N   0  0  0  0  0  0  0  0  0  0  0  0
  146.9076  139.2056  152.8357 C   0  0  0  0  0  0  0  0  0  0  0  0
  146.8304  137.9376  153.7096 C   0  0  0  0  0  0  0  0  0  0  0  0
  146.5580  136.6964  152.9347 N   0  3  2  0  0  0  0  0  0  0  0  0
  145.5086  136.9087  151.9009 C   0  0  0  0  0  0  0  0  0  0  0  0
  145.3843  135.6955  150.9656 C   0  0  0  0  0  0  0  0  0  0  0  0
  145.1149  134.4137  151.7602 C   0  0  0  0  0  0  0  0  0  0  0  0
  146.2022  134.2255  152.8268 C   0  0  0  0  0  0  0  0  0  0  0  0
  146.3374  135.4579  153.7470 C   0  0  2  0  0  0  0  0  0  0  0  0
  145.1639  135.5718  154.7439 C   0  0  0  0  0  0  0  0  0  0  0  0
  150.2711  138.8147  153.6696 H   0  0  0  0  0  0  0  0  0  0  0  0
  150.7419  137.5459  154.7928 H   0  0  0  0  0  0  0  0  0  0  0  0
  151.9714  138.4283  153.8913 H   0  0  0  0  0  0  0  0  0  0  0  0
  151.9603  140.7663  159.3880 H   0  0  0  0  0  0  0  0  0  0  0  0
  153.4227  141.0948  158.4344 H   0  0  0  0  0  0  0  0  0  0  0  0
  152.9672  139.4227  158.8219 H   0  0  0  0  0  0  0  0  0  0  0  0
  150.1130  143.2719  156.8863 H   0  0  0  0  0  0  0  0  0  0  0  0
  151.5080  143.0300  157.9303 H   0  0  0  0  0  0  0  0  0  0  0  0
  149.9340  142.3817  158.3981 H   0  0  0  0  0  0  0  0  0  0  0  0
  149.0833  142.3661  155.0890 H   0  0  0  0  0  0  0  0  0  0  0  0
  149.8831  141.6014  153.7475 H   0  0  0  0  0  0  0  0  0  0  0  0
  148.6454  140.3797  152.5383 H   0  0  0  0  0  0  0  0  0  0  0  0
  145.9628  139.7514  152.8632 H   0  0  0  0  0  0  0  0  0  0  0  0
  147.0923  138.9478  151.7935 H   0  0  0  0  0  0  0  0  0  0  0  0
  147.7386  137.8232  154.3017 H   0  0  0  0  0  0  0  0  0  0  0  0
  146.0207  138.0667  154.4289 H   0  0  0  0  0  0  0  0  0  0  0  0
  144.5510  137.1206  152.3777 H   0  0  0  0  0  0  0  0  0  0  0  0
  145.7566  137.7865  151.3029 H   0  0  0  0  0  0  0  0  0  0  0  0
  144.5837  135.8618  150.2439 H   0  0  0  0  0  0  0  0  0  0  0  0
  146.3026  135.5823  150.3878 H   0  0  0  0  0  0  0  0  0  0  0  0
  144.1317  134.4660  152.2288 H   0  0  0  0  0  0  0  0  0  0  0  0
  145.0929  133.5539  151.0900 H   0  0  0  0  0  0  0  0  0  0  0  0
  145.9956  133.3319  153.4170 H   0  0  0  0  0  0  0  0  0  0  0  0
  147.1564  134.0436  152.3302 H   0  0  0  0  0  0  0  0  0  0  0  0
  147.2369  135.2830  154.3362 H   0  0  0  0  0  0  0  0  0  0  0  0
  145.0332  134.6381  155.2915 H   0  0  0  0  0  0  0  0  0  0  0  0
  144.2183  135.7907  154.2491 H   0  0  0  0  0  0  0  0  0  0  0  0
  145.3386  136.3481  155.4884 H   0  0  0  0  0  0  0  0  0  0  0  0
  147.4052  136.5222  152.4126 H   0  0  0  0  0  0  0  0  0  0  0  0
  1  2  1  0  0  0  0
  1 22  1  0  0  0  0
  1 23  1  0  0  0  0
  1 24  1  0  0  0  0
  2  8  1  0  0  0  0
  2  3  2  0  0  0  0
  3  4  1  0  0  0  0
  4  5  1  0  0  0  0
  4  6  1  0  0  0  0
  5 25  1  0  0  0  0
  5 26  1  0  0  0  0
  5 27  1  0  0  0  0
  6  7  1  0  0  0  0
  6  8  2  0  0  0  0
  7 28  1  0  0  0  0
  7 29  1  0  0  0  0
  7 30  1  0  0  0  0
  8  9  1  0  0  0  0
  9 10  1  0  0  0  0
  9 31  1  0  0  0  0
  9 32  1  0  0  0  0
 10 11  2  0  0  0  0
 10 12  1  0  0  0  0
 12 13  1  0  0  0  0
 12 33  1  0  0  0  0
 13 14  1  0  0  0  0
 13 34  1  0  0  0  0
 13 35  1  0  0  0  0
 14 15  1  0  0  0  0
 14 36  1  0  0  0  0
 14 37  1  0  0  0  0
 15 20  1  0  0  0  0
 15 16  1  0  0  0  0
 15 50  1  0  0  0  0
 16 17  1  0  0  0  0
 16 38  1  0  0  0  0
 16 39  1  0  0  0  0
 17 18  1  0  0  0  0
 17 40  1  0  0  0  0
 17 41  1  0  0  0  0
 18 19  1  0  0  0  0
 18 42  1  0  0  0  0
 18 43  1  0  0  0  0
 19 20  1  0  0  0  0
 19 44  1  0  0  0  0
 19 45  1  0  0  0  0
 20 21  1  0  0  0  0
 20 46  1  0  0  0  0
 21 47  1  0  0  0  0
 21 48  1  0  0  0  0
 21 49  1  0  0  0  0
M  CHG  1  15   1
M  END
> <s_m_source_file>
AV-unprocessed.smi

> <i_m_source_file_index>
564

> <i_lp_mmshare_version>
43012

> <i_f3d_flags>
0

> <s_epik_input>
W0NIM11jMW5uKFtDSDNdKWMoW0NIM10pYzFbQ0gyXUMoPU8pW05IXVtDSDJdW0NIMl1OMltDSDJdW0NIMl1bQ0gyXVtDSDJdW0NASF0yW0NIM10=

> <s_epik_cmdline>
J2VwaWtfcHl0aG9uJywgJy1waCcsICc3LjAnLCAnLXRuJywgJzgnLCAnLW1hJywgJzIwMCcsICctbWV0YWxfYmluZGluZycsICctaW1hZScsICc8aW5maWxlLm1hZT4nLCAnLW9tYWUnLCAnPG91dGZpbGUubWFlPic=

> <r_lp_tautomer_probability>
1

> <r_epik_Ionization_Penalty>
0.00456826

> <r_epik_Ionization_Penalty_Charging>
0.00240401

> <r_epik_Ionization_Penalty_Neutral>
0.00216425

> <r_epik_State_Penalty>
-0

> <r_epik_Charging_Adjusted_Penalty>
0.00240401

> <i_epik_Tot_Q>
1

> <i_epik_Tot_abs_Q>
1

> <r_epik_Metal_State_Penalty>
-0

> <b_epik_Metal_Only>
0

> <s_lp_Force_Field>
OPLS_2005

> <r_lp_Energy>
15.7718

> <b_lp_Chiralities_Consistent>
1

> <s_lp_Variant>
AV-unprocessed.smi:564-3

> <Gold.Version>
5.8.1

> <Gold.Id.Protein>
6NUR|6NUR_protein|mol2

> <Gold.PLP.Fitness>
44.4842

> <Gold.PLP.PLP>
-36.2074

> <Gold.PLP.part.hbond>
-2.0000

> <Gold.PLP.part.metal>
0.0000

> <Gold.PLP.part.buried>
-2.6484

> <Gold.PLP.part.nonpolar>
-31.6771

> <Gold.PLP.part.repulsive>
0.1531

> <Gold.PLP.ligand.clash>
0.0000

> <Gold.PLP.ligand.torsion>
0.4109

> <Gold.PLP.Chemscore.Hbond>
3.0000

> <Gold.PLP.Chemscore.CHOScore>
0.0000

> <Gold.PLP.Chemscore.Metal>
0.0000

> <Gold.Chemscore.Hbonds>
donor molecule, donor type, donor heavy atom, donor atom, acceptor molecule, acceptor atom, score
      L1  H    12    33       P1  7957  1.00
      L1  H    15    50       P1  7948  2.00

> <Gold.PLP.Chemscore.Internal.Correction>
0.0987

> <Gold.Rescore>
     Score         DG    S(hbond)    S(metal)    S(lipo)     H(rot)  DE(clash)    DE(int)     intcor
     16.11     -17.81       1.96        0.00      84.80       1.61       0.07       1.64       ----

> <Gold.Chemscore.Fitness>
16.1053

> <Gold.Chemscore.DG>
-17.8107

> <Gold.Chemscore.ZeroCoef>
-5.4800

> <Gold.Chemscore.Hbond>
1.9584

> <Gold.Chemscore.Metal>
0.0000

> <Gold.Chemscore.Lipo>
84.8042

> <Gold.Chemscore.Internal_Hbond>
0.0000

> <Gold.Chemscore.DEClash>
0.0687

> <Gold.Chemscore.DEInternal>
1.6367

> <Gold.Chemscore.Rot>
1.6142

> <Gold.Chemscore.Internal.Correction>
   9.000000E+99

> <Gold.Chemscore.Hbonds>
donor molecule, donor type, donor heavy atom, donor atom, acceptor molecule, acceptor atom, score
      L1  H    12    33       P1  7957  0.94
      L1  H    15    50       P1  7948  1.00

> <Gold.Chemscore.Hbond.Weighted>
-6.5410

> <Gold.Chemscore.Metal.Weighted>
-0.0000

> <Gold.Chemscore.Lipo.Weighted>
-9.9221

> <Gold.Chemscore.Internal_Hbond.Weighted>
0.0000

> <Gold.Chemscore.DEClash.Weighted>
0.0687

> <Gold.Chemscore.DEInternal.Weighted>
1.6367

> <Gold.Chemscore.Rot.Weighted>
4.1324

> <Gold.Chemscore.Internal.Correction.Weighted>
   9.000000E+99

> <Gold.Protein.RotatedTorsions>
[ 6907 6896 6895 6894 ] final  146.35 input  -60.11 | X-H torsion
[ 7974 7965 7964 7962 ] final   90.54 input  175.53 | X-H torsion
[ 8008 7997 7996 7995 ] final   86.44 input   59.86 | X-H torsion
[ 10167 10162 10161 10158 ] final  -44.72 input  -65.29 | X-H torsion
[ 10718 10713 10712 10709 ] final  -60.27 input   66.30 | X-H torsion
[ 10763 10752 10751 10750 ] final   24.07 input  -60.55 | X-H torsion
[ 11005 11000 10999 10996 ] final  138.70 input  -57.11 | X-H torsion

> <Gold.Protein.ActiveResidues>
 VAL166  LYS551  ARG553  GLY616  TRP617  ASP618  TYR619  PRO620  LYS621  CYS622 
 ASP623  PHE694  ASN695  SER759  ASP760  ASP761  ALA762  ILE779  LEU786  VAL792 
 PHE793  MET794  SER795  GLU796  ALA797  LYS798  CYS799  TRP800  GLU811  SER814 

> <Gold.Protein.RotatedAtoms>
  152.1691  133.4631  159.4899 H   0  0  0  0  0  0  0  0  0  0  0  0  # atno 6907 bound_to 6896
  150.6917  134.1976  159.4318 H   0  0  0  0  0  0  0  0  0  0  0  0  # atno 6908 bound_to 6896
  151.9882  134.9993  160.0611 H   0  0  0  0  0  0  0  0  0  0  0  0  # atno 6909 bound_to 6896
  145.5177  139.2278  143.2689 H   0  0  0  0  0  0  0  0  0  0  0  0  # atno 7974 bound_to 7965
  155.9628  140.3392  155.6505 H   0  0  0  0  0  0  0  0  0  0  0  0  # atno 8008 bound_to 7997
  155.6776  140.0734  157.2515 H   0  0  0  0  0  0  0  0  0  0  0  0  # atno 8009 bound_to 7997
  154.4147  140.1680  156.1935 H   0  0  0  0  0  0  0  0  0  0  0  0  # atno 8010 bound_to 7997
  140.6886  143.2915  151.3536 H   0  0  0  0  0  0  0  0  0  0  0  0  # atno 10167 bound_to 10162
  156.1002  130.4187  150.0831 H   0  0  0  0  0  0  0  0  0  0  0  0  # atno 10718 bound_to 10713
  153.0791  135.6613  154.0083 H   0  0  0  0  0  0  0  0  0  0  0  0  # atno 10763 bound_to 10752
  153.9709  135.2964  155.3429 H   0  0  0  0  0  0  0  0  0  0  0  0  # atno 10764 bound_to 10752
  154.7186  135.5174  153.8848 H   0  0  0  0  0  0  0  0  0  0  0  0  # atno 10765 bound_to 10752
  140.0202  134.9400  157.0459 H   0  0  0  0  0  0  0  0  0  0  0  0  # atno 11005 bound_to 11000
  146.2126  140.5987  142.9053 LP  0  0  0  0  0  0  0  0  0  0  0  0  # atno 17320 bound_to 7965
  144.7693  140.5601  143.6681 LP  0  0  0  0  0  0  0  0  0  0  0  0  # atno 17321 bound_to 7965
  139.6267  144.0801  152.2440 LP  0  0  0  0  0  0  0  0  0  0  0  0  # atno 17342 bound_to 10162
  140.0263  144.6115  150.7525 LP  0  0  0  0  0  0  0  0  0  0  0  0  # atno 17343 bound_to 10162
  156.8820  130.9560  151.3598 LP  0  0  0  0  0  0  0  0  0  0  0  0  # atno 17370 bound_to 10713
  157.6171  130.8626  149.9046 LP  0  0  0  0  0  0  0  0  0  0  0  0  # atno 17371 bound_to 10713
  140.4400  134.1691  155.7173 LP  0  0  0  0  0  0  0  0  0  0  0  0  # atno 17394 bound_to 11000
  141.1769  133.8495  157.1391 LP  0  0  0  0  0  0  0  0  0  0  0  0  # atno 17395 bound_to 11000

$$$$
