AV-unprocessed.smi:1349|AV-procd|sdf|5518|dock6
  -GOLD-   22720 5103D 1   1.00000     0.00000
 Structure written by MMmdl.
 42 44  0  0  0  0  0  0  0  0  1 V2000
  149.7923  138.7027  153.5412 O   0  0  0  0  0  0  0  0  0  0  0  0
  150.9100  138.6050  154.3993 C   0  0  0  0  0  0  0  0  0  0  0  0
  150.9924  139.8270  155.3257 C   0  0  0  0  0  0  0  0  0  0  0  0
  151.8047  139.5675  156.6059 C   0  0  0  0  0  0  0  0  0  0  0  0
  151.8739  140.7734  157.4985 C   0  0  0  0  0  0  0  0  0  0  0  0
  151.3790  141.9464  157.0990 N   0  0  0  0  0  0  0  0  0  0  0  0
  151.6488  142.7759  158.1681 C   0  0  0  0  0  0  0  0  0  0  0  0
  151.3813  144.1513  158.3541 C   0  0  0  0  0  0  0  0  0  0  0  0
  151.7567  144.7962  159.5507 C   0  0  0  0  0  0  0  0  0  0  0  0
  152.4028  144.0764  160.5764 C   0  0  0  0  0  0  0  0  0  0  0  0
  152.6767  142.7047  160.4116 C   0  0  0  0  0  0  0  0  0  0  0  0
  152.3005  142.0655  159.2145 C   0  0  0  0  0  0  0  0  0  0  0  0
  152.4176  140.7598  158.7457 N   0  0  0  0  0  0  0  0  0  0  0  0
  153.0066  139.6543  159.4916 C   0  0  0  0  0  0  0  0  0  0  0  0
  154.5338  139.7613  159.5969 C   0  0  0  0  0  0  0  0  0  0  0  0
  154.9156  140.0660  160.9317 O   0  0  0  0  0  0  0  0  0  0  0  0
  154.7760  139.0815  161.8878 C   0  0  0  0  0  0  0  0  0  0  0  0
  155.4307  139.2836  163.1209 C   0  0  0  0  0  0  0  0  0  0  0  0
  155.3414  138.3286  164.1519 C   0  0  0  0  0  0  0  0  0  0  0  0
  154.5904  137.1548  163.9600 C   0  0  0  0  0  0  0  0  0  0  0  0
  153.9310  136.9391  162.7359 C   0  0  0  0  0  0  0  0  0  0  0  0
  154.0219  137.8942  161.7044 C   0  0  0  0  0  0  0  0  0  0  0  0
  150.0055  139.2941  152.8356 H   0  0  0  0  0  0  0  0  0  0  0  0
  150.8099  137.6948  154.9911 H   0  0  0  0  0  0  0  0  0  0  0  0
  151.8190  138.5058  153.8051 H   0  0  0  0  0  0  0  0  0  0  0  0
  151.4102  140.6742  154.7826 H   0  0  0  0  0  0  0  0  0  0  0  0
  149.9795  140.1208  155.6030 H   0  0  0  0  0  0  0  0  0  0  0  0
  151.3492  138.7526  157.1697 H   0  0  0  0  0  0  0  0  0  0  0  0
  152.8009  139.2229  156.3405 H   0  0  0  0  0  0  0  0  0  0  0  0
  150.8867  144.7106  157.5738 H   0  0  0  0  0  0  0  0  0  0  0  0
  151.5479  145.8480  159.6818 H   0  0  0  0  0  0  0  0  0  0  0  0
  152.6879  144.5773  161.4900 H   0  0  0  0  0  0  0  0  0  0  0  0
  153.1712  142.1512  161.1958 H   0  0  0  0  0  0  0  0  0  0  0  0
  152.5787  139.6608  160.4944 H   0  0  0  0  0  0  0  0  0  0  0  0
  152.7090  138.7007  159.0598 H   0  0  0  0  0  0  0  0  0  0  0  0
  154.9867  138.8210  159.2785 H   0  0  0  0  0  0  0  0  0  0  0  0
  154.8820  140.5462  158.9239 H   0  0  0  0  0  0  0  0  0  0  0  0
  156.0118  140.1791  163.2802 H   0  0  0  0  0  0  0  0  0  0  0  0
  155.8498  138.4974  165.0896 H   0  0  0  0  0  0  0  0  0  0  0  0
  154.5204  136.4212  164.7497 H   0  0  0  0  0  0  0  0  0  0  0  0
  153.3534  136.0388  162.5869 H   0  0  0  0  0  0  0  0  0  0  0  0
  153.5016  137.6909  160.7811 H   0  0  0  0  0  0  0  0  0  0  0  0
  1  2  1  0  0  0  0
  1 23  1  0  0  0  0
  2  3  1  0  0  0  0
  2 24  1  0  0  0  0
  2 25  1  0  0  0  0
  3  4  1  0  0  0  0
  3 26  1  0  0  0  0
  3 27  1  0  0  0  0
  4  5  1  0  0  0  0
  4 28  1  0  0  0  0
  4 29  1  0  0  0  0
  5 13  1  0  0  0  0
  5  6  2  0  0  0  0
  6  7  1  0  0  0  0
  7 12  2  0  0  0  0
  7  8  1  0  0  0  0
  8  9  2  0  0  0  0
  8 30  1  0  0  0  0
  9 10  1  0  0  0  0
  9 31  1  0  0  0  0
 10 11  2  0  0  0  0
 10 32  1  0  0  0  0
 11 12  1  0  0  0  0
 11 33  1  0  0  0  0
 12 13  1  0  0  0  0
 13 14  1  0  0  0  0
 14 15  1  0  0  0  0
 14 34  1  0  0  0  0
 14 35  1  0  0  0  0
 15 16  1  0  0  0  0
 15 36  1  0  0  0  0
 15 37  1  0  0  0  0
 16 17  1  0  0  0  0
 17 22  1  0  0  0  0
 17 18  2  0  0  0  0
 18 19  1  0  0  0  0
 18 38  1  0  0  0  0
 19 20  2  0  0  0  0
 19 39  1  0  0  0  0
 20 21  1  0  0  0  0
 20 40  1  0  0  0  0
 21 22  2  0  0  0  0
 21 41  1  0  0  0  0
 22 42  1  0  0  0  0
M  END
> <s_m_source_file>
AV-unprocessed.smi

> <i_m_source_file_index>
1349

> <i_lp_mmshare_version>
43012

> <i_f3d_flags>
0

> <s_epik_input>
W09IXVtDSDJdW0NIMl1bQ0gyXWMobjEpbihjKGMxMilbY0hdW2NIXVtjSF1bY0hdMilbQ0gyXVtDSDJdT2MzW2NIXVtjSF1bY0hdW2NIXVtjSF0z

> <s_epik_cmdline>
J2VwaWtfcHl0aG9uJywgJy1waCcsICc3LjAnLCAnLXRuJywgJzgnLCAnLW1hJywgJzIwMCcsICctbWV0YWxfYmluZGluZycsICctaW1hZScsICc8aW5maWxlLm1hZT4nLCAnLW9tYWUnLCAnPG91dGZpbGUubWFlPic=

> <r_lp_tautomer_probability>
1

> <r_epik_Ionization_Penalty>
0.159315

> <r_epik_Ionization_Penalty_Charging>
0

> <r_epik_Ionization_Penalty_Neutral>
0.159315

> <r_epik_State_Penalty>
0.148622

> <r_epik_Charging_Adjusted_Penalty>
0.148622

> <i_epik_Tot_Q>
0

> <i_epik_Tot_abs_Q>
0

> <r_epik_Metal_State_Penalty>
0.0001689

> <b_epik_Metal_Only>
0

> <s_lp_Force_Field>
OPLS_2005

> <r_lp_Energy>
15.4549

> <b_lp_Chiralities_Consistent>
1

> <s_lp_Variant>
AV-unprocessed.smi:1349-1

> <Gold.Version>
5.8.1

> <Gold.Id.Protein>
6NUR|6NUR_protein|mol2

> <Gold.PLP.Fitness>
52.4273

> <Gold.PLP.PLP>
-51.0131

> <Gold.PLP.part.hbond>
-1.8887

> <Gold.PLP.part.metal>
0.0000

> <Gold.PLP.part.buried>
-4.8768

> <Gold.PLP.part.nonpolar>
-43.2871

> <Gold.PLP.part.repulsive>
0.0521

> <Gold.PLP.ligand.clash>
0.0000

> <Gold.PLP.ligand.torsion>
0.8462

> <Gold.PLP.Chemscore.Hbond>
1.0000

> <Gold.PLP.Chemscore.CHOScore>
0.0000

> <Gold.PLP.Chemscore.Metal>
0.0000

> <Gold.Chemscore.Hbonds>
donor molecule, donor type, donor heavy atom, donor atom, acceptor molecule, acceptor atom, score
      L1  H     1    23       P1  7957  1.00

> <Gold.PLP.Chemscore.Internal.Correction>
0.1067

> <Gold.Rescore>
     Score         DG    S(hbond)    S(metal)    S(lipo)     H(rot)  DE(clash)    DE(int)     intcor
     18.57     -19.34       0.99        0.00     143.10       2.42       0.02       0.76       ----

> <Gold.Chemscore.Fitness>
18.5656

> <Gold.Chemscore.DG>
-19.3445

> <Gold.Chemscore.ZeroCoef>
-5.4800

> <Gold.Chemscore.Hbond>
0.9933

> <Gold.Chemscore.Metal>
0.0000

> <Gold.Chemscore.Lipo>
143.0976

> <Gold.Chemscore.Internal_Hbond>
0.0000

> <Gold.Chemscore.DEClash>
0.0234

> <Gold.Chemscore.DEInternal>
0.7555

> <Gold.Chemscore.Rot>
2.4201

> <Gold.Chemscore.Internal.Correction>
   9.000000E+99

> <Gold.Chemscore.Hbonds>
donor molecule, donor type, donor heavy atom, donor atom, acceptor molecule, acceptor atom, score
      L1  H     1    23       P1  7957  0.89

> <Gold.Chemscore.Hbond.Weighted>
-3.3175

> <Gold.Chemscore.Metal.Weighted>
-0.0000

> <Gold.Chemscore.Lipo.Weighted>
-16.7424

> <Gold.Chemscore.Internal_Hbond.Weighted>
0.0000

> <Gold.Chemscore.DEClash.Weighted>
0.0234

> <Gold.Chemscore.DEInternal.Weighted>
0.7555

> <Gold.Chemscore.Rot.Weighted>
6.1954

> <Gold.Chemscore.Internal.Correction.Weighted>
   9.000000E+99

> <Gold.Protein.RotatedTorsions>
[ 6907 6896 6895 6894 ] final  163.03 input  -60.11 | X-H torsion
[ 7974 7965 7964 7962 ] final   83.18 input  175.53 | X-H torsion
[ 8008 7997 7996 7995 ] final   97.52 input   59.86 | X-H torsion
[ 10167 10162 10161 10158 ] final  165.13 input  -65.29 | X-H torsion
[ 10718 10713 10712 10709 ] final  131.19 input   66.30 | X-H torsion
[ 10763 10752 10751 10750 ] final -174.44 input  -60.55 | X-H torsion
[ 11005 11000 10999 10996 ] final  147.73 input  -57.11 | X-H torsion

> <Gold.Protein.ActiveResidues>
 VAL166  LYS551  ARG553  GLY616  TRP617  ASP618  TYR619  PRO620  LYS621  CYS622 
 ASP623  PHE694  ASN695  SER759  ASP760  ASP761  ALA762  ILE779  LEU786  VAL792 
 PHE793  MET794  SER795  GLU796  ALA797  LYS798  CYS799  TRP800  GLU811  SER814 

> <Gold.Protein.RotatedAtoms>
  151.9314  133.3612  159.3931 H   0  0  0  0  0  0  0  0  0  0  0  0  # atno 6907 bound_to 6896
  150.7016  134.4534  159.5356 H   0  0  0  0  0  0  0  0  0  0  0  0  # atno 6908 bound_to 6896
  152.2175  134.8444  160.0541 H   0  0  0  0  0  0  0  0  0  0  0  0  # atno 6909 bound_to 6896
  145.6154  139.2376  143.2169 H   0  0  0  0  0  0  0  0  0  0  0  0  # atno 7974 bound_to 7965
  156.0910  140.3257  155.7816 H   0  0  0  0  0  0  0  0  0  0  0  0  # atno 8008 bound_to 7997
  155.4996  140.0568  157.2958 H   0  0  0  0  0  0  0  0  0  0  0  0  # atno 8009 bound_to 7997
  154.4638  140.1979  156.0190 H   0  0  0  0  0  0  0  0  0  0  0  0  # atno 8010 bound_to 7997
  139.4900  144.4164  151.9239 H   0  0  0  0  0  0  0  0  0  0  0  0  # atno 10167 bound_to 10162
  157.4991  131.1093  150.9452 H   0  0  0  0  0  0  0  0  0  0  0  0  # atno 10718 bound_to 10713
  154.5962  135.2850  155.0584 H   0  0  0  0  0  0  0  0  0  0  0  0  # atno 10763 bound_to 10752
  154.1866  135.6448  153.5052 H   0  0  0  0  0  0  0  0  0  0  0  0  # atno 10764 bound_to 10752
  153.0139  135.5436  154.6664 H   0  0  0  0  0  0  0  0  0  0  0  0  # atno 10765 bound_to 10752
  140.0900  134.9046  157.1636 H   0  0  0  0  0  0  0  0  0  0  0  0  # atno 11005 bound_to 11000
  146.1472  140.6975  142.9339 LP  0  0  0  0  0  0  0  0  0  0  0  0  # atno 17320 bound_to 7965
  144.7253  140.4504  143.6978 LP  0  0  0  0  0  0  0  0  0  0  0  0  # atno 17321 bound_to 7965
  140.3607  144.2977  150.5934 LP  0  0  0  0  0  0  0  0  0  0  0  0  # atno 17342 bound_to 10162
  140.5405  143.2224  151.8092 LP  0  0  0  0  0  0  0  0  0  0  0  0  # atno 17343 bound_to 10162
  157.0129  130.5644  149.5323 LP  0  0  0  0  0  0  0  0  0  0  0  0  # atno 17370 bound_to 10713
  156.0218  130.5313  150.8296 LP  0  0  0  0  0  0  0  0  0  0  0  0  # atno 17371 bound_to 10713
  140.3365  134.2751  155.7219 LP  0  0  0  0  0  0  0  0  0  0  0  0  # atno 17394 bound_to 11000
  141.2075  133.7804  157.0116 LP  0  0  0  0  0  0  0  0  0  0  0  0  # atno 17395 bound_to 11000

$$$$
