AV-unprocessed.smi:1990|AV-procd|sdf|8063|dock7
  -GOLD-   2272010273D 1   1.00000     0.00000
 Structure written by MMmdl.
 46 47  0  0  0  0  0  0  0  0  1 V2000
  152.7360  144.4986  158.3896 C   0  0  0  0  0  0  0  0  0  0  0  0
  151.6730  143.6902  159.1552 C   0  0  2  0  0  0  0  0  0  0  0  0
  152.0554  143.4070  160.6215 C   0  0  0  0  0  0  0  0  0  0  0  0
  153.0689  142.3591  160.7072 N   0  0  0  0  0  0  0  0  0  0  0  0
  153.7071  142.2222  161.9593 C   0  0  0  0  0  0  0  0  0  0  0  0
  153.3795  143.0936  163.0244 C   0  0  0  0  0  0  0  0  0  0  0  0
  154.0274  142.9419  164.2654 C   0  0  0  0  0  0  0  0  0  0  0  0
  154.9999  141.9251  164.4114 C   0  0  0  0  0  0  0  0  0  0  0  0
  155.7143  141.6539  165.6102 N   0  0  0  0  0  0  0  0  0  0  0  0
  155.4960  142.1222  166.8535 C   0  0  0  0  0  0  0  0  0  0  0  0
  154.6266  142.9419  167.1478 O   0  0  0  0  0  0  0  0  0  0  0  0
  156.4428  141.5909  167.9390 C   0  0  1  0  0  0  0  0  0  0  0  0
  155.6757  141.0565  169.1602 C   0  0  0  0  0  0  0  0  0  0  0  0
  157.5237  140.2563  167.2396 S   0  0  0  0  0  0  0  0  0  0  0  0
  158.5362  139.7354  168.6883 C   0  0  0  0  0  0  0  0  0  0  0  0
  156.6614  139.1290  166.8539 O   0  0  0  0  0  0  0  0  0  0  0  0
  158.4279  140.8465  166.2407 O   0  0  0  0  0  0  0  0  0  0  0  0
  155.2525  141.1019  163.2962 C   0  0  0  0  0  0  0  0  0  0  0  0
  154.6338  141.2439  162.1058 N   0  0  0  0  0  0  0  0  0  0  0  0
  152.7009  141.1435  159.9864 C   0  0  0  0  0  0  0  0  0  0  0  0
  152.3509  141.4705  158.5239 C   0  0  1  0  0  0  0  0  0  0  0  0
  151.8310  140.2404  157.7726 C   0  0  0  0  0  0  0  0  0  0  0  0
  151.3354  142.4724  158.4872 O   0  0  0  0  0  0  0  0  0  0  0  0
  152.8761  145.4792  158.8448 H   0  0  0  0  0  0  0  0  0  0  0  0
  152.4334  144.6568  157.3544 H   0  0  0  0  0  0  0  0  0  0  0  0
  153.7074  144.0049  158.3835 H   0  0  0  0  0  0  0  0  0  0  0  0
  150.7647  144.2933  159.1616 H   0  0  0  0  0  0  0  0  0  0  0  0
  152.3795  144.3332  161.0941 H   0  0  0  0  0  0  0  0  0  0  0  0
  151.1743  143.0708  161.1696 H   0  0  0  0  0  0  0  0  0  0  0  0
  152.6506  143.8810  162.9033 H   0  0  0  0  0  0  0  0  0  0  0  0
  153.7551  143.6020  165.0735 H   0  0  0  0  0  0  0  0  0  0  0  0
  156.5161  141.0498  165.5025 H   0  0  0  0  0  0  0  0  0  0  0  0
  157.1002  142.3959  168.2695 H   0  0  0  0  0  0  0  0  0  0  0  0
  155.0061  141.8132  169.5707 H   0  0  0  0  0  0  0  0  0  0  0  0
  156.3643  140.7637  169.9529 H   0  0  0  0  0  0  0  0  0  0  0  0
  155.0773  140.1805  168.9066 H   0  0  0  0  0  0  0  0  0  0  0  0
  159.1381  138.8699  168.4124 H   0  0  0  0  0  0  0  0  0  0  0  0
  157.8808  139.4688  169.5169 H   0  0  0  0  0  0  0  0  0  0  0  0
  159.1991  140.5457  168.9900 H   0  0  0  0  0  0  0  0  0  0  0  0
  155.9769  140.3025  163.3577 H   0  0  0  0  0  0  0  0  0  0  0  0
  153.5240  140.4279  160.0067 H   0  0  0  0  0  0  0  0  0  0  0  0
  151.8498  140.6762  160.4838 H   0  0  0  0  0  0  0  0  0  0  0  0
  153.2408  141.8294  158.0064 H   0  0  0  0  0  0  0  0  0  0  0  0
  152.5742  139.4430  157.7641 H   0  0  0  0  0  0  0  0  0  0  0  0
  151.5962  140.4870  156.7370 H   0  0  0  0  0  0  0  0  0  0  0  0
  150.9246  139.8490  158.2357 H   0  0  0  0  0  0  0  0  0  0  0  0
  1  2  1  0  0  0  0
  1 24  1  0  0  0  0
  1 25  1  0  0  0  0
  1 26  1  0  0  0  0
  2 23  1  0  0  0  0
  2  3  1  0  0  0  0
  2 27  1  0  0  0  0
  3  4  1  0  0  0  0
  3 28  1  0  0  0  0
  3 29  1  0  0  0  0
  4  5  1  0  0  0  0
  4 20  1  0  0  0  0
  5 19  1  0  0  0  0
  5  6  2  0  0  0  0
  6  7  1  0  0  0  0
  6 30  1  0  0  0  0
  7  8  2  0  0  0  0
  7 31  1  0  0  0  0
  8  9  1  0  0  0  0
  8 18  1  0  0  0  0
  9 10  1  0  0  0  0
  9 32  1  0  0  0  0
 10 11  2  0  0  0  0
 10 12  1  0  0  0  0
 12 13  1  0  0  0  0
 12 14  1  0  0  0  0
 12 33  1  0  0  0  0
 13 34  1  0  0  0  0
 13 35  1  0  0  0  0
 13 36  1  0  0  0  0
 14 15  1  0  0  0  0
 14 16  2  0  0  0  0
 14 17  2  0  0  0  0
 15 37  1  0  0  0  0
 15 38  1  0  0  0  0
 15 39  1  0  0  0  0
 18 19  2  0  0  0  0
 18 40  1  0  0  0  0
 20 21  1  0  0  0  0
 20 41  1  0  0  0  0
 20 42  1  0  0  0  0
 21 22  1  0  0  0  0
 21 23  1  0  0  0  0
 21 43  1  0  0  0  0
 22 44  1  0  0  0  0
 22 45  1  0  0  0  0
 22 46  1  0  0  0  0
M  END
> <s_m_source_file>
AV-unprocessed.smi

> <i_m_source_file_index>
1990

> <i_lp_mmshare_version>
43012

> <i_f3d_flags>
0

> <s_epik_input>
W0NIM11bQ0BASF0xW0NIMl1OKFtDSDJdW0NASF0oTzEpW0NIM10pYzJbY0hdW2NIXWMoW2NIXW4yKVtOSF1DKD1PKVtDQEhdKFtDSDNdKVMoPU8pKD1PKVtDSDNd

> <s_epik_cmdline>
J2VwaWtfcHl0aG9uJywgJy1waCcsICc3LjAnLCAnLXRuJywgJzgnLCAnLW1hJywgJzIwMCcsICctbWV0YWxfYmluZGluZycsICctaW1hZScsICc8aW5maWxlLm1hZT4nLCAnLW9tYWUnLCAnPG91dGZpbGUubWFlPic=

> <r_lp_tautomer_probability>
1

> <r_epik_Ionization_Penalty>
0.000334888

> <r_epik_Ionization_Penalty_Charging>
0

> <r_epik_Ionization_Penalty_Neutral>
0.000334888

> <r_epik_State_Penalty>
0.000200905

> <r_epik_Charging_Adjusted_Penalty>
0.000200905

> <i_epik_Tot_Q>
0

> <i_epik_Tot_abs_Q>
0

> <r_epik_Metal_State_Penalty>
-0

> <b_epik_Metal_Only>
0

> <s_lp_Force_Field>
OPLS_2005

> <r_lp_Energy>
21.5475

> <b_lp_Chiralities_Consistent>
1

> <s_lp_Variant>
AV-unprocessed.smi:1990-3

> <Gold.Version>
5.8.1

> <Gold.Id.Protein>
6NUR|6NUR_protein|mol2

> <Gold.PLP.Fitness>
42.2760

> <Gold.PLP.PLP>
-42.8553

> <Gold.PLP.part.hbond>
-3.0000

> <Gold.PLP.part.metal>
0.0000

> <Gold.PLP.part.buried>
-3.6936

> <Gold.PLP.part.nonpolar>
-35.5279

> <Gold.PLP.part.repulsive>
0.2672

> <Gold.PLP.ligand.clash>
0.0000

> <Gold.PLP.ligand.torsion>
0.5336

> <Gold.PLP.Chemscore.Hbond>
0.0000

> <Gold.PLP.Chemscore.CHOScore>
0.0000

> <Gold.PLP.Chemscore.Metal>
0.0000

> <Gold.PLP.Chemscore.Internal.Correction>
0.4879

> <Gold.Rescore>
     Score         DG    S(hbond)    S(metal)    S(lipo)     H(rot)  DE(clash)    DE(int)     intcor
     10.43     -13.94       0.00        0.00     105.47       1.52       0.08       3.42       ----

> <Gold.Chemscore.Fitness>
10.4306

> <Gold.Chemscore.DG>
-13.9351

> <Gold.Chemscore.ZeroCoef>
-5.4800

> <Gold.Chemscore.Hbond>
0.0000

> <Gold.Chemscore.Metal>
0.0000

> <Gold.Chemscore.Lipo>
105.4732

> <Gold.Chemscore.Internal_Hbond>
0.0000

> <Gold.Chemscore.DEClash>
0.0818

> <Gold.Chemscore.DEInternal>
3.4226

> <Gold.Chemscore.Rot>
1.5177

> <Gold.Chemscore.Internal.Correction>
   9.000000E+99

> <Gold.Chemscore.Hbond.Weighted>
-0.0000

> <Gold.Chemscore.Metal.Weighted>
-0.0000

> <Gold.Chemscore.Lipo.Weighted>
-12.3404

> <Gold.Chemscore.Internal_Hbond.Weighted>
0.0000

> <Gold.Chemscore.DEClash.Weighted>
0.0818

> <Gold.Chemscore.DEInternal.Weighted>
3.4226

> <Gold.Chemscore.Rot.Weighted>
3.8853

> <Gold.Chemscore.Internal.Correction.Weighted>
   9.000000E+99

> <Gold.Protein.RotatedTorsions>
[ 6907 6896 6895 6894 ] final  119.50 input  -60.11 | X-H torsion
[ 7974 7965 7964 7962 ] final  -86.36 input  175.53 | X-H torsion
[ 8008 7997 7996 7995 ] final    5.69 input   59.86 | X-H torsion
[ 10167 10162 10161 10158 ] final -140.09 input  -65.29 | X-H torsion
[ 10718 10713 10712 10709 ] final -147.17 input   66.30 | X-H torsion
[ 10763 10752 10751 10750 ] final   -8.01 input  -60.55 | X-H torsion
[ 11005 11000 10999 10996 ] final -100.18 input  -57.11 | X-H torsion

> <Gold.Protein.ActiveResidues>
 VAL166  LYS551  ARG553  GLY616  TRP617  ASP618  TYR619  PRO620  LYS621  CYS622 
 ASP623  PHE694  ASN695  SER759  ASP760  ASP761  ALA762  ILE779  LEU786  VAL792 
 PHE793  MET794  SER795  GLU796  ALA797  LYS798  CYS799  TRP800  GLU811  SER814 

> <Gold.Protein.RotatedAtoms>
  152.4467  133.7550  159.6714 H   0  0  0  0  0  0  0  0  0  0  0  0  # atno 6907 bound_to 6896
  150.8369  133.7989  159.3082 H   0  0  0  0  0  0  0  0  0  0  0  0  # atno 6908 bound_to 6896
  151.5626  135.1067  160.0028 H   0  0  0  0  0  0  0  0  0  0  0  0  # atno 6909 bound_to 6896
  145.4810  140.9557  143.1865 H   0  0  0  0  0  0  0  0  0  0  0  0  # atno 7974 bound_to 7965
  154.7315  140.2731  155.6451 H   0  0  0  0  0  0  0  0  0  0  0  0  # atno 8008 bound_to 7997
  156.2851  140.2714  156.1942 H   0  0  0  0  0  0  0  0  0  0  0  0  # atno 8009 bound_to 7997
  155.0375  140.0371  157.2487 H   0  0  0  0  0  0  0  0  0  0  0  0  # atno 8010 bound_to 7997
  139.8316  143.7439  152.2666 H   0  0  0  0  0  0  0  0  0  0  0  0  # atno 10167 bound_to 10162
  156.4042  130.7949  151.2162 H   0  0  0  0  0  0  0  0  0  0  0  0  # atno 10718 bound_to 10713
  153.4344  135.7012  153.6209 H   0  0  0  0  0  0  0  0  0  0  0  0  # atno 10763 bound_to 10752
  153.4610  135.3736  155.2338 H   0  0  0  0  0  0  0  0  0  0  0  0  # atno 10764 bound_to 10752
  154.8726  135.4020  154.3733 H   0  0  0  0  0  0  0  0  0  0  0  0  # atno 10765 bound_to 10752
  141.1280  133.8379  157.1069 H   0  0  0  0  0  0  0  0  0  0  0  0  # atno 11005 bound_to 11000
  144.7889  139.6369  143.7122 LP  0  0  0  0  0  0  0  0  0  0  0  0  # atno 17320 bound_to 7965
  146.2341  139.5871  142.9535 LP  0  0  0  0  0  0  0  0  0  0  0  0  # atno 17321 bound_to 7965
  139.7649  144.7495  151.0310 LP  0  0  0  0  0  0  0  0  0  0  0  0  # atno 17342 bound_to 10162
  140.7806  143.4710  151.0147 LP  0  0  0  0  0  0  0  0  0  0  0  0  # atno 17343 bound_to 10162
  157.7505  131.0277  150.4019 LP  0  0  0  0  0  0  0  0  0  0  0  0  # atno 17370 bound_to 10713
  156.4304  130.3971  149.6764 LP  0  0  0  0  0  0  0  0  0  0  0  0  # atno 17371 bound_to 10713
  140.0299  134.9906  157.0759 LP  0  0  0  0  0  0  0  0  0  0  0  0  # atno 17394 bound_to 11000
  140.4302  134.1788  155.7168 LP  0  0  0  0  0  0  0  0  0  0  0  0  # atno 17395 bound_to 11000

$$$$
