AV-unprocessed.smi:2738|AV-procd|sdf|10548|dock1
  -GOLD-   2272014593D 1   1.00000     0.00000
 Structure written by MMmdl.
 32 33  0  0  0  0  0  0  0  0  1 V2000
  155.1514  139.5863  159.6354 C   0  0  0  0  0  0  0  0  0  0  0  0
  153.8131  139.7958  160.3550 C   0  0  0  0  0  0  0  0  0  0  0  0
  153.0338  140.8587  159.7253 N   0  0  0  0  0  0  0  0  0  0  0  0
  152.5453  140.8614  158.4626 C   0  0  0  0  0  0  0  0  0  0  0  0
  152.6795  139.9617  157.6333 O   0  0  0  0  0  0  0  0  0  0  0  0
  151.8990  142.0340  158.2643 N   0  0  0  0  0  0  0  0  0  0  0  0
  151.2317  142.4619  157.0365 C   0  0  0  0  0  0  0  0  0  0  0  0
  150.1363  141.4660  156.6083 C   0  0  2  0  0  0  0  0  0  0  0  0
  150.7030  140.3261  155.7517 C   0  0  0  0  0  0  0  0  0  0  0  0
  149.1805  142.1427  155.8177 O   0  0  0  0  0  0  0  0  0  0  0  0
  152.0010  142.8163  159.4237 C   0  0  0  0  0  0  0  0  0  0  0  0
  151.5280  144.1082  159.7128 C   0  0  0  0  0  0  0  0  0  0  0  0
  151.8099  144.6268  160.9983 C   0  0  0  0  0  0  0  0  0  0  0  0
  152.5425  143.8648  161.9454 C   0  0  0  0  0  0  0  0  0  0  0  0
  153.0097  142.5680  161.6267 C   0  0  0  0  0  0  0  0  0  0  0  0
  152.7140  142.0761  160.3434 C   0  0  0  0  0  0  0  0  0  0  0  0
  155.7259  138.7909  160.1104 H   0  0  0  0  0  0  0  0  0  0  0  0
  155.7573  140.4924  159.6572 H   0  0  0  0  0  0  0  0  0  0  0  0
  154.9992  139.3087  158.5919 H   0  0  0  0  0  0  0  0  0  0  0  0
  153.2422  138.8661  160.3533 H   0  0  0  0  0  0  0  0  0  0  0  0
  153.9864  140.0409  161.4033 H   0  0  0  0  0  0  0  0  0  0  0  0
  150.8284  143.4709  157.1403 H   0  0  0  0  0  0  0  0  0  0  0  0
  151.9916  142.5313  156.2575 H   0  0  0  0  0  0  0  0  0  0  0  0
  149.6414  141.0393  157.4818 H   0  0  0  0  0  0  0  0  0  0  0  0
  151.4353  139.7438  156.3114 H   0  0  0  0  0  0  0  0  0  0  0  0
  151.1955  140.7076  154.8563 H   0  0  0  0  0  0  0  0  0  0  0  0
  149.9150  139.6425  155.4339 H   0  0  0  0  0  0  0  0  0  0  0  0
  149.1573  143.0497  156.0828 H   0  0  0  0  0  0  0  0  0  0  0  0
  150.9752  144.6856  158.9866 H   0  0  0  0  0  0  0  0  0  0  0  0
  151.4647  145.6159  161.2614 H   0  0  0  0  0  0  0  0  0  0  0  0
  152.7480  144.2805  162.9209 H   0  0  0  0  0  0  0  0  0  0  0  0
  153.5717  141.9854  162.3415 H   0  0  0  0  0  0  0  0  0  0  0  0
  1  2  1  0  0  0  0
  1 17  1  0  0  0  0
  1 18  1  0  0  0  0
  1 19  1  0  0  0  0
  2  3  1  0  0  0  0
  2 20  1  0  0  0  0
  2 21  1  0  0  0  0
  3 16  1  0  0  0  0
  3  4  1  0  0  0  0
  4  5  2  0  0  0  0
  4  6  1  0  0  0  0
  6  7  1  0  0  0  0
  6 11  1  0  0  0  0
  7  8  1  0  0  0  0
  7 22  1  0  0  0  0
  7 23  1  0  0  0  0
  8  9  1  0  0  0  0
  8 10  1  0  0  0  0
  8 24  1  0  0  0  0
  9 25  1  0  0  0  0
  9 26  1  0  0  0  0
  9 27  1  0  0  0  0
 10 28  1  0  0  0  0
 11 16  2  0  0  0  0
 11 12  1  0  0  0  0
 12 13  2  0  0  0  0
 12 29  1  0  0  0  0
 13 14  1  0  0  0  0
 13 30  1  0  0  0  0
 14 15  2  0  0  0  0
 14 31  1  0  0  0  0
 15 16  1  0  0  0  0
 15 32  1  0  0  0  0
M  END
> <s_m_source_file>
AV-unprocessed.smi

> <i_m_source_file_index>
2738

> <i_lp_mmshare_version>
43012

> <i_f3d_flags>
0

> <s_epik_input>
W2NIXTFbY0hdW2NIXVtjSF1jKGMxMiluKFtDSDJdW0NIM10pYyg9TyluMltDSDJdW0NASF0oW0NIM10pW09IXQ==

> <s_epik_cmdline>
J2VwaWtfcHl0aG9uJywgJy1waCcsICc3LjAnLCAnLXRuJywgJzgnLCAnLW1hJywgJzIwMCcsICctbWV0YWxfYmluZGluZycsICctaW1hZScsICc8aW5maWxlLm1hZT4nLCAnLW9tYWUnLCAnPG91dGZpbGUubWFlPic=

> <r_lp_tautomer_probability>
1

> <r_epik_Ionization_Penalty>
5.28302e-08

> <r_epik_Ionization_Penalty_Charging>
2.52071e-09

> <r_epik_Ionization_Penalty_Neutral>
5.03095e-08

> <r_epik_State_Penalty>
-0

> <r_epik_Charging_Adjusted_Penalty>
2.52071e-09

> <i_epik_Tot_Q>
0

> <i_epik_Tot_abs_Q>
0

> <r_epik_Metal_State_Penalty>
-0

> <b_epik_Metal_Only>
0

> <s_lp_Force_Field>
OPLS_2005

> <r_lp_Energy>
38.1008

> <b_lp_Chiralities_Consistent>
1

> <s_lp_Variant>
AV-unprocessed.smi:2738-1

> <Gold.Version>
5.8.1

> <Gold.Id.Protein>
6NUR|6NUR_protein|mol2

> <Gold.PLP.Fitness>
45.1247

> <Gold.PLP.PLP>
-39.7426

> <Gold.PLP.part.hbond>
-2.0000

> <Gold.PLP.part.metal>
0.0000

> <Gold.PLP.part.buried>
-4.7663

> <Gold.PLP.part.nonpolar>
-32.9352

> <Gold.PLP.part.repulsive>
0.0000

> <Gold.PLP.ligand.clash>
0.0000

> <Gold.PLP.ligand.torsion>
0.3205

> <Gold.PLP.Chemscore.Hbond>
2.0000

> <Gold.PLP.Chemscore.CHOScore>
0.0000

> <Gold.PLP.Chemscore.Metal>
0.0000

> <Gold.Chemscore.Hbonds>
donor molecule, donor type, donor heavy atom, donor atom, acceptor molecule, acceptor atom, score
      L1  H    10    28       P1  8028  0.98
      P1  H  7997  8009       L1     5  0.94

> <Gold.PLP.Chemscore.Internal.Correction>
0.0231

> <Gold.Rescore>
     Score         DG    S(hbond)    S(metal)    S(lipo)     H(rot)  DE(clash)    DE(int)     intcor
     17.39     -19.29       1.89        0.00     103.74       1.81       0.24       1.65       ----

> <Gold.Chemscore.Fitness>
17.3922

> <Gold.Chemscore.DG>
-19.2882

> <Gold.Chemscore.ZeroCoef>
-5.4800

> <Gold.Chemscore.Hbond>
1.8881

> <Gold.Chemscore.Metal>
0.0000

> <Gold.Chemscore.Lipo>
103.7424

> <Gold.Chemscore.Internal_Hbond>
0.0000

> <Gold.Chemscore.DEClash>
0.2434

> <Gold.Chemscore.DEInternal>
1.6526

> <Gold.Chemscore.Rot>
1.8109

> <Gold.Chemscore.Internal.Correction>
   9.000000E+99

> <Gold.Chemscore.Hbonds>
donor molecule, donor type, donor heavy atom, donor atom, acceptor molecule, acceptor atom, score
      L1  H    10    28       P1  8028  0.93
      P1  H  7997  8009       L1     5  0.49

> <Gold.Chemscore.Hbond.Weighted>
-6.3061

> <Gold.Chemscore.Metal.Weighted>
-0.0000

> <Gold.Chemscore.Lipo.Weighted>
-12.1379

> <Gold.Chemscore.Internal_Hbond.Weighted>
0.0000

> <Gold.Chemscore.DEClash.Weighted>
0.2434

> <Gold.Chemscore.DEInternal.Weighted>
1.6526

> <Gold.Chemscore.Rot.Weighted>
4.6358

> <Gold.Chemscore.Internal.Correction.Weighted>
   9.000000E+99

> <Gold.Protein.RotatedTorsions>
[ 6907 6896 6895 6894 ] final  106.51 input  -60.11 | X-H torsion
[ 7974 7965 7964 7962 ] final   94.54 input  175.53 | X-H torsion
[ 8008 7997 7996 7995 ] final  154.36 input   59.86 | X-H torsion
[ 10167 10162 10161 10158 ] final  -30.30 input  -65.29 | X-H torsion
[ 10718 10713 10712 10709 ] final   78.78 input   66.30 | X-H torsion
[ 10763 10752 10751 10750 ] final  -79.67 input  -60.55 | X-H torsion
[ 11005 11000 10999 10996 ] final   24.93 input  -57.11 | X-H torsion

> <Gold.Protein.ActiveResidues>
 VAL166  LYS551  ARG553  GLY616  TRP617  ASP618  TYR619  PRO620  LYS621  CYS622 
 ASP623  PHE694  ASN695  SER759  ASP760  ASP761  ALA762  ILE779  LEU786  VAL792 
 PHE793  MET794  SER795  GLU796  ALA797  LYS798  CYS799  TRP800  GLU811  SER814 

> <Gold.Protein.RotatedAtoms>
  152.5191  133.9371  159.7608 H   0  0  0  0  0  0  0  0  0  0  0  0  # atno 6907 bound_to 6896
  150.9709  133.6337  159.2745 H   0  0  0  0  0  0  0  0  0  0  0  0  # atno 6908 bound_to 6896
  151.3548  135.0897  159.9468 H   0  0  0  0  0  0  0  0  0  0  0  0  # atno 6909 bound_to 6896
  145.4642  139.2285  143.2970 H   0  0  0  0  0  0  0  0  0  0  0  0  # atno 7974 bound_to 7965
  156.2535  140.1969  156.6634 H   0  0  0  0  0  0  0  0  0  0  0  0  # atno 8008 bound_to 7997
  154.6447  140.0579  156.9912 H   0  0  0  0  0  0  0  0  0  0  0  0  # atno 8009 bound_to 7997
  155.1509  140.3251  155.4434 H   0  0  0  0  0  0  0  0  0  0  0  0  # atno 8010 bound_to 7997
  140.7251  143.3859  151.1516 H   0  0  0  0  0  0  0  0  0  0  0  0  # atno 10167 bound_to 10162
  157.6756  130.9884  150.1837 H   0  0  0  0  0  0  0  0  0  0  0  0  # atno 10718 bound_to 10713
  154.5416  135.5687  153.6844 H   0  0  0  0  0  0  0  0  0  0  0  0  # atno 10763 bound_to 10752
  152.9965  135.6229  154.2494 H   0  0  0  0  0  0  0  0  0  0  0  0  # atno 10764 bound_to 10752
  154.2425  135.2862  155.2828 H   0  0  0  0  0  0  0  0  0  0  0  0  # atno 10765 bound_to 10752
  140.3534  134.2204  155.7678 H   0  0  0  0  0  0  0  0  0  0  0  0  # atno 11005 bound_to 11000
  146.2433  140.5414  142.8924 LP  0  0  0  0  0  0  0  0  0  0  0  0  # atno 17320 bound_to 7965
  144.7984  140.6166  143.6494 LP  0  0  0  0  0  0  0  0  0  0  0  0  # atno 17321 bound_to 7965
  139.7456  143.8857  152.3062 LP  0  0  0  0  0  0  0  0  0  0  0  0  # atno 17342 bound_to 10162
  139.8693  144.7077  150.9007 LP  0  0  0  0  0  0  0  0  0  0  0  0  # atno 17343 bound_to 10162
  156.2563  130.3706  149.8178 LP  0  0  0  0  0  0  0  0  0  0  0  0  # atno 17370 bound_to 10713
  156.5936  130.8516  151.3414 LP  0  0  0  0  0  0  0  0  0  0  0  0  # atno 17371 bound_to 10713
  141.2005  133.7985  157.0484 LP  0  0  0  0  0  0  0  0  0  0  0  0  # atno 17394 bound_to 11000
  140.0685  134.9716  157.1426 LP  0  0  0  0  0  0  0  0  0  0  0  0  # atno 17395 bound_to 11000

$$$$
