AV-unprocessed.smi:1730|AV-procd|sdf|6971|dock2
  -GOLD-   22720 8183D 1   1.00000     0.00000
 Structure written by MMmdl.
 38 39  0  0  0  0  0  0  0  0  1 V2000
  151.7435  138.2711  154.4886 C   0  0  0  0  0  0  0  0  0  0  0  0
  150.3657  138.1244  154.1637 O   0  0  0  0  0  0  0  0  0  0  0  0
  149.5529  139.2408  154.2140 C   0  0  0  0  0  0  0  0  0  0  0  0
  150.0882  140.4098  154.6474 N   0  0  0  0  0  0  0  0  0  0  0  0
  149.2941  141.4985  154.7031 C   0  0  0  0  0  0  0  0  0  0  0  0
  147.9349  141.4799  154.3410 C   0  0  0  0  0  0  0  0  0  0  0  0
  147.3773  140.2690  153.8906 C   0  0  0  0  0  0  0  0  0  0  0  0
  148.2021  139.1203  153.8116 C   0  0  0  0  0  0  0  0  0  0  0  0
  147.7423  137.8425  153.3885 N   0  0  0  0  0  0  0  0  0  0  0  0
  146.5053  137.3239  153.4649 C   0  0  0  0  0  0  0  0  0  0  0  0
  145.5174  137.9004  153.9188 O   0  0  0  0  0  0  0  0  0  0  0  0
  146.4766  136.0805  152.9649 N   0  0  0  0  0  0  0  0  0  0  0  0
  145.3049  135.2087  152.8917 C   0  0  1  0  0  0  0  0  0  0  0  0
  144.1808  135.9240  152.1284 C   0  0  0  0  0  0  0  0  0  0  0  0
  145.6713  133.8540  152.2516 C   0  0  2  0  0  0  0  0  0  0  0  0
  146.1891  133.9264  150.8119 C   0  0  0  0  0  0  0  0  0  0  0  0
  145.8809  132.5339  150.3112 C   0  0  0  0  0  0  0  0  0  0  0  0
  144.5338  132.2585  150.9731 C   0  0  0  0  0  0  0  0  0  0  0  0
  144.5447  132.9796  152.2023 O   0  0  0  0  0  0  0  0  0  0  0  0
  152.2383  137.3038  154.4035 H   0  0  0  0  0  0  0  0  0  0  0  0
  151.8762  138.6216  155.5132 H   0  0  0  0  0  0  0  0  0  0  0  0
  152.2435  138.9596  153.8058 H   0  0  0  0  0  0  0  0  0  0  0  0
  149.7540  142.4106  155.0537 H   0  0  0  0  0  0  0  0  0  0  0  0
  147.3323  142.3731  154.4113 H   0  0  0  0  0  0  0  0  0  0  0  0
  146.3306  140.2456  153.6316 H   0  0  0  0  0  0  0  0  0  0  0  0
  148.4310  137.2743  152.9173 H   0  0  0  0  0  0  0  0  0  0  0  0
  147.3408  135.6948  152.6128 H   0  0  0  0  0  0  0  0  0  0  0  0
  144.9287  135.0018  153.8949 H   0  0  0  0  0  0  0  0  0  0  0  0
  143.2857  135.3039  152.0746 H   0  0  0  0  0  0  0  0  0  0  0  0
  144.4814  136.1634  151.1079 H   0  0  0  0  0  0  0  0  0  0  0  0
  143.9041  136.8566  152.6215 H   0  0  0  0  0  0  0  0  0  0  0  0
  146.4318  133.3613  152.8598 H   0  0  0  0  0  0  0  0  0  0  0  0
  145.6353  134.6572  150.2218 H   0  0  0  0  0  0  0  0  0  0  0  0
  147.2484  134.1769  150.7545 H   0  0  0  0  0  0  0  0  0  0  0  0
  145.8437  132.4653  149.2237 H   0  0  0  0  0  0  0  0  0  0  0  0
  146.6313  131.8304  150.6747 H   0  0  0  0  0  0  0  0  0  0  0  0
  143.7217  132.6435  150.3552 H   0  0  0  0  0  0  0  0  0  0  0  0
  144.3601  131.1948  151.1364 H   0  0  0  0  0  0  0  0  0  0  0  0
  1  2  1  0  0  0  0
  1 20  1  0  0  0  0
  1 21  1  0  0  0  0
  1 22  1  0  0  0  0
  2  3  1  0  0  0  0
  3  8  1  0  0  0  0
  3  4  2  0  0  0  0
  4  5  1  0  0  0  0
  5  6  2  0  0  0  0
  5 23  1  0  0  0  0
  6  7  1  0  0  0  0
  6 24  1  0  0  0  0
  7  8  2  0  0  0  0
  7 25  1  0  0  0  0
  8  9  1  0  0  0  0
  9 10  1  0  0  0  0
  9 26  1  0  0  0  0
 10 11  2  0  0  0  0
 10 12  1  0  0  0  0
 12 13  1  0  0  0  0
 12 27  1  0  0  0  0
 13 14  1  0  0  0  0
 13 15  1  0  0  0  0
 13 28  1  0  0  0  0
 14 29  1  0  0  0  0
 14 30  1  0  0  0  0
 14 31  1  0  0  0  0
 15 19  1  0  0  0  0
 15 16  1  0  0  0  0
 15 32  1  0  0  0  0
 16 17  1  0  0  0  0
 16 33  1  0  0  0  0
 16 34  1  0  0  0  0
 17 18  1  0  0  0  0
 17 35  1  0  0  0  0
 17 36  1  0  0  0  0
 18 19  1  0  0  0  0
 18 37  1  0  0  0  0
 18 38  1  0  0  0  0
M  END
> <s_m_source_file>
AV-unprocessed.smi

> <i_m_source_file_index>
1730

> <i_lp_mmshare_version>
43012

> <i_f3d_flags>
0

> <s_epik_input>
W0NIM11PYzFuW2NIXVtjSF1bY0hdYzFbTkhdQyg9TylbTkhdW0NASF0oW0NIM10pW0NAQEhdMltDSDJdW0NIMl1bQ0gyXU8y

> <s_epik_cmdline>
J2VwaWtfcHl0aG9uJywgJy1waCcsICc3LjAnLCAnLXRuJywgJzgnLCAnLW1hJywgJzIwMCcsICctbWV0YWxfYmluZGluZycsICctaW1hZScsICc8aW5maWxlLm1hZT4nLCAnLW9tYWUnLCAnPG91dGZpbGUubWFlPic=

> <r_lp_tautomer_probability>
1

> <r_epik_Ionization_Penalty>
9.187e-05

> <r_epik_Ionization_Penalty_Charging>
0

> <r_epik_Ionization_Penalty_Neutral>
9.187e-05

> <r_epik_State_Penalty>
-0

> <r_epik_Charging_Adjusted_Penalty>
0

> <i_epik_Tot_Q>
0

> <i_epik_Tot_abs_Q>
0

> <r_epik_Metal_State_Penalty>
-0

> <b_epik_Metal_Only>
0

> <s_lp_Force_Field>
OPLS_2005

> <r_lp_Energy>
21.6149

> <b_lp_Chiralities_Consistent>
1

> <s_lp_Variant>
AV-unprocessed.smi:1730-2

> <Gold.Version>
5.8.1

> <Gold.Id.Protein>
6NUR|6NUR_protein|mol2

> <Gold.PLP.Fitness>
42.2830

> <Gold.PLP.PLP>
-31.2650

> <Gold.PLP.part.hbond>
-2.9502

> <Gold.PLP.part.metal>
0.0000

> <Gold.PLP.part.buried>
-3.8567

> <Gold.PLP.part.nonpolar>
-25.1269

> <Gold.PLP.part.repulsive>
0.6437

> <Gold.PLP.ligand.clash>
0.0000

> <Gold.PLP.ligand.torsion>
0.1906

> <Gold.PLP.Chemscore.Hbond>
2.7920

> <Gold.PLP.Chemscore.CHOScore>
1.0000

> <Gold.PLP.Chemscore.Metal>
0.0000

> <Gold.Chemscore.Hbonds>
donor molecule, donor type, donor heavy atom, donor atom, acceptor molecule, acceptor atom, score
      L1  H     9    26       P1  7948  1.00
      L1  H    12    27       P1  7948  0.83
      P1  H  7989  7998       L1     4  0.96
      L1  C     5    23       P1  8028  0.99

> <Gold.PLP.Chemscore.Internal.Correction>
0.0231

> <Gold.Rescore>
     Score         DG    S(hbond)    S(metal)    S(lipo)     H(rot)  DE(clash)    DE(int)     intcor
     15.96     -17.58       2.33        0.00      69.07       1.47       0.38       1.25       ----

> <Gold.Chemscore.Fitness>
15.9604

> <Gold.Chemscore.DG>
-17.5833

> <Gold.Chemscore.ZeroCoef>
-5.4800

> <Gold.Chemscore.Hbond>
2.3302

> <Gold.Chemscore.Metal>
0.0000

> <Gold.Chemscore.Lipo>
69.0746

> <Gold.Chemscore.Internal_Hbond>
0.0000

> <Gold.Chemscore.DEClash>
0.3773

> <Gold.Chemscore.DEInternal>
1.2456

> <Gold.Chemscore.Rot>
1.4693

> <Gold.Chemscore.Internal.Correction>
   9.000000E+99

> <Gold.Chemscore.Hbonds>
donor molecule, donor type, donor heavy atom, donor atom, acceptor molecule, acceptor atom, score
      L1  H     9    26       P1  7948  0.96
      L1  H    12    27       P1  7948  0.83
      P1  H  7989  7998       L1     4  0.35

> <Gold.Chemscore.Hbond.Weighted>
-7.7828

> <Gold.Chemscore.Metal.Weighted>
-0.0000

> <Gold.Chemscore.Lipo.Weighted>
-8.0817

> <Gold.Chemscore.Internal_Hbond.Weighted>
0.0000

> <Gold.Chemscore.DEClash.Weighted>
0.3773

> <Gold.Chemscore.DEInternal.Weighted>
1.2456

> <Gold.Chemscore.Rot.Weighted>
3.7613

> <Gold.Chemscore.Internal.Correction.Weighted>
   9.000000E+99

> <Gold.Protein.RotatedTorsions>
[ 6907 6896 6895 6894 ] final    5.90 input  -60.11 | X-H torsion
[ 7974 7965 7964 7962 ] final   45.81 input  175.53 | X-H torsion
[ 8008 7997 7996 7995 ] final  154.19 input   59.86 | X-H torsion
[ 10167 10162 10161 10158 ] final  103.36 input  -65.29 | X-H torsion
[ 10718 10713 10712 10709 ] final -137.32 input   66.30 | X-H torsion
[ 10763 10752 10751 10750 ] final  -79.54 input  -60.55 | X-H torsion
[ 11005 11000 10999 10996 ] final -162.91 input  -57.11 | X-H torsion

> <Gold.Protein.ActiveResidues>
 VAL166  LYS551  ARG553  GLY616  TRP617  ASP618  TYR619  PRO620  LYS621  CYS622 
 ASP623  PHE694  ASN695  SER759  ASP760  ASP761  ALA762  ILE779  LEU786  VAL792 
 PHE793  MET794  SER795  GLU796  ALA797  LYS798  CYS799  TRP800  GLU811  SER814 

> <Gold.Protein.RotatedAtoms>
  151.6650  135.0984  160.0186 H   0  0  0  0  0  0  0  0  0  0  0  0  # atno 6907 bound_to 6896
  152.3925  133.6694  159.6257 H   0  0  0  0  0  0  0  0  0  0  0  0  # atno 6908 bound_to 6896
  150.7838  133.8847  159.3337 H   0  0  0  0  0  0  0  0  0  0  0  0  # atno 6909 bound_to 6896
  146.0446  139.4924  142.9756 H   0  0  0  0  0  0  0  0  0  0  0  0  # atno 7974 bound_to 7965
  156.2544  140.1973  156.6607 H   0  0  0  0  0  0  0  0  0  0  0  0  # atno 8008 bound_to 7997
  154.6467  140.0577  156.9933 H   0  0  0  0  0  0  0  0  0  0  0  0  # atno 8009 bound_to 7997
  155.1481  140.3249  155.4440 H   0  0  0  0  0  0  0  0  0  0  0  0  # atno 8010 bound_to 7997
  139.7270  144.7045  151.0782 H   0  0  0  0  0  0  0  0  0  0  0  0  # atno 10167 bound_to 10162
  156.2868  130.7352  151.1366 H   0  0  0  0  0  0  0  0  0  0  0  0  # atno 10718 bound_to 10713
  154.5399  135.5692  153.6831 H   0  0  0  0  0  0  0  0  0  0  0  0  # atno 10763 bound_to 10752
  152.9961  135.6225  154.2515 H   0  0  0  0  0  0  0  0  0  0  0  0  # atno 10764 bound_to 10752
  154.2446  135.2861  155.2820 H   0  0  0  0  0  0  0  0  0  0  0  0  # atno 10765 bound_to 10752
  140.6040  134.4918  157.5208 H   0  0  0  0  0  0  0  0  0  0  0  0  # atno 11005 bound_to 11000
  145.6826  141.0187  143.1598 LP  0  0  0  0  0  0  0  0  0  0  0  0  # atno 17320 bound_to 7965
  144.7091  139.8439  143.7420 LP  0  0  0  0  0  0  0  0  0  0  0  0  # atno 17321 bound_to 7965
  140.7764  143.5092  150.9673 LP  0  0  0  0  0  0  0  0  0  0  0  0  # atno 17342 bound_to 10162
  139.8780  143.7108  152.3160 LP  0  0  0  0  0  0  0  0  0  0  0  0  # atno 17343 bound_to 10162
  157.7331  131.0594  150.5595 LP  0  0  0  0  0  0  0  0  0  0  0  0  # atno 17370 bound_to 10713
  156.5706  130.4279  149.6021 LP  0  0  0  0  0  0  0  0  0  0  0  0  # atno 17371 bound_to 10713
  139.9220  134.8130  156.1182 LP  0  0  0  0  0  0  0  0  0  0  0  0  # atno 17394 bound_to 11000
  141.0853  133.6737  156.2422 LP  0  0  0  0  0  0  0  0  0  0  0  0  # atno 17395 bound_to 11000

$$$$
