AV-unprocessed.smi:2666|AV-procd|sdf|10332|dock1
  -GOLD-   2272014353D 1   1.00000     0.00000
 Structure written by MMmdl.
 43 44  0  0  0  0  0  0  0  0  1 V2000
  150.0833  141.1279  157.6837 O   0  0  0  0  0  0  0  0  0  0  0  0
  149.9724  142.1487  157.0055 C   0  0  0  0  0  0  0  0  0  0  0  0
  150.3175  143.3861  157.4003 N   0  0  0  0  0  0  0  0  0  0  0  0
  150.9218  143.7932  158.6206 C   0  0  0  0  0  0  0  0  0  0  0  0
  151.7728  142.8771  159.2725 C   0  0  0  0  0  0  0  0  0  0  0  0
  152.3705  143.2435  160.4933 C   0  0  0  0  0  0  0  0  0  0  0  0
  152.0856  144.5171  161.0221 C   0  0  0  0  0  0  0  0  0  0  0  0
  151.2630  145.4012  160.4195 N   0  0  0  0  0  0  0  0  0  0  0  0
  150.6939  145.0435  159.2479 C   0  0  0  0  0  0  0  0  0  0  0  0
  149.4655  142.1661  155.7636 N   0  0  0  0  0  0  0  0  0  0  0  0
  148.9984  141.0039  155.0039 C   0  0  2  0  0  0  0  0  0  0  0  0
  147.5054  140.7410  155.3314 C   0  0  0  0  0  0  0  0  0  0  0  0
  146.5023  141.6999  154.6593 C   0  0  0  0  0  0  0  0  0  0  0  0
  145.1820  141.1994  154.7143 O   0  0  0  0  0  0  0  0  0  0  0  0
  149.9222  139.7821  155.2847 C   0  0  0  0  0  0  0  0  0  0  0  0
  151.4244  140.1687  155.2709 C   0  0  0  0  0  0  0  0  0  0  0  0
  152.3447  138.9677  155.5392 C   0  0  0  0  0  0  0  0  0  0  0  0
  152.0897  137.8376  154.5353 C   0  0  0  0  0  0  0  0  0  0  0  0
  150.6145  137.4199  154.5585 C   0  0  0  0  0  0  0  0  0  0  0  0
  149.6870  138.6168  154.2915 C   0  0  0  0  0  0  0  0  0  0  0  0
  150.0876  144.1338  156.7622 H   0  0  0  0  0  0  0  0  0  0  0  0
  151.9699  141.9053  158.8436 H   0  0  0  0  0  0  0  0  0  0  0  0
  153.0306  142.5648  161.0126 H   0  0  0  0  0  0  0  0  0  0  0  0
  152.5260  144.8321  161.9566 H   0  0  0  0  0  0  0  0  0  0  0  0
  150.0272  145.7816  158.8311 H   0  0  0  0  0  0  0  0  0  0  0  0
  149.4138  143.0568  155.2917 H   0  0  0  0  0  0  0  0  0  0  0  0
  149.0602  141.2186  153.9356 H   0  0  0  0  0  0  0  0  0  0  0  0
  147.2453  139.7419  154.9858 H   0  0  0  0  0  0  0  0  0  0  0  0
  147.3468  140.7329  156.4107 H   0  0  0  0  0  0  0  0  0  0  0  0
  146.5429  142.6894  155.1161 H   0  0  0  0  0  0  0  0  0  0  0  0
  146.7611  141.8245  153.6076 H   0  0  0  0  0  0  0  0  0  0  0  0
  144.9141  140.9637  153.8391 H   0  0  0  0  0  0  0  0  0  0  0  0
  149.6891  139.4139  156.2851 H   0  0  0  0  0  0  0  0  0  0  0  0
  151.6780  140.6122  154.3071 H   0  0  0  0  0  0  0  0  0  0  0  0
  151.6373  140.9288  156.0222 H   0  0  0  0  0  0  0  0  0  0  0  0
  153.3876  139.2814  155.4877 H   0  0  0  0  0  0  0  0  0  0  0  0
  152.1816  138.6014  156.5536 H   0  0  0  0  0  0  0  0  0  0  0  0
  152.3638  138.1672  153.5323 H   0  0  0  0  0  0  0  0  0  0  0  0
  152.7246  136.9817  154.7664 H   0  0  0  0  0  0  0  0  0  0  0  0
  150.4388  136.6416  153.8153 H   0  0  0  0  0  0  0  0  0  0  0  0
  150.3741  136.9809  155.5275 H   0  0  0  0  0  0  0  0  0  0  0  0
  148.6605  138.2584  154.3501 H   0  0  0  0  0  0  0  0  0  0  0  0
  149.8344  138.9692  153.2695 H   0  0  0  0  0  0  0  0  0  0  0  0
  1  2  2  0  0  0  0
  2  3  1  0  0  0  0
  2 10  1  0  0  0  0
  3  4  1  0  0  0  0
  3 21  1  0  0  0  0
  4  9  1  0  0  0  0
  4  5  2  0  0  0  0
  5  6  1  0  0  0  0
  5 22  1  0  0  0  0
  6  7  2  0  0  0  0
  6 23  1  0  0  0  0
  7  8  1  0  0  0  0
  7 24  1  0  0  0  0
  8  9  2  0  0  0  0
  9 25  1  0  0  0  0
 10 11  1  0  0  0  0
 10 26  1  0  0  0  0
 11 12  1  0  0  0  0
 11 15  1  0  0  0  0
 11 27  1  0  0  0  0
 12 13  1  0  0  0  0
 12 28  1  0  0  0  0
 12 29  1  0  0  0  0
 13 14  1  0  0  0  0
 13 30  1  0  0  0  0
 13 31  1  0  0  0  0
 14 32  1  0  0  0  0
 15 20  1  0  0  0  0
 15 16  1  0  0  0  0
 15 33  1  0  0  0  0
 16 17  1  0  0  0  0
 16 34  1  0  0  0  0
 16 35  1  0  0  0  0
 17 18  1  0  0  0  0
 17 36  1  0  0  0  0
 17 37  1  0  0  0  0
 18 19  1  0  0  0  0
 18 38  1  0  0  0  0
 18 39  1  0  0  0  0
 19 20  1  0  0  0  0
 19 40  1  0  0  0  0
 19 41  1  0  0  0  0
 20 42  1  0  0  0  0
 20 43  1  0  0  0  0
M  END
> <s_m_source_file>
AV-unprocessed.smi

> <i_m_source_file_index>
2666

> <i_lp_mmshare_version>
43012

> <i_f3d_flags>
0

> <s_epik_input>
W2NIXTFuW2NIXVtjSF1bY0hdYzFbTkhdQyg9TylbTkhdW0NASF0oW0NIMl1bQ0gyXVtPSF0pW0NIXTJbQ0gyXVtDSDJdW0NIMl1bQ0gyXVtDSDJdMg==

> <s_epik_cmdline>
J2VwaWtfcHl0aG9uJywgJy1waCcsICc3LjAnLCAnLXRuJywgJzgnLCAnLW1hJywgJzIwMCcsICctbWV0YWxfYmluZGluZycsICctaW1hZScsICc8aW5maWxlLm1hZT4nLCAnLW9tYWUnLCAnPG91dGZpbGUubWFlPic=

> <r_epik_Ionization_Penalty>
0.00500145

> <r_epik_Ionization_Penalty_Charging>
0

> <r_epik_Ionization_Penalty_Neutral>
0.00500145

> <r_epik_State_Penalty>
0.00360517

> <r_epik_Charging_Adjusted_Penalty>
0.00360517

> <i_epik_Tot_Q>
0

> <i_epik_Tot_abs_Q>
0

> <r_epik_Metal_State_Penalty>
-0

> <b_epik_Metal_Only>
0

> <s_lp_Force_Field>
OPLS_2005

> <r_lp_Energy>
19.5826

> <b_lp_Chiralities_Consistent>
1

> <s_lp_Variant>
AV-unprocessed.smi:2666-1

> <Gold.Version>
5.8.1

> <Gold.Id.Protein>
6NUR|6NUR_protein|mol2

> <Gold.PLP.Fitness>
47.9627

> <Gold.PLP.PLP>
-38.9776

> <Gold.PLP.part.hbond>
-3.0000

> <Gold.PLP.part.metal>
0.0000

> <Gold.PLP.part.buried>
-2.4363

> <Gold.PLP.part.nonpolar>
-35.1061

> <Gold.PLP.part.repulsive>
0.3946

> <Gold.PLP.ligand.clash>
0.0000

> <Gold.PLP.ligand.torsion>
0.9213

> <Gold.PLP.Chemscore.Hbond>
2.8560

> <Gold.PLP.Chemscore.CHOScore>
0.7315

> <Gold.PLP.Chemscore.Metal>
0.0000

> <Gold.Chemscore.Hbonds>
donor molecule, donor type, donor heavy atom, donor atom, acceptor molecule, acceptor atom, score
      L1  H     3    21       P1  8028  0.91
      L1  H    10    26       P1  8028  0.77
      L1  H    14    32       P1 10175  1.00
      L1  C     9    25       P1  8029  0.76

> <Gold.PLP.Chemscore.Internal.Correction>
0.0650

> <Gold.Rescore>
     Score         DG    S(hbond)    S(metal)    S(lipo)     H(rot)  DE(clash)    DE(int)     intcor
     16.62     -21.04       2.79        0.00     102.14       2.23       0.88       3.54       ----

> <Gold.Chemscore.Fitness>
16.6216

> <Gold.Chemscore.DG>
-21.0407

> <Gold.Chemscore.ZeroCoef>
-5.4800

> <Gold.Chemscore.Hbond>
2.7863

> <Gold.Chemscore.Metal>
0.0000

> <Gold.Chemscore.Lipo>
102.1437

> <Gold.Chemscore.Internal_Hbond>
0.0000

> <Gold.Chemscore.DEClash>
0.8795

> <Gold.Chemscore.DEInternal>
3.5396

> <Gold.Chemscore.Rot>
2.2251

> <Gold.Chemscore.Internal.Correction>
   9.000000E+99

> <Gold.Chemscore.Hbonds>
donor molecule, donor type, donor heavy atom, donor atom, acceptor molecule, acceptor atom, score
      L1  H     3    21       P1  8028  0.86
      L1  H    10    26       P1  8028  0.78
      L1  H    14    32       P1 10175  0.84

> <Gold.Chemscore.Hbond.Weighted>
-9.3061

> <Gold.Chemscore.Metal.Weighted>
-0.0000

> <Gold.Chemscore.Lipo.Weighted>
-11.9508

> <Gold.Chemscore.Internal_Hbond.Weighted>
0.0000

> <Gold.Chemscore.DEClash.Weighted>
0.8795

> <Gold.Chemscore.DEInternal.Weighted>
3.5396

> <Gold.Chemscore.Rot.Weighted>
5.6962

> <Gold.Chemscore.Internal.Correction.Weighted>
   9.000000E+99

> <Gold.Protein.RotatedTorsions>
[ 6907 6896 6895 6894 ] final   14.72 input  -60.11 | X-H torsion
[ 7974 7965 7964 7962 ] final  -95.30 input  175.53 | X-H torsion
[ 8008 7997 7996 7995 ] final   17.06 input   59.86 | X-H torsion
[ 10167 10162 10161 10158 ] final    2.33 input  -65.29 | X-H torsion
[ 10718 10713 10712 10709 ] final   -8.85 input   66.30 | X-H torsion
[ 10763 10752 10751 10750 ] final   -7.53 input  -60.55 | X-H torsion
[ 11005 11000 10999 10996 ] final  -48.01 input  -57.11 | X-H torsion

> <Gold.Protein.ActiveResidues>
 VAL166  LYS551  ARG553  GLY616  TRP617  ASP618  TYR619  PRO620  LYS621  CYS622 
 ASP623  PHE694  ASN695  SER759  ASP760  ASP761  ALA762  ILE779  LEU786  VAL792 
 PHE793  MET794  SER795  GLU796  ALA797  LYS798  CYS799  TRP800  GLU811  SER814 

> <Gold.Protein.RotatedAtoms>
  151.8067  135.0693  160.0407 H   0  0  0  0  0  0  0  0  0  0  0  0  # atno 6907 bound_to 6896
  152.3050  133.5689  159.5651 H   0  0  0  0  0  0  0  0  0  0  0  0  # atno 6908 bound_to 6896
  150.7291  134.0152  159.3725 H   0  0  0  0  0  0  0  0  0  0  0  0  # atno 6909 bound_to 6896
  145.3618  140.9493  143.2496 H   0  0  0  0  0  0  0  0  0  0  0  0  # atno 7974 bound_to 7965
  154.8859  140.2980  155.5398 H   0  0  0  0  0  0  0  0  0  0  0  0  # atno 8008 bound_to 7997
  156.3021  140.2433  156.3802 H   0  0  0  0  0  0  0  0  0  0  0  0  # atno 8009 bound_to 7997
  154.8668  140.0403  157.1689 H   0  0  0  0  0  0  0  0  0  0  0  0  # atno 8010 bound_to 7997
  140.6640  143.7229  150.7792 H   0  0  0  0  0  0  0  0  0  0  0  0  # atno 10167 bound_to 10162
  156.6965  130.5080  149.5929 H   0  0  0  0  0  0  0  0  0  0  0  0  # atno 10718 bound_to 10713
  153.4277  135.7011  153.6252 H   0  0  0  0  0  0  0  0  0  0  0  0  # atno 10763 bound_to 10752
  153.4680  135.3721  155.2375 H   0  0  0  0  0  0  0  0  0  0  0  0  # atno 10764 bound_to 10752
  154.8724  135.4036  154.3655 H   0  0  0  0  0  0  0  0  0  0  0  0  # atno 10765 bound_to 10752
  141.0675  133.6689  156.3379 H   0  0  0  0  0  0  0  0  0  0  0  0  # atno 11005 bound_to 11000
  144.8641  139.5134  143.6798 LP  0  0  0  0  0  0  0  0  0  0  0  0  # atno 17320 bound_to 7965
  146.2924  139.7177  142.9151 LP  0  0  0  0  0  0  0  0  0  0  0  0  # atno 17321 bound_to 7965
  140.0903  143.4884  152.2482 LP  0  0  0  0  0  0  0  0  0  0  0  0  # atno 17342 bound_to 10162
  139.5882  144.7540  151.3466 LP  0  0  0  0  0  0  0  0  0  0  0  0  # atno 17343 bound_to 10162
  156.1759  130.6467  151.0894 LP  0  0  0  0  0  0  0  0  0  0  0  0  # atno 17370 bound_to 10713
  157.6989  131.0783  150.6882 LP  0  0  0  0  0  0  0  0  0  0  0  0  # atno 17371 bound_to 10713
  140.5743  134.5809  157.5465 LP  0  0  0  0  0  0  0  0  0  0  0  0  # atno 17394 bound_to 11000
  139.9491  134.7650  156.0492 LP  0  0  0  0  0  0  0  0  0  0  0  0  # atno 17395 bound_to 11000

$$$$
