AV-unprocessed.smi:652|AV-procd|sdf|3195|dock5
  -GOLD-   22720 0123D 1   1.00000     0.00000
 Structure written by MMmdl.
 48 49  0  0  0  0  0  0  0  0  2 V2000
  153.0916  141.0529  159.9942 C   0  0  0  0  0  0  0  0  0  0  0  0
  152.5884  141.8974  158.8127 C   0  0  0  0  0  0  0  0  0  0  0  0
  151.9954  143.2316  159.2842 C   0  0  0  0  0  0  0  0  0  0  0  0
  151.5845  141.1624  158.0475 N   0  0  0  0  0  0  0  0  0  0  0  0
  151.8166  140.0600  157.3176 C   0  0  0  0  0  0  0  0  0  0  0  0
  152.9273  139.5377  157.2178 O   0  0  0  0  0  0  0  0  0  0  0  0
  150.6077  139.4661  156.5871 C   0  0  0  0  0  0  0  0  0  0  0  0
  150.7642  139.4813  155.0521 C   0  0  0  0  0  0  0  0  0  0  0  0
  149.5014  139.8247  154.3510 N   0  3  2  0  0  0  0  0  0  0  0  0
  148.8662  141.0427  154.9080 C   0  0  0  0  0  0  0  0  0  0  0  0
  147.5853  141.3868  154.1316 C   0  0  0  0  0  0  0  0  0  0  0  0
  146.7006  140.2745  154.1628 O   0  0  0  0  0  0  0  0  0  0  0  0
  147.2569  139.1248  153.5328 C   0  0  2  0  0  0  0  0  0  0  0  0
  146.1979  138.0135  153.5398 C   0  0  0  0  0  0  0  0  0  0  0  0
  146.6853  136.8072  152.8885 N   0  0  0  0  0  0  0  0  0  0  0  0
  145.8818  135.6622  152.8224 C   0  0  0  0  0  0  0  0  0  0  0  0
  146.0175  134.6853  151.8092 C   0  0  0  0  0  0  0  0  0  0  0  0
  145.1536  133.5773  151.8550 C   0  0  0  0  0  0  0  0  0  0  0  0
  144.2206  133.5282  152.9065 C   0  0  0  0  0  0  0  0  0  0  0  0
  144.1346  134.4938  153.8485 N   0  0  0  0  0  0  0  0  0  0  0  0
  144.9572  135.5480  153.8042 N   0  0  0  0  0  0  0  0  0  0  0  0
  148.5247  138.7080  154.3042 C   0  0  0  0  0  0  0  0  0  0  0  0
  153.8462  141.5931  160.5662 H   0  0  0  0  0  0  0  0  0  0  0  0
  153.5457  140.1220  159.6529 H   0  0  0  0  0  0  0  0  0  0  0  0
  152.2791  140.7977  160.6751 H   0  0  0  0  0  0  0  0  0  0  0  0
  153.4350  142.1232  158.1618 H   0  0  0  0  0  0  0  0  0  0  0  0
  152.7369  143.8191  159.8264 H   0  0  0  0  0  0  0  0  0  0  0  0
  151.1443  143.0764  159.9482 H   0  0  0  0  0  0  0  0  0  0  0  0
  151.6552  143.8317  158.4395 H   0  0  0  0  0  0  0  0  0  0  0  0
  150.6431  141.5268  158.0705 H   0  0  0  0  0  0  0  0  0  0  0  0
  150.4639  138.4394  156.9281 H   0  0  0  0  0  0  0  0  0  0  0  0
  149.7245  140.0276  156.8917 H   0  0  0  0  0  0  0  0  0  0  0  0
  151.5523  140.1728  154.7489 H   0  0  0  0  0  0  0  0  0  0  0  0
  151.0796  138.4886  154.7253 H   0  0  0  0  0  0  0  0  0  0  0  0
  148.6312  140.8835  155.9616 H   0  0  0  0  0  0  0  0  0  0  0  0
  149.5612  141.8818  154.8572 H   0  0  0  0  0  0  0  0  0  0  0  0
  147.0898  142.2450  154.5856 H   0  0  0  0  0  0  0  0  0  0  0  0
  147.8138  141.6594  153.0999 H   0  0  0  0  0  0  0  0  0  0  0  0
  147.5218  139.3607  152.5001 H   0  0  0  0  0  0  0  0  0  0  0  0
  145.9389  137.7662  154.5699 H   0  0  0  0  0  0  0  0  0  0  0  0
  145.2868  138.3591  153.0493 H   0  0  0  0  0  0  0  0  0  0  0  0
  147.4667  136.8840  152.2530 H   0  0  0  0  0  0  0  0  0  0  0  0
  146.7490  134.7678  151.0196 H   0  0  0  0  0  0  0  0  0  0  0  0
  145.2038  132.7946  151.1128 H   0  0  0  0  0  0  0  0  0  0  0  0
  143.5311  132.7018  152.9944 H   0  0  0  0  0  0  0  0  0  0  0  0
  148.9683  137.8401  153.8170 H   0  0  0  0  0  0  0  0  0  0  0  0
  148.2655  138.4070  155.3207 H   0  0  0  0  0  0  0  0  0  0  0  0
  149.7467  140.0441  153.3959 H   0  0  0  0  0  0  0  0  0  0  0  0
  1  2  1  0  0  0  0
  1 23  1  0  0  0  0
  1 24  1  0  0  0  0
  1 25  1  0  0  0  0
  2  3  1  0  0  0  0
  2  4  1  0  0  0  0
  2 26  1  0  0  0  0
  3 27  1  0  0  0  0
  3 28  1  0  0  0  0
  3 29  1  0  0  0  0
  4  5  1  0  0  0  0
  4 30  1  0  0  0  0
  5  6  2  0  0  0  0
  5  7  1  0  0  0  0
  7  8  1  0  0  0  0
  7 31  1  0  0  0  0
  7 32  1  0  0  0  0
  8  9  1  0  0  0  0
  8 33  1  0  0  0  0
  8 34  1  0  0  0  0
  9 22  1  0  0  0  0
  9 10  1  0  0  0  0
  9 48  1  0  0  0  0
 10 11  1  0  0  0  0
 10 35  1  0  0  0  0
 10 36  1  0  0  0  0
 11 12  1  0  0  0  0
 11 37  1  0  0  0  0
 11 38  1  0  0  0  0
 12 13  1  0  0  0  0
 13 14  1  0  0  0  0
 13 22  1  0  0  0  0
 13 39  1  0  0  0  0
 14 15  1  0  0  0  0
 14 40  1  0  0  0  0
 14 41  1  0  0  0  0
 15 16  1  0  0  0  0
 15 42  1  0  0  0  0
 16 21  1  0  0  0  0
 16 17  2  0  0  0  0
 17 18  1  0  0  0  0
 17 43  1  0  0  0  0
 18 19  2  0  0  0  0
 18 44  1  0  0  0  0
 19 20  1  0  0  0  0
 19 45  1  0  0  0  0
 20 21  2  0  0  0  0
 22 46  1  0  0  0  0
 22 47  1  0  0  0  0
M  CHG  1   9   1
M  END
> <s_m_source_file>
AV-unprocessed.smi

> <i_m_source_file_index>
652

> <i_lp_mmshare_version>
43012

> <i_f3d_flags>
0

> <s_epik_input>
W0NIM11bQ0hdKFtDSDNdKVtOSF1DKD1PKVtDSDJdW0NIMl1OMVtDSDJdW0NIMl1PW0NASF0oW0NIMl0xKVtDSDJdW05IXWMyW2NIXVtjSF1bY0hdbm4y

> <s_epik_cmdline>
J2VwaWtfcHl0aG9uJywgJy1waCcsICc3LjAnLCAnLXRuJywgJzgnLCAnLW1hJywgJzIwMCcsICctbWV0YWxfYmluZGluZycsICctaW1hZScsICc8aW5maWxlLm1hZT4nLCAnLW9tYWUnLCAnPG91dGZpbGUubWFlPic=

> <r_lp_tautomer_probability>
0.999978

> <r_epik_Ionization_Penalty>
0.433079

> <r_epik_Ionization_Penalty_Charging>
0.413784

> <r_epik_Ionization_Penalty_Neutral>
0.0192945

> <r_epik_State_Penalty>
0.425138

> <r_epik_Charging_Adjusted_Penalty>
0.838922

> <i_epik_Tot_Q>
1

> <i_epik_Tot_abs_Q>
1

> <r_epik_Metal_State_Penalty>
0.422073

> <b_epik_Metal_Only>
0

> <s_lp_Force_Field>
OPLS_2005

> <r_lp_Energy>
22.402

> <b_lp_Chiralities_Consistent>
1

> <s_lp_Variant>
AV-unprocessed.smi:652-4

> <Gold.Version>
5.8.1

> <Gold.Id.Protein>
6NUR|6NUR_protein|mol2

> <Gold.PLP.Fitness>
44.2183

> <Gold.PLP.PLP>
-33.9074

> <Gold.PLP.part.hbond>
-3.0000

> <Gold.PLP.part.metal>
0.0000

> <Gold.PLP.part.buried>
-3.4356

> <Gold.PLP.part.nonpolar>
-27.9063

> <Gold.PLP.part.repulsive>
0.5363

> <Gold.PLP.ligand.clash>
0.0000

> <Gold.PLP.ligand.torsion>
0.6037

> <Gold.PLP.Chemscore.Hbond>
2.7913

> <Gold.PLP.Chemscore.CHOScore>
0.9922

> <Gold.PLP.Chemscore.Metal>
0.0000

> <Gold.Chemscore.Hbonds>
donor molecule, donor type, donor heavy atom, donor atom, acceptor molecule, acceptor atom, score
      L1  H     9    48       P1  7957  0.49
      L1  H    15    42       P1  7948  0.90
      P1  H  7997  8008       L1     6  1.00
      L1  C    19    45       P1 10957  0.96

> <Gold.PLP.Chemscore.Internal.Correction>
0.1680

> <Gold.Rescore>
     Score         DG    S(hbond)    S(metal)    S(lipo)     H(rot)  DE(clash)    DE(int)     intcor
     19.12     -19.66       2.97        0.00      85.93       2.26       0.07       0.47       ----

> <Gold.Chemscore.Fitness>
19.1157

> <Gold.Chemscore.DG>
-19.6553

> <Gold.Chemscore.ZeroCoef>
-5.4800

> <Gold.Chemscore.Hbond>
2.9658

> <Gold.Chemscore.Metal>
0.0000

> <Gold.Chemscore.Lipo>
85.9269

> <Gold.Chemscore.Internal_Hbond>
0.0000

> <Gold.Chemscore.DEClash>
0.0699

> <Gold.Chemscore.DEInternal>
0.4697

> <Gold.Chemscore.Rot>
2.2594

> <Gold.Chemscore.Internal.Correction>
   9.000000E+99

> <Gold.Chemscore.Hbonds>
donor molecule, donor type, donor heavy atom, donor atom, acceptor molecule, acceptor atom, score
      L1  H     9    48       P1  7957  0.47
      L1  H    15    42       P1  7948  0.88
      P1  H  7997  8008       L1     6  0.99

> <Gold.Chemscore.Hbond.Weighted>
-9.9059

> <Gold.Chemscore.Metal.Weighted>
-0.0000

> <Gold.Chemscore.Lipo.Weighted>
-10.0535

> <Gold.Chemscore.Internal_Hbond.Weighted>
0.0000

> <Gold.Chemscore.DEClash.Weighted>
0.0699

> <Gold.Chemscore.DEInternal.Weighted>
0.4697

> <Gold.Chemscore.Rot.Weighted>
5.7841

> <Gold.Chemscore.Internal.Correction.Weighted>
   9.000000E+99

> <Gold.Protein.RotatedTorsions>
[ 6907 6896 6895 6894 ] final  163.98 input  -60.11 | X-H torsion
[ 7974 7965 7964 7962 ] final  107.05 input  175.53 | X-H torsion
[ 8008 7997 7996 7995 ] final  -52.08 input   59.86 | X-H torsion
[ 10167 10162 10161 10158 ] final  113.65 input  -65.29 | X-H torsion
[ 10718 10713 10712 10709 ] final -120.40 input   66.30 | X-H torsion
[ 10763 10752 10751 10750 ] final  101.75 input  -60.55 | X-H torsion
[ 11005 11000 10999 10996 ] final  -52.42 input  -57.11 | X-H torsion

> <Gold.Protein.ActiveResidues>
 VAL166  LYS551  ARG553  GLY616  TRP617  ASP618  TYR619  PRO620  LYS621  CYS622 
 ASP623  PHE694  ASN695  SER759  ASP760  ASP761  ALA762  ILE779  LEU786  VAL792 
 PHE793  MET794  SER795  GLU796  ALA797  LYS798  CYS799  TRP800  GLU811  SER814 

> <Gold.Protein.RotatedAtoms>
  151.9169  133.3575  159.3883 H   0  0  0  0  0  0  0  0  0  0  0  0  # atno 6907 bound_to 6896
  150.7045  134.4674  159.5419 H   0  0  0  0  0  0  0  0  0  0  0  0  # atno 6908 bound_to 6896
  152.2291  134.8339  160.0527 H   0  0  0  0  0  0  0  0  0  0  0  0  # atno 6909 bound_to 6896
  145.2987  139.2576  143.3826 H   0  0  0  0  0  0  0  0  0  0  0  0  # atno 7974 bound_to 7965
  154.4098  140.1232  156.4933 H   0  0  0  0  0  0  0  0  0  0  0  0  # atno 8008 bound_to 7997
  155.6968  140.3495  155.4897 H   0  0  0  0  0  0  0  0  0  0  0  0  # atno 8009 bound_to 7997
  155.9420  140.1089  157.1037 H   0  0  0  0  0  0  0  0  0  0  0  0  # atno 8010 bound_to 7997
  139.6446  144.7126  151.2169 H   0  0  0  0  0  0  0  0  0  0  0  0  # atno 10167 bound_to 10162
  156.1255  130.6356  150.9536 H   0  0  0  0  0  0  0  0  0  0  0  0  # atno 10718 bound_to 10713
  153.3307  135.4034  155.1493 H   0  0  0  0  0  0  0  0  0  0  0  0  # atno 10763 bound_to 10752
  154.8622  135.3610  154.5474 H   0  0  0  0  0  0  0  0  0  0  0  0  # atno 10764 bound_to 10752
  153.5912  135.7074  153.5481 H   0  0  0  0  0  0  0  0  0  0  0  0  # atno 10765 bound_to 10752
  141.0923  133.6630  156.4022 H   0  0  0  0  0  0  0  0  0  0  0  0  # atno 11005 bound_to 11000
  146.3160  140.3495  142.8655 LP  0  0  0  0  0  0  0  0  0  0  0  0  # atno 17320 bound_to 7965
  144.9112  140.7759  143.5806 LP  0  0  0  0  0  0  0  0  0  0  0  0  # atno 17321 bound_to 7965
  140.7508  143.6254  150.8474 LP  0  0  0  0  0  0  0  0  0  0  0  0  # atno 17342 bound_to 10162
  139.9895  143.5863  152.2915 LP  0  0  0  0  0  0  0  0  0  0  0  0  # atno 17343 bound_to 10162
  157.6437  131.0907  150.8198 LP  0  0  0  0  0  0  0  0  0  0  0  0  # atno 17370 bound_to 10713
  156.8289  130.5009  149.5334 LP  0  0  0  0  0  0  0  0  0  0  0  0  # atno 17371 bound_to 10713
  140.5222  134.6293  157.5322 LP  0  0  0  0  0  0  0  0  0  0  0  0  # atno 17394 bound_to 11000
  139.9752  134.7227  155.9964 LP  0  0  0  0  0  0  0  0  0  0  0  0  # atno 17395 bound_to 11000

$$$$
