AV-unprocessed.smi:1360|AV-procd|sdf|5552|dock10
  -GOLD-   22720 5143D 1   1.00000     0.00000
 Structure written by MMmdl.
 36 37  0  0  0  0  0  0  0  0  1 V2000
  147.1859  141.9768  155.6744 C   0  0  0  0  0  0  0  0  0  0  0  0
  148.5528  141.3178  155.9215 C   0  0  1  0  0  0  0  0  0  0  0  0
  149.3119  140.9830  154.6188 C   0  0  0  0  0  0  0  0  0  0  0  0
  150.1240  139.7851  154.7351 N   0  0  0  0  0  0  0  0  0  0  0  0
  149.7037  138.4797  154.8796 C   0  0  0  0  0  0  0  0  0  0  0  0
  150.8213  137.6981  154.9469 C   0  0  0  0  0  0  0  0  0  0  0  0
  151.8918  138.6291  154.8366 C   0  0  0  0  0  0  0  0  0  0  0  0
  151.4715  139.8776  154.7108 N   0  0  0  0  0  0  0  0  0  0  0  0
  149.3609  142.1958  156.7627 N   0  0  0  0  0  0  0  0  0  0  0  0
  150.1952  141.7941  157.7346 C   0  0  0  0  0  0  0  0  0  0  0  0
  150.3743  140.6107  158.0246 O   0  0  0  0  0  0  0  0  0  0  0  0
  150.9412  142.8993  158.4943 C   0  0  2  0  0  0  0  0  0  0  0  0
  149.9563  143.8740  159.1809 C   0  0  0  0  0  0  0  0  0  0  0  0
  150.6562  145.1090  159.7209 C   0  0  0  0  0  0  0  0  0  0  0  0
  151.8966  145.4752  159.3551 C   0  0  0  0  0  0  0  0  0  0  0  0
  152.7367  144.6991  158.3560 C   0  0  0  0  0  0  0  0  0  0  0  0
  151.9037  143.6698  157.5685 C   0  0  0  0  0  0  0  0  0  0  0  0
  146.5148  141.3139  155.1281 H   0  0  0  0  0  0  0  0  0  0  0  0
  147.2880  142.8966  155.0976 H   0  0  0  0  0  0  0  0  0  0  0  0
  146.6959  142.2268  156.6160 H   0  0  0  0  0  0  0  0  0  0  0  0
  148.3705  140.3885  156.4648 H   0  0  0  0  0  0  0  0  0  0  0  0
  148.6095  140.8559  153.7932 H   0  0  0  0  0  0  0  0  0  0  0  0
  149.9707  141.8067  154.3404 H   0  0  0  0  0  0  0  0  0  0  0  0
  148.6560  138.2197  154.9194 H   0  0  0  0  0  0  0  0  0  0  0  0
  150.8675  136.6251  155.0586 H   0  0  0  0  0  0  0  0  0  0  0  0
  152.9545  138.4361  154.8446 H   0  0  0  0  0  0  0  0  0  0  0  0
  149.2769  143.1878  156.5947 H   0  0  0  0  0  0  0  0  0  0  0  0
  151.5434  142.4277  159.2735 H   0  0  0  0  0  0  0  0  0  0  0  0
  149.1776  144.2048  158.4921 H   0  0  0  0  0  0  0  0  0  0  0  0
  149.4548  143.3695  160.0075 H   0  0  0  0  0  0  0  0  0  0  0  0
  150.1031  145.7141  160.4241 H   0  0  0  0  0  0  0  0  0  0  0  0
  152.3451  146.3581  159.7863 H   0  0  0  0  0  0  0  0  0  0  0  0
  153.2132  145.3967  157.6670 H   0  0  0  0  0  0  0  0  0  0  0  0
  153.5353  144.1980  158.9037 H   0  0  0  0  0  0  0  0  0  0  0  0
  152.5706  142.9836  157.0448 H   0  0  0  0  0  0  0  0  0  0  0  0
  151.3305  144.1890  156.7985 H   0  0  0  0  0  0  0  0  0  0  0  0
  1  2  1  0  0  0  0
  1 18  1  0  0  0  0
  1 19  1  0  0  0  0
  1 20  1  0  0  0  0
  2  3  1  0  0  0  0
  2  9  1  0  0  0  0
  2 21  1  0  0  0  0
  3  4  1  0  0  0  0
  3 22  1  0  0  0  0
  3 23  1  0  0  0  0
  4  8  1  0  0  0  0
  4  5  1  0  0  0  0
  5  6  2  0  0  0  0
  5 24  1  0  0  0  0
  6  7  1  0  0  0  0
  6 25  1  0  0  0  0
  7  8  2  0  0  0  0
  7 26  1  0  0  0  0
  9 10  1  0  0  0  0
  9 27  1  0  0  0  0
 10 11  2  0  0  0  0
 10 12  1  0  0  0  0
 12 17  1  0  0  0  0
 12 13  1  0  0  0  0
 12 28  1  0  0  0  0
 13 14  1  0  0  0  0
 13 29  1  0  0  0  0
 13 30  1  0  0  0  0
 14 15  2  0  0  0  0
 14 31  1  0  0  0  0
 15 16  1  0  0  0  0
 15 32  1  0  0  0  0
 16 17  1  0  0  0  0
 16 33  1  0  0  0  0
 16 34  1  0  0  0  0
 17 35  1  0  0  0  0
 17 36  1  0  0  0  0
M  END
> <s_m_source_file>
AV-unprocessed.smi

> <i_m_source_file_index>
1360

> <i_lp_mmshare_version>
43012

> <i_f3d_flags>
0

> <s_epik_input>
bjFbY0hdW2NIXVtjSF1uMVtDSDJdW0NAQEhdKFtDSDNdKVtOSF1DKD1PKVtDQEBIXTJbQ0gyXVtDSF09W0NIXVtDSDJdW0NIMl0y

> <s_epik_cmdline>
J2VwaWtfcHl0aG9uJywgJy1waCcsICc3LjAnLCAnLXRuJywgJzgnLCAnLW1hJywgJzIwMCcsICctbWV0YWxfYmluZGluZycsICctaW1hZScsICc8aW5maWxlLm1hZT4nLCAnLW9tYWUnLCAnPG91dGZpbGUubWFlPic=

> <r_lp_tautomer_probability>
1

> <r_epik_Ionization_Penalty>
0.000315076

> <r_epik_Ionization_Penalty_Charging>
0

> <r_epik_Ionization_Penalty_Neutral>
0.000315076

> <r_epik_State_Penalty>
-0

> <r_epik_Charging_Adjusted_Penalty>
0

> <i_epik_Tot_Q>
0

> <i_epik_Tot_abs_Q>
0

> <r_epik_Metal_State_Penalty>
-0

> <b_epik_Metal_Only>
0

> <s_lp_Force_Field>
OPLS_2005

> <r_lp_Energy>
7.97441

> <b_lp_Chiralities_Consistent>
1

> <s_lp_Variant>
AV-unprocessed.smi:1360-2

> <Gold.Version>
5.8.1

> <Gold.Id.Protein>
6NUR|6NUR_protein|mol2

> <Gold.PLP.Fitness>
43.6527

> <Gold.PLP.PLP>
-39.2801

> <Gold.PLP.part.hbond>
-1.9472

> <Gold.PLP.part.metal>
0.0000

> <Gold.PLP.part.buried>
-5.3068

> <Gold.PLP.part.nonpolar>
-32.8168

> <Gold.PLP.part.repulsive>
0.0884

> <Gold.PLP.ligand.clash>
0.0000

> <Gold.PLP.ligand.torsion>
0.8308

> <Gold.PLP.Chemscore.Hbond>
2.0000

> <Gold.PLP.Chemscore.CHOScore>
0.0000

> <Gold.PLP.Chemscore.Metal>
0.0000

> <Gold.Chemscore.Hbonds>
donor molecule, donor type, donor heavy atom, donor atom, acceptor molecule, acceptor atom, score
      L1  H     9    27       P1  8028  1.00
      P1  H  7989  7998       L1     8  1.00

> <Gold.PLP.Chemscore.Internal.Correction>
0.0342

> <Gold.Rescore>
     Score         DG    S(hbond)    S(metal)    S(lipo)     H(rot)  DE(clash)    DE(int)     intcor
     18.57     -19.72       1.92        0.00      99.67       1.51       0.35       0.80       ----

> <Gold.Chemscore.Fitness>
18.5650

> <Gold.Chemscore.DG>
-19.7161

> <Gold.Chemscore.ZeroCoef>
-5.4800

> <Gold.Chemscore.Hbond>
1.9249

> <Gold.Chemscore.Metal>
0.0000

> <Gold.Chemscore.Lipo>
99.6726

> <Gold.Chemscore.Internal_Hbond>
0.0000

> <Gold.Chemscore.DEClash>
0.3549

> <Gold.Chemscore.DEInternal>
0.7962

> <Gold.Chemscore.Rot>
1.5057

> <Gold.Chemscore.Internal.Correction>
   9.000000E+99

> <Gold.Chemscore.Hbonds>
donor molecule, donor type, donor heavy atom, donor atom, acceptor molecule, acceptor atom, score
      L1  H     9    27       P1  8028  0.99
      P1  H  7989  7998       L1     8  0.25

> <Gold.Chemscore.Hbond.Weighted>
-6.4290

> <Gold.Chemscore.Metal.Weighted>
-0.0000

> <Gold.Chemscore.Lipo.Weighted>
-11.6617

> <Gold.Chemscore.Internal_Hbond.Weighted>
0.0000

> <Gold.Chemscore.DEClash.Weighted>
0.3549

> <Gold.Chemscore.DEInternal.Weighted>
0.7962

> <Gold.Chemscore.Rot.Weighted>
3.8546

> <Gold.Chemscore.Internal.Correction.Weighted>
   9.000000E+99

> <Gold.Protein.RotatedTorsions>
[ 6907 6896 6895 6894 ] final  -82.33 input  -60.11 | X-H torsion
[ 7974 7965 7964 7962 ] final   10.35 input  175.53 | X-H torsion
[ 8008 7997 7996 7995 ] final -113.90 input   59.86 | X-H torsion
[ 10167 10162 10161 10158 ] final -169.00 input  -65.29 | X-H torsion
[ 10718 10713 10712 10709 ] final   52.39 input   66.30 | X-H torsion
[ 10763 10752 10751 10750 ] final  -95.22 input  -60.55 | X-H torsion
[ 11005 11000 10999 10996 ] final  118.12 input  -57.11 | X-H torsion

> <Gold.Protein.ActiveResidues>
 VAL166  LYS551  ARG553  GLY616  TRP617  ASP618  TYR619  PRO620  LYS621  CYS622 
 ASP623  PHE694  ASN695  SER759  ASP760  ASP761  ALA762  ILE779  LEU786  VAL792 
 PHE793  MET794  SER795  GLU796  ALA797  LYS798  CYS799  TRP800  GLU811  SER814 

> <Gold.Protein.RotatedAtoms>
  150.6899  134.3681  159.4979 H   0  0  0  0  0  0  0  0  0  0  0  0  # atno 6907 bound_to 6896
  152.1500  134.8993  160.0558 H   0  0  0  0  0  0  0  0  0  0  0  0  # atno 6908 bound_to 6896
  152.0094  133.3821  159.4250 H   0  0  0  0  0  0  0  0  0  0  0  0  # atno 6909 bound_to 6896
  146.2390  139.9647  142.8454 H   0  0  0  0  0  0  0  0  0  0  0  0  # atno 7974 bound_to 7965
  155.0280  140.0393  157.2463 H   0  0  0  0  0  0  0  0  0  0  0  0  # atno 8008 bound_to 7997
  154.7321  140.2732  155.6423 H   0  0  0  0  0  0  0  0  0  0  0  0  # atno 8009 bound_to 7997
  156.2844  140.2682  156.2024 H   0  0  0  0  0  0  0  0  0  0  0  0  # atno 8010 bound_to 7997
  139.5950  144.1132  152.1678 H   0  0  0  0  0  0  0  0  0  0  0  0  # atno 10167 bound_to 10162
  157.5070  130.8475  149.8387 H   0  0  0  0  0  0  0  0  0  0  0  0  # atno 10718 bound_to 10713
  154.7128  135.5129  153.8692 H   0  0  0  0  0  0  0  0  0  0  0  0  # atno 10763 bound_to 10752
  153.0795  135.6627  154.0084 H   0  0  0  0  0  0  0  0  0  0  0  0  # atno 10764 bound_to 10752
  153.9923  135.3018  155.3390 H   0  0  0  0  0  0  0  0  0  0  0  0  # atno 10765 bound_to 10752
  139.9098  134.9617  156.7455 H   0  0  0  0  0  0  0  0  0  0  0  0  # atno 11005 bound_to 11000
  145.1737  140.9733  143.4306 LP  0  0  0  0  0  0  0  0  0  0  0  0  # atno 17320 bound_to 7965
  145.0005  139.3603  143.6170 LP  0  0  0  0  0  0  0  0  0  0  0  0  # atno 17321 bound_to 7965
  140.0715  144.5775  150.7188 LP  0  0  0  0  0  0  0  0  0  0  0  0  # atno 17342 bound_to 10162
  140.7204  143.2584  151.4296 LP  0  0  0  0  0  0  0  0  0  0  0  0  # atno 17343 bound_to 10162
  156.0265  130.3778  150.1809 LP  0  0  0  0  0  0  0  0  0  0  0  0  # atno 17370 bound_to 10713
  156.9999  130.9919  151.3393 LP  0  0  0  0  0  0  0  0  0  0  0  0  # atno 17371 bound_to 10713
  140.6815  133.9470  155.7913 LP  0  0  0  0  0  0  0  0  0  0  0  0  # atno 17394 bound_to 11000
  141.0507  134.0489  157.3787 LP  0  0  0  0  0  0  0  0  0  0  0  0  # atno 17395 bound_to 11000

$$$$
