AV-unprocessed.smi:682|AV-procd|sdf|3327|dock3
  -GOLD-   22720 0293D 1   1.00000     0.00000
 Structure written by MMmdl.
 41 42  0  0  0  0  0  0  0  0  1 V2000
  145.9523  142.6012  154.1567 C   0  0  0  0  0  0  0  0  0  0  0  0
  146.1735  141.2357  154.4876 O   0  0  0  0  0  0  0  0  0  0  0  0
  147.3531  140.6130  153.9603 C   0  0  2  0  0  0  0  0  0  0  0  0
  148.5788  141.5098  154.1754 C   0  0  0  0  0  0  0  0  0  0  0  0
  147.0715  140.0426  152.5567 C   0  0  0  0  0  0  0  0  0  0  0  0
  146.4898  138.8142  153.2536 C   0  0  1  0  0  0  0  0  0  0  0  0
  146.8045  137.5693  152.5609 N   0  0  0  0  0  0  0  0  0  0  0  0
  145.9097  136.6087  152.2932 C   0  0  0  0  0  0  0  0  0  0  0  0
  144.7173  136.6890  152.5890 O   0  0  0  0  0  0  0  0  0  0  0  0
  146.4844  135.5626  151.6774 N   0  0  0  0  0  0  0  0  0  0  0  0
  145.8578  134.3614  151.2589 C   0  0  0  0  0  0  0  0  0  0  0  0
  146.5425  133.2180  150.7714 C   0  0  0  0  0  0  0  0  0  0  0  0
  145.6953  132.2487  150.4592 N   0  0  0  0  0  0  0  0  0  0  0  0
  144.4685  132.7521  150.7389 N   0  0  0  0  0  0  0  0  0  0  0  0
  143.2976  131.9332  150.5094 C   0  0  0  0  0  0  0  0  0  0  0  0
  144.5297  134.0416  151.2283 C   0  0  0  0  0  0  0  0  0  0  0  0
  147.3995  139.1344  154.4679 C   0  0  0  0  0  0  0  0  0  0  0  0
  148.7902  138.4715  154.4860 C   0  0  0  0  0  0  0  0  0  0  0  0
  146.7925  138.8632  155.8490 C   0  0  0  0  0  0  0  0  0  0  0  0
  144.9511  142.8869  154.4789 H   0  0  0  0  0  0  0  0  0  0  0  0
  146.0198  142.7864  153.0851 H   0  0  0  0  0  0  0  0  0  0  0  0
  146.6548  143.2570  154.6709 H   0  0  0  0  0  0  0  0  0  0  0  0
  149.5002  141.0177  153.8664 H   0  0  0  0  0  0  0  0  0  0  0  0
  148.6902  141.7827  155.2249 H   0  0  0  0  0  0  0  0  0  0  0  0
  148.5196  142.4294  153.5936 H   0  0  0  0  0  0  0  0  0  0  0  0
  146.3538  140.5929  151.9490 H   0  0  0  0  0  0  0  0  0  0  0  0
  147.9829  139.8353  151.9931 H   0  0  0  0  0  0  0  0  0  0  0  0
  145.4269  138.9427  153.4724 H   0  0  0  0  0  0  0  0  0  0  0  0
  147.7643  137.4270  152.2825 H   0  0  0  0  0  0  0  0  0  0  0  0
  147.4756  135.6273  151.4985 H   0  0  0  0  0  0  0  0  0  0  0  0
  147.6027  133.0608  150.6375 H   0  0  0  0  0  0  0  0  0  0  0  0
  142.3964  132.4843  150.7795 H   0  0  0  0  0  0  0  0  0  0  0  0
  143.3547  131.0294  151.1165 H   0  0  0  0  0  0  0  0  0  0  0  0
  143.2408  131.6559  149.4563 H   0  0  0  0  0  0  0  0  0  0  0  0
  143.6436  134.5949  151.5021 H   0  0  0  0  0  0  0  0  0  0  0  0
  148.7241  137.4004  154.6801 H   0  0  0  0  0  0  0  0  0  0  0  0
  149.4258  138.8994  155.2619 H   0  0  0  0  0  0  0  0  0  0  0  0
  149.3165  138.5907  153.5388 H   0  0  0  0  0  0  0  0  0  0  0  0
  146.8015  137.7997  156.0894 H   0  0  0  0  0  0  0  0  0  0  0  0
  145.7532  139.1865  155.9092 H   0  0  0  0  0  0  0  0  0  0  0  0
  147.3406  139.3845  156.6342 H   0  0  0  0  0  0  0  0  0  0  0  0
  1  2  1  0  0  0  0
  1 20  1  0  0  0  0
  1 21  1  0  0  0  0
  1 22  1  0  0  0  0
  2  3  1  0  0  0  0
  3 17  1  0  0  0  0
  3  4  1  0  0  0  0
  3  5  1  0  0  0  0
  4 23  1  0  0  0  0
  4 24  1  0  0  0  0
  4 25  1  0  0  0  0
  5  6  1  0  0  0  0
  5 26  1  0  0  0  0
  5 27  1  0  0  0  0
  6  7  1  0  0  0  0
  6 17  1  0  0  0  0
  6 28  1  0  0  0  0
  7  8  1  0  0  0  0
  7 29  1  0  0  0  0
  8  9  2  0  0  0  0
  8 10  1  0  0  0  0
 10 11  1  0  0  0  0
 10 30  1  0  0  0  0
 11 16  2  0  0  0  0
 11 12  1  0  0  0  0
 12 13  2  0  0  0  0
 12 31  1  0  0  0  0
 13 14  1  0  0  0  0
 14 15  1  0  0  0  0
 14 16  1  0  0  0  0
 15 32  1  0  0  0  0
 15 33  1  0  0  0  0
 15 34  1  0  0  0  0
 16 35  1  0  0  0  0
 17 18  1  0  0  0  0
 17 19  1  0  0  0  0
 18 36  1  0  0  0  0
 18 37  1  0  0  0  0
 18 38  1  0  0  0  0
 19 39  1  0  0  0  0
 19 40  1  0  0  0  0
 19 41  1  0  0  0  0
M  END
> <s_m_source_file>
AV-unprocessed.smi

> <i_m_source_file_index>
682

> <i_lp_mmshare_version>
43012

> <i_f3d_flags>
0

> <s_epik_input>
W0NIM11PW0NAQF0xKFtDSDNdKVtDSDJdW0NASF0oQzEoW0NIM10pW0NIM10pW05IXUMoPU8pW05IXWMyW2NIXW5uKFtDSDNdKVtjSF0y

> <s_epik_cmdline>
J2VwaWtfcHl0aG9uJywgJy1waCcsICc3LjAnLCAnLXRuJywgJzgnLCAnLW1hJywgJzIwMCcsICctbWV0YWxfYmluZGluZycsICctaW1hZScsICc8aW5maWxlLm1hZT4nLCAnLW9tYWUnLCAnPG91dGZpbGUubWFlPic=

> <r_lp_tautomer_probability>
1

> <r_epik_Ionization_Penalty>
0.000192302

> <r_epik_Ionization_Penalty_Charging>
0

> <r_epik_Ionization_Penalty_Neutral>
0.000192302

> <r_epik_State_Penalty>
-0

> <r_epik_Charging_Adjusted_Penalty>
0

> <i_epik_Tot_Q>
0

> <i_epik_Tot_abs_Q>
0

> <r_epik_Metal_State_Penalty>
-0

> <b_epik_Metal_Only>
0

> <s_lp_Force_Field>
OPLS_2005

> <r_lp_Energy>
24.7984

> <b_lp_Chiralities_Consistent>
1

> <s_lp_Variant>
AV-unprocessed.smi:682-2

> <Gold.Version>
5.8.1

> <Gold.Id.Protein>
6NUR|6NUR_protein|mol2

> <Gold.PLP.Fitness>
36.9814

> <Gold.PLP.PLP>
-29.1067

> <Gold.PLP.part.hbond>
-1.9413

> <Gold.PLP.part.metal>
0.0000

> <Gold.PLP.part.buried>
-0.3879

> <Gold.PLP.part.nonpolar>
-28.4559

> <Gold.PLP.part.repulsive>
0.6342

> <Gold.PLP.ligand.clash>
0.0000

> <Gold.PLP.ligand.torsion>
0.3204

> <Gold.PLP.Chemscore.Hbond>
1.9280

> <Gold.PLP.Chemscore.CHOScore>
0.7857

> <Gold.PLP.Chemscore.Metal>
0.0000

> <Gold.Chemscore.Hbonds>
donor molecule, donor type, donor heavy atom, donor atom, acceptor molecule, acceptor atom, score
      L1  H     7    29       P1  7948  0.91
      L1  H    10    30       P1  7948  1.00
      L1  C    12    31       P1 10747  0.80

> <Gold.PLP.Chemscore.Internal.Correction>
0.3744

> <Gold.Rescore>
     Score         DG    S(hbond)    S(metal)    S(lipo)     H(rot)  DE(clash)    DE(int)     intcor
     14.25     -16.96       1.90        0.00      70.88       1.23       1.42       1.30       ----

> <Gold.Chemscore.Fitness>
14.2454

> <Gold.Chemscore.DG>
-16.9585

> <Gold.Chemscore.ZeroCoef>
-5.4800

> <Gold.Chemscore.Hbond>
1.8992

> <Gold.Chemscore.Metal>
0.0000

> <Gold.Chemscore.Lipo>
70.8816

> <Gold.Chemscore.Internal_Hbond>
0.0000

> <Gold.Chemscore.DEClash>
1.4156

> <Gold.Chemscore.DEInternal>
1.2975

> <Gold.Chemscore.Rot>
1.2336

> <Gold.Chemscore.Internal.Correction>
   9.000000E+99

> <Gold.Chemscore.Hbonds>
donor molecule, donor type, donor heavy atom, donor atom, acceptor molecule, acceptor atom, score
      L1  H     7    29       P1  7948  0.88
      L1  H    10    30       P1  7948  0.92

> <Gold.Chemscore.Hbond.Weighted>
-6.3434

> <Gold.Chemscore.Metal.Weighted>
-0.0000

> <Gold.Chemscore.Lipo.Weighted>
-8.2931

> <Gold.Chemscore.Internal_Hbond.Weighted>
0.0000

> <Gold.Chemscore.DEClash.Weighted>
1.4156

> <Gold.Chemscore.DEInternal.Weighted>
1.2975

> <Gold.Chemscore.Rot.Weighted>
3.1581

> <Gold.Chemscore.Internal.Correction.Weighted>
   9.000000E+99

> <Gold.Protein.RotatedTorsions>
[ 6907 6896 6895 6894 ] final  139.77 input  -60.11 | X-H torsion
[ 7974 7965 7964 7962 ] final   58.23 input  175.53 | X-H torsion
[ 8008 7997 7996 7995 ] final   81.60 input   59.86 | X-H torsion
[ 10167 10162 10161 10158 ] final   96.52 input  -65.29 | X-H torsion
[ 10718 10713 10712 10709 ] final -129.12 input   66.30 | X-H torsion
[ 10763 10752 10751 10750 ] final   86.23 input  -60.55 | X-H torsion
[ 11005 11000 10999 10996 ] final -137.61 input  -57.11 | X-H torsion

> <Gold.Protein.ActiveResidues>
 VAL166  LYS551  ARG553  GLY616  TRP617  ASP618  TYR619  PRO620  LYS621  CYS622 
 ASP623  PHE694  ASN695  SER759  ASP760  ASP761  ALA762  ILE779  LEU786  VAL792 
 PHE793  MET794  SER795  GLU796  ALA797  LYS798  CYS799  TRP800  GLU811  SER814 

> <Gold.Protein.RotatedAtoms>
  152.2510  133.5215  159.5325 H   0  0  0  0  0  0  0  0  0  0  0  0  # atno 6907 bound_to 6896
  150.7093  134.0960  159.3958 H   0  0  0  0  0  0  0  0  0  0  0  0  # atno 6908 bound_to 6896
  151.8880  135.0428  160.0546 H   0  0  0  0  0  0  0  0  0  0  0  0  # atno 6909 bound_to 6896
  145.9204  139.3725  143.0482 H   0  0  0  0  0  0  0  0  0  0  0  0  # atno 7974 bound_to 7965
  155.8993  140.3434  155.6015 H   0  0  0  0  0  0  0  0  0  0  0  0  # atno 8008 bound_to 7997
  155.7518  140.0821  157.2216 H   0  0  0  0  0  0  0  0  0  0  0  0  # atno 8009 bound_to 7997
  154.4042  140.1552  156.2720 H   0  0  0  0  0  0  0  0  0  0  0  0  # atno 8010 bound_to 7997
  139.7886  144.6861  150.9923 H   0  0  0  0  0  0  0  0  0  0  0  0  # atno 10167 bound_to 10162
  156.2016  130.6861  151.0545 H   0  0  0  0  0  0  0  0  0  0  0  0  # atno 10718 bound_to 10713
  153.1551  135.4588  154.9692 H   0  0  0  0  0  0  0  0  0  0  0  0  # atno 10763 bound_to 10752
  154.7855  135.3202  154.7898 H   0  0  0  0  0  0  0  0  0  0  0  0  # atno 10764 bound_to 10752
  153.8397  135.6931  153.4859 H   0  0  0  0  0  0  0  0  0  0  0  0  # atno 10765 bound_to 10752
  140.8695  134.2069  157.4659 H   0  0  0  0  0  0  0  0  0  0  0  0  # atno 11005 bound_to 11000
  145.8557  140.9504  143.0726 LP  0  0  0  0  0  0  0  0  0  0  0  0  # atno 17320 bound_to 7965
  144.6752  140.0465  143.7480 LP  0  0  0  0  0  0  0  0  0  0  0  0  # atno 17321 bound_to 7965
  140.7820  143.4405  151.0559 LP  0  0  0  0  0  0  0  0  0  0  0  0  # atno 17342 bound_to 10162
  139.8082  143.7988  152.3169 LP  0  0  0  0  0  0  0  0  0  0  0  0  # atno 17343 bound_to 10162
  157.6989  131.0783  150.6884 LP  0  0  0  0  0  0  0  0  0  0  0  0  # atno 17370 bound_to 10713
  156.6941  130.4604  149.5591 LP  0  0  0  0  0  0  0  0  0  0  0  0  # atno 17371 bound_to 10713
  139.8711  134.9767  156.4932 LP  0  0  0  0  0  0  0  0  0  0  0  0  # atno 17394 bound_to 11000
  140.8590  133.8074  155.9245 LP  0  0  0  0  0  0  0  0  0  0  0  0  # atno 17395 bound_to 11000

$$$$
