AV-unprocessed.smi:2040|AV-procd|sdf|8289|dock5
  -GOLD-   2272010553D 1   1.00000     0.00000
 Structure written by MMmdl.
 38 39  0  0  0  0  0  0  0  0  1 V2000
  150.8566  142.1387  156.4581 C   0  0  0  0  0  0  0  0  0  0  0  0
  150.5686  140.9303  155.6172 C   0  0  0  0  0  0  0  0  0  0  0  0
  149.3840  140.6349  154.8815 C   0  0  0  0  0  0  0  0  0  0  0  0
  149.6755  139.4241  154.3153 C   0  0  0  0  0  0  0  0  0  0  0  0
  148.9042  138.6499  153.5066 N   0  0  0  0  0  0  0  0  0  0  0  0
  147.5765  138.7074  153.3046 C   0  0  0  0  0  0  0  0  0  0  0  0
  146.8114  139.5237  153.8180 O   0  0  0  0  0  0  0  0  0  0  0  0
  147.1788  137.7491  152.4551 N   0  0  0  0  0  0  0  0  0  0  0  0
  145.8046  137.5108  152.0177 C   0  0  1  0  0  0  0  0  0  0  0  0
  145.7424  137.5666  150.4836 C   0  0  0  0  0  0  0  0  0  0  0  0
  145.3070  136.1608  152.5695 C   0  0  1  0  0  0  0  0  0  0  0  0
  143.8567  135.8239  152.2126 C   0  0  0  0  0  0  0  0  0  0  0  0
  143.8633  134.3148  152.2875 C   0  0  0  0  0  0  0  0  0  0  0  0
  145.2304  133.9855  151.6984 C   0  0  0  0  0  0  0  0  0  0  0  0
  146.0742  135.0848  152.0315 O   0  0  0  0  0  0  0  0  0  0  0  0
  150.9419  139.0455  154.7011 N   0  0  0  0  0  0  0  0  0  0  0  0
  151.6883  137.8495  154.3629 C   0  0  0  0  0  0  0  0  0  0  0  0
  151.4916  139.9816  155.5046 N   0  0  0  0  0  0  0  0  0  0  0  0
  149.9850  142.7903  156.5231 H   0  0  0  0  0  0  0  0  0  0  0  0
  151.6762  142.7221  156.0384 H   0  0  0  0  0  0  0  0  0  0  0  0
  151.1338  141.8545  157.4736 H   0  0  0  0  0  0  0  0  0  0  0  0
  148.4837  141.2249  154.7993 H   0  0  0  0  0  0  0  0  0  0  0  0
  149.4007  137.9363  152.9940 H   0  0  0  0  0  0  0  0  0  0  0  0
  147.8816  137.1272  152.0833 H   0  0  0  0  0  0  0  0  0  0  0  0
  145.1502  138.2903  152.4119 H   0  0  0  0  0  0  0  0  0  0  0  0
  144.7234  137.4192  150.1252 H   0  0  0  0  0  0  0  0  0  0  0  0
  146.3683  136.7966  150.0316 H   0  0  0  0  0  0  0  0  0  0  0  0
  146.0825  138.5338  150.1121 H   0  0  0  0  0  0  0  0  0  0  0  0
  145.4181  136.1332  153.6551 H   0  0  0  0  0  0  0  0  0  0  0  0
  143.1333  136.2817  152.8879 H   0  0  0  0  0  0  0  0  0  0  0  0
  143.6256  136.1449  151.1956 H   0  0  0  0  0  0  0  0  0  0  0  0
  143.8121  133.9907  153.3278 H   0  0  0  0  0  0  0  0  0  0  0  0
  143.0403  133.8523  151.7422 H   0  0  0  0  0  0  0  0  0  0  0  0
  145.6314  133.0452  152.0771 H   0  0  0  0  0  0  0  0  0  0  0  0
  145.1693  133.9146  150.6118 H   0  0  0  0  0  0  0  0  0  0  0  0
  151.8861  137.8337  153.2910 H   0  0  0  0  0  0  0  0  0  0  0  0
  151.1078  136.9666  154.6319 H   0  0  0  0  0  0  0  0  0  0  0  0
  152.6380  137.8241  154.8990 H   0  0  0  0  0  0  0  0  0  0  0  0
  1  2  1  0  0  0  0
  1 19  1  0  0  0  0
  1 20  1  0  0  0  0
  1 21  1  0  0  0  0
  2 18  2  0  0  0  0
  2  3  1  0  0  0  0
  3  4  2  0  0  0  0
  3 22  1  0  0  0  0
  4  5  1  0  0  0  0
  4 16  1  0  0  0  0
  5  6  1  0  0  0  0
  5 23  1  0  0  0  0
  6  7  2  0  0  0  0
  6  8  1  0  0  0  0
  8  9  1  0  0  0  0
  8 24  1  0  0  0  0
  9 10  1  0  0  0  0
  9 11  1  0  0  0  0
  9 25  1  0  0  0  0
 10 26  1  0  0  0  0
 10 27  1  0  0  0  0
 10 28  1  0  0  0  0
 11 15  1  0  0  0  0
 11 12  1  0  0  0  0
 11 29  1  0  0  0  0
 12 13  1  0  0  0  0
 12 30  1  0  0  0  0
 12 31  1  0  0  0  0
 13 14  1  0  0  0  0
 13 32  1  0  0  0  0
 13 33  1  0  0  0  0
 14 15  1  0  0  0  0
 14 34  1  0  0  0  0
 14 35  1  0  0  0  0
 16 17  1  0  0  0  0
 16 18  1  0  0  0  0
 17 36  1  0  0  0  0
 17 37  1  0  0  0  0
 17 38  1  0  0  0  0
M  END
> <s_m_source_file>
AV-unprocessed.smi

> <i_m_source_file_index>
2040

> <i_lp_mmshare_version>
43012

> <i_f3d_flags>
0

> <s_epik_input>
W0NIM11jMVtjSF1jKG4objEpW0NIM10pW05IXUMoPU8pW05IXVtDQEhdKFtDSDNdKVtDQEBIXTJbQ0gyXVtDSDJdW0NIMl1PMg==

> <s_epik_cmdline>
J2VwaWtfcHl0aG9uJywgJy1waCcsICc3LjAnLCAnLXRuJywgJzgnLCAnLW1hJywgJzIwMCcsICctbWV0YWxfYmluZGluZycsICctaW1hZScsICc8aW5maWxlLm1hZT4nLCAnLW9tYWUnLCAnPG91dGZpbGUubWFlPic=

> <r_lp_tautomer_probability>
1

> <r_epik_Ionization_Penalty>
9.09088e-05

> <r_epik_Ionization_Penalty_Charging>
0

> <r_epik_Ionization_Penalty_Neutral>
9.09088e-05

> <r_epik_State_Penalty>
-0

> <r_epik_Charging_Adjusted_Penalty>
0

> <i_epik_Tot_Q>
0

> <i_epik_Tot_abs_Q>
0

> <r_epik_Metal_State_Penalty>
-0

> <b_epik_Metal_Only>
0

> <s_lp_Force_Field>
OPLS_2005

> <r_lp_Energy>
18.8774

> <b_lp_Chiralities_Consistent>
1

> <s_lp_Variant>
AV-unprocessed.smi:2040-4

> <Gold.Version>
5.8.1

> <Gold.Id.Protein>
6NUR|6NUR_protein|mol2

> <Gold.PLP.Fitness>
34.3907

> <Gold.PLP.PLP>
-29.5235

> <Gold.PLP.part.hbond>
-3.3971

> <Gold.PLP.part.metal>
0.0000

> <Gold.PLP.part.buried>
4.0293

> <Gold.PLP.part.nonpolar>
-32.1576

> <Gold.PLP.part.repulsive>
0.4653

> <Gold.PLP.ligand.clash>
0.0000

> <Gold.PLP.ligand.torsion>
0.1037

> <Gold.PLP.Chemscore.Hbond>
1.6881

> <Gold.PLP.Chemscore.CHOScore>
0.0000

> <Gold.PLP.Chemscore.Metal>
0.0000

> <Gold.Chemscore.Hbonds>
donor molecule, donor type, donor heavy atom, donor atom, acceptor molecule, acceptor atom, score
      L1  H     5    23       P1  7948  0.73
      L1  H     8    24       P1  7948  0.67

> <Gold.PLP.Chemscore.Internal.Correction>
0.0105

> <Gold.Rescore>
     Score         DG    S(hbond)    S(metal)    S(lipo)     H(rot)  DE(clash)    DE(int)     intcor
     12.06     -16.48       1.89        0.00      67.00       1.23       3.36       1.06       ----

> <Gold.Chemscore.Fitness>
12.0558

> <Gold.Chemscore.DG>
-16.4776

> <Gold.Chemscore.ZeroCoef>
-5.4800

> <Gold.Chemscore.Hbond>
1.8912

> <Gold.Chemscore.Metal>
0.0000

> <Gold.Chemscore.Lipo>
67.0033

> <Gold.Chemscore.Internal_Hbond>
0.0000

> <Gold.Chemscore.DEClash>
3.3575

> <Gold.Chemscore.DEInternal>
1.0643

> <Gold.Chemscore.Rot>
1.2338

> <Gold.Chemscore.Internal.Correction>
   9.000000E+99

> <Gold.Chemscore.Hbonds>
donor molecule, donor type, donor heavy atom, donor atom, acceptor molecule, acceptor atom, score
      L1  H     5    23       P1  7948  0.65
      L1  H     8    24       P1  7948  0.67

> <Gold.Chemscore.Hbond.Weighted>
-6.3166

> <Gold.Chemscore.Metal.Weighted>
-0.0000

> <Gold.Chemscore.Lipo.Weighted>
-7.8394

> <Gold.Chemscore.Internal_Hbond.Weighted>
0.0000

> <Gold.Chemscore.DEClash.Weighted>
3.3575

> <Gold.Chemscore.DEInternal.Weighted>
1.0643

> <Gold.Chemscore.Rot.Weighted>
3.1584

> <Gold.Chemscore.Internal.Correction.Weighted>
   9.000000E+99

> <Gold.Protein.RotatedTorsions>
[ 6907 6896 6895 6894 ] final   61.06 input  -60.11 | X-H torsion
[ 7974 7965 7964 7962 ] final  155.32 input  175.53 | X-H torsion
[ 8008 7997 7996 7995 ] final   -5.00 input   59.86 | X-H torsion
[ 10167 10162 10161 10158 ] final -103.80 input  -65.29 | X-H torsion
[ 10718 10713 10712 10709 ] final   66.04 input   66.30 | X-H torsion
[ 10763 10752 10751 10750 ] final  -46.10 input  -60.55 | X-H torsion
[ 11005 11000 10999 10996 ] final    5.49 input  -57.11 | X-H torsion

> <Gold.Protein.ActiveResidues>
 VAL166  LYS551  ARG553  GLY616  TRP617  ASP618  TYR619  PRO620  LYS621  CYS622 
 ASP623  PHE694  ASN695  SER759  ASP760  ASP761  ALA762  ILE779  LEU786  VAL792 
 PHE793  MET794  SER795  GLU796  ALA797  LYS798  CYS799  TRP800  GLU811  SER814 

> <Gold.Protein.RotatedAtoms>
  152.4057  134.6211  160.0050 H   0  0  0  0  0  0  0  0  0  0  0  0  # atno 6907 bound_to 6896
  151.6404  133.3321  159.3137 H   0  0  0  0  0  0  0  0  0  0  0  0  # atno 6908 bound_to 6896
  150.7952  134.7047  159.6615 H   0  0  0  0  0  0  0  0  0  0  0  0  # atno 6909 bound_to 6896
  144.8032  139.7052  143.6173 H   0  0  0  0  0  0  0  0  0  0  0  0  # atno 7974 bound_to 7965
  154.6084  140.2469  155.7700 H   0  0  0  0  0  0  0  0  0  0  0  0  # atno 8008 bound_to 7997
  156.2355  140.2951  156.0253 H   0  0  0  0  0  0  0  0  0  0  0  0  # atno 8009 bound_to 7997
  155.2093  140.0397  157.2921 H   0  0  0  0  0  0  0  0  0  0  0  0  # atno 8010 bound_to 7997
  140.2161  143.3711  152.1010 H   0  0  0  0  0  0  0  0  0  0  0  0  # atno 10167 bound_to 10162
  157.6144  130.9246  150.0056 H   0  0  0  0  0  0  0  0  0  0  0  0  # atno 10718 bound_to 10713
  154.0394  135.6646  153.4788 H   0  0  0  0  0  0  0  0  0  0  0  0  # atno 10763 bound_to 10752
  153.0508  135.5086  154.7857 H   0  0  0  0  0  0  0  0  0  0  0  0  # atno 10764 bound_to 10752
  154.6828  135.3048  154.9555 H   0  0  0  0  0  0  0  0  0  0  0  0  # atno 10765 bound_to 10752
  140.5702  134.0110  155.8005 H   0  0  0  0  0  0  0  0  0  0  0  0  # atno 11005 bound_to 11000
  146.2319  139.5829  142.9550 LP  0  0  0  0  0  0  0  0  0  0  0  0  # atno 17320 bound_to 7965
  145.5501  141.0414  143.2283 LP  0  0  0  0  0  0  0  0  0  0  0  0  # atno 17321 bound_to 7965
  139.5162  144.6973  151.5593 LP  0  0  0  0  0  0  0  0  0  0  0  0  # atno 17342 bound_to 10162
  140.6289  143.9115  150.6588 LP  0  0  0  0  0  0  0  0  0  0  0  0  # atno 17343 bound_to 10162
  156.1259  130.3644  149.9810 LP  0  0  0  0  0  0  0  0  0  0  0  0  # atno 17370 bound_to 10713
  156.7881  130.9246  151.3646 LP  0  0  0  0  0  0  0  0  0  0  0  0  # atno 17371 bound_to 10713
  141.1061  133.9691  157.2994 LP  0  0  0  0  0  0  0  0  0  0  0  0  # atno 17394 bound_to 11000
  139.9366  135.0196  156.8574 LP  0  0  0  0  0  0  0  0  0  0  0  0  # atno 17395 bound_to 11000

$$$$
