AV-unprocessed.smi:339|AV-procd|sdf|2378|dock8
  -GOLD-   2262022303D 1   1.00000     0.00000
 Structure written by MMmdl.
 45 46  0  0  0  0  0  0  0  0  1 V2000
  153.7741  143.1495  162.7149 C   0  0  0  0  0  0  0  0  0  0  0  0
  152.9897  143.3507  161.4313 C   0  0  0  0  0  0  0  0  0  0  0  0
  152.3013  144.5635  161.2228 C   0  0  0  0  0  0  0  0  0  0  0  0
  151.5573  144.7631  160.0453 C   0  0  0  0  0  0  0  0  0  0  0  0
  151.4945  143.7486  159.0724 C   0  0  0  0  0  0  0  0  0  0  0  0
  152.1796  142.5319  159.2694 C   0  0  0  0  0  0  0  0  0  0  0  0
  152.0935  141.4451  158.2140 C   0  0  0  0  0  0  0  0  0  0  0  0
  152.9408  142.3358  160.4458 C   0  0  0  0  0  0  0  0  0  0  0  0
  153.6046  141.1524  160.6424 O   0  0  0  0  0  0  0  0  0  0  0  0
  154.6772  140.9411  159.7358 C   0  0  0  0  0  0  0  0  0  0  0  0
  154.9243  139.4296  159.6034 C   0  0  2  0  0  0  0  0  0  0  0  0
  154.3236  139.0120  158.3926 O   0  0  0  0  0  0  0  0  0  0  0  0
  154.2713  138.6354  160.7567 C   0  0  0  0  0  0  0  0  0  0  0  0
  155.1235  138.5968  161.9517 N   0  0  0  0  0  0  0  0  0  0  0  0
  155.4942  139.8433  162.4157 N   0  0  0  0  0  0  0  0  0  0  0  0
  156.2275  139.9780  163.4715 C   0  0  0  0  0  0  0  0  0  0  0  0
  156.5671  141.3852  163.8839 C   0  0  0  0  0  0  0  0  0  0  0  0
  156.6787  138.7933  164.1945 C   0  0  0  0  0  0  0  0  0  0  0  0
  157.5371  139.0124  165.4330 C   0  0  0  0  0  0  0  0  0  0  0  0
  156.3170  137.5741  163.7224 C   0  0  0  0  0  0  0  0  0  0  0  0
  156.7165  136.3603  164.3585 C   0  0  0  0  0  0  0  0  0  0  0  0
  157.0210  135.3712  164.8775 N   0  0  0  0  0  0  0  0  0  0  0  0
  155.4872  137.4145  162.5259 C   0  0  0  0  0  0  0  0  0  0  0  0
  155.1391  136.3230  162.0729 O   0  0  0  0  0  0  0  0  0  0  0  0
  153.4036  143.8021  163.5058 H   0  0  0  0  0  0  0  0  0  0  0  0
  154.8281  143.3747  162.5527 H   0  0  0  0  0  0  0  0  0  0  0  0
  153.6914  142.1208  163.0667 H   0  0  0  0  0  0  0  0  0  0  0  0
  152.3386  145.3449  161.9678 H   0  0  0  0  0  0  0  0  0  0  0  0
  151.0300  145.6930  159.8908 H   0  0  0  0  0  0  0  0  0  0  0  0
  150.9161  143.9078  158.1739 H   0  0  0  0  0  0  0  0  0  0  0  0
  151.9885  140.4628  158.6751 H   0  0  0  0  0  0  0  0  0  0  0  0
  152.9938  141.4436  157.6000 H   0  0  0  0  0  0  0  0  0  0  0  0
  151.2355  141.5990  157.5595 H   0  0  0  0  0  0  0  0  0  0  0  0
  154.3818  141.3543  158.7705 H   0  0  0  0  0  0  0  0  0  0  0  0
  155.5851  141.4657  160.0394 H   0  0  0  0  0  0  0  0  0  0  0  0
  155.9982  139.2417  159.5695 H   0  0  0  0  0  0  0  0  0  0  0  0
  154.6050  138.1296  158.2063 H   0  0  0  0  0  0  0  0  0  0  0  0
  153.3178  139.0913  161.0290 H   0  0  0  0  0  0  0  0  0  0  0  0
  154.0122  137.6267  160.4279 H   0  0  0  0  0  0  0  0  0  0  0  0
  157.6460  141.5137  163.9736 H   0  0  0  0  0  0  0  0  0  0  0  0
  156.1161  141.6242  164.8472 H   0  0  0  0  0  0  0  0  0  0  0  0
  156.2085  142.1190  163.1604 H   0  0  0  0  0  0  0  0  0  0  0  0
  157.7325  138.0838  165.9687 H   0  0  0  0  0  0  0  0  0  0  0  0
  157.0444  139.6904  166.1305 H   0  0  0  0  0  0  0  0  0  0  0  0
  158.4995  139.4434  165.1562 H   0  0  0  0  0  0  0  0  0  0  0  0
  1  2  1  0  0  0  0
  1 25  1  0  0  0  0
  1 26  1  0  0  0  0
  1 27  1  0  0  0  0
  2  8  1  0  0  0  0
  2  3  2  0  0  0  0
  3  4  1  0  0  0  0
  3 28  1  0  0  0  0
  4  5  2  0  0  0  0
  4 29  1  0  0  0  0
  5  6  1  0  0  0  0
  5 30  1  0  0  0  0
  6  7  1  0  0  0  0
  6  8  2  0  0  0  0
  7 31  1  0  0  0  0
  7 32  1  0  0  0  0
  7 33  1  0  0  0  0
  8  9  1  0  0  0  0
  9 10  1  0  0  0  0
 10 11  1  0  0  0  0
 10 34  1  0  0  0  0
 10 35  1  0  0  0  0
 11 12  1  0  0  0  0
 11 13  1  0  0  0  0
 11 36  1  0  0  0  0
 12 37  1  0  0  0  0
 13 14  1  0  0  0  0
 13 38  1  0  0  0  0
 13 39  1  0  0  0  0
 14 23  1  0  0  0  0
 14 15  1  0  0  0  0
 15 16  2  0  0  0  0
 16 17  1  0  0  0  0
 16 18  1  0  0  0  0
 17 40  1  0  0  0  0
 17 41  1  0  0  0  0
 17 42  1  0  0  0  0
 18 19  1  0  0  0  0
 18 20  2  0  0  0  0
 19 43  1  0  0  0  0
 19 44  1  0  0  0  0
 19 45  1  0  0  0  0
 20 21  1  0  0  0  0
 20 23  1  0  0  0  0
 21 22  3  0  0  0  0
 23 24  2  0  0  0  0
M  END
> <s_m_source_file>
AV-unprocessed.smi

> <i_m_source_file_index>
339

> <i_lp_mmshare_version>
43012

> <i_f3d_flags>
0

> <s_epik_input>
W0NIM11jMVtjSF1bY0hdW2NIXWMoW0NIM10pYzFPW0NIMl1bQ0BIXShbT0hdKVtDSDJdbjJuYyhbQ0gzXSljKFtDSDNdKWMoQyNOKWMyPU8=

> <s_epik_cmdline>
J2VwaWtfcHl0aG9uJywgJy1waCcsICc3LjAnLCAnLXRuJywgJzgnLCAnLW1hJywgJzIwMCcsICctbWV0YWxfYmluZGluZycsICctaW1hZScsICc8aW5maWxlLm1hZT4nLCAnLW9tYWUnLCAnPG91dGZpbGUubWFlPic=

> <r_lp_tautomer_probability>
1

> <r_epik_Ionization_Penalty>
1.17331e-07

> <r_epik_Ionization_Penalty_Charging>
1.57223e-10

> <r_epik_Ionization_Penalty_Neutral>
1.17174e-07

> <r_epik_State_Penalty>
-0

> <r_epik_Charging_Adjusted_Penalty>
1.57223e-10

> <i_epik_Tot_Q>
0

> <i_epik_Tot_abs_Q>
0

> <r_epik_Metal_State_Penalty>
-0

> <b_epik_Metal_Only>
0

> <s_lp_Force_Field>
OPLS_2005

> <r_lp_Energy>
35.9352

> <b_lp_Chiralities_Consistent>
1

> <s_lp_Variant>
AV-unprocessed.smi:339-1

> <Gold.Version>
5.8.1

> <Gold.Id.Protein>
6NUR|6NUR_protein|mol2

> <Gold.PLP.Fitness>
48.9693

> <Gold.PLP.PLP>
-47.9757

> <Gold.PLP.part.hbond>
-1.0000

> <Gold.PLP.part.metal>
0.0000

> <Gold.PLP.part.buried>
-6.3737

> <Gold.PLP.part.nonpolar>
-38.5250

> <Gold.PLP.part.repulsive>
0.0867

> <Gold.PLP.ligand.clash>
0.0000

> <Gold.PLP.ligand.torsion>
1.0405

> <Gold.PLP.Chemscore.Hbond>
1.0000

> <Gold.PLP.Chemscore.CHOScore>
0.0000

> <Gold.PLP.Chemscore.Metal>
0.0000

> <Gold.Chemscore.Hbonds>
donor molecule, donor type, donor heavy atom, donor atom, acceptor molecule, acceptor atom, score
      P1  H  7997  8008       L1    12  1.00

> <Gold.PLP.Chemscore.Internal.Correction>
0.0747

> <Gold.Rescore>
     Score         DG    S(hbond)    S(metal)    S(lipo)     H(rot)  DE(clash)    DE(int)     intcor
     16.17     -18.67       0.94        0.00     136.02       2.29       0.05       2.45       ----

> <Gold.Chemscore.Fitness>
16.1745

> <Gold.Chemscore.DG>
-18.6732

> <Gold.Chemscore.ZeroCoef>
-5.4800

> <Gold.Chemscore.Hbond>
0.9409

> <Gold.Chemscore.Metal>
0.0000

> <Gold.Chemscore.Lipo>
136.0200

> <Gold.Chemscore.Internal_Hbond>
0.0000

> <Gold.Chemscore.DEClash>
0.0524

> <Gold.Chemscore.DEInternal>
2.4463

> <Gold.Chemscore.Rot>
2.2905

> <Gold.Chemscore.Internal.Correction>
   9.000000E+99

> <Gold.Chemscore.Hbonds>
donor molecule, donor type, donor heavy atom, donor atom, acceptor molecule, acceptor atom, score
      P1  H  7997  8008       L1    12  0.35

> <Gold.Chemscore.Hbond.Weighted>
-3.1425

> <Gold.Chemscore.Metal.Weighted>
-0.0000

> <Gold.Chemscore.Lipo.Weighted>
-15.9143

> <Gold.Chemscore.Internal_Hbond.Weighted>
0.0000

> <Gold.Chemscore.DEClash.Weighted>
0.0524

> <Gold.Chemscore.DEInternal.Weighted>
2.4463

> <Gold.Chemscore.Rot.Weighted>
5.8636

> <Gold.Chemscore.Internal.Correction.Weighted>
   9.000000E+99

> <Gold.Protein.RotatedTorsions>
[ 6907 6896 6895 6894 ] final  -81.66 input  -60.11 | X-H torsion
[ 7974 7965 7964 7962 ] final  147.52 input  175.53 | X-H torsion
[ 8008 7997 7996 7995 ] final -108.41 input   59.86 | X-H torsion
[ 10167 10162 10161 10158 ] final   62.23 input  -65.29 | X-H torsion
[ 10718 10713 10712 10709 ] final   17.92 input   66.30 | X-H torsion
[ 10763 10752 10751 10750 ] final   14.94 input  -60.55 | X-H torsion
[ 11005 11000 10999 10996 ] final  129.27 input  -57.11 | X-H torsion

> <Gold.Protein.ActiveResidues>
 VAL166  LYS551  ARG553  GLY616  TRP617  ASP618  TYR619  PRO620  LYS621  CYS622 
 ASP623  PHE694  ASN695  SER759  ASP760  ASP761  ALA762  ILE779  LEU786  VAL792 
 PHE793  MET794  SER795  GLU796  ALA797  LYS798  CYS799  TRP800  GLU811  SER814 

> <Gold.Protein.RotatedAtoms>
  150.6908  134.3784  159.5022 H   0  0  0  0  0  0  0  0  0  0  0  0  # atno 6907 bound_to 6896
  152.1589  134.8925  160.0552 H   0  0  0  0  0  0  0  0  0  0  0  0  # atno 6908 bound_to 6896
  151.9994  133.3785  159.4213 H   0  0  0  0  0  0  0  0  0  0  0  0  # atno 6909 bound_to 6896
  144.8585  139.6039  143.5941 H   0  0  0  0  0  0  0  0  0  0  0  0  # atno 7974 bound_to 7965
  154.9439  140.0402  157.2110 H   0  0  0  0  0  0  0  0  0  0  0  0  # atno 8008 bound_to 7997
  154.8043  140.2857  155.5877 H   0  0  0  0  0  0  0  0  0  0  0  0  # atno 8009 bound_to 7997
  156.2965  140.2549  156.2917 H   0  0  0  0  0  0  0  0  0  0  0  0  # atno 8010 bound_to 7997
  140.1462  144.4507  150.6784 H   0  0  0  0  0  0  0  0  0  0  0  0  # atno 10167 bound_to 10162
  157.0889  130.6419  149.5844 H   0  0  0  0  0  0  0  0  0  0  0  0  # atno 10718 bound_to 10713
  153.1573  135.6789  153.8793 H   0  0  0  0  0  0  0  0  0  0  0  0  # atno 10763 bound_to 10752
  153.8200  135.3131  155.3410 H   0  0  0  0  0  0  0  0  0  0  0  0  # atno 10764 bound_to 10752
  154.7907  135.4836  154.0134 H   0  0  0  0  0  0  0  0  0  0  0  0  # atno 10765 bound_to 10752
  139.9606  134.9603  156.9124 H   0  0  0  0  0  0  0  0  0  0  0  0  # atno 11005 bound_to 11000
  146.2842  139.6959  142.9207 LP  0  0  0  0  0  0  0  0  0  0  0  0  # atno 17320 bound_to 7965
  145.4358  141.0419  143.2885 LP  0  0  0  0  0  0  0  0  0  0  0  0  # atno 17321 bound_to 7965
  140.6731  143.2293  151.5576 LP  0  0  0  0  0  0  0  0  0  0  0  0  # atno 17342 bound_to 10162
  139.5448  144.2550  152.1421 LP  0  0  0  0  0  0  0  0  0  0  0  0  # atno 17343 bound_to 10162
  155.9903  130.4954  150.7252 LP  0  0  0  0  0  0  0  0  0  0  0  0  # atno 17370 bound_to 10713
  157.4737  131.0895  151.0613 LP  0  0  0  0  0  0  0  0  0  0  0  0  # atno 17371 bound_to 10713
  140.5508  134.0629  155.7369 LP  0  0  0  0  0  0  0  0  0  0  0  0  # atno 17394 bound_to 11000
  141.1283  133.9346  157.2589 LP  0  0  0  0  0  0  0  0  0  0  0  0  # atno 17395 bound_to 11000

$$$$
