AV-unprocessed.smi:3116|AV-procd|sdf|11862|dock10
  -GOLD-   2272017243D 1   1.00000     0.00000
 Structure written by MMmdl.
 34 34  0  0  0  0  0  0  0  0  2 V2000
  147.6873  141.9417  154.0895 C   0  0  0  0  0  0  0  0  0  0  0  0
  148.5259  141.1753  155.1288 C   0  0  2  0  0  0  0  0  0  0  0  0
  149.3430  142.1032  155.9450 N   0  3  0  0  0  0  0  0  0  0  0  0
  149.5809  141.6928  157.3482 C   0  0  2  0  0  0  0  0  0  0  0  0
  148.8835  142.6951  158.2863 C   0  0  0  0  0  0  0  0  0  0  0  0
  151.1038  141.5628  157.6159 C   0  0  2  0  0  0  0  0  0  0  0  0
  151.4412  140.4004  158.5697 C   0  0  0  0  0  0  0  0  0  0  0  0
  151.6804  142.8035  158.1183 N   0  0  0  0  0  0  0  0  0  0  0  0
  151.6436  144.0568  157.5427 C   0  0  0  0  0  0  0  0  0  0  0  0
  152.3182  144.9069  158.3712 C   0  0  0  0  0  0  0  0  0  0  0  0
  152.7414  144.0712  159.4418 C   0  0  0  0  0  0  0  0  0  0  0  0
  152.3596  142.8138  159.2878 N   0  0  0  0  0  0  0  0  0  0  0  0
  149.4212  140.1453  154.4296 C   0  0  0  0  0  0  0  0  0  0  0  0
  148.8197  139.2631  153.6272 N   0  0  0  0  0  0  0  0  0  0  0  0
  150.6394  140.1485  154.5988 O   0  0  0  0  0  0  0  0  0  0  0  0
  147.0942  141.2604  153.4779 H   0  0  0  0  0  0  0  0  0  0  0  0
  148.3200  142.5239  153.4181 H   0  0  0  0  0  0  0  0  0  0  0  0
  146.9906  142.6313  154.5662 H   0  0  0  0  0  0  0  0  0  0  0  0
  147.8607  140.6285  155.7995 H   0  0  0  0  0  0  0  0  0  0  0  0
  150.2448  142.1852  155.4978 H   0  0  0  0  0  0  0  0  0  0  0  0
  149.1233  140.7176  157.5219 H   0  0  0  0  0  0  0  0  0  0  0  0
  148.9433  142.3843  159.3294 H   0  0  0  0  0  0  0  0  0  0  0  0
  147.8244  142.7870  158.0428 H   0  0  0  0  0  0  0  0  0  0  0  0
  149.3292  143.6874  158.2080 H   0  0  0  0  0  0  0  0  0  0  0  0
  151.5944  141.3575  156.6629 H   0  0  0  0  0  0  0  0  0  0  0  0
  151.1429  139.4389  158.1515 H   0  0  0  0  0  0  0  0  0  0  0  0
  150.9391  140.5128  159.5313 H   0  0  0  0  0  0  0  0  0  0  0  0
  152.5138  140.3499  158.7605 H   0  0  0  0  0  0  0  0  0  0  0  0
  151.1450  144.2388  156.6020 H   0  0  0  0  0  0  0  0  0  0  0  0
  152.4853  145.9648  158.2328 H   0  0  0  0  0  0  0  0  0  0  0  0
  153.3108  144.3388  160.3196 H   0  0  0  0  0  0  0  0  0  0  0  0
  149.3618  138.5584  153.1482 H   0  0  0  0  0  0  0  0  0  0  0  0
  147.8173  139.2988  153.5070 H   0  0  0  0  0  0  0  0  0  0  0  0
  148.9040  143.0127  155.9338 H   0  0  0  0  0  0  0  0  0  0  0  0
  1  2  1  0  0  0  0
  1 16  1  0  0  0  0
  1 17  1  0  0  0  0
  1 18  1  0  0  0  0
  2  3  1  0  0  0  0
  2 13  1  0  0  0  0
  2 19  1  0  0  0  0
  3  4  1  0  0  0  0
  3 20  1  0  0  0  0
  3 34  1  0  0  0  0
  4  5  1  0  0  0  0
  4  6  1  0  0  0  0
  4 21  1  0  0  0  0
  5 22  1  0  0  0  0
  5 23  1  0  0  0  0
  5 24  1  0  0  0  0
  6  7  1  0  0  0  0
  6  8  1  0  0  0  0
  6 25  1  0  0  0  0
  7 26  1  0  0  0  0
  7 27  1  0  0  0  0
  7 28  1  0  0  0  0
  8 12  1  0  0  0  0
  8  9  1  0  0  0  0
  9 10  2  0  0  0  0
  9 29  1  0  0  0  0
 10 11  1  0  0  0  0
 10 30  1  0  0  0  0
 11 12  2  0  0  0  0
 11 31  1  0  0  0  0
 13 14  1  0  0  0  0
 13 15  2  0  0  0  0
 14 32  1  0  0  0  0
 14 33  1  0  0  0  0
M  CHG  1   3   1
M  END
> <s_m_source_file>
AV-unprocessed.smi

> <i_m_source_file_index>
3116

> <i_lp_mmshare_version>
43012

> <i_f3d_flags>
0

> <s_epik_input>
W05IMl1DKD1PKVtDQEhdKFtDSDNdKVtOSF1bQ0BIXShbQ0gzXSlbQ0BIXShbQ0gzXSluMVtjSF1bY0hdW2NIXW4x

> <s_epik_cmdline>
J2VwaWtfcHl0aG9uJywgJy1waCcsICc3LjAnLCAnLXRuJywgJzgnLCAnLW1hJywgJzIwMCcsICctbWV0YWxfYmluZGluZycsICctaW1hZScsICc8aW5maWxlLm1hZT4nLCAnLW9tYWUnLCAnPG91dGZpbGUubWFlPic=

> <r_lp_tautomer_probability>
1

> <r_epik_Ionization_Penalty>
0.15658

> <r_epik_Ionization_Penalty_Charging>
0.156568

> <r_epik_Ionization_Penalty_Neutral>
1.19778e-05

> <r_epik_State_Penalty>
0.145866

> <r_epik_Charging_Adjusted_Penalty>
0.302434

> <i_epik_Tot_Q>
1

> <i_epik_Tot_abs_Q>
1

> <r_epik_Metal_State_Penalty>
0.146064

> <b_epik_Metal_Only>
0

> <s_lp_Force_Field>
OPLS_2005

> <r_lp_Energy>
9.5332

> <b_lp_Chiralities_Consistent>
1

> <s_lp_Variant>
AV-unprocessed.smi:3116-1

> <Gold.Version>
5.8.1

> <Gold.Id.Protein>
6NUR|6NUR_protein|mol2

> <Gold.PLP.Fitness>
43.4092

> <Gold.PLP.PLP>
-35.4124

> <Gold.PLP.part.hbond>
-3.0000

> <Gold.PLP.part.metal>
0.0000

> <Gold.PLP.part.buried>
-6.3576

> <Gold.PLP.part.nonpolar>
-27.1529

> <Gold.PLP.part.repulsive>
0.2914

> <Gold.PLP.ligand.clash>
0.0000

> <Gold.PLP.ligand.torsion>
2.0446

> <Gold.PLP.Chemscore.Hbond>
3.0000

> <Gold.PLP.Chemscore.CHOScore>
1.0000

> <Gold.PLP.Chemscore.Metal>
0.0000

> <Gold.Chemscore.Hbonds>
donor molecule, donor type, donor heavy atom, donor atom, acceptor molecule, acceptor atom, score
      L1  H     3    34       P1  8028  2.00
      P1  H  7989  7998       L1    15  1.00
      L1  C     9    29       P1  8028  1.00

> <Gold.PLP.Chemscore.Internal.Correction>
0.0861

> <Gold.Rescore>
     Score         DG    S(hbond)    S(metal)    S(lipo)     H(rot)  DE(clash)    DE(int)     intcor
     12.67     -14.72       1.98        0.00      75.99       2.45       0.10       1.95       ----

> <Gold.Chemscore.Fitness>
12.6716

> <Gold.Chemscore.DG>
-14.7175

> <Gold.Chemscore.ZeroCoef>
-5.4800

> <Gold.Chemscore.Hbond>
1.9790

> <Gold.Chemscore.Metal>
0.0000

> <Gold.Chemscore.Lipo>
75.9901

> <Gold.Chemscore.Internal_Hbond>
0.0000

> <Gold.Chemscore.DEClash>
0.0990

> <Gold.Chemscore.DEInternal>
1.9469

> <Gold.Chemscore.Rot>
2.4465

> <Gold.Chemscore.Internal.Correction>
   9.000000E+99

> <Gold.Chemscore.Hbonds>
donor molecule, donor type, donor heavy atom, donor atom, acceptor molecule, acceptor atom, score
      L1  H     3    34       P1  8028  0.98
      P1  H  7989  7998       L1    15  0.97

> <Gold.Chemscore.Hbond.Weighted>
-6.6098

> <Gold.Chemscore.Metal.Weighted>
-0.0000

> <Gold.Chemscore.Lipo.Weighted>
-8.8908

> <Gold.Chemscore.Internal_Hbond.Weighted>
0.0000

> <Gold.Chemscore.DEClash.Weighted>
0.0990

> <Gold.Chemscore.DEInternal.Weighted>
1.9469

> <Gold.Chemscore.Rot.Weighted>
6.2631

> <Gold.Chemscore.Internal.Correction.Weighted>
   9.000000E+99

> <Gold.Protein.RotatedTorsions>
[ 6907 6896 6895 6894 ] final  144.00 input  -60.11 | X-H torsion
[ 7974 7965 7964 7962 ] final -146.82 input  175.53 | X-H torsion
[ 8008 7997 7996 7995 ] final -171.15 input   59.86 | X-H torsion
[ 10167 10162 10161 10158 ] final    1.19 input  -65.29 | X-H torsion
[ 10718 10713 10712 10709 ] final   -1.61 input   66.30 | X-H torsion
[ 10763 10752 10751 10750 ] final  -78.78 input  -60.55 | X-H torsion
[ 11005 11000 10999 10996 ] final -121.13 input  -57.11 | X-H torsion

> <Gold.Protein.ActiveResidues>
 VAL166  LYS551  ARG553  GLY616  TRP617  ASP618  TYR619  PRO620  LYS621  CYS622 
 ASP623  PHE694  ASN695  SER759  ASP760  ASP761  ALA762  ILE779  LEU786  VAL792 
 PHE793  MET794  SER795  GLU796  ALA797  LYS798  CYS799  TRP800  GLU811  SER814 

> <Gold.Protein.RotatedAtoms>
  152.1992  133.4828  159.5048 H   0  0  0  0  0  0  0  0  0  0  0  0  # atno 6907 bound_to 6896
  150.6966  134.1613  159.4186 H   0  0  0  0  0  0  0  0  0  0  0  0  # atno 6908 bound_to 6896
  151.9530  135.0160  160.0594 H   0  0  0  0  0  0  0  0  0  0  0  0  # atno 6909 bound_to 6896
  144.8134  140.5407  143.5627 H   0  0  0  0  0  0  0  0  0  0  0  0  # atno 7974 bound_to 7965
  155.9277  140.1085  157.1157 H   0  0  0  0  0  0  0  0  0  0  0  0  # atno 8008 bound_to 7997
  154.4065  140.1243  156.4827 H   0  0  0  0  0  0  0  0  0  0  0  0  # atno 8009 bound_to 7997
  155.7118  140.3471  155.4979 H   0  0  0  0  0  0  0  0  0  0  0  0  # atno 8010 bound_to 7997
  140.6694  143.7090  150.7892 H   0  0  0  0  0  0  0  0  0  0  0  0  # atno 10167 bound_to 10162
  156.8031  130.5399  149.5719 H   0  0  0  0  0  0  0  0  0  0  0  0  # atno 10718 bound_to 10713
  154.5303  135.5718  153.6753 H   0  0  0  0  0  0  0  0  0  0  0  0  # atno 10763 bound_to 10752
  152.9938  135.6203  154.2637 H   0  0  0  0  0  0  0  0  0  0  0  0  # atno 10764 bound_to 10752
  154.2563  135.2857  155.2776 H   0  0  0  0  0  0  0  0  0  0  0  0  # atno 10765 bound_to 10752
  141.0093  134.0288  157.3435 H   0  0  0  0  0  0  0  0  0  0  0  0  # atno 11005 bound_to 11000
  145.5270  139.1476  143.3520 LP  0  0  0  0  0  0  0  0  0  0  0  0  # atno 17320 bound_to 7965
  146.2435  140.5411  142.8924 LP  0  0  0  0  0  0  0  0  0  0  0  0  # atno 17321 bound_to 7965
  140.0773  143.5003  152.2549 LP  0  0  0  0  0  0  0  0  0  0  0  0  # atno 17342 bound_to 10162
  139.5956  144.7566  151.3295 LP  0  0  0  0  0  0  0  0  0  0  0  0  # atno 17343 bound_to 10162
  156.1089  130.6025  151.0015 LP  0  0  0  0  0  0  0  0  0  0  0  0  # atno 17370 bound_to 10713
  157.6543  131.0892  150.7981 LP  0  0  0  0  0  0  0  0  0  0  0  0  # atno 17371 bound_to 10713
  139.9081  135.0184  156.7573 LP  0  0  0  0  0  0  0  0  0  0  0  0  # atno 17394 bound_to 11000
  140.6761  133.9516  155.7883 LP  0  0  0  0  0  0  0  0  0  0  0  0  # atno 17395 bound_to 11000

$$$$
