AV-unprocessed.smi:2156|AV-procd|sdf|8779|dock1
  -GOLD-   2272011563D 1   1.00000     0.00000
 Structure written by MMmdl.
 34 34  0  0  0  0  0  0  0  0  1 V2000
  151.8871  143.8389  161.3634 C   0  0  0  0  0  0  0  0  0  0  0  0
  151.5947  145.0467  160.4667 C   0  0  0  0  0  0  0  0  0  0  0  0
  151.0124  144.6406  159.1015 C   0  0  0  0  0  0  0  0  0  0  0  0
  151.9241  143.7058  158.2811 C   0  0  2  0  0  0  0  0  0  0  0  0
  153.1135  144.4654  157.6775 C   0  0  0  0  0  0  0  0  0  0  0  0
  151.1736  143.0629  157.2036 N   0  0  0  0  0  0  0  0  0  0  0  0
  150.6930  141.8094  157.2143 C   0  0  0  0  0  0  0  0  0  0  0  0
  150.8236  141.0420  158.1691 O   0  0  0  0  0  0  0  0  0  0  0  0
  149.9239  141.3776  155.9575 C   0  0  0  0  0  0  0  0  0  0  0  0
  150.4259  140.1254  155.3732 N   0  0  0  0  0  0  0  0  0  0  0  0
  151.5994  139.5543  155.8451 C   0  0  0  0  0  0  0  0  0  0  0  0
  152.1245  138.4100  155.3469 C   0  0  0  0  0  0  0  0  0  0  0  0
  151.4586  137.7052  154.2567 C   0  0  0  0  0  0  0  0  0  0  0  0
  151.8543  136.6626  153.7402 O   0  0  0  0  0  0  0  0  0  0  0  0
  150.2832  138.3128  153.8072 N   0  0  0  0  0  0  0  0  0  0  0  0
  149.7377  139.4930  154.3148 C   0  0  0  0  0  0  0  0  0  0  0  0
  148.6964  139.9467  153.8414 O   0  0  0  0  0  0  0  0  0  0  0  0
  149.7888  137.8623  153.0510 H   0  0  0  0  0  0  0  0  0  0  0  0
  152.2923  144.1580  162.3236 H   0  0  0  0  0  0  0  0  0  0  0  0
  152.6146  143.1721  160.9001 H   0  0  0  0  0  0  0  0  0  0  0  0
  150.9815  143.2640  161.5595 H   0  0  0  0  0  0  0  0  0  0  0  0
  150.8978  145.7127  160.9766 H   0  0  0  0  0  0  0  0  0  0  0  0
  152.5163  145.6123  160.3287 H   0  0  0  0  0  0  0  0  0  0  0  0
  150.0400  144.1680  159.2475 H   0  0  0  0  0  0  0  0  0  0  0  0
  150.8239  145.5452  158.5216 H   0  0  0  0  0  0  0  0  0  0  0  0
  152.3341  142.9514  158.9550 H   0  0  0  0  0  0  0  0  0  0  0  0
  153.7168  144.9331  158.4563 H   0  0  0  0  0  0  0  0  0  0  0  0
  152.7811  145.2512  156.9983 H   0  0  0  0  0  0  0  0  0  0  0  0
  153.7649  143.7935  157.1180 H   0  0  0  0  0  0  0  0  0  0  0  0
  151.0078  143.6194  156.3774 H   0  0  0  0  0  0  0  0  0  0  0  0
  148.8717  141.2716  156.2251 H   0  0  0  0  0  0  0  0  0  0  0  0
  149.9527  142.1785  155.2160 H   0  0  0  0  0  0  0  0  0  0  0  0
  152.1296  140.0447  156.6491 H   0  0  0  0  0  0  0  0  0  0  0  0
  153.0428  138.0148  155.7562 H   0  0  0  0  0  0  0  0  0  0  0  0
  1  2  1  0  0  0  0
  1 19  1  0  0  0  0
  1 20  1  0  0  0  0
  1 21  1  0  0  0  0
  2  3  1  0  0  0  0
  2 22  1  0  0  0  0
  2 23  1  0  0  0  0
  3  4  1  0  0  0  0
  3 24  1  0  0  0  0
  3 25  1  0  0  0  0
  4  5  1  0  0  0  0
  4  6  1  0  0  0  0
  4 26  1  0  0  0  0
  5 27  1  0  0  0  0
  5 28  1  0  0  0  0
  5 29  1  0  0  0  0
  6  7  1  0  0  0  0
  6 30  1  0  0  0  0
  7  8  2  0  0  0  0
  7  9  1  0  0  0  0
  9 10  1  0  0  0  0
  9 31  1  0  0  0  0
  9 32  1  0  0  0  0
 10 16  1  0  0  0  0
 10 11  1  0  0  0  0
 11 12  2  0  0  0  0
 11 33  1  0  0  0  0
 12 13  1  0  0  0  0
 12 34  1  0  0  0  0
 13 14  2  0  0  0  0
 13 15  1  0  0  0  0
 15 18  1  0  0  0  0
 15 16  1  0  0  0  0
 16 17  2  0  0  0  0
M  END
> <s_m_source_file>
AV-unprocessed.smi

> <i_m_source_file_index>
2156

> <i_lp_mmshare_version>
43012

> <i_f3d_flags>
0

> <s_epik_input>
W0NIM11bQ0gyXVtDSDJdW0NASF0oW0NIM10pW05IXUMoPU8pW0NIMl1uMVtjSF1bY0hdYyg9TylbbkhdYzE9Tw==

> <s_epik_cmdline>
J2VwaWtfcHl0aG9uJywgJy1waCcsICc3LjAnLCAnLXRuJywgJzgnLCAnLW1hJywgJzIwMCcsICctbWV0YWxfYmluZGluZycsICctaW1hZScsICc8aW5maWxlLm1hZT4nLCAnLW9tYWUnLCAnPG91dGZpbGUubWFlPic=

> <r_lp_tautomer_probability>
0.999537

> <r_epik_Ionization_Penalty>
0.00324917

> <r_epik_Ionization_Penalty_Charging>
0.00324916

> <r_epik_Ionization_Penalty_Neutral>
1.93017e-08

> <r_epik_State_Penalty>
0.00229371

> <r_epik_Charging_Adjusted_Penalty>
0.00554286

> <i_epik_Tot_Q>
0

> <i_epik_Tot_abs_Q>
0

> <r_epik_Metal_State_Penalty>
0.364744

> <b_epik_Metal_Only>
0

> <s_lp_Force_Field>
OPLS_2005

> <r_lp_Energy>
3.31869

> <b_lp_Chiralities_Consistent>
1

> <s_lp_Variant>
AV-unprocessed.smi:2156-1

> <Gold.Version>
5.8.1

> <Gold.Id.Protein>
6NUR|6NUR_protein|mol2

> <Gold.PLP.Fitness>
43.3987

> <Gold.PLP.PLP>
-37.4646

> <Gold.PLP.part.hbond>
-2.4897

> <Gold.PLP.part.metal>
0.0000

> <Gold.PLP.part.buried>
-7.7175

> <Gold.PLP.part.nonpolar>
-32.6605

> <Gold.PLP.part.repulsive>
4.2423

> <Gold.PLP.ligand.clash>
0.0000

> <Gold.PLP.ligand.torsion>
0.4625

> <Gold.PLP.Chemscore.Hbond>
2.2552

> <Gold.PLP.Chemscore.CHOScore>
0.0000

> <Gold.PLP.Chemscore.Metal>
0.0000

> <Gold.Chemscore.Hbonds>
donor molecule, donor type, donor heavy atom, donor atom, acceptor molecule, acceptor atom, score
      L1  H    15    18       P1  7948  0.73
      P1  H 10752 10764       L1    14  1.00

> <Gold.PLP.Chemscore.Internal.Correction>
0.0937

> <Gold.Rescore>
     Score         DG    S(hbond)    S(metal)    S(lipo)     H(rot)  DE(clash)    DE(int)     intcor
     13.35     -18.76       2.78        0.00      82.20       2.19       3.26       2.14       ----

> <Gold.Chemscore.Fitness>
13.3484

> <Gold.Chemscore.DG>
-18.7558

> <Gold.Chemscore.ZeroCoef>
-5.4800

> <Gold.Chemscore.Hbond>
2.7778

> <Gold.Chemscore.Metal>
0.0000

> <Gold.Chemscore.Lipo>
82.1955

> <Gold.Chemscore.Internal_Hbond>
0.0000

> <Gold.Chemscore.DEClash>
3.2640

> <Gold.Chemscore.DEInternal>
2.1434

> <Gold.Chemscore.Rot>
2.1949

> <Gold.Chemscore.Internal.Correction>
   9.000000E+99

> <Gold.Chemscore.Hbonds>
donor molecule, donor type, donor heavy atom, donor atom, acceptor molecule, acceptor atom, score
      L1  H     6    30       P1  8028  0.02
      L1  H    15    18       P1  7948  0.44
      P1  H 10752 10764       L1    14  0.93

> <Gold.Chemscore.Hbond.Weighted>
-9.2778

> <Gold.Chemscore.Metal.Weighted>
-0.0000

> <Gold.Chemscore.Lipo.Weighted>
-9.6169

> <Gold.Chemscore.Internal_Hbond.Weighted>
0.0000

> <Gold.Chemscore.DEClash.Weighted>
3.2640

> <Gold.Chemscore.DEInternal.Weighted>
2.1434

> <Gold.Chemscore.Rot.Weighted>
5.6188

> <Gold.Chemscore.Internal.Correction.Weighted>
   9.000000E+99

> <Gold.Protein.RotatedTorsions>
[ 6907 6896 6895 6894 ] final   19.46 input  -60.11 | X-H torsion
[ 7974 7965 7964 7962 ] final  -50.57 input  175.53 | X-H torsion
[ 8008 7997 7996 7995 ] final  -51.96 input   59.86 | X-H torsion
[ 10167 10162 10161 10158 ] final  126.50 input  -65.29 | X-H torsion
[ 10718 10713 10712 10709 ] final   14.81 input   66.30 | X-H torsion
[ 10763 10752 10751 10750 ] final  -88.51 input  -60.55 | X-H torsion
[ 11005 11000 10999 10996 ] final   88.61 input  -57.11 | X-H torsion

> <Gold.Protein.ActiveResidues>
 VAL166  LYS551  ARG553  GLY616  TRP617  ASP618  TYR619  PRO620  LYS621  CYS622 
 ASP623  PHE694  ASN695  SER759  ASP760  ASP761  ALA762  ILE779  LEU786  VAL792 
 PHE793  MET794  SER795  GLU796  ALA797  LYS798  CYS799  TRP800  GLU811  SER814 

> <Gold.Protein.RotatedAtoms>
  151.8812  135.0453  160.0488 H   0  0  0  0  0  0  0  0  0  0  0  0  # atno 6907 bound_to 6896
  152.2511  133.5211  159.5334 H   0  0  0  0  0  0  0  0  0  0  0  0  # atno 6908 bound_to 6896
  150.7084  134.0875  159.3962 H   0  0  0  0  0  0  0  0  0  0  0  0  # atno 6909 bound_to 6896
  145.9284  140.7771  142.9612 H   0  0  0  0  0  0  0  0  0  0  0  0  # atno 7974 bound_to 7965
  154.4095  140.1235  156.4914 H   0  0  0  0  0  0  0  0  0  0  0  0  # atno 8008 bound_to 7997
  155.6986  140.3495  155.4904 H   0  0  0  0  0  0  0  0  0  0  0  0  # atno 8009 bound_to 7997
  155.9405  140.1086  157.1049 H   0  0  0  0  0  0  0  0  0  0  0  0  # atno 8010 bound_to 7997
  139.5628  144.6892  151.3995 H   0  0  0  0  0  0  0  0  0  0  0  0  # atno 10167 bound_to 10162
  157.0444  130.6244  149.5756 H   0  0  0  0  0  0  0  0  0  0  0  0  # atno 10718 bound_to 10713
  154.6453  135.5374  153.7837 H   0  0  0  0  0  0  0  0  0  0  0  0  # atno 10763 bound_to 10752
  153.0356  135.6469  154.1099 H   0  0  0  0  0  0  0  0  0  0  0  0  # atno 10764 bound_to 10752
  154.1020  135.2932  155.3229 H   0  0  0  0  0  0  0  0  0  0  0  0  # atno 10765 bound_to 10752
  139.8892  134.8499  156.3025 H   0  0  0  0  0  0  0  0  0  0  0  0  # atno 11005 bound_to 11000
  144.6761  140.2088  143.7379 LP  0  0  0  0  0  0  0  0  0  0  0  0  # atno 17320 bound_to 7965
  145.8458  139.2151  143.1801 LP  0  0  0  0  0  0  0  0  0  0  0  0  # atno 17321 bound_to 7965
  140.6909  143.7863  150.7254 LP  0  0  0  0  0  0  0  0  0  0  0  0  # atno 17342 bound_to 10162
  140.1345  143.4496  152.2233 LP  0  0  0  0  0  0  0  0  0  0  0  0  # atno 17343 bound_to 10162
  156.0027  130.5109  150.7722 LP  0  0  0  0  0  0  0  0  0  0  0  0  # atno 17370 bound_to 10713
  157.5079  131.0923  151.0234 LP  0  0  0  0  0  0  0  0  0  0  0  0  # atno 17371 bound_to 10713
  140.9904  133.7212  156.0805 LP  0  0  0  0  0  0  0  0  0  0  0  0  # atno 17394 bound_to 11000
  140.7633  134.3915  157.5521 LP  0  0  0  0  0  0  0  0  0  0  0  0  # atno 17395 bound_to 11000

$$$$
