AV-unprocessed.smi:1776|AV-procd|sdf|7176|dock3
  -GOLD-   22720 8413D 1   1.00000     0.00000
 Structure written by MMmdl.
 30 31  0  0  0  0  0  0  0  0  2 V2000
  150.7100  140.0157  154.3881 O   0  0  0  0  0  0  0  0  0  0  0  0
  149.6817  140.1715  155.0466 C   0  0  0  0  0  0  0  0  0  0  0  0
  149.6345  140.5857  156.3289 N   0  0  0  0  0  0  0  0  0  0  0  0
  150.6706  140.9373  157.2129 C   0  0  0  0  0  0  0  0  0  0  0  0
  150.6701  142.0236  158.0354 C   0  0  0  0  0  0  0  0  0  0  0  0
  151.7786  142.3239  158.9331 C   0  0  0  0  0  0  0  0  0  0  0  0
  151.8519  143.5736  159.7928 C   0  0  0  0  0  0  0  0  0  0  0  0
  150.6802  144.2093  159.8174 F   0  0  0  0  0  0  0  0  0  0  0  0
  152.1931  143.2721  161.0459 F   0  0  0  0  0  0  0  0  0  0  0  0
  152.7672  144.4082  159.3026 F   0  0  0  0  0  0  0  0  0  0  0  0
  152.8011  141.4010  158.8310 C   0  0  0  0  0  0  0  0  0  0  0  0
  152.8720  140.2917  158.0636 N   0  5  0  0  0  0  0  0  0  0  0  0
  151.8287  140.0187  157.2302 C   0  0  0  0  0  0  0  0  0  0  0  0
  151.8326  139.0277  156.4988 O   0  0  0  0  0  0  0  0  0  0  0  0
  148.3135  139.8993  154.4034 C   0  0  1  0  0  0  0  0  0  0  0  0
  148.0526  140.7499  153.1379 C   0  0  0  0  0  0  0  0  0  0  0  0
  146.7869  140.4032  152.5901 O   0  0  0  0  0  0  0  0  0  0  0  0
  146.7353  139.0282  152.2360 C   0  0  0  0  0  0  0  0  0  0  0  0
  146.9811  138.1797  153.4937 C   0  0  0  0  0  0  0  0  0  0  0  0
  148.2467  138.5218  154.0416 O   0  0  0  0  0  0  0  0  0  0  0  0
  148.7122  140.6405  156.7371 H   0  0  0  0  0  0  0  0  0  0  0  0
  149.8371  142.7047  158.0625 H   0  0  0  0  0  0  0  0  0  0  0  0
  153.6999  141.5839  159.4575 H   0  0  0  0  0  0  0  0  0  0  0  0
  147.5491  140.1125  155.1529 H   0  0  0  0  0  0  0  0  0  0  0  0
  148.0400  141.8123  153.3831 H   0  0  0  0  0  0  0  0  0  0  0  0
  148.8345  140.6005  152.3910 H   0  0  0  0  0  0  0  0  0  0  0  0
  145.7558  138.8053  151.8130 H   0  0  0  0  0  0  0  0  0  0  0  0
  147.4766  138.8074  151.4663 H   0  0  0  0  0  0  0  0  0  0  0  0
  146.1942  138.3395  154.2325 H   0  0  0  0  0  0  0  0  0  0  0  0
  146.9771  137.1190  153.2429 H   0  0  0  0  0  0  0  0  0  0  0  0
  1  2  2  0  0  0  0
  2  3  1  0  0  0  0
  2 15  1  0  0  0  0
  3  4  1  0  0  0  0
  3 21  1  0  0  0  0
  4 13  1  0  0  0  0
  4  5  2  0  0  0  0
  5  6  1  0  0  0  0
  5 22  1  0  0  0  0
  6  7  1  0  0  0  0
  6 11  2  0  0  0  0
  7  8  1  0  0  0  0
  7  9  1  0  0  0  0
  7 10  1  0  0  0  0
 11 12  1  0  0  0  0
 11 23  1  0  0  0  0
 12 13  1  0  0  0  0
 13 14  2  0  0  0  0
 15 20  1  0  0  0  0
 15 16  1  0  0  0  0
 15 24  1  0  0  0  0
 16 17  1  0  0  0  0
 16 25  1  0  0  0  0
 16 26  1  0  0  0  0
 17 18  1  0  0  0  0
 18 19  1  0  0  0  0
 18 27  1  0  0  0  0
 18 28  1  0  0  0  0
 19 20  1  0  0  0  0
 19 29  1  0  0  0  0
 19 30  1  0  0  0  0
M  CHG  1  12  -1
M  END
> <s_m_source_file>
AV-unprocessed.smi

> <i_m_source_file_index>
1776

> <i_lp_mmshare_version>
43012

> <i_f3d_flags>
0

> <s_epik_input>
TzFbQ0gyXVtDSDJdT1tDSDJdW0NASF0xQyg9TylbTkhdYzJbY0hdYyhDKEYpKEYpRilbY0hdW25IXWMyPU8=

> <s_epik_cmdline>
J2VwaWtfcHl0aG9uJywgJy1waCcsICc3LjAnLCAnLXRuJywgJzgnLCAnLW1hJywgJzIwMCcsICctbWV0YWxfYmluZGluZycsICctaW1hZScsICc8aW5maWxlLm1hZT4nLCAnLW9tYWUnLCAnPG91dGZpbGUubWFlPic=

> <r_epik_Ionization_Penalty>
2.46925

> <r_epik_Ionization_Penalty_Charging>
0.0509887

> <r_epik_Ionization_Penalty_Neutral>
2.41826

> <r_epik_State_Penalty>
2.57741

> <r_epik_Charging_Adjusted_Penalty>
2.6284

> <i_epik_Tot_Q>
-1

> <i_epik_Tot_abs_Q>
1

> <r_epik_Metal_State_Penalty>
0.510263

> <b_epik_Metal_Only>
0

> <s_lp_Force_Field>
OPLS_2005

> <r_lp_Energy>
25.1464

> <b_lp_Chiralities_Consistent>
1

> <s_lp_Variant>
AV-unprocessed.smi:1776-4

> <Gold.Version>
5.8.1

> <Gold.Id.Protein>
6NUR|6NUR_protein|mol2

> <Gold.PLP.Fitness>
39.1847

> <Gold.PLP.PLP>
-31.7853

> <Gold.PLP.part.hbond>
-2.0000

> <Gold.PLP.part.metal>
0.0000

> <Gold.PLP.part.buried>
-1.3156

> <Gold.PLP.part.nonpolar>
-28.8711

> <Gold.PLP.part.repulsive>
0.6736

> <Gold.PLP.ligand.clash>
0.0000

> <Gold.PLP.ligand.torsion>
0.6592

> <Gold.PLP.Chemscore.Hbond>
2.8880

> <Gold.PLP.Chemscore.CHOScore>
0.0000

> <Gold.PLP.Chemscore.Metal>
0.0000

> <Gold.Chemscore.Hbonds>
donor molecule, donor type, donor heavy atom, donor atom, acceptor molecule, acceptor atom, score
      P1  H  7989  7998       L1     1  1.00
      P1  H  7997  8010       L1    12  1.86

> <Gold.PLP.Chemscore.Internal.Correction>
0.0537

> <Gold.Rescore>
     Score         DG    S(hbond)    S(metal)    S(lipo)     H(rot)  DE(clash)    DE(int)     intcor
     10.00     -15.85       1.53        0.00      66.93       1.00       1.59       4.26       ----

> <Gold.Chemscore.Fitness>
9.9974

> <Gold.Chemscore.DG>
-15.8455

> <Gold.Chemscore.ZeroCoef>
-5.4800

> <Gold.Chemscore.Hbond>
1.5252

> <Gold.Chemscore.Metal>
0.0000

> <Gold.Chemscore.Lipo>
66.9344

> <Gold.Chemscore.Internal_Hbond>
0.0000

> <Gold.Chemscore.DEClash>
1.5865

> <Gold.Chemscore.DEInternal>
4.2617

> <Gold.Chemscore.Rot>
1.0000

> <Gold.Chemscore.Internal.Correction>
   9.000000E+99

> <Gold.Chemscore.Hbonds>
donor molecule, donor type, donor heavy atom, donor atom, acceptor molecule, acceptor atom, score
      P1  H  7989  7998       L1     1  0.94
      P1  H  7997  8010       L1    12  0.46

> <Gold.Chemscore.Hbond.Weighted>
-5.0942

> <Gold.Chemscore.Metal.Weighted>
-0.0000

> <Gold.Chemscore.Lipo.Weighted>
-7.8313

> <Gold.Chemscore.Internal_Hbond.Weighted>
0.0000

> <Gold.Chemscore.DEClash.Weighted>
1.5865

> <Gold.Chemscore.DEInternal.Weighted>
4.2617

> <Gold.Chemscore.Rot.Weighted>
2.5600

> <Gold.Chemscore.Internal.Correction.Weighted>
   9.000000E+99

> <Gold.Protein.RotatedTorsions>
[ 6907 6896 6895 6894 ] final -104.09 input  -60.11 | X-H torsion
[ 7974 7965 7964 7962 ] final -105.46 input  175.53 | X-H torsion
[ 8008 7997 7996 7995 ] final   40.55 input   59.86 | X-H torsion
[ 10167 10162 10161 10158 ] final  130.43 input  -65.29 | X-H torsion
[ 10718 10713 10712 10709 ] final  143.84 input   66.30 | X-H torsion
[ 10763 10752 10751 10750 ] final  -96.37 input  -60.55 | X-H torsion
[ 11005 11000 10999 10996 ] final  -87.98 input  -57.11 | X-H torsion

> <Gold.Protein.ActiveResidues>
 VAL166  LYS551  ARG553  GLY616  TRP617  ASP618  TYR619  PRO620  LYS621  CYS622 
 ASP623  PHE694  ASN695  SER759  ASP760  ASP761  ALA762  ILE779  LEU786  VAL792 
 PHE793  MET794  SER795  GLU796  ALA797  LYS798  CYS799  TRP800  GLU811  SER814 

> <Gold.Protein.RotatedAtoms>
  150.7270  134.0331  159.3739 H   0  0  0  0  0  0  0  0  0  0  0  0  # atno 6907 bound_to 6896
  151.8301  135.0622  160.0445 H   0  0  0  0  0  0  0  0  0  0  0  0  # atno 6908 bound_to 6896
  152.2940  133.5553  159.5612 H   0  0  0  0  0  0  0  0  0  0  0  0  # atno 6909 bound_to 6896
  145.2302  140.9167  143.3209 H   0  0  0  0  0  0  0  0  0  0  0  0  # atno 7974 bound_to 7965
  155.2549  140.3355  155.4278 H   0  0  0  0  0  0  0  0  0  0  0  0  # atno 8008 bound_to 7997
  156.2200  140.1805  156.7543 H   0  0  0  0  0  0  0  0  0  0  0  0  # atno 8009 bound_to 7997
  154.5810  140.0653  156.9089 H   0  0  0  0  0  0  0  0  0  0  0  0  # atno 8010 bound_to 7997
  139.5430  144.6748  151.4562 H   0  0  0  0  0  0  0  0  0  0  0  0  # atno 10167 bound_to 10162
  157.3642  131.0969  151.0888 H   0  0  0  0  0  0  0  0  0  0  0  0  # atno 10718 bound_to 10713
  154.7233  135.5086  153.8847 H   0  0  0  0  0  0  0  0  0  0  0  0  # atno 10763 bound_to 10752
  153.0882  135.6651  153.9915 H   0  0  0  0  0  0  0  0  0  0  0  0  # atno 10764 bound_to 10752
  153.9733  135.3036  155.3405 H   0  0  0  0  0  0  0  0  0  0  0  0  # atno 10765 bound_to 10752
  141.1609  133.7543  156.9385 H   0  0  0  0  0  0  0  0  0  0  0  0  # atno 11005 bound_to 11000
  144.9684  139.3906  143.6321 LP  0  0  0  0  0  0  0  0  0  0  0  0  # atno 17320 bound_to 7965
  146.3355  139.8770  142.8830 LP  0  0  0  0  0  0  0  0  0  0  0  0  # atno 17321 bound_to 7965
  140.6668  143.8380  150.6951 LP  0  0  0  0  0  0  0  0  0  0  0  0  # atno 17342 bound_to 10162
  140.1792  143.4129  152.1945 LP  0  0  0  0  0  0  0  0  0  0  0  0  # atno 17343 bound_to 10162
  157.2016  130.6397  149.5741 LP  0  0  0  0  0  0  0  0  0  0  0  0  # atno 17370 bound_to 10713
  155.9743  130.4689  150.6376 LP  0  0  0  0  0  0  0  0  0  0  0  0  # atno 17371 bound_to 10713
  140.1338  134.9339  157.2373 LP  0  0  0  0  0  0  0  0  0  0  0  0  # atno 17394 bound_to 11000
  140.2921  134.3229  155.7312 LP  0  0  0  0  0  0  0  0  0  0  0  0  # atno 17395 bound_to 11000

$$$$
