AV-unprocessed.smi:499|AV-procd|sdf|2733|dock10
  -GOLD-   2262023183D 1   1.00000     0.00000
 Structure written by MMmdl.
 36 37  0  0  0  0  0  0  0  0  1 V2000
  146.4703  140.4349  155.7866 C   0  0  0  0  0  0  0  0  0  0  0  0
  147.2270  141.2408  154.7118 C   0  0  2  0  0  0  0  0  0  0  0  0
  147.0047  140.5700  153.4175 C   0  0  0  0  0  0  0  0  0  0  0  0
  146.8276  140.0455  152.4009 N   0  0  0  0  0  0  0  0  0  0  0  0
  148.6664  141.1948  154.9819 N   0  0  0  0  0  0  0  0  0  0  0  0
  149.2994  141.4226  156.1453 C   0  0  0  0  0  0  0  0  0  0  0  0
  148.7182  141.6854  157.1981 O   0  0  0  0  0  0  0  0  0  0  0  0
  150.8301  141.3122  156.1048 C   0  0  0  0  0  0  0  0  0  0  0  0
  151.4694  141.6442  157.3890 N   0  0  0  0  0  0  0  0  0  0  0  0
  151.1745  142.9036  157.9469 C   0  0  0  0  0  0  0  0  0  0  0  0
  151.6850  143.3234  159.1204 C   0  0  0  0  0  0  0  0  0  0  0  0
  151.3948  144.7132  159.6654 C   0  0  0  0  0  0  0  0  0  0  0  0
  150.0795  144.8860  159.7870 F   0  0  0  0  0  0  0  0  0  0  0  0
  151.9495  144.8853  160.8656 F   0  0  0  0  0  0  0  0  0  0  0  0
  151.8629  145.6573  158.8482 F   0  0  0  0  0  0  0  0  0  0  0  0
  152.5975  142.4161  159.7881 C   0  0  0  0  0  0  0  0  0  0  0  0
  152.9018  141.2138  159.2611 C   0  0  0  0  0  0  0  0  0  0  0  0
  152.3253  140.7653  157.9917 C   0  0  0  0  0  0  0  0  0  0  0  0
  152.5952  139.6692  157.4999 O   0  0  0  0  0  0  0  0  0  0  0  0
  146.6689  142.6671  154.6484 C   0  0  0  0  0  0  0  0  0  0  0  0
  145.2140  142.9591  154.3543 C   0  0  0  0  0  0  0  0  0  0  0  0
  146.2803  143.3324  153.3475 C   0  0  0  0  0  0  0  0  0  0  0  0
  145.4075  140.3741  155.5498 H   0  0  0  0  0  0  0  0  0  0  0  0
  146.5533  140.8868  156.7751 H   0  0  0  0  0  0  0  0  0  0  0  0
  146.8477  139.4138  155.8558 H   0  0  0  0  0  0  0  0  0  0  0  0
  149.2484  140.9794  154.1852 H   0  0  0  0  0  0  0  0  0  0  0  0
  151.0888  140.2976  155.7992 H   0  0  0  0  0  0  0  0  0  0  0  0
  151.2220  141.9559  155.3148 H   0  0  0  0  0  0  0  0  0  0  0  0
  150.5116  143.5147  157.3516 H   0  0  0  0  0  0  0  0  0  0  0  0
  153.0436  142.7032  160.7289 H   0  0  0  0  0  0  0  0  0  0  0  0
  153.5850  140.5631  159.7871 H   0  0  0  0  0  0  0  0  0  0  0  0
  147.1091  143.3305  155.3900 H   0  0  0  0  0  0  0  0  0  0  0  0
  144.5571  142.1283  154.1056 H   0  0  0  0  0  0  0  0  0  0  0  0
  144.7451  143.7678  154.9112 H   0  0  0  0  0  0  0  0  0  0  0  0
  146.5202  144.3879  153.2364 H   0  0  0  0  0  0  0  0  0  0  0  0
  146.3347  142.7475  152.4319 H   0  0  0  0  0  0  0  0  0  0  0  0
  1  2  1  0  0  0  0
  1 23  1  0  0  0  0
  1 24  1  0  0  0  0
  1 25  1  0  0  0  0
  2  3  1  0  0  0  0
  2  5  1  0  0  0  0
  2 20  1  0  0  0  0
  3  4  3  0  0  0  0
  5  6  1  0  0  0  0
  5 26  1  0  0  0  0
  6  7  2  0  0  0  0
  6  8  1  0  0  0  0
  8  9  1  0  0  0  0
  8 27  1  0  0  0  0
  8 28  1  0  0  0  0
  9 18  1  0  0  0  0
  9 10  1  0  0  0  0
 10 11  2  0  0  0  0
 10 29  1  0  0  0  0
 11 12  1  0  0  0  0
 11 16  1  0  0  0  0
 12 13  1  0  0  0  0
 12 14  1  0  0  0  0
 12 15  1  0  0  0  0
 16 17  2  0  0  0  0
 16 30  1  0  0  0  0
 17 18  1  0  0  0  0
 17 31  1  0  0  0  0
 18 19  2  0  0  0  0
 20 22  1  0  0  0  0
 20 21  1  0  0  0  0
 20 32  1  0  0  0  0
 21 22  1  0  0  0  0
 21 33  1  0  0  0  0
 21 34  1  0  0  0  0
 22 35  1  0  0  0  0
 22 36  1  0  0  0  0
M  END
> <s_m_source_file>
AV-unprocessed.smi

> <i_m_source_file_index>
499

> <i_lp_mmshare_version>
43012

> <i_f3d_flags>
0

> <s_epik_input>
W0NIMl0xW0NIMl1bQ0hdMVtDQF0oW0NIM10pKEMjTilbTkhdQyg9TylbQ0gyXW4yW2NIXWMoQyhGKShGKUYpW2NIXVtjSF1jMj1P

> <s_epik_cmdline>
J2VwaWtfcHl0aG9uJywgJy1waCcsICc3LjAnLCAnLXRuJywgJzgnLCAnLW1hJywgJzIwMCcsICctbWV0YWxfYmluZGluZycsICctaW1hZScsICc8aW5maWxlLm1hZT4nLCAnLW9tYWUnLCAnPG91dGZpbGUubWFlPic=

> <r_lp_tautomer_probability>
1

> <r_epik_Ionization_Penalty>
4.79953e-07

> <r_epik_Ionization_Penalty_Charging>
1.46911e-08

> <r_epik_Ionization_Penalty_Neutral>
4.65262e-07

> <r_epik_State_Penalty>
-0

> <r_epik_Charging_Adjusted_Penalty>
1.46911e-08

> <i_epik_Tot_Q>
0

> <i_epik_Tot_abs_Q>
0

> <r_epik_Metal_State_Penalty>
-0

> <b_epik_Metal_Only>
0

> <s_lp_Force_Field>
OPLS_2005

> <r_lp_Energy>
23.9412

> <b_lp_Chiralities_Consistent>
1

> <s_lp_Variant>
AV-unprocessed.smi:499-2

> <Gold.Version>
5.8.1

> <Gold.Id.Protein>
6NUR|6NUR_protein|mol2

> <Gold.PLP.Fitness>
46.5282

> <Gold.PLP.PLP>
-42.8016

> <Gold.PLP.part.hbond>
-1.0000

> <Gold.PLP.part.metal>
0.0000

> <Gold.PLP.part.buried>
-4.6028

> <Gold.PLP.part.nonpolar>
-38.7542

> <Gold.PLP.part.repulsive>
1.3045

> <Gold.PLP.ligand.clash>
0.0000

> <Gold.PLP.ligand.torsion>
1.3708

> <Gold.PLP.Chemscore.Hbond>
1.0000

> <Gold.PLP.Chemscore.CHOScore>
0.6373

> <Gold.PLP.Chemscore.Metal>
0.0000

> <Gold.Chemscore.Hbonds>
donor molecule, donor type, donor heavy atom, donor atom, acceptor molecule, acceptor atom, score
      P1  H  7997  8009       L1    19  0.95
      L1  C    10    29       P1  8028  0.77

> <Gold.PLP.Chemscore.Internal.Correction>
1.5565

> <Gold.Rescore>
     Score         DG    S(hbond)    S(metal)    S(lipo)     H(rot)  DE(clash)    DE(int)     intcor
      8.06     -12.66       0.94        0.00      76.10       1.90       0.81       3.79       ----

> <Gold.Chemscore.Fitness>
8.0589

> <Gold.Chemscore.DG>
-12.6630

> <Gold.Chemscore.ZeroCoef>
-5.4800

> <Gold.Chemscore.Hbond>
0.9433

> <Gold.Chemscore.Metal>
0.0000

> <Gold.Chemscore.Lipo>
76.1032

> <Gold.Chemscore.Internal_Hbond>
0.0000

> <Gold.Chemscore.DEClash>
0.8132

> <Gold.Chemscore.DEInternal>
3.7909

> <Gold.Chemscore.Rot>
1.9030

> <Gold.Chemscore.Internal.Correction>
   9.000000E+99

> <Gold.Chemscore.Hbonds>
donor molecule, donor type, donor heavy atom, donor atom, acceptor molecule, acceptor atom, score
      P1  H  7997  8009       L1    19  0.20

> <Gold.Chemscore.Hbond.Weighted>
-3.1507

> <Gold.Chemscore.Metal.Weighted>
-0.0000

> <Gold.Chemscore.Lipo.Weighted>
-8.9041

> <Gold.Chemscore.Internal_Hbond.Weighted>
0.0000

> <Gold.Chemscore.DEClash.Weighted>
0.8132

> <Gold.Chemscore.DEInternal.Weighted>
3.7909

> <Gold.Chemscore.Rot.Weighted>
4.8718

> <Gold.Chemscore.Internal.Correction.Weighted>
   9.000000E+99

> <Gold.Protein.RotatedTorsions>
[ 6907 6896 6895 6894 ] final  -27.35 input  -60.11 | X-H torsion
[ 7974 7965 7964 7962 ] final  -81.30 input  175.53 | X-H torsion
[ 8008 7997 7996 7995 ] final  163.47 input   59.86 | X-H torsion
[ 10167 10162 10161 10158 ] final  105.60 input  -65.29 | X-H torsion
[ 10718 10713 10712 10709 ] final  -14.77 input   66.30 | X-H torsion
[ 10763 10752 10751 10750 ] final -168.24 input  -60.55 | X-H torsion
[ 11005 11000 10999 10996 ] final   46.87 input  -57.11 | X-H torsion

> <Gold.Protein.ActiveResidues>
 VAL166  LYS551  ARG553  GLY616  TRP617  ASP618  TYR619  PRO620  LYS621  CYS622 
 ASP623  PHE694  ASN695  SER759  ASP760  ASP761  ALA762  ILE779  LEU786  VAL792 
 PHE793  MET794  SER795  GLU796  ALA797  LYS798  CYS799  TRP800  GLU811  SER814 

> <Gold.Protein.RotatedAtoms>
  151.1481  135.0213  159.8655 H   0  0  0  0  0  0  0  0  0  0  0  0  # atno 6907 bound_to 6896
  152.5453  134.1420  159.8493 H   0  0  0  0  0  0  0  0  0  0  0  0  # atno 6908 bound_to 6896
  151.1503  133.4866  159.2628 H   0  0  0  0  0  0  0  0  0  0  0  0  # atno 6909 bound_to 6896
  145.5484  140.9500  143.1512 H   0  0  0  0  0  0  0  0  0  0  0  0  # atno 7974 bound_to 7965
  156.1954  140.1722  156.8009 H   0  0  0  0  0  0  0  0  0  0  0  0  # atno 8008 bound_to 7997
  154.5523  140.0715  156.8719 H   0  0  0  0  0  0  0  0  0  0  0  0  # atno 8009 bound_to 7997
  155.3005  140.3361  155.4250 H   0  0  0  0  0  0  0  0  0  0  0  0  # atno 8010 bound_to 7997
  139.7079  144.7083  151.1075 H   0  0  0  0  0  0  0  0  0  0  0  0  # atno 10167 bound_to 10162
  156.6113  130.4850  149.6200 H   0  0  0  0  0  0  0  0  0  0  0  0  # atno 10718 bound_to 10713
  154.6649  135.2930  154.9818 H   0  0  0  0  0  0  0  0  0  0  0  0  # atno 10763 bound_to 10752
  154.0865  135.6597  153.4849 H   0  0  0  0  0  0  0  0  0  0  0  0  # atno 10764 bound_to 10752
  153.0452  135.5209  154.7618 H   0  0  0  0  0  0  0  0  0  0  0  0  # atno 10765 bound_to 10752
  140.1330  134.4681  155.8507 H   0  0  0  0  0  0  0  0  0  0  0  0  # atno 11005 bound_to 11000
  144.7541  139.7118  143.7261 LP  0  0  0  0  0  0  0  0  0  0  0  0  # atno 17320 bound_to 7965
  146.1933  139.5186  142.9791 LP  0  0  0  0  0  0  0  0  0  0  0  0  # atno 17321 bound_to 7965
  140.7726  143.5333  150.9398 LP  0  0  0  0  0  0  0  0  0  0  0  0  # atno 17342 bound_to 10162
  139.9017  143.6828  152.3130 LP  0  0  0  0  0  0  0  0  0  0  0  0  # atno 17343 bound_to 10162
  156.2388  130.6838  151.1535 LP  0  0  0  0  0  0  0  0  0  0  0  0  # atno 17370 bound_to 10713
  157.7253  131.0654  150.5957 LP  0  0  0  0  0  0  0  0  0  0  0  0  # atno 17371 bound_to 10713
  141.2173  133.6803  156.7105 LP  0  0  0  0  0  0  0  0  0  0  0  0  # atno 17394 bound_to 11000
  140.2818  134.8311  157.3940 LP  0  0  0  0  0  0  0  0  0  0  0  0  # atno 17395 bound_to 11000

$$$$
