AV-unprocessed.smi:1244|AV-procd|sdf|5222|dock9
  -GOLD-   22720 4323D 1   1.00000     0.00000
 Structure written by MMmdl.
 54 56  0  0  0  0  0  0  0  0  1 V2000
  147.5640  141.5862  153.9856 C   0  0  0  0  0  0  0  0  0  0  0  0
  149.0427  141.2920  154.2590 C   0  0  2  0  0  0  0  0  0  0  0  0
  149.3476  139.7814  154.2550 C   0  0  0  0  0  0  0  0  0  0  0  0
  150.7398  139.5031  154.6001 N   0  0  0  0  0  0  0  0  0  0  0  0
  151.0392  138.0724  154.6215 C   0  0  0  0  0  0  0  0  0  0  0  0
  150.0438  137.2155  155.4265 C   0  0  0  0  0  0  0  0  0  0  0  0
  149.4749  136.1473  154.6138 N   0  0  0  0  0  0  0  0  0  0  0  0
  149.5711  134.8385  154.8862 C   0  0  0  0  0  0  0  0  0  0  0  0
  150.1436  134.3891  155.8792 O   0  0  0  0  0  0  0  0  0  0  0  0
  148.9863  134.0978  153.9305 N   0  0  0  0  0  0  0  0  0  0  0  0
  148.9207  132.6786  153.8480 C   0  0  0  0  0  0  0  0  0  0  0  0
  149.9456  131.8505  154.3658 C   0  0  0  0  0  0  0  0  0  0  0  0
  149.8048  130.4538  154.2880 C   0  0  0  0  0  0  0  0  0  0  0  0
  148.6374  129.9333  153.7033 C   0  0  0  0  0  0  0  0  0  0  0  0
  147.6464  130.7087  153.2187 N   0  0  0  0  0  0  0  0  0  0  0  0
  147.7699  132.0569  153.2911 C   0  0  0  0  0  0  0  0  0  0  0  0
  146.7314  132.8411  152.7440 N   0  0  0  0  0  0  0  0  0  0  0  0
  147.0201  133.3367  151.3997 C   0  0  0  0  0  0  0  0  0  0  0  0
  145.7100  133.2547  150.6125 C   0  0  0  0  0  0  0  0  0  0  0  0
  144.9486  132.1412  151.3203 C   0  0  0  0  0  0  0  0  0  0  0  0
  145.3568  132.3434  152.7777 C   0  0  0  0  0  0  0  0  0  0  0  0
  151.0391  140.1183  155.8883 C   0  0  0  0  0  0  0  0  0  0  0  0
  150.7420  141.6300  155.8896 C   0  0  2  0  0  0  0  0  0  0  0  0
  150.9827  142.2685  157.2612 C   0  0  0  0  0  0  0  0  0  0  0  0
  149.3778  141.8342  155.5332 O   0  0  0  0  0  0  0  0  0  0  0  0
  147.2618  141.2038  153.0104 H   0  0  0  0  0  0  0  0  0  0  0  0
  147.3724  142.6595  153.9957 H   0  0  0  0  0  0  0  0  0  0  0  0
  146.9243  141.1269  154.7395 H   0  0  0  0  0  0  0  0  0  0  0  0
  149.6449  141.7871  153.4953 H   0  0  0  0  0  0  0  0  0  0  0  0
  148.6851  139.2750  154.9588 H   0  0  0  0  0  0  0  0  0  0  0  0
  149.1172  139.3838  153.2673 H   0  0  0  0  0  0  0  0  0  0  0  0
  151.0430  137.7045  153.5946 H   0  0  0  0  0  0  0  0  0  0  0  0
  152.0504  137.9126  154.9991 H   0  0  0  0  0  0  0  0  0  0  0  0
  150.5361  136.7451  156.2768 H   0  0  0  0  0  0  0  0  0  0  0  0
  149.2454  137.8391  155.8325 H   0  0  0  0  0  0  0  0  0  0  0  0
  148.9868  136.4245  153.7747 H   0  0  0  0  0  0  0  0  0  0  0  0
  148.6488  134.5959  153.1198 H   0  0  0  0  0  0  0  0  0  0  0  0
  150.8260  132.2643  154.8338 H   0  0  0  0  0  0  0  0  0  0  0  0
  150.5711  129.7976  154.6733 H   0  0  0  0  0  0  0  0  0  0  0  0
  148.4928  128.8659  153.6263 H   0  0  0  0  0  0  0  0  0  0  0  0
  147.4000  134.3581  151.4305 H   0  0  0  0  0  0  0  0  0  0  0  0
  147.7796  132.7140  150.9229 H   0  0  0  0  0  0  0  0  0  0  0  0
  145.1613  134.1928  150.7075 H   0  0  0  0  0  0  0  0  0  0  0  0
  145.8648  133.0599  149.5511 H   0  0  0  0  0  0  0  0  0  0  0  0
  143.8703  132.1945  151.1682 H   0  0  0  0  0  0  0  0  0  0  0  0
  145.2959  131.1689  150.9676 H   0  0  0  0  0  0  0  0  0  0  0  0
  145.2155  131.4383  153.3686 H   0  0  0  0  0  0  0  0  0  0  0  0
  144.7361  133.1157  153.2325 H   0  0  0  0  0  0  0  0  0  0  0  0
  150.4562  139.6325  156.6727 H   0  0  0  0  0  0  0  0  0  0  0  0
  152.0891  139.9586  156.1369 H   0  0  0  0  0  0  0  0  0  0  0  0
  151.3777  142.1281  155.1553 H   0  0  0  0  0  0  0  0  0  0  0  0
  152.0203  142.1476  157.5732 H   0  0  0  0  0  0  0  0  0  0  0  0
  150.3478  141.8167  158.0240 H   0  0  0  0  0  0  0  0  0  0  0  0
  150.7651  143.3365  157.2367 H   0  0  0  0  0  0  0  0  0  0  0  0
  1  2  1  0  0  0  0
  1 26  1  0  0  0  0
  1 27  1  0  0  0  0
  1 28  1  0  0  0  0
  2 25  1  0  0  0  0
  2  3  1  0  0  0  0
  2 29  1  0  0  0  0
  3  4  1  0  0  0  0
  3 30  1  0  0  0  0
  3 31  1  0  0  0  0
  4  5  1  0  0  0  0
  4 22  1  0  0  0  0
  5  6  1  0  0  0  0
  5 32  1  0  0  0  0
  5 33  1  0  0  0  0
  6  7  1  0  0  0  0
  6 34  1  0  0  0  0
  6 35  1  0  0  0  0
  7  8  1  0  0  0  0
  7 36  1  0  0  0  0
  8  9  2  0  0  0  0
  8 10  1  0  0  0  0
 10 11  1  0  0  0  0
 10 37  1  0  0  0  0
 11 16  1  0  0  0  0
 11 12  2  0  0  0  0
 12 13  1  0  0  0  0
 12 38  1  0  0  0  0
 13 14  2  0  0  0  0
 13 39  1  0  0  0  0
 14 15  1  0  0  0  0
 14 40  1  0  0  0  0
 15 16  2  0  0  0  0
 16 17  1  0  0  0  0
 17 21  1  0  0  0  0
 17 18  1  0  0  0  0
 18 19  1  0  0  0  0
 18 41  1  0  0  0  0
 18 42  1  0  0  0  0
 19 20  1  0  0  0  0
 19 43  1  0  0  0  0
 19 44  1  0  0  0  0
 20 21  1  0  0  0  0
 20 45  1  0  0  0  0
 20 46  1  0  0  0  0
 21 47  1  0  0  0  0
 21 48  1  0  0  0  0
 22 23  1  0  0  0  0
 22 49  1  0  0  0  0
 22 50  1  0  0  0  0
 23 24  1  0  0  0  0
 23 25  1  0  0  0  0
 23 51  1  0  0  0  0
 24 52  1  0  0  0  0
 24 53  1  0  0  0  0
 24 54  1  0  0  0  0
M  END
> <s_m_source_file>
AV-unprocessed.smi

> <i_m_source_file_index>
1244

> <i_lp_mmshare_version>
43012

> <i_f3d_flags>
0

> <s_epik_input>
W0NIM11bQ0BASF0xW0NIMl1OKFtDSDJdW0NASF0oTzEpW0NIM10pW0NIMl1bQ0gyXVtOSF1DKD1PKVtOSF1jMltjSF1bY0hdW2NIXW5jMk4zW0NIMl1bQ0gyXVtDSDJdW0NIMl0z

> <s_epik_cmdline>
J2VwaWtfcHl0aG9uJywgJy1waCcsICc3LjAnLCAnLXRuJywgJzgnLCAnLW1hJywgJzIwMCcsICctbWV0YWxfYmluZGluZycsICctaW1hZScsICc8aW5maWxlLm1hZT4nLCAnLW9tYWUnLCAnPG91dGZpbGUubWFlPic=

> <r_lp_tautomer_probability>
1

> <r_epik_Ionization_Penalty>
0.363951

> <r_epik_Ionization_Penalty_Charging>
0

> <r_epik_Ionization_Penalty_Neutral>
0.363951

> <r_epik_State_Penalty>
0.349372

> <r_epik_Charging_Adjusted_Penalty>
0.349372

> <i_epik_Tot_Q>
0

> <i_epik_Tot_abs_Q>
0

> <r_epik_Metal_State_Penalty>
0.333054

> <b_epik_Metal_Only>
0

> <s_lp_Force_Field>
OPLS_2005

> <r_lp_Energy>
48.0273

> <b_lp_Chiralities_Consistent>
1

> <s_lp_Variant>
AV-unprocessed.smi:1244-2

> <Gold.Version>
5.8.1

> <Gold.Id.Protein>
6NUR|6NUR_protein|mol2

> <Gold.PLP.Fitness>
50.5933

> <Gold.PLP.PLP>
-44.9776

> <Gold.PLP.part.hbond>
-2.9118

> <Gold.PLP.part.metal>
0.0000

> <Gold.PLP.part.buried>
-7.2688

> <Gold.PLP.part.nonpolar>
-37.2133

> <Gold.PLP.part.repulsive>
1.8875

> <Gold.PLP.ligand.clash>
0.0000

> <Gold.PLP.ligand.torsion>
1.3180

> <Gold.PLP.Chemscore.Hbond>
2.7029

> <Gold.PLP.Chemscore.CHOScore>
0.0000

> <Gold.PLP.Chemscore.Metal>
0.0000

> <Gold.Chemscore.Hbonds>
donor molecule, donor type, donor heavy atom, donor atom, acceptor molecule, acceptor atom, score
      L1  H     7    36       P1  7948  0.85
      L1  H    10    37       P1  7948  0.89
      P1  H  7989  7998       L1     4  0.85

> <Gold.PLP.Chemscore.Internal.Correction>
0.1432

> <Gold.Rescore>
     Score         DG    S(hbond)    S(metal)    S(lipo)     H(rot)  DE(clash)    DE(int)     intcor
     14.65     -17.42       1.06        0.00     105.57       1.55       0.11       2.67       ----

> <Gold.Chemscore.Fitness>
14.6459

> <Gold.Chemscore.DG>
-17.4245

> <Gold.Chemscore.ZeroCoef>
-5.4800

> <Gold.Chemscore.Hbond>
1.0646

> <Gold.Chemscore.Metal>
0.0000

> <Gold.Chemscore.Lipo>
105.5671

> <Gold.Chemscore.Internal_Hbond>
0.0000

> <Gold.Chemscore.DEClash>
0.1084

> <Gold.Chemscore.DEInternal>
2.6701

> <Gold.Chemscore.Rot>
1.5479

> <Gold.Chemscore.Internal.Correction>
   9.000000E+99

> <Gold.Chemscore.Hbonds>
donor molecule, donor type, donor heavy atom, donor atom, acceptor molecule, acceptor atom, score
      L1  H     7    36       P1  7948  0.84
      L1  H    10    37       P1  7948  0.21
      P1  H  7989  7998       L1     4  0.04

> <Gold.Chemscore.Hbond.Weighted>
-3.5559

> <Gold.Chemscore.Metal.Weighted>
-0.0000

> <Gold.Chemscore.Lipo.Weighted>
-12.3514

> <Gold.Chemscore.Internal_Hbond.Weighted>
0.0000

> <Gold.Chemscore.DEClash.Weighted>
0.1084

> <Gold.Chemscore.DEInternal.Weighted>
2.6701

> <Gold.Chemscore.Rot.Weighted>
3.9627

> <Gold.Chemscore.Internal.Correction.Weighted>
   9.000000E+99

> <Gold.Protein.RotatedTorsions>
[ 6907 6896 6895 6894 ] final  -39.45 input  -60.11 | X-H torsion
[ 7974 7965 7964 7962 ] final  112.21 input  175.53 | X-H torsion
[ 8008 7997 7996 7995 ] final  -17.28 input   59.86 | X-H torsion
[ 10167 10162 10161 10158 ] final    4.24 input  -65.29 | X-H torsion
[ 10718 10713 10712 10709 ] final  179.31 input   66.30 | X-H torsion
[ 10763 10752 10751 10750 ] final   40.29 input  -60.55 | X-H torsion
[ 11005 11000 10999 10996 ] final   63.89 input  -57.11 | X-H torsion

> <Gold.Protein.ActiveResidues>
 VAL166  LYS551  ARG553  GLY616  TRP617  ASP618  TYR619  PRO620  LYS621  CYS622 
 ASP623  PHE694  ASN695  SER759  ASP760  ASP761  ALA762  ILE779  LEU786  VAL792 
 PHE793  MET794  SER795  GLU796  ALA797  LYS798  CYS799  TRP800  GLU811  SER814 

> <Gold.Protein.RotatedAtoms>
  150.9902  134.9238  159.7894 H   0  0  0  0  0  0  0  0  0  0  0  0  # atno 6907 bound_to 6896
  152.5248  134.3292  159.9186 H   0  0  0  0  0  0  0  0  0  0  0  0  # atno 6908 bound_to 6896
  151.3298  133.3964  159.2696 H   0  0  0  0  0  0  0  0  0  0  0  0  # atno 6909 bound_to 6896
  145.2324  139.2814  143.4161 H   0  0  0  0  0  0  0  0  0  0  0  0  # atno 7974 bound_to 7965
  154.4990  140.2147  155.9387 H   0  0  0  0  0  0  0  0  0  0  0  0  # atno 8008 bound_to 7997
  156.1408  140.3180  155.8460 H   0  0  0  0  0  0  0  0  0  0  0  0  # atno 8009 bound_to 7997
  155.4123  140.0491  157.3021 H   0  0  0  0  0  0  0  0  0  0  0  0  # atno 8010 bound_to 7997
  140.6545  143.7462  150.7630 H   0  0  0  0  0  0  0  0  0  0  0  0  # atno 10167 bound_to 10162
  156.8776  130.9805  151.3066 H   0  0  0  0  0  0  0  0  0  0  0  0  # atno 10718 bound_to 10713
  152.9941  135.6195  154.2603 H   0  0  0  0  0  0  0  0  0  0  0  0  # atno 10763 bound_to 10752
  154.2339  135.2791  155.2881 H   0  0  0  0  0  0  0  0  0  0  0  0  # atno 10764 bound_to 10752
  154.5426  135.5756  153.6911 H   0  0  0  0  0  0  0  0  0  0  0  0  # atno 10765 bound_to 10752
  139.9994  134.6465  155.9955 H   0  0  0  0  0  0  0  0  0  0  0  0  # atno 11005 bound_to 11000
  146.3349  140.2663  142.8604 LP  0  0  0  0  0  0  0  0  0  0  0  0  # atno 17320 bound_to 7965
  144.9664  140.8326  143.5482 LP  0  0  0  0  0  0  0  0  0  0  0  0  # atno 17321 bound_to 7965
  140.1119  143.4691  152.2365 LP  0  0  0  0  0  0  0  0  0  0  0  0  # atno 17342 bound_to 10162
  139.5765  144.7490  151.3751 LP  0  0  0  0  0  0  0  0  0  0  0  0  # atno 17343 bound_to 10162
  157.6159  130.8618  149.9028 LP  0  0  0  0  0  0  0  0  0  0  0  0  # atno 17370 bound_to 10713
  156.0694  130.3687  150.0809 LP  0  0  0  0  0  0  0  0  0  0  0  0  # atno 17371 bound_to 10713
  141.1630  133.6538  156.4384 LP  0  0  0  0  0  0  0  0  0  0  0  0  # atno 17394 bound_to 11000
  140.4756  134.6713  157.5148 LP  0  0  0  0  0  0  0  0  0  0  0  0  # atno 17395 bound_to 11000

$$$$
