AV-unprocessed.smi:837|AV-procd|sdf|3904|dock3
  -GOLD-   22720 1363D 1   1.00000     0.00000
 Structure written by MMmdl.
 49 51  0  0  0  0  0  0  0  0  3 V2000
  148.8544  138.9963  157.2570 C   0  0  0  0  0  0  0  0  0  0  0  0
  150.1419  139.8477  157.2062 C   0  0  2  0  0  0  0  0  0  0  0  0
  150.4581  140.4467  158.5940 C   0  0  0  0  0  0  0  0  0  0  0  0
  151.7929  141.2069  158.5979 C   0  0  0  0  0  0  0  0  0  0  0  0
  151.8061  142.3086  157.5301 C   0  0  0  0  0  0  0  0  0  0  0  0
  151.5028  141.7322  156.1365 C   0  0  0  0  0  0  0  0  0  0  0  0
  150.1677  140.9442  156.0918 C   0  0  2  0  0  0  0  0  0  0  0  0
  149.0392  141.8557  156.2042 N   0  5  0  0  0  0  0  0  0  0  0  0
  148.3134  141.7978  155.0645 C   0  0  0  0  0  0  0  0  0  0  0  0
  147.2991  142.4460  154.8071 O   0  0  0  0  0  0  0  0  0  0  0  0
  148.8528  140.9275  154.1895 N   0  0  0  0  0  0  0  0  0  0  0  0
  148.3441  140.6794  152.8355 C   0  0  0  0  0  0  0  0  0  0  0  0
  147.8785  139.2283  152.6901 C   0  0  0  0  0  0  0  0  0  0  0  0
  147.8583  138.4812  153.6679 O   0  0  0  0  0  0  0  0  0  0  0  0
  147.5253  138.8434  151.4550 N   0  0  0  0  0  0  0  0  0  0  0  0
  147.1506  137.4890  151.0612 C   0  0  0  0  0  0  0  0  0  0  0  0
  145.9449  136.9299  151.8508 C   0  0  0  0  0  0  0  0  0  0  0  0
  145.4300  135.5871  151.3520 C   0  0  0  0  0  0  0  0  0  0  0  0
  146.2350  134.4293  151.4491 C   0  0  0  0  0  0  0  0  0  0  0  0
  145.7397  133.1985  150.9714 C   0  0  0  0  0  0  0  0  0  0  0  0
  144.4556  133.1529  150.3936 C   0  0  0  0  0  0  0  0  0  0  0  0
  143.7135  134.2789  150.3173 N   0  3  0  0  0  0  0  0  0  0  0  0
  144.1464  135.4746  150.7740 C   0  0  0  0  0  0  0  0  0  0  0  0
  149.9568  140.3697  154.6980 C   0  0  0  0  0  0  0  0  0  0  0  0
  150.6983  139.5467  154.1598 O   0  0  0  0  0  0  0  0  0  0  0  0
  147.9795  139.6037  157.4899 H   0  0  0  0  0  0  0  0  0  0  0  0
  148.9299  138.2262  158.0248 H   0  0  0  0  0  0  0  0  0  0  0  0
  148.6649  138.4871  156.3123 H   0  0  0  0  0  0  0  0  0  0  0  0
  150.9523  139.1515  156.9827 H   0  0  0  0  0  0  0  0  0  0  0  0
  149.6545  141.1172  158.9015 H   0  0  0  0  0  0  0  0  0  0  0  0
  150.4953  139.6535  159.3411 H   0  0  0  0  0  0  0  0  0  0  0  0
  151.9708  141.6411  159.5821 H   0  0  0  0  0  0  0  0  0  0  0  0
  152.6112  140.5095  158.4142 H   0  0  0  0  0  0  0  0  0  0  0  0
  151.0718  143.0742  157.7834 H   0  0  0  0  0  0  0  0  0  0  0  0
  152.7767  142.8049  157.5221 H   0  0  0  0  0  0  0  0  0  0  0  0
  151.5035  142.5353  155.3983 H   0  0  0  0  0  0  0  0  0  0  0  0
  152.3238  141.0715  155.8535 H   0  0  0  0  0  0  0  0  0  0  0  0
  147.5073  141.3431  152.6116 H   0  0  0  0  0  0  0  0  0  0  0  0
  149.1111  140.9098  152.0938 H   0  0  0  0  0  0  0  0  0  0  0  0
  147.5718  139.5342  150.7196 H   0  0  0  0  0  0  0  0  0  0  0  0
  146.9610  137.4450  149.9879 H   0  0  0  0  0  0  0  0  0  0  0  0
  148.0210  136.8590  151.2447 H   0  0  0  0  0  0  0  0  0  0  0  0
  146.2220  136.8303  152.9010 H   0  0  0  0  0  0  0  0  0  0  0  0
  145.1259  137.6490  151.8272 H   0  0  0  0  0  0  0  0  0  0  0  0
  147.2259  134.4804  151.8760 H   0  0  0  0  0  0  0  0  0  0  0  0
  146.3446  132.3054  151.0277 H   0  0  0  0  0  0  0  0  0  0  0  0
  144.0077  132.2584  149.9865 H   0  0  0  0  0  0  0  0  0  0  0  0
  143.4629  136.3015  150.6503 H   0  0  0  0  0  0  0  0  0  0  0  0
  142.7889  134.2248  149.8896 H   0  0  0  0  0  0  0  0  0  0  0  0
  1  2  1  0  0  0  0
  1 26  1  0  0  0  0
  1 27  1  0  0  0  0
  1 28  1  0  0  0  0
  2  7  1  0  0  0  0
  2  3  1  0  0  0  0
  2 29  1  0  0  0  0
  3  4  1  0  0  0  0
  3 30  1  0  0  0  0
  3 31  1  0  0  0  0
  4  5  1  0  0  0  0
  4 32  1  0  0  0  0
  4 33  1  0  0  0  0
  5  6  1  0  0  0  0
  5 34  1  0  0  0  0
  5 35  1  0  0  0  0
  6  7  1  0  0  0  0
  6 36  1  0  0  0  0
  6 37  1  0  0  0  0
  7 24  1  0  0  0  0
  7  8  1  0  0  0  0
  8  9  1  0  0  0  0
  9 10  2  0  0  0  0
  9 11  1  0  0  0  0
 11 12  1  0  0  0  0
 11 24  1  0  0  0  0
 12 13  1  0  0  0  0
 12 38  1  0  0  0  0
 12 39  1  0  0  0  0
 13 14  2  0  0  0  0
 13 15  1  0  0  0  0
 15 16  1  0  0  0  0
 15 40  1  0  0  0  0
 16 17  1  0  0  0  0
 16 41  1  0  0  0  0
 16 42  1  0  0  0  0
 17 18  1  0  0  0  0
 17 43  1  0  0  0  0
 17 44  1  0  0  0  0
 18 23  1  0  0  0  0
 18 19  2  0  0  0  0
 19 20  1  0  0  0  0
 19 45  1  0  0  0  0
 20 21  2  0  0  0  0
 20 46  1  0  0  0  0
 21 22  1  0  0  0  0
 21 47  1  0  0  0  0
 22 23  2  0  0  0  0
 22 49  1  0  0  0  0
 23 48  1  0  0  0  0
 24 25  2  0  0  0  0
M  CHG  1   8  -1
M  CHG  1  22   1
M  END
> <s_m_source_file>
AV-unprocessed.smi

> <i_m_source_file_index>
837

> <i_lp_mmshare_version>
43012

> <i_f3d_flags>
0

> <s_epik_input>
W0NIMl0xW0NIMl1bQ0gyXVtDSDJdW0NAQEhdKFtDSDNdKVtDQEBdMTJbTkhdQyg9TylOKEMyPU8pW0NIMl1DKD1PKVtOSF1bQ0gyXVtDSDJdYzNbY0hdW2NIXVtjSF1uW2NIXTM=

> <s_epik_cmdline>
J2VwaWtfcHl0aG9uJywgJy1waCcsICc3LjAnLCAnLXRuJywgJzgnLCAnLW1hJywgJzIwMCcsICctbWV0YWxfYmluZGluZycsICctaW1hZScsICc8aW5maWxlLm1hZT4nLCAnLW9tYWUnLCAnPG91dGZpbGUubWFlPic=

> <r_lp_tautomer_probability>
1

> <r_epik_Ionization_Penalty>
8.27169

> <r_epik_Ionization_Penalty_Charging>
8.27169

> <r_epik_Ionization_Penalty_Neutral>
1.56557e-07

> <r_epik_State_Penalty>
8.42098

> <r_epik_Charging_Adjusted_Penalty>
16.6927

> <i_epik_Tot_Q>
0

> <i_epik_Tot_abs_Q>
2

> <r_epik_Metal_State_Penalty>
4.38565

> <b_epik_Metal_Only>
1

> <s_lp_Force_Field>
OPLS_2005

> <r_lp_Energy>
17.0357

> <b_lp_Chiralities_Consistent>
1

> <s_lp_Variant>
AV-unprocessed.smi:837-13

> <Gold.Version>
5.8.1

> <Gold.Id.Protein>
6NUR|6NUR_protein|mol2

> <Gold.PLP.Fitness>
48.6179

> <Gold.PLP.PLP>
-39.8900

> <Gold.PLP.part.hbond>
-2.8338

> <Gold.PLP.part.metal>
0.0000

> <Gold.PLP.part.buried>
-4.8242

> <Gold.PLP.part.nonpolar>
-33.2945

> <Gold.PLP.part.repulsive>
1.4523

> <Gold.PLP.ligand.clash>
0.0000

> <Gold.PLP.ligand.torsion>
0.1121

> <Gold.PLP.Chemscore.Hbond>
2.9760

> <Gold.PLP.Chemscore.CHOScore>
0.0000

> <Gold.PLP.Chemscore.Metal>
0.0000

> <Gold.Chemscore.Hbonds>
donor molecule, donor type, donor heavy atom, donor atom, acceptor molecule, acceptor atom, score
      L1  H    22    49       P1 10186  2.00
      P1  H  7989  7998       L1    25  0.50

> <Gold.PLP.Chemscore.Internal.Correction>
0.0240

> <Gold.Rescore>
     Score         DG    S(hbond)    S(metal)    S(lipo)     H(rot)  DE(clash)    DE(int)     intcor
     16.88     -17.42       1.94        0.00      88.58       1.92       0.29       0.25       ----

> <Gold.Chemscore.Fitness>
16.8839

> <Gold.Chemscore.DG>
-17.4222

> <Gold.Chemscore.ZeroCoef>
-5.4800

> <Gold.Chemscore.Hbond>
1.9424

> <Gold.Chemscore.Metal>
0.0000

> <Gold.Chemscore.Lipo>
88.5754

> <Gold.Chemscore.Internal_Hbond>
0.0000

> <Gold.Chemscore.DEClash>
0.2873

> <Gold.Chemscore.DEInternal>
0.2510

> <Gold.Chemscore.Rot>
1.9175

> <Gold.Chemscore.Internal.Correction>
   9.000000E+99

> <Gold.Chemscore.Hbonds>
donor molecule, donor type, donor heavy atom, donor atom, acceptor molecule, acceptor atom, score
      L1  H    15    40       P1  7957  0.01
      L1  H    22    49       P1 10186  0.98
      P1  H  7989  7998       L1    25  0.02

> <Gold.Chemscore.Hbond.Weighted>
-6.4876

> <Gold.Chemscore.Metal.Weighted>
-0.0000

> <Gold.Chemscore.Lipo.Weighted>
-10.3633

> <Gold.Chemscore.Internal_Hbond.Weighted>
0.0000

> <Gold.Chemscore.DEClash.Weighted>
0.2873

> <Gold.Chemscore.DEInternal.Weighted>
0.2510

> <Gold.Chemscore.Rot.Weighted>
4.9087

> <Gold.Chemscore.Internal.Correction.Weighted>
   9.000000E+99

> <Gold.Protein.RotatedTorsions>
[ 6907 6896 6895 6894 ] final  157.73 input  -60.11 | X-H torsion
[ 7974 7965 7964 7962 ] final   74.88 input  175.53 | X-H torsion
[ 8008 7997 7996 7995 ] final   16.79 input   59.86 | X-H torsion
[ 10167 10162 10161 10158 ] final -131.56 input  -65.29 | X-H torsion
[ 10718 10713 10712 10709 ] final -145.11 input   66.30 | X-H torsion
[ 10763 10752 10751 10750 ] final -129.82 input  -60.55 | X-H torsion
[ 11005 11000 10999 10996 ] final  124.33 input  -57.11 | X-H torsion

> <Gold.Protein.ActiveResidues>
 VAL166  LYS551  ARG553  GLY616  TRP617  ASP618  TYR619  PRO620  LYS621  CYS622 
 ASP623  PHE694  ASN695  SER759  ASP760  ASP761  ALA762  ILE779  LEU786  VAL792 
 PHE793  MET794  SER795  GLU796  ALA797  LYS798  CYS799  TRP800  GLU811  SER814 

> <Gold.Protein.RotatedAtoms>
  152.0108  133.3860  159.4218 H   0  0  0  0  0  0  0  0  0  0  0  0  # atno 6907 bound_to 6896
  150.6900  134.3733  159.5011 H   0  0  0  0  0  0  0  0  0  0  0  0  # atno 6908 bound_to 6896
  152.1493  134.9001  160.0600 H   0  0  0  0  0  0  0  0  0  0  0  0  # atno 6909 bound_to 6896
  145.7227  139.2654  143.1587 H   0  0  0  0  0  0  0  0  0  0  0  0  # atno 7974 bound_to 7965
  154.8820  140.2974  155.5419 H   0  0  0  0  0  0  0  0  0  0  0  0  # atno 8008 bound_to 7997
  156.3022  140.2440  156.3758 H   0  0  0  0  0  0  0  0  0  0  0  0  # atno 8009 bound_to 7997
  154.8707  140.0401  157.1711 H   0  0  0  0  0  0  0  0  0  0  0  0  # atno 8010 bound_to 7997
  139.9177  143.6420  152.2561 H   0  0  0  0  0  0  0  0  0  0  0  0  # atno 10167 bound_to 10162
  156.3784  130.7824  151.2013 H   0  0  0  0  0  0  0  0  0  0  0  0  # atno 10718 bound_to 10713
  154.8757  135.3883  154.3982 H   0  0  0  0  0  0  0  0  0  0  0  0  # atno 10763 bound_to 10752
  153.4710  135.7030  153.5999 H   0  0  0  0  0  0  0  0  0  0  0  0  # atno 10764 bound_to 10752
  153.4456  135.3846  155.2221 H   0  0  0  0  0  0  0  0  0  0  0  0  # atno 10765 bound_to 10752
  139.9353  134.9640  156.8393 H   0  0  0  0  0  0  0  0  0  0  0  0  # atno 11005 bound_to 11000
  146.0611  140.7970  142.9734 LP  0  0  0  0  0  0  0  0  0  0  0  0  # atno 17320 bound_to 7965
  144.6912  140.3198  143.7234 LP  0  0  0  0  0  0  0  0  0  0  0  0  # atno 17321 bound_to 7965
  139.6888  144.7649  151.1475 LP  0  0  0  0  0  0  0  0  0  0  0  0  # atno 17342 bound_to 10162
  140.7670  143.5618  150.9091 LP  0  0  0  0  0  0  0  0  0  0  0  0  # atno 17343 bound_to 10162
  157.7490  131.0351  150.4349 LP  0  0  0  0  0  0  0  0  0  0  0  0  # atno 17370 bound_to 10713
  156.4589  130.4027  149.6589 LP  0  0  0  0  0  0  0  0  0  0  0  0  # atno 17371 bound_to 10713
  140.6091  134.0099  155.7569 LP  0  0  0  0  0  0  0  0  0  0  0  0  # atno 17394 bound_to 11000
  141.0964  133.9837  157.3152 LP  0  0  0  0  0  0  0  0  0  0  0  0  # atno 17395 bound_to 11000

$$$$
