AV-unprocessed.smi:944|AV-procd|sdf|4232|dock4
  -GOLD-   22720 2143D 1   1.00000     0.00000
 Structure written by MMmdl.
 28 28  0  0  0  0  0  0  0  0  1 V2000
  148.4511  145.8066  160.4345 C   0  0  0  0  0  0  0  0  0  0  0  0
  148.0640  144.8602  159.3998 N   0  0  0  0  0  0  0  0  0  0  0  0
  147.6429  143.6104  159.6397 C   0  0  0  0  0  0  0  0  0  0  0  0
  147.5513  143.1377  160.7740 O   0  0  0  0  0  0  0  0  0  0  0  0
  147.2895  142.7638  158.4053 C   0  0  1  0  0  0  0  0  0  0  0  0
  146.0913  143.4243  157.7034 C   0  0  0  0  0  0  0  0  0  0  0  0
  148.4058  142.7359  157.4612 N   0  0  0  0  0  0  0  0  0  0  0  0
  149.3176  141.7553  157.3664 C   0  0  0  0  0  0  0  0  0  0  0  0
  149.2919  140.7425  158.0672 O   0  0  0  0  0  0  0  0  0  0  0  0
  150.4156  141.9613  156.3166 C   0  0  0  0  0  0  0  0  0  0  0  0
  151.3273  140.8323  156.2356 N   0  0  0  0  0  0  0  0  0  0  0  0
  152.1945  140.3502  157.1283 C   0  0  0  0  0  0  0  0  0  0  0  0
  152.8715  139.2933  156.7008 N   0  0  0  0  0  0  0  0  0  0  0  0
  152.3350  139.1699  155.4501 C   0  0  0  0  0  0  0  0  0  0  0  0
  151.4083  140.0696  155.1197 N   0  0  0  0  0  0  0  0  0  0  0  0
  148.7444  146.7535  159.9815 H   0  0  0  0  0  0  0  0  0  0  0  0
  149.2965  145.4280  161.0108 H   0  0  0  0  0  0  0  0  0  0  0  0
  147.6212  145.9972  161.1166 H   0  0  0  0  0  0  0  0  0  0  0  0
  148.1152  145.1752  158.4416 H   0  0  0  0  0  0  0  0  0  0  0  0
  147.0249  141.7478  158.7054 H   0  0  0  0  0  0  0  0  0  0  0  0
  145.2243  143.4779  158.3633 H   0  0  0  0  0  0  0  0  0  0  0  0
  145.7932  142.8518  156.8246 H   0  0  0  0  0  0  0  0  0  0  0  0
  146.3215  144.4388  157.3731 H   0  0  0  0  0  0  0  0  0  0  0  0
  148.5032  143.5343  156.8511 H   0  0  0  0  0  0  0  0  0  0  0  0
  149.9551  142.1275  155.3416 H   0  0  0  0  0  0  0  0  0  0  0  0
  150.9974  142.8528  156.5558 H   0  0  0  0  0  0  0  0  0  0  0  0
  152.3314  140.7795  158.1102 H   0  0  0  0  0  0  0  0  0  0  0  0
  152.6391  138.3957  154.7610 H   0  0  0  0  0  0  0  0  0  0  0  0
  1  2  1  0  0  0  0
  1 16  1  0  0  0  0
  1 17  1  0  0  0  0
  1 18  1  0  0  0  0
  2  3  1  0  0  0  0
  2 19  1  0  0  0  0
  3  4  2  0  0  0  0
  3  5  1  0  0  0  0
  5  6  1  0  0  0  0
  5  7  1  0  0  0  0
  5 20  1  0  0  0  0
  6 21  1  0  0  0  0
  6 22  1  0  0  0  0
  6 23  1  0  0  0  0
  7  8  1  0  0  0  0
  7 24  1  0  0  0  0
  8  9  2  0  0  0  0
  8 10  1  0  0  0  0
 10 11  1  0  0  0  0
 10 25  1  0  0  0  0
 10 26  1  0  0  0  0
 11 15  1  0  0  0  0
 11 12  1  0  0  0  0
 12 13  2  0  0  0  0
 12 27  1  0  0  0  0
 13 14  1  0  0  0  0
 14 15  2  0  0  0  0
 14 28  1  0  0  0  0
M  END
> <s_m_source_file>
AV-unprocessed.smi

> <i_m_source_file_index>
944

> <i_lp_mmshare_version>
43012

> <i_f3d_flags>
0

> <s_epik_input>
W0NIM11bTkhdQyg9TylbQ0BIXShbQ0gzXSlbTkhdQyg9TylbQ0gyXW4xW2NIXW5bY0hdbjE=

> <s_epik_cmdline>
J2VwaWtfcHl0aG9uJywgJy1waCcsICc3LjAnLCAnLXRuJywgJzgnLCAnLW1hJywgJzIwMCcsICctbWV0YWxfYmluZGluZycsICctaW1hZScsICc8aW5maWxlLm1hZT4nLCAnLW9tYWUnLCAnPG91dGZpbGUubWFlPic=

> <r_lp_tautomer_probability>
1

> <r_epik_Ionization_Penalty>
7.54354e-06

> <r_epik_Ionization_Penalty_Charging>
0

> <r_epik_Ionization_Penalty_Neutral>
7.54354e-06

> <r_epik_State_Penalty>
-0

> <r_epik_Charging_Adjusted_Penalty>
0

> <i_epik_Tot_Q>
0

> <i_epik_Tot_abs_Q>
0

> <r_epik_Metal_State_Penalty>
-0

> <b_epik_Metal_Only>
0

> <s_lp_Force_Field>
OPLS_2005

> <r_lp_Energy>
4.79019

> <b_lp_Chiralities_Consistent>
1

> <s_lp_Variant>
AV-unprocessed.smi:944-2

> <Gold.Version>
5.8.1

> <Gold.Id.Protein>
6NUR|6NUR_protein|mol2

> <Gold.PLP.Fitness>
39.8256

> <Gold.PLP.PLP>
-23.4482

> <Gold.PLP.part.hbond>
-5.9150

> <Gold.PLP.part.metal>
0.0000

> <Gold.PLP.part.buried>
-1.5515

> <Gold.PLP.part.nonpolar>
-14.9635

> <Gold.PLP.part.repulsive>
0.1982

> <Gold.PLP.ligand.clash>
0.0000

> <Gold.PLP.ligand.torsion>
0.4113

> <Gold.PLP.Chemscore.Hbond>
5.7280

> <Gold.PLP.Chemscore.CHOScore>
0.0000

> <Gold.PLP.Chemscore.Metal>
0.0000

> <Gold.Chemscore.Hbonds>
donor molecule, donor type, donor heavy atom, donor atom, acceptor molecule, acceptor atom, score
      L1  H     2    19       P1  8029  0.71
      L1  H     7    24       P1  8028  0.95
      P1  H  6933  6944       L1     4  0.67
      P1  H  6934  6946       L1     4  0.11
      P1  H  7989  7998       L1    15  1.00
      P1  H  7997  8008       L1    13  0.80

> <Gold.PLP.Chemscore.Internal.Correction>
0.0160

> <Gold.Rescore>
     Score         DG    S(hbond)    S(metal)    S(lipo)     H(rot)  DE(clash)    DE(int)     intcor
     12.69     -13.30       3.89        0.00      15.84       2.74       0.06       0.55       ----

> <Gold.Chemscore.Fitness>
12.6913

> <Gold.Chemscore.DG>
-13.3037

> <Gold.Chemscore.ZeroCoef>
-5.4800

> <Gold.Chemscore.Hbond>
3.8897

> <Gold.Chemscore.Metal>
0.0000

> <Gold.Chemscore.Lipo>
15.8384

> <Gold.Chemscore.Internal_Hbond>
0.0000

> <Gold.Chemscore.DEClash>
0.0609

> <Gold.Chemscore.DEInternal>
0.5516

> <Gold.Chemscore.Rot>
2.7426

> <Gold.Chemscore.Internal.Correction>
   9.000000E+99

> <Gold.Chemscore.Hbonds>
donor molecule, donor type, donor heavy atom, donor atom, acceptor molecule, acceptor atom, score
      L1  H     2    19       P1  8029  0.70
      L1  H     7    24       P1  8028  0.22
      P1  H  6933  6944       L1     4  0.67
      P1  H  6934  6946       L1     4  0.10
      P1  H  7989  7998       L1    15  0.86
      P1  H  7997  8008       L1    13  0.10

> <Gold.Chemscore.Hbond.Weighted>
-12.9916

> <Gold.Chemscore.Metal.Weighted>
-0.0000

> <Gold.Chemscore.Lipo.Weighted>
-1.8531

> <Gold.Chemscore.Internal_Hbond.Weighted>
0.0000

> <Gold.Chemscore.DEClash.Weighted>
0.0609

> <Gold.Chemscore.DEInternal.Weighted>
0.5516

> <Gold.Chemscore.Rot.Weighted>
7.0210

> <Gold.Chemscore.Internal.Correction.Weighted>
   9.000000E+99

> <Gold.Protein.RotatedTorsions>
[ 6907 6896 6895 6894 ] final   -4.66 input  -60.11 | X-H torsion
[ 7974 7965 7964 7962 ] final   78.12 input  175.53 | X-H torsion
[ 8008 7997 7996 7995 ] final  -64.23 input   59.86 | X-H torsion
[ 10167 10162 10161 10158 ] final  167.05 input  -65.29 | X-H torsion
[ 10718 10713 10712 10709 ] final   87.59 input   66.30 | X-H torsion
[ 10763 10752 10751 10750 ] final   94.85 input  -60.55 | X-H torsion
[ 11005 11000 10999 10996 ] final  -40.31 input  -57.11 | X-H torsion

> <Gold.Protein.ActiveResidues>
 VAL166  LYS551  ARG553  GLY616  TRP617  ASP618  TYR619  PRO620  LYS621  CYS622 
 ASP623  PHE694  ASN695  SER759  ASP760  ASP761  ALA762  ILE779  LEU786  VAL792 
 PHE793  MET794  SER795  GLU796  ALA797  LYS798  CYS799  TRP800  GLU811  SER814 

> <Gold.Protein.RotatedAtoms>
  151.4941  135.1059  159.9810 H   0  0  0  0  0  0  0  0  0  0  0  0  # atno 6907 bound_to 6896
  152.4729  133.8067  159.6992 H   0  0  0  0  0  0  0  0  0  0  0  0  # atno 6908 bound_to 6896
  150.8749  133.7391  159.2976 H   0  0  0  0  0  0  0  0  0  0  0  0  # atno 6909 bound_to 6896
  145.6813  139.2524  143.1813 H   0  0  0  0  0  0  0  0  0  0  0  0  # atno 7974 bound_to 7965
  154.4600  140.0958  156.6865 H   0  0  0  0  0  0  0  0  0  0  0  0  # atno 8008 bound_to 7997
  155.5023  140.3474  155.4355 H   0  0  0  0  0  0  0  0  0  0  0  0  # atno 8009 bound_to 7997
  156.0851  140.1383  156.9652 H   0  0  0  0  0  0  0  0  0  0  0  0  # atno 8010 bound_to 7997
  139.4937  144.3963  151.9460 H   0  0  0  0  0  0  0  0  0  0  0  0  # atno 10167 bound_to 10162
  157.6941  131.0261  150.3146 H   0  0  0  0  0  0  0  0  0  0  0  0  # atno 10718 bound_to 10713
  153.2464  135.4275  155.0752 H   0  0  0  0  0  0  0  0  0  0  0  0  # atno 10763 bound_to 10752
  154.8363  135.3415  154.6575 H   0  0  0  0  0  0  0  0  0  0  0  0  # atno 10764 bound_to 10752
  153.6998  135.7029  153.5123 H   0  0  0  0  0  0  0  0  0  0  0  0  # atno 10765 bound_to 10752
  141.0165  133.6883  156.2304 H   0  0  0  0  0  0  0  0  0  0  0  0  # atno 11005 bound_to 11000
  146.0962  140.7598  142.9571 LP  0  0  0  0  0  0  0  0  0  0  0  0  # atno 17320 bound_to 7965
  144.7025  140.3715  143.7144 LP  0  0  0  0  0  0  0  0  0  0  0  0  # atno 17321 bound_to 7965
  140.3401  144.3213  150.5969 LP  0  0  0  0  0  0  0  0  0  0  0  0  # atno 17342 bound_to 10162
  140.5573  143.2197  151.7826 LP  0  0  0  0  0  0  0  0  0  0  0  0  # atno 17343 bound_to 10162
  156.3642  130.3852  149.7227 LP  0  0  0  0  0  0  0  0  0  0  0  0  # atno 17370 bound_to 10713
  156.4663  130.7975  151.2994 LP  0  0  0  0  0  0  0  0  0  0  0  0  # atno 17371 bound_to 10713
  140.6645  134.4932  157.5585 LP  0  0  0  0  0  0  0  0  0  0  0  0  # atno 17394 bound_to 11000
  139.9120  134.8324  156.1495 LP  0  0  0  0  0  0  0  0  0  0  0  0  # atno 17395 bound_to 11000

$$$$
