AV-unprocessed.smi:3345|AV-procd|sdf|12903|dock8
  -GOLD-   2272019313D 1   1.00000     0.00000
 Structure written by MMmdl.
 41 42  0  0  0  0  0  0  0  0  2 V2000
  149.1396  133.5556  154.6107 C   0  0  0  0  0  0  0  0  0  0  0  0
  148.5440  134.9063  155.0293 C   0  0  2  0  0  0  0  0  0  0  0  0
  147.0744  135.0491  154.5721 C   0  0  0  0  0  0  0  0  0  0  0  0
  146.8974  134.8898  153.1050 N   0  3  0  0  0  0  0  0  0  0  0  0
  146.8391  133.4710  152.6816 C   0  0  0  0  0  0  0  0  0  0  0  0
  146.7291  133.3723  151.1502 C   0  0  0  0  0  0  0  0  0  0  0  0
  145.5972  134.1055  150.6982 O   0  0  0  0  0  0  0  0  0  0  0  0
  145.6861  135.4857  151.0314 C   0  0  0  0  0  0  0  0  0  0  0  0
  145.7400  135.6391  152.5599 C   0  0  0  0  0  0  0  0  0  0  0  0
  149.3595  135.9892  154.4805 N   0  0  0  0  0  0  0  0  0  0  0  0
  150.1596  136.8079  155.1836 C   0  0  0  0  0  0  0  0  0  0  0  0
  150.3682  136.6778  156.3898 O   0  0  0  0  0  0  0  0  0  0  0  0
  150.7742  137.9796  154.4052 C   0  0  2  0  0  0  0  0  0  0  0  0
  152.3073  138.0554  154.5510 C   0  0  0  0  0  0  0  0  0  0  0  0
  150.1206  139.2218  154.7999 N   0  0  0  0  0  0  0  0  0  0  0  0
  149.1972  139.4448  155.7376 C   0  0  0  0  0  0  0  0  0  0  0  0
  148.8661  140.7209  155.8747 N   0  0  0  0  0  0  0  0  0  0  0  0
  149.6762  141.2710  154.9226 C   0  0  0  0  0  0  0  0  0  0  0  0
  150.4661  140.4210  154.2675 N   0  0  0  0  0  0  0  0  0  0  0  0
  148.5610  132.7285  155.0232 H   0  0  0  0  0  0  0  0  0  0  0  0
  150.1641  133.4505  154.9699 H   0  0  0  0  0  0  0  0  0  0  0  0
  149.1539  133.4436  153.5260 H   0  0  0  0  0  0  0  0  0  0  0  0
  148.5722  134.9369  156.1193 H   0  0  0  0  0  0  0  0  0  0  0  0
  146.4893  134.2777  155.0753 H   0  0  0  0  0  0  0  0  0  0  0  0
  146.6595  136.0049  154.8955 H   0  0  0  0  0  0  0  0  0  0  0  0
  147.7340  132.9458  153.0169 H   0  0  0  0  0  0  0  0  0  0  0  0
  145.9833  132.9838  153.1514 H   0  0  0  0  0  0  0  0  0  0  0  0
  147.6332  133.7482  150.6709 H   0  0  0  0  0  0  0  0  0  0  0  0
  146.6193  132.3309  150.8477 H   0  0  0  0  0  0  0  0  0  0  0  0
  146.5653  135.9321  150.5636 H   0  0  0  0  0  0  0  0  0  0  0  0
  144.8141  136.0032  150.6317 H   0  0  0  0  0  0  0  0  0  0  0  0
  144.8168  135.2671  153.0068 H   0  0  0  0  0  0  0  0  0  0  0  0
  145.8128  136.6958  152.8143 H   0  0  0  0  0  0  0  0  0  0  0  0
  149.2651  136.1653  153.4905 H   0  0  0  0  0  0  0  0  0  0  0  0
  150.5562  137.8215  153.3475 H   0  0  0  0  0  0  0  0  0  0  0  0
  152.7799  137.1302  154.2191 H   0  0  0  0  0  0  0  0  0  0  0  0
  152.6146  138.2310  155.5827 H   0  0  0  0  0  0  0  0  0  0  0  0
  152.7146  138.8647  153.9443 H   0  0  0  0  0  0  0  0  0  0  0  0
  148.7653  138.6585  156.3392 H   0  0  0  0  0  0  0  0  0  0  0  0
  149.7006  142.3320  154.7217 H   0  0  0  0  0  0  0  0  0  0  0  0
  147.7248  135.2782  152.6747 H   0  0  0  0  0  0  0  0  0  0  0  0
  1  2  1  0  0  0  0
  1 20  1  0  0  0  0
  1 21  1  0  0  0  0
  1 22  1  0  0  0  0
  2  3  1  0  0  0  0
  2 10  1  0  0  0  0
  2 23  1  0  0  0  0
  3  4  1  0  0  0  0
  3 24  1  0  0  0  0
  3 25  1  0  0  0  0
  4  9  1  0  0  0  0
  4  5  1  0  0  0  0
  4 41  1  0  0  0  0
  5  6  1  0  0  0  0
  5 26  1  0  0  0  0
  5 27  1  0  0  0  0
  6  7  1  0  0  0  0
  6 28  1  0  0  0  0
  6 29  1  0  0  0  0
  7  8  1  0  0  0  0
  8  9  1  0  0  0  0
  8 30  1  0  0  0  0
  8 31  1  0  0  0  0
  9 32  1  0  0  0  0
  9 33  1  0  0  0  0
 10 11  1  0  0  0  0
 10 34  1  0  0  0  0
 11 12  2  0  0  0  0
 11 13  1  0  0  0  0
 13 14  1  0  0  0  0
 13 15  1  0  0  0  0
 13 35  1  0  0  0  0
 14 36  1  0  0  0  0
 14 37  1  0  0  0  0
 14 38  1  0  0  0  0
 15 19  1  0  0  0  0
 15 16  1  0  0  0  0
 16 17  2  0  0  0  0
 16 39  1  0  0  0  0
 17 18  1  0  0  0  0
 18 19  2  0  0  0  0
 18 40  1  0  0  0  0
M  CHG  1   4   1
M  END
> <s_m_source_file>
AV-unprocessed.smi

> <i_m_source_file_index>
3345

> <i_lp_mmshare_version>
43012

> <i_f3d_flags>
0

> <s_epik_input>
W0NIMl0xW0NIMl1PW0NIMl1bQ0gyXU4xW0NIMl1bQ0BASF0oW0NIM10pW05IXUMoPU8pW0NASF0oW0NIM10pbjJbY0hdbltjSF1uMg==

> <s_epik_cmdline>
J2VwaWtfcHl0aG9uJywgJy1waCcsICc3LjAnLCAnLXRuJywgJzgnLCAnLW1hJywgJzIwMCcsICctbWV0YWxfYmluZGluZycsICctaW1hZScsICc8aW5maWxlLm1hZT4nLCAnLW9tYWUnLCAnPG91dGZpbGUubWFlPic=

> <r_lp_tautomer_probability>
1

> <r_epik_Ionization_Penalty>
0.71326

> <r_epik_Ionization_Penalty_Charging>
0.713252

> <r_epik_Ionization_Penalty_Neutral>
8.27671e-06

> <r_epik_State_Penalty>
0.737017

> <r_epik_Charging_Adjusted_Penalty>
1.45027

> <i_epik_Tot_Q>
1

> <i_epik_Tot_abs_Q>
1

> <r_epik_Metal_State_Penalty>
0.73702

> <b_epik_Metal_Only>
0

> <s_lp_Force_Field>
OPLS_2005

> <r_lp_Energy>
25.9312

> <b_lp_Chiralities_Consistent>
1

> <s_lp_Variant>
AV-unprocessed.smi:3345-5

> <Gold.Version>
5.8.1

> <Gold.Id.Protein>
6NUR|6NUR_protein|mol2

> <Gold.PLP.Fitness>
43.8404

> <Gold.PLP.PLP>
-30.0321

> <Gold.PLP.part.hbond>
-2.9742

> <Gold.PLP.part.metal>
0.0000

> <Gold.PLP.part.buried>
-4.9703

> <Gold.PLP.part.nonpolar>
-22.7296

> <Gold.PLP.part.repulsive>
0.3803

> <Gold.PLP.ligand.clash>
0.0000

> <Gold.PLP.ligand.torsion>
0.5626

> <Gold.PLP.Chemscore.Hbond>
3.9280

> <Gold.PLP.Chemscore.CHOScore>
1.0000

> <Gold.PLP.Chemscore.Metal>
0.0000

> <Gold.Chemscore.Hbonds>
donor molecule, donor type, donor heavy atom, donor atom, acceptor molecule, acceptor atom, score
      L1  H     4    41       P1  7948  2.00
      L1  H    10    34       P1  7948  1.00
      P1  H  7989  7998       L1    19  0.83
      L1  C    18    40       P1  8028  0.62

> <Gold.PLP.Chemscore.Internal.Correction>
0.1495

> <Gold.Rescore>
     Score         DG    S(hbond)    S(metal)    S(lipo)     H(rot)  DE(clash)    DE(int)     intcor
     13.29     -14.24       2.90        0.00      49.21       2.61       0.00       0.95       ----

> <Gold.Chemscore.Fitness>
13.2872

> <Gold.Chemscore.DG>
-14.2425

> <Gold.Chemscore.ZeroCoef>
-5.4800

> <Gold.Chemscore.Hbond>
2.9032

> <Gold.Chemscore.Metal>
0.0000

> <Gold.Chemscore.Lipo>
49.2057

> <Gold.Chemscore.Internal_Hbond>
0.0000

> <Gold.Chemscore.DEClash>
0.0019

> <Gold.Chemscore.DEInternal>
0.9533

> <Gold.Chemscore.Rot>
2.6138

> <Gold.Chemscore.Internal.Correction>
   9.000000E+99

> <Gold.Chemscore.Hbonds>
donor molecule, donor type, donor heavy atom, donor atom, acceptor molecule, acceptor atom, score
      L1  H     4    41       P1  7948  1.00
      L1  H    10    34       P1  7948  0.82
      P1  H  7989  7998       L1    19  0.75

> <Gold.Chemscore.Hbond.Weighted>
-9.6966

> <Gold.Chemscore.Metal.Weighted>
-0.0000

> <Gold.Chemscore.Lipo.Weighted>
-5.7571

> <Gold.Chemscore.Internal_Hbond.Weighted>
0.0000

> <Gold.Chemscore.DEClash.Weighted>
0.0019

> <Gold.Chemscore.DEInternal.Weighted>
0.9533

> <Gold.Chemscore.Rot.Weighted>
6.6912

> <Gold.Chemscore.Internal.Correction.Weighted>
   9.000000E+99

> <Gold.Protein.RotatedTorsions>
[ 6907 6896 6895 6894 ] final -150.99 input  -60.11 | X-H torsion
[ 7974 7965 7964 7962 ] final   11.85 input  175.53 | X-H torsion
[ 8008 7997 7996 7995 ] final  -61.36 input   59.86 | X-H torsion
[ 10167 10162 10161 10158 ] final   -3.08 input  -65.29 | X-H torsion
[ 10718 10713 10712 10709 ] final   53.38 input   66.30 | X-H torsion
[ 10763 10752 10751 10750 ] final  101.30 input  -60.55 | X-H torsion
[ 11005 11000 10999 10996 ] final   24.20 input  -57.11 | X-H torsion

> <Gold.Protein.ActiveResidues>
 VAL166  LYS551  ARG553  GLY616  TRP617  ASP618  TYR619  PRO620  LYS621  CYS622 
 ASP623  PHE694  ASN695  SER759  ASP760  ASP761  ALA762  ILE779  LEU786  VAL792 
 PHE793  MET794  SER795  GLU796  ALA797  LYS798  CYS799  TRP800  GLU811  SER814 

> <Gold.Protein.RotatedAtoms>
  151.2065  133.4580  159.2597 H   0  0  0  0  0  0  0  0  0  0  0  0  # atno 6907 bound_to 6896
  151.1018  134.9976  159.8462 H   0  0  0  0  0  0  0  0  0  0  0  0  # atno 6908 bound_to 6896
  152.5444  134.1991  159.8758 H   0  0  0  0  0  0  0  0  0  0  0  0  # atno 6909 bound_to 6896
  146.2363  139.9423  142.8481 H   0  0  0  0  0  0  0  0  0  0  0  0  # atno 7974 bound_to 7965
  154.4444  140.1019  156.6418 H   0  0  0  0  0  0  0  0  0  0  0  0  # atno 8008 bound_to 7997
  155.5493  140.3485  155.4446 H   0  0  0  0  0  0  0  0  0  0  0  0  # atno 8009 bound_to 7997
  156.0540  140.1311  157.0006 H   0  0  0  0  0  0  0  0  0  0  0  0  # atno 8010 bound_to 7997
  140.6876  143.6582  150.8290 H   0  0  0  0  0  0  0  0  0  0  0  0  # atno 10167 bound_to 10162
  157.5161  130.8533  149.8497 H   0  0  0  0  0  0  0  0  0  0  0  0  # atno 10718 bound_to 10713
  153.3249  135.4049  155.1447 H   0  0  0  0  0  0  0  0  0  0  0  0  # atno 10763 bound_to 10752
  154.8609  135.3596  154.5547 H   0  0  0  0  0  0  0  0  0  0  0  0  # atno 10764 bound_to 10752
  153.5983  135.7072  153.5454 H   0  0  0  0  0  0  0  0  0  0  0  0  # atno 10765 bound_to 10752
  140.3613  134.2122  155.7672 H   0  0  0  0  0  0  0  0  0  0  0  0  # atno 11005 bound_to 11000
  145.1940  140.9825  143.4194 LP  0  0  0  0  0  0  0  0  0  0  0  0  # atno 17320 bound_to 7965
  144.9832  139.3763  143.6252 LP  0  0  0  0  0  0  0  0  0  0  0  0  # atno 17321 bound_to 7965
  140.0291  143.5462  152.2768 LP  0  0  0  0  0  0  0  0  0  0  0  0  # atno 17342 bound_to 10162
  139.6248  144.7635  151.2661 LP  0  0  0  0  0  0  0  0  0  0  0  0  # atno 17343 bound_to 10162
  156.0321  130.3761  150.1658 LP  0  0  0  0  0  0  0  0  0  0  0  0  # atno 17370 bound_to 10713
  156.9847  130.9875  151.3429 LP  0  0  0  0  0  0  0  0  0  0  0  0  # atno 17371 bound_to 10713
  141.1983  133.8038  157.0588 LP  0  0  0  0  0  0  0  0  0  0  0  0  # atno 17394 bound_to 11000
  140.0624  134.9747  157.1328 LP  0  0  0  0  0  0  0  0  0  0  0  0  # atno 17395 bound_to 11000

$$$$
