AV-unprocessed.smi:1949|AV-procd|sdf|7878|dock8
  -GOLD-   2272010 33D 1   1.00000     0.00000
 Structure written by MMmdl.
 28 29  0  0  0  0  0  0  0  0  2 V2000
  154.4950  136.1076  162.2803 C   0  0  0  0  0  0  0  0  0  0  0  0
  153.8227  136.9875  161.2830 C   0  0  0  0  0  0  0  0  0  0  0  0
  153.1936  136.5092  160.2068 N   0  0  0  0  0  0  0  0  0  0  0  0
  152.6471  137.5196  159.4288 N   0  0  0  0  0  0  0  0  0  0  0  0
  152.8576  138.7439  159.9332 C   0  0  0  0  0  0  0  0  0  0  0  0
  152.4023  139.8618  159.3374 N   0  5  0  0  0  0  0  0  0  0  0  0
  152.9259  141.0905  159.5901 C   0  0  0  0  0  0  0  0  0  0  0  0
  153.8398  141.2825  160.3912 O   0  0  0  0  0  0  0  0  0  0  0  0
  152.4131  142.1424  158.9223 N   0  0  0  0  0  0  0  0  0  0  0  0
  152.8292  143.5368  159.0520 C   0  0  0  0  0  0  0  0  0  0  0  0
  152.4703  144.0808  160.4490 C   0  0  0  0  0  0  0  0  0  0  0  0
  151.7213  145.3950  160.2175 C   0  0  0  0  0  0  0  0  0  0  0  0
  151.0651  145.2236  158.8514 C   0  0  0  0  0  0  0  0  0  0  0  0
  152.0970  144.4408  158.0405 C   0  0  0  0  0  0  0  0  0  0  0  0
  153.7906  138.7366  161.4295 S   0  0  0  0  0  0  0  0  0  0  0  0
  153.7490  135.5761  162.8712 H   0  0  0  0  0  0  0  0  0  0  0  0
  155.1159  136.7009  162.9519 H   0  0  0  0  0  0  0  0  0  0  0  0
  155.1277  135.3788  161.7736 H   0  0  0  0  0  0  0  0  0  0  0  0
  151.6713  141.9531  158.2645 H   0  0  0  0  0  0  0  0  0  0  0  0
  153.9071  143.6101  158.8972 H   0  0  0  0  0  0  0  0  0  0  0  0
  151.8145  143.3861  160.9770 H   0  0  0  0  0  0  0  0  0  0  0  0
  153.3534  144.2230  161.0728 H   0  0  0  0  0  0  0  0  0  0  0  0
  150.9996  145.6111  161.0058 H   0  0  0  0  0  0  0  0  0  0  0  0
  152.4324  146.2213  160.1803 H   0  0  0  0  0  0  0  0  0  0  0  0
  150.1531  144.6338  158.9522 H   0  0  0  0  0  0  0  0  0  0  0  0
  150.8001  146.1746  158.3885 H   0  0  0  0  0  0  0  0  0  0  0  0
  152.8121  145.1383  157.6029 H   0  0  0  0  0  0  0  0  0  0  0  0
  151.6402  143.8928  157.2153 H   0  0  0  0  0  0  0  0  0  0  0  0
  1  2  1  0  0  0  0
  1 16  1  0  0  0  0
  1 17  1  0  0  0  0
  1 18  1  0  0  0  0
  2 15  1  0  0  0  0
  2  3  2  0  0  0  0
  3  4  1  0  0  0  0
  4  5  2  0  0  0  0
  5  6  1  0  0  0  0
  5 15  1  0  0  0  0
  6  7  1  0  0  0  0
  7  8  2  0  0  0  0
  7  9  1  0  0  0  0
  9 10  1  0  0  0  0
  9 19  1  0  0  0  0
 10 14  1  0  0  0  0
 10 11  1  0  0  0  0
 10 20  1  0  0  0  0
 11 12  1  0  0  0  0
 11 21  1  0  0  0  0
 11 22  1  0  0  0  0
 12 13  1  0  0  0  0
 12 23  1  0  0  0  0
 12 24  1  0  0  0  0
 13 14  1  0  0  0  0
 13 25  1  0  0  0  0
 13 26  1  0  0  0  0
 14 27  1  0  0  0  0
 14 28  1  0  0  0  0
M  CHG  1   6  -1
M  END
> <s_m_source_file>
AV-unprocessed.smi

> <i_m_source_file_index>
1949

> <i_lp_mmshare_version>
43012

> <i_f3d_flags>
0

> <s_epik_input>
W0NIM11jMW5uYyhzMSlbTkhdQyg9TylbTkhdW0NIXTJbQ0gyXVtDSDJdW0NIMl1bQ0gyXTI=

> <s_epik_cmdline>
J2VwaWtfcHl0aG9uJywgJy1waCcsICc3LjAnLCAnLXRuJywgJzgnLCAnLW1hJywgJzIwMCcsICctbWV0YWxfYmluZGluZycsICctaW1hZScsICc8aW5maWxlLm1hZT4nLCAnLW9tYWUnLCAnPG91dGZpbGUubWFlPic=

> <r_lp_tautomer_probability>
1

> <r_epik_Ionization_Penalty>
4.54091

> <r_epik_Ionization_Penalty_Charging>
4.38642

> <r_epik_Ionization_Penalty_Neutral>
0.154484

> <r_epik_State_Penalty>
4.38606

> <r_epik_Charging_Adjusted_Penalty>
8.77248

> <i_epik_Tot_Q>
-1

> <i_epik_Tot_abs_Q>
1

> <r_epik_Metal_State_Penalty>
0.765318

> <b_epik_Metal_Only>
1

> <s_lp_Force_Field>
OPLS_2005

> <r_lp_Energy>
17.692

> <b_lp_Chiralities_Consistent>
1

> <s_lp_Variant>
AV-unprocessed.smi:1949-2

> <Gold.Version>
5.8.1

> <Gold.Id.Protein>
6NUR|6NUR_protein|mol2

> <Gold.PLP.Fitness>
35.9584

> <Gold.PLP.PLP>
-33.2132

> <Gold.PLP.part.hbond>
-1.0000

> <Gold.PLP.part.metal>
0.0000

> <Gold.PLP.part.buried>
-5.5205

> <Gold.PLP.part.nonpolar>
-26.8801

> <Gold.PLP.part.repulsive>
0.0805

> <Gold.PLP.ligand.clash>
0.0045

> <Gold.PLP.ligand.torsion>
0.1271

> <Gold.PLP.Chemscore.Hbond>
1.0000

> <Gold.PLP.Chemscore.CHOScore>
0.0000

> <Gold.PLP.Chemscore.Metal>
0.0000

> <Gold.Chemscore.Hbonds>
donor molecule, donor type, donor heavy atom, donor atom, acceptor molecule, acceptor atom, score
      P1  H  6896  6907       L1     3  1.00

> <Gold.PLP.Chemscore.Internal.Correction>
0.0039

> <Gold.Rescore>
     Score         DG    S(hbond)    S(metal)    S(lipo)     H(rot)  DE(clash)    DE(int)     intcor
     14.57     -16.17       0.96        0.00      85.89       1.00       0.03       1.57       ----

> <Gold.Chemscore.Fitness>
14.5722

> <Gold.Chemscore.DG>
-16.1716

> <Gold.Chemscore.ZeroCoef>
-5.4800

> <Gold.Chemscore.Hbond>
0.9588

> <Gold.Chemscore.Metal>
0.0000

> <Gold.Chemscore.Lipo>
85.8895

> <Gold.Chemscore.Internal_Hbond>
0.0000

> <Gold.Chemscore.DEClash>
0.0301

> <Gold.Chemscore.DEInternal>
1.5693

> <Gold.Chemscore.Rot>
1.0000

> <Gold.Chemscore.Internal.Correction>
   9.000000E+99

> <Gold.Chemscore.Hbonds>
donor molecule, donor type, donor heavy atom, donor atom, acceptor molecule, acceptor atom, score
      P1  H  6896  6907       L1     3  0.74

> <Gold.Chemscore.Hbond.Weighted>
-3.2025

> <Gold.Chemscore.Metal.Weighted>
-0.0000

> <Gold.Chemscore.Lipo.Weighted>
-10.0491

> <Gold.Chemscore.Internal_Hbond.Weighted>
0.0000

> <Gold.Chemscore.DEClash.Weighted>
0.0301

> <Gold.Chemscore.DEInternal.Weighted>
1.5693

> <Gold.Chemscore.Rot.Weighted>
2.5600

> <Gold.Chemscore.Internal.Correction.Weighted>
   9.000000E+99

> <Gold.Protein.RotatedTorsions>
[ 6907 6896 6895 6894 ] final   37.00 input  -60.11 | X-H torsion
[ 7974 7965 7964 7962 ] final  -41.75 input  175.53 | X-H torsion
[ 8008 7997 7996 7995 ] final  -57.96 input   59.86 | X-H torsion
[ 10167 10162 10161 10158 ] final  -85.91 input  -65.29 | X-H torsion
[ 10718 10713 10712 10709 ] final  124.66 input   66.30 | X-H torsion
[ 10763 10752 10751 10750 ] final   91.82 input  -60.55 | X-H torsion
[ 11005 11000 10999 10996 ] final   40.79 input  -57.11 | X-H torsion

> <Gold.Protein.ActiveResidues>
 VAL166  LYS551  ARG553  GLY616  TRP617  ASP618  TYR619  PRO620  LYS621  CYS622 
 ASP623  PHE694  ASN695  SER759  ASP760  ASP761  ALA762  ILE779  LEU786  VAL792 
 PHE793  MET794  SER795  GLU796  ALA797  LYS798  CYS799  TRP800  GLU811  SER814 

> <Gold.Protein.RotatedAtoms>
  152.1373  134.9089  160.0555 H   0  0  0  0  0  0  0  0  0  0  0  0  # atno 6907 bound_to 6896
  152.0170  133.3879  159.4251 H   0  0  0  0  0  0  0  0  0  0  0  0  # atno 6908 bound_to 6896
  150.6862  134.3589  159.4985 H   0  0  0  0  0  0  0  0  0  0  0  0  # atno 6909 bound_to 6896
  146.0181  140.6883  142.9192 H   0  0  0  0  0  0  0  0  0  0  0  0  # atno 7974 bound_to 7965
  154.4289  140.1095  156.5881 H   0  0  0  0  0  0  0  0  0  0  0  0  # atno 8008 bound_to 7997
  155.6040  140.3493  155.4583 H   0  0  0  0  0  0  0  0  0  0  0  0  # atno 8009 bound_to 7997
  156.0151  140.1227  157.0404 H   0  0  0  0  0  0  0  0  0  0  0  0  # atno 8010 bound_to 7997
  140.3992  143.2670  151.9165 H   0  0  0  0  0  0  0  0  0  0  0  0  # atno 10167 bound_to 10162
  157.5567  131.1091  150.8609 H   0  0  0  0  0  0  0  0  0  0  0  0  # atno 10718 bound_to 10713
  153.2124  135.4384  155.0395 H   0  0  0  0  0  0  0  0  0  0  0  0  # atno 10763 bound_to 10752
  154.8207  135.3336  154.7049 H   0  0  0  0  0  0  0  0  0  0  0  0  # atno 10764 bound_to 10752
  153.7486  135.7000  153.5006 H   0  0  0  0  0  0  0  0  0  0  0  0  # atno 10765 bound_to 10752
  140.1897  134.4002  155.8153 H   0  0  0  0  0  0  0  0  0  0  0  0  # atno 11005 bound_to 11000
  144.6979  140.3517  143.7180 LP  0  0  0  0  0  0  0  0  0  0  0  0  # atno 17320 bound_to 7965
  145.7237  139.1717  143.2470 LP  0  0  0  0  0  0  0  0  0  0  0  0  # atno 17321 bound_to 7965
  139.4785  144.5651  151.8178 LP  0  0  0  0  0  0  0  0  0  0  0  0  # atno 17342 bound_to 10162
  140.4758  144.1521  150.5924 LP  0  0  0  0  0  0  0  0  0  0  0  0  # atno 17343 bound_to 10162
  156.9119  130.5283  149.5280 LP  0  0  0  0  0  0  0  0  0  0  0  0  # atno 17370 bound_to 10713
  156.0625  130.5675  150.9222 LP  0  0  0  0  0  0  0  0  0  0  0  0  # atno 17371 bound_to 10713
  141.2226  133.7040  156.8074 LP  0  0  0  0  0  0  0  0  0  0  0  0  # atno 17394 bound_to 11000
  140.2174  134.8783  157.3340 LP  0  0  0  0  0  0  0  0  0  0  0  0  # atno 17395 bound_to 11000

$$$$
