AV-unprocessed.smi:657|AV-procd|sdf|3220|dock3
  -GOLD-   22720 0153D 1   1.00000     0.00000
 Structure written by MMmdl.
 47 48  0  0  0  0  0  0  0  0  2 V2000
  145.0873  135.9779  154.7254 C   0  0  0  0  0  0  0  0  0  0  0  0
  146.2688  136.3351  153.8012 C   0  0  0  0  0  0  0  0  0  0  0  0
  145.8245  137.2406  152.6393 C   0  0  0  0  0  0  0  0  0  0  0  0
  147.0326  135.1391  153.3069 N   0  3  2  0  0  0  0  0  0  0  0  0
  146.2269  134.2657  152.4017 C   0  0  0  0  0  0  0  0  0  0  0  0
  147.0753  133.1640  151.7550 C   0  0  0  0  0  0  0  0  0  0  0  0
  147.7232  132.2977  152.8343 C   0  0  0  0  0  0  0  0  0  0  0  0
  148.5630  133.1867  153.7525 C   0  0  0  0  0  0  0  0  0  0  0  0
  147.7423  134.3474  154.3692 C   0  0  1  0  0  0  0  0  0  0  0  0
  148.7212  135.1849  155.2095 C   0  0  0  0  0  0  0  0  0  0  0  0
  148.6751  135.1474  156.4396 O   0  0  0  0  0  0  0  0  0  0  0  0
  149.5721  135.9650  154.5270 N   0  0  0  0  0  0  0  0  0  0  0  0
  150.5064  136.9153  155.1230 C   0  0  0  0  0  0  0  0  0  0  0  0
  150.8266  138.0983  154.1861 C   0  0  0  0  0  0  0  0  0  0  0  0
  150.5081  139.4353  154.8046 C   0  0  0  0  0  0  0  0  0  0  0  0
  149.4915  140.3585  154.4268 C   0  0  0  0  0  0  0  0  0  0  0  0
  149.4544  141.4285  155.2038 N   0  0  0  0  0  0  0  0  0  0  0  0
  150.4470  141.2313  156.0955 N   0  0  0  0  0  0  0  0  0  0  0  0
  150.6943  142.2237  157.1194 C   0  0  0  0  0  0  0  0  0  0  0  0
  151.1047  140.0410  155.8743 C   0  0  0  0  0  0  0  0  0  0  0  0
  144.6379  136.8821  155.1372 H   0  0  0  0  0  0  0  0  0  0  0  0
  145.4032  135.3652  155.5694 H   0  0  0  0  0  0  0  0  0  0  0  0
  144.2975  135.4447  154.1961 H   0  0  0  0  0  0  0  0  0  0  0  0
  146.9352  136.9644  154.3879 H   0  0  0  0  0  0  0  0  0  0  0  0
  145.4245  138.1820  153.0172 H   0  0  0  0  0  0  0  0  0  0  0  0
  145.0437  136.7850  152.0311 H   0  0  0  0  0  0  0  0  0  0  0  0
  146.6633  137.4832  151.9861 H   0  0  0  0  0  0  0  0  0  0  0  0
  145.4141  133.7999  152.9600 H   0  0  0  0  0  0  0  0  0  0  0  0
  145.7682  134.8539  151.6085 H   0  0  0  0  0  0  0  0  0  0  0  0
  146.4526  132.5455  151.1079 H   0  0  0  0  0  0  0  0  0  0  0  0
  147.8421  133.6080  151.1189 H   0  0  0  0  0  0  0  0  0  0  0  0
  146.9571  131.7791  153.4123 H   0  0  0  0  0  0  0  0  0  0  0  0
  148.3484  131.5295  152.3782 H   0  0  0  0  0  0  0  0  0  0  0  0
  148.9988  132.5722  154.5419 H   0  0  0  0  0  0  0  0  0  0  0  0
  149.4028  133.5852  153.1797 H   0  0  0  0  0  0  0  0  0  0  0  0
  146.9876  133.9207  155.0317 H   0  0  0  0  0  0  0  0  0  0  0  0
  149.5357  135.9395  153.5180 H   0  0  0  0  0  0  0  0  0  0  0  0
  150.1328  137.2736  156.0834 H   0  0  0  0  0  0  0  0  0  0  0  0
  151.4247  136.3673  155.3353 H   0  0  0  0  0  0  0  0  0  0  0  0
  151.8818  138.0538  153.9141 H   0  0  0  0  0  0  0  0  0  0  0  0
  150.2829  137.9674  153.2503 H   0  0  0  0  0  0  0  0  0  0  0  0
  148.7741  140.2752  153.6238 H   0  0  0  0  0  0  0  0  0  0  0  0
  151.4447  141.8579  157.8206 H   0  0  0  0  0  0  0  0  0  0  0  0
  149.7731  142.4322  157.6642 H   0  0  0  0  0  0  0  0  0  0  0  0
  151.0559  143.1439  156.6599 H   0  0  0  0  0  0  0  0  0  0  0  0
  151.9257  139.7187  156.4977 H   0  0  0  0  0  0  0  0  0  0  0  0
  147.7737  135.5198  152.7357 H   0  0  0  0  0  0  0  0  0  0  0  0
  1  2  1  0  0  0  0
  1 21  1  0  0  0  0
  1 22  1  0  0  0  0
  1 23  1  0  0  0  0
  2  3  1  0  0  0  0
  2  4  1  0  0  0  0
  2 24  1  0  0  0  0
  3 25  1  0  0  0  0
  3 26  1  0  0  0  0
  3 27  1  0  0  0  0
  4  9  1  0  0  0  0
  4  5  1  0  0  0  0
  4 47  1  0  0  0  0
  5  6  1  0  0  0  0
  5 28  1  0  0  0  0
  5 29  1  0  0  0  0
  6  7  1  0  0  0  0
  6 30  1  0  0  0  0
  6 31  1  0  0  0  0
  7  8  1  0  0  0  0
  7 32  1  0  0  0  0
  7 33  1  0  0  0  0
  8  9  1  0  0  0  0
  8 34  1  0  0  0  0
  8 35  1  0  0  0  0
  9 10  1  0  0  0  0
  9 36  1  0  0  0  0
 10 11  2  0  0  0  0
 10 12  1  0  0  0  0
 12 13  1  0  0  0  0
 12 37  1  0  0  0  0
 13 14  1  0  0  0  0
 13 38  1  0  0  0  0
 13 39  1  0  0  0  0
 14 15  1  0  0  0  0
 14 40  1  0  0  0  0
 14 41  1  0  0  0  0
 15 20  2  0  0  0  0
 15 16  1  0  0  0  0
 16 17  2  0  0  0  0
 16 42  1  0  0  0  0
 17 18  1  0  0  0  0
 18 19  1  0  0  0  0
 18 20  1  0  0  0  0
 19 43  1  0  0  0  0
 19 44  1  0  0  0  0
 19 45  1  0  0  0  0
 20 46  1  0  0  0  0
M  CHG  1   4   1
M  END
> <s_m_source_file>
AV-unprocessed.smi

> <i_m_source_file_index>
657

> <i_lp_mmshare_version>
43012

> <i_f3d_flags>
0

> <s_epik_input>
W0NIM11bQ0hdKFtDSDNdKU4xW0NIMl1bQ0gyXVtDSDJdW0NIMl1bQ0BIXTFDKD1PKVtOSF1bQ0gyXVtDSDJdYzJbY0hdbm4oW0NIM10pW2NIXTI=

> <s_epik_cmdline>
J2VwaWtfcHl0aG9uJywgJy1waCcsICc3LjAnLCAnLXRuJywgJzgnLCAnLW1hJywgJzIwMCcsICctbWV0YWxfYmluZGluZycsICctaW1hZScsICc8aW5maWxlLm1hZT4nLCAnLW9tYWUnLCAnPG91dGZpbGUubWFlPic=

> <r_lp_tautomer_probability>
1

> <r_epik_Ionization_Penalty>
0.0244317

> <r_epik_Ionization_Penalty_Charging>
0.0240236

> <r_epik_Ionization_Penalty_Neutral>
0.00040815

> <r_epik_State_Penalty>
0.0194773

> <r_epik_Charging_Adjusted_Penalty>
0.0435009

> <i_epik_Tot_Q>
1

> <i_epik_Tot_abs_Q>
1

> <r_epik_Metal_State_Penalty>
0.0361957

> <b_epik_Metal_Only>
0

> <s_lp_Force_Field>
OPLS_2005

> <r_lp_Energy>
17.8505

> <b_lp_Chiralities_Consistent>
1

> <s_lp_Variant>
AV-unprocessed.smi:657-1

> <Gold.Version>
5.8.1

> <Gold.Id.Protein>
6NUR|6NUR_protein|mol2

> <Gold.PLP.Fitness>
43.5707

> <Gold.PLP.PLP>
-33.7908

> <Gold.PLP.part.hbond>
-2.2055

> <Gold.PLP.part.metal>
0.0000

> <Gold.PLP.part.buried>
-0.7031

> <Gold.PLP.part.nonpolar>
-30.6412

> <Gold.PLP.part.repulsive>
0.1787

> <Gold.PLP.ligand.clash>
0.0000

> <Gold.PLP.ligand.torsion>
0.9168

> <Gold.PLP.Chemscore.Hbond>
3.0000

> <Gold.PLP.Chemscore.CHOScore>
0.8232

> <Gold.PLP.Chemscore.Metal>
0.0000

> <Gold.Chemscore.Hbonds>
donor molecule, donor type, donor heavy atom, donor atom, acceptor molecule, acceptor atom, score
      L1  H     4    47       P1  7948  2.00
      L1  H    12    37       P1  7948  1.00
      L1  C    16    42       P1  7957  0.64

> <Gold.PLP.Chemscore.Internal.Correction>
0.1439

> <Gold.Rescore>
     Score         DG    S(hbond)    S(metal)    S(lipo)     H(rot)  DE(clash)    DE(int)     intcor
     14.60     -15.92       1.88        0.00      71.31       1.63       0.04       1.29       ----

> <Gold.Chemscore.Fitness>
14.5991

> <Gold.Chemscore.DG>
-15.9244

> <Gold.Chemscore.ZeroCoef>
-5.4800

> <Gold.Chemscore.Hbond>
1.8767

> <Gold.Chemscore.Metal>
0.0000

> <Gold.Chemscore.Lipo>
71.3123

> <Gold.Chemscore.Internal_Hbond>
0.0000

> <Gold.Chemscore.DEClash>
0.0391

> <Gold.Chemscore.DEInternal>
1.2861

> <Gold.Chemscore.Rot>
1.6279

> <Gold.Chemscore.Internal.Correction>
   9.000000E+99

> <Gold.Chemscore.Hbonds>
donor molecule, donor type, donor heavy atom, donor atom, acceptor molecule, acceptor atom, score
      L1  H     4    47       P1  7948  0.99
      L1  H    12    37       P1  7948  0.35

> <Gold.Chemscore.Hbond.Weighted>
-6.2682

> <Gold.Chemscore.Metal.Weighted>
-0.0000

> <Gold.Chemscore.Lipo.Weighted>
-8.3435

> <Gold.Chemscore.Internal_Hbond.Weighted>
0.0000

> <Gold.Chemscore.DEClash.Weighted>
0.0391

> <Gold.Chemscore.DEInternal.Weighted>
1.2861

> <Gold.Chemscore.Rot.Weighted>
4.1673

> <Gold.Chemscore.Internal.Correction.Weighted>
   9.000000E+99

> <Gold.Protein.RotatedTorsions>
[ 6907 6896 6895 6894 ] final   13.28 input  -60.11 | X-H torsion
[ 7974 7965 7964 7962 ] final   90.28 input  175.53 | X-H torsion
[ 8008 7997 7996 7995 ] final  -55.29 input   59.86 | X-H torsion
[ 10167 10162 10161 10158 ] final   83.26 input  -65.29 | X-H torsion
[ 10718 10713 10712 10709 ] final  -46.35 input   66.30 | X-H torsion
[ 10763 10752 10751 10750 ] final  145.86 input  -60.55 | X-H torsion
[ 11005 11000 10999 10996 ] final  163.10 input  -57.11 | X-H torsion

> <Gold.Protein.ActiveResidues>
 VAL166  LYS551  ARG553  GLY616  TRP617  ASP618  TYR619  PRO620  LYS621  CYS622 
 ASP623  PHE694  ASN695  SER759  ASP760  ASP761  ALA762  ILE779  LEU786  VAL792 
 PHE793  MET794  SER795  GLU796  ALA797  LYS798  CYS799  TRP800  GLU811  SER814 

> <Gold.Protein.RotatedAtoms>
  151.7838  135.0754  160.0377 H   0  0  0  0  0  0  0  0  0  0  0  0  # atno 6907 bound_to 6896
  152.3204  133.5843  159.5749 H   0  0  0  0  0  0  0  0  0  0  0  0  # atno 6908 bound_to 6896
  150.7367  133.9935  159.3657 H   0  0  0  0  0  0  0  0  0  0  0  0  # atno 6909 bound_to 6896
  145.5211  139.2279  143.2671 H   0  0  0  0  0  0  0  0  0  0  0  0  # atno 7974 bound_to 7965
  154.4190  140.1156  156.5453 H   0  0  0  0  0  0  0  0  0  0  0  0  # atno 8008 bound_to 7997
  155.6466  140.3496  155.4714 H   0  0  0  0  0  0  0  0  0  0  0  0  # atno 8009 bound_to 7997
  155.9827  140.1163  157.0701 H   0  0  0  0  0  0  0  0  0  0  0  0  # atno 8010 bound_to 7997
  139.9202  144.6217  150.8447 H   0  0  0  0  0  0  0  0  0  0  0  0  # atno 10167 bound_to 10162
  156.2191  130.4165  149.9015 H   0  0  0  0  0  0  0  0  0  0  0  0  # atno 10718 bound_to 10713
  154.0123  135.2913  155.3391 H   0  0  0  0  0  0  0  0  0  0  0  0  # atno 10763 bound_to 10752
  154.7096  135.5155  153.8649 H   0  0  0  0  0  0  0  0  0  0  0  0  # atno 10764 bound_to 10752
  153.0717  135.6650  154.0354 H   0  0  0  0  0  0  0  0  0  0  0  0  # atno 10765 bound_to 10752
  140.2324  134.8114  157.3330 H   0  0  0  0  0  0  0  0  0  0  0  0  # atno 11005 bound_to 11000
  146.2105  140.6023  142.9061 LP  0  0  0  0  0  0  0  0  0  0  0  0  # atno 17320 bound_to 7965
  144.7675  140.5564  143.6693 LP  0  0  0  0  0  0  0  0  0  0  0  0  # atno 17321 bound_to 7965
  140.7664  143.3302  151.2427 LP  0  0  0  0  0  0  0  0  0  0  0  0  # atno 17342 bound_to 10162
  139.6868  143.9761  152.2838 LP  0  0  0  0  0  0  0  0  0  0  0  0  # atno 17343 bound_to 10162
  156.6668  130.8804  151.3556 LP  0  0  0  0  0  0  0  0  0  0  0  0  # atno 17370 bound_to 10713
  157.7078  130.9405  150.0989 LP  0  0  0  0  0  0  0  0  0  0  0  0  # atno 17371 bound_to 10713
  140.1737  134.4576  155.7815 LP  0  0  0  0  0  0  0  0  0  0  0  0  # atno 17394 bound_to 11000
  141.2217  133.6953  156.7751 LP  0  0  0  0  0  0  0  0  0  0  0  0  # atno 17395 bound_to 11000

$$$$
