AV-unprocessed.smi:2706|AV-procd|sdf|10451|dock3
  -GOLD-   2272014493D 1   1.00000     0.00000
 Structure written by MMmdl.
 44 47  0  0  0  0  0  0  0  0  2 V2000
  150.7899  137.8100  154.9066 C   0  0  0  0  0  0  0  0  0  0  0  0
  150.6036  139.1955  154.5046 N   0  0  0  0  0  0  0  0  0  0  0  0
  151.1738  140.1979  155.3917 C   0  0  0  0  0  0  0  0  0  0  0  0
  149.2806  139.4783  154.1458 C   0  0  0  0  0  0  0  0  0  0  0  0
  148.5966  140.6418  154.5614 C   0  0  0  0  0  0  0  0  0  0  0  0
  147.2667  140.8405  154.1424 C   0  0  0  0  0  0  0  0  0  0  0  0
  146.6460  139.8739  153.3250 C   0  0  0  0  0  0  0  0  0  0  0  0
  147.3654  138.7126  152.9448 C   0  0  0  0  0  0  0  0  0  0  0  0
  146.8483  137.6809  152.1155 N   0  0  0  0  0  0  0  0  0  0  0  0
  145.6018  137.1770  152.0844 C   0  0  0  0  0  0  0  0  0  0  0  0
  144.6699  137.5407  152.8013 O   0  0  0  0  0  0  0  0  0  0  0  0
  145.4987  136.2005  151.1728 N   0  0  0  0  0  0  0  0  0  0  0  0
  144.3197  135.4499  150.8830 C   0  0  2  0  0  0  0  0  0  0  0  0
  143.9542  134.2116  151.6815 C   0  0  2  0  0  0  0  0  0  0  0  0
  144.8310  133.1775  152.3968 C   0  0  2  0  0  0  0  0  0  0  0  0
  146.3153  133.5868  152.4745 C   0  0  0  0  0  0  0  0  0  0  0  0
  146.7706  133.4579  151.0046 C   0  0  0  0  0  0  0  0  0  0  0  0
  145.4797  132.9963  150.2979 C   0  0  1  0  0  0  0  0  0  0  0  0
  144.9038  132.0641  151.3576 C   0  0  0  0  0  0  0  0  0  0  0  0
  144.4017  134.0841  150.2271 C   0  0  2  0  0  0  0  0  0  0  0  0
  148.6448  138.5785  153.3640 N   0  3  0  0  0  0  0  0  0  0  0  0
  150.3272  137.1304  154.1897 H   0  0  0  0  0  0  0  0  0  0  0  0
  150.3533  137.6254  155.8890 H   0  0  0  0  0  0  0  0  0  0  0  0
  151.8528  137.5727  154.9557 H   0  0  0  0  0  0  0  0  0  0  0  0
  150.9987  141.2031  155.0059 H   0  0  0  0  0  0  0  0  0  0  0  0
  152.2511  140.0546  155.4773 H   0  0  0  0  0  0  0  0  0  0  0  0
  150.7410  140.1304  156.3905 H   0  0  0  0  0  0  0  0  0  0  0  0
  149.0834  141.3748  155.1882 H   0  0  0  0  0  0  0  0  0  0  0  0
  146.7285  141.7281  154.4410 H   0  0  0  0  0  0  0  0  0  0  0  0
  145.6328  140.0505  152.9980 H   0  0  0  0  0  0  0  0  0  0  0  0
  147.5223  137.2289  151.5153 H   0  0  0  0  0  0  0  0  0  0  0  0
  146.3186  135.9652  150.6326 H   0  0  0  0  0  0  0  0  0  0  0  0
  143.4641  136.0437  150.5643 H   0  0  0  0  0  0  0  0  0  0  0  0
  142.8902  134.0693  151.8626 H   0  0  0  0  0  0  0  0  0  0  0  0
  144.4056  132.8748  153.3539 H   0  0  0  0  0  0  0  0  0  0  0  0
  146.4644  134.5772  152.9026 H   0  0  0  0  0  0  0  0  0  0  0  0
  146.8690  132.8853  153.1001 H   0  0  0  0  0  0  0  0  0  0  0  0
  147.1871  134.3721  150.5844 H   0  0  0  0  0  0  0  0  0  0  0  0
  147.5420  132.6914  150.9193 H   0  0  0  0  0  0  0  0  0  0  0  0
  145.6503  132.5282  149.3281 H   0  0  0  0  0  0  0  0  0  0  0  0
  145.5689  131.2434  151.6336 H   0  0  0  0  0  0  0  0  0  0  0  0
  143.9266  131.6575  151.0903 H   0  0  0  0  0  0  0  0  0  0  0  0
  143.6138  133.8606  149.5098 H   0  0  0  0  0  0  0  0  0  0  0  0
  149.1642  137.7475  153.0807 H   0  0  0  0  0  0  0  0  0  0  0  0
  1  2  1  0  0  0  0
  1 22  1  0  0  0  0
  1 23  1  0  0  0  0
  1 24  1  0  0  0  0
  2  3  1  0  0  0  0
  2  4  1  0  0  0  0
  3 25  1  0  0  0  0
  3 26  1  0  0  0  0
  3 27  1  0  0  0  0
  4 21  1  0  0  0  0
  4  5  2  0  0  0  0
  5  6  1  0  0  0  0
  5 28  1  0  0  0  0
  6  7  2  0  0  0  0
  6 29  1  0  0  0  0
  7  8  1  0  0  0  0
  7 30  1  0  0  0  0
  8  9  1  0  0  0  0
  8 21  2  0  0  0  0
  9 10  1  0  0  0  0
  9 31  1  0  0  0  0
 10 11  2  0  0  0  0
 10 12  1  0  0  0  0
 12 13  1  0  0  0  0
 12 32  1  0  0  0  0
 13 20  1  0  0  0  0
 13 14  1  0  0  0  0
 13 33  1  0  0  0  0
 14 20  1  0  0  0  0
 14 15  1  0  0  0  0
 14 34  1  0  0  0  0
 15 19  1  0  0  0  0
 15 16  1  0  0  0  0
 15 35  1  0  0  0  0
 16 17  1  0  0  0  0
 16 36  1  0  0  0  0
 16 37  1  0  0  0  0
 17 18  1  0  0  0  0
 17 38  1  0  0  0  0
 17 39  1  0  0  0  0
 18 19  1  0  0  0  0
 18 20  1  0  0  0  0
 18 40  1  0  0  0  0
 19 41  1  0  0  0  0
 19 42  1  0  0  0  0
 20 43  1  0  0  0  0
 21 44  1  0  0  0  0
M  CHG  1  21   1
M  END
> <s_m_source_file>
AV-unprocessed.smi

> <i_m_source_file_index>
2706

> <i_lp_mmshare_version>
43012

> <i_f3d_flags>
0

> <s_epik_input>
W0NIM11OKFtDSDNdKWMxW2NIXVtjSF1bY0hdYyhuMSlbTkhdQyg9TylbTkhdW0NASF0yW0NAQEhdM1tDQEBIXShbQ0gyXTQpW0NIMl1bQ0gyXVtDQEBIXTRbQ0BIXTIz

> <s_epik_cmdline>
J2VwaWtfcHl0aG9uJywgJy1waCcsICc3LjAnLCAnLXRuJywgJzgnLCAnLW1hJywgJzIwMCcsICctbWV0YWxfYmluZGluZycsICctaW1hZScsICc8aW5maWxlLm1hZT4nLCAnLW9tYWUnLCAnPG91dGZpbGUubWFlPic=

> <r_lp_tautomer_probability>
0.999994

> <r_epik_Ionization_Penalty>
1.8105

> <r_epik_Ionization_Penalty_Charging>
1.79227

> <r_epik_Ionization_Penalty_Neutral>
0.0182286

> <r_epik_State_Penalty>
1.90588

> <r_epik_Charging_Adjusted_Penalty>
3.69815

> <i_epik_Tot_Q>
1

> <i_epik_Tot_abs_Q>
1

> <r_epik_Metal_State_Penalty>
1.93501

> <b_epik_Metal_Only>
0

> <s_lp_Force_Field>
OPLS_2005

> <r_lp_Energy>
97.8144

> <b_lp_Chiralities_Consistent>
1

> <s_lp_Variant>
AV-unprocessed.smi:2706-8

> <Gold.Version>
5.8.1

> <Gold.Id.Protein>
6NUR|6NUR_protein|mol2

> <Gold.PLP.Fitness>
41.6992

> <Gold.PLP.PLP>
-36.4882

> <Gold.PLP.part.hbond>
-4.1460

> <Gold.PLP.part.metal>
0.0000

> <Gold.PLP.part.buried>
-0.0656

> <Gold.PLP.part.nonpolar>
-32.2654

> <Gold.PLP.part.repulsive>
0.6477

> <Gold.PLP.ligand.clash>
0.2247

> <Gold.PLP.ligand.torsion>
0.8199

> <Gold.PLP.Chemscore.Hbond>
2.2720

> <Gold.PLP.Chemscore.CHOScore>
0.0000

> <Gold.PLP.Chemscore.Metal>
0.0000

> <Gold.Chemscore.Hbonds>
donor molecule, donor type, donor heavy atom, donor atom, acceptor molecule, acceptor atom, score
      L1  H     9    31       P1  7948  0.69
      L1  H    21    44       P1  7948  1.57

> <Gold.PLP.Chemscore.Internal.Correction>
0.2596

> <Gold.Rescore>
     Score         DG    S(hbond)    S(metal)    S(lipo)     H(rot)  DE(clash)    DE(int)     intcor
     16.06     -16.80       1.55        0.00      79.07       1.21       0.01       0.74       ----

> <Gold.Chemscore.Fitness>
16.0553

> <Gold.Chemscore.DG>
-16.8000

> <Gold.Chemscore.ZeroCoef>
-5.4800

> <Gold.Chemscore.Hbond>
1.5462

> <Gold.Chemscore.Metal>
0.0000

> <Gold.Chemscore.Lipo>
79.0720

> <Gold.Chemscore.Internal_Hbond>
0.0000

> <Gold.Chemscore.DEClash>
0.0084

> <Gold.Chemscore.DEInternal>
0.7364

> <Gold.Chemscore.Rot>
1.2092

> <Gold.Chemscore.Internal.Correction>
   9.000000E+99

> <Gold.Chemscore.Hbonds>
donor molecule, donor type, donor heavy atom, donor atom, acceptor molecule, acceptor atom, score
      L1  H     9    31       P1  7948  0.68
      L1  H    21    44       P1  7948  0.77

> <Gold.Chemscore.Hbond.Weighted>
-5.1642

> <Gold.Chemscore.Metal.Weighted>
-0.0000

> <Gold.Chemscore.Lipo.Weighted>
-9.2514

> <Gold.Chemscore.Internal_Hbond.Weighted>
0.0000

> <Gold.Chemscore.DEClash.Weighted>
0.0084

> <Gold.Chemscore.DEInternal.Weighted>
0.7364

> <Gold.Chemscore.Rot.Weighted>
3.0956

> <Gold.Chemscore.Internal.Correction.Weighted>
   9.000000E+99

> <Gold.Protein.RotatedTorsions>
[ 6907 6896 6895 6894 ] final   60.05 input  -60.11 | X-H torsion
[ 7974 7965 7964 7962 ] final  -27.18 input  175.53 | X-H torsion
[ 8008 7997 7996 7995 ] final   22.22 input   59.86 | X-H torsion
[ 10167 10162 10161 10158 ] final   -2.92 input  -65.29 | X-H torsion
[ 10718 10713 10712 10709 ] final   -0.93 input   66.30 | X-H torsion
[ 10763 10752 10751 10750 ] final -126.05 input  -60.55 | X-H torsion
[ 11005 11000 10999 10996 ] final   62.42 input  -57.11 | X-H torsion

> <Gold.Protein.ActiveResidues>
 VAL166  LYS551  ARG553  GLY616  TRP617  ASP618  TYR619  PRO620  LYS621  CYS622 
 ASP623  PHE694  ASN695  SER759  ASP760  ASP761  ALA762  ILE779  LEU786  VAL792 
 PHE793  MET794  SER795  GLU796  ALA797  LYS798  CYS799  TRP800  GLU811  SER814 

> <Gold.Protein.RotatedAtoms>
  152.3969  134.6351  160.0085 H   0  0  0  0  0  0  0  0  0  0  0  0  # atno 6907 bound_to 6896
  151.6568  133.3313  159.3172 H   0  0  0  0  0  0  0  0  0  0  0  0  # atno 6908 bound_to 6896
  150.7875  134.6915  159.6544 H   0  0  0  0  0  0  0  0  0  0  0  0  # atno 6909 bound_to 6896
  146.1375  140.5118  142.8666 H   0  0  0  0  0  0  0  0  0  0  0  0  # atno 7974 bound_to 7965
  154.9624  140.3079  155.5025 H   0  0  0  0  0  0  0  0  0  0  0  0  # atno 8008 bound_to 7997
  156.2975  140.2299  156.4649 H   0  0  0  0  0  0  0  0  0  0  0  0  # atno 8009 bound_to 7997
  154.7953  140.0437  157.1220 H   0  0  0  0  0  0  0  0  0  0  0  0  # atno 8010 bound_to 7997
  140.6870  143.6601  150.8274 H   0  0  0  0  0  0  0  0  0  0  0  0  # atno 10167 bound_to 10162
  156.8131  130.5431  149.5706 H   0  0  0  0  0  0  0  0  0  0  0  0  # atno 10718 bound_to 10713
  154.8742  135.4008  154.3368 H   0  0  0  0  0  0  0  0  0  0  0  0  # atno 10763 bound_to 10752
  153.4174  135.7022  153.6323 H   0  0  0  0  0  0  0  0  0  0  0  0  # atno 10764 bound_to 10752
  153.5000  135.3730  155.2505 H   0  0  0  0  0  0  0  0  0  0  0  0  # atno 10765 bound_to 10752
  140.0094  134.6320  155.9805 H   0  0  0  0  0  0  0  0  0  0  0  0  # atno 11005 bound_to 11000
  144.7756  140.5732  143.6640 LP  0  0  0  0  0  0  0  0  0  0  0  0  # atno 17320 bound_to 7965
  145.5122  139.1479  143.3598 LP  0  0  0  0  0  0  0  0  0  0  0  0  # atno 17321 bound_to 7965
  140.0309  143.5444  152.2760 LP  0  0  0  0  0  0  0  0  0  0  0  0  # atno 17342 bound_to 10162
  139.6237  144.7633  151.2685 LP  0  0  0  0  0  0  0  0  0  0  0  0  # atno 17343 bound_to 10162
  156.1032  130.5985  150.9929 LP  0  0  0  0  0  0  0  0  0  0  0  0  # atno 17370 bound_to 10713
  157.6495  131.0899  150.8081 LP  0  0  0  0  0  0  0  0  0  0  0  0  # atno 17371 bound_to 10713
  141.1700  133.6537  156.4616 LP  0  0  0  0  0  0  0  0  0  0  0  0  # atno 17394 bound_to 11000
  140.4583  134.6865  157.5073 LP  0  0  0  0  0  0  0  0  0  0  0  0  # atno 17395 bound_to 11000

$$$$
