AV-unprocessed.smi:240|AV-procd|sdf|1828|dock6
  -GOLD-   2262020433D 1   1.00000     0.00000
 Structure written by MMmdl.
 55 59  0  0  0  0  0  0  0  0  1 V2000
  147.8835  142.4423  157.6176 O   0  0  0  0  0  0  0  0  0  0  0  0
  146.9499  142.0585  156.6296 C   0  0  2  0  0  0  0  0  0  0  0  0
  145.5207  142.3054  157.1091 C   0  0  0  0  0  0  0  0  0  0  0  0
  144.6779  141.4102  156.2040 C   0  0  0  0  0  0  0  0  0  0  0  0
  145.5452  140.1743  155.9282 C   0  0  0  0  0  0  0  0  0  0  0  0
  146.9905  140.5461  156.3258 C   0  0  1  0  0  0  0  0  0  0  0  0
  148.0822  140.0563  155.3204 C   0  0  1  0  0  0  0  0  0  0  0  0
  149.3831  140.9005  155.3734 C   0  0  0  0  0  0  0  0  0  0  0  0
  150.3189  140.4243  154.4150 O   0  0  0  0  0  0  0  0  0  0  0  0
  150.7148  139.0888  154.6944 C   0  0  0  0  0  0  0  0  0  0  0  0
  149.4868  138.1756  154.5904 C   0  0  0  0  0  0  0  0  0  0  0  0
  148.4219  138.6327  155.4787 N   0  0  0  0  0  0  0  0  0  0  0  0
  147.4044  137.7390  155.4580 C   0  0  0  0  0  0  0  0  0  0  0  0
  147.0990  137.0182  156.5700 N   0  0  0  0  0  0  0  0  0  0  0  0
  146.0923  136.1398  156.5411 C   0  0  0  0  0  0  0  0  0  0  0  0
  145.2765  135.8379  155.5283 N   0  0  0  0  0  0  0  0  0  0  0  0
  145.5700  136.5740  154.4178 C   0  0  0  0  0  0  0  0  0  0  0  0
  146.6057  137.5419  154.3009 C   0  0  0  0  0  0  0  0  0  0  0  0
  146.6063  138.0896  153.0249 N   0  0  0  0  0  0  0  0  0  0  0  0
  145.6307  137.4720  152.4165 C   0  0  0  0  0  0  0  0  0  0  0  0
  144.9500  136.5496  153.1803 N   0  0  0  0  0  0  0  0  0  0  0  0
  143.8324  135.7197  152.7563 C   0  0  0  0  0  0  0  0  0  0  0  0
  144.2259  134.2538  152.4592 C   0  0  1  0  0  0  0  0  0  0  0  0
  144.6561  133.6422  153.6634 O   0  0  0  0  0  0  0  0  0  0  0  0
  143.0751  133.4336  151.8908 C   0  0  0  0  0  0  0  0  0  0  0  0
  143.7935  132.3841  151.0536 C   0  0  0  0  0  0  0  0  0  0  0  0
  144.8512  133.1189  150.4613 O   0  0  0  0  0  0  0  0  0  0  0  0
  145.3327  134.0783  151.3984 C   0  0  0  0  0  0  0  0  0  0  0  0
  148.2433  143.2834  157.3811 H   0  0  0  0  0  0  0  0  0  0  0  0
  147.1201  142.6529  155.7338 H   0  0  0  0  0  0  0  0  0  0  0  0
  145.4065  141.9839  158.1456 H   0  0  0  0  0  0  0  0  0  0  0  0
  145.2312  143.3550  157.0506 H   0  0  0  0  0  0  0  0  0  0  0  0
  143.7159  141.1553  156.6496 H   0  0  0  0  0  0  0  0  0  0  0  0
  144.4787  141.9299  155.2658 H   0  0  0  0  0  0  0  0  0  0  0  0
  145.2044  139.3308  156.5299 H   0  0  0  0  0  0  0  0  0  0  0  0
  145.4485  139.8672  154.8881 H   0  0  0  0  0  0  0  0  0  0  0  0
  147.1420  140.0426  157.2809 H   0  0  0  0  0  0  0  0  0  0  0  0
  147.6723  140.1728  154.3160 H   0  0  0  0  0  0  0  0  0  0  0  0
  149.1849  141.9474  155.1505 H   0  0  0  0  0  0  0  0  0  0  0  0
  149.8498  140.8733  156.3576 H   0  0  0  0  0  0  0  0  0  0  0  0
  151.4721  138.7832  153.9726 H   0  0  0  0  0  0  0  0  0  0  0  0
  151.1707  139.0239  155.6839 H   0  0  0  0  0  0  0  0  0  0  0  0
  149.1222  138.1645  153.5619 H   0  0  0  0  0  0  0  0  0  0  0  0
  149.7726  137.1527  154.8410 H   0  0  0  0  0  0  0  0  0  0  0  0
  145.9162  135.6013  157.4605 H   0  0  0  0  0  0  0  0  0  0  0  0
  145.3775  137.6756  151.3860 H   0  0  0  0  0  0  0  0  0  0  0  0
  143.0665  135.7555  153.5322 H   0  0  0  0  0  0  0  0  0  0  0  0
  143.3885  136.1747  151.8700 H   0  0  0  0  0  0  0  0  0  0  0  0
  144.0247  132.9820  153.9052 H   0  0  0  0  0  0  0  0  0  0  0  0
  142.4222  133.0036  152.6517 H   0  0  0  0  0  0  0  0  0  0  0  0
  142.4588  134.0494  151.2343 H   0  0  0  0  0  0  0  0  0  0  0  0
  144.2033  131.5932  151.6833 H   0  0  0  0  0  0  0  0  0  0  0  0
  143.1491  131.9285  150.3017 H   0  0  0  0  0  0  0  0  0  0  0  0
  145.5362  135.0008  150.8559 H   0  0  0  0  0  0  0  0  0  0  0  0
  146.2749  133.7413  151.8336 H   0  0  0  0  0  0  0  0  0  0  0  0
  1  2  1  0  0  0  0
  1 29  1  0  0  0  0
  2  6  1  0  0  0  0
  2  3  1  0  0  0  0
  2 30  1  0  0  0  0
  3  4  1  0  0  0  0
  3 31  1  0  0  0  0
  3 32  1  0  0  0  0
  4  5  1  0  0  0  0
  4 33  1  0  0  0  0
  4 34  1  0  0  0  0
  5  6  1  0  0  0  0
  5 35  1  0  0  0  0
  5 36  1  0  0  0  0
  6  7  1  0  0  0  0
  6 37  1  0  0  0  0
  7 12  1  0  0  0  0
  7  8  1  0  0  0  0
  7 38  1  0  0  0  0
  8  9  1  0  0  0  0
  8 39  1  0  0  0  0
  8 40  1  0  0  0  0
  9 10  1  0  0  0  0
 10 11  1  0  0  0  0
 10 41  1  0  0  0  0
 10 42  1  0  0  0  0
 11 12  1  0  0  0  0
 11 43  1  0  0  0  0
 11 44  1  0  0  0  0
 12 13  1  0  0  0  0
 13 18  1  0  0  0  0
 13 14  2  0  0  0  0
 14 15  1  0  0  0  0
 15 16  2  0  0  0  0
 15 45  1  0  0  0  0
 16 17  1  0  0  0  0
 17 21  1  0  0  0  0
 17 18  2  0  0  0  0
 18 19  1  0  0  0  0
 19 20  2  0  0  0  0
 20 21  1  0  0  0  0
 20 46  1  0  0  0  0
 21 22  1  0  0  0  0
 22 23  1  0  0  0  0
 22 47  1  0  0  0  0
 22 48  1  0  0  0  0
 23 28  1  0  0  0  0
 23 24  1  0  0  0  0
 23 25  1  0  0  0  0
 24 49  1  0  0  0  0
 25 26  1  0  0  0  0
 25 50  1  0  0  0  0
 25 51  1  0  0  0  0
 26 27  1  0  0  0  0
 26 52  1  0  0  0  0
 26 53  1  0  0  0  0
 27 28  1  0  0  0  0
 28 54  1  0  0  0  0
 28 55  1  0  0  0  0
M  END
> <s_m_source_file>
AV-unprocessed.smi

> <i_m_source_file_index>
240

> <i_lp_mmshare_version>
43012

> <i_f3d_flags>
0

> <s_epik_input>
W09IXVtDQEBIXTFbQ0gyXVtDSDJdW0NIMl1bQ0BIXTFbQ0BASF0yW0NIMl1PW0NIMl1bQ0gyXU4yYyhuW2NIXW4zKWMoYzM0KW5bY0hdbjRbQ0gyXVtDQEBdNShbT0hdKVtDSDJdW0NIMl1PW0NIMl01

> <s_epik_cmdline>
J2VwaWtfcHl0aG9uJywgJy1waCcsICc3LjAnLCAnLXRuJywgJzgnLCAnLW1hJywgJzIwMCcsICctbWV0YWxfYmluZGluZycsICctaW1hZScsICc8aW5maWxlLm1hZT4nLCAnLW9tYWUnLCAnPG91dGZpbGUubWFlPic=

> <r_lp_tautomer_probability>
1

> <r_epik_Ionization_Penalty>
0.000130618

> <r_epik_Ionization_Penalty_Charging>
0

> <r_epik_Ionization_Penalty_Neutral>
0.000130618

> <r_epik_State_Penalty>
-0

> <r_epik_Charging_Adjusted_Penalty>
0

> <i_epik_Tot_Q>
0

> <i_epik_Tot_abs_Q>
0

> <r_epik_Metal_State_Penalty>
-0

> <b_epik_Metal_Only>
0

> <s_lp_Force_Field>
OPLS_2005

> <r_lp_Energy>
59.9569

> <b_lp_Chiralities_Consistent>
1

> <s_lp_Variant>
AV-unprocessed.smi:240-5

> <Gold.Version>
5.8.1

> <Gold.Id.Protein>
6NUR|6NUR_protein|mol2

> <Gold.PLP.Fitness>
37.2843

> <Gold.PLP.PLP>
-26.7313

> <Gold.PLP.part.hbond>
-2.9146

> <Gold.PLP.part.metal>
0.0000

> <Gold.PLP.part.buried>
-3.3529

> <Gold.PLP.part.nonpolar>
-22.3949

> <Gold.PLP.part.repulsive>
1.4169

> <Gold.PLP.ligand.clash>
0.0000

> <Gold.PLP.ligand.torsion>
0.8247

> <Gold.PLP.Chemscore.Hbond>
3.0000

> <Gold.PLP.Chemscore.CHOScore>
1.0000

> <Gold.PLP.Chemscore.Metal>
0.0000

> <Gold.Chemscore.Hbonds>
donor molecule, donor type, donor heavy atom, donor atom, acceptor molecule, acceptor atom, score
      L1  H     1    29       P1  8028  0.19
      L1  H    24    49       P1 10957  1.00
      P1  H  7989  7998       L1     9  0.93
      L1  C    20    46       P1 10171  1.00

> <Gold.PLP.Chemscore.Internal.Correction>
0.2023

> <Gold.Rescore>
     Score         DG    S(hbond)    S(metal)    S(lipo)     H(rot)  DE(clash)    DE(int)     intcor
     11.25     -12.35       2.23        0.00      60.82       3.00       0.29       0.81       ----

> <Gold.Chemscore.Fitness>
11.2520

> <Gold.Chemscore.DG>
-12.3538

> <Gold.Chemscore.ZeroCoef>
-5.4800

> <Gold.Chemscore.Hbond>
2.2297

> <Gold.Chemscore.Metal>
0.0000

> <Gold.Chemscore.Lipo>
60.8244

> <Gold.Chemscore.Internal_Hbond>
0.0000

> <Gold.Chemscore.DEClash>
0.2922

> <Gold.Chemscore.DEInternal>
0.8096

> <Gold.Chemscore.Rot>
3.0039

> <Gold.Chemscore.Internal.Correction>
   9.000000E+99

> <Gold.Chemscore.Hbonds>
donor molecule, donor type, donor heavy atom, donor atom, acceptor molecule, acceptor atom, score
      L1  H     1    29       P1  8028  0.02
      L1  H    24    49       P1 10957  0.90
      P1  H  7989  7998       L1     9  0.20

> <Gold.Chemscore.Hbond.Weighted>
-7.4473

> <Gold.Chemscore.Metal.Weighted>
-0.0000

> <Gold.Chemscore.Lipo.Weighted>
-7.1165

> <Gold.Chemscore.Internal_Hbond.Weighted>
0.0000

> <Gold.Chemscore.DEClash.Weighted>
0.2922

> <Gold.Chemscore.DEInternal.Weighted>
0.8096

> <Gold.Chemscore.Rot.Weighted>
7.6899

> <Gold.Chemscore.Internal.Correction.Weighted>
   9.000000E+99

> <Gold.Protein.RotatedTorsions>
[ 6907 6896 6895 6894 ] final   33.55 input  -60.11 | X-H torsion
[ 7974 7965 7964 7962 ] final  151.69 input  175.53 | X-H torsion
[ 8008 7997 7996 7995 ] final -161.13 input   59.86 | X-H torsion
[ 10167 10162 10161 10158 ] final  139.20 input  -65.29 | X-H torsion
[ 10718 10713 10712 10709 ] final   -7.38 input   66.30 | X-H torsion
[ 10763 10752 10751 10750 ] final  118.98 input  -60.55 | X-H torsion
[ 11005 11000 10999 10996 ] final -123.93 input  -57.11 | X-H torsion

> <Gold.Protein.ActiveResidues>
 VAL166  LYS551  ARG553  GLY616  TRP617  ASP618  TYR619  PRO620  LYS621  CYS622 
 ASP623  PHE694  ASN695  SER759  ASP760  ASP761  ALA762  ILE779  LEU786  VAL792 
 PHE793  MET794  SER795  GLU796  ALA797  LYS798  CYS799  TRP800  GLU811  SER814 

> <Gold.Protein.RotatedAtoms>
  152.0900  134.9413  160.0571 H   0  0  0  0  0  0  0  0  0  0  0  0  # atno 6907 bound_to 6896
  152.0668  133.4083  159.4450 H   0  0  0  0  0  0  0  0  0  0  0  0  # atno 6908 bound_to 6896
  150.6837  134.3057  159.4768 H   0  0  0  0  0  0  0  0  0  0  0  0  # atno 6909 bound_to 6896
  144.8275  139.6570  143.6073 H   0  0  0  0  0  0  0  0  0  0  0  0  # atno 7974 bound_to 7965
  155.7877  140.0874  157.2025 H   0  0  0  0  0  0  0  0  0  0  0  0  # atno 8008 bound_to 7997
  154.3987  140.1496  156.3184 H   0  0  0  0  0  0  0  0  0  0  0  0  # atno 8009 bound_to 7997
  155.8590  140.3431  155.5746 H   0  0  0  0  0  0  0  0  0  0  0  0  # atno 8010 bound_to 7997
  139.5086  144.6309  151.5820 H   0  0  0  0  0  0  0  0  0  0  0  0  # atno 10167 bound_to 10162
  156.7181  130.5142  149.5875 H   0  0  0  0  0  0  0  0  0  0  0  0  # atno 10718 bound_to 10713
  153.5759  135.3493  155.2856 H   0  0  0  0  0  0  0  0  0  0  0  0  # atno 10763 bound_to 10752
  154.8675  135.4170  154.2673 H   0  0  0  0  0  0  0  0  0  0  0  0  # atno 10764 bound_to 10752
  153.3449  135.7052  153.6906 H   0  0  0  0  0  0  0  0  0  0  0  0  # atno 10765 bound_to 10752
  140.9880  134.0579  157.3688 H   0  0  0  0  0  0  0  0  0  0  0  0  # atno 11005 bound_to 11000
  146.2579  139.6344  142.9382 LP  0  0  0  0  0  0  0  0  0  0  0  0  # atno 17320 bound_to 7965
  145.4969  141.0438  143.2562 LP  0  0  0  0  0  0  0  0  0  0  0  0  # atno 17321 bound_to 7965
  140.6041  143.9556  150.6406 LP  0  0  0  0  0  0  0  0  0  0  0  0  # atno 17342 bound_to 10162
  140.2777  143.3411  152.1179 LP  0  0  0  0  0  0  0  0  0  0  0  0  # atno 17343 bound_to 10162
  156.1614  130.6376  151.0723 LP  0  0  0  0  0  0  0  0  0  0  0  0  # atno 17370 bound_to 10713
  157.6909  131.0810  150.7110 LP  0  0  0  0  0  0  0  0  0  0  0  0  # atno 17371 bound_to 10713
  139.8979  135.0152  156.7124 LP  0  0  0  0  0  0  0  0  0  0  0  0  # atno 17394 bound_to 11000
  140.7084  133.9245  155.8068 LP  0  0  0  0  0  0  0  0  0  0  0  0  # atno 17395 bound_to 11000

$$$$
