AV-unprocessed.smi:2789|AV-procd|sdf|10765|dock3
  -GOLD-   2272015203D 1   1.00000     0.00000
 Structure written by MMmdl.
 35 36  0  0  0  0  0  0  0  0  1 V2000
  153.3720  141.1607  160.4573 C   0  0  0  0  0  0  0  0  0  0  0  0
  153.0899  141.8132  159.2299 O   0  0  0  0  0  0  0  0  0  0  0  0
  151.9862  142.7054  159.2989 C   0  0  1  0  0  0  0  0  0  0  0  0
  152.0769  143.6428  160.5093 C   0  0  0  0  0  0  0  0  0  0  0  0
  151.3577  144.9090  160.0587 C   0  0  0  0  0  0  0  0  0  0  0  0
  151.7594  145.0585  158.5913 C   0  0  0  0  0  0  0  0  0  0  0  0
  151.9680  143.6283  158.0591 C   0  0  2  0  0  0  0  0  0  0  0  0
  150.8956  143.2673  157.1354 N   0  0  0  0  0  0  0  0  0  0  0  0
  150.7189  142.0463  156.6101 C   0  0  0  0  0  0  0  0  0  0  0  0
  151.4592  141.0923  156.8498 O   0  0  0  0  0  0  0  0  0  0  0  0
  149.6382  142.0126  155.8111 N   0  0  0  0  0  0  0  0  0  0  0  0
  149.1348  140.9624  155.1094 C   0  0  0  0  0  0  0  0  0  0  0  0
  149.6467  139.7019  154.9622 C   0  0  0  0  0  0  0  0  0  0  0  0
  148.6836  139.0746  154.1211 C   0  0  0  0  0  0  0  0  0  0  0  0
  147.6823  139.8792  153.7866 N   0  0  0  0  0  0  0  0  0  0  0  0
  147.9594  141.0527  154.3959 N   0  0  0  0  0  0  0  0  0  0  0  0
  147.0592  142.1792  154.2449 C   0  0  0  0  0  0  0  0  0  0  0  0
  154.2142  140.4821  160.3233 H   0  0  0  0  0  0  0  0  0  0  0  0
  152.5184  140.5716  160.7948 H   0  0  0  0  0  0  0  0  0  0  0  0
  153.6380  141.8729  161.2389 H   0  0  0  0  0  0  0  0  0  0  0  0
  151.0492  142.1466  159.3521 H   0  0  0  0  0  0  0  0  0  0  0  0
  151.6425  143.2108  161.4112 H   0  0  0  0  0  0  0  0  0  0  0  0
  153.1213  143.8769  160.7211 H   0  0  0  0  0  0  0  0  0  0  0  0
  150.2789  144.7667  160.1342 H   0  0  0  0  0  0  0  0  0  0  0  0
  151.6237  145.7802  160.6581 H   0  0  0  0  0  0  0  0  0  0  0  0
  151.0256  145.6313  158.0225 H   0  0  0  0  0  0  0  0  0  0  0  0
  152.7029  145.6033  158.5332 H   0  0  0  0  0  0  0  0  0  0  0  0
  152.9248  143.5894  157.5345 H   0  0  0  0  0  0  0  0  0  0  0  0
  150.2422  143.9958  156.8880 H   0  0  0  0  0  0  0  0  0  0  0  0
  149.1176  142.8735  155.7305 H   0  0  0  0  0  0  0  0  0  0  0  0
  150.5518  139.2808  155.3734 H   0  0  0  0  0  0  0  0  0  0  0  0
  148.6824  138.0627  153.7432 H   0  0  0  0  0  0  0  0  0  0  0  0
  146.6711  142.4701  155.2212 H   0  0  0  0  0  0  0  0  0  0  0  0
  146.2222  141.9191  153.5954 H   0  0  0  0  0  0  0  0  0  0  0  0
  147.5967  143.0212  153.8084 H   0  0  0  0  0  0  0  0  0  0  0  0
  1  2  1  0  0  0  0
  1 18  1  0  0  0  0
  1 19  1  0  0  0  0
  1 20  1  0  0  0  0
  2  3  1  0  0  0  0
  3  7  1  0  0  0  0
  3  4  1  0  0  0  0
  3 21  1  0  0  0  0
  4  5  1  0  0  0  0
  4 22  1  0  0  0  0
  4 23  1  0  0  0  0
  5  6  1  0  0  0  0
  5 24  1  0  0  0  0
  5 25  1  0  0  0  0
  6  7  1  0  0  0  0
  6 26  1  0  0  0  0
  6 27  1  0  0  0  0
  7  8  1  0  0  0  0
  7 28  1  0  0  0  0
  8  9  1  0  0  0  0
  8 29  1  0  0  0  0
  9 10  2  0  0  0  0
  9 11  1  0  0  0  0
 11 12  1  0  0  0  0
 11 30  1  0  0  0  0
 12 16  1  0  0  0  0
 12 13  2  0  0  0  0
 13 14  1  0  0  0  0
 13 31  1  0  0  0  0
 14 15  2  0  0  0  0
 14 32  1  0  0  0  0
 15 16  1  0  0  0  0
 16 17  1  0  0  0  0
 17 33  1  0  0  0  0
 17 34  1  0  0  0  0
 17 35  1  0  0  0  0
M  END
> <s_m_source_file>
AV-unprocessed.smi

> <i_m_source_file_index>
2789

> <i_lp_mmshare_version>
43012

> <i_f3d_flags>
0

> <s_epik_input>
W0NIM11PW0NAQEhdMVtDSDJdW0NIMl1bQ0gyXVtDQEhdMVtOSF1DKD1PKVtOSF1jMltjSF1bY0hdbm4yW0NIM10=

> <s_epik_cmdline>
J2VwaWtfcHl0aG9uJywgJy1waCcsICc3LjAnLCAnLXRuJywgJzgnLCAnLW1hJywgJzIwMCcsICctbWV0YWxfYmluZGluZycsICctaW1hZScsICc8aW5maWxlLm1hZT4nLCAnLW9tYWUnLCAnPG91dGZpbGUubWFlPic=

> <r_lp_tautomer_probability>
1

> <r_epik_Ionization_Penalty>
4.40608e-05

> <r_epik_Ionization_Penalty_Charging>
0

> <r_epik_Ionization_Penalty_Neutral>
4.40608e-05

> <r_epik_State_Penalty>
-0

> <r_epik_Charging_Adjusted_Penalty>
0

> <i_epik_Tot_Q>
0

> <i_epik_Tot_abs_Q>
0

> <r_epik_Metal_State_Penalty>
-0

> <b_epik_Metal_Only>
0

> <s_lp_Force_Field>
OPLS_2005

> <r_lp_Energy>
20.286

> <b_lp_Chiralities_Consistent>
1

> <s_lp_Variant>
AV-unprocessed.smi:2789-4

> <Gold.Version>
5.8.1

> <Gold.Id.Protein>
6NUR|6NUR_protein|mol2

> <Gold.PLP.Fitness>
49.6000

> <Gold.PLP.PLP>
-40.9161

> <Gold.PLP.part.hbond>
-2.0000

> <Gold.PLP.part.metal>
0.0000

> <Gold.PLP.part.buried>
-5.2921

> <Gold.PLP.part.nonpolar>
-34.4624

> <Gold.PLP.part.repulsive>
1.2884

> <Gold.PLP.ligand.clash>
0.0000

> <Gold.PLP.ligand.torsion>
0.1262

> <Gold.PLP.Chemscore.Hbond>
2.0000

> <Gold.PLP.Chemscore.CHOScore>
0.9766

> <Gold.PLP.Chemscore.Metal>
0.0000

> <Gold.Chemscore.Hbonds>
donor molecule, donor type, donor heavy atom, donor atom, acceptor molecule, acceptor atom, score
      L1  H     8    29       P1  8028  1.00
      L1  H    11    30       P1  8028  1.00
      L1  C    14    32       P1  7948  0.77

> <Gold.PLP.Chemscore.Internal.Correction>
0.0065

> <Gold.Rescore>
     Score         DG    S(hbond)    S(metal)    S(lipo)     H(rot)  DE(clash)    DE(int)     intcor
     15.96     -18.95       1.93        0.00      87.97       1.27       0.04       2.96       ----

> <Gold.Chemscore.Fitness>
15.9556

> <Gold.Chemscore.DG>
-18.9512

> <Gold.Chemscore.ZeroCoef>
-5.4800

> <Gold.Chemscore.Hbond>
1.9260

> <Gold.Chemscore.Metal>
0.0000

> <Gold.Chemscore.Lipo>
87.9733

> <Gold.Chemscore.Internal_Hbond>
0.0000

> <Gold.Chemscore.DEClash>
0.0371

> <Gold.Chemscore.DEInternal>
2.9585

> <Gold.Chemscore.Rot>
1.2712

> <Gold.Chemscore.Internal.Correction>
   9.000000E+99

> <Gold.Chemscore.Hbonds>
donor molecule, donor type, donor heavy atom, donor atom, acceptor molecule, acceptor atom, score
      L1  H     8    29       P1  8028  0.93
      L1  H    11    30       P1  8028  0.98

> <Gold.Chemscore.Hbond.Weighted>
-6.4327

> <Gold.Chemscore.Metal.Weighted>
-0.0000

> <Gold.Chemscore.Lipo.Weighted>
-10.2929

> <Gold.Chemscore.Internal_Hbond.Weighted>
0.0000

> <Gold.Chemscore.DEClash.Weighted>
0.0371

> <Gold.Chemscore.DEInternal.Weighted>
2.9585

> <Gold.Chemscore.Rot.Weighted>
3.2544

> <Gold.Chemscore.Internal.Correction.Weighted>
   9.000000E+99

> <Gold.Protein.RotatedTorsions>
[ 6907 6896 6895 6894 ] final  -74.03 input  -60.11 | X-H torsion
[ 7974 7965 7964 7962 ] final   70.14 input  175.53 | X-H torsion
[ 8008 7997 7996 7995 ] final -164.68 input   59.86 | X-H torsion
[ 10167 10162 10161 10158 ] final   21.64 input  -65.29 | X-H torsion
[ 10718 10713 10712 10709 ] final   55.01 input   66.30 | X-H torsion
[ 10763 10752 10751 10750 ] final  112.57 input  -60.55 | X-H torsion
[ 11005 11000 10999 10996 ] final   73.32 input  -57.11 | X-H torsion

> <Gold.Protein.ActiveResidues>
 VAL166  LYS551  ARG553  GLY616  TRP617  ASP618  TYR619  PRO620  LYS621  CYS622 
 ASP623  PHE694  ASN695  SER759  ASP760  ASP761  ALA762  ILE779  LEU786  VAL792 
 PHE793  MET794  SER795  GLU796  ALA797  LYS798  CYS799  TRP800  GLU811  SER814 

> <Gold.Protein.RotatedAtoms>
  150.7108  134.4929  159.5523 H   0  0  0  0  0  0  0  0  0  0  0  0  # atno 6907 bound_to 6896
  152.2543  134.8098  160.0450 H   0  0  0  0  0  0  0  0  0  0  0  0  # atno 6908 bound_to 6896
  151.8834  133.3465  159.3811 H   0  0  0  0  0  0  0  0  0  0  0  0  # atno 6909 bound_to 6896
  145.7818  139.2891  143.1261 H   0  0  0  0  0  0  0  0  0  0  0  0  # atno 7974 bound_to 7965
  155.8391  140.0945  157.1745 H   0  0  0  0  0  0  0  0  0  0  0  0  # atno 8008 bound_to 7997
  154.3981  140.1404  156.3768 H   0  0  0  0  0  0  0  0  0  0  0  0  # atno 8009 bound_to 7997
  155.8084  140.3450  155.5445 H   0  0  0  0  0  0  0  0  0  0  0  0  # atno 8010 bound_to 7997
  140.5410  143.9676  150.6519 H   0  0  0  0  0  0  0  0  0  0  0  0  # atno 10167 bound_to 10162
  157.5307  130.8628  149.8683 H   0  0  0  0  0  0  0  0  0  0  0  0  # atno 10718 bound_to 10713
  153.4799  135.3682  155.2436 H   0  0  0  0  0  0  0  0  0  0  0  0  # atno 10763 bound_to 10752
  154.8755  135.3951  154.3713 H   0  0  0  0  0  0  0  0  0  0  0  0  # atno 10764 bound_to 10752
  153.4315  135.7082  153.6293 H   0  0  0  0  0  0  0  0  0  0  0  0  # atno 10765 bound_to 10752
  139.9446  134.7337  156.1012 H   0  0  0  0  0  0  0  0  0  0  0  0  # atno 11005 bound_to 11000
  146.0067  140.8472  142.9991 LP  0  0  0  0  0  0  0  0  0  0  0  0  # atno 17320 bound_to 7965
  144.6795  140.2430  143.7341 LP  0  0  0  0  0  0  0  0  0  0  0  0  # atno 17321 bound_to 7965
  140.3077  143.3219  152.0910 LP  0  0  0  0  0  0  0  0  0  0  0  0  # atno 17342 bound_to 10162
  139.4989  144.6656  151.6363 LP  0  0  0  0  0  0  0  0  0  0  0  0  # atno 17343 bound_to 10162
  156.0420  130.3736  150.1411 LP  0  0  0  0  0  0  0  0  0  0  0  0  # atno 17370 bound_to 10713
  156.9595  130.9800  151.3482 LP  0  0  0  0  0  0  0  0  0  0  0  0  # atno 17371 bound_to 10713
  141.1092  133.6649  156.2937 LP  0  0  0  0  0  0  0  0  0  0  0  0  # atno 17394 bound_to 11000
  140.5867  134.5692  157.5491 LP  0  0  0  0  0  0  0  0  0  0  0  0  # atno 17395 bound_to 11000

$$$$
