AV-unprocessed.smi:438|AV-procd|sdf|2567|dock6
  -GOLD-   2262022543D 1   1.00000     0.00000
 Structure written by MMmdl.
 48 49  0  0  0  0  0  0  0  0  1 V2000
  145.2353  143.6609  153.9448 C   0  0  0  0  0  0  0  0  0  0  0  0
  145.9826  142.8764  155.0085 C   0  0  0  0  0  0  0  0  0  0  0  0
  147.2034  142.3719  154.5987 N   0  0  0  0  0  0  0  0  0  0  0  0
  147.9694  141.6506  155.5017 C   0  0  0  0  0  0  0  0  0  0  0  0
  149.5287  141.1377  154.7236 S   0  0  0  0  0  0  0  0  0  0  0  0
  150.0942  139.8371  155.8583 C   0  0  0  0  0  0  0  0  0  0  0  0
  151.3101  140.2700  156.6722 C   0  0  0  0  0  0  0  0  0  0  0  0
  152.3881  139.6985  156.5127 O   0  0  0  0  0  0  0  0  0  0  0  0
  151.1149  141.2751  157.5434 N   0  0  0  0  0  0  0  0  0  0  0  0
  152.0889  141.8491  158.4762 C   0  0  2  0  0  0  0  0  0  0  0  0
  152.5076  140.8388  159.5671 C   0  0  0  0  0  0  0  0  0  0  0  0
  153.5980  141.4252  160.4755 C   0  0  0  0  0  0  0  0  0  0  0  0
  153.1386  142.7515  161.0983 C   0  0  0  0  0  0  0  0  0  0  0  0
  152.7301  143.7626  160.0149 C   0  0  0  0  0  0  0  0  0  0  0  0
  151.6321  143.2016  159.0880 C   0  0  1  0  0  0  0  0  0  0  0  0
  151.2478  144.2389  158.0173 C   0  0  0  0  0  0  0  0  0  0  0  0
  147.5969  141.3990  156.7219 N   0  0  0  0  0  0  0  0  0  0  0  0
  146.3621  141.8717  157.1916 C   0  0  0  0  0  0  0  0  0  0  0  0
  145.9982  141.6302  158.3418 O   0  0  0  0  0  0  0  0  0  0  0  0
  145.5224  142.6593  156.2642 C   0  0  0  0  0  0  0  0  0  0  0  0
  144.1909  143.2059  156.7716 C   0  0  0  0  0  0  0  0  0  0  0  0
  144.1679  144.7407  156.8046 C   0  0  0  0  0  0  0  0  0  0  0  0
  144.9536  145.2068  157.8798 O   0  0  0  0  0  0  0  0  0  0  0  0
  144.2392  143.2438  153.7942 H   0  0  0  0  0  0  0  0  0  0  0  0
  145.7566  143.6373  152.9868 H   0  0  0  0  0  0  0  0  0  0  0  0
  145.1323  144.7040  154.2443 H   0  0  0  0  0  0  0  0  0  0  0  0
  150.3381  138.9396  155.2886 H   0  0  0  0  0  0  0  0  0  0  0  0
  149.2819  139.5768  156.5381 H   0  0  0  0  0  0  0  0  0  0  0  0
  150.1853  141.6674  157.5844 H   0  0  0  0  0  0  0  0  0  0  0  0
  152.9727  142.0493  157.8689 H   0  0  0  0  0  0  0  0  0  0  0  0
  151.6503  140.5594  160.1800 H   0  0  0  0  0  0  0  0  0  0  0  0
  152.8710  139.9196  159.1067 H   0  0  0  0  0  0  0  0  0  0  0  0
  153.8513  140.7124  161.2607 H   0  0  0  0  0  0  0  0  0  0  0  0
  154.5092  141.5875  159.8982 H   0  0  0  0  0  0  0  0  0  0  0  0
  152.2956  142.5704  161.7664 H   0  0  0  0  0  0  0  0  0  0  0  0
  153.9365  143.1688  161.7132 H   0  0  0  0  0  0  0  0  0  0  0  0
  152.3828  144.6809  160.4895 H   0  0  0  0  0  0  0  0  0  0  0  0
  153.6071  144.0343  159.4258 H   0  0  0  0  0  0  0  0  0  0  0  0
  150.7496  143.0260  159.7044 H   0  0  0  0  0  0  0  0  0  0  0  0
  152.0819  144.4413  157.3450 H   0  0  0  0  0  0  0  0  0  0  0  0
  150.9544  145.1832  158.4763 H   0  0  0  0  0  0  0  0  0  0  0  0
  150.4060  143.9015  157.4128 H   0  0  0  0  0  0  0  0  0  0  0  0
  147.5035  142.5614  153.6531 H   0  0  0  0  0  0  0  0  0  0  0  0
  143.9844  142.8178  157.7688 H   0  0  0  0  0  0  0  0  0  0  0  0
  143.3798  142.8305  156.1456 H   0  0  0  0  0  0  0  0  0  0  0  0
  144.5597  145.1523  155.8738 H   0  0  0  0  0  0  0  0  0  0  0  0
  143.1499  145.1126  156.9235 H   0  0  0  0  0  0  0  0  0  0  0  0
  145.8339  145.3515  157.5683 H   0  0  0  0  0  0  0  0  0  0  0  0
  1 24  1  0  0  0  0
  1 25  1  0  0  0  0
  1 26  1  0  0  0  0
  1  2  1  0  0  0  0
  2 20  2  0  0  0  0
  2  3  1  0  0  0  0
  3  4  1  0  0  0  0
  3 43  1  0  0  0  0
  4  5  1  0  0  0  0
  4 17  2  0  0  0  0
  5  6  1  0  0  0  0
  6  7  1  0  0  0  0
  6 27  1  0  0  0  0
  6 28  1  0  0  0  0
  7  8  2  0  0  0  0
  7  9  1  0  0  0  0
  9 10  1  0  0  0  0
  9 29  1  0  0  0  0
 10 15  1  0  0  0  0
 10 11  1  0  0  0  0
 10 30  1  0  0  0  0
 11 12  1  0  0  0  0
 11 31  1  0  0  0  0
 11 32  1  0  0  0  0
 12 13  1  0  0  0  0
 12 33  1  0  0  0  0
 12 34  1  0  0  0  0
 13 14  1  0  0  0  0
 13 35  1  0  0  0  0
 13 36  1  0  0  0  0
 14 15  1  0  0  0  0
 14 37  1  0  0  0  0
 14 38  1  0  0  0  0
 15 16  1  0  0  0  0
 15 39  1  0  0  0  0
 16 40  1  0  0  0  0
 16 41  1  0  0  0  0
 16 42  1  0  0  0  0
 17 18  1  0  0  0  0
 18 19  2  0  0  0  0
 18 20  1  0  0  0  0
 20 21  1  0  0  0  0
 21 22  1  0  0  0  0
 21 44  1  0  0  0  0
 21 45  1  0  0  0  0
 22 23  1  0  0  0  0
 22 46  1  0  0  0  0
 22 47  1  0  0  0  0
 23 48  1  0  0  0  0
M  END
> <s_m_source_file>
AV-unprocessed.smi

> <i_m_source_file_index>
438

> <i_lp_mmshare_version>
43012

> <i_f3d_flags>
0

> <s_epik_input>
W09IXVtDSDJdW0NIMl1jMWMoW09IXSluYyhuYzFbQ0gzXSlTW0NIMl1DKD1PKVtOSF1bQ0BASF0yW0NIMl1bQ0gyXVtDSDJdW0NIMl1bQ0BIXTJbQ0gzXQ==

> <s_epik_cmdline>
J2VwaWtfcHl0aG9uJywgJy1waCcsICc3LjAnLCAnLXRuJywgJzgnLCAnLW1hJywgJzIwMCcsICctbWV0YWxfYmluZGluZycsICctaW1hZScsICc8aW5maWxlLm1hZT4nLCAnLW9tYWUnLCAnPG91dGZpbGUubWFlPic=

> <r_lp_tautomer_probability>
0.273662

> <r_epik_Ionization_Penalty>
0.0875285

> <r_epik_Ionization_Penalty_Charging>
0.0875254

> <r_epik_Ionization_Penalty_Neutral>
3.01536e-06

> <r_epik_State_Penalty>
0.985796

> <r_epik_Charging_Adjusted_Penalty>
1.07332

> <i_epik_Tot_Q>
0

> <i_epik_Tot_abs_Q>
0

> <r_epik_Metal_State_Penalty>
1.58101

> <b_epik_Metal_Only>
0

> <s_lp_Force_Field>
OPLS_2005

> <r_lp_Energy>
18.1285

> <b_lp_Chiralities_Consistent>
1

> <s_lp_Variant>
AV-unprocessed.smi:438-5

> <Gold.Version>
5.8.1

> <Gold.Id.Protein>
6NUR|6NUR_protein|mol2

> <Gold.PLP.Fitness>
47.5415

> <Gold.PLP.PLP>
-42.9904

> <Gold.PLP.part.hbond>
-3.0000

> <Gold.PLP.part.metal>
0.0000

> <Gold.PLP.part.buried>
-4.7705

> <Gold.PLP.part.nonpolar>
-36.7728

> <Gold.PLP.part.repulsive>
0.3228

> <Gold.PLP.ligand.clash>
0.0000

> <Gold.PLP.ligand.torsion>
0.7612

> <Gold.PLP.Chemscore.Hbond>
2.0000

> <Gold.PLP.Chemscore.CHOScore>
0.0000

> <Gold.PLP.Chemscore.Metal>
0.0000

> <Gold.Chemscore.Hbonds>
donor molecule, donor type, donor heavy atom, donor atom, acceptor molecule, acceptor atom, score
      L1  H    23    48       P1  8029  0.84
      P1  H  7997  8010       L1     8  1.00

> <Gold.PLP.Chemscore.Internal.Correction>
0.0735

> <Gold.Rescore>
     Score         DG    S(hbond)    S(metal)    S(lipo)     H(rot)  DE(clash)    DE(int)     intcor
     16.01     -17.10       1.92        0.00     107.13       2.86       0.30       0.79       ----

> <Gold.Chemscore.Fitness>
16.0149

> <Gold.Chemscore.DG>
-17.1001

> <Gold.Chemscore.ZeroCoef>
-5.4800

> <Gold.Chemscore.Hbond>
1.9219

> <Gold.Chemscore.Metal>
0.0000

> <Gold.Chemscore.Lipo>
107.1290

> <Gold.Chemscore.Internal_Hbond>
0.0000

> <Gold.Chemscore.DEClash>
0.2966

> <Gold.Chemscore.DEInternal>
0.7886

> <Gold.Chemscore.Rot>
2.8645

> <Gold.Chemscore.Internal.Correction>
   9.000000E+99

> <Gold.Chemscore.Hbonds>
donor molecule, donor type, donor heavy atom, donor atom, acceptor molecule, acceptor atom, score
      L1  H    23    48       P1  8029  0.29
      P1  H  7997  8010       L1     8  0.95

> <Gold.Chemscore.Hbond.Weighted>
-6.4191

> <Gold.Chemscore.Metal.Weighted>
-0.0000

> <Gold.Chemscore.Lipo.Weighted>
-12.5341

> <Gold.Chemscore.Internal_Hbond.Weighted>
0.0000

> <Gold.Chemscore.DEClash.Weighted>
0.2966

> <Gold.Chemscore.DEInternal.Weighted>
0.7886

> <Gold.Chemscore.Rot.Weighted>
7.3331

> <Gold.Chemscore.Internal.Correction.Weighted>
   9.000000E+99

> <Gold.Protein.RotatedTorsions>
[ 6907 6896 6895 6894 ] final   65.08 input  -60.11 | X-H torsion
[ 7974 7965 7964 7962 ] final  116.87 input  175.53 | X-H torsion
[ 8008 7997 7996 7995 ] final   81.99 input   59.86 | X-H torsion
[ 10167 10162 10161 10158 ] final  118.11 input  -65.29 | X-H torsion
[ 10718 10713 10712 10709 ] final   78.29 input   66.30 | X-H torsion
[ 10763 10752 10751 10750 ] final  -73.50 input  -60.55 | X-H torsion
[ 11005 11000 10999 10996 ] final -118.65 input  -57.11 | X-H torsion

> <Gold.Protein.ActiveResidues>
 VAL166  LYS551  ARG553  GLY616  TRP617  ASP618  TYR619  PRO620  LYS621  CYS622 
 ASP623  PHE694  ASN695  SER759  ASP760  ASP761  ALA762  ILE779  LEU786  VAL792 
 PHE793  MET794  SER795  GLU796  ALA797  LYS798  CYS799  TRP800  GLU811  SER814 

> <Gold.Protein.RotatedAtoms>
  152.4380  134.5647  159.9904 H   0  0  0  0  0  0  0  0  0  0  0  0  # atno 6907 bound_to 6896
  151.5752  133.3379  159.3005 H   0  0  0  0  0  0  0  0  0  0  0  0  # atno 6908 bound_to 6896
  150.8281  134.7557  159.6895 H   0  0  0  0  0  0  0  0  0  0  0  0  # atno 6909 bound_to 6896
  145.1744  139.3084  143.4451 H   0  0  0  0  0  0  0  0  0  0  0  0  # atno 7974 bound_to 7965
  155.9046  140.3431  155.6052 H   0  0  0  0  0  0  0  0  0  0  0  0  # atno 8008 bound_to 7997
  155.7460  140.0814  157.2242 H   0  0  0  0  0  0  0  0  0  0  0  0  # atno 8009 bound_to 7997
  154.4048  140.1562  156.2657 H   0  0  0  0  0  0  0  0  0  0  0  0  # atno 8010 bound_to 7997
  139.6134  144.7087  151.2794 H   0  0  0  0  0  0  0  0  0  0  0  0  # atno 10167 bound_to 10162
  157.6740  130.9861  150.1764 H   0  0  0  0  0  0  0  0  0  0  0  0  # atno 10718 bound_to 10713
  154.4604  135.5895  153.6251 H   0  0  0  0  0  0  0  0  0  0  0  0  # atno 10763 bound_to 10752
  152.9822  135.6042  154.3494 H   0  0  0  0  0  0  0  0  0  0  0  0  # atno 10764 bound_to 10752
  154.3365  135.2842  155.2424 H   0  0  0  0  0  0  0  0  0  0  0  0  # atno 10765 bound_to 10752
  141.0271  134.0037  157.3198 H   0  0  0  0  0  0  0  0  0  0  0  0  # atno 11005 bound_to 11000
  146.3463  140.1900  142.8589 LP  0  0  0  0  0  0  0  0  0  0  0  0  # atno 17320 bound_to 7965
  145.0200  140.8786  143.5172 LP  0  0  0  0  0  0  0  0  0  0  0  0  # atno 17321 bound_to 7965
  140.7334  143.6795  150.8013 LP  0  0  0  0  0  0  0  0  0  0  0  0  # atno 17342 bound_to 10162
  140.0393  143.5362  152.2725 LP  0  0  0  0  0  0  0  0  0  0  0  0  # atno 17343 bound_to 10162
  156.2507  130.3700  149.8236 LP  0  0  0  0  0  0  0  0  0  0  0  0  # atno 17370 bound_to 10713
  156.6009  130.8546  151.3431 LP  0  0  0  0  0  0  0  0  0  0  0  0  # atno 17371 bound_to 10713
  139.9183  135.0199  156.7967 LP  0  0  0  0  0  0  0  0  0  0  0  0  # atno 17394 bound_to 11000
  140.6472  133.9764  155.7737 LP  0  0  0  0  0  0  0  0  0  0  0  0  # atno 17395 bound_to 11000

$$$$
