AV-unprocessed.smi:261|AV-procd|sdf|1997|dock5
  -GOLD-   2262021193D 1   1.00000     0.00000
 Structure written by MMmdl.
 51 54  0  0  0  0  0  0  0  0  1 V2000
  146.9994  131.1834  153.1869 C   0  0  0  0  0  0  0  0  0  0  0  0
  147.0425  132.5777  153.4437 O   0  0  0  0  0  0  0  0  0  0  0  0
  147.9076  132.9315  154.5131 C   0  0  1  0  0  0  0  0  0  0  0  0
  149.3878  132.9497  154.1203 C   0  0  0  0  0  0  0  0  0  0  0  0
  150.0382  133.9202  155.1213 C   0  0  2  0  0  0  0  0  0  0  0  0
  150.5354  133.1855  156.3797 C   0  0  0  0  0  0  0  0  0  0  0  0
  150.6683  131.8603  156.2868 N   0  0  0  0  0  0  0  0  0  0  0  0
  150.7850  133.7945  157.4190 O   0  0  0  0  0  0  0  0  0  0  0  0
  148.9587  134.8607  155.4225 N   0  0  0  0  0  0  0  0  0  0  0  0
  149.1233  136.1085  155.9437 C   0  0  0  0  0  0  0  0  0  0  0  0
  148.1574  136.5772  156.7782 N   0  0  0  0  0  0  0  0  0  0  0  0
  148.2545  137.7902  157.3271 C   0  0  0  0  0  0  0  0  0  0  0  0
  149.2230  138.6940  157.1822 N   0  0  0  0  0  0  0  0  0  0  0  0
  150.1997  138.2394  156.3471 C   0  0  0  0  0  0  0  0  0  0  0  0
  150.2309  136.9749  155.6877 C   0  0  0  0  0  0  0  0  0  0  0  0
  151.3863  136.8901  154.9170 N   0  0  0  0  0  0  0  0  0  0  0  0
  151.9975  138.0252  155.1109 C   0  0  0  0  0  0  0  0  0  0  0  0
  151.3635  138.8890  155.9726 N   0  0  0  0  0  0  0  0  0  0  0  0
  151.8141  140.2151  156.3608 C   0  0  0  0  0  0  0  0  0  0  0  0
  152.0849  140.3628  157.8760 C   0  0  1  0  0  0  0  0  0  0  0  0
  153.1902  139.5262  158.1519 O   0  0  0  0  0  0  0  0  0  0  0  0
  152.4624  141.7861  158.3481 C   0  0  1  0  0  0  0  0  0  0  0  0
  151.3841  142.8605  158.1892 C   0  0  0  0  0  0  0  0  0  0  0  0
  151.7502  143.8983  159.2364 C   0  0  0  0  0  0  0  0  0  0  0  0
  152.6585  143.1370  160.2029 C   0  0  0  0  0  0  0  0  0  0  0  0
  152.6218  141.7874  159.7599 O   0  0  0  0  0  0  0  0  0  0  0  0
  147.6651  134.3765  154.9505 C   0  0  0  0  0  0  0  0  0  0  0  0
  147.7553  132.2711  155.3690 H   0  0  0  0  0  0  0  0  0  0  0  0
  150.8700  134.4252  154.6294 H   0  0  0  0  0  0  0  0  0  0  0  0
  146.2873  130.9833  152.3865 H   0  0  0  0  0  0  0  0  0  0  0  0
  146.6767  130.6282  154.0686 H   0  0  0  0  0  0  0  0  0  0  0  0
  147.9709  130.8036  152.8695 H   0  0  0  0  0  0  0  0  0  0  0  0
  149.8360  131.9550  154.1250 H   0  0  0  0  0  0  0  0  0  0  0  0
  149.4940  133.3487  153.1103 H   0  0  0  0  0  0  0  0  0  0  0  0
  150.9820  131.3278  157.0852 H   0  0  0  0  0  0  0  0  0  0  0  0
  150.4452  131.3944  155.4193 H   0  0  0  0  0  0  0  0  0  0  0  0
  147.4405  138.0763  157.9766 H   0  0  0  0  0  0  0  0  0  0  0  0
  152.9369  138.2610  154.6321 H   0  0  0  0  0  0  0  0  0  0  0  0
  152.7282  140.4135  155.7990 H   0  0  0  0  0  0  0  0  0  0  0  0
  151.0845  140.9564  156.0324 H   0  0  0  0  0  0  0  0  0  0  0  0
  151.2311  139.9931  158.4450 H   0  0  0  0  0  0  0  0  0  0  0  0
  153.4119  139.6129  159.0664 H   0  0  0  0  0  0  0  0  0  0  0  0
  153.3866  142.1223  157.8734 H   0  0  0  0  0  0  0  0  0  0  0  0
  151.3512  143.2829  157.1855 H   0  0  0  0  0  0  0  0  0  0  0  0
  150.4013  142.4469  158.4192 H   0  0  0  0  0  0  0  0  0  0  0  0
  152.2875  144.7360  158.7902 H   0  0  0  0  0  0  0  0  0  0  0  0
  150.8618  144.2921  159.7308 H   0  0  0  0  0  0  0  0  0  0  0  0
  153.6819  143.5095  160.1440 H   0  0  0  0  0  0  0  0  0  0  0  0
  152.3260  143.2141  161.2382 H   0  0  0  0  0  0  0  0  0  0  0  0
  147.3474  134.9886  154.1050 H   0  0  0  0  0  0  0  0  0  0  0  0
  146.8959  134.4299  155.7219 H   0  0  0  0  0  0  0  0  0  0  0  0
  1  2  1  0  0  0  0
  1 30  1  0  0  0  0
  1 31  1  0  0  0  0
  1 32  1  0  0  0  0
  2  3  1  0  0  0  0
  3 28  1  0  0  0  0
  3 27  1  0  0  0  0
  3  4  1  0  0  0  0
  4  5  1  0  0  0  0
  4 33  1  0  0  0  0
  4 34  1  0  0  0  0
  5 29  1  0  0  0  0
  5  6  1  0  0  0  0
  5  9  1  0  0  0  0
  6  7  1  0  0  0  0
  6  8  2  0  0  0  0
  7 35  1  0  0  0  0
  7 36  1  0  0  0  0
  9 10  1  0  0  0  0
  9 27  1  0  0  0  0
 10 15  1  0  0  0  0
 10 11  2  0  0  0  0
 11 12  1  0  0  0  0
 12 13  2  0  0  0  0
 12 37  1  0  0  0  0
 13 14  1  0  0  0  0
 14 18  1  0  0  0  0
 14 15  2  0  0  0  0
 15 16  1  0  0  0  0
 16 17  2  0  0  0  0
 17 18  1  0  0  0  0
 17 38  1  0  0  0  0
 18 19  1  0  0  0  0
 19 20  1  0  0  0  0
 19 39  1  0  0  0  0
 19 40  1  0  0  0  0
 20 21  1  0  0  0  0
 20 22  1  0  0  0  0
 20 41  1  0  0  0  0
 21 42  1  0  0  0  0
 22 26  1  0  0  0  0
 22 23  1  0  0  0  0
 22 43  1  0  0  0  0
 23 24  1  0  0  0  0
 23 44  1  0  0  0  0
 23 45  1  0  0  0  0
 24 25  1  0  0  0  0
 24 46  1  0  0  0  0
 24 47  1  0  0  0  0
 25 26  1  0  0  0  0
 25 48  1  0  0  0  0
 25 49  1  0  0  0  0
 27 50  1  0  0  0  0
 27 51  1  0  0  0  0
M  END
> <s_m_source_file>
AV-unprocessed.smi

> <i_m_source_file_index>
261

> <i_lp_mmshare_version>
43012

> <i_f3d_flags>
0

> <s_epik_input>
W0NIM11PW0NASF0xW0NIMl1bQ0BASF0oQyg9TylbTkgyXSlOKFtDSDJdMSljKG5bY0hdbjIpYyhjMjMpbltjSF1uM1tDSDJdW0NASF0oW09IXSlbQ0BASF00W0NIMl1bQ0gyXVtDSDJdTzQ=

> <s_epik_cmdline>
J2VwaWtfcHl0aG9uJywgJy1waCcsICc3LjAnLCAnLXRuJywgJzgnLCAnLW1hJywgJzIwMCcsICctbWV0YWxfYmluZGluZycsICctaW1hZScsICc8aW5maWxlLm1hZT4nLCAnLW9tYWUnLCAnPG91dGZpbGUubWFlPic=

> <r_lp_tautomer_probability>
1

> <r_epik_Ionization_Penalty>
0.000713824

> <r_epik_Ionization_Penalty_Charging>
0

> <r_epik_Ionization_Penalty_Neutral>
0.000713824

> <r_epik_State_Penalty>
0.000402132

> <r_epik_Charging_Adjusted_Penalty>
0.000402132

> <i_epik_Tot_Q>
0

> <i_epik_Tot_abs_Q>
0

> <r_epik_Metal_State_Penalty>
-0

> <b_epik_Metal_Only>
0

> <s_lp_Force_Field>
OPLS_2005

> <r_lp_Energy>
45.931

> <b_lp_Chiralities_Consistent>
1

> <s_lp_Variant>
AV-unprocessed.smi:261-15

> <Gold.Version>
5.8.1

> <Gold.Id.Protein>
6NUR|6NUR_protein|mol2

> <Gold.PLP.Fitness>
41.8423

> <Gold.PLP.PLP>
-37.2436

> <Gold.PLP.part.hbond>
-3.0000

> <Gold.PLP.part.metal>
0.0000

> <Gold.PLP.part.buried>
-6.8922

> <Gold.PLP.part.nonpolar>
-27.3177

> <Gold.PLP.part.repulsive>
0.2896

> <Gold.PLP.ligand.clash>
0.2791

> <Gold.PLP.ligand.torsion>
1.0854

> <Gold.PLP.Chemscore.Hbond>
2.2933

> <Gold.PLP.Chemscore.CHOScore>
0.0000

> <Gold.PLP.Chemscore.Metal>
0.0000

> <Gold.Chemscore.Hbonds>
donor molecule, donor type, donor heavy atom, donor atom, acceptor molecule, acceptor atom, score
      P1  H  6896  6908       L1     8  0.37
      P1  H  7997  8009       L1    21  1.00
      P1  H 10752 10763       L1    16  0.91

> <Gold.PLP.Chemscore.Internal.Correction>
0.1687

> <Gold.Rescore>
     Score         DG    S(hbond)    S(metal)    S(lipo)     H(rot)  DE(clash)    DE(int)     intcor
     12.84     -13.69       2.19        0.00      77.42       3.18       0.02       0.83       ----

> <Gold.Chemscore.Fitness>
12.8391

> <Gold.Chemscore.DG>
-13.6925

> <Gold.Chemscore.ZeroCoef>
-5.4800

> <Gold.Chemscore.Hbond>
2.1867

> <Gold.Chemscore.Metal>
0.0000

> <Gold.Chemscore.Lipo>
77.4161

> <Gold.Chemscore.Internal_Hbond>
0.0000

> <Gold.Chemscore.DEClash>
0.0237

> <Gold.Chemscore.DEInternal>
0.8297

> <Gold.Chemscore.Rot>
3.1831

> <Gold.Chemscore.Internal.Correction>
   9.000000E+99

> <Gold.Chemscore.Hbonds>
donor molecule, donor type, donor heavy atom, donor atom, acceptor molecule, acceptor atom, score
      P1  H  6896  6908       L1     8  0.35
      P1  H  7997  8009       L1    21  0.56
      P1  H 10752 10763       L1    16  0.30

> <Gold.Chemscore.Hbond.Weighted>
-7.3034

> <Gold.Chemscore.Metal.Weighted>
-0.0000

> <Gold.Chemscore.Lipo.Weighted>
-9.0577

> <Gold.Chemscore.Internal_Hbond.Weighted>
0.0000

> <Gold.Chemscore.DEClash.Weighted>
0.0237

> <Gold.Chemscore.DEInternal.Weighted>
0.8297

> <Gold.Chemscore.Rot.Weighted>
8.1486

> <Gold.Chemscore.Internal.Correction.Weighted>
   9.000000E+99

> <Gold.Protein.RotatedTorsions>
[ 6907 6896 6895 6894 ] final   70.28 input  -60.11 | X-H torsion
[ 7974 7965 7964 7962 ] final -171.02 input  175.53 | X-H torsion
[ 8008 7997 7996 7995 ] final  155.45 input   59.86 | X-H torsion
[ 10167 10162 10161 10158 ] final  -34.16 input  -65.29 | X-H torsion
[ 10718 10713 10712 10709 ] final   74.97 input   66.30 | X-H torsion
[ 10763 10752 10751 10750 ] final   67.13 input  -60.55 | X-H torsion
[ 11005 11000 10999 10996 ] final   68.64 input  -57.11 | X-H torsion

> <Gold.Protein.ActiveResidues>
 VAL166  LYS551  ARG553  GLY616  TRP617  ASP618  TYR619  PRO620  LYS621  CYS622 
 ASP623  PHE694  ASN695  SER759  ASP760  ASP761  ALA762  ILE779  LEU786  VAL792 
 PHE793  MET794  SER795  GLU796  ALA797  LYS798  CYS799  TRP800  GLU811  SER814 

> <Gold.Protein.RotatedAtoms>
  152.4739  134.4891  159.9689 H   0  0  0  0  0  0  0  0  0  0  0  0  # atno 6907 bound_to 6896
  151.4912  133.3518  159.2861 H   0  0  0  0  0  0  0  0  0  0  0  0  # atno 6908 bound_to 6896
  150.8766  134.8177  159.7256 H   0  0  0  0  0  0  0  0  0  0  0  0  # atno 6909 bound_to 6896
  144.7162  140.1985  143.6341 H   0  0  0  0  0  0  0  0  0  0  0  0  # atno 7974 bound_to 7965
  156.2477  140.1939  156.6803 H   0  0  0  0  0  0  0  0  0  0  0  0  # atno 8008 bound_to 7997
  154.6327  140.0594  156.9777 H   0  0  0  0  0  0  0  0  0  0  0  0  # atno 8009 bound_to 7997
  155.1686  140.3266  155.4400 H   0  0  0  0  0  0  0  0  0  0  0  0  # atno 8010 bound_to 7997
  140.7191  143.3568  151.2044 H   0  0  0  0  0  0  0  0  0  0  0  0  # atno 10167 bound_to 10162
  157.6614  130.9703  150.1286 H   0  0  0  0  0  0  0  0  0  0  0  0  # atno 10718 bound_to 10713
  153.0172  135.5295  154.6932 H   0  0  0  0  0  0  0  0  0  0  0  0  # atno 10763 bound_to 10752
  154.6061  135.2873  155.0485 H   0  0  0  0  0  0  0  0  0  0  0  0  # atno 10764 bound_to 10752
  154.1524  135.6561  153.5019 H   0  0  0  0  0  0  0  0  0  0  0  0  # atno 10765 bound_to 10752
  139.9699  134.6917  156.0467 H   0  0  0  0  0  0  0  0  0  0  0  0  # atno 11005 bound_to 11000
  145.8702  139.2268  143.1665 LP  0  0  0  0  0  0  0  0  0  0  0  0  # atno 17320 bound_to 7965
  146.0092  140.8451  142.9979 LP  0  0  0  0  0  0  0  0  0  0  0  0  # atno 17321 bound_to 7965
  139.7111  143.9376  152.2947 LP  0  0  0  0  0  0  0  0  0  0  0  0  # atno 17342 bound_to 10162
  139.9101  144.6861  150.8572 LP  0  0  0  0  0  0  0  0  0  0  0  0  # atno 17343 bound_to 10162
  156.2139  130.3668  149.8637 LP  0  0  0  0  0  0  0  0  0  0  0  0  # atno 17370 bound_to 10713
  156.6509  130.8743  151.3531 LP  0  0  0  0  0  0  0  0  0  0  0  0  # atno 17371 bound_to 10713
  141.1379  133.6571  156.3646 LP  0  0  0  0  0  0  0  0  0  0  0  0  # atno 17394 bound_to 11000
  140.5315  134.6208  157.5351 LP  0  0  0  0  0  0  0  0  0  0  0  0  # atno 17395 bound_to 11000

$$$$
