AV-unprocessed.smi:2270|AV-procd|sdf|9159|dock1
  -GOLD-   2272012363D 1   1.00000     0.00000
 Structure written by MMmdl.
 52 53  0  0  0  0  0  0  0  0  1 V2000
  153.4455  141.1203  160.4427 C   0  0  0  0  0  0  0  0  0  0  0  0
  152.7902  142.3054  159.7657 C   0  0  0  0  0  0  0  0  0  0  0  0
  152.9469  143.6090  160.2757 C   0  0  0  0  0  0  0  0  0  0  0  0
  152.3178  144.6670  159.5954 C   0  0  0  0  0  0  0  0  0  0  0  0
  151.5648  144.3803  158.4404 C   0  0  0  0  0  0  0  0  0  0  0  0
  151.4563  143.0431  157.9958 C   0  0  0  0  0  0  0  0  0  0  0  0
  150.6834  142.8595  156.8188 N   0  0  0  0  0  0  0  0  0  0  0  0
  150.3535  141.7044  156.2143 C   0  0  0  0  0  0  0  0  0  0  0  0
  150.6203  140.5793  156.6370 O   0  0  0  0  0  0  0  0  0  0  0  0
  149.6847  141.9304  155.0740 N   0  0  0  0  0  0  0  0  0  0  0  0
  149.1896  140.9091  154.1547 C   0  0  0  0  0  0  0  0  0  0  0  0
  147.8970  140.2212  154.6761 C   0  0  1  0  0  0  0  0  0  0  0  0
  146.8057  141.2152  155.1816 C   0  0  0  0  0  0  0  0  0  0  0  0
  146.4722  142.2817  154.1246 C   0  0  0  0  0  0  0  0  0  0  0  0
  147.0547  141.8678  156.5539 C   0  0  0  0  0  0  0  0  0  0  0  0
  147.3815  139.1425  153.8111 N   0  0  0  0  0  0  0  0  0  0  0  0
  146.4489  138.2092  154.4559 C   0  0  0  0  0  0  0  0  0  0  0  0
  146.0716  137.0549  153.5092 C   0  0  0  0  0  0  0  0  0  0  0  0
  145.4609  137.5518  152.2774 N   0  0  0  0  0  0  0  0  0  0  0  0
  145.0993  136.4629  151.3831 C   0  0  0  0  0  0  0  0  0  0  0  0
  146.3794  138.4905  151.6365 C   0  0  0  0  0  0  0  0  0  0  0  0
  146.7568  139.6443  152.5840 C   0  0  0  0  0  0  0  0  0  0  0  0
  152.0671  142.0298  158.6591 N   0  0  0  0  0  0  0  0  0  0  0  0
  153.8093  141.3848  161.4359 H   0  0  0  0  0  0  0  0  0  0  0  0
  154.2911  140.7700  159.8504 H   0  0  0  0  0  0  0  0  0  0  0  0
  152.7360  140.2990  160.5490 H   0  0  0  0  0  0  0  0  0  0  0  0
  153.5337  143.7958  161.1632 H   0  0  0  0  0  0  0  0  0  0  0  0
  152.4117  145.6821  159.9519 H   0  0  0  0  0  0  0  0  0  0  0  0
  151.0769  145.1816  157.9048 H   0  0  0  0  0  0  0  0  0  0  0  0
  150.3637  143.7068  156.3736 H   0  0  0  0  0  0  0  0  0  0  0  0
  149.5116  142.8898  154.8123 H   0  0  0  0  0  0  0  0  0  0  0  0
  149.0416  141.3215  153.1561 H   0  0  0  0  0  0  0  0  0  0  0  0
  149.9911  140.1784  154.0533 H   0  0  0  0  0  0  0  0  0  0  0  0
  148.2140  139.7274  155.5962 H   0  0  0  0  0  0  0  0  0  0  0  0
  145.8906  140.6345  155.2959 H   0  0  0  0  0  0  0  0  0  0  0  0
  147.3122  142.9569  153.9589 H   0  0  0  0  0  0  0  0  0  0  0  0
  145.6196  142.8868  154.4341 H   0  0  0  0  0  0  0  0  0  0  0  0
  146.2191  141.8243  153.1678 H   0  0  0  0  0  0  0  0  0  0  0  0
  147.7774  142.6802  156.4922 H   0  0  0  0  0  0  0  0  0  0  0  0
  147.4051  141.1531  157.2967 H   0  0  0  0  0  0  0  0  0  0  0  0
  146.1321  142.3026  156.9390 H   0  0  0  0  0  0  0  0  0  0  0  0
  146.8756  137.7890  155.3610 H   0  0  0  0  0  0  0  0  0  0  0  0
  145.5402  138.7313  154.7576 H   0  0  0  0  0  0  0  0  0  0  0  0
  146.9616  136.4679  153.2761 H   0  0  0  0  0  0  0  0  0  0  0  0
  145.3794  136.3830  154.0178 H   0  0  0  0  0  0  0  0  0  0  0  0
  144.6287  136.8473  150.4776 H   0  0  0  0  0  0  0  0  0  0  0  0
  144.3911  135.7875  151.8640 H   0  0  0  0  0  0  0  0  0  0  0  0
  145.9767  135.8843  151.0908 H   0  0  0  0  0  0  0  0  0  0  0  0
  147.2841  137.9704  151.3176 H   0  0  0  0  0  0  0  0  0  0  0  0
  145.9201  138.8983  150.7356 H   0  0  0  0  0  0  0  0  0  0  0  0
  145.8655  140.2268  152.8183 H   0  0  0  0  0  0  0  0  0  0  0  0
  147.4420  140.3158  152.0659 H   0  0  0  0  0  0  0  0  0  0  0  0
  1  2  1  0  0  0  0
  1 24  1  0  0  0  0
  1 25  1  0  0  0  0
  1 26  1  0  0  0  0
  2 23  1  0  0  0  0
  2  3  2  0  0  0  0
  3  4  1  0  0  0  0
  3 27  1  0  0  0  0
  4  5  2  0  0  0  0
  4 28  1  0  0  0  0
  5  6  1  0  0  0  0
  5 29  1  0  0  0  0
  6  7  1  0  0  0  0
  6 23  2  0  0  0  0
  7  8  1  0  0  0  0
  7 30  1  0  0  0  0
  8  9  2  0  0  0  0
  8 10  1  0  0  0  0
 10 11  1  0  0  0  0
 10 31  1  0  0  0  0
 11 12  1  0  0  0  0
 11 32  1  0  0  0  0
 11 33  1  0  0  0  0
 12 13  1  0  0  0  0
 12 16  1  0  0  0  0
 12 34  1  0  0  0  0
 13 14  1  0  0  0  0
 13 15  1  0  0  0  0
 13 35  1  0  0  0  0
 14 36  1  0  0  0  0
 14 37  1  0  0  0  0
 14 38  1  0  0  0  0
 15 39  1  0  0  0  0
 15 40  1  0  0  0  0
 15 41  1  0  0  0  0
 16 22  1  0  0  0  0
 16 17  1  0  0  0  0
 17 18  1  0  0  0  0
 17 42  1  0  0  0  0
 17 43  1  0  0  0  0
 18 19  1  0  0  0  0
 18 44  1  0  0  0  0
 18 45  1  0  0  0  0
 19 20  1  0  0  0  0
 19 21  1  0  0  0  0
 20 46  1  0  0  0  0
 20 47  1  0  0  0  0
 20 48  1  0  0  0  0
 21 22  1  0  0  0  0
 21 49  1  0  0  0  0
 21 50  1  0  0  0  0
 22 51  1  0  0  0  0
 22 52  1  0  0  0  0
M  END
> <s_m_source_file>
AV-unprocessed.smi

> <i_m_source_file_index>
2270

> <i_lp_mmshare_version>
43012

> <i_f3d_flags>
0

> <s_epik_input>
W0NIM11jMVtjSF1bY0hdW2NIXWMobjEpW05IXUMoPU8pW05IXVtDSDJdW0NASF0oW0NIXShbQ0gzXSlbQ0gzXSlOMltDSDJdW0NIMl1OKFtDSDNdKVtDSDJdW0NIMl0y

> <s_epik_cmdline>
J2VwaWtfcHl0aG9uJywgJy1waCcsICc3LjAnLCAnLXRuJywgJzgnLCAnLW1hJywgJzIwMCcsICctbWV0YWxfYmluZGluZycsICctaW1hZScsICc8aW5maWxlLm1hZT4nLCAnLW9tYWUnLCAnPG91dGZpbGUubWFlPic=

> <r_epik_Ionization_Penalty>
2.57754

> <r_epik_Ionization_Penalty_Charging>
0

> <r_epik_Ionization_Penalty_Neutral>
2.57754

> <r_epik_State_Penalty>
2.00874

> <r_epik_Charging_Adjusted_Penalty>
2.00874

> <i_epik_Tot_Q>
0

> <i_epik_Tot_abs_Q>
0

> <r_epik_Metal_State_Penalty>
2.00874

> <b_epik_Metal_Only>
0

> <s_lp_Force_Field>
OPLS_2005

> <r_lp_Energy>
49.2336

> <b_lp_Chiralities_Consistent>
1

> <s_lp_Variant>
AV-unprocessed.smi:2270-6

> <Gold.Version>
5.8.1

> <Gold.Id.Protein>
6NUR|6NUR_protein|mol2

> <Gold.PLP.Fitness>
49.6273

> <Gold.PLP.PLP>
-45.0276

> <Gold.PLP.part.hbond>
-2.0000

> <Gold.PLP.part.metal>
0.0000

> <Gold.PLP.part.buried>
-1.3561

> <Gold.PLP.part.nonpolar>
-41.4695

> <Gold.PLP.part.repulsive>
0.7124

> <Gold.PLP.ligand.clash>
0.0000

> <Gold.PLP.ligand.torsion>
0.6587

> <Gold.PLP.Chemscore.Hbond>
1.8160

> <Gold.PLP.Chemscore.CHOScore>
0.0000

> <Gold.PLP.Chemscore.Metal>
0.0000

> <Gold.Chemscore.Hbonds>
donor molecule, donor type, donor heavy atom, donor atom, acceptor molecule, acceptor atom, score
      L1  H     7    30       P1  8028  0.98
      L1  H    10    31       P1  8028  0.69

> <Gold.PLP.Chemscore.Internal.Correction>
0.4691

> <Gold.Rescore>
     Score         DG    S(hbond)    S(metal)    S(lipo)     H(rot)  DE(clash)    DE(int)     intcor
     19.19     -21.39       1.92        0.00     115.36       1.56       0.15       2.05       ----

> <Gold.Chemscore.Fitness>
19.1878

> <Gold.Chemscore.DG>
-21.3885

> <Gold.Chemscore.ZeroCoef>
-5.4800

> <Gold.Chemscore.Hbond>
1.9186

> <Gold.Chemscore.Metal>
0.0000

> <Gold.Chemscore.Lipo>
115.3581

> <Gold.Chemscore.Internal_Hbond>
0.0000

> <Gold.Chemscore.DEClash>
0.1489

> <Gold.Chemscore.DEInternal>
2.0519

> <Gold.Chemscore.Rot>
1.5612

> <Gold.Chemscore.Internal.Correction>
   9.000000E+99

> <Gold.Chemscore.Hbonds>
donor molecule, donor type, donor heavy atom, donor atom, acceptor molecule, acceptor atom, score
      L1  H     7    30       P1  8028  0.93
      L1  H    10    31       P1  8028  0.67

> <Gold.Chemscore.Hbond.Weighted>
-6.4082

> <Gold.Chemscore.Metal.Weighted>
-0.0000

> <Gold.Chemscore.Lipo.Weighted>
-13.4969

> <Gold.Chemscore.Internal_Hbond.Weighted>
0.0000

> <Gold.Chemscore.DEClash.Weighted>
0.1489

> <Gold.Chemscore.DEInternal.Weighted>
2.0519

> <Gold.Chemscore.Rot.Weighted>
3.9966

> <Gold.Chemscore.Internal.Correction.Weighted>
   9.000000E+99

> <Gold.Protein.RotatedTorsions>
[ 6907 6896 6895 6894 ] final -117.14 input  -60.11 | X-H torsion
[ 7974 7965 7964 7962 ] final   46.62 input  175.53 | X-H torsion
[ 8008 7997 7996 7995 ] final -111.72 input   59.86 | X-H torsion
[ 10167 10162 10161 10158 ] final  139.43 input  -65.29 | X-H torsion
[ 10718 10713 10712 10709 ] final   56.27 input   66.30 | X-H torsion
[ 10763 10752 10751 10750 ] final  102.25 input  -60.55 | X-H torsion
[ 11005 11000 10999 10996 ] final   73.68 input  -57.11 | X-H torsion

> <Gold.Protein.ActiveResidues>
 VAL166  LYS551  ARG553  GLY616  TRP617  ASP618  TYR619  PRO620  LYS621  CYS622 
 ASP623  PHE694  ASN695  SER759  ASP760  ASP761  ALA762  ILE779  LEU786  VAL792 
 PHE793  MET794  SER795  GLU796  ALA797  LYS798  CYS799  TRP800  GLU811  SER814 

> <Gold.Protein.RotatedAtoms>
  150.8113  133.8418  159.3181 H   0  0  0  0  0  0  0  0  0  0  0  0  # atno 6907 bound_to 6896
  151.6202  135.1031  160.0109 H   0  0  0  0  0  0  0  0  0  0  0  0  # atno 6908 bound_to 6896
  152.4204  133.7067  159.6512 H   0  0  0  0  0  0  0  0  0  0  0  0  # atno 6909 bound_to 6896
  146.0373  139.4836  142.9800 H   0  0  0  0  0  0  0  0  0  0  0  0  # atno 7974 bound_to 7965
  154.9941  140.0395  157.2332 H   0  0  0  0  0  0  0  0  0  0  0  0  # atno 8008 bound_to 7997
  154.7602  140.2783  155.6198 H   0  0  0  0  0  0  0  0  0  0  0  0  # atno 8009 bound_to 7997
  156.2902  140.2630  156.2378 H   0  0  0  0  0  0  0  0  0  0  0  0  # atno 8010 bound_to 7997
  139.5079  144.6295  151.5853 H   0  0  0  0  0  0  0  0  0  0  0  0  # atno 10167 bound_to 10162
  157.5416  130.8701  149.8830 H   0  0  0  0  0  0  0  0  0  0  0  0  # atno 10718 bound_to 10713
  153.3371  135.4017  155.1542 H   0  0  0  0  0  0  0  0  0  0  0  0  # atno 10763 bound_to 10752
  154.8636  135.3624  154.5394 H   0  0  0  0  0  0  0  0  0  0  0  0  # atno 10764 bound_to 10752
  153.5836  135.7076  153.5512 H   0  0  0  0  0  0  0  0  0  0  0  0  # atno 10765 bound_to 10752
  139.9428  134.7368  156.1056 H   0  0  0  0  0  0  0  0  0  0  0  0  # atno 11005 bound_to 11000
  145.6943  141.0155  143.1538 LP  0  0  0  0  0  0  0  0  0  0  0  0  # atno 17320 bound_to 7965
  144.7058  139.8569  143.7430 LP  0  0  0  0  0  0  0  0  0  0  0  0  # atno 17321 bound_to 7965
  140.6023  143.9587  150.6395 LP  0  0  0  0  0  0  0  0  0  0  0  0  # atno 17342 bound_to 10162
  140.2803  143.3394  152.1157 LP  0  0  0  0  0  0  0  0  0  0  0  0  # atno 17343 bound_to 10162
  156.0501  130.3719  150.1221 LP  0  0  0  0  0  0  0  0  0  0  0  0  # atno 17370 bound_to 10713
  156.9400  130.9741  151.3518 LP  0  0  0  0  0  0  0  0  0  0  0  0  # atno 17371 bound_to 10713
  141.1068  133.6657  156.2883 LP  0  0  0  0  0  0  0  0  0  0  0  0  # atno 17394 bound_to 11000
  140.5909  134.5651  157.5499 LP  0  0  0  0  0  0  0  0  0  0  0  0  # atno 17395 bound_to 11000

$$$$
