AV-unprocessed.smi:125|AV-procd|sdf|1149|dock10
  -GOLD-   2262018283D 1   1.00000     0.00000
 Structure written by MMmdl.
 59 62  0  0  0  0  0  0  0  0  1 V2000
  146.1028  133.0276  160.6201 C   0  0  0  0  0  0  0  0  0  0  0  0
  147.0082  134.0612  159.9711 C   0  0  0  0  0  0  0  0  0  0  0  0
  147.3451  133.8972  158.6112 C   0  0  0  0  0  0  0  0  0  0  0  0
  148.1808  134.8214  157.9572 C   0  0  0  0  0  0  0  0  0  0  0  0
  148.7069  135.9287  158.6622 C   0  0  0  0  0  0  0  0  0  0  0  0
  149.5413  136.9161  158.0716 N   0  0  0  0  0  0  0  0  0  0  0  0
  150.5775  137.5811  158.6144 C   0  0  0  0  0  0  0  0  0  0  0  0
  150.9364  137.4786  159.7880 O   0  0  0  0  0  0  0  0  0  0  0  0
  151.2921  138.5616  157.6719 C   0  0  0  0  0  0  0  0  0  0  0  0
  151.7965  139.7674  158.3646 N   0  0  0  0  0  0  0  0  0  0  0  0
  152.9979  139.6616  159.1089 C   0  0  0  0  0  0  0  0  0  0  0  0
  153.6149  138.5971  159.1763 O   0  0  0  0  0  0  0  0  0  0  0  0
  153.4359  140.8821  159.7762 C   0  0  0  0  0  0  0  0  0  0  0  0
  154.5762  140.8796  160.4873 F   0  0  0  0  0  0  0  0  0  0  0  0
  152.7153  142.0185  159.6874 C   0  0  0  0  0  0  0  0  0  0  0  0
  151.5337  142.1024  158.9743 N   0  0  0  0  0  0  0  0  0  0  0  0
  150.7534  143.3960  158.8965 C   0  0  2  0  0  0  0  0  0  0  0  0
  151.5756  144.4673  158.1715 C   0  0  0  0  0  0  0  0  0  0  0  0
  152.2322  145.1913  159.3268 C   0  0  0  0  0  0  0  0  0  0  0  0
  151.1434  145.1191  160.3908 C   0  0  0  0  0  0  0  0  0  0  0  0
  150.5070  143.8591  160.1934 O   0  0  0  0  0  0  0  0  0  0  0  0
  151.0520  140.9688  158.2840 C   0  0  0  0  0  0  0  0  0  0  0  0
  150.0101  141.0272  157.6277 O   0  0  0  0  0  0  0  0  0  0  0  0
  148.3603  136.1065  160.0159 C   0  0  0  0  0  0  0  0  0  0  0  0
  147.5211  135.1825  160.6741 C   0  0  0  0  0  0  0  0  0  0  0  0
  147.1587  135.4774  162.4137 S   0  0  0  0  0  0  0  0  0  0  0  0
  147.4501  134.2594  163.1860 O   0  0  0  0  0  0  0  0  0  0  0  0
  147.7823  136.7536  162.7969 O   0  0  0  0  0  0  0  0  0  0  0  0
  145.4397  135.6857  162.4140 N   0  0  0  0  0  0  0  0  0  0  0  0
  144.5678  134.5544  162.7683 C   0  0  0  0  0  0  0  0  0  0  0  0
  143.1527  135.0408  163.1234 C   0  0  0  0  0  0  0  0  0  0  0  0
  142.6412  135.8716  162.0920 O   0  0  0  0  0  0  0  0  0  0  0  0
  143.4246  137.0450  161.9339 C   0  0  0  0  0  0  0  0  0  0  0  0
  144.8501  136.6728  161.4977 C   0  0  0  0  0  0  0  0  0  0  0  0
  145.7395  132.3082  159.8856 H   0  0  0  0  0  0  0  0  0  0  0  0
  145.2284  133.4941  161.0709 H   0  0  0  0  0  0  0  0  0  0  0  0
  146.6392  132.4663  161.3834 H   0  0  0  0  0  0  0  0  0  0  0  0
  146.9576  133.0569  158.0540 H   0  0  0  0  0  0  0  0  0  0  0  0
  148.3912  134.6651  156.9107 H   0  0  0  0  0  0  0  0  0  0  0  0
  149.2969  137.1790  157.1278 H   0  0  0  0  0  0  0  0  0  0  0  0
  152.1098  138.0455  157.1655 H   0  0  0  0  0  0  0  0  0  0  0  0
  150.6035  138.8180  156.8657 H   0  0  0  0  0  0  0  0  0  0  0  0
  153.0907  142.8930  160.1978 H   0  0  0  0  0  0  0  0  0  0  0  0
  149.8076  143.1565  158.4084 H   0  0  0  0  0  0  0  0  0  0  0  0
  152.2780  144.0403  157.4548 H   0  0  0  0  0  0  0  0  0  0  0  0
  150.8914  145.1327  157.6435 H   0  0  0  0  0  0  0  0  0  0  0  0
  153.1208  144.6516  159.6559 H   0  0  0  0  0  0  0  0  0  0  0  0
  152.5234  146.2131  159.0826 H   0  0  0  0  0  0  0  0  0  0  0  0
  151.5369  145.2143  161.4029 H   0  0  0  0  0  0  0  0  0  0  0  0
  150.4086  145.9100  160.2355 H   0  0  0  0  0  0  0  0  0  0  0  0
  148.7505  136.9601  160.5501 H   0  0  0  0  0  0  0  0  0  0  0  0
  144.5303  133.8647  161.9245 H   0  0  0  0  0  0  0  0  0  0  0  0
  144.9866  134.0082  163.6131 H   0  0  0  0  0  0  0  0  0  0  0  0
  142.4869  134.1875  163.2534 H   0  0  0  0  0  0  0  0  0  0  0  0
  143.1577  135.5824  164.0707 H   0  0  0  0  0  0  0  0  0  0  0  0
  142.9594  137.6822  161.1817 H   0  0  0  0  0  0  0  0  0  0  0  0
  143.4407  137.6148  162.8643 H   0  0  0  0  0  0  0  0  0  0  0  0
  145.4759  137.5648  161.4654 H   0  0  0  0  0  0  0  0  0  0  0  0
  144.8372  136.2529  160.4914 H   0  0  0  0  0  0  0  0  0  0  0  0
  1  2  1  0  0  0  0
  1 35  1  0  0  0  0
  1 36  1  0  0  0  0
  1 37  1  0  0  0  0
  2 25  1  0  0  0  0
  2  3  2  0  0  0  0
  3  4  1  0  0  0  0
  3 38  1  0  0  0  0
  4  5  2  0  0  0  0
  4 39  1  0  0  0  0
  5  6  1  0  0  0  0
  5 24  1  0  0  0  0
  6  7  1  0  0  0  0
  6 40  1  0  0  0  0
  7  8  2  0  0  0  0
  7  9  1  0  0  0  0
  9 10  1  0  0  0  0
  9 41  1  0  0  0  0
  9 42  1  0  0  0  0
 10 22  1  0  0  0  0
 10 11  1  0  0  0  0
 11 12  2  0  0  0  0
 11 13  1  0  0  0  0
 13 14  1  0  0  0  0
 13 15  2  0  0  0  0
 15 16  1  0  0  0  0
 15 43  1  0  0  0  0
 16 17  1  0  0  0  0
 16 22  1  0  0  0  0
 17 21  1  0  0  0  0
 17 18  1  0  0  0  0
 17 44  1  0  0  0  0
 18 19  1  0  0  0  0
 18 45  1  0  0  0  0
 18 46  1  0  0  0  0
 19 20  1  0  0  0  0
 19 47  1  0  0  0  0
 19 48  1  0  0  0  0
 20 21  1  0  0  0  0
 20 49  1  0  0  0  0
 20 50  1  0  0  0  0
 22 23  2  0  0  0  0
 24 25  2  0  0  0  0
 24 51  1  0  0  0  0
 25 26  1  0  0  0  0
 26 27  2  0  0  0  0
 26 28  2  0  0  0  0
 26 29  1  0  0  0  0
 29 34  1  0  0  0  0
 29 30  1  0  0  0  0
 30 31  1  0  0  0  0
 30 52  1  0  0  0  0
 30 53  1  0  0  0  0
 31 32  1  0  0  0  0
 31 54  1  0  0  0  0
 31 55  1  0  0  0  0
 32 33  1  0  0  0  0
 33 34  1  0  0  0  0
 33 56  1  0  0  0  0
 33 57  1  0  0  0  0
 34 58  1  0  0  0  0
 34 59  1  0  0  0  0
M  END
> <s_m_source_file>
AV-unprocessed.smi

> <i_m_source_file_index>
125

> <i_lp_mmshare_version>
43012

> <i_f3d_flags>
0

> <s_epik_input>
W0NIMl0xW0NIMl1PW0NIMl1bQ0gyXU4xUyg9TykoPU8pYzJbY0hdYyhbY0hdW2NIXWMyW0NIM10pW05IXUMoPU8pW0NIMl1uM2MoPU8pYyhGKVtjSF1uKGMzPU8pW0NAQEhdNFtDSDJdW0NIMl1bQ0gyXU80

> <s_epik_cmdline>
J2VwaWtfcHl0aG9uJywgJy1waCcsICc3LjAnLCAnLXRuJywgJzgnLCAnLW1hJywgJzIwMCcsICctbWV0YWxfYmluZGluZycsICctaW1hZScsICc8aW5maWxlLm1hZT4nLCAnLW9tYWUnLCAnPG91dGZpbGUubWFlPic=

> <r_lp_tautomer_probability>
1

> <r_epik_Ionization_Penalty>
4.12263e-06

> <r_epik_Ionization_Penalty_Charging>
3.88729e-08

> <r_epik_Ionization_Penalty_Neutral>
4.08376e-06

> <r_epik_State_Penalty>
-0

> <r_epik_Charging_Adjusted_Penalty>
3.88729e-08

> <i_epik_Tot_Q>
0

> <i_epik_Tot_abs_Q>
0

> <r_epik_Metal_State_Penalty>
-0

> <b_epik_Metal_Only>
0

> <s_epik_Chemistry_Notes>
This compound contains an acetal/aminal-like group ( X-CH(R)-Y where X, Y are N, S, or O) that may be acid/base labile, releasing an aldehyde.

> <s_lp_Force_Field>
OPLS_2005

> <r_lp_Energy>
38.613

> <b_lp_Chiralities_Consistent>
1

> <s_lp_Variant>
AV-unprocessed.smi:125-1

> <Gold.Version>
5.8.1

> <Gold.Id.Protein>
6NUR|6NUR_protein|mol2

> <Gold.PLP.Fitness>
63.0399

> <Gold.PLP.PLP>
-62.5942

> <Gold.PLP.part.hbond>
-3.7819

> <Gold.PLP.part.metal>
0.0000

> <Gold.PLP.part.buried>
-10.0552

> <Gold.PLP.part.nonpolar>
-48.9633

> <Gold.PLP.part.repulsive>
0.3197

> <Gold.PLP.ligand.clash>
0.0000

> <Gold.PLP.ligand.torsion>
3.0618

> <Gold.PLP.Chemscore.Hbond>
0.8320

> <Gold.PLP.Chemscore.CHOScore>
0.0000

> <Gold.PLP.Chemscore.Metal>
0.0000

> <Gold.Chemscore.Hbonds>
donor molecule, donor type, donor heavy atom, donor atom, acceptor molecule, acceptor atom, score
      P1  H  6931  6943       L1    28  0.71

> <Gold.PLP.Chemscore.Internal.Correction>
4.0732

> <Gold.Rescore>
     Score         DG    S(hbond)    S(metal)    S(lipo)     H(rot)  DE(clash)    DE(int)     intcor
     12.55     -17.05       0.89        0.00     109.47       1.65       0.16       4.33       ----

> <Gold.Chemscore.Fitness>
12.5547

> <Gold.Chemscore.DG>
-17.0503

> <Gold.Chemscore.ZeroCoef>
-5.4800

> <Gold.Chemscore.Hbond>
0.8948

> <Gold.Chemscore.Metal>
0.0000

> <Gold.Chemscore.Lipo>
109.4715

> <Gold.Chemscore.Internal_Hbond>
0.0000

> <Gold.Chemscore.DEClash>
0.1625

> <Gold.Chemscore.DEInternal>
4.3331

> <Gold.Chemscore.Rot>
1.6510

> <Gold.Chemscore.Internal.Correction>
   9.000000E+99

> <Gold.Chemscore.Hbonds>
donor molecule, donor type, donor heavy atom, donor atom, acceptor molecule, acceptor atom, score
      P1  H  6931  6943       L1    28  0.67

> <Gold.Chemscore.Hbond.Weighted>
-2.9886

> <Gold.Chemscore.Metal.Weighted>
-0.0000

> <Gold.Chemscore.Lipo.Weighted>
-12.8082

> <Gold.Chemscore.Internal_Hbond.Weighted>
0.0000

> <Gold.Chemscore.DEClash.Weighted>
0.1625

> <Gold.Chemscore.DEInternal.Weighted>
4.3331

> <Gold.Chemscore.Rot.Weighted>
4.2265

> <Gold.Chemscore.Internal.Correction.Weighted>
   9.000000E+99

> <Gold.Protein.RotatedTorsions>
[ 6907 6896 6895 6894 ] final   53.27 input  -60.11 | X-H torsion
[ 7974 7965 7964 7962 ] final -153.85 input  175.53 | X-H torsion
[ 8008 7997 7996 7995 ] final -107.37 input   59.86 | X-H torsion
[ 10167 10162 10161 10158 ] final   28.40 input  -65.29 | X-H torsion
[ 10718 10713 10712 10709 ] final    3.25 input   66.30 | X-H torsion
[ 10763 10752 10751 10750 ] final   64.04 input  -60.55 | X-H torsion
[ 11005 11000 10999 10996 ] final -170.51 input  -57.11 | X-H torsion

> <Gold.Protein.ActiveResidues>
 VAL166  LYS551  ARG553  GLY616  TRP617  ASP618  TYR619  PRO620  LYS621  CYS622 
 ASP623  PHE694  ASN695  SER759  ASP760  ASP761  ALA762  ILE779  LEU786  VAL792 
 PHE793  MET794  SER795  GLU796  ALA797  LYS798  CYS799  TRP800  GLU811  SER814 

> <Gold.Protein.RotatedAtoms>
  152.3319  134.7248  160.0286 H   0  0  0  0  0  0  0  0  0  0  0  0  # atno 6907 bound_to 6896
  151.7662  133.3332  159.3439 H   0  0  0  0  0  0  0  0  0  0  0  0  # atno 6908 bound_to 6896
  150.7428  134.5992  159.6072 H   0  0  0  0  0  0  0  0  0  0  0  0  # atno 6909 bound_to 6896
  144.7719  140.4468  143.5901 H   0  0  0  0  0  0  0  0  0  0  0  0  # atno 7974 bound_to 7965
  154.9284  140.0405  157.2035 H   0  0  0  0  0  0  0  0  0  0  0  0  # atno 8008 bound_to 7997
  154.8185  140.2879  155.5782 H   0  0  0  0  0  0  0  0  0  0  0  0  # atno 8009 bound_to 7997
  156.2978  140.2523  156.3087 H   0  0  0  0  0  0  0  0  0  0  0  0  # atno 8010 bound_to 7997
  140.4856  144.0548  150.6279 H   0  0  0  0  0  0  0  0  0  0  0  0  # atno 10167 bound_to 10162
  156.8750  130.5633  149.5655 H   0  0  0  0  0  0  0  0  0  0  0  0  # atno 10718 bound_to 10713
  153.0040  135.5407  154.6446 H   0  0  0  0  0  0  0  0  0  0  0  0  # atno 10763 bound_to 10752
  154.5693  135.2840  155.0845 H   0  0  0  0  0  0  0  0  0  0  0  0  # atno 10764 bound_to 10752
  154.2017  135.6483  153.5141 H   0  0  0  0  0  0  0  0  0  0  0  0  # atno 10765 bound_to 10752
  140.5187  134.5731  157.5041 H   0  0  0  0  0  0  0  0  0  0  0  0  # atno 11005 bound_to 11000
  145.6299  139.1535  143.2975 LP  0  0  0  0  0  0  0  0  0  0  0  0  # atno 17320 bound_to 7965
  146.1872  140.6403  142.9162 LP  0  0  0  0  0  0  0  0  0  0  0  0  # atno 17321 bound_to 7965
  140.3802  143.2807  152.0179 LP  0  0  0  0  0  0  0  0  0  0  0  0  # atno 17342 bound_to 10162
  139.4841  144.6160  151.7344 LP  0  0  0  0  0  0  0  0  0  0  0  0  # atno 17343 bound_to 10162
  156.0706  130.5740  150.9376 LP  0  0  0  0  0  0  0  0  0  0  0  0  # atno 17370 bound_to 10713
  157.6173  131.0932  150.8686 LP  0  0  0  0  0  0  0  0  0  0  0  0  # atno 17371 bound_to 10713
  139.9618  134.7439  156.0221 LP  0  0  0  0  0  0  0  0  0  0  0  0  # atno 17394 bound_to 11000
  141.1346  133.6578  156.3558 LP  0  0  0  0  0  0  0  0  0  0  0  0  # atno 17395 bound_to 11000

$$$$
