AV-unprocessed.smi:2699|AV-procd|sdf|10425|dock8
  -GOLD-   2272014463D 1   1.00000     0.00000
 Structure written by MMmdl.
 43 45  0  0  0  0  0  0  0  0  1 V2000
  142.0244  134.9976  153.1386 C   0  0  0  0  0  0  0  0  0  0  0  0
  143.2512  134.7766  152.2626 C   0  0  0  0  0  0  0  0  0  0  0  0
  143.4833  133.5475  151.7458 C   0  0  0  0  0  0  0  0  0  0  0  0
  144.6390  133.3031  150.8655 C   0  0  0  0  0  0  0  0  0  0  0  0
  144.8917  132.1881  150.4138 O   0  0  0  0  0  0  0  0  0  0  0  0
  145.4678  134.4765  150.5566 C   0  0  0  0  0  0  0  0  0  0  0  0
  145.1617  135.6607  151.1201 C   0  0  0  0  0  0  0  0  0  0  0  0
  145.8723  136.7652  150.8455 O   0  0  0  0  0  0  0  0  0  0  0  0
  144.0945  135.8827  152.0135 N   0  0  0  0  0  0  0  0  0  0  0  0
  143.8855  137.1890  152.6652 C   0  0  0  0  0  0  0  0  0  0  0  0
  144.9494  137.5178  153.7302 C   0  0  0  0  0  0  0  0  0  0  0  0
  145.5730  136.6166  154.2889 O   0  0  0  0  0  0  0  0  0  0  0  0
  145.1807  138.8035  154.0369 N   0  0  0  0  0  0  0  0  0  0  0  0
  146.1429  139.3066  155.0129 C   0  0  0  0  0  0  0  0  0  0  0  0
  147.3791  139.9287  154.3359 C   0  0  0  0  0  0  0  0  0  0  0  0
  148.3580  138.7885  154.0361 C   0  0  0  0  0  0  0  0  0  0  0  0
  149.1120  138.0871  155.1377 C   0  0  0  0  0  0  0  0  0  0  0  0
  149.8627  138.9075  154.1054 C   0  0  0  0  0  0  0  0  0  0  0  0
  147.0922  140.8841  153.1566 C   0  0  0  0  0  0  0  0  0  0  0  0
  147.0870  142.0599  154.1315 C   0  0  0  0  0  0  0  0  0  0  0  0
  147.9209  141.1836  155.0647 C   0  0  0  0  0  0  0  0  0  0  0  0
  141.3010  134.1930  153.0023 H   0  0  0  0  0  0  0  0  0  0  0  0
  141.5092  135.9264  152.8953 H   0  0  0  0  0  0  0  0  0  0  0  0
  142.3071  135.0144  154.1913 H   0  0  0  0  0  0  0  0  0  0  0  0
  142.8199  132.7203  151.9530 H   0  0  0  0  0  0  0  0  0  0  0  0
  146.2984  134.3684  149.8740 H   0  0  0  0  0  0  0  0  0  0  0  0
  143.8555  137.9895  151.9270 H   0  0  0  0  0  0  0  0  0  0  0  0
  142.8981  137.2246  153.1258 H   0  0  0  0  0  0  0  0  0  0  0  0
  144.6336  139.4993  153.5510 H   0  0  0  0  0  0  0  0  0  0  0  0
  145.6353  140.0381  155.6431 H   0  0  0  0  0  0  0  0  0  0  0  0
  146.4552  138.4978  155.6751 H   0  0  0  0  0  0  0  0  0  0  0  0
  148.0211  138.1498  153.2218 H   0  0  0  0  0  0  0  0  0  0  0  0
  149.0384  138.4941  156.1441 H   0  0  0  0  0  0  0  0  0  0  0  0
  149.1910  137.0037  155.0779 H   0  0  0  0  0  0  0  0  0  0  0  0
  150.4395  138.3619  153.3616 H   0  0  0  0  0  0  0  0  0  0  0  0
  150.3082  139.8440  154.4297 H   0  0  0  0  0  0  0  0  0  0  0  0
  147.9178  140.9406  152.4449 H   0  0  0  0  0  0  0  0  0  0  0  0
  146.1438  140.7193  152.6443 H   0  0  0  0  0  0  0  0  0  0  0  0
  147.5943  142.9548  153.7699 H   0  0  0  0  0  0  0  0  0  0  0  0
  146.0950  142.2845  154.5259 H   0  0  0  0  0  0  0  0  0  0  0  0
  147.6406  141.2569  156.1161 H   0  0  0  0  0  0  0  0  0  0  0  0
  148.9870  141.3653  154.9373 H   0  0  0  0  0  0  0  0  0  0  0  0
  145.2584  137.4570  150.6531 H   0  0  0  0  0  0  0  0  0  0  0  0
  1  2  1  0  0  0  0
  1 22  1  0  0  0  0
  1 23  1  0  0  0  0
  1 24  1  0  0  0  0
  2  9  1  0  0  0  0
  2  3  2  0  0  0  0
  3  4  1  0  0  0  0
  3 25  1  0  0  0  0
  4  5  2  0  0  0  0
  4  6  1  0  0  0  0
  6  7  2  0  0  0  0
  6 26  1  0  0  0  0
  7  8  1  0  0  0  0
  7  9  1  0  0  0  0
  8 43  1  0  0  0  0
  9 10  1  0  0  0  0
 10 11  1  0  0  0  0
 10 27  1  0  0  0  0
 10 28  1  0  0  0  0
 11 12  2  0  0  0  0
 11 13  1  0  0  0  0
 13 14  1  0  0  0  0
 13 29  1  0  0  0  0
 14 15  1  0  0  0  0
 14 30  1  0  0  0  0
 14 31  1  0  0  0  0
 15 21  1  0  0  0  0
 15 16  1  0  0  0  0
 15 19  1  0  0  0  0
 16 18  1  0  0  0  0
 16 17  1  0  0  0  0
 16 32  1  0  0  0  0
 17 18  1  0  0  0  0
 17 33  1  0  0  0  0
 17 34  1  0  0  0  0
 18 35  1  0  0  0  0
 18 36  1  0  0  0  0
 19 20  1  0  0  0  0
 19 37  1  0  0  0  0
 19 38  1  0  0  0  0
 20 21  1  0  0  0  0
 20 39  1  0  0  0  0
 20 40  1  0  0  0  0
 21 41  1  0  0  0  0
 21 42  1  0  0  0  0
M  END
> <s_m_source_file>
AV-unprocessed.smi

> <i_m_source_file_index>
2699

> <i_lp_mmshare_version>
43012

> <i_f3d_flags>
0

> <s_epik_input>
W0NIM11jMVtjSF1jKFtPSF0pW2NIXWMoPU8pbjFbQ0gyXUMoPU8pW05IXVtDSDJdQzIoW0NIXTNbQ0gyXVtDSDJdMylbQ0gyXVtDSDJdW0NIMl0y

> <s_epik_cmdline>
J2VwaWtfcHl0aG9uJywgJy1waCcsICc3LjAnLCAnLXRuJywgJzgnLCAnLW1hJywgJzIwMCcsICctbWV0YWxfYmluZGluZycsICctaW1hZScsICc8aW5maWxlLm1hZT4nLCAnLW9tYWUnLCAnPG91dGZpbGUubWFlPic=

> <r_epik_Ionization_Penalty>
1.8336e-08

> <r_epik_Ionization_Penalty_Charging>
0

> <r_epik_Ionization_Penalty_Neutral>
1.8336e-08

> <r_epik_State_Penalty>
2.39433

> <r_epik_Charging_Adjusted_Penalty>
2.39433

> <i_epik_Tot_Q>
0

> <i_epik_Tot_abs_Q>
0

> <r_epik_Metal_State_Penalty>
2.39433

> <b_epik_Metal_Only>
0

> <s_lp_Force_Field>
OPLS_2005

> <r_lp_Energy>
30.2795

> <b_lp_Chiralities_Consistent>
1

> <s_lp_Variant>
AV-unprocessed.smi:2699-3

> <Gold.Version>
5.8.1

> <Gold.Id.Protein>
6NUR|6NUR_protein|mol2

> <Gold.PLP.Fitness>
40.8468

> <Gold.PLP.PLP>
-36.7993

> <Gold.PLP.part.hbond>
-2.2532

> <Gold.PLP.part.metal>
0.0000

> <Gold.PLP.part.buried>
-5.0349

> <Gold.PLP.part.nonpolar>
-29.4612

> <Gold.PLP.part.repulsive>
0.1867

> <Gold.PLP.ligand.clash>
0.0000

> <Gold.PLP.ligand.torsion>
1.8227

> <Gold.PLP.Chemscore.Hbond>
2.0000

> <Gold.PLP.Chemscore.CHOScore>
0.0000

> <Gold.PLP.Chemscore.Metal>
0.0000

> <Gold.Chemscore.Hbonds>
donor molecule, donor type, donor heavy atom, donor atom, acceptor molecule, acceptor atom, score
      L1  H     8    43       P1 10171  1.00
      L1  H    13    29       P1 10175  1.00

> <Gold.PLP.Chemscore.Internal.Correction>
1.6929

> <Gold.Rescore>
     Score         DG    S(hbond)    S(metal)    S(lipo)     H(rot)  DE(clash)    DE(int)     intcor
     12.24     -14.30       2.00        0.00      70.97       2.40       0.23       1.83       ----

> <Gold.Chemscore.Fitness>
12.2435

> <Gold.Chemscore.DG>
-14.2981

> <Gold.Chemscore.ZeroCoef>
-5.4800

> <Gold.Chemscore.Hbond>
1.9974

> <Gold.Chemscore.Metal>
0.0000

> <Gold.Chemscore.Lipo>
70.9680

> <Gold.Chemscore.Internal_Hbond>
0.0000

> <Gold.Chemscore.DEClash>
0.2284

> <Gold.Chemscore.DEInternal>
1.8262

> <Gold.Chemscore.Rot>
2.4048

> <Gold.Chemscore.Internal.Correction>
   9.000000E+99

> <Gold.Chemscore.Hbonds>
donor molecule, donor type, donor heavy atom, donor atom, acceptor molecule, acceptor atom, score
      L1  H     8    43       P1 10171  0.98
      L1  H    13    29       P1 10175  1.00

> <Gold.Chemscore.Hbond.Weighted>
-6.6712

> <Gold.Chemscore.Metal.Weighted>
-0.0000

> <Gold.Chemscore.Lipo.Weighted>
-8.3033

> <Gold.Chemscore.Internal_Hbond.Weighted>
0.0000

> <Gold.Chemscore.DEClash.Weighted>
0.2284

> <Gold.Chemscore.DEInternal.Weighted>
1.8262

> <Gold.Chemscore.Rot.Weighted>
6.1563

> <Gold.Chemscore.Internal.Correction.Weighted>
   9.000000E+99

> <Gold.Protein.RotatedTorsions>
[ 6907 6896 6895 6894 ] final   37.59 input  -60.11 | X-H torsion
[ 7974 7965 7964 7962 ] final  -35.57 input  175.53 | X-H torsion
[ 8008 7997 7996 7995 ] final -129.21 input   59.86 | X-H torsion
[ 10167 10162 10161 10158 ] final  119.70 input  -65.29 | X-H torsion
[ 10718 10713 10712 10709 ] final -118.25 input   66.30 | X-H torsion
[ 10763 10752 10751 10750 ] final    4.16 input  -60.55 | X-H torsion
[ 11005 11000 10999 10996 ] final   62.29 input  -57.11 | X-H torsion

> <Gold.Protein.ActiveResidues>
 VAL166  LYS551  ARG553  GLY616  TRP617  ASP618  TYR619  PRO620  LYS621  CYS622 
 ASP623  PHE694  ASN695  SER759  ASP760  ASP761  ALA762  ILE779  LEU786  VAL792 
 PHE793  MET794  SER795  GLU796  ALA797  LYS798  CYS799  TRP800  GLU811  SER814 

> <Gold.Protein.RotatedAtoms>
  152.1452  134.9031  160.0551 H   0  0  0  0  0  0  0  0  0  0  0  0  # atno 6907 bound_to 6896
  152.0084  133.3847  159.4218 H   0  0  0  0  0  0  0  0  0  0  0  0  # atno 6908 bound_to 6896
  150.6869  134.3679  159.5023 H   0  0  0  0  0  0  0  0  0  0  0  0  # atno 6909 bound_to 6896
  146.0735  140.6175  142.8941 H   0  0  0  0  0  0  0  0  0  0  0  0  # atno 7974 bound_to 7965
  155.2755  140.0442  157.3011 H   0  0  0  0  0  0  0  0  0  0  0  0  # atno 8008 bound_to 7997
  154.5628  140.2351  155.8278 H   0  0  0  0  0  0  0  0  0  0  0  0  # atno 8009 bound_to 7997
  156.2061  140.3012  155.9637 H   0  0  0  0  0  0  0  0  0  0  0  0  # atno 8010 bound_to 7997
  139.6029  144.7062  151.3020 H   0  0  0  0  0  0  0  0  0  0  0  0  # atno 10167 bound_to 10162
  156.1093  130.6235  150.9267 H   0  0  0  0  0  0  0  0  0  0  0  0  # atno 10718 bound_to 10713
  153.2746  135.6935  153.7446 H   0  0  0  0  0  0  0  0  0  0  0  0  # atno 10763 bound_to 10752
  153.6457  135.3385  155.3086 H   0  0  0  0  0  0  0  0  0  0  0  0  # atno 10764 bound_to 10752
  154.8475  135.4442  154.1779 H   0  0  0  0  0  0  0  0  0  0  0  0  # atno 10765 bound_to 10752
  140.0102  134.6307  155.9792 H   0  0  0  0  0  0  0  0  0  0  0  0  # atno 11005 bound_to 11000
  144.7247  140.4485  143.6982 LP  0  0  0  0  0  0  0  0  0  0  0  0  # atno 17320 bound_to 7965
  145.6348  139.1541  143.2948 LP  0  0  0  0  0  0  0  0  0  0  0  0  # atno 17321 bound_to 7965
  140.7263  143.6994  150.7857 LP  0  0  0  0  0  0  0  0  0  0  0  0  # atno 17342 bound_to 10162
  140.0573  143.5189  152.2644 LP  0  0  0  0  0  0  0  0  0  0  0  0  # atno 17343 bound_to 10162
  157.6272  131.0924  150.8510 LP  0  0  0  0  0  0  0  0  0  0  0  0  # atno 17370 bound_to 10713
  156.8624  130.5118  149.5302 LP  0  0  0  0  0  0  0  0  0  0  0  0  # atno 17371 bound_to 10713
  141.1706  133.6537  156.4637 LP  0  0  0  0  0  0  0  0  0  0  0  0  # atno 17394 bound_to 11000
  140.4567  134.6878  157.5066 LP  0  0  0  0  0  0  0  0  0  0  0  0  # atno 17395 bound_to 11000

$$$$
