AV-unprocessed.smi:1024|AV-procd|sdf|4464|dock6
  -GOLD-   22720 2443D 1   1.00000     0.00000
 Structure written by MMmdl.
 48 50  0  0  0  0  0  0  0  0  2 V2000
  146.8032  139.6550  156.7418 O   0  0  0  0  0  0  0  0  0  0  0  0
  147.5341  140.0612  155.8368 C   0  0  0  0  0  0  0  0  0  0  0  0
  147.5337  139.4966  154.6170 N   0  0  0  0  0  0  0  0  0  0  0  0
  146.7156  138.3563  154.2230 C   0  0  0  0  0  0  0  0  0  0  0  0
  146.5731  138.2676  152.6945 C   0  0  0  0  0  0  0  0  0  0  0  0
  145.6301  137.2206  152.3006 N   0  0  0  0  0  0  0  0  0  0  0  0
  144.2926  137.1484  152.5939 C   0  0  0  0  0  0  0  0  0  0  0  0
  143.8296  135.9920  152.0204 C   0  0  0  0  0  0  0  0  0  0  0  0
  144.9033  135.4084  151.4023 N   0  3  0  0  0  0  0  0  0  0  0  0
  145.9977  136.1569  151.5748 C   0  0  0  0  0  0  0  0  0  0  0  0
  148.3793  141.1137  155.9777 N   0  0  0  0  0  0  0  0  0  0  0  0
  149.5435  141.4164  155.1312 C   0  0  0  0  0  0  0  0  0  0  0  0
  150.8245  141.0565  155.9082 C   0  0  0  0  0  0  0  0  0  0  0  0
  150.9397  141.7943  157.2720 C   0  0  0  0  0  0  0  0  0  0  0  0
  152.0914  141.1409  158.0799 C   0  0  0  0  0  0  0  0  0  0  0  0
  152.4386  141.8957  159.3753 C   0  0  0  0  0  0  0  0  0  0  0  0
  152.7925  143.3600  159.0850 C   0  0  0  0  0  0  0  0  0  0  0  0
  151.6641  144.0573  158.3136 C   0  0  0  0  0  0  0  0  0  0  0  0
  151.3023  143.2881  157.0294 C   0  0  0  0  0  0  0  0  0  0  0  0
  149.5909  141.6407  158.0368 C   0  0  0  0  0  0  0  0  0  0  0  0
  148.3612  141.9697  157.1680 C   0  0  0  0  0  0  0  0  0  0  0  0
  148.1480  139.8858  153.9162 H   0  0  0  0  0  0  0  0  0  0  0  0
  147.1457  137.4365  154.6236 H   0  0  0  0  0  0  0  0  0  0  0  0
  145.7330  138.4649  154.6831 H   0  0  0  0  0  0  0  0  0  0  0  0
  146.2189  139.2138  152.2833 H   0  0  0  0  0  0  0  0  0  0  0  0
  147.5319  138.0513  152.2207 H   0  0  0  0  0  0  0  0  0  0  0  0
  143.7835  137.9043  153.1744 H   0  0  0  0  0  0  0  0  0  0  0  0
  142.8430  135.5522  152.0067 H   0  0  0  0  0  0  0  0  0  0  0  0
  146.9843  135.9433  151.2033 H   0  0  0  0  0  0  0  0  0  0  0  0
  149.5404  140.8951  154.1743 H   0  0  0  0  0  0  0  0  0  0  0  0
  149.5364  142.4757  154.8735 H   0  0  0  0  0  0  0  0  0  0  0  0
  150.8284  139.9784  156.0768 H   0  0  0  0  0  0  0  0  0  0  0  0
  151.6995  141.2615  155.2902 H   0  0  0  0  0  0  0  0  0  0  0  0
  151.8447  140.1059  158.3197 H   0  0  0  0  0  0  0  0  0  0  0  0
  152.9873  141.0952  157.4587 H   0  0  0  0  0  0  0  0  0  0  0  0
  151.6041  141.8473  160.0749 H   0  0  0  0  0  0  0  0  0  0  0  0
  153.2778  141.4073  159.8709 H   0  0  0  0  0  0  0  0  0  0  0  0
  152.9905  143.8885  160.0180 H   0  0  0  0  0  0  0  0  0  0  0  0
  153.7135  143.4038  158.5024 H   0  0  0  0  0  0  0  0  0  0  0  0
  150.7876  144.1612  158.9527 H   0  0  0  0  0  0  0  0  0  0  0  0
  151.9700  145.0723  158.0582 H   0  0  0  0  0  0  0  0  0  0  0  0
  152.1568  143.3428  156.3535 H   0  0  0  0  0  0  0  0  0  0  0  0
  150.4947  143.8110  156.5190 H   0  0  0  0  0  0  0  0  0  0  0  0
  149.4919  140.6124  158.3873 H   0  0  0  0  0  0  0  0  0  0  0  0
  149.5711  142.2555  158.9353 H   0  0  0  0  0  0  0  0  0  0  0  0
  148.3676  143.0172  156.8663 H   0  0  0  0  0  0  0  0  0  0  0  0
  147.4521  141.8472  157.7577 H   0  0  0  0  0  0  0  0  0  0  0  0
  144.8765  134.5364  150.8889 H   0  0  0  0  0  0  0  0  0  0  0  0
  1  2  2  0  0  0  0
  2  3  1  0  0  0  0
  2 11  1  0  0  0  0
  3  4  1  0  0  0  0
  3 22  1  0  0  0  0
  4  5  1  0  0  0  0
  4 23  1  0  0  0  0
  4 24  1  0  0  0  0
  5  6  1  0  0  0  0
  5 25  1  0  0  0  0
  5 26  1  0  0  0  0
  6 10  1  0  0  0  0
  6  7  1  0  0  0  0
  7  8  2  0  0  0  0
  7 27  1  0  0  0  0
  8  9  1  0  0  0  0
  8 28  1  0  0  0  0
  9 10  2  0  0  0  0
  9 48  1  0  0  0  0
 10 29  1  0  0  0  0
 11 21  1  0  0  0  0
 11 12  1  0  0  0  0
 12 13  1  0  0  0  0
 12 30  1  0  0  0  0
 12 31  1  0  0  0  0
 13 14  1  0  0  0  0
 13 32  1  0  0  0  0
 13 33  1  0  0  0  0
 14 19  1  0  0  0  0
 14 15  1  0  0  0  0
 14 20  1  0  0  0  0
 15 16  1  0  0  0  0
 15 34  1  0  0  0  0
 15 35  1  0  0  0  0
 16 17  1  0  0  0  0
 16 36  1  0  0  0  0
 16 37  1  0  0  0  0
 17 18  1  0  0  0  0
 17 38  1  0  0  0  0
 17 39  1  0  0  0  0
 18 19  1  0  0  0  0
 18 40  1  0  0  0  0
 18 41  1  0  0  0  0
 19 42  1  0  0  0  0
 19 43  1  0  0  0  0
 20 21  1  0  0  0  0
 20 44  1  0  0  0  0
 20 45  1  0  0  0  0
 21 46  1  0  0  0  0
 21 47  1  0  0  0  0
M  CHG  1   9   1
M  END
> <s_m_source_file>
AV-unprocessed.smi

> <i_m_source_file_index>
1024

> <i_lp_mmshare_version>
43012

> <i_f3d_flags>
0

> <s_epik_input>
W2NIXTFuW2NIXVtjSF1uMVtDSDJdW0NIMl1bTkhdQyg9TylOKFtDSDJdW0NIMl0yKVtDSDJdW0NIMl1DMjNbQ0gyXVtDSDJdW0NIMl1bQ0gyXVtDSDJdMw==

> <s_epik_cmdline>
J2VwaWtfcHl0aG9uJywgJy1waCcsICc3LjAnLCAnLXRuJywgJzgnLCAnLW1hJywgJzIwMCcsICctbWV0YWxfYmluZGluZycsICctaW1hZScsICc8aW5maWxlLm1hZT4nLCAnLW9tYWUnLCAnPG91dGZpbGUubWFlPic=

> <r_lp_tautomer_probability>
1

> <r_epik_Ionization_Penalty>
0.249817

> <r_epik_Ionization_Penalty_Charging>
0

> <r_epik_Ionization_Penalty_Neutral>
0.249817

> <r_epik_State_Penalty>
0.241048

> <r_epik_Charging_Adjusted_Penalty>
0.241048

> <i_epik_Tot_Q>
1

> <i_epik_Tot_abs_Q>
1

> <r_epik_Metal_State_Penalty>
0.532587

> <b_epik_Metal_Only>
0

> <s_lp_Force_Field>
OPLS_2005

> <r_lp_Energy>
44.4362

> <b_lp_Chiralities_Consistent>
1

> <s_lp_Variant>
AV-unprocessed.smi:1024-1

> <Gold.Version>
5.8.1

> <Gold.Id.Protein>
6NUR|6NUR_protein|mol2

> <Gold.PLP.Fitness>
40.0696

> <Gold.PLP.PLP>
-35.0384

> <Gold.PLP.part.hbond>
0.0000

> <Gold.PLP.part.metal>
0.0000

> <Gold.PLP.part.buried>
-0.1496

> <Gold.PLP.part.nonpolar>
-34.2915

> <Gold.PLP.part.repulsive>
0.0000

> <Gold.PLP.ligand.clash>
0.0000

> <Gold.PLP.ligand.torsion>
0.2619

> <Gold.PLP.Chemscore.Hbond>
0.0000

> <Gold.PLP.Chemscore.CHOScore>
1.8400

> <Gold.PLP.Chemscore.Metal>
0.0000

> <Gold.Chemscore.Hbonds>
donor molecule, donor type, donor heavy atom, donor atom, acceptor molecule, acceptor atom, score
      L1  C     7    27       P1 10175  0.65
      L1  C    10    29       P1  7948  1.00

> <Gold.PLP.Chemscore.Internal.Correction>
0.0348

> <Gold.Rescore>
     Score         DG    S(hbond)    S(metal)    S(lipo)     H(rot)  DE(clash)    DE(int)     intcor
     12.36     -12.95       0.00        0.00      98.28       1.57       0.31       0.28       ----

> <Gold.Chemscore.Fitness>
12.3627

> <Gold.Chemscore.DG>
-12.9472

> <Gold.Chemscore.ZeroCoef>
-5.4800

> <Gold.Chemscore.Hbond>
0.0000

> <Gold.Chemscore.Metal>
0.0000

> <Gold.Chemscore.Lipo>
98.2777

> <Gold.Chemscore.Internal_Hbond>
0.0000

> <Gold.Chemscore.DEClash>
0.3082

> <Gold.Chemscore.DEInternal>
0.2763

> <Gold.Chemscore.Rot>
1.5747

> <Gold.Chemscore.Internal.Correction>
   9.000000E+99

> <Gold.Chemscore.Hbond.Weighted>
-0.0000

> <Gold.Chemscore.Metal.Weighted>
-0.0000

> <Gold.Chemscore.Lipo.Weighted>
-11.4985

> <Gold.Chemscore.Internal_Hbond.Weighted>
0.0000

> <Gold.Chemscore.DEClash.Weighted>
0.3082

> <Gold.Chemscore.DEInternal.Weighted>
0.2763

> <Gold.Chemscore.Rot.Weighted>
4.0313

> <Gold.Chemscore.Internal.Correction.Weighted>
   9.000000E+99

> <Gold.Protein.RotatedTorsions>
[ 6907 6896 6895 6894 ] final -156.35 input  -60.11 | X-H torsion
[ 7974 7965 7964 7962 ] final -144.73 input  175.53 | X-H torsion
[ 8008 7997 7996 7995 ] final   66.78 input   59.86 | X-H torsion
[ 10167 10162 10161 10158 ] final   80.71 input  -65.29 | X-H torsion
[ 10718 10713 10712 10709 ] final -124.01 input   66.30 | X-H torsion
[ 10763 10752 10751 10750 ] final   61.10 input  -60.55 | X-H torsion
[ 11005 11000 10999 10996 ] final  169.07 input  -57.11 | X-H torsion

> <Gold.Protein.ActiveResidues>
 VAL166  LYS551  ARG553  GLY616  TRP617  ASP618  TYR619  PRO620  LYS621  CYS622 
 ASP623  PHE694  ASN695  SER759  ASP760  ASP761  ALA762  ILE779  LEU786  VAL792 
 PHE793  MET794  SER795  GLU796  ALA797  LYS798  CYS799  TRP800  GLU811  SER814 

> <Gold.Protein.RotatedAtoms>
  151.2862  133.4186  159.2629 H   0  0  0  0  0  0  0  0  0  0  0  0  # atno 6907 bound_to 6896
  151.0317  134.9544  159.8125 H   0  0  0  0  0  0  0  0  0  0  0  0  # atno 6908 bound_to 6896
  152.5347  134.2823  159.9064 H   0  0  0  0  0  0  0  0  0  0  0  0  # atno 6909 bound_to 6896
  144.8277  140.5673  143.5536 H   0  0  0  0  0  0  0  0  0  0  0  0  # atno 7974 bound_to 7965
  155.6828  140.3496  155.4862 H   0  0  0  0  0  0  0  0  0  0  0  0  # atno 8008 bound_to 7997
  155.9592  140.1134  157.0933 H   0  0  0  0  0  0  0  0  0  0  0  0  # atno 8009 bound_to 7997
  154.4139  140.1179  156.5142 H   0  0  0  0  0  0  0  0  0  0  0  0  # atno 8010 bound_to 7997
  139.9469  144.6052  150.8198 H   0  0  0  0  0  0  0  0  0  0  0  0  # atno 10167 bound_to 10162
  156.1551  130.6562  150.9969 H   0  0  0  0  0  0  0  0  0  0  0  0  # atno 10718 bound_to 10713
  152.9940  135.5513  154.5979 H   0  0  0  0  0  0  0  0  0  0  0  0  # atno 10763 bound_to 10752
  154.5327  135.2814  155.1168 H   0  0  0  0  0  0  0  0  0  0  0  0  # atno 10764 bound_to 10752
  154.2477  135.6404  153.5282 H   0  0  0  0  0  0  0  0  0  0  0  0  # atno 10765 bound_to 10752
  140.2939  134.7651  157.3861 H   0  0  0  0  0  0  0  0  0  0  0  0  # atno 11005 bound_to 11000
  145.4964  139.1485  143.3681 LP  0  0  0  0  0  0  0  0  0  0  0  0  # atno 17320 bound_to 7965
  146.2582  140.5103  142.8865 LP  0  0  0  0  0  0  0  0  0  0  0  0  # atno 17321 bound_to 7965
  140.7594  143.3129  151.2802 LP  0  0  0  0  0  0  0  0  0  0  0  0  # atno 17342 bound_to 10162
  139.6660  144.0105  152.2723 LP  0  0  0  0  0  0  0  0  0  0  0  0  # atno 17343 bound_to 10162
  157.6688  131.0866  150.7663 LP  0  0  0  0  0  0  0  0  0  0  0  0  # atno 17370 bound_to 10713
  156.7729  130.4834  149.5415 LP  0  0  0  0  0  0  0  0  0  0  0  0  # atno 17371 bound_to 10713
  140.1171  134.5269  155.8216 LP  0  0  0  0  0  0  0  0  0  0  0  0  # atno 17394 bound_to 11000
  141.2141  133.6743  156.6796 LP  0  0  0  0  0  0  0  0  0  0  0  0  # atno 17395 bound_to 11000

$$$$
