AV-unprocessed.smi:1033|AV-procd|sdf|4506|dock3
  -GOLD-   22720 2513D 1   1.00000     0.00000
 Structure written by MMmdl.
 57 59  0  0  0  0  0  0  0  0  3 V2000
  153.4220  142.9063  160.5713 C   0  0  0  0  0  0  0  0  0  0  0  0
  152.5163  142.5876  159.3947 C   0  0  0  0  0  0  0  0  0  0  0  0
  152.5799  141.3045  158.8063 C   0  0  0  0  0  0  0  0  0  0  0  0
  151.7559  140.9687  157.7101 C   0  0  0  0  0  0  0  0  0  0  0  0
  151.6494  139.7896  156.9931 N   0  0  0  0  0  0  0  0  0  0  0  0
  150.7128  140.1000  156.1022 C   0  0  0  0  0  0  0  0  0  0  0  0
  150.1908  141.3402  156.1635 N   0  0  0  0  0  0  0  0  0  0  0  0
  149.1541  141.8927  155.3111 C   0  0  0  0  0  0  0  0  0  0  0  0
  148.6390  140.8740  154.2753 C   0  0  2  0  0  0  0  0  0  0  0  0
  149.5084  140.9135  153.1620 O   0  0  0  0  0  0  0  0  0  0  0  0
  147.2016  141.1663  153.7897 C   0  0  0  0  0  0  0  0  0  0  0  0
  146.5276  139.9660  153.2316 N   0  3  2  0  0  0  0  0  0  0  0  0
  146.6279  138.7944  154.1365 C   0  0  0  0  0  0  0  0  0  0  0  0
  145.8500  137.5889  153.5796 C   0  0  0  0  0  0  0  0  0  0  0  0
  146.3079  137.2416  152.2122 N   0  3  1  0  0  0  0  0  0  0  0  0
  145.6485  136.0191  151.6846 C   0  0  0  0  0  0  0  0  0  0  0  0
  144.2171  135.8392  152.2273 C   0  0  2  0  0  0  0  0  0  0  0  0
  143.5346  134.5957  151.6423 C   0  0  0  0  0  0  0  0  0  0  0  0
  143.4482  136.9710  151.8739 O   0  0  0  0  0  0  0  0  0  0  0  0
  146.2020  138.4121  151.3042 C   0  0  0  0  0  0  0  0  0  0  0  0
  146.9801  139.6183  151.8599 C   0  0  0  0  0  0  0  0  0  0  0  0
  150.8592  141.9599  157.2144 C   0  0  0  0  0  0  0  0  0  0  0  0
  150.7867  143.2403  157.7910 C   0  0  0  0  0  0  0  0  0  0  0  0
  151.6174  143.5591  158.8856 C   0  0  0  0  0  0  0  0  0  0  0  0
  151.5333  144.9445  159.5009 C   0  0  0  0  0  0  0  0  0  0  0  0
  154.0210  142.0419  160.8589 H   0  0  0  0  0  0  0  0  0  0  0  0
  152.8331  143.2066  161.4382 H   0  0  0  0  0  0  0  0  0  0  0  0
  154.1050  143.7173  160.3175 H   0  0  0  0  0  0  0  0  0  0  0  0
  153.2657  140.5652  159.1932 H   0  0  0  0  0  0  0  0  0  0  0  0
  150.3808  139.3821  155.3664 H   0  0  0  0  0  0  0  0  0  0  0  0
  148.3368  142.2464  155.9411 H   0  0  0  0  0  0  0  0  0  0  0  0
  149.5607  142.7716  154.8086 H   0  0  0  0  0  0  0  0  0  0  0  0
  148.6994  139.8788  154.7147 H   0  0  0  0  0  0  0  0  0  0  0  0
  149.2704  140.2170  152.5677 H   0  0  0  0  0  0  0  0  0  0  0  0
  146.5859  141.5656  154.5961 H   0  0  0  0  0  0  0  0  0  0  0  0
  147.2498  141.9483  153.0301 H   0  0  0  0  0  0  0  0  0  0  0  0
  147.6781  138.5315  154.2747 H   0  0  0  0  0  0  0  0  0  0  0  0
  146.2334  139.0532  155.1200 H   0  0  0  0  0  0  0  0  0  0  0  0
  145.9900  136.7346  154.2430 H   0  0  0  0  0  0  0  0  0  0  0  0
  144.7806  137.8067  153.5621 H   0  0  0  0  0  0  0  0  0  0  0  0
  145.5985  136.0688  150.5952 H   0  0  0  0  0  0  0  0  0  0  0  0
  146.2610  135.1471  151.9192 H   0  0  0  0  0  0  0  0  0  0  0  0
  144.2214  135.7511  153.3132 H   0  0  0  0  0  0  0  0  0  0  0  0
  144.0825  133.6899  151.9036 H   0  0  0  0  0  0  0  0  0  0  0  0
  143.4765  134.6461  150.5541 H   0  0  0  0  0  0  0  0  0  0  0  0
  142.5193  134.4858  152.0251 H   0  0  0  0  0  0  0  0  0  0  0  0
  143.8364  137.3741  151.1112 H   0  0  0  0  0  0  0  0  0  0  0  0
  146.5904  138.1635  150.3172 H   0  0  0  0  0  0  0  0  0  0  0  0
  145.1517  138.6770  151.1717 H   0  0  0  0  0  0  0  0  0  0  0  0
  146.8458  140.4657  151.1886 H   0  0  0  0  0  0  0  0  0  0  0  0
  148.0484  139.3955  151.8745 H   0  0  0  0  0  0  0  0  0  0  0  0
  150.0981  143.9717  157.3950 H   0  0  0  0  0  0  0  0  0  0  0  0
  150.8033  145.5672  158.9831 H   0  0  0  0  0  0  0  0  0  0  0  0
  152.4996  145.4467  159.4460 H   0  0  0  0  0  0  0  0  0  0  0  0
  151.2356  144.8799  160.5477 H   0  0  0  0  0  0  0  0  0  0  0  0
  147.2889  137.0131  152.2933 H   0  0  0  0  0  0  0  0  0  0  0  0
  145.5457  140.1988  153.1745 H   0  0  0  0  0  0  0  0  0  0  0  0
  1  2  1  0  0  0  0
  1 26  1  0  0  0  0
  1 27  1  0  0  0  0
  1 28  1  0  0  0  0
  2 24  1  0  0  0  0
  2  3  2  0  0  0  0
  3  4  1  0  0  0  0
  3 29  1  0  0  0  0
  4 22  2  0  0  0  0
  4  5  1  0  0  0  0
  5  6  2  0  0  0  0
  6  7  1  0  0  0  0
  6 30  1  0  0  0  0
  7  8  1  0  0  0  0
  7 22  1  0  0  0  0
  8  9  1  0  0  0  0
  8 31  1  0  0  0  0
  8 32  1  0  0  0  0
  9 10  1  0  0  0  0
  9 11  1  0  0  0  0
  9 33  1  0  0  0  0
 10 34  1  0  0  0  0
 11 12  1  0  0  0  0
 11 35  1  0  0  0  0
 11 36  1  0  0  0  0
 12 21  1  0  0  0  0
 12 13  1  0  0  0  0
 12 57  1  0  0  0  0
 13 14  1  0  0  0  0
 13 37  1  0  0  0  0
 13 38  1  0  0  0  0
 14 15  1  0  0  0  0
 14 39  1  0  0  0  0
 14 40  1  0  0  0  0
 15 16  1  0  0  0  0
 15 20  1  0  0  0  0
 15 56  1  0  0  0  0
 16 17  1  0  0  0  0
 16 41  1  0  0  0  0
 16 42  1  0  0  0  0
 17 18  1  0  0  0  0
 17 19  1  0  0  0  0
 17 43  1  0  0  0  0
 18 44  1  0  0  0  0
 18 45  1  0  0  0  0
 18 46  1  0  0  0  0
 19 47  1  0  0  0  0
 20 21  1  0  0  0  0
 20 48  1  0  0  0  0
 20 49  1  0  0  0  0
 21 50  1  0  0  0  0
 21 51  1  0  0  0  0
 22 23  1  0  0  0  0
 23 24  2  0  0  0  0
 23 52  1  0  0  0  0
 24 25  1  0  0  0  0
 25 53  1  0  0  0  0
 25 54  1  0  0  0  0
 25 55  1  0  0  0  0
M  CHG  1  12   1
M  CHG  1  15   1
M  END
> <s_m_source_file>
AV-unprocessed.smi

> <i_m_source_file_index>
1033

> <i_lp_mmshare_version>
43012

> <i_f3d_flags>
0

> <s_epik_input>
W0NIM11jKFtjSF0xKWMoW0NIM10pW2NIXWMoYzEyKW4oW2NIXW4yKVtDSDJdW0NASF0oW09IXSlbQ0gyXU4zW0NIMl1bQ0gyXU4oW0NIMl1bQ0gyXTMpW0NIMl1bQ0BIXShbQ0gzXSlbT0hd

> <s_epik_cmdline>
J2VwaWtfcHl0aG9uJywgJy1waCcsICc3LjAnLCAnLXRuJywgJzgnLCAnLW1hJywgJzIwMCcsICctbWV0YWxfYmluZGluZycsICctaW1hZScsICc8aW5maWxlLm1hZT4nLCAnLW9tYWUnLCAnPG91dGZpbGUubWFlPic=

> <r_epik_Ionization_Penalty>
3.16016

> <r_epik_Ionization_Penalty_Charging>
3.07679

> <r_epik_Ionization_Penalty_Neutral>
0.083365

> <r_epik_State_Penalty>
2.09701

> <r_epik_Charging_Adjusted_Penalty>
5.1738

> <i_epik_Tot_Q>
2

> <i_epik_Tot_abs_Q>
2

> <r_epik_Metal_State_Penalty>
2.02534

> <b_epik_Metal_Only>
0

> <s_lp_Force_Field>
OPLS_2005

> <r_lp_Energy>
27.6073

> <b_lp_Chiralities_Consistent>
1

> <s_lp_Variant>
AV-unprocessed.smi:1033-17

> <Gold.Version>
5.8.1

> <Gold.Id.Protein>
6NUR|6NUR_protein|mol2

> <Gold.PLP.Fitness>
66.3227

> <Gold.PLP.PLP>
-48.0107

> <Gold.PLP.part.hbond>
-4.8503

> <Gold.PLP.part.metal>
0.0000

> <Gold.PLP.part.buried>
1.0672

> <Gold.PLP.part.nonpolar>
-46.0168

> <Gold.PLP.part.repulsive>
0.0459

> <Gold.PLP.ligand.clash>
0.0392

> <Gold.PLP.ligand.torsion>
1.0177

> <Gold.PLP.Chemscore.Hbond>
6.7006

> <Gold.PLP.Chemscore.CHOScore>
0.0000

> <Gold.PLP.Chemscore.Metal>
0.0000

> <Gold.Chemscore.Hbonds>
donor molecule, donor type, donor heavy atom, donor atom, acceptor molecule, acceptor atom, score
      L1  H    10    34       P1  7957  0.48
      L1  H    12    57       P1 10175  2.00
      L1  H    15    56       P1  7948  2.00
      L1  H    19    47       P1 10171  1.00
      P1  H  7989  7998       L1    10  0.14
      P1  H  8011  8017       L1    10  1.00

> <Gold.PLP.Chemscore.Internal.Correction>
0.2848

> <Gold.Rescore>
     Score         DG    S(hbond)    S(metal)    S(lipo)     H(rot)  DE(clash)    DE(int)     intcor
     22.58     -27.41       4.17        0.00     136.93       3.14       3.87       0.96       ----

> <Gold.Chemscore.Fitness>
22.5834

> <Gold.Chemscore.DG>
-27.4082

> <Gold.Chemscore.ZeroCoef>
-5.4800

> <Gold.Chemscore.Hbond>
4.1737

> <Gold.Chemscore.Metal>
0.0000

> <Gold.Chemscore.Lipo>
136.9333

> <Gold.Chemscore.Internal_Hbond>
0.0000

> <Gold.Chemscore.DEClash>
3.8673

> <Gold.Chemscore.DEInternal>
0.9576

> <Gold.Chemscore.Rot>
3.1380

> <Gold.Chemscore.Internal.Correction>
   9.000000E+99

> <Gold.Chemscore.Hbonds>
donor molecule, donor type, donor heavy atom, donor atom, acceptor molecule, acceptor atom, score
      L1  H    10    34       P1  7957  0.47
      L1  H    12    57       P1 10175  0.94
      L1  H    15    56       P1  7948  0.99
      L1  H    19    47       P1 10171  0.96
      P1  H  7989  7998       L1    10  0.10
      P1  H  8011  8017       L1    10  0.81

> <Gold.Chemscore.Hbond.Weighted>
-13.9402

> <Gold.Chemscore.Metal.Weighted>
-0.0000

> <Gold.Chemscore.Lipo.Weighted>
-16.0212

> <Gold.Chemscore.Internal_Hbond.Weighted>
0.0000

> <Gold.Chemscore.DEClash.Weighted>
3.8673

> <Gold.Chemscore.DEInternal.Weighted>
0.9576

> <Gold.Chemscore.Rot.Weighted>
8.0332

> <Gold.Chemscore.Internal.Correction.Weighted>
   9.000000E+99

> <Gold.Protein.RotatedTorsions>
[ 6907 6896 6895 6894 ] final   29.91 input  -60.11 | X-H torsion
[ 7974 7965 7964 7962 ] final  -30.73 input  175.53 | X-H torsion
[ 8008 7997 7996 7995 ] final  175.18 input   59.86 | X-H torsion
[ 10167 10162 10161 10158 ] final -107.81 input  -65.29 | X-H torsion
[ 10718 10713 10712 10709 ] final -105.37 input   66.30 | X-H torsion
[ 10763 10752 10751 10750 ] final    1.47 input  -60.55 | X-H torsion
[ 11005 11000 10999 10996 ] final  164.54 input  -57.11 | X-H torsion

> <Gold.Protein.ActiveResidues>
 VAL166  LYS551  ARG553  GLY616  TRP617  ASP618  TYR619  PRO620  LYS621  CYS622 
 ASP623  PHE694  ASN695  SER759  ASP760  ASP761  ALA762  ILE779  LEU786  VAL792 
 PHE793  MET794  SER795  GLU796  ALA797  LYS798  CYS799  TRP800  GLU811  SER814 

> <Gold.Protein.RotatedAtoms>
  152.0384  134.9726  160.0573 H   0  0  0  0  0  0  0  0  0  0  0  0  # atno 6907 bound_to 6896
  152.1174  133.4330  159.4668 H   0  0  0  0  0  0  0  0  0  0  0  0  # atno 6908 bound_to 6896
  150.6847  134.2494  159.4548 H   0  0  0  0  0  0  0  0  0  0  0  0  # atno 6909 bound_to 6896
  146.1121  140.5578  142.8773 H   0  0  0  0  0  0  0  0  0  0  0  0  # atno 7974 bound_to 7965
  156.0897  140.1415  156.9608 H   0  0  0  0  0  0  0  0  0  0  0  0  # atno 8008 bound_to 7997
  154.4634  140.0935  156.7003 H   0  0  0  0  0  0  0  0  0  0  0  0  # atno 8009 bound_to 7997
  155.4940  140.3449  155.4362 H   0  0  0  0  0  0  0  0  0  0  0  0  # atno 8010 bound_to 7997
  140.1729  143.4028  152.1340 H   0  0  0  0  0  0  0  0  0  0  0  0  # atno 10167 bound_to 10162
  156.0343  130.5560  150.7529 H   0  0  0  0  0  0  0  0  0  0  0  0  # atno 10718 bound_to 10713
  153.3077  135.6960  153.7145 H   0  0  0  0  0  0  0  0  0  0  0  0  # atno 10763 bound_to 10752
  153.6034  135.3458  155.2954 H   0  0  0  0  0  0  0  0  0  0  0  0  # atno 10764 bound_to 10752
  154.8567  135.4346  154.2206 H   0  0  0  0  0  0  0  0  0  0  0  0  # atno 10765 bound_to 10752
  140.2470  134.8006  157.3466 H   0  0  0  0  0  0  0  0  0  0  0  0  # atno 11005 bound_to 11000
  144.7520  140.5215  143.6795 LP  0  0  0  0  0  0  0  0  0  0  0  0  # atno 17320 bound_to 7965
  145.5642  139.1480  143.3324 LP  0  0  0  0  0  0  0  0  0  0  0  0  # atno 17321 bound_to 7965
  139.5330  144.7179  151.4991 LP  0  0  0  0  0  0  0  0  0  0  0  0  # atno 17342 bound_to 10162
  140.6570  143.8578  150.6846 LP  0  0  0  0  0  0  0  0  0  0  0  0  # atno 17343 bound_to 10162
  157.5068  131.0922  151.0247 LP  0  0  0  0  0  0  0  0  0  0  0  0  # atno 17370 bound_to 10713
  157.0613  130.5826  149.5386 LP  0  0  0  0  0  0  0  0  0  0  0  0  # atno 17371 bound_to 10713
  140.1596  134.4746  155.7904 LP  0  0  0  0  0  0  0  0  0  0  0  0  # atno 17394 bound_to 11000
  141.2205  133.6896  156.7521 LP  0  0  0  0  0  0  0  0  0  0  0  0  # atno 17395 bound_to 11000

$$$$
