AV-unprocessed.smi:1702|AV-procd|sdf|6845|dock8
  -GOLD-   22720 8 23D 1   1.00000     0.00000
 Structure written by MMmdl.
 44 46  0  0  0  0  0  0  0  0  2 V2000
  148.4777  131.7604  154.0317 C   0  0  0  0  0  0  0  0  0  0  0  0
  147.3836  132.8099  153.7906 C   0  0  2  0  0  0  0  0  0  0  0  0
  147.2111  133.1212  152.2944 C   0  0  0  0  0  0  0  0  0  0  0  0
  146.1342  134.1955  152.0672 C   0  0  0  0  0  0  0  0  0  0  0  0
  146.4459  135.4385  152.8223 N   0  3  1  0  0  0  0  0  0  0  0  0
  145.5000  136.5496  152.5420 C   0  0  0  0  0  0  0  0  0  0  0  0
  145.8102  137.8139  153.3674 C   0  0  2  0  0  0  0  0  0  0  0  0
  144.6369  138.6010  153.4443 O   0  0  0  0  0  0  0  0  0  0  0  0
  146.9419  138.6453  152.7329 C   0  0  0  0  0  0  0  0  0  0  0  0
  147.4336  139.6834  153.6216 N   0  0  0  0  0  0  0  0  0  0  0  0
  146.7970  140.8188  153.9678 C   0  0  0  0  0  0  0  0  0  0  0  0
  147.4291  141.6430  154.7978 N   0  0  0  0  0  0  0  0  0  0  0  0
  148.6129  140.9616  155.0219 C   0  0  0  0  0  0  0  0  0  0  0  0
  149.7288  141.3004  155.8199 C   0  0  0  0  0  0  0  0  0  0  0  0
  150.8419  140.4376  155.8959 C   0  0  0  0  0  0  0  0  0  0  0  0
  151.9030  140.7780  156.6654 F   0  0  0  0  0  0  0  0  0  0  0  0
  150.8562  139.2250  155.1750 C   0  0  0  0  0  0  0  0  0  0  0  0
  151.9288  138.4024  155.2530 F   0  0  0  0  0  0  0  0  0  0  0  0
  149.7561  138.8665  154.3722 C   0  0  0  0  0  0  0  0  0  0  0  0
  148.6473  139.7300  154.3004 C   0  0  0  0  0  0  0  0  0  0  0  0
  146.5864  135.1718  154.2770 C   0  0  0  0  0  0  0  0  0  0  0  0
  147.6720  134.1166  154.5481 C   0  0  0  0  0  0  0  0  0  0  0  0
  149.4482  132.1081  153.6761 H   0  0  0  0  0  0  0  0  0  0  0  0
  148.2483  130.8285  153.5142 H   0  0  0  0  0  0  0  0  0  0  0  0
  148.5754  131.5314  155.0934 H   0  0  0  0  0  0  0  0  0  0  0  0
  146.4436  132.4004  154.1638 H   0  0  0  0  0  0  0  0  0  0  0  0
  148.1590  133.4611  151.8742 H   0  0  0  0  0  0  0  0  0  0  0  0
  146.9422  132.2134  151.7531 H   0  0  0  0  0  0  0  0  0  0  0  0
  146.0660  134.4053  151.0005 H   0  0  0  0  0  0  0  0  0  0  0  0
  145.1583  133.8163  152.3747 H   0  0  0  0  0  0  0  0  0  0  0  0
  145.5159  136.7736  151.4742 H   0  0  0  0  0  0  0  0  0  0  0  0
  144.4798  136.2351  152.7685 H   0  0  0  0  0  0  0  0  0  0  0  0
  146.1059  137.5449  154.3811 H   0  0  0  0  0  0  0  0  0  0  0  0
  144.6876  139.2820  152.7899 H   0  0  0  0  0  0  0  0  0  0  0  0
  147.7809  137.9993  152.4709 H   0  0  0  0  0  0  0  0  0  0  0  0
  146.6054  139.1082  151.8044 H   0  0  0  0  0  0  0  0  0  0  0  0
  145.8149  141.0559  153.5852 H   0  0  0  0  0  0  0  0  0  0  0  0
  149.7297  142.2261  156.3757 H   0  0  0  0  0  0  0  0  0  0  0  0
  149.7676  137.9393  153.8191 H   0  0  0  0  0  0  0  0  0  0  0  0
  146.8515  136.0938  154.7959 H   0  0  0  0  0  0  0  0  0  0  0  0
  145.6285  134.8422  154.6829 H   0  0  0  0  0  0  0  0  0  0  0  0
  147.7342  133.9217  155.6193 H   0  0  0  0  0  0  0  0  0  0  0  0
  148.6449  134.5106  154.2499 H   0  0  0  0  0  0  0  0  0  0  0  0
  147.3522  135.7571  152.5090 H   0  0  0  0  0  0  0  0  0  0  0  0
  1  2  1  0  0  0  0
  1 23  1  0  0  0  0
  1 24  1  0  0  0  0
  1 25  1  0  0  0  0
  2 22  1  0  0  0  0
  2  3  1  0  0  0  0
  2 26  1  0  0  0  0
  3  4  1  0  0  0  0
  3 27  1  0  0  0  0
  3 28  1  0  0  0  0
  4  5  1  0  0  0  0
  4 29  1  0  0  0  0
  4 30  1  0  0  0  0
  5  6  1  0  0  0  0
  5 21  1  0  0  0  0
  5 44  1  0  0  0  0
  6  7  1  0  0  0  0
  6 31  1  0  0  0  0
  6 32  1  0  0  0  0
  7  8  1  0  0  0  0
  7  9  1  0  0  0  0
  7 33  1  0  0  0  0
  8 34  1  0  0  0  0
  9 10  1  0  0  0  0
  9 35  1  0  0  0  0
  9 36  1  0  0  0  0
 10 20  1  0  0  0  0
 10 11  1  0  0  0  0
 11 12  2  0  0  0  0
 11 37  1  0  0  0  0
 12 13  1  0  0  0  0
 13 20  2  0  0  0  0
 13 14  1  0  0  0  0
 14 15  2  0  0  0  0
 14 38  1  0  0  0  0
 15 16  1  0  0  0  0
 15 17  1  0  0  0  0
 17 18  1  0  0  0  0
 17 19  2  0  0  0  0
 19 20  1  0  0  0  0
 19 39  1  0  0  0  0
 21 22  1  0  0  0  0
 21 40  1  0  0  0  0
 21 41  1  0  0  0  0
 22 42  1  0  0  0  0
 22 43  1  0  0  0  0
M  CHG  1   5   1
M  END
> <s_m_source_file>
AV-unprocessed.smi

> <i_m_source_file_index>
1702

> <i_lp_mmshare_version>
43012

> <i_f3d_flags>
0

> <s_epik_input>
W0NIM11bQ0hdMVtDSDJdW0NIMl1OKFtDSDJdW0NIMl0xKVtDSDJdW0NASF0oW09IXSlbQ0gyXW4oW2NIXW4yKWMoYzIzKVtjSF1jKEYpYyhGKVtjSF0z

> <s_epik_cmdline>
J2VwaWtfcHl0aG9uJywgJy1waCcsICc3LjAnLCAnLXRuJywgJzgnLCAnLW1hJywgJzIwMCcsICctbWV0YWxfYmluZGluZycsICctaW1hZScsICc8aW5maWxlLm1hZT4nLCAnLW9tYWUnLCAnPG91dGZpbGUubWFlPic=

> <r_epik_Ionization_Penalty>
0.0135195

> <r_epik_Ionization_Penalty_Charging>
0.00181365

> <r_epik_Ionization_Penalty_Neutral>
0.0117059

> <r_epik_State_Penalty>
0.00902283

> <r_epik_Charging_Adjusted_Penalty>
0.0108365

> <i_epik_Tot_Q>
1

> <i_epik_Tot_abs_Q>
1

> <r_epik_Metal_State_Penalty>
9.09181e-06

> <b_epik_Metal_Only>
0

> <s_lp_Force_Field>
OPLS_2005

> <r_lp_Energy>
21.6828

> <b_lp_Chiralities_Consistent>
1

> <s_lp_Variant>
AV-unprocessed.smi:1702-1

> <Gold.Version>
5.8.1

> <Gold.Id.Protein>
6NUR|6NUR_protein|mol2

> <Gold.PLP.Fitness>
49.4590

> <Gold.PLP.PLP>
-39.1298

> <Gold.PLP.part.hbond>
-1.2968

> <Gold.PLP.part.metal>
0.0000

> <Gold.PLP.part.buried>
-1.8783

> <Gold.PLP.part.nonpolar>
-36.5021

> <Gold.PLP.part.repulsive>
0.1329

> <Gold.PLP.ligand.clash>
0.0000

> <Gold.PLP.ligand.torsion>
0.4407

> <Gold.PLP.Chemscore.Hbond>
2.7200

> <Gold.PLP.Chemscore.CHOScore>
1.0000

> <Gold.PLP.Chemscore.Metal>
0.0000

> <Gold.Chemscore.Hbonds>
donor molecule, donor type, donor heavy atom, donor atom, acceptor molecule, acceptor atom, score
      L1  H     5    44       P1  7948  2.00
      L1  H     8    34       P1 10175  0.59
      L1  C    11    37       P1 10175  1.00

> <Gold.PLP.Chemscore.Internal.Correction>
0.0506

> <Gold.Rescore>
     Score         DG    S(hbond)    S(metal)    S(lipo)     H(rot)  DE(clash)    DE(int)     intcor
     15.13     -15.62       1.86        0.00      82.95       2.26       0.01       0.48       ----

> <Gold.Chemscore.Fitness>
15.1310

> <Gold.Chemscore.DG>
-15.6232

> <Gold.Chemscore.ZeroCoef>
-5.4800

> <Gold.Chemscore.Hbond>
1.8650

> <Gold.Chemscore.Metal>
0.0000

> <Gold.Chemscore.Lipo>
82.9458

> <Gold.Chemscore.Internal_Hbond>
0.0000

> <Gold.Chemscore.DEClash>
0.0121

> <Gold.Chemscore.DEInternal>
0.4801

> <Gold.Chemscore.Rot>
2.2619

> <Gold.Chemscore.Internal.Correction>
   9.000000E+99

> <Gold.Chemscore.Hbonds>
donor molecule, donor type, donor heavy atom, donor atom, acceptor molecule, acceptor atom, score
      L1  H     5    44       P1  7948  1.00
      L1  H     8    34       P1 10175  0.59

> <Gold.Chemscore.Hbond.Weighted>
-6.2290

> <Gold.Chemscore.Metal.Weighted>
-0.0000

> <Gold.Chemscore.Lipo.Weighted>
-9.7047

> <Gold.Chemscore.Internal_Hbond.Weighted>
0.0000

> <Gold.Chemscore.DEClash.Weighted>
0.0121

> <Gold.Chemscore.DEInternal.Weighted>
0.4801

> <Gold.Chemscore.Rot.Weighted>
5.7904

> <Gold.Chemscore.Internal.Correction.Weighted>
   9.000000E+99

> <Gold.Protein.RotatedTorsions>
[ 6907 6896 6895 6894 ] final  135.84 input  -60.11 | X-H torsion
[ 7974 7965 7964 7962 ] final   34.92 input  175.53 | X-H torsion
[ 8008 7997 7996 7995 ] final  -70.77 input   59.86 | X-H torsion
[ 10167 10162 10161 10158 ] final  146.64 input  -65.29 | X-H torsion
[ 10718 10713 10712 10709 ] final    0.93 input   66.30 | X-H torsion
[ 10763 10752 10751 10750 ] final    2.62 input  -60.55 | X-H torsion
[ 11005 11000 10999 10996 ] final  154.37 input  -57.11 | X-H torsion

> <Gold.Protein.ActiveResidues>
 VAL166  LYS551  ARG553  GLY616  TRP617  ASP618  TYR619  PRO620  LYS621  CYS622 
 ASP623  PHE694  ASN695  SER759  ASP760  ASP761  ALA762  ILE779  LEU786  VAL792 
 PHE793  MET794  SER795  GLU796  ALA797  LYS798  CYS799  TRP800  GLU811  SER814 

> <Gold.Protein.RotatedAtoms>
  152.2960  133.5608  159.5587 H   0  0  0  0  0  0  0  0  0  0  0  0  # atno 6907 bound_to 6896
  150.7256  134.0360  159.3758 H   0  0  0  0  0  0  0  0  0  0  0  0  # atno 6908 bound_to 6896
  151.8263  135.0636  160.0482 H   0  0  0  0  0  0  0  0  0  0  0  0  # atno 6909 bound_to 6896
  146.1319  139.6208  142.9221 H   0  0  0  0  0  0  0  0  0  0  0  0  # atno 7974 bound_to 7965
  154.5037  140.0828  156.7850 H   0  0  0  0  0  0  0  0  0  0  0  0  # atno 8008 bound_to 7997
  155.3944  140.3434  155.4235 H   0  0  0  0  0  0  0  0  0  0  0  0  # atno 8009 bound_to 7997
  156.1488  140.1552  156.8790 H   0  0  0  0  0  0  0  0  0  0  0  0  # atno 8010 bound_to 7997
  139.4903  144.5814  151.6863 H   0  0  0  0  0  0  0  0  0  0  0  0  # atno 10167 bound_to 10162
  156.8407  130.5520  149.5678 H   0  0  0  0  0  0  0  0  0  0  0  0  # atno 10718 bound_to 10713
  153.2933  135.6950  153.7272 H   0  0  0  0  0  0  0  0  0  0  0  0  # atno 10763 bound_to 10752
  153.6214  135.3426  155.3013 H   0  0  0  0  0  0  0  0  0  0  0  0  # atno 10764 bound_to 10752
  154.8530  135.4387  154.2022 H   0  0  0  0  0  0  0  0  0  0  0  0  # atno 10765 bound_to 10752
  140.1483  134.8692  157.2421 H   0  0  0  0  0  0  0  0  0  0  0  0  # atno 11005 bound_to 11000
  145.5241  141.0430  143.2419 LP  0  0  0  0  0  0  0  0  0  0  0  0  # atno 17320 bound_to 7965
  144.7699  139.6758  143.7199 LP  0  0  0  0  0  0  0  0  0  0  0  0  # atno 17321 bound_to 7965
  140.5421  144.0562  150.6092 LP  0  0  0  0  0  0  0  0  0  0  0  0  # atno 17342 bound_to 10162
  140.3587  143.2920  152.0407 LP  0  0  0  0  0  0  0  0  0  0  0  0  # atno 17343 bound_to 10162
  156.0882  130.5875  150.9686 LP  0  0  0  0  0  0  0  0  0  0  0  0  # atno 17370 bound_to 10713
  157.6357  131.0916  150.8353 LP  0  0  0  0  0  0  0  0  0  0  0  0  # atno 17371 bound_to 10713
  140.2636  134.3542  155.7398 LP  0  0  0  0  0  0  0  0  0  0  0  0  # atno 17394 bound_to 11000
  141.2195  133.7383  156.9117 LP  0  0  0  0  0  0  0  0  0  0  0  0  # atno 17395 bound_to 11000

$$$$
