AV-unprocessed.smi:2528|AV-procd|sdf|9951|dock9
  -GOLD-   2272013593D 1   1.00000     0.00000
 Structure written by MMmdl.
 44 46  0  0  0  0  0  0  0  0  2 V2000
  149.0087  132.9605  155.0090 O   0  0  0  0  0  0  0  0  0  0  0  0
  148.8444  133.8013  154.1247 C   0  0  0  0  0  0  0  0  0  0  0  0
  149.4446  135.0004  154.1268 N   0  0  0  0  0  0  0  0  0  0  0  0
  150.3818  135.4670  155.1435 C   0  0  0  0  0  0  0  0  0  0  0  0
  151.0018  136.8234  154.7635 C   0  0  1  0  0  0  0  0  0  0  0  0
  149.9724  137.9654  154.8411 C   0  0  0  0  0  0  0  0  0  0  0  0
  150.6134  139.2660  154.5263 N   0  3  1  0  0  0  0  0  0  0  0  0
  149.6704  140.4147  154.5140 C   0  0  0  0  0  0  0  0  0  0  0  0
  149.2677  140.8544  155.9346 C   0  0  0  0  0  0  0  0  0  0  0  0
  150.5055  141.1465  156.7934 C   0  0  0  0  0  0  0  0  0  0  0  0
  151.4523  139.9379  156.7954 C   0  0  0  0  0  0  0  0  0  0  0  0
  151.8239  139.5212  155.3554 C   0  0  1  0  0  0  0  0  0  0  0  0
  152.7655  138.3016  155.3128 C   0  0  0  0  0  0  0  0  0  0  0  0
  152.0597  137.1200  155.6692 O   0  0  0  0  0  0  0  0  0  0  0  0
  148.0656  133.6484  153.0395 N   0  0  0  0  0  0  0  0  0  0  0  0
  147.2793  132.5226  152.6758 C   0  0  0  0  0  0  0  0  0  0  0  0
  146.4852  132.6960  151.5197 C   0  0  0  0  0  0  0  0  0  0  0  0
  145.6701  131.6375  151.0741 C   0  0  0  0  0  0  0  0  0  0  0  0
  145.6674  130.4325  151.7990 C   0  0  0  0  0  0  0  0  0  0  0  0
  146.4847  130.3437  152.9408 C   0  0  0  0  0  0  0  0  0  0  0  0
  147.2688  131.3560  153.3683 N   0  0  0  0  0  0  0  0  0  0  0  0
  149.2485  135.6320  153.3640 H   0  0  0  0  0  0  0  0  0  0  0  0
  149.8253  135.5670  156.0756 H   0  0  0  0  0  0  0  0  0  0  0  0
  151.1591  134.7235  155.3289 H   0  0  0  0  0  0  0  0  0  0  0  0
  151.3962  136.7578  153.7473 H   0  0  0  0  0  0  0  0  0  0  0  0
  149.1635  137.7829  154.1329 H   0  0  0  0  0  0  0  0  0  0  0  0
  149.5225  137.9918  155.8337 H   0  0  0  0  0  0  0  0  0  0  0  0
  150.1548  141.2473  154.0024 H   0  0  0  0  0  0  0  0  0  0  0  0
  148.7864  140.1656  153.9255 H   0  0  0  0  0  0  0  0  0  0  0  0
  148.6382  141.7430  155.8809 H   0  0  0  0  0  0  0  0  0  0  0  0
  148.6620  140.0827  156.4104 H   0  0  0  0  0  0  0  0  0  0  0  0
  151.0263  142.0207  156.4006 H   0  0  0  0  0  0  0  0  0  0  0  0
  150.2072  141.3939  157.8126 H   0  0  0  0  0  0  0  0  0  0  0  0
  152.3548  140.1852  157.3553 H   0  0  0  0  0  0  0  0  0  0  0  0
  150.9863  139.1060  157.3248 H   0  0  0  0  0  0  0  0  0  0  0  0
  152.3539  140.3592  154.9002 H   0  0  0  0  0  0  0  0  0  0  0  0
  153.1987  138.1840  154.3181 H   0  0  0  0  0  0  0  0  0  0  0  0
  153.5998  138.4394  156.0009 H   0  0  0  0  0  0  0  0  0  0  0  0
  148.0392  134.4220  152.3920 H   0  0  0  0  0  0  0  0  0  0  0  0
  146.4988  133.6286  150.9746 H   0  0  0  0  0  0  0  0  0  0  0  0
  145.0577  131.7494  150.1915 H   0  0  0  0  0  0  0  0  0  0  0  0
  145.0550  129.5988  151.4889 H   0  0  0  0  0  0  0  0  0  0  0  0
  146.5100  129.4367  153.5264 H   0  0  0  0  0  0  0  0  0  0  0  0
  150.9451  139.1714  153.5770 H   0  0  0  0  0  0  0  0  0  0  0  0
  1  2  2  0  0  0  0
  2  3  1  0  0  0  0
  2 15  1  0  0  0  0
  3  4  1  0  0  0  0
  3 22  1  0  0  0  0
  4  5  1  0  0  0  0
  4 23  1  0  0  0  0
  4 24  1  0  0  0  0
  5 14  1  0  0  0  0
  5  6  1  0  0  0  0
  5 25  1  0  0  0  0
  6  7  1  0  0  0  0
  6 26  1  0  0  0  0
  6 27  1  0  0  0  0
  7 12  1  0  0  0  0
  7  8  1  0  0  0  0
  7 44  1  0  0  0  0
  8  9  1  0  0  0  0
  8 28  1  0  0  0  0
  8 29  1  0  0  0  0
  9 10  1  0  0  0  0
  9 30  1  0  0  0  0
  9 31  1  0  0  0  0
 10 11  1  0  0  0  0
 10 32  1  0  0  0  0
 10 33  1  0  0  0  0
 11 12  1  0  0  0  0
 11 34  1  0  0  0  0
 11 35  1  0  0  0  0
 12 13  1  0  0  0  0
 12 36  1  0  0  0  0
 13 14  1  0  0  0  0
 13 37  1  0  0  0  0
 13 38  1  0  0  0  0
 15 16  1  0  0  0  0
 15 39  1  0  0  0  0
 16 21  1  0  0  0  0
 16 17  2  0  0  0  0
 17 18  1  0  0  0  0
 17 40  1  0  0  0  0
 18 19  2  0  0  0  0
 18 41  1  0  0  0  0
 19 20  1  0  0  0  0
 19 42  1  0  0  0  0
 20 21  2  0  0  0  0
 20 43  1  0  0  0  0
M  CHG  1   7   1
M  END
> <s_m_source_file>
AV-unprocessed.smi

> <i_m_source_file_index>
2528

> <i_lp_mmshare_version>
43012

> <i_f3d_flags>
0

> <s_epik_input>
bjFbY0hdW2NIXVtjSF1bY0hdYzFbTkhdQyg9TylbTkhdW0NIMl1bQ0BIXShbQ0gyXTIpT1tDSDJdW0NAQEhdKE4yMylbQ0gyXVtDSDJdW0NIMl1bQ0gyXTM=

> <s_epik_cmdline>
J2VwaWtfcHl0aG9uJywgJy1waCcsICc3LjAnLCAnLXRuJywgJzgnLCAnLW1hJywgJzIwMCcsICctbWV0YWxfYmluZGluZycsICctaW1hZScsICc8aW5maWxlLm1hZT4nLCAnLW9tYWUnLCAnPG91dGZpbGUubWFlPic=

> <r_epik_Ionization_Penalty>
0.0932337

> <r_epik_Ionization_Penalty_Charging>
0.0931942

> <r_epik_Ionization_Penalty_Neutral>
3.9565e-05

> <r_epik_State_Penalty>
0.0834605

> <r_epik_Charging_Adjusted_Penalty>
0.176655

> <i_epik_Tot_Q>
1

> <i_epik_Tot_abs_Q>
1

> <r_epik_Metal_State_Penalty>
0.0834607

> <b_epik_Metal_Only>
0

> <s_lp_Force_Field>
OPLS_2005

> <r_lp_Energy>
26.7775

> <b_lp_Chiralities_Consistent>
1

> <s_lp_Variant>
AV-unprocessed.smi:2528-4

> <Gold.Version>
5.8.1

> <Gold.Id.Protein>
6NUR|6NUR_protein|mol2

> <Gold.PLP.Fitness>
43.6850

> <Gold.PLP.PLP>
-36.5731

> <Gold.PLP.part.hbond>
-3.4503

> <Gold.PLP.part.metal>
0.0000

> <Gold.PLP.part.buried>
-2.0766

> <Gold.PLP.part.nonpolar>
-31.8009

> <Gold.PLP.part.repulsive>
0.3003

> <Gold.PLP.ligand.clash>
0.0000

> <Gold.PLP.ligand.torsion>
0.0728

> <Gold.PLP.Chemscore.Hbond>
2.4189

> <Gold.PLP.Chemscore.CHOScore>
0.0000

> <Gold.PLP.Chemscore.Metal>
0.0000

> <Gold.Chemscore.Hbonds>
donor molecule, donor type, donor heavy atom, donor atom, acceptor molecule, acceptor atom, score
      L1  H     3    22       P1  7948  1.00
      L1  H    15    39       P1  7948  0.86
      P1  H 10752 10765       L1    14  0.49

> <Gold.PLP.Chemscore.Internal.Correction>
0.0006

> <Gold.Rescore>
     Score         DG    S(hbond)    S(metal)    S(lipo)     H(rot)  DE(clash)    DE(int)     intcor
     15.69     -17.15       1.60        0.00      82.22       1.29       0.13       1.33       ----

> <Gold.Chemscore.Fitness>
15.6894

> <Gold.Chemscore.DG>
-17.1539

> <Gold.Chemscore.ZeroCoef>
-5.4800

> <Gold.Chemscore.Hbond>
1.6013

> <Gold.Chemscore.Metal>
0.0000

> <Gold.Chemscore.Lipo>
82.2247

> <Gold.Chemscore.Internal_Hbond>
0.0000

> <Gold.Chemscore.DEClash>
0.1298

> <Gold.Chemscore.DEInternal>
1.3347

> <Gold.Chemscore.Rot>
1.2870

> <Gold.Chemscore.Internal.Correction>
   9.000000E+99

> <Gold.Chemscore.Hbonds>
donor molecule, donor type, donor heavy atom, donor atom, acceptor molecule, acceptor atom, score
      L1  H     3    22       P1  7948  0.44
      L1  H    15    39       P1  7948  0.24
      P1  H 10752 10765       L1    14  0.03

> <Gold.Chemscore.Hbond.Weighted>
-5.3484

> <Gold.Chemscore.Metal.Weighted>
-0.0000

> <Gold.Chemscore.Lipo.Weighted>
-9.6203

> <Gold.Chemscore.Internal_Hbond.Weighted>
0.0000

> <Gold.Chemscore.DEClash.Weighted>
0.1298

> <Gold.Chemscore.DEInternal.Weighted>
1.3347

> <Gold.Chemscore.Rot.Weighted>
3.2948

> <Gold.Chemscore.Internal.Correction.Weighted>
   9.000000E+99

> <Gold.Protein.RotatedTorsions>
[ 6907 6896 6895 6894 ] final   99.76 input  -60.11 | X-H torsion
[ 7974 7965 7964 7962 ] final -136.13 input  175.53 | X-H torsion
[ 8008 7997 7996 7995 ] final -119.09 input   59.86 | X-H torsion
[ 10167 10162 10161 10158 ] final   79.71 input  -65.29 | X-H torsion
[ 10718 10713 10712 10709 ] final -122.76 input   66.30 | X-H torsion
[ 10763 10752 10751 10750 ] final -144.92 input  -60.55 | X-H torsion
[ 11005 11000 10999 10996 ] final  135.00 input  -57.11 | X-H torsion

> <Gold.Protein.ActiveResidues>
 VAL166  LYS551  ARG553  GLY616  TRP617  ASP618  TYR619  PRO620  LYS621  CYS622 
 ASP623  PHE694  ASN695  SER759  ASP760  ASP761  ALA762  ILE779  LEU786  VAL792 
 PHE793  MET794  SER795  GLU796  ALA797  LYS798  CYS799  TRP800  GLU811  SER814 

> <Gold.Protein.RotatedAtoms>
  152.5386  134.0379  159.8054 H   0  0  0  0  0  0  0  0  0  0  0  0  # atno 6907 bound_to 6896
  151.0540  133.5592  159.2647 H   0  0  0  0  0  0  0  0  0  0  0  0  # atno 6908 bound_to 6896
  151.2516  135.0632  159.9118 H   0  0  0  0  0  0  0  0  0  0  0  0  # atno 6909 bound_to 6896
  144.8954  140.6699  143.5119 H   0  0  0  0  0  0  0  0  0  0  0  0  # atno 7974 bound_to 7965
  155.1102  140.0397  157.2722 H   0  0  0  0  0  0  0  0  0  0  0  0  # atno 8008 bound_to 7997
  154.6691  140.2608  155.7000 H   0  0  0  0  0  0  0  0  0  0  0  0  # atno 8009 bound_to 7997
  156.2651  140.2801  156.1193 H   0  0  0  0  0  0  0  0  0  0  0  0  # atno 8010 bound_to 7997
  139.9574  144.5984  150.8103 H   0  0  0  0  0  0  0  0  0  0  0  0  # atno 10167 bound_to 10162
  156.1445  130.6490  150.9822 H   0  0  0  0  0  0  0  0  0  0  0  0  # atno 10718 bound_to 10713
  154.8406  135.3427  154.6423 H   0  0  0  0  0  0  0  0  0  0  0  0  # atno 10763 bound_to 10752
  153.7034  135.6968  153.5061 H   0  0  0  0  0  0  0  0  0  0  0  0  # atno 10764 bound_to 10752
  153.2505  135.4355  155.0747 H   0  0  0  0  0  0  0  0  0  0  0  0  # atno 10765 bound_to 10752
  139.9951  134.9500  156.9946 H   0  0  0  0  0  0  0  0  0  0  0  0  # atno 11005 bound_to 11000
  145.3710  139.1659  143.4332 LP  0  0  0  0  0  0  0  0  0  0  0  0  # atno 17320 bound_to 7965
  146.3078  140.3781  142.8681 LP  0  0  0  0  0  0  0  0  0  0  0  0  # atno 17321 bound_to 7965
  140.7564  143.3065  151.2950 LP  0  0  0  0  0  0  0  0  0  0  0  0  # atno 17342 bound_to 10162
  139.6580  144.0240  152.2673 LP  0  0  0  0  0  0  0  0  0  0  0  0  # atno 17343 bound_to 10162
  157.6605  131.0882  150.7850 LP  0  0  0  0  0  0  0  0  0  0  0  0  # atno 17370 bound_to 10713
  156.7922  130.4894  149.5383 LP  0  0  0  0  0  0  0  0  0  0  0  0  # atno 17371 bound_to 10713
  140.4833  134.1267  155.7220 LP  0  0  0  0  0  0  0  0  0  0  0  0  # atno 17394 bound_to 11000
  141.1598  133.8814  157.1879 LP  0  0  0  0  0  0  0  0  0  0  0  0  # atno 17395 bound_to 11000

$$$$
