AV-unprocessed.smi:1211|AV-procd|sdf|5078|dock10
  -GOLD-   22720 4133D 1   1.00000     0.00000
 Structure written by MMmdl.
 47 49  0  0  0  0  0  0  0  0  1 V2000
  151.3055  144.9796  158.4135 C   0  0  0  0  0  0  0  0  0  0  0  0
  151.8796  143.6199  158.7779 C   0  0  0  0  0  0  0  0  0  0  0  0
  152.8068  143.5239  159.8373 C   0  0  0  0  0  0  0  0  0  0  0  0
  153.3360  142.2662  160.1739 C   0  0  0  0  0  0  0  0  0  0  0  0
  152.9114  141.1503  159.4326 C   0  0  0  0  0  0  0  0  0  0  0  0
  152.0259  141.2328  158.4189 N   0  0  0  0  0  0  0  0  0  0  0  0
  151.5063  142.4396  158.0806 C   0  0  0  0  0  0  0  0  0  0  0  0
  150.5703  142.6030  157.0210 N   0  0  0  0  0  0  0  0  0  0  0  0
  150.2600  141.7407  156.0370 C   0  0  0  0  0  0  0  0  0  0  0  0
  150.7480  140.6203  155.8859 O   0  0  0  0  0  0  0  0  0  0  0  0
  149.3312  142.2548  155.2218 N   0  0  0  0  0  0  0  0  0  0  0  0
  148.7647  141.5651  154.0670 C   0  0  0  0  0  0  0  0  0  0  0  0
  147.2288  141.3261  154.2275 C   0  0  1  0  0  0  0  0  0  0  0  0
  146.5062  142.6335  154.2958 N   0  0  0  0  0  0  0  0  0  0  0  0
  146.2514  143.3021  153.0116 C   0  0  0  0  0  0  0  0  0  0  0  0
  145.5815  144.6760  153.1892 C   0  0  0  0  0  0  0  0  0  0  0  0
  144.3738  144.5330  153.9242 O   0  0  0  0  0  0  0  0  0  0  0  0
  144.5916  143.9600  155.2064 C   0  0  0  0  0  0  0  0  0  0  0  0
  145.2463  142.5778  155.0499 C   0  0  0  0  0  0  0  0  0  0  0  0
  146.7694  140.4265  153.0432 C   0  0  0  0  0  0  0  0  0  0  0  0
  147.3088  139.0060  153.2468 C   0  0  0  0  0  0  0  0  0  0  0  0
  147.3778  138.7044  155.0284 S   0  0  0  0  0  0  0  0  0  0  0  0
  147.0010  140.4240  155.4673 C   0  0  0  0  0  0  0  0  0  0  0  0
  151.7119  145.7655  159.0507 H   0  0  0  0  0  0  0  0  0  0  0  0
  150.2214  144.9801  158.5304 H   0  0  0  0  0  0  0  0  0  0  0  0
  151.5434  145.2301  157.3794 H   0  0  0  0  0  0  0  0  0  0  0  0
  153.1109  144.4021  160.3878 H   0  0  0  0  0  0  0  0  0  0  0  0
  154.0478  142.1595  160.9791 H   0  0  0  0  0  0  0  0  0  0  0  0
  153.2929  140.1656  159.6586 H   0  0  0  0  0  0  0  0  0  0  0  0
  150.0775  143.4835  157.0139 H   0  0  0  0  0  0  0  0  0  0  0  0
  148.9769  143.1801  155.4157 H   0  0  0  0  0  0  0  0  0  0  0  0
  148.9885  142.1473  153.1734 H   0  0  0  0  0  0  0  0  0  0  0  0
  149.3010  140.6282  153.9166 H   0  0  0  0  0  0  0  0  0  0  0  0
  147.1779  143.4795  152.4710 H   0  0  0  0  0  0  0  0  0  0  0  0
  145.6194  142.6846  152.3745 H   0  0  0  0  0  0  0  0  0  0  0  0
  146.2497  145.3680  153.7042 H   0  0  0  0  0  0  0  0  0  0  0  0
  145.3558  145.1142  152.2170 H   0  0  0  0  0  0  0  0  0  0  0  0
  145.2200  144.6187  155.8078 H   0  0  0  0  0  0  0  0  0  0  0  0
  143.6359  143.8700  155.7227 H   0  0  0  0  0  0  0  0  0  0  0  0
  144.5444  141.9066  154.5538 H   0  0  0  0  0  0  0  0  0  0  0  0
  145.4045  142.1828  156.0509 H   0  0  0  0  0  0  0  0  0  0  0  0
  145.6875  140.3186  153.0249 H   0  0  0  0  0  0  0  0  0  0  0  0
  147.0544  140.8288  152.0707 H   0  0  0  0  0  0  0  0  0  0  0  0
  146.6836  138.2612  152.7544 H   0  0  0  0  0  0  0  0  0  0  0  0
  148.3127  138.9088  152.8333 H   0  0  0  0  0  0  0  0  0  0  0  0
  147.5971  140.7331  156.3265 H   0  0  0  0  0  0  0  0  0  0  0  0
  145.9596  140.4361  155.7845 H   0  0  0  0  0  0  0  0  0  0  0  0
  1  2  1  0  0  0  0
  1 24  1  0  0  0  0
  1 25  1  0  0  0  0
  1 26  1  0  0  0  0
  2  7  1  0  0  0  0
  2  3  2  0  0  0  0
  3  4  1  0  0  0  0
  3 27  1  0  0  0  0
  4  5  2  0  0  0  0
  4 28  1  0  0  0  0
  5  6  1  0  0  0  0
  5 29  1  0  0  0  0
  6  7  2  0  0  0  0
  7  8  1  0  0  0  0
  8  9  1  0  0  0  0
  8 30  1  0  0  0  0
  9 10  2  0  0  0  0
  9 11  1  0  0  0  0
 11 12  1  0  0  0  0
 11 31  1  0  0  0  0
 12 13  1  0  0  0  0
 12 32  1  0  0  0  0
 12 33  1  0  0  0  0
 13 23  1  0  0  0  0
 13 14  1  0  0  0  0
 13 20  1  0  0  0  0
 14 19  1  0  0  0  0
 14 15  1  0  0  0  0
 15 16  1  0  0  0  0
 15 34  1  0  0  0  0
 15 35  1  0  0  0  0
 16 17  1  0  0  0  0
 16 36  1  0  0  0  0
 16 37  1  0  0  0  0
 17 18  1  0  0  0  0
 18 19  1  0  0  0  0
 18 38  1  0  0  0  0
 18 39  1  0  0  0  0
 19 40  1  0  0  0  0
 19 41  1  0  0  0  0
 20 21  1  0  0  0  0
 20 42  1  0  0  0  0
 20 43  1  0  0  0  0
 21 22  1  0  0  0  0
 21 44  1  0  0  0  0
 21 45  1  0  0  0  0
 22 23  1  0  0  0  0
 23 46  1  0  0  0  0
 23 47  1  0  0  0  0
M  END
> <s_m_source_file>
AV-unprocessed.smi

> <i_m_source_file_index>
1211

> <i_lp_mmshare_version>
43012

> <i_f3d_flags>
0

> <s_epik_input>
W0NIM11jMVtjSF1bY0hdW2NIXW5jMVtOSF1DKD1PKVtOSF1bQ0gyXVtDQF0yKFtDSDJdW0NIMl1TW0NIMl0yKU4zW0NIMl1bQ0gyXU9bQ0gyXVtDSDJdMw==

> <s_epik_cmdline>
J2VwaWtfcHl0aG9uJywgJy1waCcsICc3LjAnLCAnLXRuJywgJzgnLCAnLW1hJywgJzIwMCcsICctbWV0YWxfYmluZGluZycsICctaW1hZScsICc8aW5maWxlLm1hZT4nLCAnLW9tYWUnLCAnPG91dGZpbGUubWFlPic=

> <r_epik_Ionization_Penalty>
0.0195636

> <r_epik_Ionization_Penalty_Charging>
0

> <r_epik_Ionization_Penalty_Neutral>
0.0195636

> <r_epik_State_Penalty>
0.0155843

> <r_epik_Charging_Adjusted_Penalty>
0.0155843

> <i_epik_Tot_Q>
0

> <i_epik_Tot_abs_Q>
0

> <r_epik_Metal_State_Penalty>
0.0155842

> <b_epik_Metal_Only>
0

> <s_lp_Force_Field>
OPLS_2005

> <r_lp_Energy>
55.2683

> <b_lp_Chiralities_Consistent>
1

> <s_lp_Variant>
AV-unprocessed.smi:1211-1

> <Gold.Version>
5.8.1

> <Gold.Id.Protein>
6NUR|6NUR_protein|mol2

> <Gold.PLP.Fitness>
44.9391

> <Gold.PLP.PLP>
-41.8823

> <Gold.PLP.part.hbond>
-2.2304

> <Gold.PLP.part.metal>
0.0000

> <Gold.PLP.part.buried>
-5.3994

> <Gold.PLP.part.nonpolar>
-34.9041

> <Gold.PLP.part.repulsive>
0.6222

> <Gold.PLP.ligand.clash>
0.0000

> <Gold.PLP.ligand.torsion>
0.8737

> <Gold.PLP.Chemscore.Hbond>
1.5725

> <Gold.PLP.Chemscore.CHOScore>
0.0000

> <Gold.PLP.Chemscore.Metal>
0.0000

> <Gold.Chemscore.Hbonds>
donor molecule, donor type, donor heavy atom, donor atom, acceptor molecule, acceptor atom, score
      L1  H     8    30       P1  8028  0.52
      L1  H    11    31       P1  8028  1.00

> <Gold.PLP.Chemscore.Internal.Correction>
0.0866

> <Gold.Rescore>
     Score         DG    S(hbond)    S(metal)    S(lipo)     H(rot)  DE(clash)    DE(int)     intcor
     16.15     -18.99       1.34        0.00     108.83       1.44       0.23       2.61       ----

> <Gold.Chemscore.Fitness>
16.1503

> <Gold.Chemscore.DG>
-18.9910

> <Gold.Chemscore.ZeroCoef>
-5.4800

> <Gold.Chemscore.Hbond>
1.3370

> <Gold.Chemscore.Metal>
0.0000

> <Gold.Chemscore.Lipo>
108.8302

> <Gold.Chemscore.Internal_Hbond>
0.0000

> <Gold.Chemscore.DEClash>
0.2343

> <Gold.Chemscore.DEInternal>
2.6064

> <Gold.Chemscore.Rot>
1.4405

> <Gold.Chemscore.Internal.Correction>
   9.000000E+99

> <Gold.Chemscore.Hbonds>
donor molecule, donor type, donor heavy atom, donor atom, acceptor molecule, acceptor atom, score
      L1  H     8    30       P1  8028  0.51
      L1  H    11    31       P1  8028  0.95

> <Gold.Chemscore.Hbond.Weighted>
-4.4655

> <Gold.Chemscore.Metal.Weighted>
-0.0000

> <Gold.Chemscore.Lipo.Weighted>
-12.7331

> <Gold.Chemscore.Internal_Hbond.Weighted>
0.0000

> <Gold.Chemscore.DEClash.Weighted>
0.2343

> <Gold.Chemscore.DEInternal.Weighted>
2.6064

> <Gold.Chemscore.Rot.Weighted>
3.6876

> <Gold.Chemscore.Internal.Correction.Weighted>
   9.000000E+99

> <Gold.Protein.RotatedTorsions>
[ 6907 6896 6895 6894 ] final -134.03 input  -60.11 | X-H torsion
[ 7974 7965 7964 7962 ] final   66.05 input  175.53 | X-H torsion
[ 8008 7997 7996 7995 ] final -145.07 input   59.86 | X-H torsion
[ 10167 10162 10161 10158 ] final  176.22 input  -65.29 | X-H torsion
[ 10718 10713 10712 10709 ] final   49.35 input   66.30 | X-H torsion
[ 10763 10752 10751 10750 ] final   17.69 input  -60.55 | X-H torsion
[ 11005 11000 10999 10996 ] final   75.28 input  -57.11 | X-H torsion

> <Gold.Protein.ActiveResidues>
 VAL166  LYS551  ARG553  GLY616  TRP617  ASP618  TYR619  PRO620  LYS621  CYS622 
 ASP623  PHE694  ASN695  SER759  ASP760  ASP761  ALA762  ILE779  LEU786  VAL792 
 PHE793  MET794  SER795  GLU796  ALA797  LYS798  CYS799  TRP800  GLU811  SER814 

> <Gold.Protein.RotatedAtoms>
  150.9810  133.6245  159.2722 H   0  0  0  0  0  0  0  0  0  0  0  0  # atno 6907 bound_to 6896
  151.3500  135.0881  159.9409 H   0  0  0  0  0  0  0  0  0  0  0  0  # atno 6908 bound_to 6896
  152.5215  133.9404  159.7678 H   0  0  0  0  0  0  0  0  0  0  0  0  # atno 6909 bound_to 6896
  145.8313  139.3140  143.0986 H   0  0  0  0  0  0  0  0  0  0  0  0  # atno 7974 bound_to 7965
  155.5371  140.0605  157.2877 H   0  0  0  0  0  0  0  0  0  0  0  0  # atno 8008 bound_to 7997
  154.4464  140.1925  156.0598 H   0  0  0  0  0  0  0  0  0  0  0  0  # atno 8009 bound_to 7997
  156.0611  140.3272  155.7466 H   0  0  0  0  0  0  0  0  0  0  0  0  # atno 8010 bound_to 7997
  139.5206  144.2941  152.0438 H   0  0  0  0  0  0  0  0  0  0  0  0  # atno 10167 bound_to 10162
  157.4778  130.8296  149.8059 H   0  0  0  0  0  0  0  0  0  0  0  0  # atno 10718 bound_to 10713
  153.1316  135.6741  153.9169 H   0  0  0  0  0  0  0  0  0  0  0  0  # atno 10763 bound_to 10752
  153.8653  135.3076  155.3441 H   0  0  0  0  0  0  0  0  0  0  0  0  # atno 10764 bound_to 10752
  154.7712  135.4938  153.9735 H   0  0  0  0  0  0  0  0  0  0  0  0  # atno 10765 bound_to 10752
  139.9351  134.7504  156.1252 H   0  0  0  0  0  0  0  0  0  0  0  0  # atno 11005 bound_to 11000
  145.9568  140.8866  143.0231 LP  0  0  0  0  0  0  0  0  0  0  0  0  # atno 17320 bound_to 7965
  144.6739  140.1757  143.7410 LP  0  0  0  0  0  0  0  0  0  0  0  0  # atno 17321 bound_to 7965
  140.2391  144.4288  150.6267 LP  0  0  0  0  0  0  0  0  0  0  0  0  # atno 17342 bound_to 10162
  140.6303  143.2186  151.6509 LP  0  0  0  0  0  0  0  0  0  0  0  0  # atno 17343 bound_to 10162
  156.0106  130.3835  150.2279 LP  0  0  0  0  0  0  0  0  0  0  0  0  # atno 17370 bound_to 10713
  157.0464  131.0050  151.3267 LP  0  0  0  0  0  0  0  0  0  0  0  0  # atno 17371 bound_to 10713
  141.0960  133.6695  156.2647 LP  0  0  0  0  0  0  0  0  0  0  0  0  # atno 17394 bound_to 11000
  140.6098  134.5470  157.5531 LP  0  0  0  0  0  0  0  0  0  0  0  0  # atno 17395 bound_to 11000

$$$$
