AV-unprocessed.smi:762|AV-procd|sdf|3633|dock8
  -GOLD-   22720 1 23D 1   1.00000     0.00000
 Structure written by MMmdl.
 42 44  0  0  0  0  0  0  0  0  1 V2000
  152.7716  139.3335  156.8073 O   0  0  0  0  0  0  0  0  0  0  0  0
  151.8533  139.9892  157.2993 C   0  0  0  0  0  0  0  0  0  0  0  0
  151.6945  140.0621  158.8180 C   0  0  0  0  0  0  0  0  0  0  0  0
  151.9800  141.4239  159.4267 C   0  0  0  0  0  0  0  0  0  0  0  0
  152.8476  141.5840  160.4450 C   0  0  0  0  0  0  0  0  0  0  0  0
  153.1265  142.9120  161.1253 C   0  0  0  0  0  0  0  0  0  0  0  0
  152.0551  143.9668  160.8027 C   0  0  0  0  0  0  0  0  0  0  0  0
  151.7071  143.9626  159.3090 C   0  0  0  0  0  0  0  0  0  0  0  0
  151.1803  142.5890  158.8545 C   0  0  0  0  0  0  0  0  0  0  0  0
  150.9488  140.6580  156.5679 N   0  0  0  0  0  0  0  0  0  0  0  0
  150.9150  140.6946  155.1113 C   0  0  0  0  0  0  0  0  0  0  0  0
  149.8526  139.7379  154.5443 C   0  0  0  0  0  0  0  0  0  0  0  0
  148.5583  140.3846  154.4309 N   0  0  0  0  0  0  0  0  0  0  0  0
  148.1940  141.5975  154.8740 C   0  0  0  0  0  0  0  0  0  0  0  0
  146.9232  141.9244  154.6434 N   0  0  0  0  0  0  0  0  0  0  0  0
  146.3951  140.8269  153.9933 N   0  0  0  0  0  0  0  0  0  0  0  0
  147.4036  139.9539  153.8825 C   0  0  0  0  0  0  0  0  0  0  0  0
  147.2612  138.6004  153.2628 C   0  0  0  0  0  0  0  0  0  0  0  0
  146.7686  138.4394  151.8415 C   0  0  0  0  0  0  0  0  0  0  0  0
  145.8978  138.0039  152.9910 C   0  0  0  0  0  0  0  0  0  0  0  0
  150.6638  139.7876  159.0470 H   0  0  0  0  0  0  0  0  0  0  0  0
  152.3148  139.3093  159.3065 H   0  0  0  0  0  0  0  0  0  0  0  0
  153.3950  140.7324  160.8221 H   0  0  0  0  0  0  0  0  0  0  0  0
  153.1819  142.7587  162.2032 H   0  0  0  0  0  0  0  0  0  0  0  0
  154.1086  143.2583  160.8021 H   0  0  0  0  0  0  0  0  0  0  0  0
  151.1534  143.7589  161.3805 H   0  0  0  0  0  0  0  0  0  0  0  0
  152.3988  144.9546  161.1112 H   0  0  0  0  0  0  0  0  0  0  0  0
  150.9688  144.7345  159.0894 H   0  0  0  0  0  0  0  0  0  0  0  0
  152.5989  144.2176  158.7350 H   0  0  0  0  0  0  0  0  0  0  0  0
  151.1898  142.5407  157.7652 H   0  0  0  0  0  0  0  0  0  0  0  0
  150.1423  142.4684  159.1660 H   0  0  0  0  0  0  0  0  0  0  0  0
  150.2262  141.1682  157.0555 H   0  0  0  0  0  0  0  0  0  0  0  0
  150.7347  141.7156  154.7701 H   0  0  0  0  0  0  0  0  0  0  0  0
  151.9031  140.4169  154.7449 H   0  0  0  0  0  0  0  0  0  0  0  0
  150.1558  139.3638  153.5661 H   0  0  0  0  0  0  0  0  0  0  0  0
  149.7377  138.8663  155.1898 H   0  0  0  0  0  0  0  0  0  0  0  0
  148.8781  142.2600  155.3840 H   0  0  0  0  0  0  0  0  0  0  0  0
  148.0486  137.9340  153.6095 H   0  0  0  0  0  0  0  0  0  0  0  0
  146.4675  139.3345  151.3015 H   0  0  0  0  0  0  0  0  0  0  0  0
  147.2313  137.6624  151.2365 H   0  0  0  0  0  0  0  0  0  0  0  0
  145.7764  136.9350  153.1539 H   0  0  0  0  0  0  0  0  0  0  0  0
  145.0232  138.6119  153.2142 H   0  0  0  0  0  0  0  0  0  0  0  0
  1  2  2  0  0  0  0
  2  3  1  0  0  0  0
  2 10  1  0  0  0  0
  3  4  1  0  0  0  0
  3 21  1  0  0  0  0
  3 22  1  0  0  0  0
  4  9  1  0  0  0  0
  4  5  2  0  0  0  0
  5  6  1  0  0  0  0
  5 23  1  0  0  0  0
  6  7  1  0  0  0  0
  6 24  1  0  0  0  0
  6 25  1  0  0  0  0
  7  8  1  0  0  0  0
  7 26  1  0  0  0  0
  7 27  1  0  0  0  0
  8  9  1  0  0  0  0
  8 28  1  0  0  0  0
  8 29  1  0  0  0  0
  9 30  1  0  0  0  0
  9 31  1  0  0  0  0
 10 11  1  0  0  0  0
 10 32  1  0  0  0  0
 11 12  1  0  0  0  0
 11 33  1  0  0  0  0
 11 34  1  0  0  0  0
 12 13  1  0  0  0  0
 12 35  1  0  0  0  0
 12 36  1  0  0  0  0
 13 17  1  0  0  0  0
 13 14  1  0  0  0  0
 14 15  2  0  0  0  0
 14 37  1  0  0  0  0
 15 16  1  0  0  0  0
 16 17  2  0  0  0  0
 17 18  1  0  0  0  0
 18 20  1  0  0  0  0
 18 19  1  0  0  0  0
 18 38  1  0  0  0  0
 19 20  1  0  0  0  0
 19 39  1  0  0  0  0
 19 40  1  0  0  0  0
 20 41  1  0  0  0  0
 20 42  1  0  0  0  0
M  END
> <s_m_source_file>
AV-unprocessed.smi

> <i_m_source_file_index>
762

> <i_lp_mmshare_version>
43012

> <i_f3d_flags>
0

> <s_epik_input>
W0NIMl0xW0NIMl1bQ0gyXVtDSDJdW0NIXT1DMVtDSDJdQyg9TylbTkhdW0NIMl1bQ0gyXW4yW2NIXW5uYzJbQ0hdM1tDSDJdW0NIMl0z

> <s_epik_cmdline>
J2VwaWtfcHl0aG9uJywgJy1waCcsICc3LjAnLCAnLXRuJywgJzgnLCAnLW1hJywgJzIwMCcsICctbWV0YWxfYmluZGluZycsICctaW1hZScsICc8aW5maWxlLm1hZT4nLCAnLW9tYWUnLCAnPG91dGZpbGUubWFlPic=

> <r_lp_tautomer_probability>
1

> <r_epik_Ionization_Penalty>
0.000270947

> <r_epik_Ionization_Penalty_Charging>
0

> <r_epik_Ionization_Penalty_Neutral>
0.000270947

> <r_epik_State_Penalty>
-0

> <r_epik_Charging_Adjusted_Penalty>
0

> <i_epik_Tot_Q>
0

> <i_epik_Tot_abs_Q>
0

> <r_epik_Metal_State_Penalty>
-0

> <b_epik_Metal_Only>
0

> <s_lp_Force_Field>
OPLS_2005

> <r_lp_Energy>
11.3747

> <b_lp_Chiralities_Consistent>
1

> <s_lp_Variant>
AV-unprocessed.smi:762-1

> <Gold.Version>
5.8.1

> <Gold.Id.Protein>
6NUR|6NUR_protein|mol2

> <Gold.PLP.Fitness>
42.5652

> <Gold.PLP.PLP>
-37.7333

> <Gold.PLP.part.hbond>
-1.0000

> <Gold.PLP.part.metal>
0.0000

> <Gold.PLP.part.buried>
1.7011

> <Gold.PLP.part.nonpolar>
-37.8430

> <Gold.PLP.part.repulsive>
0.4823

> <Gold.PLP.ligand.clash>
0.0000

> <Gold.PLP.ligand.torsion>
0.6719

> <Gold.PLP.Chemscore.Hbond>
1.0000

> <Gold.PLP.Chemscore.CHOScore>
0.9958

> <Gold.PLP.Chemscore.Metal>
0.0000

> <Gold.Chemscore.Hbonds>
donor molecule, donor type, donor heavy atom, donor atom, acceptor molecule, acceptor atom, score
      P1  H  7997  8009       L1     1  1.00
      L1  C    14    37       P1  8028  1.00

> <Gold.PLP.Chemscore.Internal.Correction>
0.1882

> <Gold.Rescore>
     Score         DG    S(hbond)    S(metal)    S(lipo)     H(rot)  DE(clash)    DE(int)     intcor
     13.33     -15.55       0.98        0.00     104.21       2.10       1.69       0.54       ----

> <Gold.Chemscore.Fitness>
13.3272

> <Gold.Chemscore.DG>
-15.5536

> <Gold.Chemscore.ZeroCoef>
-5.4800

> <Gold.Chemscore.Hbond>
0.9774

> <Gold.Chemscore.Metal>
0.0000

> <Gold.Chemscore.Lipo>
104.2123

> <Gold.Chemscore.Internal_Hbond>
0.0000

> <Gold.Chemscore.DEClash>
1.6856

> <Gold.Chemscore.DEInternal>
0.5408

> <Gold.Chemscore.Rot>
2.1031

> <Gold.Chemscore.Internal.Correction>
   9.000000E+99

> <Gold.Chemscore.Hbonds>
donor molecule, donor type, donor heavy atom, donor atom, acceptor molecule, acceptor atom, score
      P1  H  7997  8009       L1     1  0.97

> <Gold.Chemscore.Hbond.Weighted>
-3.2646

> <Gold.Chemscore.Metal.Weighted>
-0.0000

> <Gold.Chemscore.Lipo.Weighted>
-12.1928

> <Gold.Chemscore.Internal_Hbond.Weighted>
0.0000

> <Gold.Chemscore.DEClash.Weighted>
1.6856

> <Gold.Chemscore.DEInternal.Weighted>
0.5408

> <Gold.Chemscore.Rot.Weighted>
5.3838

> <Gold.Chemscore.Internal.Correction.Weighted>
   9.000000E+99

> <Gold.Protein.RotatedTorsions>
[ 6907 6896 6895 6894 ] final   84.30 input  -60.11 | X-H torsion
[ 7974 7965 7964 7962 ] final   50.36 input  175.53 | X-H torsion
[ 8008 7997 7996 7995 ] final  173.95 input   59.86 | X-H torsion
[ 10167 10162 10161 10158 ] final  -35.56 input  -65.29 | X-H torsion
[ 10718 10713 10712 10709 ] final  -30.22 input   66.30 | X-H torsion
[ 10763 10752 10751 10750 ] final  -86.87 input  -60.55 | X-H torsion
[ 11005 11000 10999 10996 ] final  150.86 input  -57.11 | X-H torsion

> <Gold.Protein.ActiveResidues>
 VAL166  LYS551  ARG553  GLY616  TRP617  ASP618  TYR619  PRO620  LYS621  CYS622 
 ASP623  PHE694  ASN695  SER759  ASP760  ASP761  ALA762  ILE779  LEU786  VAL792 
 PHE793  MET794  SER795  GLU796  ALA797  LYS798  CYS799  TRP800  GLU811  SER814 

> <Gold.Protein.RotatedAtoms>
  152.5349  134.2762  159.8989 H   0  0  0  0  0  0  0  0  0  0  0  0  # atno 6907 bound_to 6896
  151.2718  133.4245  159.2629 H   0  0  0  0  0  0  0  0  0  0  0  0  # atno 6908 bound_to 6896
  151.0361  134.9589  159.8193 H   0  0  0  0  0  0  0  0  0  0  0  0  # atno 6909 bound_to 6896
  146.0019  139.4449  143.0009 H   0  0  0  0  0  0  0  0  0  0  0  0  # atno 7974 bound_to 7965
  156.1024  140.1447  156.9450 H   0  0  0  0  0  0  0  0  0  0  0  0  # atno 8008 bound_to 7997
  154.4711  140.0909  156.7192 H   0  0  0  0  0  0  0  0  0  0  0  0  # atno 8009 bound_to 7997
  155.4737  140.3442  155.4332 H   0  0  0  0  0  0  0  0  0  0  0  0  # atno 8010 bound_to 7997
  140.7162  143.3469  151.2238 H   0  0  0  0  0  0  0  0  0  0  0  0  # atno 10167 bound_to 10162
  156.4025  130.4393  149.7311 H   0  0  0  0  0  0  0  0  0  0  0  0  # atno 10718 bound_to 10713
  154.6272  135.5434  153.7641 H   0  0  0  0  0  0  0  0  0  0  0  0  # atno 10763 bound_to 10752
  153.0267  135.6427  154.1353 H   0  0  0  0  0  0  0  0  0  0  0  0  # atno 10764 bound_to 10752
  154.1285  135.2916  155.3171 H   0  0  0  0  0  0  0  0  0  0  0  0  # atno 10765 bound_to 10752
  140.1168  134.8889  157.2015 H   0  0  0  0  0  0  0  0  0  0  0  0  # atno 11005 bound_to 11000
  145.7474  140.9985  143.1268 LP  0  0  0  0  0  0  0  0  0  0  0  0  # atno 17320 bound_to 7965
  144.6922  139.9173  143.7466 LP  0  0  0  0  0  0  0  0  0  0  0  0  # atno 17321 bound_to 7965
  139.6990  143.9564  152.2896 LP  0  0  0  0  0  0  0  0  0  0  0  0  # atno 17342 bound_to 10162
  139.9251  144.6776  150.8421 LP  0  0  0  0  0  0  0  0  0  0  0  0  # atno 17343 bound_to 10162
  156.4322  130.7820  151.2840 LP  0  0  0  0  0  0  0  0  0  0  0  0  # atno 17370 bound_to 10713
  157.7504  131.0150  150.3489 LP  0  0  0  0  0  0  0  0  0  0  0  0  # atno 17371 bound_to 10713
  140.3018  134.3123  155.7288 LP  0  0  0  0  0  0  0  0  0  0  0  0  # atno 17394 bound_to 11000
  141.2143  133.7596  156.9651 LP  0  0  0  0  0  0  0  0  0  0  0  0  # atno 17395 bound_to 11000

$$$$
