AV-unprocessed.smi:2881|AV-procd|sdf|11056|dock5
  -GOLD-   2272015523D 1   1.00000     0.00000
 Structure written by MMmdl.
 40 42  0  0  0  0  0  0  0  0  1 V2000
  146.8894  139.5650  153.7483 C   0  0  0  0  0  0  0  0  0  0  0  0
  148.1572  139.8110  154.4930 C   0  0  0  0  0  0  0  0  0  0  0  0
  148.4188  139.8918  155.8315 C   0  0  0  0  0  0  0  0  0  0  0  0
  149.8227  140.1337  155.9037 C   0  0  0  0  0  0  0  0  0  0  0  0
  150.6754  140.2846  157.1368 C   0  0  0  0  0  0  0  0  0  0  0  0
  151.2377  141.7051  157.2174 C   0  0  0  0  0  0  0  0  0  0  0  0
  150.9576  142.5326  156.3506 O   0  0  0  0  0  0  0  0  0  0  0  0
  152.0221  141.9746  158.2718 N   0  0  0  0  0  0  0  0  0  0  0  0
  152.5961  143.2791  158.5942 C   0  0  1  0  0  0  0  0  0  0  0  0
  151.6682  144.4657  158.2194 C   0  0  1  0  0  0  0  0  0  0  0  0
  150.2354  144.2478  158.7526 C   0  0  0  0  0  0  0  0  0  0  0  0
  150.4188  144.3983  160.2730 C   0  0  0  0  0  0  0  0  0  0  0  0
  151.9205  144.7297  160.4096 C   0  0  2  0  0  0  0  0  0  0  0  0
  152.1578  145.5642  159.1569 C   0  0  0  0  0  0  0  0  0  0  0  0
  152.8137  143.5007  160.1197 C   0  0  1  0  0  0  0  0  0  0  0  0
  152.5948  142.3012  161.0705 C   0  0  0  0  0  0  0  0  0  0  0  0
  152.2128  142.7516  162.3536 O   0  0  0  0  0  0  0  0  0  0  0  0
  150.3837  140.2061  154.7037 N   0  0  0  0  0  0  0  0  0  0  0  0
  149.3598  140.0052  153.8540 N   0  0  0  0  0  0  0  0  0  0  0  0
  149.4940  140.0048  152.8529 H   0  0  0  0  0  0  0  0  0  0  0  0
  146.0294  139.6132  154.4165 H   0  0  0  0  0  0  0  0  0  0  0  0
  146.8999  138.5792  153.2832 H   0  0  0  0  0  0  0  0  0  0  0  0
  146.7479  140.3088  152.9641 H   0  0  0  0  0  0  0  0  0  0  0  0
  147.7142  139.7837  156.6428 H   0  0  0  0  0  0  0  0  0  0  0  0
  150.1016  140.0766  158.0410 H   0  0  0  0  0  0  0  0  0  0  0  0
  151.4973  139.5678  157.1174 H   0  0  0  0  0  0  0  0  0  0  0  0
  152.2041  141.2261  158.9246 H   0  0  0  0  0  0  0  0  0  0  0  0
  153.5546  143.3786  158.0815 H   0  0  0  0  0  0  0  0  0  0  0  0
  151.6995  144.7245  157.1608 H   0  0  0  0  0  0  0  0  0  0  0  0
  149.5684  145.0237  158.3746 H   0  0  0  0  0  0  0  0  0  0  0  0
  149.8002  143.2883  158.4741 H   0  0  0  0  0  0  0  0  0  0  0  0
  149.8090  145.2224  160.6454 H   0  0  0  0  0  0  0  0  0  0  0  0
  150.1234  143.5045  160.8209 H   0  0  0  0  0  0  0  0  0  0  0  0
  152.1705  145.2350  161.3429 H   0  0  0  0  0  0  0  0  0  0  0  0
  153.2049  145.8304  159.0017 H   0  0  0  0  0  0  0  0  0  0  0  0
  151.5518  146.4713  159.1174 H   0  0  0  0  0  0  0  0  0  0  0  0
  153.8460  143.8272  160.2604 H   0  0  0  0  0  0  0  0  0  0  0  0
  151.7983  141.6638  160.6864 H   0  0  0  0  0  0  0  0  0  0  0  0
  153.4841  141.6777  161.1619 H   0  0  0  0  0  0  0  0  0  0  0  0
  151.2917  142.5762  162.4725 H   0  0  0  0  0  0  0  0  0  0  0  0
  1  2  1  0  0  0  0
  1 21  1  0  0  0  0
  1 22  1  0  0  0  0
  1 23  1  0  0  0  0
  2 19  1  0  0  0  0
  2  3  2  0  0  0  0
  3  4  1  0  0  0  0
  3 24  1  0  0  0  0
  4  5  1  0  0  0  0
  4 18  2  0  0  0  0
  5  6  1  0  0  0  0
  5 25  1  0  0  0  0
  5 26  1  0  0  0  0
  6  7  2  0  0  0  0
  6  8  1  0  0  0  0
  8  9  1  0  0  0  0
  8 27  1  0  0  0  0
  9 15  1  0  0  0  0
  9 10  1  0  0  0  0
  9 28  1  0  0  0  0
 10 14  1  0  0  0  0
 10 11  1  0  0  0  0
 10 29  1  0  0  0  0
 11 12  1  0  0  0  0
 11 30  1  0  0  0  0
 11 31  1  0  0  0  0
 12 13  1  0  0  0  0
 12 32  1  0  0  0  0
 12 33  1  0  0  0  0
 13 14  1  0  0  0  0
 13 15  1  0  0  0  0
 13 34  1  0  0  0  0
 14 35  1  0  0  0  0
 14 36  1  0  0  0  0
 15 16  1  0  0  0  0
 15 37  1  0  0  0  0
 16 17  1  0  0  0  0
 16 38  1  0  0  0  0
 16 39  1  0  0  0  0
 17 40  1  0  0  0  0
 18 19  1  0  0  0  0
 19 20  1  0  0  0  0
M  END
> <s_m_source_file>
AV-unprocessed.smi

> <i_m_source_file_index>
2881

> <i_lp_mmshare_version>
43012

> <i_f3d_flags>
0

> <s_epik_input>
W0NIM11jMVtjSF1jKG5bbkhdMSlbQ0gyXUMoPU8pW05IXVtDQEhdKFtDQEBIXTIzKVtDQEhdKFtDSDJdW09IXSlbQ0BASF0oW0NIMl0zKVtDSDJdW0NIMl0y

> <s_epik_cmdline>
J2VwaWtfcHl0aG9uJywgJy1waCcsICc3LjAnLCAnLXRuJywgJzgnLCAnLW1hJywgJzIwMCcsICctbWV0YWxfYmluZGluZycsICctaW1hZScsICc8aW5maWxlLm1hZT4nLCAnLW9tYWUnLCAnPG91dGZpbGUubWFlPic=

> <r_lp_tautomer_probability>
0.5

> <r_epik_Ionization_Penalty>
9.4349e-05

> <r_epik_Ionization_Penalty_Charging>
0

> <r_epik_Ionization_Penalty_Neutral>
9.4349e-05

> <r_epik_State_Penalty>
0.41068

> <r_epik_Charging_Adjusted_Penalty>
0.41068

> <i_epik_Tot_Q>
0

> <i_epik_Tot_abs_Q>
0

> <r_epik_Metal_State_Penalty>
0.4107

> <b_epik_Metal_Only>
0

> <s_lp_Force_Field>
OPLS_2005

> <r_lp_Energy>
48.3908

> <b_lp_Chiralities_Consistent>
1

> <s_lp_Variant>
AV-unprocessed.smi:2881-2

> <Gold.Version>
5.8.1

> <Gold.Id.Protein>
6NUR|6NUR_protein|mol2

> <Gold.PLP.Fitness>
44.5073

> <Gold.PLP.PLP>
-40.1108

> <Gold.PLP.part.hbond>
-3.1358

> <Gold.PLP.part.metal>
0.0000

> <Gold.PLP.part.buried>
-6.2656

> <Gold.PLP.part.nonpolar>
-30.9218

> <Gold.PLP.part.repulsive>
1.1695

> <Gold.PLP.ligand.clash>
0.0000

> <Gold.PLP.ligand.torsion>
0.7335

> <Gold.PLP.Chemscore.Hbond>
1.9500

> <Gold.PLP.Chemscore.CHOScore>
0.0000

> <Gold.PLP.Chemscore.Metal>
0.0000

> <Gold.Chemscore.Hbonds>
donor molecule, donor type, donor heavy atom, donor atom, acceptor molecule, acceptor atom, score
      L1  H    19    20       P1  7957  1.00
      P1  H  7989  7998       L1    18  0.95

> <Gold.PLP.Chemscore.Internal.Correction>
0.0134

> <Gold.Rescore>
     Score         DG    S(hbond)    S(metal)    S(lipo)     H(rot)  DE(clash)    DE(int)     intcor
     14.98     -18.33       1.67        0.00     111.83       2.28       0.25       3.09       ----

> <Gold.Chemscore.Fitness>
14.9810

> <Gold.Chemscore.DG>
-18.3254

> <Gold.Chemscore.ZeroCoef>
-5.4800

> <Gold.Chemscore.Hbond>
1.6727

> <Gold.Chemscore.Metal>
0.0000

> <Gold.Chemscore.Lipo>
111.8279

> <Gold.Chemscore.Internal_Hbond>
0.0000

> <Gold.Chemscore.DEClash>
0.2517

> <Gold.Chemscore.DEInternal>
3.0927

> <Gold.Chemscore.Rot>
2.2755

> <Gold.Chemscore.Internal.Correction>
   9.000000E+99

> <Gold.Chemscore.Hbonds>
donor molecule, donor type, donor heavy atom, donor atom, acceptor molecule, acceptor atom, score
      L1  H    19    20       P1  7957  1.00
      P1  H  7989  7998       L1    18  0.21

> <Gold.Chemscore.Hbond.Weighted>
-5.5868

> <Gold.Chemscore.Metal.Weighted>
-0.0000

> <Gold.Chemscore.Lipo.Weighted>
-13.0839

> <Gold.Chemscore.Internal_Hbond.Weighted>
0.0000

> <Gold.Chemscore.DEClash.Weighted>
0.2517

> <Gold.Chemscore.DEInternal.Weighted>
3.0927

> <Gold.Chemscore.Rot.Weighted>
5.8252

> <Gold.Chemscore.Internal.Correction.Weighted>
   9.000000E+99

> <Gold.Protein.RotatedTorsions>
[ 6907 6896 6895 6894 ] final   -2.16 input  -60.11 | X-H torsion
[ 7974 7965 7964 7962 ] final  164.35 input  175.53 | X-H torsion
[ 8008 7997 7996 7995 ] final -167.91 input   59.86 | X-H torsion
[ 10167 10162 10161 10158 ] final  116.14 input  -65.29 | X-H torsion
[ 10718 10713 10712 10709 ] final   17.76 input   66.30 | X-H torsion
[ 10763 10752 10751 10750 ] final  -74.09 input  -60.55 | X-H torsion
[ 11005 11000 10999 10996 ] final  -50.97 input  -57.11 | X-H torsion

> <Gold.Protein.ActiveResidues>
 VAL166  LYS551  ARG553  GLY616  TRP617  ASP618  TYR619  PRO620  LYS621  CYS622 
 ASP623  PHE694  ASN695  SER759  ASP760  ASP761  ALA762  ILE779  LEU786  VAL792 
 PHE793  MET794  SER795  GLU796  ALA797  LYS798  CYS799  TRP800  GLU811  SER814 

> <Gold.Protein.RotatedAtoms>
  151.5344  135.1068  159.9910 H   0  0  0  0  0  0  0  0  0  0  0  0  # atno 6907 bound_to 6896
  152.4564  133.7727  159.6818 H   0  0  0  0  0  0  0  0  0  0  0  0  # atno 6908 bound_to 6896
  150.8509  133.7723  159.3050 H   0  0  0  0  0  0  0  0  0  0  0  0  # atno 6909 bound_to 6896
  144.7549  139.8313  143.6353 H   0  0  0  0  0  0  0  0  0  0  0  0  # atno 7974 bound_to 7965
  155.8842  140.1014  157.1464 H   0  0  0  0  0  0  0  0  0  0  0  0  # atno 8008 bound_to 7997
  154.4008  140.1323  156.4297 H   0  0  0  0  0  0  0  0  0  0  0  0  # atno 8009 bound_to 7997
  155.7608  140.3463  155.5199 H   0  0  0  0  0  0  0  0  0  0  0  0  # atno 8010 bound_to 7997
  139.6267  144.7109  151.2517 H   0  0  0  0  0  0  0  0  0  0  0  0  # atno 10167 bound_to 10162
  157.0867  130.6410  149.5839 H   0  0  0  0  0  0  0  0  0  0  0  0  # atno 10718 bound_to 10713
  154.4683  135.5876  153.6304 H   0  0  0  0  0  0  0  0  0  0  0  0  # atno 10763 bound_to 10752
  152.9831  135.6060  154.3399 H   0  0  0  0  0  0  0  0  0  0  0  0  # atno 10764 bound_to 10752
  154.3278  135.2843  155.2466 H   0  0  0  0  0  0  0  0  0  0  0  0  # atno 10765 bound_to 10752
  141.0845  133.6645  156.3809 H   0  0  0  0  0  0  0  0  0  0  0  0  # atno 11005 bound_to 11000
  146.1547  139.4641  143.0026 LP  0  0  0  0  0  0  0  0  0  0  0  0  # atno 17320 bound_to 7965
  145.6814  141.0190  143.1604 LP  0  0  0  0  0  0  0  0  0  0  0  0  # atno 17321 bound_to 7965
  140.7415  143.6554  150.8211 LP  0  0  0  0  0  0  0  0  0  0  0  0  # atno 17342 bound_to 10162
  140.0173  143.5579  152.2815 LP  0  0  0  0  0  0  0  0  0  0  0  0  # atno 17343 bound_to 10162
  155.9909  130.4962  150.7276 LP  0  0  0  0  0  0  0  0  0  0  0  0  # atno 17370 bound_to 10713
  157.4755  131.0897  151.0594 LP  0  0  0  0  0  0  0  0  0  0  0  0  # atno 17371 bound_to 10713
  140.5393  134.6136  157.5375 LP  0  0  0  0  0  0  0  0  0  0  0  0  # atno 17394 bound_to 11000
  139.9662  134.7369  156.0133 LP  0  0  0  0  0  0  0  0  0  0  0  0  # atno 17395 bound_to 11000

$$$$
