AV-unprocessed.smi:435|AV-procd|sdf|2557|dock2
  -GOLD-   2262022523D 1   1.00000     0.00000
 Structure written by MMmdl.
 44 45  0  0  0  0  0  0  0  0  1 V2000
  148.1589  132.9789  152.6496 C   0  0  0  0  0  0  0  0  0  0  0  0
  148.9634  133.0364  153.9202 C   0  0  0  0  0  0  0  0  0  0  0  0
  149.0393  134.1854  154.5075 N   0  0  0  0  0  0  0  0  0  0  0  0
  149.7573  134.3498  155.6764 N   0  0  0  0  0  0  0  0  0  0  0  0
  149.7496  135.7237  156.1996 C   0  0  0  0  0  0  0  0  0  0  0  0
  150.5017  136.7139  155.2991 C   0  0  0  0  0  0  0  0  0  0  0  0
  151.1853  136.3106  154.3571 O   0  0  0  0  0  0  0  0  0  0  0  0
  150.3425  138.0135  155.5917 N   0  0  0  0  0  0  0  0  0  0  0  0
  150.9453  139.1299  154.8656 C   0  0  2  0  0  0  0  0  0  0  0  0
  152.1195  139.7188  155.6708 C   0  0  0  0  0  0  0  0  0  0  0  0
  151.6480  140.4700  156.9289 C   0  0  0  0  0  0  0  0  0  0  0  0
  150.6170  141.5629  156.5882 C   0  0  2  0  0  0  0  0  0  0  0  0
  150.1473  142.3017  157.8493 C   0  0  0  0  0  0  0  0  0  0  0  0
  149.4302  140.9606  155.8117 C   0  0  0  0  0  0  0  0  0  0  0  0
  149.8976  140.2167  154.5479 C   0  0  0  0  0  0  0  0  0  0  0  0
  150.4332  133.3541  156.3192 C   0  0  0  0  0  0  0  0  0  0  0  0
  151.0571  133.5449  157.3645 O   0  0  0  0  0  0  0  0  0  0  0  0
  150.3419  132.0552  155.6490 C   0  0  0  0  0  0  0  0  0  0  0  0
  151.0410  130.9863  156.2864 C   0  0  0  0  0  0  0  0  0  0  0  0
  151.6148  130.1133  156.7852 N   0  0  0  0  0  0  0  0  0  0  0  0
  149.6413  131.8813  154.5005 C   0  0  0  0  0  0  0  0  0  0  0  0
  149.5164  130.5534  153.7661 C   0  0  0  0  0  0  0  0  0  0  0  0
  147.2886  132.3340  152.7724 H   0  0  0  0  0  0  0  0  0  0  0  0
  148.7585  132.5862  151.8283 H   0  0  0  0  0  0  0  0  0  0  0  0
  147.7996  133.9651  152.3508 H   0  0  0  0  0  0  0  0  0  0  0  0
  148.7246  136.0825  156.3086 H   0  0  0  0  0  0  0  0  0  0  0  0
  150.1729  135.7401  157.2059 H   0  0  0  0  0  0  0  0  0  0  0  0
  149.7574  138.2509  156.3797 H   0  0  0  0  0  0  0  0  0  0  0  0
  151.3484  138.7507  153.9247 H   0  0  0  0  0  0  0  0  0  0  0  0
  152.8207  138.9303  155.9476 H   0  0  0  0  0  0  0  0  0  0  0  0
  152.6766  140.4078  155.0349 H   0  0  0  0  0  0  0  0  0  0  0  0
  151.2156  139.7632  157.6382 H   0  0  0  0  0  0  0  0  0  0  0  0
  152.5091  140.9149  157.4287 H   0  0  0  0  0  0  0  0  0  0  0  0
  151.1042  142.2946  155.9419 H   0  0  0  0  0  0  0  0  0  0  0  0
  149.6491  141.6241  158.5434 H   0  0  0  0  0  0  0  0  0  0  0  0
  149.4456  143.0979  157.6001 H   0  0  0  0  0  0  0  0  0  0  0  0
  150.9882  142.7567  158.3734 H   0  0  0  0  0  0  0  0  0  0  0  0
  148.8759  140.2762  156.4557 H   0  0  0  0  0  0  0  0  0  0  0  0
  148.7307  141.7487  155.5306 H   0  0  0  0  0  0  0  0  0  0  0  0
  150.3316  140.9368  153.8530 H   0  0  0  0  0  0  0  0  0  0  0  0
  149.0410  139.7814  154.0321 H   0  0  0  0  0  0  0  0  0  0  0  0
  149.9787  129.7335  154.3149 H   0  0  0  0  0  0  0  0  0  0  0  0
  150.0001  130.6115  152.7905 H   0  0  0  0  0  0  0  0  0  0  0  0
  148.4684  130.2921  153.6162 H   0  0  0  0  0  0  0  0  0  0  0  0
  1  2  1  0  0  0  0
  1 23  1  0  0  0  0
  1 24  1  0  0  0  0
  1 25  1  0  0  0  0
  2 21  1  0  0  0  0
  2  3  2  0  0  0  0
  3  4  1  0  0  0  0
  4  5  1  0  0  0  0
  4 16  1  0  0  0  0
  5  6  1  0  0  0  0
  5 26  1  0  0  0  0
  5 27  1  0  0  0  0
  6  7  2  0  0  0  0
  6  8  1  0  0  0  0
  8  9  1  0  0  0  0
  8 28  1  0  0  0  0
  9 15  1  0  0  0  0
  9 10  1  0  0  0  0
  9 29  1  0  0  0  0
 10 11  1  0  0  0  0
 10 30  1  0  0  0  0
 10 31  1  0  0  0  0
 11 12  1  0  0  0  0
 11 32  1  0  0  0  0
 11 33  1  0  0  0  0
 12 13  1  0  0  0  0
 12 14  1  0  0  0  0
 12 34  1  0  0  0  0
 13 35  1  0  0  0  0
 13 36  1  0  0  0  0
 13 37  1  0  0  0  0
 14 15  1  0  0  0  0
 14 38  1  0  0  0  0
 14 39  1  0  0  0  0
 15 40  1  0  0  0  0
 15 41  1  0  0  0  0
 16 17  2  0  0  0  0
 16 18  1  0  0  0  0
 18 19  1  0  0  0  0
 18 21  2  0  0  0  0
 19 20  3  0  0  0  0
 21 22  1  0  0  0  0
 22 42  1  0  0  0  0
 22 43  1  0  0  0  0
 22 44  1  0  0  0  0
M  END
> <s_m_source_file>
AV-unprocessed.smi

> <i_m_source_file_index>
435

> <i_lp_mmshare_version>
43012

> <i_f3d_flags>
0

> <s_epik_input>
TiNDYyhjMVtDSDNdKWMoPU8pbihuYzFbQ0gzXSlbQ0gyXUMoPU8pW05IXVtDQEBIXTJbQ0gyXVtDSDJdW0NAQEhdKFtDSDNdKVtDSDJdW0NIMl0y

> <s_epik_cmdline>
J2VwaWtfcHl0aG9uJywgJy1waCcsICc3LjAnLCAnLXRuJywgJzgnLCAnLW1hJywgJzIwMCcsICctbWV0YWxfYmluZGluZycsICctaW1hZScsICc8aW5maWxlLm1hZT4nLCAnLW9tYWUnLCAnPG91dGZpbGUubWFlPic=

> <r_lp_tautomer_probability>
1

> <r_epik_Ionization_Penalty>
1.90703e-08

> <r_epik_Ionization_Penalty_Charging>
2.32563e-11

> <r_epik_Ionization_Penalty_Neutral>
1.90471e-08

> <r_epik_State_Penalty>
-0

> <r_epik_Charging_Adjusted_Penalty>
2.32563e-11

> <i_epik_Tot_Q>
0

> <i_epik_Tot_abs_Q>
0

> <r_epik_Metal_State_Penalty>
-0

> <b_epik_Metal_Only>
0

> <s_lp_Force_Field>
OPLS_2005

> <r_lp_Energy>
22.9488

> <b_lp_Chiralities_Consistent>
1

> <s_lp_Variant>
AV-unprocessed.smi:435-2

> <Gold.Version>
5.8.1

> <Gold.Id.Protein>
6NUR|6NUR_protein|mol2

> <Gold.PLP.Fitness>
40.9463

> <Gold.PLP.PLP>
-36.4527

> <Gold.PLP.part.hbond>
-2.0000

> <Gold.PLP.part.metal>
0.0000

> <Gold.PLP.part.buried>
-4.1339

> <Gold.PLP.part.nonpolar>
-32.8813

> <Gold.PLP.part.repulsive>
1.7591

> <Gold.PLP.ligand.clash>
0.0000

> <Gold.PLP.ligand.torsion>
0.3131

> <Gold.PLP.Chemscore.Hbond>
1.7040

> <Gold.PLP.Chemscore.CHOScore>
0.0000

> <Gold.PLP.Chemscore.Metal>
0.0000

> <Gold.Chemscore.Hbonds>
donor molecule, donor type, donor heavy atom, donor atom, acceptor molecule, acceptor atom, score
      P1  H  6896  6907       L1    17  0.69
      P1  H 10752 10765       L1     7  1.00

> <Gold.PLP.Chemscore.Internal.Correction>
0.0078

> <Gold.Rescore>
     Score         DG    S(hbond)    S(metal)    S(lipo)     H(rot)  DE(clash)    DE(int)     intcor
     15.94     -16.58       1.83        0.00      74.55       1.46       0.21       0.42       ----

> <Gold.Chemscore.Fitness>
15.9385

> <Gold.Chemscore.DG>
-16.5759

> <Gold.Chemscore.ZeroCoef>
-5.4800

> <Gold.Chemscore.Hbond>
1.8307

> <Gold.Chemscore.Metal>
0.0000

> <Gold.Chemscore.Lipo>
74.5524

> <Gold.Chemscore.Internal_Hbond>
0.0000

> <Gold.Chemscore.DEClash>
0.2128

> <Gold.Chemscore.DEInternal>
0.4247

> <Gold.Chemscore.Rot>
1.4615

> <Gold.Chemscore.Internal.Correction>
   9.000000E+99

> <Gold.Chemscore.Hbonds>
donor molecule, donor type, donor heavy atom, donor atom, acceptor molecule, acceptor atom, score
      P1  H  6896  6907       L1    17  0.70
      P1  H 10752 10765       L1     7  1.00

> <Gold.Chemscore.Hbond.Weighted>
-6.1147

> <Gold.Chemscore.Metal.Weighted>
-0.0000

> <Gold.Chemscore.Lipo.Weighted>
-8.7226

> <Gold.Chemscore.Internal_Hbond.Weighted>
0.0000

> <Gold.Chemscore.DEClash.Weighted>
0.2128

> <Gold.Chemscore.DEInternal.Weighted>
0.4247

> <Gold.Chemscore.Rot.Weighted>
3.7414

> <Gold.Chemscore.Internal.Correction.Weighted>
   9.000000E+99

> <Gold.Protein.RotatedTorsions>
[ 6907 6896 6895 6894 ] final -144.30 input  -60.11 | X-H torsion
[ 7974 7965 7964 7962 ] final  107.12 input  175.53 | X-H torsion
[ 8008 7997 7996 7995 ] final   34.73 input   59.86 | X-H torsion
[ 10167 10162 10161 10158 ] final  -29.78 input  -65.29 | X-H torsion
[ 10718 10713 10712 10709 ] final -121.85 input   66.30 | X-H torsion
[ 10763 10752 10751 10750 ] final  166.52 input  -60.55 | X-H torsion
[ 11005 11000 10999 10996 ] final  -16.86 input  -57.11 | X-H torsion

> <Gold.Protein.ActiveResidues>
 VAL166  LYS551  ARG553  GLY616  TRP617  ASP618  TYR619  PRO620  LYS621  CYS622 
 ASP623  PHE694  ASN695  SER759  ASP760  ASP761  ALA762  ILE779  LEU786  VAL792 
 PHE793  MET794  SER795  GLU796  ALA797  LYS798  CYS799  TRP800  GLU811  SER814 

> <Gold.Protein.RotatedAtoms>
  151.1121  133.5165  159.2605 H   0  0  0  0  0  0  0  0  0  0  0  0  # atno 6907 bound_to 6896
  151.1955  135.0420  159.8860 H   0  0  0  0  0  0  0  0  0  0  0  0  # atno 6908 bound_to 6896
  152.5451  134.0956  159.8349 H   0  0  0  0  0  0  0  0  0  0  0  0  # atno 6909 bound_to 6896
  145.2977  139.2579  143.3830 H   0  0  0  0  0  0  0  0  0  0  0  0  # atno 7974 bound_to 7965
  155.1596  140.3282  155.4414 H   0  0  0  0  0  0  0  0  0  0  0  0  # atno 8008 bound_to 7997
  156.2547  140.1962  156.6654 H   0  0  0  0  0  0  0  0  0  0  0  0  # atno 8009 bound_to 7997
  154.6415  140.0569  156.9837 H   0  0  0  0  0  0  0  0  0  0  0  0  # atno 8010 bound_to 7997
  140.7257  143.3901  151.1446 H   0  0  0  0  0  0  0  0  0  0  0  0  # atno 10167 bound_to 10162
  156.1370  130.6438  150.9712 H   0  0  0  0  0  0  0  0  0  0  0  0  # atno 10718 bound_to 10713
  154.3402  135.2754  155.2426 H   0  0  0  0  0  0  0  0  0  0  0  0  # atno 10763 bound_to 10752
  154.4700  135.5885  153.6319 H   0  0  0  0  0  0  0  0  0  0  0  0  # atno 10764 bound_to 10752
  152.9858  135.6086  154.3602 H   0  0  0  0  0  0  0  0  0  0  0  0  # atno 10765 bound_to 10752
  140.8110  133.8140  155.9563 H   0  0  0  0  0  0  0  0  0  0  0  0  # atno 11005 bound_to 11000
  146.3163  140.3484  142.8654 LP  0  0  0  0  0  0  0  0  0  0  0  0  # atno 17320 bound_to 7965
  144.9119  140.7767  143.5802 LP  0  0  0  0  0  0  0  0  0  0  0  0  # atno 17321 bound_to 7965
  139.7504  143.8787  152.3075 LP  0  0  0  0  0  0  0  0  0  0  0  0  # atno 17342 bound_to 10162
  139.8639  144.7103  150.9067 LP  0  0  0  0  0  0  0  0  0  0  0  0  # atno 17343 bound_to 10162
  157.6541  131.0892  150.7985 LP  0  0  0  0  0  0  0  0  0  0  0  0  # atno 17370 bound_to 10713
  156.8064  130.4938  149.5362 LP  0  0  0  0  0  0  0  0  0  0  0  0  # atno 17371 bound_to 10713
  140.9197  134.2157  157.4934 LP  0  0  0  0  0  0  0  0  0  0  0  0  # atno 17394 bound_to 11000
  139.8714  134.9787  156.5007 LP  0  0  0  0  0  0  0  0  0  0  0  0  # atno 17395 bound_to 11000

$$$$
