AV-unprocessed.smi:240|AV-procd|sdf|1826|dock2
  -GOLD-   2262020423D 1   1.00000     0.00000
 Structure written by MMmdl.
 55 59  0  0  0  0  0  0  0  0  1 V2000
  148.1837  138.5472  153.2831 O   0  0  0  0  0  0  0  0  0  0  0  0
  148.2304  139.4434  154.3742 C   0  0  2  0  0  0  0  0  0  0  0  0
  148.5447  140.8612  153.8605 C   0  0  0  0  0  0  0  0  0  0  0  0
  149.5929  141.4308  154.8179 C   0  0  0  0  0  0  0  0  0  0  0  0
  150.3881  140.2050  155.2599 C   0  0  0  0  0  0  0  0  0  0  0  0
  149.3144  139.1230  155.4370 C   0  0  2  0  0  0  0  0  0  0  0  0
  149.8314  137.6564  155.5908 C   0  0  2  0  0  0  0  0  0  0  0  0
  150.5929  137.1132  154.3527 C   0  0  0  0  0  0  0  0  0  0  0  0
  151.0437  135.7848  154.5909 O   0  0  0  0  0  0  0  0  0  0  0  0
  149.9648  134.8918  154.8291 C   0  0  0  0  0  0  0  0  0  0  0  0
  149.2329  135.3312  156.1030 C   0  0  0  0  0  0  0  0  0  0  0  0
  148.7742  136.7090  155.9738 N   0  0  0  0  0  0  0  0  0  0  0  0
  147.9805  137.0469  157.0149 C   0  0  0  0  0  0  0  0  0  0  0  0
  147.0630  138.0199  156.7942 N   0  0  0  0  0  0  0  0  0  0  0  0
  146.2442  138.4011  157.7789 C   0  0  0  0  0  0  0  0  0  0  0  0
  146.1746  137.9442  159.0309 N   0  0  0  0  0  0  0  0  0  0  0  0
  147.0923  136.9597  159.2532 C   0  0  0  0  0  0  0  0  0  0  0  0
  148.0238  136.4484  158.3063 C   0  0  0  0  0  0  0  0  0  0  0  0
  148.7849  135.4417  158.8878 N   0  0  0  0  0  0  0  0  0  0  0  0
  148.3339  135.3669  160.1099 C   0  0  0  0  0  0  0  0  0  0  0  0
  147.3231  136.2492  160.4185 N   0  0  0  0  0  0  0  0  0  0  0  0
  146.6392  136.3823  161.6961 C   0  0  0  0  0  0  0  0  0  0  0  0
  145.1193  136.1044  161.6191 C   0  0  1  0  0  0  0  0  0  0  0  0
  144.8429  135.3515  160.4507 O   0  0  0  0  0  0  0  0  0  0  0  0
  144.5983  135.3296  162.8226 C   0  0  0  0  0  0  0  0  0  0  0  0
  143.1489  135.7865  162.9135 C   0  0  0  0  0  0  0  0  0  0  0  0
  143.2306  137.1679  162.6063 O   0  0  0  0  0  0  0  0  0  0  0  0
  144.2296  137.3646  161.6093 C   0  0  0  0  0  0  0  0  0  0  0  0
  148.5613  138.9752  152.5294 H   0  0  0  0  0  0  0  0  0  0  0  0
  147.2489  139.4302  154.8500 H   0  0  0  0  0  0  0  0  0  0  0  0
  148.9748  140.8182  152.8583 H   0  0  0  0  0  0  0  0  0  0  0  0
  147.6545  141.4882  153.8024 H   0  0  0  0  0  0  0  0  0  0  0  0
  150.2187  142.1914  154.3505 H   0  0  0  0  0  0  0  0  0  0  0  0
  149.1012  141.8844  155.6795 H   0  0  0  0  0  0  0  0  0  0  0  0
  151.0909  139.9446  154.4697 H   0  0  0  0  0  0  0  0  0  0  0  0
  150.9579  140.3830  156.1724 H   0  0  0  0  0  0  0  0  0  0  0  0
  148.8506  139.3797  156.3906 H   0  0  0  0  0  0  0  0  0  0  0  0
  150.5607  137.6639  156.4009 H   0  0  0  0  0  0  0  0  0  0  0  0
  149.9848  137.1283  153.4493 H   0  0  0  0  0  0  0  0  0  0  0  0
  151.4762  137.7157  154.1476 H   0  0  0  0  0  0  0  0  0  0  0  0
  149.2885  134.8739  153.9728 H   0  0  0  0  0  0  0  0  0  0  0  0
  150.3573  133.8823  154.9501 H   0  0  0  0  0  0  0  0  0  0  0  0
  148.3857  134.6689  156.2873 H   0  0  0  0  0  0  0  0  0  0  0  0
  149.9005  135.2471  156.9621 H   0  0  0  0  0  0  0  0  0  0  0  0
  145.5445  139.1845  157.5279 H   0  0  0  0  0  0  0  0  0  0  0  0
  148.7306  134.6600  160.8239 H   0  0  0  0  0  0  0  0  0  0  0  0
  147.1100  135.7047  162.4095 H   0  0  0  0  0  0  0  0  0  0  0  0
  146.8173  137.3911  162.0708 H   0  0  0  0  0  0  0  0  0  0  0  0
  143.9283  135.1141  160.4557 H   0  0  0  0  0  0  0  0  0  0  0  0
  144.7033  134.2477  162.7285 H   0  0  0  0  0  0  0  0  0  0  0  0
  145.1249  135.6361  163.7276 H   0  0  0  0  0  0  0  0  0  0  0  0
  142.5310  135.2809  162.1698 H   0  0  0  0  0  0  0  0  0  0  0  0
  142.7126  135.6179  163.8982 H   0  0  0  0  0  0  0  0  0  0  0  0
  144.7861  138.2642  161.8704 H   0  0  0  0  0  0  0  0  0  0  0  0
  143.7665  137.5382  160.6368 H   0  0  0  0  0  0  0  0  0  0  0  0
  1  2  1  0  0  0  0
  1 29  1  0  0  0  0
  2  6  1  0  0  0  0
  2  3  1  0  0  0  0
  2 30  1  0  0  0  0
  3  4  1  0  0  0  0
  3 31  1  0  0  0  0
  3 32  1  0  0  0  0
  4  5  1  0  0  0  0
  4 33  1  0  0  0  0
  4 34  1  0  0  0  0
  5  6  1  0  0  0  0
  5 35  1  0  0  0  0
  5 36  1  0  0  0  0
  6  7  1  0  0  0  0
  6 37  1  0  0  0  0
  7 12  1  0  0  0  0
  7  8  1  0  0  0  0
  7 38  1  0  0  0  0
  8  9  1  0  0  0  0
  8 39  1  0  0  0  0
  8 40  1  0  0  0  0
  9 10  1  0  0  0  0
 10 11  1  0  0  0  0
 10 41  1  0  0  0  0
 10 42  1  0  0  0  0
 11 12  1  0  0  0  0
 11 43  1  0  0  0  0
 11 44  1  0  0  0  0
 12 13  1  0  0  0  0
 13 18  1  0  0  0  0
 13 14  2  0  0  0  0
 14 15  1  0  0  0  0
 15 16  2  0  0  0  0
 15 45  1  0  0  0  0
 16 17  1  0  0  0  0
 17 21  1  0  0  0  0
 17 18  2  0  0  0  0
 18 19  1  0  0  0  0
 19 20  2  0  0  0  0
 20 21  1  0  0  0  0
 20 46  1  0  0  0  0
 21 22  1  0  0  0  0
 22 23  1  0  0  0  0
 22 47  1  0  0  0  0
 22 48  1  0  0  0  0
 23 28  1  0  0  0  0
 23 24  1  0  0  0  0
 23 25  1  0  0  0  0
 24 49  1  0  0  0  0
 25 26  1  0  0  0  0
 25 50  1  0  0  0  0
 25 51  1  0  0  0  0
 26 27  1  0  0  0  0
 26 52  1  0  0  0  0
 26 53  1  0  0  0  0
 27 28  1  0  0  0  0
 28 54  1  0  0  0  0
 28 55  1  0  0  0  0
M  END
> <s_m_source_file>
AV-unprocessed.smi

> <i_m_source_file_index>
240

> <i_lp_mmshare_version>
43012

> <i_f3d_flags>
0

> <s_epik_input>
W09IXVtDQEBIXTFbQ0gyXVtDSDJdW0NIMl1bQ0BIXTFbQ0BASF0yW0NIMl1PW0NIMl1bQ0gyXU4yYyhuW2NIXW4zKWMoYzM0KW5bY0hdbjRbQ0gyXVtDQEBdNShbT0hdKVtDSDJdW0NIMl1PW0NIMl01

> <s_epik_cmdline>
J2VwaWtfcHl0aG9uJywgJy1waCcsICc3LjAnLCAnLXRuJywgJzgnLCAnLW1hJywgJzIwMCcsICctbWV0YWxfYmluZGluZycsICctaW1hZScsICc8aW5maWxlLm1hZT4nLCAnLW9tYWUnLCAnPG91dGZpbGUubWFlPic=

> <r_lp_tautomer_probability>
1

> <r_epik_Ionization_Penalty>
0.000130618

> <r_epik_Ionization_Penalty_Charging>
0

> <r_epik_Ionization_Penalty_Neutral>
0.000130618

> <r_epik_State_Penalty>
-0

> <r_epik_Charging_Adjusted_Penalty>
0

> <i_epik_Tot_Q>
0

> <i_epik_Tot_abs_Q>
0

> <r_epik_Metal_State_Penalty>
-0

> <b_epik_Metal_Only>
0

> <s_lp_Force_Field>
OPLS_2005

> <r_lp_Energy>
64.3211

> <b_lp_Chiralities_Consistent>
1

> <s_lp_Variant>
AV-unprocessed.smi:240-3

> <Gold.Version>
5.8.1

> <Gold.Id.Protein>
6NUR|6NUR_protein|mol2

> <Gold.PLP.Fitness>
41.3212

> <Gold.PLP.PLP>
-35.5342

> <Gold.PLP.part.hbond>
-5.9572

> <Gold.PLP.part.metal>
0.0000

> <Gold.PLP.part.buried>
-3.6807

> <Gold.PLP.part.nonpolar>
-26.1790

> <Gold.PLP.part.repulsive>
0.2185

> <Gold.PLP.ligand.clash>
0.0000

> <Gold.PLP.ligand.torsion>
1.3931

> <Gold.PLP.Chemscore.Hbond>
2.7776

> <Gold.PLP.Chemscore.CHOScore>
0.0000

> <Gold.PLP.Chemscore.Metal>
0.0000

> <Gold.Chemscore.Hbonds>
donor molecule, donor type, donor heavy atom, donor atom, acceptor molecule, acceptor atom, score
      L1  H     1    29       P1  7957  1.00
      P1  H  6896  6908       L1    19  0.32
      P1  H  6934  6947       L1    16  0.03
      P1  H 10752 10765       L1     9  0.78

> <Gold.PLP.Chemscore.Internal.Correction>
0.2406

> <Gold.Rescore>
     Score         DG    S(hbond)    S(metal)    S(lipo)     H(rot)  DE(clash)    DE(int)     intcor
      9.37     -14.41       2.21        0.00      78.91       3.00       0.05       4.99       ----

> <Gold.Chemscore.Fitness>
9.3687

> <Gold.Chemscore.DG>
-14.4096

> <Gold.Chemscore.ZeroCoef>
-5.4800

> <Gold.Chemscore.Hbond>
2.2117

> <Gold.Chemscore.Metal>
0.0000

> <Gold.Chemscore.Lipo>
78.9104

> <Gold.Chemscore.Internal_Hbond>
0.0000

> <Gold.Chemscore.DEClash>
0.0462

> <Gold.Chemscore.DEInternal>
4.9947

> <Gold.Chemscore.Rot>
3.0039

> <Gold.Chemscore.Internal.Correction>
   9.000000E+99

> <Gold.Chemscore.Hbonds>
donor molecule, donor type, donor heavy atom, donor atom, acceptor molecule, acceptor atom, score
      L1  H     1    29       P1  7957  0.95
      P1  H  6896  6908       L1    19  0.01
      P1  H 10752 10765       L1     9  0.70

> <Gold.Chemscore.Hbond.Weighted>
-7.3870

> <Gold.Chemscore.Metal.Weighted>
-0.0000

> <Gold.Chemscore.Lipo.Weighted>
-9.2325

> <Gold.Chemscore.Internal_Hbond.Weighted>
0.0000

> <Gold.Chemscore.DEClash.Weighted>
0.0462

> <Gold.Chemscore.DEInternal.Weighted>
4.9947

> <Gold.Chemscore.Rot.Weighted>
7.6899

> <Gold.Chemscore.Internal.Correction.Weighted>
   9.000000E+99

> <Gold.Protein.RotatedTorsions>
[ 6907 6896 6895 6894 ] final  165.25 input  -60.11 | X-H torsion
[ 7974 7965 7964 7962 ] final   -6.99 input  175.53 | X-H torsion
[ 8008 7997 7996 7995 ] final  -89.94 input   59.86 | X-H torsion
[ 10167 10162 10161 10158 ] final   40.84 input  -65.29 | X-H torsion
[ 10718 10713 10712 10709 ] final   81.03 input   66.30 | X-H torsion
[ 10763 10752 10751 10750 ] final -161.40 input  -60.55 | X-H torsion
[ 11005 11000 10999 10996 ] final   -7.86 input  -57.11 | X-H torsion

> <Gold.Protein.ActiveResidues>
 VAL166  LYS551  ARG553  GLY616  TRP617  ASP618  TYR619  PRO620  LYS621  CYS622 
 ASP623  PHE694  ASN695  SER759  ASP760  ASP761  ALA762  ILE779  LEU786  VAL792 
 PHE793  MET794  SER795  GLU796  ALA797  LYS798  CYS799  TRP800  GLU811  SER814 

> <Gold.Protein.RotatedAtoms>
  151.8973  133.3530  159.3818 H   0  0  0  0  0  0  0  0  0  0  0  0  # atno 6907 bound_to 6896
  150.7088  134.4864  159.5504 H   0  0  0  0  0  0  0  0  0  0  0  0  # atno 6908 bound_to 6896
  152.2445  134.8195  160.0506 H   0  0  0  0  0  0  0  0  0  0  0  0  # atno 6909 bound_to 6896
  146.2318  140.2253  142.8338 H   0  0  0  0  0  0  0  0  0  0  0  0  # atno 7974 bound_to 7965
  154.6926  140.0536  157.0378 H   0  0  0  0  0  0  0  0  0  0  0  0  # atno 8008 bound_to 7997
  155.0796  140.3208  155.4587 H   0  0  0  0  0  0  0  0  0  0  0  0  # atno 8009 bound_to 7997
  156.2733  140.2067  156.5923 H   0  0  0  0  0  0  0  0  0  0  0  0  # atno 8010 bound_to 7997
  140.3702  144.2114  150.6133 H   0  0  0  0  0  0  0  0  0  0  0  0  # atno 10167 bound_to 10162
  157.6822  130.9986  150.2167 H   0  0  0  0  0  0  0  0  0  0  0  0  # atno 10718 bound_to 10713
  154.7307  135.3046  154.8896 H   0  0  0  0  0  0  0  0  0  0  0  0  # atno 10763 bound_to 10752
  153.9740  135.6738  153.4752 H   0  0  0  0  0  0  0  0  0  0  0  0  # atno 10764 bound_to 10752
  153.0916  135.4957  154.8621 H   0  0  0  0  0  0  0  0  0  0  0  0  # atno 10765 bound_to 10752
  140.7173  133.8858  155.8795 H   0  0  0  0  0  0  0  0  0  0  0  0  # atno 11005 bound_to 11000
  144.9600  140.8265  143.5519 LP  0  0  0  0  0  0  0  0  0  0  0  0  # atno 17320 bound_to 7965
  145.2223  139.2153  143.5086 LP  0  0  0  0  0  0  0  0  0  0  0  0  # atno 17321 bound_to 7965
  140.5040  143.2309  151.8635 LP  0  0  0  0  0  0  0  0  0  0  0  0  # atno 17342 bound_to 10162
  139.4804  144.5026  151.9040 LP  0  0  0  0  0  0  0  0  0  0  0  0  # atno 17343 bound_to 10162
  156.2827  130.3735  149.7920 LP  0  0  0  0  0  0  0  0  0  0  0  0  # atno 17370 bound_to 10713
  156.5603  130.8380  151.3327 LP  0  0  0  0  0  0  0  0  0  0  0  0  # atno 17371 bound_to 10713
  141.0033  134.1120  157.4295 LP  0  0  0  0  0  0  0  0  0  0  0  0  # atno 17394 bound_to 11000
  139.8856  135.0074  156.6449 LP  0  0  0  0  0  0  0  0  0  0  0  0  # atno 17395 bound_to 11000

$$$$
