AV-unprocessed.smi:985|AV-procd|sdf|4318|dock2
  -GOLD-   22720 2223D 1   1.00000     0.00000
 Structure written by MMmdl.
 26 27  0  0  0  0  0  0  0  0  2 V2000
  153.3988  138.3973  154.5579 C   0  0  0  0  0  0  0  0  0  0  0  0
  152.4437  139.2990  155.2618 C   0  0  0  0  0  0  0  0  0  0  0  0
  151.3523  139.8693  154.7572 N   0  0  0  0  0  0  0  0  0  0  0  0
  150.8927  140.5596  155.8385 C   0  0  0  0  0  0  0  0  0  0  0  0
  149.6523  141.3991  155.8039 C   0  0  2  0  0  0  0  0  0  0  0  0
  148.6316  140.9733  156.8763 C   0  0  0  0  0  0  0  0  0  0  0  0
  147.3728  141.8509  156.7969 C   0  0  0  0  0  0  0  0  0  0  0  0
  146.7873  141.8478  155.3746 C   0  0  0  0  0  0  0  0  0  0  0  0
  147.8021  142.2825  154.3900 N   0  3  0  0  0  0  0  0  0  0  0  0
  149.0175  141.4380  154.3988 C   0  0  0  0  0  0  0  0  0  0  0  0
  151.6216  140.4540  156.9432 N   0  0  0  0  0  0  0  0  0  0  0  0
  152.6694  139.6034  156.5618 O   0  0  0  0  0  0  0  0  0  0  0  0
  153.0925  138.2524  153.5215 H   0  0  0  0  0  0  0  0  0  0  0  0
  153.4299  137.4265  155.0528 H   0  0  0  0  0  0  0  0  0  0  0  0
  154.3992  138.8298  154.5702 H   0  0  0  0  0  0  0  0  0  0  0  0
  149.9503  142.4221  156.0428 H   0  0  0  0  0  0  0  0  0  0  0  0
  148.3532  139.9283  156.7325 H   0  0  0  0  0  0  0  0  0  0  0  0
  149.0740  141.0446  157.8707 H   0  0  0  0  0  0  0  0  0  0  0  0
  146.6266  141.4972  157.5089 H   0  0  0  0  0  0  0  0  0  0  0  0
  147.6189  142.8726  157.0892 H   0  0  0  0  0  0  0  0  0  0  0  0
  146.4324  140.8505  155.1110 H   0  0  0  0  0  0  0  0  0  0  0  0
  145.9285  142.5169  155.3184 H   0  0  0  0  0  0  0  0  0  0  0  0
  147.3939  142.2594  153.4664 H   0  0  0  0  0  0  0  0  0  0  0  0
  149.7264  141.8342  153.6709 H   0  0  0  0  0  0  0  0  0  0  0  0
  148.7510  140.4323  154.0699 H   0  0  0  0  0  0  0  0  0  0  0  0
  148.0691  143.2328  154.6042 H   0  0  0  0  0  0  0  0  0  0  0  0
  1  2  1  0  0  0  0
  1 13  1  0  0  0  0
  1 14  1  0  0  0  0
  1 15  1  0  0  0  0
  2 12  1  0  0  0  0
  2  3  2  0  0  0  0
  3  4  1  0  0  0  0
  4  5  1  0  0  0  0
  4 11  2  0  0  0  0
  5 10  1  0  0  0  0
  5  6  1  0  0  0  0
  5 16  1  0  0  0  0
  6  7  1  0  0  0  0
  6 17  1  0  0  0  0
  6 18  1  0  0  0  0
  7  8  1  0  0  0  0
  7 19  1  0  0  0  0
  7 20  1  0  0  0  0
  8  9  1  0  0  0  0
  8 21  1  0  0  0  0
  8 22  1  0  0  0  0
  9 10  1  0  0  0  0
  9 23  1  0  0  0  0
  9 26  1  0  0  0  0
 10 24  1  0  0  0  0
 10 25  1  0  0  0  0
 11 12  1  0  0  0  0
M  CHG  1   9   1
M  END
> <s_m_source_file>
AV-unprocessed.smi

> <i_m_source_file_index>
985

> <i_lp_mmshare_version>
43012

> <i_f3d_flags>
0

> <s_epik_input>
W0NIM11jMW5jKG5vMSlbQ0BASF0yW0NIMl1bQ0gyXVtDSDJdW05IXVtDSDJdMg==

> <s_epik_cmdline>
J2VwaWtfcHl0aG9uJywgJy1waCcsICc3LjAnLCAnLXRuJywgJzgnLCAnLW1hJywgJzIwMCcsICctbWV0YWxfYmluZGluZycsICctaW1hZScsICc8aW5maWxlLm1hZT4nLCAnLW9tYWUnLCAnPG91dGZpbGUubWFlPic=

> <r_lp_tautomer_probability>
1

> <r_epik_Ionization_Penalty>
0.000532935

> <r_epik_Ionization_Penalty_Charging>
0.000532935

> <r_epik_Ionization_Penalty_Neutral>
3.88228e-13

> <r_epik_State_Penalty>
0.000332992

> <r_epik_Charging_Adjusted_Penalty>
0.000865928

> <i_epik_Tot_Q>
1

> <i_epik_Tot_abs_Q>
1

> <r_epik_Metal_State_Penalty>
-0

> <b_epik_Metal_Only>
0

> <s_lp_Force_Field>
OPLS_2005

> <r_lp_Energy>
6.62541

> <b_lp_Chiralities_Consistent>
1

> <s_lp_Variant>
AV-unprocessed.smi:985-1

> <Gold.Version>
5.8.1

> <Gold.Id.Protein>
6NUR|6NUR_protein|mol2

> <Gold.PLP.Fitness>
34.5126

> <Gold.PLP.PLP>
-22.5128

> <Gold.PLP.part.hbond>
-3.0000

> <Gold.PLP.part.metal>
0.0000

> <Gold.PLP.part.buried>
-2.8078

> <Gold.PLP.part.nonpolar>
-17.3511

> <Gold.PLP.part.repulsive>
0.2491

> <Gold.PLP.ligand.clash>
0.0000

> <Gold.PLP.ligand.torsion>
0.0217

> <Gold.PLP.Chemscore.Hbond>
4.0000

> <Gold.PLP.Chemscore.CHOScore>
0.0000

> <Gold.PLP.Chemscore.Metal>
0.0000

> <Gold.Chemscore.Hbonds>
donor molecule, donor type, donor heavy atom, donor atom, acceptor molecule, acceptor atom, score
      L1  H     9    26       P1  8028  2.00
      P1  H  7989  7998       L1     3  1.00
      P1  H  7997  8008       L1    12  1.00

> <Gold.PLP.Chemscore.Internal.Correction>
0.0432

> <Gold.Rescore>
     Score         DG    S(hbond)    S(metal)    S(lipo)     H(rot)  DE(clash)    DE(int)     intcor
     14.91     -14.97       2.42        0.00      33.91       1.00       0.03       0.02       ----

> <Gold.Chemscore.Fitness>
14.9102

> <Gold.Chemscore.DG>
-14.9670

> <Gold.Chemscore.ZeroCoef>
-5.4800

> <Gold.Chemscore.Hbond>
2.4191

> <Gold.Chemscore.Metal>
0.0000

> <Gold.Chemscore.Lipo>
33.9068

> <Gold.Chemscore.Internal_Hbond>
0.0000

> <Gold.Chemscore.DEClash>
0.0324

> <Gold.Chemscore.DEInternal>
0.0244

> <Gold.Chemscore.Rot>
1.0000

> <Gold.Chemscore.Internal.Correction>
   9.000000E+99

> <Gold.Chemscore.Hbonds>
donor molecule, donor type, donor heavy atom, donor atom, acceptor molecule, acceptor atom, score
      L1  H     9    26       P1  8028  0.91
      P1  H  7989  7998       L1     3  0.69
      P1  H  7997  8008       L1    12  0.30

> <Gold.Chemscore.Hbond.Weighted>
-8.0799

> <Gold.Chemscore.Metal.Weighted>
-0.0000

> <Gold.Chemscore.Lipo.Weighted>
-3.9671

> <Gold.Chemscore.Internal_Hbond.Weighted>
0.0000

> <Gold.Chemscore.DEClash.Weighted>
0.0324

> <Gold.Chemscore.DEInternal.Weighted>
0.0244

> <Gold.Chemscore.Rot.Weighted>
2.5600

> <Gold.Chemscore.Internal.Correction.Weighted>
   9.000000E+99

> <Gold.Protein.RotatedTorsions>
[ 6907 6896 6895 6894 ] final   24.15 input  -60.11 | X-H torsion
[ 7974 7965 7964 7962 ] final -160.32 input  175.53 | X-H torsion
[ 8008 7997 7996 7995 ] final  -51.49 input   59.86 | X-H torsion
[ 10167 10162 10161 10158 ] final  -63.30 input  -65.29 | X-H torsion
[ 10718 10713 10712 10709 ] final  157.99 input   66.30 | X-H torsion
[ 10763 10752 10751 10750 ] final   64.78 input  -60.55 | X-H torsion
[ 11005 11000 10999 10996 ] final   21.50 input  -57.11 | X-H torsion

> <Gold.Protein.ActiveResidues>
 VAL166  LYS551  ARG553  GLY616  TRP617  ASP618  TYR619  PRO620  LYS621  CYS622 
 ASP623  PHE694  ASN695  SER759  ASP760  ASP761  ALA762  ILE779  LEU786  VAL792 
 PHE793  MET794  SER795  GLU796  ALA797  LYS798  CYS799  TRP800  GLU811  SER814 

> <Gold.Protein.RotatedAtoms>
  151.9531  135.0159  160.0542 H   0  0  0  0  0  0  0  0  0  0  0  0  # atno 6907 bound_to 6896
  152.1935  133.4785  159.5029 H   0  0  0  0  0  0  0  0  0  0  0  0  # atno 6908 bound_to 6896
  150.6940  134.1599  159.4215 H   0  0  0  0  0  0  0  0  0  0  0  0  # atno 6909 bound_to 6896
  144.7431  140.3558  143.6106 H   0  0  0  0  0  0  0  0  0  0  0  0  # atno 7974 bound_to 7965
  154.4084  140.1246  156.4837 H   0  0  0  0  0  0  0  0  0  0  0  0  # atno 8008 bound_to 7997
  155.7059  140.3494  155.4933 H   0  0  0  0  0  0  0  0  0  0  0  0  # atno 8009 bound_to 7997
  155.9344  140.1075  157.1097 H   0  0  0  0  0  0  0  0  0  0  0  0  # atno 8010 bound_to 7997
  140.5880  143.2337  151.6201 H   0  0  0  0  0  0  0  0  0  0  0  0  # atno 10167 bound_to 10162
  157.1840  131.0639  151.2116 H   0  0  0  0  0  0  0  0  0  0  0  0  # atno 10718 bound_to 10713
  153.0069  135.5380  154.6564 H   0  0  0  0  0  0  0  0  0  0  0  0  # atno 10763 bound_to 10752
  154.5783  135.2847  155.0760 H   0  0  0  0  0  0  0  0  0  0  0  0  # atno 10764 bound_to 10752
  154.1899  135.6502  153.5109 H   0  0  0  0  0  0  0  0  0  0  0  0  # atno 10765 bound_to 10752
  140.3909  134.1820  155.7662 H   0  0  0  0  0  0  0  0  0  0  0  0  # atno 11005 bound_to 11000
  145.7229  139.1714  143.2474 LP  0  0  0  0  0  0  0  0  0  0  0  0  # atno 17320 bound_to 7965
  146.1264  140.7243  142.9433 LP  0  0  0  0  0  0  0  0  0  0  0  0  # atno 17321 bound_to 7965
  139.5209  144.3208  152.0912 LP  0  0  0  0  0  0  0  0  0  0  0  0  # atno 17342 bound_to 10162
  140.2367  144.4311  150.6277 LP  0  0  0  0  0  0  0  0  0  0  0  0  # atno 17343 bound_to 10162
  157.3925  130.7289  149.6708 LP  0  0  0  0  0  0  0  0  0  0  0  0  # atno 17370 bound_to 10713
  155.9720  130.4142  150.4123 LP  0  0  0  0  0  0  0  0  0  0  0  0  # atno 17371 bound_to 10713
  141.1891  133.8246  157.0969 LP  0  0  0  0  0  0  0  0  0  0  0  0  # atno 17394 bound_to 11000
  140.0407  134.9855  157.0957 LP  0  0  0  0  0  0  0  0  0  0  0  0  # atno 17395 bound_to 11000

$$$$
