AV-unprocessed.smi:1744|AV-procd|sdf|7027|dock6
  -GOLD-   22720 8243D 1   1.00000     0.00000
 Structure written by MMmdl.
 43 44  0  0  0  0  0  0  0  0  3 V2000
  153.2145  142.8482  162.4190 C   0  0  0  0  0  0  0  0  0  0  0  0
  153.5665  142.2321  161.0594 C   0  0  0  0  0  0  0  0  0  0  0  0
  152.7980  142.8267  159.9830 N   0  0  0  0  0  0  0  0  0  0  0  0
  151.9392  142.2015  159.1011 C   0  0  0  0  0  0  0  0  0  0  0  0
  151.4613  143.1843  158.2877 C   0  0  0  0  0  0  0  0  0  0  0  0
  150.5424  142.9817  157.2282 N   0  0  0  0  0  0  0  0  0  0  0  0
  149.9684  141.8249  156.8608 C   0  0  0  0  0  0  0  0  0  0  0  0
  150.1684  140.7338  157.3943 O   0  0  0  0  0  0  0  0  0  0  0  0
  149.1441  142.0003  155.8181 N   0  0  0  0  0  0  0  0  0  0  0  0
  148.3805  140.9428  155.1621 C   0  0  2  0  0  0  0  0  0  0  0  0
  149.3049  140.0499  154.3144 C   0  0  0  0  0  0  0  0  0  0  0  0
  148.5007  139.0034  153.5258 C   0  0  0  0  0  0  0  0  0  0  0  0
  147.4706  139.6497  152.6746 N   0  3  1  0  0  0  0  0  0  0  0  0
  146.7800  138.6801  151.7866 C   0  0  0  0  0  0  0  0  0  0  0  0
  145.8055  137.8097  152.5873 C   0  0  0  0  0  0  0  0  0  0  0  0
  144.5286  137.9579  152.1798 N   0  5  0  0  0  0  0  0  0  0  0  0
  146.2326  137.0897  153.4867 O   0  0  0  0  0  0  0  0  0  0  0  0
  146.5366  140.4802  153.4813 C   0  0  0  0  0  0  0  0  0  0  0  0
  147.2969  141.5625  154.2650 C   0  0  0  0  0  0  0  0  0  0  0  0
  152.0792  144.3887  158.7285 C   0  0  0  0  0  0  0  0  0  0  0  0
  152.8862  144.1605  159.7539 N   0  0  0  0  0  0  0  0  0  0  0  0
  153.7803  142.3709  163.2194 H   0  0  0  0  0  0  0  0  0  0  0  0
  152.1543  142.7278  162.6424 H   0  0  0  0  0  0  0  0  0  0  0  0
  153.4435  143.9140  162.4412 H   0  0  0  0  0  0  0  0  0  0  0  0
  154.6284  142.3617  160.8464 H   0  0  0  0  0  0  0  0  0  0  0  0
  153.3744  141.1588  161.0732 H   0  0  0  0  0  0  0  0  0  0  0  0
  151.7462  141.1393  159.1322 H   0  0  0  0  0  0  0  0  0  0  0  0
  150.3057  143.8010  156.6880 H   0  0  0  0  0  0  0  0  0  0  0  0
  149.0434  142.9331  155.4450 H   0  0  0  0  0  0  0  0  0  0  0  0
  147.8883  140.3295  155.9197 H   0  0  0  0  0  0  0  0  0  0  0  0
  149.8772  140.6642  153.6176 H   0  0  0  0  0  0  0  0  0  0  0  0
  150.0331  139.5469  154.9520 H   0  0  0  0  0  0  0  0  0  0  0  0
  149.1836  138.4253  152.9024 H   0  0  0  0  0  0  0  0  0  0  0  0
  148.0214  138.3010  154.2094 H   0  0  0  0  0  0  0  0  0  0  0  0
  146.2095  139.2056  151.0186 H   0  0  0  0  0  0  0  0  0  0  0  0
  147.5087  138.0596  151.2623 H   0  0  0  0  0  0  0  0  0  0  0  0
  144.3325  138.5273  151.3481 H   0  0  0  0  0  0  0  0  0  0  0  0
  145.8025  140.9613  152.8343 H   0  0  0  0  0  0  0  0  0  0  0  0
  145.9793  139.8409  154.1678 H   0  0  0  0  0  0  0  0  0  0  0  0
  146.5962  142.1402  154.8691 H   0  0  0  0  0  0  0  0  0  0  0  0
  147.7503  142.2633  153.5621 H   0  0  0  0  0  0  0  0  0  0  0  0
  151.9811  145.3973  158.3554 H   0  0  0  0  0  0  0  0  0  0  0  0
  147.9625  140.2770  152.0536 H   0  0  0  0  0  0  0  0  0  0  0  0
  1  2  1  0  0  0  0
  1 22  1  0  0  0  0
  1 23  1  0  0  0  0
  1 24  1  0  0  0  0
  2  3  1  0  0  0  0
  2 25  1  0  0  0  0
  2 26  1  0  0  0  0
  3 21  1  0  0  0  0
  3  4  1  0  0  0  0
  4  5  2  0  0  0  0
  4 27  1  0  0  0  0
  5  6  1  0  0  0  0
  5 20  1  0  0  0  0
  6  7  1  0  0  0  0
  6 28  1  0  0  0  0
  7  8  2  0  0  0  0
  7  9  1  0  0  0  0
  9 10  1  0  0  0  0
  9 29  1  0  0  0  0
 10 19  1  0  0  0  0
 10 11  1  0  0  0  0
 10 30  1  0  0  0  0
 11 12  1  0  0  0  0
 11 31  1  0  0  0  0
 11 32  1  0  0  0  0
 12 13  1  0  0  0  0
 12 33  1  0  0  0  0
 12 34  1  0  0  0  0
 13 14  1  0  0  0  0
 13 18  1  0  0  0  0
 13 43  1  0  0  0  0
 14 15  1  0  0  0  0
 14 35  1  0  0  0  0
 14 36  1  0  0  0  0
 15 16  1  0  0  0  0
 15 17  2  0  0  0  0
 16 37  1  0  0  0  0
 18 19  1  0  0  0  0
 18 38  1  0  0  0  0
 18 39  1  0  0  0  0
 19 40  1  0  0  0  0
 19 41  1  0  0  0  0
 20 21  2  0  0  0  0
 20 42  1  0  0  0  0
M  CHG  1  13   1
M  CHG  1  16  -1
M  END
> <s_m_source_file>
AV-unprocessed.smi

> <i_m_source_file_index>
1744

> <i_lp_mmshare_version>
43012

> <i_f3d_flags>
0

> <s_epik_input>
W0NIM11bQ0gyXW4xW2NIXWMoW2NIXW4xKVtOSF1DKD1PKVtOSF1bQ0hdMltDSDJdW0NIMl1OKFtDSDJdW0NIMl0yKVtDSDJdQyg9TylbTkgyXQ==

> <s_epik_cmdline>
J2VwaWtfcHl0aG9uJywgJy1waCcsICc3LjAnLCAnLXRuJywgJzgnLCAnLW1hJywgJzIwMCcsICctbWV0YWxfYmluZGluZycsICctaW1hZScsICc8aW5maWxlLm1hZT4nLCAnLW9tYWUnLCAnPG91dGZpbGUubWFlPic=

> <r_lp_tautomer_probability>
1

> <r_epik_Ionization_Penalty>
5.72895

> <r_epik_Ionization_Penalty_Charging>
5.7288

> <r_epik_Ionization_Penalty_Neutral>
0.000148676

> <r_epik_State_Penalty>
6.54882

> <r_epik_Charging_Adjusted_Penalty>
12.2776

> <i_epik_Tot_Q>
0

> <i_epik_Tot_abs_Q>
2

> <r_epik_Metal_State_Penalty>
2.51309

> <b_epik_Metal_Only>
1

> <s_lp_Force_Field>
OPLS_2005

> <r_lp_Energy>
12.1226

> <b_lp_Chiralities_Consistent>
1

> <s_lp_Variant>
AV-unprocessed.smi:1744-4

> <Gold.Version>
5.8.1

> <Gold.Id.Protein>
6NUR|6NUR_protein|mol2

> <Gold.PLP.Fitness>
52.9673

> <Gold.PLP.PLP>
-42.5260

> <Gold.PLP.part.hbond>
-4.9931

> <Gold.PLP.part.metal>
0.0000

> <Gold.PLP.part.buried>
0.1177

> <Gold.PLP.part.nonpolar>
-38.1939

> <Gold.PLP.part.repulsive>
0.3456

> <Gold.PLP.ligand.clash>
0.0000

> <Gold.PLP.ligand.torsion>
0.2240

> <Gold.PLP.Chemscore.Hbond>
3.6160

> <Gold.PLP.Chemscore.CHOScore>
0.0000

> <Gold.PLP.Chemscore.Metal>
0.0000

> <Gold.Chemscore.Hbonds>
donor molecule, donor type, donor heavy atom, donor atom, acceptor molecule, acceptor atom, score
      L1  H     6    28       P1  8028  0.93
      L1  H     9    29       P1  8028  1.00
      L1  H    13    43       P1  7957  0.61
      L1  H    16    37       P1 10171  0.99

> <Gold.PLP.Chemscore.Internal.Correction>
0.0412

> <Gold.Rescore>
     Score         DG    S(hbond)    S(metal)    S(lipo)     H(rot)  DE(clash)    DE(int)     intcor
     18.54     -21.78       3.36        0.00      91.09       2.18       1.66       1.58       ----

> <Gold.Chemscore.Fitness>
18.5425

> <Gold.Chemscore.DG>
-21.7836

> <Gold.Chemscore.ZeroCoef>
-5.4800

> <Gold.Chemscore.Hbond>
3.3640

> <Gold.Chemscore.Metal>
0.0000

> <Gold.Chemscore.Lipo>
91.0858

> <Gold.Chemscore.Internal_Hbond>
0.0000

> <Gold.Chemscore.DEClash>
1.6587

> <Gold.Chemscore.DEInternal>
1.5824

> <Gold.Chemscore.Rot>
2.1833

> <Gold.Chemscore.Internal.Correction>
   9.000000E+99

> <Gold.Chemscore.Hbonds>
donor molecule, donor type, donor heavy atom, donor atom, acceptor molecule, acceptor atom, score
      L1  H     6    28       P1  8028  0.88
      L1  H     9    29       P1  8028  0.96
      L1  H    13    43       P1  7957  0.60
      L1  H    16    37       P1 10171  0.92

> <Gold.Chemscore.Hbond.Weighted>
-11.2357

> <Gold.Chemscore.Metal.Weighted>
-0.0000

> <Gold.Chemscore.Lipo.Weighted>
-10.6570

> <Gold.Chemscore.Internal_Hbond.Weighted>
0.0000

> <Gold.Chemscore.DEClash.Weighted>
1.6587

> <Gold.Chemscore.DEInternal.Weighted>
1.5824

> <Gold.Chemscore.Rot.Weighted>
5.5892

> <Gold.Chemscore.Internal.Correction.Weighted>
   9.000000E+99

> <Gold.Protein.RotatedTorsions>
[ 6907 6896 6895 6894 ] final   43.49 input  -60.11 | X-H torsion
[ 7974 7965 7964 7962 ] final  119.57 input  175.53 | X-H torsion
[ 8008 7997 7996 7995 ] final -156.56 input   59.86 | X-H torsion
[ 10167 10162 10161 10158 ] final -165.74 input  -65.29 | X-H torsion
[ 10718 10713 10712 10709 ] final  106.00 input   66.30 | X-H torsion
[ 10763 10752 10751 10750 ] final   58.94 input  -60.55 | X-H torsion
[ 11005 11000 10999 10996 ] final   83.43 input  -57.11 | X-H torsion

> <Gold.Protein.ActiveResidues>
 VAL166  LYS551  ARG553  GLY616  TRP617  ASP618  TYR619  PRO620  LYS621  CYS622 
 ASP623  PHE694  ASN695  SER759  ASP760  ASP761  ALA762  ILE779  LEU786  VAL792 
 PHE793  MET794  SER795  GLU796  ALA797  LYS798  CYS799  TRP800  GLU811  SER814 

> <Gold.Protein.RotatedAtoms>
  152.2209  134.8413  160.0485 H   0  0  0  0  0  0  0  0  0  0  0  0  # atno 6907 bound_to 6896
  151.9197  133.3577  159.3901 H   0  0  0  0  0  0  0  0  0  0  0  0  # atno 6908 bound_to 6896
  150.7000  134.4573  159.5408 H   0  0  0  0  0  0  0  0  0  0  0  0  # atno 6909 bound_to 6896
  145.1416  139.3265  143.4613 H   0  0  0  0  0  0  0  0  0  0  0  0  # atno 7974 bound_to 7965
  155.7191  140.0788  157.2338 H   0  0  0  0  0  0  0  0  0  0  0  0  # atno 8008 bound_to 7997
  154.4047  140.1616  156.2436 H   0  0  0  0  0  0  0  0  0  0  0  0  # atno 8009 bound_to 7997
  155.9213  140.3397  155.6178 H   0  0  0  0  0  0  0  0  0  0  0  0  # atno 8010 bound_to 7997
  139.6162  144.0715  152.1890 H   0  0  0  0  0  0  0  0  0  0  0  0  # atno 10167 bound_to 10162
  157.6685  131.0841  150.5941 H   0  0  0  0  0  0  0  0  0  0  0  0  # atno 10718 bound_to 10713
  152.9882  135.5589  154.5633 H   0  0  0  0  0  0  0  0  0  0  0  0  # atno 10763 bound_to 10752
  154.5047  135.2799  155.1394 H   0  0  0  0  0  0  0  0  0  0  0  0  # atno 10764 bound_to 10752
  154.2809  135.6345  153.5400 H   0  0  0  0  0  0  0  0  0  0  0  0  # atno 10765 bound_to 10752
  139.9031  134.8144  156.2309 H   0  0  0  0  0  0  0  0  0  0  0  0  # atno 11005 bound_to 11000
  146.3504  140.1455  142.8593 LP  0  0  0  0  0  0  0  0  0  0  0  0  # atno 17320 bound_to 7965
  145.0527  140.9029  143.4986 LP  0  0  0  0  0  0  0  0  0  0  0  0  # atno 17321 bound_to 7965
  140.0346  144.6054  150.7460 LP  0  0  0  0  0  0  0  0  0  0  0  0  # atno 17342 bound_to 10162
  140.7352  143.2738  151.3805 LP  0  0  0  0  0  0  0  0  0  0  0  0  # atno 17343 bound_to 10162
  156.6241  130.4414  149.5811 LP  0  0  0  0  0  0  0  0  0  0  0  0  # atno 17370 bound_to 10713
  156.2332  130.6807  151.1484 LP  0  0  0  0  0  0  0  0  0  0  0  0  # atno 17371 bound_to 10713
  141.0346  133.6970  156.1490 LP  0  0  0  0  0  0  0  0  0  0  0  0  # atno 17394 bound_to 11000
  140.7046  134.4527  157.5584 LP  0  0  0  0  0  0  0  0  0  0  0  0  # atno 17395 bound_to 11000

$$$$
