AV-unprocessed.smi:26|AV-procd|sdf|184|dock8
  -GOLD-   2262015443D 1   1.00000     0.00000
 Structure written by MMmdl.
 58 61  0  0  0  0  0  0  0  0  1 V2000
  148.9284  139.0746  153.7934 C   0  0  0  0  0  0  0  0  0  0  0  0
  149.4611  137.9951  154.6812 C   0  0  0  0  0  0  0  0  0  0  0  0
  148.8603  136.8347  155.0678 C   0  0  0  0  0  0  0  0  0  0  0  0
  149.7627  136.1132  155.8929 C   0  0  0  0  0  0  0  0  0  0  0  0
  149.5620  134.8091  156.5695 C   0  0  0  0  0  0  0  0  0  0  0  0
  150.4189  134.2908  157.2848 O   0  0  0  0  0  0  0  0  0  0  0  0
  148.2290  134.0833  156.3243 C   0  0  0  0  0  0  0  0  0  0  0  0
  148.2415  133.3715  155.0512 N   0  0  0  0  0  0  0  0  0  0  0  0
  149.0584  132.2175  154.9333 C   0  0  0  0  0  0  0  0  0  0  0  0
  149.7769  131.8219  155.8521 O   0  0  0  0  0  0  0  0  0  0  0  0
  148.9764  131.5437  153.6422 C   0  0  0  0  0  0  0  0  0  0  0  0
  149.7162  130.4446  153.4184 F   0  0  0  0  0  0  0  0  0  0  0  0
  148.1689  132.0049  152.6639 C   0  0  0  0  0  0  0  0  0  0  0  0
  147.3729  133.1279  152.8087 N   0  0  0  0  0  0  0  0  0  0  0  0
  146.4859  133.6080  151.6822 C   0  0  1  0  0  0  0  0  0  0  0  0
  146.9259  132.9786  150.3558 C   0  0  0  0  0  0  0  0  0  0  0  0
  145.9921  131.7925  150.2466 C   0  0  0  0  0  0  0  0  0  0  0  0
  144.7225  132.3425  150.8853 C   0  0  0  0  0  0  0  0  0  0  0  0
  145.1718  133.1986  151.9315 O   0  0  0  0  0  0  0  0  0  0  0  0
  147.4011  133.8560  154.0180 C   0  0  0  0  0  0  0  0  0  0  0  0
  146.7169  134.8723  154.1588 O   0  0  0  0  0  0  0  0  0  0  0  0
  150.9092  136.8636  156.0076 C   0  0  0  0  0  0  0  0  0  0  0  0
  152.1839  136.5626  156.7460 C   0  0  0  0  0  0  0  0  0  0  0  0
  150.7237  138.0404  155.2690 N   0  0  0  0  0  0  0  0  0  0  0  0
  151.6844  139.1383  155.0809 C   0  0  2  0  0  0  0  0  0  0  0  0
  153.0681  138.5968  154.6708 C   0  0  0  0  0  0  0  0  0  0  0  0
  151.6705  140.1399  156.2389 C   0  0  0  0  0  0  0  0  0  0  0  0
  152.1196  139.7183  157.5105 C   0  0  0  0  0  0  0  0  0  0  0  0
  152.1200  140.6073  158.6024 C   0  0  0  0  0  0  0  0  0  0  0  0
  151.6660  141.9286  158.4347 C   0  0  0  0  0  0  0  0  0  0  0  0
  151.2105  142.3578  157.1744 C   0  0  0  0  0  0  0  0  0  0  0  0
  151.2095  141.4689  156.0820 C   0  0  0  0  0  0  0  0  0  0  0  0
  147.9628  138.7904  153.3741 H   0  0  0  0  0  0  0  0  0  0  0  0
  149.6052  139.2680  152.9610 H   0  0  0  0  0  0  0  0  0  0  0  0
  148.7883  140.0026  154.3479 H   0  0  0  0  0  0  0  0  0  0  0  0
  147.8648  136.5323  154.7778 H   0  0  0  0  0  0  0  0  0  0  0  0
  148.0274  133.3527  157.1095 H   0  0  0  0  0  0  0  0  0  0  0  0
  147.3777  134.7639  156.3417 H   0  0  0  0  0  0  0  0  0  0  0  0
  148.1553  131.4649  151.7290 H   0  0  0  0  0  0  0  0  0  0  0  0
  146.5337  134.6977  151.6920 H   0  0  0  0  0  0  0  0  0  0  0  0
  146.7339  133.6911  149.5528 H   0  0  0  0  0  0  0  0  0  0  0  0
  147.9845  132.7152  150.3499 H   0  0  0  0  0  0  0  0  0  0  0  0
  145.8418  131.4576  149.2201 H   0  0  0  0  0  0  0  0  0  0  0  0
  146.3762  130.9535  150.8276 H   0  0  0  0  0  0  0  0  0  0  0  0
  144.1614  132.9365  150.1627 H   0  0  0  0  0  0  0  0  0  0  0  0
  144.0669  131.5580  151.2635 H   0  0  0  0  0  0  0  0  0  0  0  0
  152.1647  137.0002  157.7441 H   0  0  0  0  0  0  0  0  0  0  0  0
  153.0600  136.9407  156.2252 H   0  0  0  0  0  0  0  0  0  0  0  0
  152.3396  135.4901  156.8549 H   0  0  0  0  0  0  0  0  0  0  0  0
  151.3449  139.7372  154.2372 H   0  0  0  0  0  0  0  0  0  0  0  0
  153.7454  139.4088  154.4053 H   0  0  0  0  0  0  0  0  0  0  0  0
  152.9842  137.9500  153.7970 H   0  0  0  0  0  0  0  0  0  0  0  0
  153.5394  138.0116  155.4591 H   0  0  0  0  0  0  0  0  0  0  0  0
  152.4703  138.7060  157.6499 H   0  0  0  0  0  0  0  0  0  0  0  0
  152.4690  140.2751  159.5689 H   0  0  0  0  0  0  0  0  0  0  0  0
  151.6666  142.6113  159.2714 H   0  0  0  0  0  0  0  0  0  0  0  0
  150.8613  143.3716  157.0444 H   0  0  0  0  0  0  0  0  0  0  0  0
  150.8569  141.8286  155.1276 H   0  0  0  0  0  0  0  0  0  0  0  0
  1  2  1  0  0  0  0
  1 33  1  0  0  0  0
  1 34  1  0  0  0  0
  1 35  1  0  0  0  0
  2 24  1  0  0  0  0
  2  3  2  0  0  0  0
  3  4  1  0  0  0  0
  3 36  1  0  0  0  0
  4  5  1  0  0  0  0
  4 22  2  0  0  0  0
  5  6  2  0  0  0  0
  5  7  1  0  0  0  0
  7  8  1  0  0  0  0
  7 37  1  0  0  0  0
  7 38  1  0  0  0  0
  8 20  1  0  0  0  0
  8  9  1  0  0  0  0
  9 10  2  0  0  0  0
  9 11  1  0  0  0  0
 11 12  1  0  0  0  0
 11 13  2  0  0  0  0
 13 14  1  0  0  0  0
 13 39  1  0  0  0  0
 14 15  1  0  0  0  0
 14 20  1  0  0  0  0
 15 19  1  0  0  0  0
 15 16  1  0  0  0  0
 15 40  1  0  0  0  0
 16 17  1  0  0  0  0
 16 41  1  0  0  0  0
 16 42  1  0  0  0  0
 17 18  1  0  0  0  0
 17 43  1  0  0  0  0
 17 44  1  0  0  0  0
 18 19  1  0  0  0  0
 18 45  1  0  0  0  0
 18 46  1  0  0  0  0
 20 21  2  0  0  0  0
 22 23  1  0  0  0  0
 22 24  1  0  0  0  0
 23 47  1  0  0  0  0
 23 48  1  0  0  0  0
 23 49  1  0  0  0  0
 24 25  1  0  0  0  0
 25 26  1  0  0  0  0
 25 27  1  0  0  0  0
 25 50  1  0  0  0  0
 26 51  1  0  0  0  0
 26 52  1  0  0  0  0
 26 53  1  0  0  0  0
 27 32  1  0  0  0  0
 27 28  2  0  0  0  0
 28 29  1  0  0  0  0
 28 54  1  0  0  0  0
 29 30  2  0  0  0  0
 29 55  1  0  0  0  0
 30 31  1  0  0  0  0
 30 56  1  0  0  0  0
 31 32  2  0  0  0  0
 31 57  1  0  0  0  0
 32 58  1  0  0  0  0
M  END
> <s_m_source_file>
AV-unprocessed.smi

> <i_m_source_file_index>
26

> <i_lp_mmshare_version>
43012

> <i_f3d_flags>
0

> <s_epik_input>
W2NIXTFbY0hdW2NIXVtjSF1bY0hdYzFbQ0BASF0oW0NIM10pbjJjKFtDSDNdKWMoW2NIXWMyW0NIM10pQyg9TylbQ0gyXW4zYyg9TyljKEYpW2NIXW4oYzM9TylbQ0BASF00W0NIMl1bQ0gyXVtDSDJdTzQ=

> <s_epik_cmdline>
J2VwaWtfcHl0aG9uJywgJy1waCcsICc3LjAnLCAnLXRuJywgJzgnLCAnLW1hJywgJzIwMCcsICctbWV0YWxfYmluZGluZycsICctaW1hZScsICc8aW5maWxlLm1hZT4nLCAnLW9tYWUnLCAnPG91dGZpbGUubWFlPic=

> <r_lp_tautomer_probability>
1

> <r_epik_Ionization_Penalty>
5.02402e-09

> <r_epik_Ionization_Penalty_Charging>
5.01743e-09

> <r_epik_Ionization_Penalty_Neutral>
6.58831e-12

> <r_epik_State_Penalty>
-0

> <r_epik_Charging_Adjusted_Penalty>
5.01743e-09

> <i_epik_Tot_Q>
0

> <i_epik_Tot_abs_Q>
0

> <r_epik_Metal_State_Penalty>
-0

> <b_epik_Metal_Only>
0

> <s_epik_Chemistry_Notes>
This compound contains an acetal/aminal-like group ( X-CH(R)-Y where X, Y are N, S, or O) that may be acid/base labile, releasing an aldehyde.

> <s_lp_Force_Field>
OPLS_2005

> <r_lp_Energy>
51.2992

> <b_lp_Chiralities_Consistent>
1

> <s_lp_Variant>
AV-unprocessed.smi:26-2

> <Gold.Version>
5.8.1

> <Gold.Id.Protein>
6NUR|6NUR_protein|mol2

> <Gold.PLP.Fitness>
50.0123

> <Gold.PLP.PLP>
-46.8965

> <Gold.PLP.part.hbond>
-1.0000

> <Gold.PLP.part.metal>
0.0000

> <Gold.PLP.part.buried>
-5.7134

> <Gold.PLP.part.nonpolar>
-41.2493

> <Gold.PLP.part.repulsive>
0.1577

> <Gold.PLP.ligand.clash>
0.0000

> <Gold.PLP.ligand.torsion>
1.3774

> <Gold.PLP.Chemscore.Hbond>
0.8640

> <Gold.PLP.Chemscore.CHOScore>
1.0000

> <Gold.PLP.Chemscore.Metal>
0.0000

> <Gold.Chemscore.Hbonds>
donor molecule, donor type, donor heavy atom, donor atom, acceptor molecule, acceptor atom, score
      P1  H  6896  6907       L1     6  0.61
      L1  C    13    39       P1 10747  0.35

> <Gold.PLP.Chemscore.Internal.Correction>
0.2786

> <Gold.Rescore>
     Score         DG    S(hbond)    S(metal)    S(lipo)     H(rot)  DE(clash)    DE(int)     intcor
     13.29     -17.41       0.91        0.00     116.12       1.84       0.02       4.10       ----

> <Gold.Chemscore.Fitness>
13.2945

> <Gold.Chemscore.DG>
-17.4130

> <Gold.Chemscore.ZeroCoef>
-5.4800

> <Gold.Chemscore.Hbond>
0.9122

> <Gold.Chemscore.Metal>
0.0000

> <Gold.Chemscore.Lipo>
116.1215

> <Gold.Chemscore.Internal_Hbond>
0.0000

> <Gold.Chemscore.DEClash>
0.0212

> <Gold.Chemscore.DEInternal>
4.0973

> <Gold.Chemscore.Rot>
1.8359

> <Gold.Chemscore.Internal.Correction>
   9.000000E+99

> <Gold.Chemscore.Hbonds>
donor molecule, donor type, donor heavy atom, donor atom, acceptor molecule, acceptor atom, score
      P1  H  6896  6907       L1     6  0.58

> <Gold.Chemscore.Hbond.Weighted>
-3.0468

> <Gold.Chemscore.Metal.Weighted>
-0.0000

> <Gold.Chemscore.Lipo.Weighted>
-13.5862

> <Gold.Chemscore.Internal_Hbond.Weighted>
0.0000

> <Gold.Chemscore.DEClash.Weighted>
0.0212

> <Gold.Chemscore.DEInternal.Weighted>
4.0973

> <Gold.Chemscore.Rot.Weighted>
4.7000

> <Gold.Chemscore.Internal.Correction.Weighted>
   9.000000E+99

> <Gold.Protein.RotatedTorsions>
[ 6907 6896 6895 6894 ] final -103.36 input  -60.11 | X-H torsion
[ 7974 7965 7964 7962 ] final -152.42 input  175.53 | X-H torsion
[ 8008 7997 7996 7995 ] final -123.73 input   59.86 | X-H torsion
[ 10167 10162 10161 10158 ] final  174.03 input  -65.29 | X-H torsion
[ 10718 10713 10712 10709 ] final   96.35 input   66.30 | X-H torsion
[ 10763 10752 10751 10750 ] final -166.67 input  -60.55 | X-H torsion
[ 11005 11000 10999 10996 ] final  -73.12 input  -57.11 | X-H torsion

> <Gold.Protein.ActiveResidues>
 VAL166  LYS551  ARG553  GLY616  TRP617  ASP618  TYR619  PRO620  LYS621  CYS622 
 ASP623  PHE694  ASN695  SER759  ASP760  ASP761  ALA762  ILE779  LEU786  VAL792 
 PHE793  MET794  SER795  GLU796  ALA797  LYS798  CYS799  TRP800  GLU811  SER814 

> <Gold.Protein.RotatedAtoms>
  150.7237  134.0441  159.3775 H   0  0  0  0  0  0  0  0  0  0  0  0  # atno 6907 bound_to 6896
  151.8416  135.0586  160.0458 H   0  0  0  0  0  0  0  0  0  0  0  0  # atno 6908 bound_to 6896
  152.2858  133.5478  159.5563 H   0  0  0  0  0  0  0  0  0  0  0  0  # atno 6909 bound_to 6896
  144.7795  140.4665  143.5849 H   0  0  0  0  0  0  0  0  0  0  0  0  # atno 7974 bound_to 7965
  155.1854  140.0411  157.2890 H   0  0  0  0  0  0  0  0  0  0  0  0  # atno 8008 bound_to 7997
  154.6175  140.2492  155.7563 H   0  0  0  0  0  0  0  0  0  0  0  0  # atno 8009 bound_to 7997
  156.2415  140.2902  156.0467 H   0  0  0  0  0  0  0  0  0  0  0  0  # atno 8010 bound_to 7997
  139.5128  144.3193  152.0218 H   0  0  0  0  0  0  0  0  0  0  0  0  # atno 10167 bound_to 10162
  157.6928  131.0575  150.4478 H   0  0  0  0  0  0  0  0  0  0  0  0  # atno 10718 bound_to 10713
  154.6809  135.2954  154.9614 H   0  0  0  0  0  0  0  0  0  0  0  0  # atno 10763 bound_to 10752
  154.0609  135.6631  153.4815 H   0  0  0  0  0  0  0  0  0  0  0  0  # atno 10764 bound_to 10752
  153.0547  135.5152  154.7852 H   0  0  0  0  0  0  0  0  0  0  0  0  # atno 10765 bound_to 10752
  141.1618  133.6868  156.7163 H   0  0  0  0  0  0  0  0  0  0  0  0  # atno 11005 bound_to 11000
  145.6089  139.1511  143.3087 LP  0  0  0  0  0  0  0  0  0  0  0  0  # atno 17320 bound_to 7965
  146.1995  140.6206  142.9108 LP  0  0  0  0  0  0  0  0  0  0  0  0  # atno 17321 bound_to 7965
  140.2635  144.4041  150.6177 LP  0  0  0  0  0  0  0  0  0  0  0  0  # atno 17342 bound_to 10162
  140.6140  143.2171  151.6829 LP  0  0  0  0  0  0  0  0  0  0  0  0  # atno 17343 bound_to 10162
  156.4832  130.4078  149.6449 LP  0  0  0  0  0  0  0  0  0  0  0  0  # atno 17370 bound_to 10713
  156.3487  130.7421  151.2377 LP  0  0  0  0  0  0  0  0  0  0  0  0  # atno 17371 bound_to 10713
  140.2850  134.8286  157.3966 LP  0  0  0  0  0  0  0  0  0  0  0  0  # atno 17394 bound_to 11000
  140.1399  134.4986  155.8040 LP  0  0  0  0  0  0  0  0  0  0  0  0  # atno 17395 bound_to 11000

$$$$
