AV-unprocessed.smi:1920|AV-procd|sdf|7777|dock1
  -GOLD-   22720 9523D 1   1.00000     0.00000
 Structure written by MMmdl.
 37 38  0  0  0  0  0  0  0  0  2 V2000
  151.3601  139.1084  155.9904 C   0  0  0  0  0  0  0  0  0  0  0  0
  150.1369  140.0113  155.7818 C   0  0  2  0  0  0  0  0  0  0  0  0
  149.6250  139.9323  154.3269 C   0  0  0  0  0  0  0  0  0  0  0  0
  148.2624  140.4532  154.1696 N   0  0  0  0  0  0  0  0  0  0  0  0
  147.8092  141.7042  154.5011 C   0  0  0  0  0  0  0  0  0  0  0  0
  146.4812  141.7414  154.1618 C   0  0  0  0  0  0  0  0  0  0  0  0
  146.1786  140.5108  153.6439 N   0  3  0  0  0  0  0  0  0  0  0  0
  147.2618  139.7272  153.6534 C   0  0  0  0  0  0  0  0  0  0  0  0
  150.4962  141.3834  156.1384 N   0  0  0  0  0  0  0  0  0  0  0  0
  151.2044  141.7529  157.2176 C   0  0  0  0  0  0  0  0  0  0  0  0
  151.6632  140.9531  158.0329 O   0  0  0  0  0  0  0  0  0  0  0  0
  151.4149  143.2564  157.4120 C   0  0  0  0  0  0  0  0  0  0  0  0
  150.9134  143.7508  158.7846 C   0  0  2  0  0  0  0  0  0  0  0  0
  150.9590  145.2520  158.9063 C   0  0  0  0  0  0  0  0  0  0  0  0
  151.5377  145.6598  160.0337 C   0  0  0  0  0  0  0  0  0  0  0  0
  151.9969  144.5132  160.8901 C   0  0  0  0  0  0  0  0  0  0  0  0
  151.7477  143.2736  160.0038 C   0  0  0  0  0  0  0  0  0  0  0  0
  151.1224  138.0678  155.7678 H   0  0  0  0  0  0  0  0  0  0  0  0
  151.7089  139.1507  157.0230 H   0  0  0  0  0  0  0  0  0  0  0  0
  152.1886  139.4049  155.3462 H   0  0  0  0  0  0  0  0  0  0  0  0
  149.3536  139.6508  156.4512 H   0  0  0  0  0  0  0  0  0  0  0  0
  150.2877  140.4739  153.6498 H   0  0  0  0  0  0  0  0  0  0  0  0
  149.6095  138.8953  153.9889 H   0  0  0  0  0  0  0  0  0  0  0  0
  148.4506  142.4579  154.9343 H   0  0  0  0  0  0  0  0  0  0  0  0
  145.7491  142.5312  154.2469 H   0  0  0  0  0  0  0  0  0  0  0  0
  147.3189  138.7129  153.3007 H   0  0  0  0  0  0  0  0  0  0  0  0
  150.1692  142.1119  155.5201 H   0  0  0  0  0  0  0  0  0  0  0  0
  152.4767  143.4787  157.2972 H   0  0  0  0  0  0  0  0  0  0  0  0
  150.9034  143.7976  156.6144 H   0  0  0  0  0  0  0  0  0  0  0  0
  149.8711  143.4568  158.9178 H   0  0  0  0  0  0  0  0  0  0  0  0
  150.5414  145.9038  158.1530 H   0  0  0  0  0  0  0  0  0  0  0  0
  151.6609  146.6900  160.3343 H   0  0  0  0  0  0  0  0  0  0  0  0
  153.0493  144.6201  161.1549 H   0  0  0  0  0  0  0  0  0  0  0  0
  151.4063  144.4807  161.8059 H   0  0  0  0  0  0  0  0  0  0  0  0
  151.2451  142.4766  160.5519 H   0  0  0  0  0  0  0  0  0  0  0  0
  152.7108  142.8792  159.6774 H   0  0  0  0  0  0  0  0  0  0  0  0
  145.2680  140.2325  153.3001 H   0  0  0  0  0  0  0  0  0  0  0  0
  1  2  1  0  0  0  0
  1 18  1  0  0  0  0
  1 19  1  0  0  0  0
  1 20  1  0  0  0  0
  2  3  1  0  0  0  0
  2  9  1  0  0  0  0
  2 21  1  0  0  0  0
  3  4  1  0  0  0  0
  3 22  1  0  0  0  0
  3 23  1  0  0  0  0
  4  8  1  0  0  0  0
  4  5  1  0  0  0  0
  5  6  2  0  0  0  0
  5 24  1  0  0  0  0
  6  7  1  0  0  0  0
  6 25  1  0  0  0  0
  7  8  2  0  0  0  0
  7 37  1  0  0  0  0
  8 26  1  0  0  0  0
  9 10  1  0  0  0  0
  9 27  1  0  0  0  0
 10 11  2  0  0  0  0
 10 12  1  0  0  0  0
 12 13  1  0  0  0  0
 12 28  1  0  0  0  0
 12 29  1  0  0  0  0
 13 17  1  0  0  0  0
 13 14  1  0  0  0  0
 13 30  1  0  0  0  0
 14 15  2  0  0  0  0
 14 31  1  0  0  0  0
 15 16  1  0  0  0  0
 15 32  1  0  0  0  0
 16 17  1  0  0  0  0
 16 33  1  0  0  0  0
 16 34  1  0  0  0  0
 17 35  1  0  0  0  0
 17 36  1  0  0  0  0
M  CHG  1   7   1
M  END
> <s_m_source_file>
AV-unprocessed.smi

> <i_m_source_file_index>
1920

> <i_lp_mmshare_version>
43012

> <i_f3d_flags>
0

> <s_epik_input>
W2NIXTFuW2NIXVtjSF1uMVtDSDJdW0NAQEhdKFtDSDNdKVtOSF1DKD1PKVtDSDJdW0NAQEhdMltDSF09W0NIXVtDSDJdW0NIMl0y

> <s_epik_cmdline>
J2VwaWtfcHl0aG9uJywgJy1waCcsICc3LjAnLCAnLXRuJywgJzgnLCAnLW1hJywgJzIwMCcsICctbWV0YWxfYmluZGluZycsICctaW1hZScsICc8aW5maWxlLm1hZT4nLCAnLW9tYWUnLCAnPG91dGZpbGUubWFlPic=

> <r_lp_tautomer_probability>
1

> <r_epik_Ionization_Penalty>
0.24816

> <r_epik_Ionization_Penalty_Charging>
0

> <r_epik_Ionization_Penalty_Neutral>
0.24816

> <r_epik_State_Penalty>
0.2394

> <r_epik_Charging_Adjusted_Penalty>
0.2394

> <i_epik_Tot_Q>
1

> <i_epik_Tot_abs_Q>
1

> <r_epik_Metal_State_Penalty>
0.531457

> <b_epik_Metal_Only>
0

> <s_lp_Force_Field>
OPLS_2005

> <r_lp_Energy>
18.7284

> <b_lp_Chiralities_Consistent>
1

> <s_lp_Variant>
AV-unprocessed.smi:1920-1

> <Gold.Version>
5.8.1

> <Gold.Id.Protein>
6NUR|6NUR_protein|mol2

> <Gold.PLP.Fitness>
48.8233

> <Gold.PLP.PLP>
-40.5353

> <Gold.PLP.part.hbond>
-1.0000

> <Gold.PLP.part.metal>
0.0000

> <Gold.PLP.part.buried>
-1.8836

> <Gold.PLP.part.nonpolar>
-36.4439

> <Gold.PLP.part.repulsive>
0.1284

> <Gold.PLP.ligand.clash>
0.0000

> <Gold.PLP.ligand.torsion>
0.3766

> <Gold.PLP.Chemscore.Hbond>
2.0000

> <Gold.PLP.Chemscore.CHOScore>
1.0000

> <Gold.PLP.Chemscore.Metal>
0.0000

> <Gold.Chemscore.Hbonds>
donor molecule, donor type, donor heavy atom, donor atom, acceptor molecule, acceptor atom, score
      L1  H     7    37       P1 10175  2.00
      L1  C     5    24       P1  8028  1.00

> <Gold.PLP.Chemscore.Internal.Correction>
0.0412

> <Gold.Rescore>
     Score         DG    S(hbond)    S(metal)    S(lipo)     H(rot)  DE(clash)    DE(int)     intcor
     13.36     -15.52       0.98        0.00     101.94       2.01       0.36       1.80       ----

> <Gold.Chemscore.Fitness>
13.3626

> <Gold.Chemscore.DG>
-15.5190

> <Gold.Chemscore.ZeroCoef>
-5.4800

> <Gold.Chemscore.Hbond>
0.9777

> <Gold.Chemscore.Metal>
0.0000

> <Gold.Chemscore.Lipo>
101.9371

> <Gold.Chemscore.Internal_Hbond>
0.0000

> <Gold.Chemscore.DEClash>
0.3594

> <Gold.Chemscore.DEInternal>
1.7970

> <Gold.Chemscore.Rot>
2.0130

> <Gold.Chemscore.Internal.Correction>
   9.000000E+99

> <Gold.Chemscore.Hbonds>
donor molecule, donor type, donor heavy atom, donor atom, acceptor molecule, acceptor atom, score
      L1  H     7    37       P1 10175  0.98

> <Gold.Chemscore.Hbond.Weighted>
-3.2656

> <Gold.Chemscore.Metal.Weighted>
-0.0000

> <Gold.Chemscore.Lipo.Weighted>
-11.9266

> <Gold.Chemscore.Internal_Hbond.Weighted>
0.0000

> <Gold.Chemscore.DEClash.Weighted>
0.3594

> <Gold.Chemscore.DEInternal.Weighted>
1.7970

> <Gold.Chemscore.Rot.Weighted>
5.1533

> <Gold.Chemscore.Internal.Correction.Weighted>
   9.000000E+99

> <Gold.Protein.RotatedTorsions>
[ 6907 6896 6895 6894 ] final   51.04 input  -60.11 | X-H torsion
[ 7974 7965 7964 7962 ] final   96.93 input  175.53 | X-H torsion
[ 8008 7997 7996 7995 ] final   65.49 input   59.86 | X-H torsion
[ 10167 10162 10161 10158 ] final   21.39 input  -65.29 | X-H torsion
[ 10718 10713 10712 10709 ] final  115.16 input   66.30 | X-H torsion
[ 10763 10752 10751 10750 ] final -104.79 input  -60.55 | X-H torsion
[ 11005 11000 10999 10996 ] final  -74.73 input  -57.11 | X-H torsion

> <Gold.Protein.ActiveResidues>
 VAL166  LYS551  ARG553  GLY616  TRP617  ASP618  TYR619  PRO620  LYS621  CYS622 
 ASP623  PHE694  ASN695  SER759  ASP760  ASP761  ALA762  ILE779  LEU786  VAL792 
 PHE793  MET794  SER795  GLU796  ALA797  LYS798  CYS799  TRP800  GLU811  SER814 

> <Gold.Protein.RotatedAtoms>
  152.3084  134.7528  160.0341 H   0  0  0  0  0  0  0  0  0  0  0  0  # atno 6907 bound_to 6896
  151.8017  133.3365  159.3537 H   0  0  0  0  0  0  0  0  0  0  0  0  # atno 6908 bound_to 6896
  150.7308  134.5677  159.5919 H   0  0  0  0  0  0  0  0  0  0  0  0  # atno 6909 bound_to 6896
  145.4323  139.2309  143.3137 H   0  0  0  0  0  0  0  0  0  0  0  0  # atno 7974 bound_to 7965
  155.6625  140.3497  155.4788 H   0  0  0  0  0  0  0  0  0  0  0  0  # atno 8008 bound_to 7997
  155.9757  140.1164  157.0795 H   0  0  0  0  0  0  0  0  0  0  0  0  # atno 8009 bound_to 7997
  154.4178  140.1148  156.5352 H   0  0  0  0  0  0  0  0  0  0  0  0  # atno 8010 bound_to 7997
  140.5430  143.9643  150.6531 H   0  0  0  0  0  0  0  0  0  0  0  0  # atno 10167 bound_to 10162
  157.6238  131.1009  150.7290 H   0  0  0  0  0  0  0  0  0  0  0  0  # atno 10718 bound_to 10713
  154.7902  135.4773  154.0036 H   0  0  0  0  0  0  0  0  0  0  0  0  # atno 10763 bound_to 10752
  153.1620  135.6810  153.8736 H   0  0  0  0  0  0  0  0  0  0  0  0  # atno 10764 bound_to 10752
  153.8347  135.3187  155.3399 H   0  0  0  0  0  0  0  0  0  0  0  0  # atno 10765 bound_to 10752
  141.1638  133.6921  156.7409 H   0  0  0  0  0  0  0  0  0  0  0  0  # atno 11005 bound_to 11000
  146.2601  140.5061  142.8857 LP  0  0  0  0  0  0  0  0  0  0  0  0  # atno 17320 bound_to 7965
  144.8175  140.6493  143.6375 LP  0  0  0  0  0  0  0  0  0  0  0  0  # atno 17321 bound_to 7965
  140.3049  143.3236  152.0935 LP  0  0  0  0  0  0  0  0  0  0  0  0  # atno 17342 bound_to 10162
  139.4996  144.6673  151.6326 LP  0  0  0  0  0  0  0  0  0  0  0  0  # atno 17343 bound_to 10162
  156.7642  130.4808  149.5431 LP  0  0  0  0  0  0  0  0  0  0  0  0  # atno 17370 bound_to 10713
  156.1398  130.6237  151.0452 LP  0  0  0  0  0  0  0  0  0  0  0  0  # atno 17371 bound_to 10713
  140.2675  134.8418  157.3816 LP  0  0  0  0  0  0  0  0  0  0  0  0  # atno 17394 bound_to 11000
  140.1552  134.4798  155.7933 LP  0  0  0  0  0  0  0  0  0  0  0  0  # atno 17395 bound_to 11000

$$$$
