AV-unprocessed.smi:2903|AV-procd|sdf|11159|dock4
  -GOLD-   2272016 43D 1   1.00000     0.00000
 Structure written by MMmdl.
 40 41  0  0  0  0  0  0  0  0  1 V2000
  149.2673  133.1961  153.4975 C   0  0  0  0  0  0  0  0  0  0  0  0
  149.4408  133.0363  155.0068 C   0  0  0  0  0  0  0  0  0  0  0  0
  149.1554  131.9583  155.5267 O   0  0  0  0  0  0  0  0  0  0  0  0
  149.9520  134.2070  155.7706 C   0  0  0  0  0  0  0  0  0  0  0  0
  150.5057  135.3422  155.1384 C   0  0  0  0  0  0  0  0  0  0  0  0
  150.9703  136.4102  155.9296 C   0  0  0  0  0  0  0  0  0  0  0  0
  150.8739  136.3289  157.3356 C   0  0  0  0  0  0  0  0  0  0  0  0
  151.3769  137.4551  158.0381 N   0  0  0  0  0  0  0  0  0  0  0  0
  151.4192  137.6606  159.3676 C   0  0  0  0  0  0  0  0  0  0  0  0
  150.9830  136.8823  160.2157 O   0  0  0  0  0  0  0  0  0  0  0  0
  152.0478  138.9799  159.8075 C   0  0  0  0  0  0  0  0  0  0  0  0
  151.4208  140.0390  159.0978 O   0  0  0  0  0  0  0  0  0  0  0  0
  151.9666  141.3237  159.3637 C   0  0  0  0  0  0  0  0  0  0  0  0
  151.8822  141.6451  160.8705 C   0  0  0  0  0  0  0  0  0  0  0  0
  152.3434  143.0825  161.1631 C   0  0  0  0  0  0  0  0  0  0  0  0
  151.5505  144.1053  160.3337 C   0  0  0  0  0  0  0  0  0  0  0  0
  151.6303  143.7847  158.8328 C   0  0  0  0  0  0  0  0  0  0  0  0
  151.1605  142.3492  158.5476 C   0  0  0  0  0  0  0  0  0  0  0  0
  150.3405  135.2398  157.9403 N   0  0  0  0  0  0  0  0  0  0  0  0
  149.8963  134.2155  157.1817 C   0  0  0  0  0  0  0  0  0  0  0  0
  150.2199  133.4410  153.0271 H   0  0  0  0  0  0  0  0  0  0  0  0
  148.5521  133.9889  153.2771 H   0  0  0  0  0  0  0  0  0  0  0  0
  148.8970  132.2707  153.0553 H   0  0  0  0  0  0  0  0  0  0  0  0
  150.5835  135.4139  154.0638 H   0  0  0  0  0  0  0  0  0  0  0  0
  151.3969  137.2827  155.4559 H   0  0  0  0  0  0  0  0  0  0  0  0
  151.7609  138.1912  157.4638 H   0  0  0  0  0  0  0  0  0  0  0  0
  151.9182  139.0910  160.8843 H   0  0  0  0  0  0  0  0  0  0  0  0
  153.1193  138.9678  159.6000 H   0  0  0  0  0  0  0  0  0  0  0  0
  153.0062  141.3655  159.0329 H   0  0  0  0  0  0  0  0  0  0  0  0
  150.8550  141.5167  161.2142 H   0  0  0  0  0  0  0  0  0  0  0  0
  152.4894  140.9480  161.4474 H   0  0  0  0  0  0  0  0  0  0  0  0
  152.2308  143.2996  162.2257 H   0  0  0  0  0  0  0  0  0  0  0  0
  153.4069  143.1764  160.9395 H   0  0  0  0  0  0  0  0  0  0  0  0
  150.5073  144.1041  160.6521 H   0  0  0  0  0  0  0  0  0  0  0  0
  151.9297  145.1102  160.5206 H   0  0  0  0  0  0  0  0  0  0  0  0
  151.0246  144.4937  158.2679 H   0  0  0  0  0  0  0  0  0  0  0  0
  152.6567  143.9093  158.4857 H   0  0  0  0  0  0  0  0  0  0  0  0
  151.2555  142.1335  157.4830 H   0  0  0  0  0  0  0  0  0  0  0  0
  150.1003  142.2594  158.7878 H   0  0  0  0  0  0  0  0  0  0  0  0
  149.4858  133.3791  157.7287 H   0  0  0  0  0  0  0  0  0  0  0  0
  1  2  1  0  0  0  0
  1 21  1  0  0  0  0
  1 22  1  0  0  0  0
  1 23  1  0  0  0  0
  2  3  2  0  0  0  0
  2  4  1  0  0  0  0
  4 20  1  0  0  0  0
  4  5  2  0  0  0  0
  5  6  1  0  0  0  0
  5 24  1  0  0  0  0
  6  7  2  0  0  0  0
  6 25  1  0  0  0  0
  7  8  1  0  0  0  0
  7 19  1  0  0  0  0
  8  9  1  0  0  0  0
  8 26  1  0  0  0  0
  9 10  2  0  0  0  0
  9 11  1  0  0  0  0
 11 12  1  0  0  0  0
 11 27  1  0  0  0  0
 11 28  1  0  0  0  0
 12 13  1  0  0  0  0
 13 18  1  0  0  0  0
 13 14  1  0  0  0  0
 13 29  1  0  0  0  0
 14 15  1  0  0  0  0
 14 30  1  0  0  0  0
 14 31  1  0  0  0  0
 15 16  1  0  0  0  0
 15 32  1  0  0  0  0
 15 33  1  0  0  0  0
 16 17  1  0  0  0  0
 16 34  1  0  0  0  0
 16 35  1  0  0  0  0
 17 18  1  0  0  0  0
 17 36  1  0  0  0  0
 17 37  1  0  0  0  0
 18 38  1  0  0  0  0
 18 39  1  0  0  0  0
 19 20  2  0  0  0  0
 20 40  1  0  0  0  0
M  END
> <s_m_source_file>
AV-unprocessed.smi

> <i_m_source_file_index>
2903

> <i_lp_mmshare_version>
43012

> <i_f3d_flags>
0

> <s_epik_input>
W0NIM11DKD1PKWMxW2NIXVtjSF1jKG5bY0hdMSlbTkhdQyg9TylbQ0gyXU9bQ0hdMltDSDJdW0NIMl1bQ0gyXVtDSDJdW0NIMl0y

> <s_epik_cmdline>
J2VwaWtfcHl0aG9uJywgJy1waCcsICc3LjAnLCAnLXRuJywgJzgnLCAnLW1hJywgJzIwMCcsICctbWV0YWxfYmluZGluZycsICctaW1hZScsICc8aW5maWxlLm1hZT4nLCAnLW9tYWUnLCAnPG91dGZpbGUubWFlPic=

> <r_lp_tautomer_probability>
1

> <r_epik_Ionization_Penalty>
3.51143e-05

> <r_epik_Ionization_Penalty_Charging>
0

> <r_epik_Ionization_Penalty_Neutral>
3.51143e-05

> <r_epik_State_Penalty>
-0

> <r_epik_Charging_Adjusted_Penalty>
0

> <i_epik_Tot_Q>
0

> <i_epik_Tot_abs_Q>
0

> <r_epik_Metal_State_Penalty>
-0

> <b_epik_Metal_Only>
0

> <s_lp_Force_Field>
OPLS_2005

> <r_lp_Energy>
19.6274

> <b_lp_Chiralities_Consistent>
1

> <s_lp_Variant>
AV-unprocessed.smi:2903-1

> <Gold.Version>
5.8.1

> <Gold.Id.Protein>
6NUR|6NUR_protein|mol2

> <Gold.PLP.Fitness>
41.1385

> <Gold.PLP.PLP>
-38.3322

> <Gold.PLP.part.hbond>
-2.0000

> <Gold.PLP.part.metal>
0.0000

> <Gold.PLP.part.buried>
-5.0363

> <Gold.PLP.part.nonpolar>
-32.1282

> <Gold.PLP.part.repulsive>
0.0712

> <Gold.PLP.ligand.clash>
0.0000

> <Gold.PLP.ligand.torsion>
0.1311

> <Gold.PLP.Chemscore.Hbond>
1.0168

> <Gold.PLP.Chemscore.CHOScore>
0.0000

> <Gold.PLP.Chemscore.Metal>
0.0000

> <Gold.Chemscore.Hbonds>
donor molecule, donor type, donor heavy atom, donor atom, acceptor molecule, acceptor atom, score
      P1  H  6896  6907       L1    10  1.00
      P1  H  6896  6909       L1    19  0.15

> <Gold.PLP.Chemscore.Internal.Correction>
0.0180

> <Gold.Rescore>
     Score         DG    S(hbond)    S(metal)    S(lipo)     H(rot)  DE(clash)    DE(int)     intcor
     14.93     -16.46       0.99        0.00      96.73       1.43       0.12       1.40       ----

> <Gold.Chemscore.Fitness>
14.9330

> <Gold.Chemscore.DG>
-16.4559

> <Gold.Chemscore.ZeroCoef>
-5.4800

> <Gold.Chemscore.Hbond>
0.9911

> <Gold.Chemscore.Metal>
0.0000

> <Gold.Chemscore.Lipo>
96.7284

> <Gold.Chemscore.Internal_Hbond>
0.0000

> <Gold.Chemscore.DEClash>
0.1247

> <Gold.Chemscore.DEInternal>
1.3982

> <Gold.Chemscore.Rot>
1.4264

> <Gold.Chemscore.Internal.Correction>
   9.000000E+99

> <Gold.Chemscore.Hbonds>
donor molecule, donor type, donor heavy atom, donor atom, acceptor molecule, acceptor atom, score
      P1  H  6896  6907       L1    10  0.81

> <Gold.Chemscore.Hbond.Weighted>
-3.3102

> <Gold.Chemscore.Metal.Weighted>
-0.0000

> <Gold.Chemscore.Lipo.Weighted>
-11.3172

> <Gold.Chemscore.Internal_Hbond.Weighted>
0.0000

> <Gold.Chemscore.DEClash.Weighted>
0.1247

> <Gold.Chemscore.DEInternal.Weighted>
1.3982

> <Gold.Chemscore.Rot.Weighted>
3.6516

> <Gold.Chemscore.Internal.Correction.Weighted>
   9.000000E+99

> <Gold.Protein.RotatedTorsions>
[ 6907 6896 6895 6894 ] final    7.36 input  -60.11 | X-H torsion
[ 7974 7965 7964 7962 ] final -162.50 input  175.53 | X-H torsion
[ 8008 7997 7996 7995 ] final  162.29 input   59.86 | X-H torsion
[ 10167 10162 10161 10158 ] final  -63.93 input  -65.29 | X-H torsion
[ 10718 10713 10712 10709 ] final  -82.26 input   66.30 | X-H torsion
[ 10763 10752 10751 10750 ] final  -29.55 input  -60.55 | X-H torsion
[ 11005 11000 10999 10996 ] final -171.95 input  -57.11 | X-H torsion

> <Gold.Protein.ActiveResidues>
 VAL166  LYS551  ARG553  GLY616  TRP617  ASP618  TYR619  PRO620  LYS621  CYS622 
 ASP623  PHE694  ASN695  SER759  ASP760  ASP761  ALA762  ILE779  LEU786  VAL792 
 PHE793  MET794  SER795  GLU796  ALA797  LYS798  CYS799  TRP800  GLU811  SER814 

> <Gold.Protein.RotatedAtoms>
  151.6886  135.0950  160.0229 H   0  0  0  0  0  0  0  0  0  0  0  0  # atno 6907 bound_to 6896
  152.3792  133.6519  159.6156 H   0  0  0  0  0  0  0  0  0  0  0  0  # atno 6908 bound_to 6896
  150.7734  133.9058  159.3396 H   0  0  0  0  0  0  0  0  0  0  0  0  # atno 6909 bound_to 6896
  144.7355  140.3243  143.6165 H   0  0  0  0  0  0  0  0  0  0  0  0  # atno 7974 bound_to 7965
  156.2042  140.1754  156.7836 H   0  0  0  0  0  0  0  0  0  0  0  0  # atno 8008 bound_to 7997
  154.5632  140.0696  156.8881 H   0  0  0  0  0  0  0  0  0  0  0  0  # atno 8009 bound_to 7997
  155.2810  140.3349  155.4261 H   0  0  0  0  0  0  0  0  0  0  0  0  # atno 8010 bound_to 7997
  140.5836  143.2330  151.6290 H   0  0  0  0  0  0  0  0  0  0  0  0  # atno 10167 bound_to 10162
  156.0036  130.4629  150.4078 H   0  0  0  0  0  0  0  0  0  0  0  0  # atno 10718 bound_to 10713
  153.7665  135.6915  153.4915 H   0  0  0  0  0  0  0  0  0  0  0  0  # atno 10763 bound_to 10752
  153.1903  135.4473  155.0139 H   0  0  0  0  0  0  0  0  0  0  0  0  # atno 10764 bound_to 10752
  154.8134  135.3387  154.7177 H   0  0  0  0  0  0  0  0  0  0  0  0  # atno 10765 bound_to 10752
  140.5025  134.5880  157.4992 H   0  0  0  0  0  0  0  0  0  0  0  0  # atno 11005 bound_to 11000
  145.7537  139.1802  143.2307 LP  0  0  0  0  0  0  0  0  0  0  0  0  # atno 17320 bound_to 7965
  146.1041  140.7508  142.9535 LP  0  0  0  0  0  0  0  0  0  0  0  0  # atno 17321 bound_to 7965
  139.5184  144.3284  152.0848 LP  0  0  0  0  0  0  0  0  0  0  0  0  # atno 17342 bound_to 10162
  140.2438  144.4241  150.6249 LP  0  0  0  0  0  0  0  0  0  0  0  0  # atno 17343 bound_to 10162
  157.2142  131.0467  151.2582 LP  0  0  0  0  0  0  0  0  0  0  0  0  # atno 17370 bound_to 10713
  157.3860  130.7256  149.6663 LP  0  0  0  0  0  0  0  0  0  0  0  0  # atno 17371 bound_to 10713
  139.9705  134.7300  156.0051 LP  0  0  0  0  0  0  0  0  0  0  0  0  # atno 17394 bound_to 11000
  141.1428  133.6561  156.3780 LP  0  0  0  0  0  0  0  0  0  0  0  0  # atno 17395 bound_to 11000

$$$$
