AV-unprocessed.smi:1570|AV-procd|sdf|6325|dock4
  -GOLD-   22720 6533D 1   1.00000     0.00000
 Structure written by MMmdl.
 52 54  0  0  0  0  0  0  0  0  2 V2000
  147.0960  128.2050  151.9879 C   0  0  0  0  0  0  0  0  0  0  0  0
  146.2813  129.1681  152.8602 C   0  0  0  0  0  0  0  0  0  0  0  0
  146.8511  130.5127  152.8385 N   0  0  0  0  0  0  0  0  0  0  0  0
  148.0506  130.8888  153.3404 C   0  0  0  0  0  0  0  0  0  0  0  0
  148.8680  130.1538  153.8950 O   0  0  0  0  0  0  0  0  0  0  0  0
  148.2074  132.2134  153.1074 N   0  0  0  0  0  0  0  0  0  0  0  0
  149.3669  133.0251  153.4710 C   0  0  0  0  0  0  0  0  0  0  0  0
  149.0104  134.0749  154.5438 C   0  0  1  0  0  0  0  0  0  0  0  0
  148.7527  133.3940  155.7564 O   0  0  0  0  0  0  0  0  0  0  0  0
  150.1764  135.0529  154.7943 C   0  0  0  0  0  0  0  0  0  0  0  0
  149.8592  136.4436  154.3688 N   0  3  1  0  0  0  0  0  0  0  0  0
  148.8392  137.1056  155.2176 C   0  0  0  0  0  0  0  0  0  0  0  0
  149.4490  137.5972  156.5464 C   0  0  2  0  0  0  0  0  0  0  0  0
  148.4302  138.3613  157.3989 C   0  0  0  0  0  0  0  0  0  0  0  0
  150.5319  138.4754  156.2595 O   0  0  0  0  0  0  0  0  0  0  0  0
  151.5831  137.8407  155.5389 C   0  0  2  0  0  0  0  0  0  0  0  0
  152.7141  138.8580  155.3531 C   0  0  0  0  0  0  0  0  0  0  0  0
  151.0371  137.3311  154.1877 C   0  0  0  0  0  0  0  0  0  0  0  0
  147.0895  132.6927  152.4101 C   0  0  0  0  0  0  0  0  0  0  0  0
  146.7842  133.9734  151.9171 C   0  0  0  0  0  0  0  0  0  0  0  0
  145.5559  134.1267  151.2320 C   0  0  0  0  0  0  0  0  0  0  0  0
  144.6793  133.0249  151.0561 C   0  0  0  0  0  0  0  0  0  0  0  0
  145.0116  131.7462  151.5616 C   0  0  0  0  0  0  0  0  0  0  0  0
  146.2366  131.6220  152.2397 C   0  0  0  0  0  0  0  0  0  0  0  0
  146.6635  127.2047  152.0077 H   0  0  0  0  0  0  0  0  0  0  0  0
  148.1256  128.1290  152.3389 H   0  0  0  0  0  0  0  0  0  0  0  0
  147.1185  128.5365  150.9492 H   0  0  0  0  0  0  0  0  0  0  0  0
  145.2477  129.2030  152.5146 H   0  0  0  0  0  0  0  0  0  0  0  0
  146.2436  128.7979  153.8861 H   0  0  0  0  0  0  0  0  0  0  0  0
  150.2028  132.3980  153.7840 H   0  0  0  0  0  0  0  0  0  0  0  0
  149.7088  133.5266  152.5642 H   0  0  0  0  0  0  0  0  0  0  0  0
  148.1172  134.6222  154.2444 H   0  0  0  0  0  0  0  0  0  0  0  0
  149.4676  133.5559  156.3532 H   0  0  0  0  0  0  0  0  0  0  0  0
  150.4144  135.0394  155.8591 H   0  0  0  0  0  0  0  0  0  0  0  0
  151.0749  134.7074  154.2833 H   0  0  0  0  0  0  0  0  0  0  0  0
  148.4368  137.9558  154.6650 H   0  0  0  0  0  0  0  0  0  0  0  0
  147.9985  136.4347  155.3980 H   0  0  0  0  0  0  0  0  0  0  0  0
  149.8163  136.7497  157.1277 H   0  0  0  0  0  0  0  0  0  0  0  0
  147.5798  137.7291  157.6553 H   0  0  0  0  0  0  0  0  0  0  0  0
  148.0502  139.2363  156.8709 H   0  0  0  0  0  0  0  0  0  0  0  0
  148.8810  138.7043  158.3303 H   0  0  0  0  0  0  0  0  0  0  0  0
  151.9702  137.0095  156.1293 H   0  0  0  0  0  0  0  0  0  0  0  0
  153.5540  138.4172  154.8154 H   0  0  0  0  0  0  0  0  0  0  0  0
  153.0846  139.2092  156.3165 H   0  0  0  0  0  0  0  0  0  0  0  0
  152.3759  139.7283  154.7897 H   0  0  0  0  0  0  0  0  0  0  0  0
  151.8228  136.8361  153.6188 H   0  0  0  0  0  0  0  0  0  0  0  0
  150.7208  138.1829  153.5840 H   0  0  0  0  0  0  0  0  0  0  0  0
  147.4568  134.8079  152.0486 H   0  0  0  0  0  0  0  0  0  0  0  0
  145.2836  135.0939  150.8357 H   0  0  0  0  0  0  0  0  0  0  0  0
  143.7476  133.1636  150.5274 H   0  0  0  0  0  0  0  0  0  0  0  0
  144.3504  130.9031  151.4260 H   0  0  0  0  0  0  0  0  0  0  0  0
  149.4345  136.3410  153.4577 H   0  0  0  0  0  0  0  0  0  0  0  0
  1  2  1  0  0  0  0
  1 25  1  0  0  0  0
  1 26  1  0  0  0  0
  1 27  1  0  0  0  0
  2  3  1  0  0  0  0
  2 28  1  0  0  0  0
  2 29  1  0  0  0  0
  3 24  1  0  0  0  0
  3  4  1  0  0  0  0
  4  5  2  0  0  0  0
  4  6  1  0  0  0  0
  6  7  1  0  0  0  0
  6 19  1  0  0  0  0
  7  8  1  0  0  0  0
  7 30  1  0  0  0  0
  7 31  1  0  0  0  0
  8  9  1  0  0  0  0
  8 10  1  0  0  0  0
  8 32  1  0  0  0  0
  9 33  1  0  0  0  0
 10 11  1  0  0  0  0
 10 34  1  0  0  0  0
 10 35  1  0  0  0  0
 11 18  1  0  0  0  0
 11 12  1  0  0  0  0
 11 52  1  0  0  0  0
 12 13  1  0  0  0  0
 12 36  1  0  0  0  0
 12 37  1  0  0  0  0
 13 14  1  0  0  0  0
 13 15  1  0  0  0  0
 13 38  1  0  0  0  0
 14 39  1  0  0  0  0
 14 40  1  0  0  0  0
 14 41  1  0  0  0  0
 15 16  1  0  0  0  0
 16 17  1  0  0  0  0
 16 18  1  0  0  0  0
 16 42  1  0  0  0  0
 17 43  1  0  0  0  0
 17 44  1  0  0  0  0
 17 45  1  0  0  0  0
 18 46  1  0  0  0  0
 18 47  1  0  0  0  0
 19 24  2  0  0  0  0
 19 20  1  0  0  0  0
 20 21  2  0  0  0  0
 20 48  1  0  0  0  0
 21 22  1  0  0  0  0
 21 49  1  0  0  0  0
 22 23  2  0  0  0  0
 22 50  1  0  0  0  0
 23 24  1  0  0  0  0
 23 51  1  0  0  0  0
M  CHG  1  11   1
M  END
> <s_m_source_file>
AV-unprocessed.smi

> <i_m_source_file_index>
1570

> <i_lp_mmshare_version>
43012

> <i_f3d_flags>
0

> <s_epik_input>
W2NIXTFbY0hdW2NIXVtjSF1jKGMxMiluKFtDSDJdW0NIM10pYyg9TyluMltDSDJdW0NASF0oW09IXSlbQ0gyXU4zW0NIMl1bQ0BASF0oW0NIM10pT1tDQEBIXShbQ0gzXSlbQ0gyXTM=

> <s_epik_cmdline>
J2VwaWtfcHl0aG9uJywgJy1waCcsICc3LjAnLCAnLXRuJywgJzgnLCAnLW1hJywgJzIwMCcsICctbWV0YWxfYmluZGluZycsICctaW1hZScsICc8aW5maWxlLm1hZT4nLCAnLW9tYWUnLCAnPG91dGZpbGUubWFlPic=

> <r_epik_Ionization_Penalty>
0.706332

> <r_epik_Ionization_Penalty_Charging>
0.706318

> <r_epik_Ionization_Penalty_Neutral>
1.42224e-05

> <r_epik_State_Penalty>
0.729493

> <r_epik_Charging_Adjusted_Penalty>
1.43581

> <i_epik_Tot_Q>
1

> <i_epik_Tot_abs_Q>
1

> <r_epik_Metal_State_Penalty>
0.729493

> <b_epik_Metal_Only>
0

> <s_lp_Force_Field>
OPLS_2005

> <r_lp_Energy>
54.0737

> <b_lp_Chiralities_Consistent>
1

> <s_lp_Variant>
AV-unprocessed.smi:1570-14

> <Gold.Version>
5.8.1

> <Gold.Id.Protein>
6NUR|6NUR_protein|mol2

> <Gold.PLP.Fitness>
43.3453

> <Gold.PLP.PLP>
-39.1912

> <Gold.PLP.part.hbond>
-1.0000

> <Gold.PLP.part.metal>
0.0000

> <Gold.PLP.part.buried>
-2.8953

> <Gold.PLP.part.nonpolar>
-35.5579

> <Gold.PLP.part.repulsive>
0.1345

> <Gold.PLP.ligand.clash>
0.0000

> <Gold.PLP.ligand.torsion>
0.9686

> <Gold.PLP.Chemscore.Hbond>
2.0000

> <Gold.PLP.Chemscore.CHOScore>
0.0000

> <Gold.PLP.Chemscore.Metal>
0.0000

> <Gold.Chemscore.Hbonds>
donor molecule, donor type, donor heavy atom, donor atom, acceptor molecule, acceptor atom, score
      L1  H    11    52       P1  7948  2.00

> <Gold.PLP.Chemscore.Internal.Correction>
0.0912

> <Gold.Rescore>
     Score         DG    S(hbond)    S(metal)    S(lipo)     H(rot)  DE(clash)    DE(int)     intcor
     13.61     -14.71       0.96        0.00      97.97       2.13       0.01       1.09       ----

> <Gold.Chemscore.Fitness>
13.6088

> <Gold.Chemscore.DG>
-14.7053

> <Gold.Chemscore.ZeroCoef>
-5.4800

> <Gold.Chemscore.Hbond>
0.9628

> <Gold.Chemscore.Metal>
0.0000

> <Gold.Chemscore.Lipo>
97.9744

> <Gold.Chemscore.Internal_Hbond>
0.0000

> <Gold.Chemscore.DEClash>
0.0073

> <Gold.Chemscore.DEInternal>
1.0891

> <Gold.Chemscore.Rot>
2.1303

> <Gold.Chemscore.Internal.Correction>
   9.000000E+99

> <Gold.Chemscore.Hbonds>
donor molecule, donor type, donor heavy atom, donor atom, acceptor molecule, acceptor atom, score
      L1  H    11    52       P1  7948  0.70

> <Gold.Chemscore.Hbond.Weighted>
-3.2158

> <Gold.Chemscore.Metal.Weighted>
-0.0000

> <Gold.Chemscore.Lipo.Weighted>
-11.4630

> <Gold.Chemscore.Internal_Hbond.Weighted>
0.0000

> <Gold.Chemscore.DEClash.Weighted>
0.0073

> <Gold.Chemscore.DEInternal.Weighted>
1.0891

> <Gold.Chemscore.Rot.Weighted>
5.4535

> <Gold.Chemscore.Internal.Correction.Weighted>
   9.000000E+99

> <Gold.Protein.RotatedTorsions>
[ 6907 6896 6895 6894 ] final  -44.90 input  -60.11 | X-H torsion
[ 7974 7965 7964 7962 ] final -171.62 input  175.53 | X-H torsion
[ 8008 7997 7996 7995 ] final   27.75 input   59.86 | X-H torsion
[ 10167 10162 10161 10158 ] final -151.44 input  -65.29 | X-H torsion
[ 10718 10713 10712 10709 ] final  147.49 input   66.30 | X-H torsion
[ 10763 10752 10751 10750 ] final   -4.07 input  -60.55 | X-H torsion
[ 11005 11000 10999 10996 ] final   -5.15 input  -57.11 | X-H torsion

> <Gold.Protein.ActiveResidues>
 VAL166  LYS551  ARG553  GLY616  TRP617  ASP618  TYR619  PRO620  LYS621  CYS622 
 ASP623  PHE694  ASN695  SER759  ASP760  ASP761  ALA762  ILE779  LEU786  VAL792 
 PHE793  MET794  SER795  GLU796  ALA797  LYS798  CYS799  TRP800  GLU811  SER814 

> <Gold.Protein.RotatedAtoms>
  150.9278  134.8694  159.7530 H   0  0  0  0  0  0  0  0  0  0  0  0  # atno 6907 bound_to 6896
  152.5023  134.4124  159.9463 H   0  0  0  0  0  0  0  0  0  0  0  0  # atno 6908 bound_to 6896
  151.4153  133.3675  159.2784 H   0  0  0  0  0  0  0  0  0  0  0  0  # atno 6909 bound_to 6896
  144.7155  140.1894  143.6350 H   0  0  0  0  0  0  0  0  0  0  0  0  # atno 7974 bound_to 7965
  155.0479  140.3176  155.4702 H   0  0  0  0  0  0  0  0  0  0  0  0  # atno 8008 bound_to 7997
  156.2841  140.2151  156.5548 H   0  0  0  0  0  0  0  0  0  0  0  0  # atno 8009 bound_to 7997
  154.7235  140.0487  157.0649 H   0  0  0  0  0  0  0  0  0  0  0  0  # atno 8010 bound_to 7997
  139.7267  143.8872  152.2521 H   0  0  0  0  0  0  0  0  0  0  0  0  # atno 10167 bound_to 10162
  157.3203  131.0903  151.1246 H   0  0  0  0  0  0  0  0  0  0  0  0  # atno 10718 bound_to 10713
  153.3799  135.6998  153.6573 H   0  0  0  0  0  0  0  0  0  0  0  0  # atno 10763 bound_to 10752
  153.5188  135.3616  155.2623 H   0  0  0  0  0  0  0  0  0  0  0  0  # atno 10764 bound_to 10752
  154.8691  135.4153  154.3095 H   0  0  0  0  0  0  0  0  0  0  0  0  # atno 10765 bound_to 10752
  140.6881  133.9095  155.8599 H   0  0  0  0  0  0  0  0  0  0  0  0  # atno 11005 bound_to 11000
  145.8782  139.2308  143.1621 LP  0  0  0  0  0  0  0  0  0  0  0  0  # atno 17320 bound_to 7965
  146.0020  140.8512  143.0014 LP  0  0  0  0  0  0  0  0  0  0  0  0  # atno 17321 bound_to 7965
  139.8783  144.7031  150.8907 LP  0  0  0  0  0  0  0  0  0  0  0  0  # atno 17342 bound_to 10162
  140.7764  143.3681  151.1700 LP  0  0  0  0  0  0  0  0  0  0  0  0  # atno 17343 bound_to 10162
  157.2533  130.6624  149.5941 LP  0  0  0  0  0  0  0  0  0  0  0  0  # atno 17370 bound_to 10713
  155.9685  130.4531  150.5800 LP  0  0  0  0  0  0  0  0  0  0  0  0  # atno 17371 bound_to 10713
  141.0264  134.0818  157.4064 LP  0  0  0  0  0  0  0  0  0  0  0  0  # atno 17394 bound_to 11000
  139.8932  135.0129  156.6884 LP  0  0  0  0  0  0  0  0  0  0  0  0  # atno 17395 bound_to 11000

$$$$
