AV-unprocessed.smi:1607|AV-procd|sdf|6465|dock2
  -GOLD-   22720 7123D 1   1.00000     0.00000
 Structure written by MMmdl.
 39 40  0  0  0  0  0  0  0  0  2 V2000
  146.4995  129.1561  151.5380 C   0  0  0  0  0  0  0  0  0  0  0  0
  145.7775  130.2851  152.2948 C   0  0  2  0  0  0  0  0  0  0  0  0
  144.8678  131.1293  151.3829 C   0  0  0  0  0  0  0  0  0  0  0  0
  145.6912  132.0637  150.4851 C   0  0  0  0  0  0  0  0  0  0  0  0
  146.6623  132.9158  151.3175 C   0  0  0  0  0  0  0  0  0  0  0  0
  147.5470  132.0594  152.1489 N   0  3  1  0  0  0  0  0  0  0  0  0
  148.5973  132.8421  152.8473 C   0  0  0  0  0  0  0  0  0  0  0  0
  148.0167  133.7285  153.9665 C   0  0  0  0  0  0  0  0  0  0  0  0
  148.8794  134.8693  154.2508 N   0  0  0  0  0  0  0  0  0  0  0  0
  149.2509  135.2604  155.4799 C   0  0  0  0  0  0  0  0  0  0  0  0
  148.8797  134.6938  156.5079 O   0  0  0  0  0  0  0  0  0  0  0  0
  150.1829  136.4714  155.5627 C   0  0  0  0  0  0  0  0  0  0  0  0
  151.1254  136.3348  156.6579 N   0  0  0  0  0  0  0  0  0  0  0  0
  151.1543  136.9010  157.8664 C   0  0  0  0  0  0  0  0  0  0  0  0
  152.2038  136.5019  158.5684 N   0  0  0  0  0  0  0  0  0  0  0  0
  152.8457  135.6289  157.7062 N   0  0  0  0  0  0  0  0  0  0  0  0
  152.2102  135.5252  156.5712 N   0  0  0  0  0  0  0  0  0  0  0  0
  146.7598  131.1905  153.0662 C   0  0  0  0  0  0  0  0  0  0  0  0
  147.1912  129.5428  150.7900 H   0  0  0  0  0  0  0  0  0  0  0  0
  145.7862  128.5090  151.0269 H   0  0  0  0  0  0  0  0  0  0  0  0
  147.0729  128.5316  152.2236 H   0  0  0  0  0  0  0  0  0  0  0  0
  145.1360  129.7981  153.0305 H   0  0  0  0  0  0  0  0  0  0  0  0
  144.2283  130.4863  150.7772 H   0  0  0  0  0  0  0  0  0  0  0  0
  144.1982  131.7294  152.0007 H   0  0  0  0  0  0  0  0  0  0  0  0
  146.2488  131.4806  149.7516 H   0  0  0  0  0  0  0  0  0  0  0  0
  145.0239  132.7112  149.9154 H   0  0  0  0  0  0  0  0  0  0  0  0
  147.2643  133.5268  150.6435 H   0  0  0  0  0  0  0  0  0  0  0  0
  146.1089  133.6027  151.9599 H   0  0  0  0  0  0  0  0  0  0  0  0
  149.3173  132.1593  153.3009 H   0  0  0  0  0  0  0  0  0  0  0  0
  149.1541  133.4350  152.1200 H   0  0  0  0  0  0  0  0  0  0  0  0
  147.0192  134.0906  153.7162 H   0  0  0  0  0  0  0  0  0  0  0  0
  147.9123  133.1467  154.8827 H   0  0  0  0  0  0  0  0  0  0  0  0
  149.2291  135.3899  153.4590 H   0  0  0  0  0  0  0  0  0  0  0  0
  150.7446  136.5947  154.6355 H   0  0  0  0  0  0  0  0  0  0  0  0
  149.5904  137.3767  155.7037 H   0  0  0  0  0  0  0  0  0  0  0  0
  150.4151  137.6011  158.2267 H   0  0  0  0  0  0  0  0  0  0  0  0
  146.2068  131.8215  153.7640 H   0  0  0  0  0  0  0  0  0  0  0  0
  147.4201  130.5702  153.6712 H   0  0  0  0  0  0  0  0  0  0  0  0
  148.0282  131.4482  151.5048 H   0  0  0  0  0  0  0  0  0  0  0  0
  1  2  1  0  0  0  0
  1 19  1  0  0  0  0
  1 20  1  0  0  0  0
  1 21  1  0  0  0  0
  2 18  1  0  0  0  0
  2  3  1  0  0  0  0
  2 22  1  0  0  0  0
  3  4  1  0  0  0  0
  3 23  1  0  0  0  0
  3 24  1  0  0  0  0
  4  5  1  0  0  0  0
  4 25  1  0  0  0  0
  4 26  1  0  0  0  0
  5  6  1  0  0  0  0
  5 27  1  0  0  0  0
  5 28  1  0  0  0  0
  6  7  1  0  0  0  0
  6 18  1  0  0  0  0
  6 39  1  0  0  0  0
  7  8  1  0  0  0  0
  7 29  1  0  0  0  0
  7 30  1  0  0  0  0
  8  9  1  0  0  0  0
  8 31  1  0  0  0  0
  8 32  1  0  0  0  0
  9 10  1  0  0  0  0
  9 33  1  0  0  0  0
 10 11  2  0  0  0  0
 10 12  1  0  0  0  0
 12 13  1  0  0  0  0
 12 34  1  0  0  0  0
 12 35  1  0  0  0  0
 13 17  1  0  0  0  0
 13 14  1  0  0  0  0
 14 15  2  0  0  0  0
 14 36  1  0  0  0  0
 15 16  1  0  0  0  0
 16 17  2  0  0  0  0
 18 37  1  0  0  0  0
 18 38  1  0  0  0  0
M  CHG  1   6   1
M  END
> <s_m_source_file>
AV-unprocessed.smi

> <i_m_source_file_index>
1607

> <i_lp_mmshare_version>
43012

> <i_f3d_flags>
0

> <s_epik_input>
W0NIM11bQ0BASF0xW0NIMl1bQ0gyXVtDSDJdTihbQ0gyXTEpW0NIMl1bQ0gyXVtOSF1DKD1PKVtDSDJdbjJbY0hdbm5uMg==

> <s_epik_cmdline>
J2VwaWtfcHl0aG9uJywgJy1waCcsICc3LjAnLCAnLXRuJywgJzgnLCAnLW1hJywgJzIwMCcsICctbWV0YWxfYmluZGluZycsICctaW1hZScsICc8aW5maWxlLm1hZT4nLCAnLW9tYWUnLCAnPG91dGZpbGUubWFlPic=

> <r_lp_tautomer_probability>
1

> <r_epik_Ionization_Penalty>
0.00268321

> <r_epik_Ionization_Penalty_Charging>
0.00267875

> <r_epik_Ionization_Penalty_Neutral>
4.46125e-06

> <r_epik_State_Penalty>
0.00186642

> <r_epik_Charging_Adjusted_Penalty>
0.00454517

> <i_epik_Tot_Q>
1

> <i_epik_Tot_abs_Q>
1

> <r_epik_Metal_State_Penalty>
-0

> <b_epik_Metal_Only>
0

> <s_lp_Force_Field>
OPLS_2005

> <r_lp_Energy>
22.0016

> <b_lp_Chiralities_Consistent>
1

> <s_lp_Variant>
AV-unprocessed.smi:1607-3

> <Gold.Version>
5.8.1

> <Gold.Id.Protein>
6NUR|6NUR_protein|mol2

> <Gold.PLP.Fitness>
38.8646

> <Gold.PLP.PLP>
-29.7686

> <Gold.PLP.part.hbond>
-5.0000

> <Gold.PLP.part.metal>
0.0000

> <Gold.PLP.part.buried>
-4.0969

> <Gold.PLP.part.nonpolar>
-21.2852

> <Gold.PLP.part.repulsive>
0.0056

> <Gold.PLP.ligand.clash>
0.0000

> <Gold.PLP.ligand.torsion>
0.8035

> <Gold.PLP.Chemscore.Hbond>
3.5616

> <Gold.PLP.Chemscore.CHOScore>
0.0000

> <Gold.PLP.Chemscore.Metal>
0.0000

> <Gold.Chemscore.Hbonds>
donor molecule, donor type, donor heavy atom, donor atom, acceptor molecule, acceptor atom, score
      L1  H     6    39       P1 10747  1.00
      L1  H     9    33       P1  7948  1.00
      P1  H  6896  6907       L1    15  0.56
      P1  H 10752 10765       L1    17  1.00

> <Gold.PLP.Chemscore.Internal.Correction>
0.0184

> <Gold.Rescore>
     Score         DG    S(hbond)    S(metal)    S(lipo)     H(rot)  DE(clash)    DE(int)     intcor
     15.39     -16.28       3.04        0.00      64.61       2.69       0.00       0.89       ----

> <Gold.Chemscore.Fitness>
15.3880

> <Gold.Chemscore.DG>
-16.2835

> <Gold.Chemscore.ZeroCoef>
-5.4800

> <Gold.Chemscore.Hbond>
3.0357

> <Gold.Chemscore.Metal>
0.0000

> <Gold.Chemscore.Lipo>
64.6051

> <Gold.Chemscore.Internal_Hbond>
0.0000

> <Gold.Chemscore.DEClash>
0.0038

> <Gold.Chemscore.DEInternal>
0.8917

> <Gold.Chemscore.Rot>
2.6932

> <Gold.Chemscore.Internal.Correction>
   9.000000E+99

> <Gold.Chemscore.Hbonds>
donor molecule, donor type, donor heavy atom, donor atom, acceptor molecule, acceptor atom, score
      L1  H     6    39       P1 10747  1.00
      L1  H     9    33       P1  7948  0.33
      P1  H  6896  6907       L1    15  0.08
      P1  H 10752 10765       L1    17  0.85

> <Gold.Chemscore.Hbond.Weighted>
-10.1392

> <Gold.Chemscore.Metal.Weighted>
-0.0000

> <Gold.Chemscore.Lipo.Weighted>
-7.5588

> <Gold.Chemscore.Internal_Hbond.Weighted>
0.0000

> <Gold.Chemscore.DEClash.Weighted>
0.0038

> <Gold.Chemscore.DEInternal.Weighted>
0.8917

> <Gold.Chemscore.Rot.Weighted>
6.8945

> <Gold.Chemscore.Internal.Correction.Weighted>
   9.000000E+99

> <Gold.Protein.RotatedTorsions>
[ 6907 6896 6895 6894 ] final    2.98 input  -60.11 | X-H torsion
[ 7974 7965 7964 7962 ] final  -45.36 input  175.53 | X-H torsion
[ 8008 7997 7996 7995 ] final   40.65 input   59.86 | X-H torsion
[ 10167 10162 10161 10158 ] final  154.18 input  -65.29 | X-H torsion
[ 10718 10713 10712 10709 ] final  177.52 input   66.30 | X-H torsion
[ 10763 10752 10751 10750 ] final -138.09 input  -60.55 | X-H torsion
[ 11005 11000 10999 10996 ] final  -20.95 input  -57.11 | X-H torsion

> <Gold.Protein.ActiveResidues>
 VAL166  LYS551  ARG553  GLY616  TRP617  ASP618  TYR619  PRO620  LYS621  CYS622 
 ASP623  PHE694  ASN695  SER759  ASP760  ASP761  ALA762  ILE779  LEU786  VAL792 
 PHE793  MET794  SER795  GLU796  ALA797  LYS798  CYS799  TRP800  GLU811  SER814 

> <Gold.Protein.RotatedAtoms>
  151.6176  135.1035  160.0094 H   0  0  0  0  0  0  0  0  0  0  0  0  # atno 6907 bound_to 6896
  152.4175  133.7058  159.6461 H   0  0  0  0  0  0  0  0  0  0  0  0  # atno 6908 bound_to 6896
  150.8063  133.8431  159.3225 H   0  0  0  0  0  0  0  0  0  0  0  0  # atno 6909 bound_to 6896
  145.9828  140.7265  142.9355 H   0  0  0  0  0  0  0  0  0  0  0  0  # atno 7974 bound_to 7965
  155.2565  140.3356  155.4277 H   0  0  0  0  0  0  0  0  0  0  0  0  # atno 8008 bound_to 7997
  156.2193  140.1802  156.7558 H   0  0  0  0  0  0  0  0  0  0  0  0  # atno 8009 bound_to 7997
  154.5801  140.0655  156.9076 H   0  0  0  0  0  0  0  0  0  0  0  0  # atno 8010 bound_to 7997
  139.4824  144.5209  151.7878 H   0  0  0  0  0  0  0  0  0  0  0  0  # atno 10167 bound_to 10162
  156.9042  130.9888  151.3031 H   0  0  0  0  0  0  0  0  0  0  0  0  # atno 10718 bound_to 10713
  154.8646  135.3622  154.5328 H   0  0  0  0  0  0  0  0  0  0  0  0  # atno 10763 bound_to 10752
  153.5953  135.7014  153.5411 H   0  0  0  0  0  0  0  0  0  0  0  0  # atno 10764 bound_to 10752
  153.3338  135.4117  155.1478 H   0  0  0  0  0  0  0  0  0  0  0  0  # atno 10765 bound_to 10752
  140.8514  133.7854  155.9971 H   0  0  0  0  0  0  0  0  0  0  0  0  # atno 11005 bound_to 11000
  144.6866  140.2937  143.7274 LP  0  0  0  0  0  0  0  0  0  0  0  0  # atno 17320 bound_to 7965
  145.7744  139.1869  143.2194 LP  0  0  0  0  0  0  0  0  0  0  0  0  # atno 17321 bound_to 7965
  140.4723  144.1570  150.5919 LP  0  0  0  0  0  0  0  0  0  0  0  0  # atno 17342 bound_to 10162
  140.4369  143.2543  151.9523 LP  0  0  0  0  0  0  0  0  0  0  0  0  # atno 17343 bound_to 10162
  157.6007  130.8511  149.8798 LP  0  0  0  0  0  0  0  0  0  0  0  0  # atno 17370 bound_to 10713
  156.0567  130.3707  150.1075 LP  0  0  0  0  0  0  0  0  0  0  0  0  # atno 17371 bound_to 10713
  140.8785  134.2640  157.5156 LP  0  0  0  0  0  0  0  0  0  0  0  0  # atno 17394 bound_to 11000
  139.8704  134.9603  156.4360 LP  0  0  0  0  0  0  0  0  0  0  0  0  # atno 17395 bound_to 11000

$$$$
