AV-unprocessed.smi:1659|AV-procd|sdf|6650|dock8
  -GOLD-   22720 7353D 1   1.00000     0.00000
 Structure written by MMmdl.
 43 44  0  0  0  0  0  0  0  0  1 V2000
  150.3695  130.5058  154.5702 C   0  0  0  0  0  0  0  0  0  0  0  0
  150.3056  131.9765  154.8019 C   0  0  0  0  0  0  0  0  0  0  0  0
  149.9684  133.0305  154.0002 C   0  0  0  0  0  0  0  0  0  0  0  0
  150.1241  134.1495  154.8609 C   0  0  0  0  0  0  0  0  0  0  0  0
  149.8638  135.4650  154.3987 N   0  0  0  0  0  0  0  0  0  0  0  0
  150.0136  136.6159  155.0765 C   0  0  0  0  0  0  0  0  0  0  0  0
  150.4119  136.7083  156.2378 O   0  0  0  0  0  0  0  0  0  0  0  0
  149.6728  137.6727  154.3246 N   0  0  0  0  0  0  0  0  0  0  0  0
  149.7261  139.0630  154.7622 C   0  0  0  0  0  0  0  0  0  0  0  0
  150.9710  139.3378  155.6203 C   0  0  0  0  0  0  0  0  0  0  0  0
  151.1428  140.8316  155.9443 C   0  0  0  0  0  0  0  0  0  0  0  0
  151.4918  141.0366  157.3584 N   0  0  0  0  0  0  0  0  0  0  0  0
  150.7248  142.0775  158.0600 C   0  0  0  0  0  0  0  0  0  0  0  0
  151.6001  143.2711  158.4882 C   0  0  0  0  0  0  0  0  0  0  0  0
  152.3823  143.0368  159.7892 C   0  0  0  0  0  0  0  0  0  0  0  0
  153.4099  141.8982  159.7147 C   0  0  0  0  0  0  0  0  0  0  0  0
  152.7766  140.5252  159.4346 C   0  0  0  0  0  0  0  0  0  0  0  0
  152.4706  140.3077  157.9471 C   0  0  0  0  0  0  0  0  0  0  0  0
  153.1241  139.4594  157.3385 O   0  0  0  0  0  0  0  0  0  0  0  0
  150.5215  133.8094  156.0775 N   0  0  0  0  0  0  0  0  0  0  0  0
  150.6388  132.4147  156.0462 O   0  0  0  0  0  0  0  0  0  0  0  0
  150.3211  130.2767  153.5056 H   0  0  0  0  0  0  0  0  0  0  0  0
  149.5387  130.0012  155.0634 H   0  0  0  0  0  0  0  0  0  0  0  0
  151.2987  130.0919  154.9623 H   0  0  0  0  0  0  0  0  0  0  0  0
  149.6599  133.0016  152.9659 H   0  0  0  0  0  0  0  0  0  0  0  0
  149.5263  135.5371  153.4504 H   0  0  0  0  0  0  0  0  0  0  0  0
  149.3552  137.5047  153.3811 H   0  0  0  0  0  0  0  0  0  0  0  0
  149.7409  139.6955  153.8743 H   0  0  0  0  0  0  0  0  0  0  0  0
  148.8183  139.3192  155.3111 H   0  0  0  0  0  0  0  0  0  0  0  0
  150.9075  138.7674  156.5477 H   0  0  0  0  0  0  0  0  0  0  0  0
  151.8573  138.9765  155.0972 H   0  0  0  0  0  0  0  0  0  0  0  0
  151.8989  141.2666  155.2902 H   0  0  0  0  0  0  0  0  0  0  0  0
  150.2248  141.3696  155.7003 H   0  0  0  0  0  0  0  0  0  0  0  0
  149.9343  142.4622  157.4151 H   0  0  0  0  0  0  0  0  0  0  0  0
  150.2056  141.6491  158.9184 H   0  0  0  0  0  0  0  0  0  0  0  0
  152.2797  143.5506  157.6821 H   0  0  0  0  0  0  0  0  0  0  0  0
  150.9512  144.1341  158.6415 H   0  0  0  0  0  0  0  0  0  0  0  0
  152.9011  143.9581  160.0559 H   0  0  0  0  0  0  0  0  0  0  0  0
  151.6830  142.8426  160.6034 H   0  0  0  0  0  0  0  0  0  0  0  0
  154.1668  142.1285  158.9631 H   0  0  0  0  0  0  0  0  0  0  0  0
  153.9423  141.8498  160.6650 H   0  0  0  0  0  0  0  0  0  0  0  0
  153.4760  139.7489  159.7480 H   0  0  0  0  0  0  0  0  0  0  0  0
  151.8792  140.3725  160.0351 H   0  0  0  0  0  0  0  0  0  0  0  0
  1  2  1  0  0  0  0
  1 22  1  0  0  0  0
  1 23  1  0  0  0  0
  1 24  1  0  0  0  0
  2 21  1  0  0  0  0
  2  3  2  0  0  0  0
  3  4  1  0  0  0  0
  3 25  1  0  0  0  0
  4  5  1  0  0  0  0
  4 20  2  0  0  0  0
  5  6  1  0  0  0  0
  5 26  1  0  0  0  0
  6  7  2  0  0  0  0
  6  8  1  0  0  0  0
  8  9  1  0  0  0  0
  8 27  1  0  0  0  0
  9 10  1  0  0  0  0
  9 28  1  0  0  0  0
  9 29  1  0  0  0  0
 10 11  1  0  0  0  0
 10 30  1  0  0  0  0
 10 31  1  0  0  0  0
 11 12  1  0  0  0  0
 11 32  1  0  0  0  0
 11 33  1  0  0  0  0
 12 18  1  0  0  0  0
 12 13  1  0  0  0  0
 13 14  1  0  0  0  0
 13 34  1  0  0  0  0
 13 35  1  0  0  0  0
 14 15  1  0  0  0  0
 14 36  1  0  0  0  0
 14 37  1  0  0  0  0
 15 16  1  0  0  0  0
 15 38  1  0  0  0  0
 15 39  1  0  0  0  0
 16 17  1  0  0  0  0
 16 40  1  0  0  0  0
 16 41  1  0  0  0  0
 17 18  1  0  0  0  0
 17 42  1  0  0  0  0
 17 43  1  0  0  0  0
 18 19  2  0  0  0  0
 20 21  1  0  0  0  0
M  END
> <s_m_source_file>
AV-unprocessed.smi

> <i_m_source_file_index>
1659

> <i_lp_mmshare_version>
43012

> <i_f3d_flags>
0

> <s_epik_input>
W0NIM11jMVtjSF1jKG5vMSlbTkhdQyg9TylbTkhdW0NIMl1bQ0gyXVtDSDJdTjJbQ0gyXVtDSDJdW0NIMl1bQ0gyXVtDSDJdQzI9Tw==

> <s_epik_cmdline>
J2VwaWtfcHl0aG9uJywgJy1waCcsICc3LjAnLCAnLXRuJywgJzgnLCAnLW1hJywgJzIwMCcsICctbWV0YWxfYmluZGluZycsICctaW1hZScsICc8aW5maWxlLm1hZT4nLCAnLW9tYWUnLCAnPG91dGZpbGUubWFlPic=

> <r_lp_tautomer_probability>
1

> <r_epik_Ionization_Penalty>
2.8543e-05

> <r_epik_Ionization_Penalty_Charging>
0

> <r_epik_Ionization_Penalty_Neutral>
2.8543e-05

> <r_epik_State_Penalty>
-0

> <r_epik_Charging_Adjusted_Penalty>
0

> <i_epik_Tot_Q>
0

> <i_epik_Tot_abs_Q>
0

> <r_epik_Metal_State_Penalty>
0.00845548

> <b_epik_Metal_Only>
0

> <s_lp_Force_Field>
OPLS_2005

> <r_lp_Energy>
16.7735

> <b_lp_Chiralities_Consistent>
1

> <s_lp_Variant>
AV-unprocessed.smi:1659-1

> <Gold.Version>
5.8.1

> <Gold.Id.Protein>
6NUR|6NUR_protein|mol2

> <Gold.PLP.Fitness>
48.3153

> <Gold.PLP.PLP>
-40.5966

> <Gold.PLP.part.hbond>
-3.1442

> <Gold.PLP.part.metal>
0.0000

> <Gold.PLP.part.buried>
-3.8817

> <Gold.PLP.part.nonpolar>
-32.9153

> <Gold.PLP.part.repulsive>
0.0821

> <Gold.PLP.ligand.clash>
0.0000

> <Gold.PLP.ligand.torsion>
0.6183

> <Gold.PLP.Chemscore.Hbond>
2.9760

> <Gold.PLP.Chemscore.CHOScore>
0.0000

> <Gold.PLP.Chemscore.Metal>
0.0000

> <Gold.Chemscore.Hbonds>
donor molecule, donor type, donor heavy atom, donor atom, acceptor molecule, acceptor atom, score
      L1  H     5    26       P1  7948  0.80
      L1  H     8    27       P1  7948  1.00
      P1  H  7997  8010       L1    19  1.00

> <Gold.PLP.Chemscore.Internal.Correction>
0.0272

> <Gold.Rescore>
     Score         DG    S(hbond)    S(metal)    S(lipo)     H(rot)  DE(clash)    DE(int)     intcor
     14.31     -18.87       2.66        0.00      79.78       1.88       0.05       4.51       ----

> <Gold.Chemscore.Fitness>
14.3094

> <Gold.Chemscore.DG>
-18.8708

> <Gold.Chemscore.ZeroCoef>
-5.4800

> <Gold.Chemscore.Hbond>
2.6566

> <Gold.Chemscore.Metal>
0.0000

> <Gold.Chemscore.Lipo>
79.7842

> <Gold.Chemscore.Internal_Hbond>
0.0000

> <Gold.Chemscore.DEClash>
0.0515

> <Gold.Chemscore.DEInternal>
4.5099

> <Gold.Chemscore.Rot>
1.8816

> <Gold.Chemscore.Internal.Correction>
   9.000000E+99

> <Gold.Chemscore.Hbonds>
donor molecule, donor type, donor heavy atom, donor atom, acceptor molecule, acceptor atom, score
      L1  H     5    26       P1  7948  0.12
      L1  H     8    27       P1  7948  0.89
      P1  H  7997  8010       L1    19  0.75

> <Gold.Chemscore.Hbond.Weighted>
-8.8729

> <Gold.Chemscore.Metal.Weighted>
-0.0000

> <Gold.Chemscore.Lipo.Weighted>
-9.3348

> <Gold.Chemscore.Internal_Hbond.Weighted>
0.0000

> <Gold.Chemscore.DEClash.Weighted>
0.0515

> <Gold.Chemscore.DEInternal.Weighted>
4.5099

> <Gold.Chemscore.Rot.Weighted>
4.8169

> <Gold.Chemscore.Internal.Correction.Weighted>
   9.000000E+99

> <Gold.Protein.RotatedTorsions>
[ 6907 6896 6895 6894 ] final  -51.53 input  -60.11 | X-H torsion
[ 7974 7965 7964 7962 ] final  -23.73 input  175.53 | X-H torsion
[ 8008 7997 7996 7995 ] final   43.07 input   59.86 | X-H torsion
[ 10167 10162 10161 10158 ] final  149.68 input  -65.29 | X-H torsion
[ 10718 10713 10712 10709 ] final   90.22 input   66.30 | X-H torsion
[ 10763 10752 10751 10750 ] final  159.20 input  -60.55 | X-H torsion
[ 11005 11000 10999 10996 ] final  151.66 input  -57.11 | X-H torsion

> <Gold.Protein.ActiveResidues>
 VAL166  LYS551  ARG553  GLY616  TRP617  ASP618  TYR619  PRO620  LYS621  CYS622 
 ASP623  PHE694  ASN695  SER759  ASP760  ASP761  ALA762  ILE779  LEU786  VAL792 
 PHE793  MET794  SER795  GLU796  ALA797  LYS798  CYS799  TRP800  GLU811  SER814 

> <Gold.Protein.RotatedAtoms>
  150.8603  134.7952  159.7076 H   0  0  0  0  0  0  0  0  0  0  0  0  # atno 6907 bound_to 6896
  152.4642  134.5111  159.9764 H   0  0  0  0  0  0  0  0  0  0  0  0  # atno 6908 bound_to 6896
  151.5217  133.3427  159.2938 H   0  0  0  0  0  0  0  0  0  0  0  0  # atno 6909 bound_to 6896
  146.1598  140.4656  142.8576 H   0  0  0  0  0  0  0  0  0  0  0  0  # atno 7974 bound_to 7965
  155.2966  140.3382  155.4249 H   0  0  0  0  0  0  0  0  0  0  0  0  # atno 8008 bound_to 7997
  156.2021  140.1737  156.7917 H   0  0  0  0  0  0  0  0  0  0  0  0  # atno 8009 bound_to 7997
  154.5572  140.0694  156.8747 H   0  0  0  0  0  0  0  0  0  0  0  0  # atno 8010 bound_to 7997
  139.4859  144.5583  151.7278 H   0  0  0  0  0  0  0  0  0  0  0  0  # atno 10167 bound_to 10162
  157.6958  131.0362  150.3545 H   0  0  0  0  0  0  0  0  0  0  0  0  # atno 10718 bound_to 10713
  154.2280  135.2779  155.2900 H   0  0  0  0  0  0  0  0  0  0  0  0  # atno 10763 bound_to 10752
  154.5647  135.5636  153.7043 H   0  0  0  0  0  0  0  0  0  0  0  0  # atno 10764 bound_to 10752
  153.0026  135.6306  154.2422 H   0  0  0  0  0  0  0  0  0  0  0  0  # atno 10765 bound_to 10752
  140.1238  134.8846  157.2110 H   0  0  0  0  0  0  0  0  0  0  0  0  # atno 11005 bound_to 11000
  144.8012  140.6216  143.6477 LP  0  0  0  0  0  0  0  0  0  0  0  0  # atno 17320 bound_to 7965
  145.4616  139.1512  143.3863 LP  0  0  0  0  0  0  0  0  0  0  0  0  # atno 17321 bound_to 7965
  140.5148  144.0970  150.6005 LP  0  0  0  0  0  0  0  0  0  0  0  0  # atno 17342 bound_to 10162
  140.3908  143.2753  152.0063 LP  0  0  0  0  0  0  0  0  0  0  0  0  # atno 17343 bound_to 10162
  156.3989  130.3912  149.6974 LP  0  0  0  0  0  0  0  0  0  0  0  0  # atno 17370 bound_to 10713
  156.4298  130.7810  151.2829 LP  0  0  0  0  0  0  0  0  0  0  0  0  # atno 17371 bound_to 10713
  140.2930  134.3219  155.7310 LP  0  0  0  0  0  0  0  0  0  0  0  0  # atno 17394 bound_to 11000
  141.2157  133.7546  156.9530 LP  0  0  0  0  0  0  0  0  0  0  0  0  # atno 17395 bound_to 11000

$$$$
