AV-unprocessed.smi:3128|AV-procd|sdf|11918|dock2
  -GOLD-   2272017293D 1   1.00000     0.00000
 Structure written by MMmdl.
 40 40  0  0  0  0  0  0  0  0  2 V2000
  147.9120  133.4558  152.9010 C   0  0  0  0  0  0  0  0  0  0  0  0
  146.5017  133.4897  152.2853 C   0  0  0  0  0  0  0  0  0  0  0  0
  146.6118  133.4023  150.7507 C   0  0  0  0  0  0  0  0  0  0  0  0
  145.6860  134.7300  152.7527 C   0  0  2  0  0  0  0  0  0  0  0  0
  144.1806  134.6507  152.4249 C   0  0  0  0  0  0  0  0  0  0  0  0
  146.2496  135.9952  152.2700 N   0  0  0  0  0  0  0  0  0  0  0  0
  145.6824  137.2128  152.3166 C   0  0  0  0  0  0  0  0  0  0  0  0
  144.5734  137.4325  152.8042 O   0  0  0  0  0  0  0  0  0  0  0  0
  146.5067  138.3573  151.7269 C   0  0  0  0  0  0  0  0  0  0  0  0
  147.7962  138.5213  152.4263 N   0  3  0  0  0  0  0  0  0  0  0  0
  147.6797  139.0597  153.7962 C   0  0  0  0  0  0  0  0  0  0  0  0
  148.8354  140.0173  154.1283 C   0  0  0  0  0  0  0  0  0  0  0  0
  150.0883  139.3136  154.3368 N   0  0  0  0  0  0  0  0  0  0  0  0
  150.3466  137.9653  154.2061 C   0  0  0  0  0  0  0  0  0  0  0  0
  151.6681  137.7754  154.4932 C   0  0  0  0  0  0  0  0  0  0  0  0
  152.1407  139.0831  154.7950 C   0  0  0  0  0  0  0  0  0  0  0  0
  151.1930  140.0018  154.6987 N   0  0  0  0  0  0  0  0  0  0  0  0
  148.4748  134.3562  152.6530 H   0  0  0  0  0  0  0  0  0  0  0  0
  148.4800  132.6005  152.5336 H   0  0  0  0  0  0  0  0  0  0  0  0
  147.8788  133.3679  153.9865 H   0  0  0  0  0  0  0  0  0  0  0  0
  145.9876  132.5897  152.6237 H   0  0  0  0  0  0  0  0  0  0  0  0
  147.0877  134.2921  150.3377 H   0  0  0  0  0  0  0  0  0  0  0  0
  145.6363  133.2946  150.2769 H   0  0  0  0  0  0  0  0  0  0  0  0
  147.2060  132.5392  150.4493 H   0  0  0  0  0  0  0  0  0  0  0  0
  145.7703  134.7848  153.8389 H   0  0  0  0  0  0  0  0  0  0  0  0
  143.6930  133.8469  152.9756 H   0  0  0  0  0  0  0  0  0  0  0  0
  144.0056  134.4764  151.3631 H   0  0  0  0  0  0  0  0  0  0  0  0
  143.6710  135.5748  152.6994 H   0  0  0  0  0  0  0  0  0  0  0  0
  147.1668  135.9323  151.8524 H   0  0  0  0  0  0  0  0  0  0  0  0
  146.6868  138.1559  150.6703 H   0  0  0  0  0  0  0  0  0  0  0  0
  145.9404  139.2877  151.7933 H   0  0  0  0  0  0  0  0  0  0  0  0
  148.2449  137.6174  152.4780 H   0  0  0  0  0  0  0  0  0  0  0  0
  146.7284  139.5851  153.8867 H   0  0  0  0  0  0  0  0  0  0  0  0
  147.6606  138.2383  154.5140 H   0  0  0  0  0  0  0  0  0  0  0  0
  148.9674  140.7565  153.3364 H   0  0  0  0  0  0  0  0  0  0  0  0
  148.6031  140.5731  155.0377 H   0  0  0  0  0  0  0  0  0  0  0  0
  149.5787  137.2608  153.9215 H   0  0  0  0  0  0  0  0  0  0  0  0
  152.2144  136.8438  154.4898 H   0  0  0  0  0  0  0  0  0  0  0  0
  153.1370  139.3901  155.0774 H   0  0  0  0  0  0  0  0  0  0  0  0
  148.3836  139.1356  151.8803 H   0  0  0  0  0  0  0  0  0  0  0  0
  1  2  1  0  0  0  0
  1 18  1  0  0  0  0
  1 19  1  0  0  0  0
  1 20  1  0  0  0  0
  2  3  1  0  0  0  0
  2  4  1  0  0  0  0
  2 21  1  0  0  0  0
  3 22  1  0  0  0  0
  3 23  1  0  0  0  0
  3 24  1  0  0  0  0
  4  5  1  0  0  0  0
  4  6  1  0  0  0  0
  4 25  1  0  0  0  0
  5 26  1  0  0  0  0
  5 27  1  0  0  0  0
  5 28  1  0  0  0  0
  6  7  1  0  0  0  0
  6 29  1  0  0  0  0
  7  8  2  0  0  0  0
  7  9  1  0  0  0  0
  9 10  1  0  0  0  0
  9 30  1  0  0  0  0
  9 31  1  0  0  0  0
 10 11  1  0  0  0  0
 10 32  1  0  0  0  0
 10 40  1  0  0  0  0
 11 12  1  0  0  0  0
 11 33  1  0  0  0  0
 11 34  1  0  0  0  0
 12 13  1  0  0  0  0
 12 35  1  0  0  0  0
 12 36  1  0  0  0  0
 13 17  1  0  0  0  0
 13 14  1  0  0  0  0
 14 15  2  0  0  0  0
 14 37  1  0  0  0  0
 15 16  1  0  0  0  0
 15 38  1  0  0  0  0
 16 17  2  0  0  0  0
 16 39  1  0  0  0  0
M  CHG  1  10   1
M  END
> <s_m_source_file>
AV-unprocessed.smi

> <i_m_source_file_index>
3128

> <i_lp_mmshare_version>
43012

> <i_f3d_flags>
0

> <s_epik_input>
W0NIM11bQ0hdKFtDSDNdKVtDQEhdKFtDSDNdKVtOSF1DKD1PKVtDSDJdW05IXVtDSDJdW0NIMl1uMVtjSF1bY0hdW2NIXW4x

> <s_epik_cmdline>
J2VwaWtfcHl0aG9uJywgJy1waCcsICc3LjAnLCAnLXRuJywgJzgnLCAnLW1hJywgJzIwMCcsICctbWV0YWxfYmluZGluZycsICctaW1hZScsICc8aW5maWxlLm1hZT4nLCAnLW9tYWUnLCAnPG91dGZpbGUubWFlPic=

> <r_lp_tautomer_probability>
1

> <r_epik_Ionization_Penalty>
0.20724

> <r_epik_Ionization_Penalty_Charging>
0.207237

> <r_epik_Ionization_Penalty_Neutral>
3.20642e-06

> <r_epik_State_Penalty>
0.197613

> <r_epik_Charging_Adjusted_Penalty>
0.40485

> <i_epik_Tot_Q>
1

> <i_epik_Tot_abs_Q>
1

> <r_epik_Metal_State_Penalty>
0.197789

> <b_epik_Metal_Only>
0

> <s_lp_Force_Field>
OPLS_2005

> <r_lp_Energy>
3.68696

> <b_lp_Chiralities_Consistent>
1

> <s_lp_Variant>
AV-unprocessed.smi:3128-1

> <Gold.Version>
5.8.1

> <Gold.Id.Protein>
6NUR|6NUR_protein|mol2

> <Gold.PLP.Fitness>
51.7062

> <Gold.PLP.PLP>
-34.5958

> <Gold.PLP.part.hbond>
-4.0000

> <Gold.PLP.part.metal>
0.0000

> <Gold.PLP.part.buried>
-2.6358

> <Gold.PLP.part.nonpolar>
-29.1475

> <Gold.PLP.part.repulsive>
0.7217

> <Gold.PLP.ligand.clash>
0.0000

> <Gold.PLP.ligand.torsion>
0.6065

> <Gold.PLP.Chemscore.Hbond>
5.0000

> <Gold.PLP.Chemscore.CHOScore>
1.0000

> <Gold.PLP.Chemscore.Metal>
0.0000

> <Gold.Chemscore.Hbonds>
donor molecule, donor type, donor heavy atom, donor atom, acceptor molecule, acceptor atom, score
      L1  H     6    29       P1  7948  1.00
      L1  H    10    32       P1  7948  2.00
      L1  H    10    40       P1  7957  1.00
      P1  H  7989  7998       L1    17  1.00
      L1  C    14    37       P1  7948  1.00

> <Gold.PLP.Chemscore.Internal.Correction>
0.3234

> <Gold.Rescore>
     Score         DG    S(hbond)    S(metal)    S(lipo)     H(rot)  DE(clash)    DE(int)     intcor
     16.32     -18.30       3.19        0.00      67.45       2.24       0.06       1.91       ----

> <Gold.Chemscore.Fitness>
16.3244

> <Gold.Chemscore.DG>
-18.2950

> <Gold.Chemscore.ZeroCoef>
-5.4800

> <Gold.Chemscore.Hbond>
3.1921

> <Gold.Chemscore.Metal>
0.0000

> <Gold.Chemscore.Lipo>
67.4507

> <Gold.Chemscore.Internal_Hbond>
0.0000

> <Gold.Chemscore.DEClash>
0.0626

> <Gold.Chemscore.DEInternal>
1.9080

> <Gold.Chemscore.Rot>
2.2416

> <Gold.Chemscore.Internal.Correction>
   9.000000E+99

> <Gold.Chemscore.Hbonds>
donor molecule, donor type, donor heavy atom, donor atom, acceptor molecule, acceptor atom, score
      L1  H     6    29       P1  7948  0.98
      L1  H    10    32       P1  7948  0.97
      L1  H    10    40       P1  7957  0.98
      P1  H  7989  7998       L1    17  0.28

> <Gold.Chemscore.Hbond.Weighted>
-10.6618

> <Gold.Chemscore.Metal.Weighted>
-0.0000

> <Gold.Chemscore.Lipo.Weighted>
-7.8917

> <Gold.Chemscore.Internal_Hbond.Weighted>
0.0000

> <Gold.Chemscore.DEClash.Weighted>
0.0626

> <Gold.Chemscore.DEInternal.Weighted>
1.9080

> <Gold.Chemscore.Rot.Weighted>
5.7385

> <Gold.Chemscore.Internal.Correction.Weighted>
   9.000000E+99

> <Gold.Protein.RotatedTorsions>
[ 6907 6896 6895 6894 ] final   77.45 input  -60.11 | X-H torsion
[ 7974 7965 7964 7962 ] final  135.50 input  175.53 | X-H torsion
[ 8008 7997 7996 7995 ] final    1.45 input   59.86 | X-H torsion
[ 10167 10162 10161 10158 ] final  105.41 input  -65.29 | X-H torsion
[ 10718 10713 10712 10709 ] final -170.06 input   66.30 | X-H torsion
[ 10763 10752 10751 10750 ] final -136.48 input  -60.55 | X-H torsion
[ 11005 11000 10999 10996 ] final  -85.64 input  -57.11 | X-H torsion

> <Gold.Protein.ActiveResidues>
 VAL166  LYS551  ARG553  GLY616  TRP617  ASP618  TYR619  PRO620  LYS621  CYS622 
 ASP623  PHE694  ASN695  SER759  ASP760  ASP761  ALA762  ILE779  LEU786  VAL792 
 PHE793  MET794  SER795  GLU796  ALA797  LYS798  CYS799  TRP800  GLU811  SER814 

> <Gold.Protein.RotatedAtoms>
  152.5118  134.3815  159.9352 H   0  0  0  0  0  0  0  0  0  0  0  0  # atno 6907 bound_to 6896
  151.3772  133.3828  159.2714 H   0  0  0  0  0  0  0  0  0  0  0  0  # atno 6908 bound_to 6896
  150.9532  134.8950  159.7744 H   0  0  0  0  0  0  0  0  0  0  0  0  # atno 6909 bound_to 6896
  144.9657  139.4660  143.5457 H   0  0  0  0  0  0  0  0  0  0  0  0  # atno 7974 bound_to 7965
  154.6799  140.2630  155.6920 H   0  0  0  0  0  0  0  0  0  0  0  0  # atno 8008 bound_to 7997
  156.2692  140.2812  156.1261 H   0  0  0  0  0  0  0  0  0  0  0  0  # atno 8009 bound_to 7997
  155.1047  140.0375  157.2697 H   0  0  0  0  0  0  0  0  0  0  0  0  # atno 8010 bound_to 7997
  139.7095  144.7080  151.1050 H   0  0  0  0  0  0  0  0  0  0  0  0  # atno 10167 bound_to 10162
  156.7207  130.9269  151.3097 H   0  0  0  0  0  0  0  0  0  0  0  0  # atno 10718 bound_to 10713
  154.8683  135.3671  154.5068 H   0  0  0  0  0  0  0  0  0  0  0  0  # atno 10763 bound_to 10752
  153.5705  135.7021  153.5511 H   0  0  0  0  0  0  0  0  0  0  0  0  # atno 10764 bound_to 10752
  153.3546  135.4063  155.1635 H   0  0  0  0  0  0  0  0  0  0  0  0  # atno 10765 bound_to 10752
  141.1639  133.7410  156.9044 H   0  0  0  0  0  0  0  0  0  0  0  0  # atno 11005 bound_to 11000
  146.3367  139.8837  142.8820 LP  0  0  0  0  0  0  0  0  0  0  0  0  # atno 17320 bound_to 7965
  145.2633  141.0084  143.3814 LP  0  0  0  0  0  0  0  0  0  0  0  0  # atno 17321 bound_to 7965
  140.7730  143.5312  150.9421 LP  0  0  0  0  0  0  0  0  0  0  0  0  # atno 17342 bound_to 10162
  139.8996  143.6852  152.3133 LP  0  0  0  0  0  0  0  0  0  0  0  0  # atno 17343 bound_to 10162
  157.6899  130.9223  150.0486 LP  0  0  0  0  0  0  0  0  0  0  0  0  # atno 17370 bound_to 10713
  156.1596  130.3643  149.9318 LP  0  0  0  0  0  0  0  0  0  0  0  0  # atno 17371 bound_to 10713
  140.1560  134.9198  157.2654 LP  0  0  0  0  0  0  0  0  0  0  0  0  # atno 17394 bound_to 11000
  140.2666  134.3508  155.7387 LP  0  0  0  0  0  0  0  0  0  0  0  0  # atno 17395 bound_to 11000

$$$$
