AV-unprocessed.smi:1738|AV-procd|sdf|6999|dock1
  -GOLD-   22720 8213D 1   1.00000     0.00000
 Structure written by MMmdl.
 46 48  0  0  0  0  0  0  0  0  2 V2000
  151.1874  140.0816  159.2462 C   0  0  0  0  0  0  0  0  0  0  0  0
  152.1975  138.5986  158.8435 S   0  0  0  0  0  0  0  0  0  0  0  0
  153.5048  139.0632  158.3536 O   0  0  0  0  0  0  0  0  0  0  0  0
  152.1371  137.6744  159.9865 O   0  0  0  0  0  0  0  0  0  0  0  0
  151.3208  137.8442  157.4782 C   0  0  0  0  0  0  0  0  0  0  0  0
  151.4133  138.3890  156.1819 C   0  0  0  0  0  0  0  0  0  0  0  0
  150.6771  137.7768  155.1495 C   0  0  0  0  0  0  0  0  0  0  0  0
  149.8644  136.6573  155.4578 C   0  0  0  0  0  0  0  0  0  0  0  0
  149.0844  135.9374  154.5115 N   0  0  0  0  0  0  0  0  0  0  0  0
  148.2878  134.8717  154.7030 C   0  0  0  0  0  0  0  0  0  0  0  0
  148.1013  134.3004  155.7765 O   0  0  0  0  0  0  0  0  0  0  0  0
  147.7113  134.4882  153.5550 N   0  0  0  0  0  0  0  0  0  0  0  0
  146.7844  133.3686  153.4130 C   0  0  2  0  0  0  0  0  0  0  0  0
  147.4143  132.0153  153.7879 C   0  0  0  0  0  0  0  0  0  0  0  0
  146.8297  131.0004  152.7852 C   0  0  0  0  0  0  0  0  0  0  0  0
  145.8613  131.7635  151.9748 N   0  3  2  0  0  0  0  0  0  0  0  0
  145.5576  131.2459  150.6228 C   0  0  0  0  0  0  0  0  0  0  0  0
  144.4701  132.1259  149.9741 C   0  0  0  0  0  0  0  0  0  0  0  0
  144.8547  133.6193  149.9926 C   0  0  0  0  0  0  0  0  0  0  0  0
  145.2506  134.0756  151.4102 C   0  0  0  0  0  0  0  0  0  0  0  0
  146.3493  133.1510  151.9613 C   0  0  1  0  0  0  0  0  0  0  0  0
  149.8467  136.2056  156.7954 C   0  0  0  0  0  0  0  0  0  0  0  0
  150.5471  136.7842  157.7931 N   0  0  0  0  0  0  0  0  0  0  0  0
  151.6496  140.6216  160.0719 H   0  0  0  0  0  0  0  0  0  0  0  0
  150.1830  139.7704  159.5328 H   0  0  0  0  0  0  0  0  0  0  0  0
  151.1306  140.7310  158.3728 H   0  0  0  0  0  0  0  0  0  0  0  0
  152.0345  139.2478  155.9760 H   0  0  0  0  0  0  0  0  0  0  0  0
  150.7623  138.1742  154.1509 H   0  0  0  0  0  0  0  0  0  0  0  0
  149.1731  136.2542  153.5571 H   0  0  0  0  0  0  0  0  0  0  0  0
  147.9281  135.0106  152.7185 H   0  0  0  0  0  0  0  0  0  0  0  0
  145.9018  133.5192  154.0384 H   0  0  0  0  0  0  0  0  0  0  0  0
  148.5011  132.0407  153.6929 H   0  0  0  0  0  0  0  0  0  0  0  0
  147.1832  131.7470  154.8194 H   0  0  0  0  0  0  0  0  0  0  0  0
  147.6227  130.6042  152.1492 H   0  0  0  0  0  0  0  0  0  0  0  0
  146.3412  130.1606  153.2799 H   0  0  0  0  0  0  0  0  0  0  0  0
  146.4623  131.2435  150.0127 H   0  0  0  0  0  0  0  0  0  0  0  0
  145.2134  130.2136  150.6945 H   0  0  0  0  0  0  0  0  0  0  0  0
  144.2871  131.7999  148.9498 H   0  0  0  0  0  0  0  0  0  0  0  0
  143.5305  131.9915  150.5116 H   0  0  0  0  0  0  0  0  0  0  0  0
  145.6904  133.7864  149.3119 H   0  0  0  0  0  0  0  0  0  0  0  0
  144.0278  134.2248  149.6204 H   0  0  0  0  0  0  0  0  0  0  0  0
  145.5998  135.1079  151.3821 H   0  0  0  0  0  0  0  0  0  0  0  0
  144.3786  134.0565  152.0651 H   0  0  0  0  0  0  0  0  0  0  0  0
  147.2271  133.2045  151.3126 H   0  0  0  0  0  0  0  0  0  0  0  0
  149.2465  135.3524  157.0764 H   0  0  0  0  0  0  0  0  0  0  0  0
  144.9954  131.7716  152.4950 H   0  0  0  0  0  0  0  0  0  0  0  0
  1  2  1  0  0  0  0
  1 24  1  0  0  0  0
  1 25  1  0  0  0  0
  1 26  1  0  0  0  0
  2  3  2  0  0  0  0
  2  4  2  0  0  0  0
  2  5  1  0  0  0  0
  5 23  1  0  0  0  0
  5  6  2  0  0  0  0
  6  7  1  0  0  0  0
  6 27  1  0  0  0  0
  7  8  2  0  0  0  0
  7 28  1  0  0  0  0
  8  9  1  0  0  0  0
  8 22  1  0  0  0  0
  9 10  1  0  0  0  0
  9 29  1  0  0  0  0
 10 11  2  0  0  0  0
 10 12  1  0  0  0  0
 12 13  1  0  0  0  0
 12 30  1  0  0  0  0
 13 21  1  0  0  0  0
 13 14  1  0  0  0  0
 13 31  1  0  0  0  0
 14 15  1  0  0  0  0
 14 32  1  0  0  0  0
 14 33  1  0  0  0  0
 15 16  1  0  0  0  0
 15 34  1  0  0  0  0
 15 35  1  0  0  0  0
 16 21  1  0  0  0  0
 16 17  1  0  0  0  0
 16 46  1  0  0  0  0
 17 18  1  0  0  0  0
 17 36  1  0  0  0  0
 17 37  1  0  0  0  0
 18 19  1  0  0  0  0
 18 38  1  0  0  0  0
 18 39  1  0  0  0  0
 19 20  1  0  0  0  0
 19 40  1  0  0  0  0
 19 41  1  0  0  0  0
 20 21  1  0  0  0  0
 20 42  1  0  0  0  0
 20 43  1  0  0  0  0
 21 44  1  0  0  0  0
 22 23  2  0  0  0  0
 22 45  1  0  0  0  0
M  CHG  1  16   1
M  END
> <s_m_source_file>
AV-unprocessed.smi

> <i_m_source_file_index>
1738

> <i_lp_mmshare_version>
43012

> <i_f3d_flags>
0

> <s_epik_input>
W0NIM11TKD1PKSg9TyljMVtjSF1bY0hdYyhbY0hdbjEpW05IXUMoPU8pW05IXVtDQEhdKFtDSDJdW0NIMl0yKVtDQEBIXShOMjMpW0NIMl1bQ0gyXVtDSDJdW0NIMl0z

> <s_epik_cmdline>
J2VwaWtfcHl0aG9uJywgJy1waCcsICc3LjAnLCAnLXRuJywgJzgnLCAnLW1hJywgJzIwMCcsICctbWV0YWxfYmluZGluZycsICctaW1hZScsICc8aW5maWxlLm1hZT4nLCAnLW9tYWUnLCAnPG91dGZpbGUubWFlPic=

> <r_epik_Ionization_Penalty>
0.00100042

> <r_epik_Ionization_Penalty_Charging>
0.000974069

> <r_epik_Ionization_Penalty_Neutral>
2.63543e-05

> <r_epik_State_Penalty>
0.000633842

> <r_epik_Charging_Adjusted_Penalty>
0.00160791

> <i_epik_Tot_Q>
1

> <i_epik_Tot_abs_Q>
1

> <r_epik_Metal_State_Penalty>
-0

> <b_epik_Metal_Only>
0

> <s_lp_Force_Field>
OPLS_2005

> <r_lp_Energy>
37.3357

> <b_lp_Chiralities_Consistent>
1

> <s_lp_Variant>
AV-unprocessed.smi:1738-3

> <Gold.Version>
5.8.1

> <Gold.Id.Protein>
6NUR|6NUR_protein|mol2

> <Gold.PLP.Fitness>
44.0130

> <Gold.PLP.PLP>
-32.6070

> <Gold.PLP.part.hbond>
-4.9886

> <Gold.PLP.part.metal>
0.0000

> <Gold.PLP.part.buried>
-4.8282

> <Gold.PLP.part.nonpolar>
-22.8936

> <Gold.PLP.part.repulsive>
0.0575

> <Gold.PLP.ligand.clash>
0.0000

> <Gold.PLP.ligand.torsion>
1.0236

> <Gold.PLP.Chemscore.Hbond>
3.8080

> <Gold.PLP.Chemscore.CHOScore>
0.0000

> <Gold.PLP.Chemscore.Metal>
0.0000

> <Gold.Chemscore.Hbonds>
donor molecule, donor type, donor heavy atom, donor atom, acceptor molecule, acceptor atom, score
      L1  H     9    29       P1  7948  1.00
      L1  H    12    30       P1  7948  1.00
      P1  H  7997  8010       L1     3  1.00

> <Gold.PLP.Chemscore.Internal.Correction>
2.0291

> <Gold.Rescore>
     Score         DG    S(hbond)    S(metal)    S(lipo)     H(rot)  DE(clash)    DE(int)     intcor
     21.64     -24.11       3.71        0.00      75.24       1.00       0.03       2.44       ----

> <Gold.Chemscore.Fitness>
21.6351

> <Gold.Chemscore.DG>
-24.1101

> <Gold.Chemscore.ZeroCoef>
-5.4800

> <Gold.Chemscore.Hbond>
3.7086

> <Gold.Chemscore.Metal>
0.0000

> <Gold.Chemscore.Lipo>
75.2434

> <Gold.Chemscore.Internal_Hbond>
0.0000

> <Gold.Chemscore.DEClash>
0.0329

> <Gold.Chemscore.DEInternal>
2.4422

> <Gold.Chemscore.Rot>
1.0000

> <Gold.Chemscore.Internal.Correction>
   9.000000E+99

> <Gold.Chemscore.Hbonds>
donor molecule, donor type, donor heavy atom, donor atom, acceptor molecule, acceptor atom, score
      L1  H     9    29       P1  7948  0.92
      L1  H    12    30       P1  7948  0.90
      P1  H  7997  8010       L1     3  0.97

> <Gold.Chemscore.Hbond.Weighted>
-12.3866

> <Gold.Chemscore.Metal.Weighted>
-0.0000

> <Gold.Chemscore.Lipo.Weighted>
-8.8035

> <Gold.Chemscore.Internal_Hbond.Weighted>
0.0000

> <Gold.Chemscore.DEClash.Weighted>
0.0329

> <Gold.Chemscore.DEInternal.Weighted>
2.4422

> <Gold.Chemscore.Rot.Weighted>
2.5600

> <Gold.Chemscore.Internal.Correction.Weighted>
   9.000000E+99

> <Gold.Protein.RotatedTorsions>
[ 6907 6896 6895 6894 ] final   36.18 input  -60.11 | X-H torsion
[ 7974 7965 7964 7962 ] final  -60.77 input  175.53 | X-H torsion
[ 8008 7997 7996 7995 ] final   16.13 input   59.86 | X-H torsion
[ 10167 10162 10161 10158 ] final  -73.76 input  -65.29 | X-H torsion
[ 10718 10713 10712 10709 ] final -115.28 input   66.30 | X-H torsion
[ 10763 10752 10751 10750 ] final  110.76 input  -60.55 | X-H torsion
[ 11005 11000 10999 10996 ] final   60.02 input  -57.11 | X-H torsion

> <Gold.Protein.ActiveResidues>
 VAL166  LYS551  ARG553  GLY616  TRP617  ASP618  TYR619  PRO620  LYS621  CYS622 
 ASP623  PHE694  ASN695  SER759  ASP760  ASP761  ALA762  ILE779  LEU786  VAL792 
 PHE793  MET794  SER795  GLU796  ALA797  LYS798  CYS799  TRP800  GLU811  SER814 

> <Gold.Protein.RotatedAtoms>
  152.1262  134.9169  160.0560 H   0  0  0  0  0  0  0  0  0  0  0  0  # atno 6907 bound_to 6896
  152.0291  133.3925  159.4298 H   0  0  0  0  0  0  0  0  0  0  0  0  # atno 6908 bound_to 6896
  150.6852  134.3462  159.4933 H   0  0  0  0  0  0  0  0  0  0  0  0  # atno 6909 bound_to 6896
  145.8115  140.8595  143.0179 H   0  0  0  0  0  0  0  0  0  0  0  0  # atno 7974 bound_to 7965
  154.8725  140.2961  155.5473 H   0  0  0  0  0  0  0  0  0  0  0  0  # atno 8008 bound_to 7997
  156.3021  140.2457  156.3649 H   0  0  0  0  0  0  0  0  0  0  0  0  # atno 8009 bound_to 7997
  154.8802  140.0398  157.1766 H   0  0  0  0  0  0  0  0  0  0  0  0  # atno 8010 bound_to 7997
  140.5084  143.2349  151.7635 H   0  0  0  0  0  0  0  0  0  0  0  0  # atno 10167 bound_to 10162
  156.0885  130.6072  150.8885 H   0  0  0  0  0  0  0  0  0  0  0  0  # atno 10718 bound_to 10713
  153.4536  135.3738  155.2298 H   0  0  0  0  0  0  0  0  0  0  0  0  # atno 10763 bound_to 10752
  154.8756  135.3892  154.4009 H   0  0  0  0  0  0  0  0  0  0  0  0  # atno 10764 bound_to 10752
  153.4571  135.7086  153.6137 H   0  0  0  0  0  0  0  0  0  0  0  0  # atno 10765 bound_to 10752
  140.0261  134.6080  155.9570 H   0  0  0  0  0  0  0  0  0  0  0  0  # atno 11005 bound_to 11000
  144.6757  140.0403  143.7481 LP  0  0  0  0  0  0  0  0  0  0  0  0  # atno 17320 bound_to 7965
  145.9772  139.2914  143.1063 LP  0  0  0  0  0  0  0  0  0  0  0  0  # atno 17321 bound_to 7965
  139.4889  144.4426  151.9747 LP  0  0  0  0  0  0  0  0  0  0  0  0  # atno 17342 bound_to 10162
  140.3517  144.3081  150.5948 LP  0  0  0  0  0  0  0  0  0  0  0  0  # atno 17343 bound_to 10162
  157.6027  131.0940  150.8932 LP  0  0  0  0  0  0  0  0  0  0  0  0  # atno 17370 bound_to 10713
  156.9086  130.5272  149.5281 LP  0  0  0  0  0  0  0  0  0  0  0  0  # atno 17371 bound_to 10713
  141.1804  133.6545  156.4995 LP  0  0  0  0  0  0  0  0  0  0  0  0  # atno 17394 bound_to 11000
  140.4303  134.7107  157.4938 LP  0  0  0  0  0  0  0  0  0  0  0  0  # atno 17395 bound_to 11000

$$$$
