AV-unprocessed.smi:264|AV-procd|sdf|2007|dock10
  -GOLD-   2262021203D 1   1.00000     0.00000
 Structure written by MMmdl.
 52 56  0  0  0  0  0  0  0  0  1 V2000
  152.0612  144.7292  157.8533 C   0  0  0  0  0  0  0  0  0  0  0  0
  151.9983  143.6911  158.9847 C   0  0  2  0  0  0  0  0  0  0  0  0
  153.2996  143.6047  159.5603 O   0  0  0  0  0  0  0  0  0  0  0  0
  153.5095  142.2859  160.0324 C   0  0  0  0  0  0  0  0  0  0  0  0
  152.8668  141.4414  158.9430 C   0  0  0  0  0  0  0  0  0  0  0  0
  151.6161  142.2382  158.5828 C   0  0  1  0  0  0  0  0  0  0  0  0
  150.5700  141.8172  159.4428 O   0  0  0  0  0  0  0  0  0  0  0  0
  151.1446  142.0276  157.1198 C   0  0  0  0  0  0  0  0  0  0  0  0
  150.6175  140.6948  156.8666 N   0  0  0  0  0  0  0  0  0  0  0  0
  149.3520  140.2412  157.1621 C   0  0  0  0  0  0  0  0  0  0  0  0
  149.1152  138.9996  156.8373 N   0  0  0  0  0  0  0  0  0  0  0  0
  150.3037  138.5663  156.2611 C   0  0  0  0  0  0  0  0  0  0  0  0
  150.7395  137.3346  155.6956 C   0  0  0  0  0  0  0  0  0  0  0  0
  149.9354  136.2448  155.6029 N   0  0  0  0  0  0  0  0  0  0  0  0
  148.5510  136.5334  155.2494 C   0  0  0  0  0  0  0  0  0  0  0  0
  147.6770  135.2998  155.5135 C   0  0  0  0  0  0  0  0  0  0  0  0
  148.2005  134.1723  154.8134 O   0  0  0  0  0  0  0  0  0  0  0  0
  149.5470  133.8342  155.1609 C   0  0  1  0  0  0  0  0  0  0  0  0
  149.6319  133.2617  156.5814 C   0  0  0  0  0  0  0  0  0  0  0  0
  150.4664  131.9986  156.4190 C   0  0  0  0  0  0  0  0  0  0  0  0
  150.0467  131.5210  155.1550 O   0  0  0  0  0  0  0  0  0  0  0  0
  149.9875  132.6437  154.2873 C   0  0  0  0  0  0  0  0  0  0  0  0
  150.4606  135.0600  154.9286 C   0  0  0  0  0  0  0  0  0  0  0  0
  152.0189  137.2770  155.2366 N   0  0  0  0  0  0  0  0  0  0  0  0
  152.8128  138.3490  155.3109 C   0  0  0  0  0  0  0  0  0  0  0  0
  152.5374  139.5586  155.8014 N   0  0  0  0  0  0  0  0  0  0  0  0
  151.2602  139.6210  156.2753 C   0  0  0  0  0  0  0  0  0  0  0  0
  151.0901  144.8581  157.3753 H   0  0  0  0  0  0  0  0  0  0  0  0
  152.7849  144.4454  157.0887 H   0  0  0  0  0  0  0  0  0  0  0  0
  152.3636  145.7017  158.2424 H   0  0  0  0  0  0  0  0  0  0  0  0
  151.3205  144.0641  159.7548 H   0  0  0  0  0  0  0  0  0  0  0  0
  154.5697  142.0696  160.1651 H   0  0  0  0  0  0  0  0  0  0  0  0
  153.0031  142.1497  160.9890 H   0  0  0  0  0  0  0  0  0  0  0  0
  153.5448  141.4026  158.0897 H   0  0  0  0  0  0  0  0  0  0  0  0
  152.6648  140.4156  159.2546 H   0  0  0  0  0  0  0  0  0  0  0  0
  150.6442  142.2908  160.2573 H   0  0  0  0  0  0  0  0  0  0  0  0
  150.3703  142.7515  156.8626 H   0  0  0  0  0  0  0  0  0  0  0  0
  151.9670  142.1952  156.4241 H   0  0  0  0  0  0  0  0  0  0  0  0
  148.6068  140.8639  157.6354 H   0  0  0  0  0  0  0  0  0  0  0  0
  148.1596  137.3810  155.8108 H   0  0  0  0  0  0  0  0  0  0  0  0
  148.5043  136.8045  154.1937 H   0  0  0  0  0  0  0  0  0  0  0  0
  147.6142  135.0956  156.5830 H   0  0  0  0  0  0  0  0  0  0  0  0
  146.6591  135.4838  155.1701 H   0  0  0  0  0  0  0  0  0  0  0  0
  150.0558  133.9541  157.3095 H   0  0  0  0  0  0  0  0  0  0  0  0
  148.6394  132.9776  156.9339 H   0  0  0  0  0  0  0  0  0  0  0  0
  151.5327  132.2300  156.3941 H   0  0  0  0  0  0  0  0  0  0  0  0
  150.2864  131.2680  157.2077 H   0  0  0  0  0  0  0  0  0  0  0  0
  149.3126  132.4564  153.4516 H   0  0  0  0  0  0  0  0  0  0  0  0
  150.9845  132.8057  153.8741 H   0  0  0  0  0  0  0  0  0  0  0  0
  150.5301  135.2677  153.8596 H   0  0  0  0  0  0  0  0  0  0  0  0
  151.4704  134.8426  155.2806 H   0  0  0  0  0  0  0  0  0  0  0  0
  153.8111  138.2190  154.9201 H   0  0  0  0  0  0  0  0  0  0  0  0
  1  2  1  0  0  0  0
  1 28  1  0  0  0  0
  1 29  1  0  0  0  0
  1 30  1  0  0  0  0
  2  6  1  0  0  0  0
  2  3  1  0  0  0  0
  2 31  1  0  0  0  0
  3  4  1  0  0  0  0
  4  5  1  0  0  0  0
  4 32  1  0  0  0  0
  4 33  1  0  0  0  0
  5  6  1  0  0  0  0
  5 34  1  0  0  0  0
  5 35  1  0  0  0  0
  6  7  1  0  0  0  0
  6  8  1  0  0  0  0
  7 36  1  0  0  0  0
  8  9  1  0  0  0  0
  8 37  1  0  0  0  0
  8 38  1  0  0  0  0
  9 27  1  0  0  0  0
  9 10  1  0  0  0  0
 10 11  2  0  0  0  0
 10 39  1  0  0  0  0
 11 12  1  0  0  0  0
 12 27  2  0  0  0  0
 12 13  1  0  0  0  0
 13 14  1  0  0  0  0
 13 24  2  0  0  0  0
 14 23  1  0  0  0  0
 14 15  1  0  0  0  0
 15 16  1  0  0  0  0
 15 40  1  0  0  0  0
 15 41  1  0  0  0  0
 16 17  1  0  0  0  0
 16 42  1  0  0  0  0
 16 43  1  0  0  0  0
 17 18  1  0  0  0  0
 18 22  1  0  0  0  0
 18 19  1  0  0  0  0
 18 23  1  0  0  0  0
 19 20  1  0  0  0  0
 19 44  1  0  0  0  0
 19 45  1  0  0  0  0
 20 21  1  0  0  0  0
 20 46  1  0  0  0  0
 20 47  1  0  0  0  0
 21 22  1  0  0  0  0
 22 48  1  0  0  0  0
 22 49  1  0  0  0  0
 23 50  1  0  0  0  0
 23 51  1  0  0  0  0
 24 25  1  0  0  0  0
 25 26  2  0  0  0  0
 25 52  1  0  0  0  0
 26 27  1  0  0  0  0
M  END
> <s_m_source_file>
AV-unprocessed.smi

> <i_m_source_file_index>
264

> <i_lp_mmshare_version>
43012

> <i_f3d_flags>
0

> <s_epik_input>
W0NIMl0xW0NIMl1PW0NAQEhdKFtDSDNdKVtDQEBdMShbT0hdKVtDSDJdbihbY0hdbjIpYyhjMjMpbltjSF1uYzNOKFtDSDJdNClbQ0gyXVtDSDJdT1tDQF00NVtDSDJdW0NIMl1PW0NIMl01

> <s_epik_cmdline>
J2VwaWtfcHl0aG9uJywgJy1waCcsICc3LjAnLCAnLXRuJywgJzgnLCAnLW1hJywgJzIwMCcsICctbWV0YWxfYmluZGluZycsICctaW1hZScsICc8aW5maWxlLm1hZT4nLCAnLW9tYWUnLCAnPG91dGZpbGUubWFlPic=

> <r_lp_tautomer_probability>
1

> <r_epik_Ionization_Penalty>
0.00539389

> <r_epik_Ionization_Penalty_Charging>
0

> <r_epik_Ionization_Penalty_Neutral>
0.00539389

> <r_epik_State_Penalty>
0.00375441

> <r_epik_Charging_Adjusted_Penalty>
0.00375441

> <i_epik_Tot_Q>
0

> <i_epik_Tot_abs_Q>
0

> <r_epik_Metal_State_Penalty>
-0

> <b_epik_Metal_Only>
0

> <s_lp_Force_Field>
OPLS_2005

> <r_lp_Energy>
54.1721

> <b_lp_Chiralities_Consistent>
1

> <s_lp_Variant>
AV-unprocessed.smi:264-1

> <Gold.Version>
5.8.1

> <Gold.Id.Protein>
6NUR|6NUR_protein|mol2

> <Gold.PLP.Fitness>
44.3276

> <Gold.PLP.PLP>
-39.5441

> <Gold.PLP.part.hbond>
-3.0000

> <Gold.PLP.part.metal>
0.0000

> <Gold.PLP.part.buried>
-6.4794

> <Gold.PLP.part.nonpolar>
-30.9856

> <Gold.PLP.part.repulsive>
0.3019

> <Gold.PLP.ligand.clash>
0.0000

> <Gold.PLP.ligand.torsion>
0.6677

> <Gold.PLP.Chemscore.Hbond>
1.9440

> <Gold.PLP.Chemscore.CHOScore>
0.0000

> <Gold.PLP.Chemscore.Metal>
0.0000

> <Gold.Chemscore.Hbonds>
donor molecule, donor type, donor heavy atom, donor atom, acceptor molecule, acceptor atom, score
      P1  H  7997  8008       L1    26  1.00
      P1  H 10752 10765       L1    24  0.90

> <Gold.PLP.Chemscore.Internal.Correction>
0.2869

> <Gold.Rescore>
     Score         DG    S(hbond)    S(metal)    S(lipo)     H(rot)  DE(clash)    DE(int)     intcor
     13.95     -16.31       1.48        0.00      96.37       2.11       0.27       2.10       ----

> <Gold.Chemscore.Fitness>
13.9458

> <Gold.Chemscore.DG>
-16.3119

> <Gold.Chemscore.ZeroCoef>
-5.4800

> <Gold.Chemscore.Hbond>
1.4818

> <Gold.Chemscore.Metal>
0.0000

> <Gold.Chemscore.Lipo>
96.3662

> <Gold.Chemscore.Internal_Hbond>
0.0000

> <Gold.Chemscore.DEClash>
0.2662

> <Gold.Chemscore.DEInternal>
2.0998

> <Gold.Chemscore.Rot>
2.1063

> <Gold.Chemscore.Internal.Correction>
   9.000000E+99

> <Gold.Chemscore.Hbonds>
donor molecule, donor type, donor heavy atom, donor atom, acceptor molecule, acceptor atom, score
      P1  H  7997  8008       L1    26  0.25
      P1  H 10752 10765       L1    24  0.74

> <Gold.Chemscore.Hbond.Weighted>
-4.9492

> <Gold.Chemscore.Metal.Weighted>
-0.0000

> <Gold.Chemscore.Lipo.Weighted>
-11.2748

> <Gold.Chemscore.Internal_Hbond.Weighted>
0.0000

> <Gold.Chemscore.DEClash.Weighted>
0.2662

> <Gold.Chemscore.DEInternal.Weighted>
2.0998

> <Gold.Chemscore.Rot.Weighted>
5.3921

> <Gold.Chemscore.Internal.Correction.Weighted>
   9.000000E+99

> <Gold.Protein.RotatedTorsions>
[ 6907 6896 6895 6894 ] final    8.84 input  -60.11 | X-H torsion
[ 7974 7965 7964 7962 ] final   48.82 input  175.53 | X-H torsion
[ 8008 7997 7996 7995 ] final  -44.15 input   59.86 | X-H torsion
[ 10167 10162 10161 10158 ] final   22.54 input  -65.29 | X-H torsion
[ 10718 10713 10712 10709 ] final -131.65 input   66.30 | X-H torsion
[ 10763 10752 10751 10750 ] final -175.84 input  -60.55 | X-H torsion
[ 11005 11000 10999 10996 ] final  -10.62 input  -57.11 | X-H torsion

> <Gold.Protein.ActiveResidues>
 VAL166  LYS551  ARG553  GLY616  TRP617  ASP618  TYR619  PRO620  LYS621  CYS622 
 ASP623  PHE694  ASN695  SER759  ASP760  ASP761  ALA762  ILE779  LEU786  VAL792 
 PHE793  MET794  SER795  GLU796  ALA797  LYS798  CYS799  TRP800  GLU811  SER814 

> <Gold.Protein.RotatedAtoms>
  151.7125  135.0910  160.0269 H   0  0  0  0  0  0  0  0  0  0  0  0  # atno 6907 bound_to 6896
  152.3652  133.6344  159.6054 H   0  0  0  0  0  0  0  0  0  0  0  0  # atno 6908 bound_to 6896
  150.7633  133.9275  159.3458 H   0  0  0  0  0  0  0  0  0  0  0  0  # atno 6909 bound_to 6896
  146.0168  139.4605  142.9922 H   0  0  0  0  0  0  0  0  0  0  0  0  # atno 7974 bound_to 7965
  154.3997  140.1429  156.3635 H   0  0  0  0  0  0  0  0  0  0  0  0  # atno 8008 bound_to 7997
  155.8159  140.3471  155.5464 H   0  0  0  0  0  0  0  0  0  0  0  0  # atno 8009 bound_to 7997
  155.8338  140.0916  157.1767 H   0  0  0  0  0  0  0  0  0  0  0  0  # atno 8010 bound_to 7997
  140.5341  143.9791  150.6481 H   0  0  0  0  0  0  0  0  0  0  0  0  # atno 10167 bound_to 10162
  156.2266  130.7011  151.0813 H   0  0  0  0  0  0  0  0  0  0  0  0  # atno 10718 bound_to 10713
  154.5795  135.2835  155.0747 H   0  0  0  0  0  0  0  0  0  0  0  0  # atno 10763 bound_to 10752
  154.2089  135.6411  153.5113 H   0  0  0  0  0  0  0  0  0  0  0  0  # atno 10764 bound_to 10752
  153.0083  135.5487  154.6444 H   0  0  0  0  0  0  0  0  0  0  0  0  # atno 10765 bound_to 10752
  140.7466  133.8626  155.9011 H   0  0  0  0  0  0  0  0  0  0  0  0  # atno 11005 bound_to 11000
  145.7256  141.0060  143.1379 LP  0  0  0  0  0  0  0  0  0  0  0  0  # atno 17320 bound_to 7965
  144.6974  139.8923  143.7454 LP  0  0  0  0  0  0  0  0  0  0  0  0  # atno 17321 bound_to 7965
  140.3174  143.3159  152.0818 LP  0  0  0  0  0  0  0  0  0  0  0  0  # atno 17342 bound_to 10162
  139.4964  144.6596  151.6494 LP  0  0  0  0  0  0  0  0  0  0  0  0  # atno 17343 bound_to 10162
  157.7113  131.0732  150.6489 LP  0  0  0  0  0  0  0  0  0  0  0  0  # atno 17370 bound_to 10713
  156.6555  130.4497  149.5705 LP  0  0  0  0  0  0  0  0  0  0  0  0  # atno 17371 bound_to 10713
  140.9789  134.1432  157.4512 LP  0  0  0  0  0  0  0  0  0  0  0  0  # atno 17394 bound_to 11000
  139.8795  135.0004  156.6006 LP  0  0  0  0  0  0  0  0  0  0  0  0  # atno 17395 bound_to 11000

$$$$
