AV-unprocessed.smi:3255|AV-procd|sdf|12464|dock4
  -GOLD-   2272018363D 1   1.00000     0.00000
 Structure written by MMmdl.
 38 39  0  0  0  0  0  0  0  0  1 V2000
  149.1701  131.7923  153.4432 C   0  0  0  0  0  0  0  0  0  0  0  0
  148.1425  132.8843  153.7888 C   0  0  1  0  0  0  0  0  0  0  0  0
  148.7869  134.1948  153.7623 N   0  0  0  0  0  0  0  0  0  0  0  0
  149.5593  134.6975  154.7354 C   0  0  0  0  0  0  0  0  0  0  0  0
  149.8481  134.0951  155.7696 O   0  0  0  0  0  0  0  0  0  0  0  0
  149.9755  135.9386  154.4487 N   0  0  0  0  0  0  0  0  0  0  0  0
  150.8203  136.7540  155.3129 C   0  0  0  0  0  0  0  0  0  0  0  0
  151.4483  137.9276  154.5436 C   0  0  0  0  0  0  0  0  0  0  0  0
  150.9522  139.2013  155.0225 N   0  0  0  0  0  0  0  0  0  0  0  0
  151.4574  139.9536  156.0744 C   0  0  0  0  0  0  0  0  0  0  0  0
  150.6746  141.0827  156.1607 C   0  0  0  0  0  0  0  0  0  0  0  0
  149.6889  141.0464  155.1770 N   0  0  0  0  0  0  0  0  0  0  0  0
  149.9168  139.9035  154.5426 C   0  0  0  0  0  0  0  0  0  0  0  0
  146.9491  132.8916  152.8148 C   0  0  1  0  0  0  0  0  0  0  0  0
  147.2946  133.2907  151.3788 C   0  0  0  0  0  0  0  0  0  0  0  0
  146.2258  132.6030  150.5430 C   0  0  0  0  0  0  0  0  0  0  0  0
  145.5820  131.6032  151.5067 C   0  0  0  0  0  0  0  0  0  0  0  0
  146.4398  131.5781  152.6382 O   0  0  0  0  0  0  0  0  0  0  0  0
  148.7252  130.7985  153.4927 H   0  0  0  0  0  0  0  0  0  0  0  0
  150.0092  131.8038  154.1398 H   0  0  0  0  0  0  0  0  0  0  0  0
  149.5704  131.9284  152.4382 H   0  0  0  0  0  0  0  0  0  0  0  0
  147.7607  132.6978  154.7944 H   0  0  0  0  0  0  0  0  0  0  0  0
  148.6055  134.7711  152.9536 H   0  0  0  0  0  0  0  0  0  0  0  0
  149.6833  136.3501  153.5743 H   0  0  0  0  0  0  0  0  0  0  0  0
  150.2418  137.1188  156.1636 H   0  0  0  0  0  0  0  0  0  0  0  0
  151.6031  136.1145  155.7215 H   0  0  0  0  0  0  0  0  0  0  0  0
  152.5343  137.9159  154.6460 H   0  0  0  0  0  0  0  0  0  0  0  0
  151.2290  137.8534  153.4775 H   0  0  0  0  0  0  0  0  0  0  0  0
  152.3084  139.6321  156.6570 H   0  0  0  0  0  0  0  0  0  0  0  0
  150.7452  141.9121  156.8488 H   0  0  0  0  0  0  0  0  0  0  0  0
  149.3175  139.5701  153.7080 H   0  0  0  0  0  0  0  0  0  0  0  0
  146.1488  133.5303  153.1945 H   0  0  0  0  0  0  0  0  0  0  0  0
  147.3112  134.3715  151.2352 H   0  0  0  0  0  0  0  0  0  0  0  0
  148.2756  132.9006  151.1041 H   0  0  0  0  0  0  0  0  0  0  0  0
  145.4858  133.3133  150.1730 H   0  0  0  0  0  0  0  0  0  0  0  0
  146.6712  132.1022  149.6828 H   0  0  0  0  0  0  0  0  0  0  0  0
  144.5938  131.9487  151.8138 H   0  0  0  0  0  0  0  0  0  0  0  0
  145.4755  130.6091  151.0716 H   0  0  0  0  0  0  0  0  0  0  0  0
  1  2  1  0  0  0  0
  1 19  1  0  0  0  0
  1 20  1  0  0  0  0
  1 21  1  0  0  0  0
  2  3  1  0  0  0  0
  2 14  1  0  0  0  0
  2 22  1  0  0  0  0
  3  4  1  0  0  0  0
  3 23  1  0  0  0  0
  4  5  2  0  0  0  0
  4  6  1  0  0  0  0
  6  7  1  0  0  0  0
  6 24  1  0  0  0  0
  7  8  1  0  0  0  0
  7 25  1  0  0  0  0
  7 26  1  0  0  0  0
  8  9  1  0  0  0  0
  8 27  1  0  0  0  0
  8 28  1  0  0  0  0
  9 13  1  0  0  0  0
  9 10  1  0  0  0  0
 10 11  2  0  0  0  0
 10 29  1  0  0  0  0
 11 12  1  0  0  0  0
 11 30  1  0  0  0  0
 12 13  2  0  0  0  0
 13 31  1  0  0  0  0
 14 18  1  0  0  0  0
 14 15  1  0  0  0  0
 14 32  1  0  0  0  0
 15 16  1  0  0  0  0
 15 33  1  0  0  0  0
 15 34  1  0  0  0  0
 16 17  1  0  0  0  0
 16 35  1  0  0  0  0
 16 36  1  0  0  0  0
 17 18  1  0  0  0  0
 17 37  1  0  0  0  0
 17 38  1  0  0  0  0
M  END
> <s_m_source_file>
AV-unprocessed.smi

> <i_m_source_file_index>
3255

> <i_lp_mmshare_version>
43012

> <i_f3d_flags>
0

> <s_epik_input>
TzFbQ0gyXVtDSDJdW0NIMl1bQ0BIXTFbQ0BIXShbQ0gzXSlbTkhdQyg9TylbTkhdW0NIMl1bQ0gyXW4yW2NIXVtjSF1uW2NIXTI=

> <s_epik_cmdline>
J2VwaWtfcHl0aG9uJywgJy1waCcsICc3LjAnLCAnLXRuJywgJzgnLCAnLW1hJywgJzIwMCcsICctbWV0YWxfYmluZGluZycsICctaW1hZScsICc8aW5maWxlLm1hZT4nLCAnLW9tYWUnLCAnPG91dGZpbGUubWFlPic=

> <r_lp_tautomer_probability>
1

> <r_epik_Ionization_Penalty>
0.620274

> <r_epik_Ionization_Penalty_Charging>
0.620225

> <r_epik_Ionization_Penalty_Neutral>
4.91362e-05

> <r_epik_State_Penalty>
0.636186

> <r_epik_Charging_Adjusted_Penalty>
1.25641

> <i_epik_Tot_Q>
0

> <i_epik_Tot_abs_Q>
0

> <r_epik_Metal_State_Penalty>
0.306491

> <b_epik_Metal_Only>
0

> <s_lp_Force_Field>
OPLS_2005

> <r_lp_Energy>
17.3194

> <b_lp_Chiralities_Consistent>
1

> <s_lp_Variant>
AV-unprocessed.smi:3255-8

> <Gold.Version>
5.8.1

> <Gold.Id.Protein>
6NUR|6NUR_protein|mol2

> <Gold.PLP.Fitness>
42.3302

> <Gold.PLP.PLP>
-35.6932

> <Gold.PLP.part.hbond>
-3.7094

> <Gold.PLP.part.metal>
0.0000

> <Gold.PLP.part.buried>
-1.4435

> <Gold.PLP.part.nonpolar>
-30.2778

> <Gold.PLP.part.repulsive>
0.3533

> <Gold.PLP.ligand.clash>
0.0000

> <Gold.PLP.ligand.torsion>
1.2051

> <Gold.PLP.Chemscore.Hbond>
2.0000

> <Gold.PLP.Chemscore.CHOScore>
0.9981

> <Gold.PLP.Chemscore.Metal>
0.0000

> <Gold.Chemscore.Hbonds>
donor molecule, donor type, donor heavy atom, donor atom, acceptor molecule, acceptor atom, score
      L1  H     3    23       P1  7948  1.00
      L1  H     6    24       P1  7948  1.00
      L1  C    13    31       P1  7957  0.81

> <Gold.PLP.Chemscore.Internal.Correction>
0.0529

> <Gold.Rescore>
     Score         DG    S(hbond)    S(metal)    S(lipo)     H(rot)  DE(clash)    DE(int)     intcor
     11.46     -12.45       1.62        0.00      61.20       2.18       0.01       0.98       ----

> <Gold.Chemscore.Fitness>
11.4609

> <Gold.Chemscore.DG>
-12.4484

> <Gold.Chemscore.ZeroCoef>
-5.4800

> <Gold.Chemscore.Hbond>
1.6157

> <Gold.Chemscore.Metal>
0.0000

> <Gold.Chemscore.Lipo>
61.1972

> <Gold.Chemscore.Internal_Hbond>
0.0000

> <Gold.Chemscore.DEClash>
0.0060

> <Gold.Chemscore.DEInternal>
0.9816

> <Gold.Chemscore.Rot>
2.1828

> <Gold.Chemscore.Internal.Correction>
   9.000000E+99

> <Gold.Chemscore.Hbonds>
donor molecule, donor type, donor heavy atom, donor atom, acceptor molecule, acceptor atom, score
      L1  H     3    23       P1  7948  0.29
      L1  H     6    24       P1  7948  0.38

> <Gold.Chemscore.Hbond.Weighted>
-5.3965

> <Gold.Chemscore.Metal.Weighted>
-0.0000

> <Gold.Chemscore.Lipo.Weighted>
-7.1601

> <Gold.Chemscore.Internal_Hbond.Weighted>
0.0000

> <Gold.Chemscore.DEClash.Weighted>
0.0060

> <Gold.Chemscore.DEInternal.Weighted>
0.9816

> <Gold.Chemscore.Rot.Weighted>
5.5881

> <Gold.Chemscore.Internal.Correction.Weighted>
   9.000000E+99

> <Gold.Protein.RotatedTorsions>
[ 6907 6896 6895 6894 ] final  -50.34 input  -60.11 | X-H torsion
[ 7974 7965 7964 7962 ] final  147.75 input  175.53 | X-H torsion
[ 8008 7997 7996 7995 ] final  -87.82 input   59.86 | X-H torsion
[ 10167 10162 10161 10158 ] final -119.81 input  -65.29 | X-H torsion
[ 10718 10713 10712 10709 ] final -100.98 input   66.30 | X-H torsion
[ 10763 10752 10751 10750 ] final -108.14 input  -60.55 | X-H torsion
[ 11005 11000 10999 10996 ] final   24.58 input  -57.11 | X-H torsion

> <Gold.Protein.ActiveResidues>
 VAL166  LYS551  ARG553  GLY616  TRP617  ASP618  TYR619  PRO620  LYS621  CYS622 
 ASP623  PHE694  ASN695  SER759  ASP760  ASP761  ALA762  ILE779  LEU786  VAL792 
 PHE793  MET794  SER795  GLU796  ALA797  LYS798  CYS799  TRP800  GLU811  SER814 

> <Gold.Protein.RotatedAtoms>
  150.8716  134.8091  159.7158 H   0  0  0  0  0  0  0  0  0  0  0  0  # atno 6907 bound_to 6896
  152.4718  134.4937  159.9713 H   0  0  0  0  0  0  0  0  0  0  0  0  # atno 6908 bound_to 6896
  151.5025  133.3463  159.2907 H   0  0  0  0  0  0  0  0  0  0  0  0  # atno 6909 bound_to 6896
  144.8567  139.6068  143.5949 H   0  0  0  0  0  0  0  0  0  0  0  0  # atno 7974 bound_to 7965
  154.6677  140.0561  157.0131 H   0  0  0  0  0  0  0  0  0  0  0  0  # atno 8008 bound_to 7997
  155.1135  140.3240  155.4497 H   0  0  0  0  0  0  0  0  0  0  0  0  # atno 8009 bound_to 7997
  156.2644  140.2010  156.6259 H   0  0  0  0  0  0  0  0  0  0  0  0  # atno 8010 bound_to 7997
  140.0426  143.5138  152.2122 H   0  0  0  0  0  0  0  0  0  0  0  0  # atno 10167 bound_to 10162
  156.0180  130.5352  150.6896 H   0  0  0  0  0  0  0  0  0  0  0  0  # atno 10718 bound_to 10713
  154.8117  135.4649  154.0535 H   0  0  0  0  0  0  0  0  0  0  0  0  # atno 10763 bound_to 10752
  153.1960  135.6862  153.8298 H   0  0  0  0  0  0  0  0  0  0  0  0  # atno 10764 bound_to 10752
  153.7799  135.3258  155.3341 H   0  0  0  0  0  0  0  0  0  0  0  0  # atno 10765 bound_to 10752
  140.3572  134.2165  155.7675 H   0  0  0  0  0  0  0  0  0  0  0  0  # atno 11005 bound_to 11000
  146.2828  139.6924  142.9217 LP  0  0  0  0  0  0  0  0  0  0  0  0  # atno 17320 bound_to 7965
  145.4393  141.0421  143.2867 LP  0  0  0  0  0  0  0  0  0  0  0  0  # atno 17321 bound_to 7965
  139.6004  144.7580  151.3185 LP  0  0  0  0  0  0  0  0  0  0  0  0  # atno 17342 bound_to 10162
  140.7253  143.7020  150.7837 LP  0  0  0  0  0  0  0  0  0  0  0  0  # atno 17343 bound_to 10162
  157.4581  131.0880  151.0775 LP  0  0  0  0  0  0  0  0  0  0  0  0  # atno 17370 bound_to 10713
  157.1271  130.6086  149.5520 LP  0  0  0  0  0  0  0  0  0  0  0  0  # atno 17371 bound_to 10713
  141.1995  133.8010  157.0534 LP  0  0  0  0  0  0  0  0  0  0  0  0  # atno 17394 bound_to 11000
  140.0656  134.9731  157.1379 LP  0  0  0  0  0  0  0  0  0  0  0  0  # atno 17395 bound_to 11000

$$$$
