AV-unprocessed.smi:1817|AV-procd|sdf|7376|dock10
  -GOLD-   22720 9 43D 1   1.00000     0.00000
 Structure written by MMmdl.
 42 43  0  0  0  0  0  0  0  0  3 V2000
  150.4244  141.1136  156.4081 C   0  0  0  0  0  0  0  0  0  0  0  0
  150.9442  139.6962  156.1288 C   0  0  0  0  0  0  0  0  0  0  0  0
  150.6520  139.2677  154.7590 N   0  0  0  0  0  0  0  0  0  0  0  0
  151.3293  138.0210  154.4049 C   0  0  0  0  0  0  0  0  0  0  0  0
  150.7368  136.8029  155.1441 C   0  0  0  0  0  0  0  0  0  0  0  0
  149.2826  136.6532  154.8623 N   0  3  0  0  0  0  0  0  0  0  0  0
  148.6503  135.4568  155.5087 C   0  0  2  0  0  0  0  0  0  0  0  0
  149.2086  135.1841  156.9230 C   0  0  0  0  0  0  0  0  0  0  0  0
  148.8016  134.1734  154.6565 C   0  0  0  0  0  0  0  0  0  0  0  0
  148.0829  134.2826  153.3891 N   0  0  0  0  0  0  0  0  0  0  0  0
  147.2754  133.3599  152.8520 C   0  0  0  0  0  0  0  0  0  0  0  0
  147.0714  132.2961  153.4404 O   0  0  0  0  0  0  0  0  0  0  0  0
  146.7561  133.7331  151.6612 N   0  5  0  0  0  0  0  0  0  0  0  0
  145.8328  132.9639  151.0607 C   0  0  0  0  0  0  0  0  0  0  0  0
  145.6929  131.6585  151.3419 N   0  0  0  0  0  0  0  0  0  0  0  0
  144.6799  131.0491  150.6137 N   0  0  0  0  0  0  0  0  0  0  0  0
  144.0721  131.9175  149.8056 C   0  0  0  0  0  0  0  0  0  0  0  0
  144.6804  133.5587  149.8622 S   0  0  0  0  0  0  0  0  0  0  0  0
  148.5836  137.9295  155.1785 C   0  0  0  0  0  0  0  0  0  0  0  0
  149.2292  139.1218  154.4424 C   0  0  0  0  0  0  0  0  0  0  0  0
  150.7579  141.4547  157.3883 H   0  0  0  0  0  0  0  0  0  0  0  0
  149.3358  141.1589  156.4061 H   0  0  0  0  0  0  0  0  0  0  0  0
  150.7956  141.8241  155.6687 H   0  0  0  0  0  0  0  0  0  0  0  0
  152.0266  139.7037  156.2630 H   0  0  0  0  0  0  0  0  0  0  0  0
  150.5480  138.9977  156.8647 H   0  0  0  0  0  0  0  0  0  0  0  0
  151.2439  137.8708  153.3276 H   0  0  0  0  0  0  0  0  0  0  0  0
  152.3955  138.1103  154.6160 H   0  0  0  0  0  0  0  0  0  0  0  0
  151.2842  135.9286  154.7957 H   0  0  0  0  0  0  0  0  0  0  0  0
  150.9053  136.8728  156.2195 H   0  0  0  0  0  0  0  0  0  0  0  0
  147.5836  135.6598  155.6158 H   0  0  0  0  0  0  0  0  0  0  0  0
  148.8198  134.2475  157.3236 H   0  0  0  0  0  0  0  0  0  0  0  0
  148.9230  135.9572  157.6358 H   0  0  0  0  0  0  0  0  0  0  0  0
  150.2967  135.1091  156.9163 H   0  0  0  0  0  0  0  0  0  0  0  0
  149.8606  133.9669  154.4927 H   0  0  0  0  0  0  0  0  0  0  0  0
  148.4228  133.3035  155.1927 H   0  0  0  0  0  0  0  0  0  0  0  0
  148.2038  135.1370  152.8663 H   0  0  0  0  0  0  0  0  0  0  0  0
  143.2585  131.5910  149.1751 H   0  0  0  0  0  0  0  0  0  0  0  0
  147.5438  137.8819  154.8599 H   0  0  0  0  0  0  0  0  0  0  0  0
  148.5686  138.0921  156.2567 H   0  0  0  0  0  0  0  0  0  0  0  0
  148.6918  140.0420  154.6686 H   0  0  0  0  0  0  0  0  0  0  0  0
  149.1290  138.9772  153.3656 H   0  0  0  0  0  0  0  0  0  0  0  0
  149.1985  136.5171  153.8648 H   0  0  0  0  0  0  0  0  0  0  0  0
  1  2  1  0  0  0  0
  1 21  1  0  0  0  0
  1 22  1  0  0  0  0
  1 23  1  0  0  0  0
  2  3  1  0  0  0  0
  2 24  1  0  0  0  0
  2 25  1  0  0  0  0
  3 20  1  0  0  0  0
  3  4  1  0  0  0  0
  4  5  1  0  0  0  0
  4 26  1  0  0  0  0
  4 27  1  0  0  0  0
  5  6  1  0  0  0  0
  5 28  1  0  0  0  0
  5 29  1  0  0  0  0
  6  7  1  0  0  0  0
  6 19  1  0  0  0  0
  6 42  1  0  0  0  0
  7  8  1  0  0  0  0
  7  9  1  0  0  0  0
  7 30  1  0  0  0  0
  8 31  1  0  0  0  0
  8 32  1  0  0  0  0
  8 33  1  0  0  0  0
  9 10  1  0  0  0  0
  9 34  1  0  0  0  0
  9 35  1  0  0  0  0
 10 11  1  0  0  0  0
 10 36  1  0  0  0  0
 11 12  2  0  0  0  0
 11 13  1  0  0  0  0
 13 14  1  0  0  0  0
 14 18  1  0  0  0  0
 14 15  2  0  0  0  0
 15 16  1  0  0  0  0
 16 17  2  0  0  0  0
 17 18  1  0  0  0  0
 17 37  1  0  0  0  0
 19 20  1  0  0  0  0
 19 38  1  0  0  0  0
 19 39  1  0  0  0  0
 20 40  1  0  0  0  0
 20 41  1  0  0  0  0
M  CHG  1   6   1
M  CHG  1  13  -1
M  END
> <s_m_source_file>
AV-unprocessed.smi

> <i_m_source_file_index>
1817

> <i_lp_mmshare_version>
43012

> <i_f3d_flags>
0

> <s_epik_input>
W0NIM11bQ0gyXU4xW0NIMl1bQ0gyXU4oW0NIMl1bQ0gyXTEpW0NASF0oW0NIM10pW0NIMl1bTkhdQyg9TylbTkhdYzJubltjSF1zMg==

> <s_epik_cmdline>
J2VwaWtfcHl0aG9uJywgJy1waCcsICc3LjAnLCAnLXRuJywgJzgnLCAnLW1hJywgJzIwMCcsICctbWV0YWxfYmluZGluZycsICctaW1hZScsICc8aW5maWxlLm1hZT4nLCAnLW9tYWUnLCAnPG91dGZpbGUubWFlPic=

> <r_epik_Ionization_Penalty>
3.16835

> <r_epik_Ionization_Penalty_Charging>
3.13468

> <r_epik_Ionization_Penalty_Neutral>
0.0336711

> <r_epik_State_Penalty>
3.95884

> <r_epik_Charging_Adjusted_Penalty>
7.09351

> <i_epik_Tot_Q>
0

> <i_epik_Tot_abs_Q>
2

> <r_epik_Metal_State_Penalty>
1.39003

> <b_epik_Metal_Only>
1

> <s_lp_Force_Field>
OPLS_2005

> <r_lp_Energy>
20.7646

> <b_lp_Chiralities_Consistent>
1

> <s_lp_Variant>
AV-unprocessed.smi:1817-9

> <Gold.Version>
5.8.1

> <Gold.Id.Protein>
6NUR|6NUR_protein|mol2

> <Gold.PLP.Fitness>
43.6417

> <Gold.PLP.PLP>
-30.3429

> <Gold.PLP.part.hbond>
-2.7757

> <Gold.PLP.part.metal>
0.0000

> <Gold.PLP.part.buried>
-5.4075

> <Gold.PLP.part.nonpolar>
-23.7322

> <Gold.PLP.part.repulsive>
0.6778

> <Gold.PLP.ligand.clash>
0.0000

> <Gold.PLP.ligand.torsion>
0.8877

> <Gold.PLP.Chemscore.Hbond>
4.0000

> <Gold.PLP.Chemscore.CHOScore>
1.0000

> <Gold.PLP.Chemscore.Metal>
0.0000

> <Gold.Chemscore.Hbonds>
donor molecule, donor type, donor heavy atom, donor atom, acceptor molecule, acceptor atom, score
      L1  H     6    42       P1  7948  2.00
      L1  H    10    36       P1  7948  1.00
      P1  H  7989  7998       L1     3  0.42
      L1  C    17    37       P1 10952  0.42

> <Gold.PLP.Chemscore.Internal.Correction>
0.0743

> <Gold.Rescore>
     Score         DG    S(hbond)    S(metal)    S(lipo)     H(rot)  DE(clash)    DE(int)     intcor
     12.22     -14.93       1.96        0.00      65.86       1.88       0.04       2.67       ----

> <Gold.Chemscore.Fitness>
12.2174

> <Gold.Chemscore.DG>
-14.9276

> <Gold.Chemscore.ZeroCoef>
-5.4800

> <Gold.Chemscore.Hbond>
1.9644

> <Gold.Chemscore.Metal>
0.0000

> <Gold.Chemscore.Lipo>
65.8603

> <Gold.Chemscore.Internal_Hbond>
0.0000

> <Gold.Chemscore.DEClash>
0.0367

> <Gold.Chemscore.DEInternal>
2.6735

> <Gold.Chemscore.Rot>
1.8825

> <Gold.Chemscore.Internal.Correction>
   9.000000E+99

> <Gold.Chemscore.Hbonds>
donor molecule, donor type, donor heavy atom, donor atom, acceptor molecule, acceptor atom, score
      L1  H     6    42       P1  7948  0.91
      L1  H    10    36       P1  7948  0.93
      P1  H  7989  7998       L1     3  0.08

> <Gold.Chemscore.Hbond.Weighted>
-6.5611

> <Gold.Chemscore.Metal.Weighted>
-0.0000

> <Gold.Chemscore.Lipo.Weighted>
-7.7057

> <Gold.Chemscore.Internal_Hbond.Weighted>
0.0000

> <Gold.Chemscore.DEClash.Weighted>
0.0367

> <Gold.Chemscore.DEInternal.Weighted>
2.6735

> <Gold.Chemscore.Rot.Weighted>
4.8191

> <Gold.Chemscore.Internal.Correction.Weighted>
   9.000000E+99

> <Gold.Protein.RotatedTorsions>
[ 6907 6896 6895 6894 ] final  -77.62 input  -60.11 | X-H torsion
[ 7974 7965 7964 7962 ] final  -60.92 input  175.53 | X-H torsion
[ 8008 7997 7996 7995 ] final  178.66 input   59.86 | X-H torsion
[ 10167 10162 10161 10158 ] final   76.01 input  -65.29 | X-H torsion
[ 10718 10713 10712 10709 ] final  -60.00 input   66.30 | X-H torsion
[ 10763 10752 10751 10750 ] final  -47.21 input  -60.55 | X-H torsion
[ 11005 11000 10999 10996 ] final -137.80 input  -57.11 | X-H torsion

> <Gold.Protein.ActiveResidues>
 VAL166  LYS551  ARG553  GLY616  TRP617  ASP618  TYR619  PRO620  LYS621  CYS622 
 ASP623  PHE694  ASN695  SER759  ASP760  ASP761  ALA762  ILE779  LEU786  VAL792 
 PHE793  MET794  SER795  GLU796  ALA797  LYS798  CYS799  TRP800  GLU811  SER814 

> <Gold.Protein.RotatedAtoms>
  150.6994  134.4396  159.5285 H   0  0  0  0  0  0  0  0  0  0  0  0  # atno 6907 bound_to 6896
  152.2108  134.8500  160.0506 H   0  0  0  0  0  0  0  0  0  0  0  0  # atno 6908 bound_to 6896
  151.9386  133.3596  159.3994 H   0  0  0  0  0  0  0  0  0  0  0  0  # atno 6909 bound_to 6896
  145.8097  140.8606  143.0188 H   0  0  0  0  0  0  0  0  0  0  0  0  # atno 7974 bound_to 7965
  156.0522  140.1328  157.0038 H   0  0  0  0  0  0  0  0  0  0  0  0  # atno 8008 bound_to 7997
  154.4440  140.1008  156.6463 H   0  0  0  0  0  0  0  0  0  0  0  0  # atno 8009 bound_to 7997
  155.5507  140.3463  155.4470 H   0  0  0  0  0  0  0  0  0  0  0  0  # atno 8010 bound_to 7997
  139.9969  144.5716  150.7770 H   0  0  0  0  0  0  0  0  0  0  0  0  # atno 10167 bound_to 10162
  156.1021  130.4185  150.0794 H   0  0  0  0  0  0  0  0  0  0  0  0  # atno 10718 bound_to 10713
  154.0577  135.6622  153.4808 H   0  0  0  0  0  0  0  0  0  0  0  0  # atno 10763 bound_to 10752
  153.0439  135.5127  154.7689 H   0  0  0  0  0  0  0  0  0  0  0  0  # atno 10764 bound_to 10752
  154.6716  135.3030  154.9701 H   0  0  0  0  0  0  0  0  0  0  0  0  # atno 10765 bound_to 10752
  140.8676  134.2090  157.4670 H   0  0  0  0  0  0  0  0  0  0  0  0  # atno 11005 bound_to 11000
  144.6759  140.0378  143.7481 LP  0  0  0  0  0  0  0  0  0  0  0  0  # atno 17320 bound_to 7965
  145.9790  139.2927  143.1053 LP  0  0  0  0  0  0  0  0  0  0  0  0  # atno 17321 bound_to 7965
  140.7434  143.2845  151.3502 LP  0  0  0  0  0  0  0  0  0  0  0  0  # atno 17342 bound_to 10162
  139.6300  144.0740  152.2468 LP  0  0  0  0  0  0  0  0  0  0  0  0  # atno 17343 bound_to 10162
  156.8778  130.9546  151.3602 LP  0  0  0  0  0  0  0  0  0  0  0  0  # atno 17370 bound_to 10713
  157.6193  130.8642  149.9081 LP  0  0  0  0  0  0  0  0  0  0  0  0  # atno 17371 bound_to 10713
  139.8710  134.9759  156.4902 LP  0  0  0  0  0  0  0  0  0  0  0  0  # atno 17394 bound_to 11000
  140.8610  133.8060  155.9265 LP  0  0  0  0  0  0  0  0  0  0  0  0  # atno 17395 bound_to 11000

$$$$
