AV-unprocessed.smi:210|AV-procd|sdf|1613|dock6
  -GOLD-   2262019533D 1   1.00000     0.00000
 Structure written by MMmdl.
 57 61  0  0  0  0  0  0  0  0  1 V2000
  154.5399  141.0486  161.0993 C   0  0  0  0  0  0  0  0  0  0  0  0
  153.8130  142.0528  160.4132 O   0  0  0  0  0  0  0  0  0  0  0  0
  152.5077  141.6318  160.0493 C   0  0  2  0  0  0  0  0  0  0  0  0
  152.4671  140.5373  158.9725 C   0  0  0  0  0  0  0  0  0  0  0  0
  151.2577  141.2851  158.3834 C   0  0  2  0  0  0  0  0  0  0  0  0
  151.1479  141.2983  156.9162 N   0  0  0  0  0  0  0  0  0  0  0  0
  150.7947  142.5029  156.1679 C   0  0  0  0  0  0  0  0  0  0  0  0
  150.9191  140.0902  156.3328 C   0  0  0  0  0  0  0  0  0  0  0  0
  150.8749  140.0425  154.9751 N   0  0  0  0  0  0  0  0  0  0  0  0
  150.6551  138.8881  154.3407 C   0  0  0  0  0  0  0  0  0  0  0  0
  150.4636  137.6751  154.8599 N   0  0  0  0  0  0  0  0  0  0  0  0
  150.5206  137.7058  156.2217 C   0  0  0  0  0  0  0  0  0  0  0  0
  150.7350  138.8584  157.0328 C   0  0  0  0  0  0  0  0  0  0  0  0
  150.7257  138.4872  158.3740 N   0  0  0  0  0  0  0  0  0  0  0  0
  150.5013  137.2028  158.3560 C   0  0  0  0  0  0  0  0  0  0  0  0
  150.3940  136.6457  157.1031 N   0  0  0  0  0  0  0  0  0  0  0  0
  150.1133  135.2733  156.7965 C   0  0  0  0  0  0  0  0  0  0  0  0
  150.9471  134.5019  155.7673 C   0  0  0  0  0  0  0  0  0  0  0  0
  149.6904  133.6892  155.3780 C   0  0  0  0  0  0  0  0  0  0  0  0
  149.5062  133.3769  153.8797 C   0  0  0  0  0  0  0  0  0  0  0  0
  148.3170  133.9297  153.3523 O   0  0  0  0  0  0  0  0  0  0  0  0
  149.5396  132.3595  156.1416 C   0  0  0  0  0  0  0  0  0  0  0  0
  150.4862  131.4020  155.7121 O   0  0  0  0  0  0  0  0  0  0  0  0
  148.8937  134.8814  155.9572 C   0  0  0  0  0  0  0  0  0  0  0  0
  151.8167  142.5675  159.0348 C   0  0  0  0  0  0  0  0  0  0  0  0
  152.6185  143.6384  158.2686 C   0  0  0  0  0  0  0  0  0  0  0  0
  152.0381  144.6766  159.2339 C   0  0  0  0  0  0  0  0  0  0  0  0
  150.8980  143.6942  159.5236 C   0  0  0  0  0  0  0  0  0  0  0  0
  155.5243  141.4301  161.3699 H   0  0  0  0  0  0  0  0  0  0  0  0
  154.6824  140.1653  160.4758 H   0  0  0  0  0  0  0  0  0  0  0  0
  154.0305  140.7514  162.0166 H   0  0  0  0  0  0  0  0  0  0  0  0
  151.8654  141.4105  160.9046 H   0  0  0  0  0  0  0  0  0  0  0  0
  153.3730  140.5481  158.3661 H   0  0  0  0  0  0  0  0  0  0  0  0
  152.2468  139.5385  159.3497 H   0  0  0  0  0  0  0  0  0  0  0  0
  150.3459  140.9569  158.8859 H   0  0  0  0  0  0  0  0  0  0  0  0
  150.8984  142.3489  155.0936 H   0  0  0  0  0  0  0  0  0  0  0  0
  151.4659  143.3225  156.4222 H   0  0  0  0  0  0  0  0  0  0  0  0
  149.7721  142.8153  156.3781 H   0  0  0  0  0  0  0  0  0  0  0  0
  150.6310  138.9442  153.2625 H   0  0  0  0  0  0  0  0  0  0  0  0
  150.4159  136.6231  159.2635 H   0  0  0  0  0  0  0  0  0  0  0  0
  150.1036  134.7503  157.7543 H   0  0  0  0  0  0  0  0  0  0  0  0
  151.3185  135.1468  154.9696 H   0  0  0  0  0  0  0  0  0  0  0  0
  151.7591  133.9140  156.1963 H   0  0  0  0  0  0  0  0  0  0  0  0
  150.3422  133.7646  153.2966 H   0  0  0  0  0  0  0  0  0  0  0  0
  149.4724  132.3012  153.7042 H   0  0  0  0  0  0  0  0  0  0  0  0
  148.5250  134.7570  152.9459 H   0  0  0  0  0  0  0  0  0  0  0  0
  149.6557  132.5090  157.2156 H   0  0  0  0  0  0  0  0  0  0  0  0
  148.5472  131.9314  155.9999 H   0  0  0  0  0  0  0  0  0  0  0  0
  151.3365  131.6507  156.0413 H   0  0  0  0  0  0  0  0  0  0  0  0
  148.0156  134.6096  156.5436 H   0  0  0  0  0  0  0  0  0  0  0  0
  148.6419  135.6410  155.2153 H   0  0  0  0  0  0  0  0  0  0  0  0
  153.7027  143.5324  158.3069 H   0  0  0  0  0  0  0  0  0  0  0  0
  152.2716  143.8044  157.2491 H   0  0  0  0  0  0  0  0  0  0  0  0
  152.6773  144.8484  160.1015 H   0  0  0  0  0  0  0  0  0  0  0  0
  151.7271  145.6114  158.7673 H   0  0  0  0  0  0  0  0  0  0  0  0
  150.0350  143.8477  158.8738 H   0  0  0  0  0  0  0  0  0  0  0  0
  150.6073  143.6288  160.5725 H   0  0  0  0  0  0  0  0  0  0  0  0
  1  2  1  0  0  0  0
  1 29  1  0  0  0  0
  1 30  1  0  0  0  0
  1 31  1  0  0  0  0
  2  3  1  0  0  0  0
  3 25  1  0  0  0  0
  3  4  1  0  0  0  0
  3 32  1  0  0  0  0
  4  5  1  0  0  0  0
  4 33  1  0  0  0  0
  4 34  1  0  0  0  0
  5  6  1  0  0  0  0
  5 25  1  0  0  0  0
  5 35  1  0  0  0  0
  6  7  1  0  0  0  0
  6  8  1  0  0  0  0
  7 36  1  0  0  0  0
  7 37  1  0  0  0  0
  7 38  1  0  0  0  0
  8 13  1  0  0  0  0
  8  9  2  0  0  0  0
  9 10  1  0  0  0  0
 10 11  2  0  0  0  0
 10 39  1  0  0  0  0
 11 12  1  0  0  0  0
 12 16  1  0  0  0  0
 12 13  2  0  0  0  0
 13 14  1  0  0  0  0
 14 15  2  0  0  0  0
 15 16  1  0  0  0  0
 15 40  1  0  0  0  0
 16 17  1  0  0  0  0
 17 24  1  0  0  0  0
 17 18  1  0  0  0  0
 17 41  1  0  0  0  0
 18 19  1  0  0  0  0
 18 42  1  0  0  0  0
 18 43  1  0  0  0  0
 19 20  1  0  0  0  0
 19 22  1  0  0  0  0
 19 24  1  0  0  0  0
 20 21  1  0  0  0  0
 20 44  1  0  0  0  0
 20 45  1  0  0  0  0
 21 46  1  0  0  0  0
 22 23  1  0  0  0  0
 22 47  1  0  0  0  0
 22 48  1  0  0  0  0
 23 49  1  0  0  0  0
 24 50  1  0  0  0  0
 24 51  1  0  0  0  0
 25 28  1  0  0  0  0
 25 26  1  0  0  0  0
 26 27  1  0  0  0  0
 26 52  1  0  0  0  0
 26 53  1  0  0  0  0
 27 28  1  0  0  0  0
 27 54  1  0  0  0  0
 27 55  1  0  0  0  0
 28 56  1  0  0  0  0
 28 57  1  0  0  0  0
M  END
> <s_m_source_file>
AV-unprocessed.smi

> <i_m_source_file_index>
210

> <i_lp_mmshare_version>
43012

> <i_f3d_flags>
0

> <s_epik_input>
W0NIMl0xW0NIMl1bQ0gyXUMxMltDQEhdKE9bQ0gzXSlbQ0gyXVtDQEhdMk4oW0NIM10pYyhuW2NIXW4zKWMoYzM0KW5bY0hdbjRbQ0hdKFtDSDJdNSlbQ0gyXUM1KFtDSDJdW09IXSlbQ0gyXVtPSF0=

> <s_epik_cmdline>
J2VwaWtfcHl0aG9uJywgJy1waCcsICc3LjAnLCAnLXRuJywgJzgnLCAnLW1hJywgJzIwMCcsICctbWV0YWxfYmluZGluZycsICctaW1hZScsICc8aW5maWxlLm1hZT4nLCAnLW9tYWUnLCAnPG91dGZpbGUubWFlPic=

> <r_lp_tautomer_probability>
1

> <r_epik_Ionization_Penalty>
0.00313676

> <r_epik_Ionization_Penalty_Charging>
0

> <r_epik_Ionization_Penalty_Neutral>
0.00313676

> <r_epik_State_Penalty>
0.00199132

> <r_epik_Charging_Adjusted_Penalty>
0.00199132

> <i_epik_Tot_Q>
0

> <i_epik_Tot_abs_Q>
0

> <r_epik_Metal_State_Penalty>
-0

> <b_epik_Metal_Only>
0

> <s_lp_Force_Field>
OPLS_2005

> <r_lp_Energy>
62.7777

> <b_lp_Chiralities_Consistent>
1

> <s_lp_Variant>
AV-unprocessed.smi:210-3

> <Gold.Version>
5.8.1

> <Gold.Id.Protein>
6NUR|6NUR_protein|mol2

> <Gold.PLP.Fitness>
50.6451

> <Gold.PLP.PLP>
-44.4522

> <Gold.PLP.part.hbond>
-2.0000

> <Gold.PLP.part.metal>
0.0000

> <Gold.PLP.part.buried>
-5.4689

> <Gold.PLP.part.nonpolar>
-36.0284

> <Gold.PLP.part.repulsive>
0.2160

> <Gold.PLP.ligand.clash>
0.0000

> <Gold.PLP.ligand.torsion>
1.7597

> <Gold.PLP.Chemscore.Hbond>
1.7500

> <Gold.PLP.Chemscore.CHOScore>
1.0000

> <Gold.PLP.Chemscore.Metal>
0.0000

> <Gold.Chemscore.Hbonds>
donor molecule, donor type, donor heavy atom, donor atom, acceptor molecule, acceptor atom, score
      L1  H    21    46       P1  7948  1.00
      P1  H  7989  7998       L1     9  0.70
      L1  C    10    39       P1  7957  0.92

> <Gold.PLP.Chemscore.Internal.Correction>
1.4624

> <Gold.Rescore>
     Score         DG    S(hbond)    S(metal)    S(lipo)     H(rot)  DE(clash)    DE(int)     intcor
      7.89     -13.49       0.96        0.00     113.08       3.29       0.01       5.59       ----

> <Gold.Chemscore.Fitness>
7.8878

> <Gold.Chemscore.DG>
-13.4901

> <Gold.Chemscore.ZeroCoef>
-5.4800

> <Gold.Chemscore.Hbond>
0.9563

> <Gold.Chemscore.Metal>
0.0000

> <Gold.Chemscore.Lipo>
113.0839

> <Gold.Chemscore.Internal_Hbond>
0.0000

> <Gold.Chemscore.DEClash>
0.0148

> <Gold.Chemscore.DEInternal>
5.5875

> <Gold.Chemscore.Rot>
3.2870

> <Gold.Chemscore.Internal.Correction>
   9.000000E+99

> <Gold.Chemscore.Hbonds>
donor molecule, donor type, donor heavy atom, donor atom, acceptor molecule, acceptor atom, score
      L1  H    21    46       P1  7948  0.40
      P1  H  7989  7998       L1     9  0.07

> <Gold.Chemscore.Hbond.Weighted>
-3.1940

> <Gold.Chemscore.Metal.Weighted>
-0.0000

> <Gold.Chemscore.Lipo.Weighted>
-13.2308

> <Gold.Chemscore.Internal_Hbond.Weighted>
0.0000

> <Gold.Chemscore.DEClash.Weighted>
0.0148

> <Gold.Chemscore.DEInternal.Weighted>
5.5875

> <Gold.Chemscore.Rot.Weighted>
8.4147

> <Gold.Chemscore.Internal.Correction.Weighted>
   9.000000E+99

> <Gold.Protein.RotatedTorsions>
[ 6907 6896 6895 6894 ] final  123.52 input  -60.11 | X-H torsion
[ 7974 7965 7964 7962 ] final  108.88 input  175.53 | X-H torsion
[ 8008 7997 7996 7995 ] final   88.30 input   59.86 | X-H torsion
[ 10167 10162 10161 10158 ] final  120.44 input  -65.29 | X-H torsion
[ 10718 10713 10712 10709 ] final   42.19 input   66.30 | X-H torsion
[ 10763 10752 10751 10750 ] final -135.29 input  -60.55 | X-H torsion
[ 11005 11000 10999 10996 ] final   34.76 input  -57.11 | X-H torsion

> <Gold.Protein.ActiveResidues>
 VAL166  LYS551  ARG553  GLY616  TRP617  ASP618  TYR619  PRO620  LYS621  CYS622 
 ASP623  PHE694  ASN695  SER759  ASP760  ASP761  ALA762  ILE779  LEU786  VAL792 
 PHE793  MET794  SER795  GLU796  ALA797  LYS798  CYS799  TRP800  GLU811  SER814 

> <Gold.Protein.RotatedAtoms>
  152.4154  133.7030  159.6434 H   0  0  0  0  0  0  0  0  0  0  0  0  # atno 6907 bound_to 6896
  150.8032  133.8549  159.3224 H   0  0  0  0  0  0  0  0  0  0  0  0  # atno 6908 bound_to 6896
  151.6280  135.1027  160.0167 H   0  0  0  0  0  0  0  0  0  0  0  0  # atno 6909 bound_to 6896
  145.2749  139.2653  143.3946 H   0  0  0  0  0  0  0  0  0  0  0  0  # atno 7974 bound_to 7965
  155.9860  140.3373  155.6708 H   0  0  0  0  0  0  0  0  0  0  0  0  # atno 8008 bound_to 7997
  155.6485  140.0703  157.2613 H   0  0  0  0  0  0  0  0  0  0  0  0  # atno 8009 bound_to 7997
  154.4205  140.1730  156.1636 H   0  0  0  0  0  0  0  0  0  0  0  0  # atno 8010 bound_to 7997
  139.5982  144.7048  151.3125 H   0  0  0  0  0  0  0  0  0  0  0  0  # atno 10167 bound_to 10162
  157.4020  130.7865  149.7357 H   0  0  0  0  0  0  0  0  0  0  0  0  # atno 10718 bound_to 10713
  154.8705  135.3708  154.4873 H   0  0  0  0  0  0  0  0  0  0  0  0  # atno 10763 bound_to 10752
  153.5523  135.7024  153.5590 H   0  0  0  0  0  0  0  0  0  0  0  0  # atno 10764 bound_to 10752
  153.3704  135.4023  155.1748 H   0  0  0  0  0  0  0  0  0  0  0  0  # atno 10765 bound_to 10752
  140.2495  134.3320  155.7895 H   0  0  0  0  0  0  0  0  0  0  0  0  # atno 11005 bound_to 11000
  146.3235  140.3202  142.8633 LP  0  0  0  0  0  0  0  0  0  0  0  0  # atno 17320 bound_to 7965
  144.9303  140.7967  143.5693 LP  0  0  0  0  0  0  0  0  0  0  0  0  # atno 17321 bound_to 7965
  140.7229  143.7086  150.7787 LP  0  0  0  0  0  0  0  0  0  0  0  0  # atno 17342 bound_to 10162
  140.0657  143.5111  152.2605 LP  0  0  0  0  0  0  0  0  0  0  0  0  # atno 17343 bound_to 10162
  155.9826  130.4008  150.3408 LP  0  0  0  0  0  0  0  0  0  0  0  0  # atno 17370 bound_to 10713
  157.1537  131.0327  151.2873 LP  0  0  0  0  0  0  0  0  0  0  0  0  # atno 17371 bound_to 10713
  141.2203  133.7345  156.9014 LP  0  0  0  0  0  0  0  0  0  0  0  0  # atno 17394 bound_to 11000
  140.1572  134.9190  157.2669 LP  0  0  0  0  0  0  0  0  0  0  0  0  # atno 17395 bound_to 11000

$$$$
