AV-unprocessed.smi:2170|AV-procd|sdf|8825|dock3
  -GOLD-   2272012 23D 1   1.00000     0.00000
 Structure written by MMmdl.
 45 46  0  0  0  0  0  0  0  0  2 V2000
  155.8623  144.1757  167.4991 C   0  0  0  0  0  0  0  0  0  0  0  0
  155.7688  143.3013  166.2359 C   0  0  0  0  0  0  0  0  0  0  0  0
  154.7322  143.8538  165.2408 C   0  0  0  0  0  0  0  0  0  0  0  0
  155.5168  141.8794  166.5798 N   0  0  0  0  0  0  0  0  0  0  0  0
  154.8853  141.6358  167.8926 C   0  0  0  0  0  0  0  0  0  0  0  0
  156.6603  140.6917  166.0135 S   0  0  0  0  0  0  0  0  0  0  0  0
  157.9799  141.0893  166.5316 O   0  0  0  0  0  0  0  0  0  0  0  0
  156.1242  139.3857  166.4312 O   0  0  0  0  0  0  0  0  0  0  0  0
  156.4990  140.9873  164.4275 N   0  5  0  0  0  0  0  0  0  0  0  0
  155.7478  140.0511  163.6122 C   0  0  0  0  0  0  0  0  0  0  0  0
  154.9415  140.7634  162.5357 C   0  0  0  0  0  0  0  0  0  0  0  0
  154.0826  141.8362  162.8591 C   0  0  0  0  0  0  0  0  0  0  0  0
  153.3546  142.4643  161.8295 C   0  0  0  0  0  0  0  0  0  0  0  0
  153.5035  142.0070  160.4987 C   0  0  0  0  0  0  0  0  0  0  0  0
  152.7877  142.6273  159.4512 N   0  0  0  0  0  0  0  0  0  0  0  0
  152.2823  143.9807  159.6753 C   0  0  0  0  0  0  0  0  0  0  0  0
  151.7862  144.5926  158.3546 C   0  0  0  0  0  0  0  0  0  0  0  0
  150.8137  143.7355  157.7661 O   0  0  0  0  0  0  0  0  0  0  0  0
  151.3551  142.4562  157.4545 C   0  0  0  0  0  0  0  0  0  0  0  0
  151.8439  141.7679  158.7407 C   0  0  0  0  0  0  0  0  0  0  0  0
  154.3222  140.9705  160.1924 N   0  0  0  0  0  0  0  0  0  0  0  0
  155.0215  140.3719  161.1810 C   0  0  0  0  0  0  0  0  0  0  0  0
  156.1205  145.2025  167.2392 H   0  0  0  0  0  0  0  0  0  0  0  0
  156.6315  143.8117  168.1803 H   0  0  0  0  0  0  0  0  0  0  0  0
  154.9192  144.2047  168.0447 H   0  0  0  0  0  0  0  0  0  0  0  0
  156.7304  143.3513  165.7259 H   0  0  0  0  0  0  0  0  0  0  0  0
  155.0411  144.8311  164.8692 H   0  0  0  0  0  0  0  0  0  0  0  0
  153.7507  143.9816  165.6978 H   0  0  0  0  0  0  0  0  0  0  0  0
  154.6239  143.1959  164.3777 H   0  0  0  0  0  0  0  0  0  0  0  0
  155.5249  141.9923  168.6991 H   0  0  0  0  0  0  0  0  0  0  0  0
  154.7149  140.5721  168.0542 H   0  0  0  0  0  0  0  0  0  0  0  0
  153.9152  142.1252  167.9627 H   0  0  0  0  0  0  0  0  0  0  0  0
  156.4013  139.3234  163.1296 H   0  0  0  0  0  0  0  0  0  0  0  0
  155.0516  139.4644  164.2126 H   0  0  0  0  0  0  0  0  0  0  0  0
  153.9702  142.1851  163.8766 H   0  0  0  0  0  0  0  0  0  0  0  0
  152.6863  143.2757  162.0747 H   0  0  0  0  0  0  0  0  0  0  0  0
  151.4673  143.9473  160.3998 H   0  0  0  0  0  0  0  0  0  0  0  0
  153.0666  144.6125  160.0940 H   0  0  0  0  0  0  0  0  0  0  0  0
  151.3356  145.5680  158.5386 H   0  0  0  0  0  0  0  0  0  0  0  0
  152.6154  144.7502  157.6626 H   0  0  0  0  0  0  0  0  0  0  0  0
  150.5838  141.8517  156.9768 H   0  0  0  0  0  0  0  0  0  0  0  0
  152.1695  142.5591  156.7357 H   0  0  0  0  0  0  0  0  0  0  0  0
  152.2876  140.8080  158.4807 H   0  0  0  0  0  0  0  0  0  0  0  0
  150.9975  141.5587  159.3961 H   0  0  0  0  0  0  0  0  0  0  0  0
  155.6578  139.5573  160.8627 H   0  0  0  0  0  0  0  0  0  0  0  0
  1  2  1  0  0  0  0
  1 23  1  0  0  0  0
  1 24  1  0  0  0  0
  1 25  1  0  0  0  0
  2  3  1  0  0  0  0
  2  4  1  0  0  0  0
  2 26  1  0  0  0  0
  3 27  1  0  0  0  0
  3 28  1  0  0  0  0
  3 29  1  0  0  0  0
  4  5  1  0  0  0  0
  4  6  1  0  0  0  0
  5 30  1  0  0  0  0
  5 31  1  0  0  0  0
  5 32  1  0  0  0  0
  6  7  2  0  0  0  0
  6  8  2  0  0  0  0
  6  9  1  0  0  0  0
  9 10  1  0  0  0  0
 10 11  1  0  0  0  0
 10 33  1  0  0  0  0
 10 34  1  0  0  0  0
 11 22  1  0  0  0  0
 11 12  2  0  0  0  0
 12 13  1  0  0  0  0
 12 35  1  0  0  0  0
 13 14  2  0  0  0  0
 13 36  1  0  0  0  0
 14 15  1  0  0  0  0
 14 21  1  0  0  0  0
 15 20  1  0  0  0  0
 15 16  1  0  0  0  0
 16 17  1  0  0  0  0
 16 37  1  0  0  0  0
 16 38  1  0  0  0  0
 17 18  1  0  0  0  0
 17 39  1  0  0  0  0
 17 40  1  0  0  0  0
 18 19  1  0  0  0  0
 19 20  1  0  0  0  0
 19 41  1  0  0  0  0
 19 42  1  0  0  0  0
 20 43  1  0  0  0  0
 20 44  1  0  0  0  0
 21 22  2  0  0  0  0
 22 45  1  0  0  0  0
M  CHG  1   9  -1
M  END
> <s_m_source_file>
AV-unprocessed.smi

> <i_m_source_file_index>
2170

> <i_lp_mmshare_version>
43012

> <i_f3d_flags>
0

> <s_epik_input>
W0NIM11bQ0hdKFtDSDNdKU4oW0NIM10pUyg9TykoPU8pW05IXVtDSDJdYzFbY0hdW2NIXWMobltjSF0xKU4yW0NIMl1bQ0gyXU9bQ0gyXVtDSDJdMg==

> <s_epik_cmdline>
J2VwaWtfcHl0aG9uJywgJy1waCcsICc3LjAnLCAnLXRuJywgJzgnLCAnLW1hJywgJzIwMCcsICctbWV0YWxfYmluZGluZycsICctaW1hZScsICc8aW5maWxlLm1hZT4nLCAnLW9tYWUnLCAnPG91dGZpbGUubWFlPic=

> <r_lp_tautomer_probability>
1

> <r_epik_Ionization_Penalty>
3.3971

> <r_epik_Ionization_Penalty_Charging>
3.31706

> <r_epik_Ionization_Penalty_Neutral>
0.0800436

> <r_epik_State_Penalty>
3.32044

> <r_epik_Charging_Adjusted_Penalty>
6.63751

> <i_epik_Tot_Q>
-1

> <i_epik_Tot_abs_Q>
1

> <r_epik_Metal_State_Penalty>
0.488406

> <b_epik_Metal_Only>
1

> <s_lp_Force_Field>
OPLS_2005

> <r_lp_Energy>
16.8192

> <b_lp_Chiralities_Consistent>
1

> <s_lp_Variant>
AV-unprocessed.smi:2170-2

> <Gold.Version>
5.8.1

> <Gold.Id.Protein>
6NUR|6NUR_protein|mol2

> <Gold.PLP.Fitness>
45.0737

> <Gold.PLP.PLP>
-45.9327

> <Gold.PLP.part.hbond>
-0.3972

> <Gold.PLP.part.metal>
0.0000

> <Gold.PLP.part.buried>
-4.6798

> <Gold.PLP.part.nonpolar>
-40.6116

> <Gold.PLP.part.repulsive>
1.0126

> <Gold.PLP.ligand.clash>
0.0125

> <Gold.PLP.ligand.torsion>
2.4633

> <Gold.PLP.Chemscore.Hbond>
0.0000

> <Gold.PLP.Chemscore.CHOScore>
0.0000

> <Gold.PLP.Chemscore.Metal>
0.0000

> <Gold.PLP.Chemscore.Internal.Correction>
4.0801

> <Gold.Rescore>
     Score         DG    S(hbond)    S(metal)    S(lipo)     H(rot)  DE(clash)    DE(int)     intcor
     12.53     -15.01       0.00        0.00     115.19       1.54       0.15       2.33       ----

> <Gold.Chemscore.Fitness>
12.5270

> <Gold.Chemscore.DG>
-15.0110

> <Gold.Chemscore.ZeroCoef>
-5.4800

> <Gold.Chemscore.Hbond>
0.0000

> <Gold.Chemscore.Metal>
0.0000

> <Gold.Chemscore.Lipo>
115.1896

> <Gold.Chemscore.Internal_Hbond>
0.0000

> <Gold.Chemscore.DEClash>
0.1541

> <Gold.Chemscore.DEInternal>
2.3298

> <Gold.Chemscore.Rot>
1.5415

> <Gold.Chemscore.Internal.Correction>
   9.000000E+99

> <Gold.Chemscore.Hbond.Weighted>
-0.0000

> <Gold.Chemscore.Metal.Weighted>
-0.0000

> <Gold.Chemscore.Lipo.Weighted>
-13.4772

> <Gold.Chemscore.Internal_Hbond.Weighted>
0.0000

> <Gold.Chemscore.DEClash.Weighted>
0.1541

> <Gold.Chemscore.DEInternal.Weighted>
2.3298

> <Gold.Chemscore.Rot.Weighted>
3.9462

> <Gold.Chemscore.Internal.Correction.Weighted>
   9.000000E+99

> <Gold.Protein.RotatedTorsions>
[ 6907 6896 6895 6894 ] final -130.75 input  -60.11 | X-H torsion
[ 7974 7965 7964 7962 ] final -171.54 input  175.53 | X-H torsion
[ 8008 7997 7996 7995 ] final  -73.25 input   59.86 | X-H torsion
[ 10167 10162 10161 10158 ] final  161.36 input  -65.29 | X-H torsion
[ 10718 10713 10712 10709 ] final   24.94 input   66.30 | X-H torsion
[ 10763 10752 10751 10750 ] final -123.51 input  -60.55 | X-H torsion
[ 11005 11000 10999 10996 ] final  -90.71 input  -57.11 | X-H torsion

> <Gold.Protein.ActiveResidues>
 VAL166  LYS551  ARG553  GLY616  TRP617  ASP618  TYR619  PRO620  LYS621  CYS622 
 ASP623  PHE694  ASN695  SER759  ASP760  ASP761  ALA762  ILE779  LEU786  VAL792 
 PHE793  MET794  SER795  GLU796  ALA797  LYS798  CYS799  TRP800  GLU811  SER814 

> <Gold.Protein.RotatedAtoms>
  150.9432  133.6633  159.2786 H   0  0  0  0  0  0  0  0  0  0  0  0  # atno 6907 bound_to 6896
  151.4014  135.0970  159.9567 H   0  0  0  0  0  0  0  0  0  0  0  0  # atno 6908 bound_to 6896
  152.5078  133.8925  159.7456 H   0  0  0  0  0  0  0  0  0  0  0  0  # atno 6909 bound_to 6896
  144.7156  140.1907  143.6349 H   0  0  0  0  0  0  0  0  0  0  0  0  # atno 7974 bound_to 7965
  154.5232  140.0782  156.8210 H   0  0  0  0  0  0  0  0  0  0  0  0  # atno 8008 bound_to 7997
  155.3532  140.3414  155.4221 H   0  0  0  0  0  0  0  0  0  0  0  0  # atno 8009 bound_to 7997
  156.1703  140.1617  156.8445 H   0  0  0  0  0  0  0  0  0  0  0  0  # atno 8010 bound_to 7997
  139.4848  144.4544  151.8788 H   0  0  0  0  0  0  0  0  0  0  0  0  # atno 10167 bound_to 10162
  157.1866  130.6827  149.6133 H   0  0  0  0  0  0  0  0  0  0  0  0  # atno 10718 bound_to 10713
  154.8709  135.4096  154.2955 H   0  0  0  0  0  0  0  0  0  0  0  0  # atno 10763 bound_to 10752
  153.3824  135.7012  153.6561 H   0  0  0  0  0  0  0  0  0  0  0  0  # atno 10764 bound_to 10752
  153.5378  135.3654  155.2676 H   0  0  0  0  0  0  0  0  0  0  0  0  # atno 10765 bound_to 10752
  141.1560  133.7709  156.9776 H   0  0  0  0  0  0  0  0  0  0  0  0  # atno 11005 bound_to 11000
  145.8771  139.2303  143.1627 LP  0  0  0  0  0  0  0  0  0  0  0  0  # atno 17320 bound_to 7965
  146.0030  140.8503  143.0009 LP  0  0  0  0  0  0  0  0  0  0  0  0  # atno 17321 bound_to 7965
  140.4002  144.2503  150.5893 LP  0  0  0  0  0  0  0  0  0  0  0  0  # atno 17342 bound_to 10162
  140.5064  143.2303  151.8601 LP  0  0  0  0  0  0  0  0  0  0  0  0  # atno 17343 bound_to 10162
  155.9717  130.4629  150.6162 LP  0  0  0  0  0  0  0  0  0  0  0  0  # atno 17370 bound_to 10713
  157.3902  131.0794  151.1401 LP  0  0  0  0  0  0  0  0  0  0  0  0  # atno 17371 bound_to 10713
  140.1087  134.9490  157.2033 LP  0  0  0  0  0  0  0  0  0  0  0  0  # atno 17394 bound_to 11000
  140.3222  134.2904  155.7244 LP  0  0  0  0  0  0  0  0  0  0  0  0  # atno 17395 bound_to 11000

$$$$
