AV-unprocessed.smi:79|AV-procd|sdf|778|dock4
  -GOLD-   2262017133D 1   1.00000     0.00000
 Structure written by MMmdl.
 56 59  0  0  0  0  0  0  0  0  2 V2000
  143.6073  136.8455  155.6327 C   0  0  0  0  0  0  0  0  0  0  0  0
  144.1870  138.0380  154.8613 C   0  0  1  0  0  0  0  0  0  0  0  0
  143.1131  138.8521  154.4351 O   0  0  0  0  0  0  0  0  0  0  0  0
  145.1451  138.8791  155.7271 C   0  0  0  0  0  0  0  0  0  0  0  0
  146.2479  139.4768  154.9322 N   0  3  2  0  0  0  0  0  0  0  0  0
  147.3481  138.5215  154.6352 C   0  0  0  0  0  0  0  0  0  0  0  0
  148.4083  139.1644  153.7252 C   0  0  0  0  0  0  0  0  0  0  0  0
  148.8864  140.4202  154.2990 N   0  0  0  0  0  0  0  0  0  0  0  0
  149.9827  140.3098  155.0938 C   0  0  0  0  0  0  0  0  0  0  0  0
  151.0702  139.6160  154.6639 N   0  0  0  0  0  0  0  0  0  0  0  0
  152.1568  139.5189  155.4349 C   0  0  0  0  0  0  0  0  0  0  0  0
  152.3642  140.0268  156.6508 N   0  0  0  0  0  0  0  0  0  0  0  0
  151.2737  140.7152  157.0943 C   0  0  0  0  0  0  0  0  0  0  0  0
  150.0556  140.9071  156.3837 C   0  0  0  0  0  0  0  0  0  0  0  0
  149.1751  141.6609  157.1494 N   0  0  0  0  0  0  0  0  0  0  0  0
  149.8368  141.9058  158.2471 C   0  0  0  0  0  0  0  0  0  0  0  0
  151.1002  141.3614  158.3071 N   0  0  0  0  0  0  0  0  0  0  0  0
  152.0475  141.4748  159.4073 C   0  0  0  0  0  0  0  0  0  0  0  0
  152.5489  142.9118  159.6704 C   0  0  0  0  0  0  0  0  0  0  0  0
  153.4627  142.9485  160.9069 C   0  0  0  0  0  0  0  0  0  0  0  0
  152.8490  142.3233  162.0153 O   0  0  0  0  0  0  0  0  0  0  0  0
  153.0866  143.6438  158.4331 C   0  0  0  0  0  0  0  0  0  0  0  0
  151.9273  144.4989  158.3492 O   0  0  0  0  0  0  0  0  0  0  0  0
  151.4739  144.0083  159.6281 C   0  0  0  0  0  0  0  0  0  0  0  0
  147.8458  141.3938  154.6467 C   0  0  1  0  0  0  0  0  0  0  0  0
  147.2475  142.0455  153.3879 C   0  0  0  0  0  0  0  0  0  0  0  0
  146.7552  140.7413  155.5270 C   0  0  0  0  0  0  0  0  0  0  0  0
  144.3991  136.1740  155.9663 H   0  0  0  0  0  0  0  0  0  0  0  0
  142.9281  136.2650  155.0072 H   0  0  0  0  0  0  0  0  0  0  0  0
  143.0538  137.1698  156.5147 H   0  0  0  0  0  0  0  0  0  0  0  0
  144.6982  137.6579  153.9776 H   0  0  0  0  0  0  0  0  0  0  0  0
  143.3379  139.2418  153.6037 H   0  0  0  0  0  0  0  0  0  0  0  0
  144.5689  139.6679  156.2138 H   0  0  0  0  0  0  0  0  0  0  0  0
  145.5686  138.2751  156.5311 H   0  0  0  0  0  0  0  0  0  0  0  0
  147.8090  138.1990  155.5704 H   0  0  0  0  0  0  0  0  0  0  0  0
  146.9609  137.6267  154.1504 H   0  0  0  0  0  0  0  0  0  0  0  0
  149.2227  138.4583  153.5644 H   0  0  0  0  0  0  0  0  0  0  0  0
  147.9852  139.3645  152.7407 H   0  0  0  0  0  0  0  0  0  0  0  0
  152.9777  138.9532  155.0190 H   0  0  0  0  0  0  0  0  0  0  0  0
  149.4148  142.4966  159.0469 H   0  0  0  0  0  0  0  0  0  0  0  0
  151.5866  141.0564  160.3027 H   0  0  0  0  0  0  0  0  0  0  0  0
  152.8893  140.8180  159.1834 H   0  0  0  0  0  0  0  0  0  0  0  0
  154.3986  142.4250  160.7095 H   0  0  0  0  0  0  0  0  0  0  0  0
  153.7401  143.9677  161.1753 H   0  0  0  0  0  0  0  0  0  0  0  0
  151.9169  142.4715  161.9662 H   0  0  0  0  0  0  0  0  0  0  0  0
  153.9985  144.2142  158.6156 H   0  0  0  0  0  0  0  0  0  0  0  0
  153.1979  143.0065  157.5552 H   0  0  0  0  0  0  0  0  0  0  0  0
  150.4499  143.6402  159.5842 H   0  0  0  0  0  0  0  0  0  0  0  0
  151.5775  144.7621  160.4101 H   0  0  0  0  0  0  0  0  0  0  0  0
  148.2986  142.2069  155.2161 H   0  0  0  0  0  0  0  0  0  0  0  0
  146.5346  142.8260  153.6549 H   0  0  0  0  0  0  0  0  0  0  0  0
  146.7237  141.3240  152.7605 H   0  0  0  0  0  0  0  0  0  0  0  0
  148.0264  142.5090  152.7816 H   0  0  0  0  0  0  0  0  0  0  0  0
  145.9326  141.4429  155.6719 H   0  0  0  0  0  0  0  0  0  0  0  0
  147.1542  140.5247  156.5188 H   0  0  0  0  0  0  0  0  0  0  0  0
  145.8419  139.7355  154.0440 H   0  0  0  0  0  0  0  0  0  0  0  0
  1  2  1  0  0  0  0
  1 28  1  0  0  0  0
  1 29  1  0  0  0  0
  1 30  1  0  0  0  0
  2  3  1  0  0  0  0
  2  4  1  0  0  0  0
  2 31  1  0  0  0  0
  3 32  1  0  0  0  0
  4  5  1  0  0  0  0
  4 33  1  0  0  0  0
  4 34  1  0  0  0  0
  5 27  1  0  0  0  0
  5  6  1  0  0  0  0
  5 56  1  0  0  0  0
  6  7  1  0  0  0  0
  6 35  1  0  0  0  0
  6 36  1  0  0  0  0
  7  8  1  0  0  0  0
  7 37  1  0  0  0  0
  7 38  1  0  0  0  0
  8  9  1  0  0  0  0
  8 25  1  0  0  0  0
  9 14  1  0  0  0  0
  9 10  2  0  0  0  0
 10 11  1  0  0  0  0
 11 12  2  0  0  0  0
 11 39  1  0  0  0  0
 12 13  1  0  0  0  0
 13 17  1  0  0  0  0
 13 14  2  0  0  0  0
 14 15  1  0  0  0  0
 15 16  2  0  0  0  0
 16 17  1  0  0  0  0
 16 40  1  0  0  0  0
 17 18  1  0  0  0  0
 18 19  1  0  0  0  0
 18 41  1  0  0  0  0
 18 42  1  0  0  0  0
 19 24  1  0  0  0  0
 19 20  1  0  0  0  0
 19 22  1  0  0  0  0
 20 21  1  0  0  0  0
 20 43  1  0  0  0  0
 20 44  1  0  0  0  0
 21 45  1  0  0  0  0
 22 23  1  0  0  0  0
 22 46  1  0  0  0  0
 22 47  1  0  0  0  0
 23 24  1  0  0  0  0
 24 48  1  0  0  0  0
 24 49  1  0  0  0  0
 25 26  1  0  0  0  0
 25 27  1  0  0  0  0
 25 50  1  0  0  0  0
 26 51  1  0  0  0  0
 26 52  1  0  0  0  0
 26 53  1  0  0  0  0
 27 54  1  0  0  0  0
 27 55  1  0  0  0  0
M  CHG  1   5   1
M  END
> <s_m_source_file>
AV-unprocessed.smi

> <i_m_source_file_index>
79

> <i_lp_mmshare_version>
43012

> <i_f3d_flags>
0

> <s_epik_input>
W0NIM11bQ0BIXShbT0hdKVtDSDJdTjFbQ0gyXVtDSDJdTihbQ0BASF0oW0NIM10pW0NIMl0xKWMobltjSF1uMiljKGMyMyluW2NIXW4zW0NIMl1DNChbQ0gyXVtPSF0pW0NIMl1PW0NIMl00

> <s_epik_cmdline>
J2VwaWtfcHl0aG9uJywgJy1waCcsICc3LjAnLCAnLXRuJywgJzgnLCAnLW1hJywgJzIwMCcsICctbWV0YWxfYmluZGluZycsICctaW1hZScsICc8aW5maWxlLm1hZT4nLCAnLW9tYWUnLCAnPG91dGZpbGUubWFlPic=

> <r_lp_tautomer_probability>
1

> <r_epik_Ionization_Penalty>
0.00515943

> <r_epik_Ionization_Penalty_Charging>
0.00509693

> <r_epik_Ionization_Penalty_Neutral>
6.25007e-05

> <r_epik_State_Penalty>
-0

> <r_epik_Charging_Adjusted_Penalty>
0.00509693

> <i_epik_Tot_Q>
1

> <i_epik_Tot_abs_Q>
1

> <r_epik_Metal_State_Penalty>
-0

> <b_epik_Metal_Only>
0

> <s_lp_Force_Field>
OPLS_2005

> <r_lp_Energy>
48.7837

> <b_lp_Chiralities_Consistent>
1

> <s_lp_Variant>
AV-unprocessed.smi:79-2

> <Gold.Version>
5.8.1

> <Gold.Id.Protein>
6NUR|6NUR_protein|mol2

> <Gold.PLP.Fitness>
45.0480

> <Gold.PLP.PLP>
-38.3526

> <Gold.PLP.part.hbond>
-3.0000

> <Gold.PLP.part.metal>
0.0000

> <Gold.PLP.part.buried>
-6.3307

> <Gold.PLP.part.nonpolar>
-29.2882

> <Gold.PLP.part.repulsive>
0.3972

> <Gold.PLP.ligand.clash>
0.0000

> <Gold.PLP.ligand.torsion>
1.1988

> <Gold.PLP.Chemscore.Hbond>
2.7178

> <Gold.PLP.Chemscore.CHOScore>
0.0000

> <Gold.PLP.Chemscore.Metal>
0.0000

> <Gold.Chemscore.Hbonds>
donor molecule, donor type, donor heavy atom, donor atom, acceptor molecule, acceptor atom, score
      L1  H     3    32       P1 10175  1.00
      P1  H  7989  7998       L1    10  0.80
      P1  H  7997  8010       L1    12  0.92

> <Gold.PLP.Chemscore.Internal.Correction>
0.9395

> <Gold.Rescore>
     Score         DG    S(hbond)    S(metal)    S(lipo)     H(rot)  DE(clash)    DE(int)     intcor
      6.60      -9.97       1.21        0.00      85.19       3.72       0.62       2.75       ----

> <Gold.Chemscore.Fitness>
6.5964

> <Gold.Chemscore.DG>
-9.9694

> <Gold.Chemscore.ZeroCoef>
-5.4800

> <Gold.Chemscore.Hbond>
1.2130

> <Gold.Chemscore.Metal>
0.0000

> <Gold.Chemscore.Lipo>
85.1946

> <Gold.Chemscore.Internal_Hbond>
0.0000

> <Gold.Chemscore.DEClash>
0.6212

> <Gold.Chemscore.DEInternal>
2.7518

> <Gold.Chemscore.Rot>
3.7226

> <Gold.Chemscore.Internal.Correction>
   9.000000E+99

> <Gold.Chemscore.Hbonds>
donor molecule, donor type, donor heavy atom, donor atom, acceptor molecule, acceptor atom, score
      L1  H     3    32       P1 10175  0.99
      P1  H  7989  7998       L1    10  0.03
      P1  H  7997  8010       L1    12  0.29

> <Gold.Chemscore.Hbond.Weighted>
-4.0514

> <Gold.Chemscore.Metal.Weighted>
-0.0000

> <Gold.Chemscore.Lipo.Weighted>
-9.9678

> <Gold.Chemscore.Internal_Hbond.Weighted>
0.0000

> <Gold.Chemscore.DEClash.Weighted>
0.6212

> <Gold.Chemscore.DEInternal.Weighted>
2.7518

> <Gold.Chemscore.Rot.Weighted>
9.5298

> <Gold.Chemscore.Internal.Correction.Weighted>
   9.000000E+99

> <Gold.Protein.RotatedTorsions>
[ 6907 6896 6895 6894 ] final  110.72 input  -60.11 | X-H torsion
[ 7974 7965 7964 7962 ] final -148.63 input  175.53 | X-H torsion
[ 8008 7997 7996 7995 ] final   53.04 input   59.86 | X-H torsion
[ 10167 10162 10161 10158 ] final  -35.20 input  -65.29 | X-H torsion
[ 10718 10713 10712 10709 ] final  -47.13 input   66.30 | X-H torsion
[ 10763 10752 10751 10750 ] final -100.75 input  -60.55 | X-H torsion
[ 11005 11000 10999 10996 ] final   -1.07 input  -57.11 | X-H torsion

> <Gold.Protein.ActiveResidues>
 VAL166  LYS551  ARG553  GLY616  TRP617  ASP618  TYR619  PRO620  LYS621  CYS622 
 ASP623  PHE694  ASN695  SER759  ASP760  ASP761  ALA762  ILE779  LEU786  VAL792 
 PHE793  MET794  SER795  GLU796  ALA797  LYS798  CYS799  TRP800  GLU811  SER814 

> <Gold.Protein.RotatedAtoms>
  152.5005  133.8760  159.7321 H   0  0  0  0  0  0  0  0  0  0  0  0  # atno 6907 bound_to 6896
  150.9234  133.6844  159.2833 H   0  0  0  0  0  0  0  0  0  0  0  0  # atno 6908 bound_to 6896
  151.4213  135.1002  159.9667 H   0  0  0  0  0  0  0  0  0  0  0  0  # atno 6909 bound_to 6896
  144.8017  140.5171  143.5702 H   0  0  0  0  0  0  0  0  0  0  0  0  # atno 7974 bound_to 7965
  155.4617  140.3462  155.4313 H   0  0  0  0  0  0  0  0  0  0  0  0  # atno 8008 bound_to 7997
  156.1156  140.1473  156.9306 H   0  0  0  0  0  0  0  0  0  0  0  0  # atno 8009 bound_to 7997
  154.4787  140.0877  156.7303 H   0  0  0  0  0  0  0  0  0  0  0  0  # atno 8010 bound_to 7997
  140.7170  143.3494  151.2187 H   0  0  0  0  0  0  0  0  0  0  0  0  # atno 10167 bound_to 10162
  156.2114  130.4161  149.9109 H   0  0  0  0  0  0  0  0  0  0  0  0  # atno 10718 bound_to 10713
  154.7604  135.4923  153.9453 H   0  0  0  0  0  0  0  0  0  0  0  0  # atno 10763 bound_to 10752
  153.1245  135.6739  153.9288 H   0  0  0  0  0  0  0  0  0  0  0  0  # atno 10764 bound_to 10752
  153.9011  135.3110  155.3427 H   0  0  0  0  0  0  0  0  0  0  0  0  # atno 10765 bound_to 10752
  140.6433  133.9470  155.8338 H   0  0  0  0  0  0  0  0  0  0  0  0  # atno 11005 bound_to 11000
  145.5536  139.1477  143.3380 LP  0  0  0  0  0  0  0  0  0  0  0  0  # atno 17320 bound_to 7965
  146.2300  140.5674  142.8979 LP  0  0  0  0  0  0  0  0  0  0  0  0  # atno 17321 bound_to 7965
  139.7021  143.9515  152.2910 LP  0  0  0  0  0  0  0  0  0  0  0  0  # atno 17342 bound_to 10162
  139.9212  144.6798  150.8460 LP  0  0  0  0  0  0  0  0  0  0  0  0  # atno 17343 bound_to 10162
  156.6786  130.8849  151.3572 LP  0  0  0  0  0  0  0  0  0  0  0  0  # atno 17370 bound_to 10713
  157.7040  130.9365  150.0874 LP  0  0  0  0  0  0  0  0  0  0  0  0  # atno 17371 bound_to 10713
  141.0591  134.0373  157.3683 LP  0  0  0  0  0  0  0  0  0  0  0  0  # atno 17394 bound_to 11000
  139.9072  135.0182  156.7537 LP  0  0  0  0  0  0  0  0  0  0  0  0  # atno 17395 bound_to 11000

$$$$
