AV-unprocessed.smi:1568|AV-procd|sdf|6310|dock1
  -GOLD-   22720 6513D 1   1.00000     0.00000
 Structure written by MMmdl.
 43 44  0  0  0  0  0  0  0  0  1 V2000
  152.2999  144.3541  158.7795 C   0  0  0  0  0  0  0  0  0  0  0  0
  151.5072  144.1587  157.6213 O   0  0  0  0  0  0  0  0  0  0  0  0
  151.3686  142.7878  157.2902 C   0  0  0  0  0  0  0  0  0  0  0  0
  150.6259  142.0662  158.4175 C   0  0  0  0  0  0  0  0  0  0  0  0
  151.1188  140.7332  158.4928 O   0  0  0  0  0  0  0  0  0  0  0  0
  152.1450  140.4479  159.3721 C   0  0  0  0  0  0  0  0  0  0  0  0
  152.8042  141.4832  159.9513 N   0  0  0  0  0  0  0  0  0  0  0  0
  153.7822  141.2078  160.8394 C   0  0  0  0  0  0  0  0  0  0  0  0
  154.1497  139.8980  161.2013 C   0  0  0  0  0  0  0  0  0  0  0  0
  153.4695  138.8228  160.5998 C   0  0  0  0  0  0  0  0  0  0  0  0
  152.4590  139.0957  159.6545 C   0  0  0  0  0  0  0  0  0  0  0  0
  151.7142  137.9655  159.0062 C   0  0  0  0  0  0  0  0  0  0  0  0
  151.0856  137.1893  159.7260 O   0  0  0  0  0  0  0  0  0  0  0  0
  151.7521  137.8657  157.6535 N   0  0  0  0  0  0  0  0  0  0  0  0
  150.9155  136.9099  156.9164 C   0  0  0  0  0  0  0  0  0  0  0  0
  150.0224  137.6772  155.9258 C   0  0  0  0  0  0  0  0  0  0  0  0
  150.8740  138.5211  154.9526 C   0  0  0  0  0  0  0  0  0  0  0  0
  149.9869  139.3544  154.0181 C   0  0  0  0  0  0  0  0  0  0  0  0
  149.1716  138.6866  153.1983 N   0  0  0  0  0  0  0  0  0  0  0  0
  150.0323  140.5831  154.0350 O   0  0  0  0  0  0  0  0  0  0  0  0
  151.8555  139.4186  155.7371 C   0  0  0  0  0  0  0  0  0  0  0  0
  152.6636  138.6024  156.7626 C   0  0  0  0  0  0  0  0  0  0  0  0
  152.3776  145.4195  158.9955 H   0  0  0  0  0  0  0  0  0  0  0  0
  153.3088  143.9652  158.6366 H   0  0  0  0  0  0  0  0  0  0  0  0
  151.8566  143.8652  159.6484 H   0  0  0  0  0  0  0  0  0  0  0  0
  150.8188  142.6818  156.3537 H   0  0  0  0  0  0  0  0  0  0  0  0
  152.3517  142.3391  157.1470 H   0  0  0  0  0  0  0  0  0  0  0  0
  150.7915  142.5866  159.3623 H   0  0  0  0  0  0  0  0  0  0  0  0
  149.5543  142.0656  158.2114 H   0  0  0  0  0  0  0  0  0  0  0  0
  154.2832  142.0574  161.2793 H   0  0  0  0  0  0  0  0  0  0  0  0
  154.9342  139.7229  161.9224 H   0  0  0  0  0  0  0  0  0  0  0  0
  153.7284  137.8055  160.8555 H   0  0  0  0  0  0  0  0  0  0  0  0
  151.5560  136.2066  156.3824 H   0  0  0  0  0  0  0  0  0  0  0  0
  150.2851  136.3059  157.5703 H   0  0  0  0  0  0  0  0  0  0  0  0
  149.4035  136.9729  155.3684 H   0  0  0  0  0  0  0  0  0  0  0  0
  149.3370  138.3174  156.4845 H   0  0  0  0  0  0  0  0  0  0  0  0
  151.4637  137.8321  154.3452 H   0  0  0  0  0  0  0  0  0  0  0  0
  148.5681  139.1908  152.5651 H   0  0  0  0  0  0  0  0  0  0  0  0
  149.1617  137.6770  153.2156 H   0  0  0  0  0  0  0  0  0  0  0  0
  152.5387  139.9161  155.0475 H   0  0  0  0  0  0  0  0  0  0  0  0
  151.3141  140.2108  156.2521 H   0  0  0  0  0  0  0  0  0  0  0  0
  153.3540  139.2596  157.2894 H   0  0  0  0  0  0  0  0  0  0  0  0
  153.2945  137.8814  156.2409 H   0  0  0  0  0  0  0  0  0  0  0  0
  1  2  1  0  0  0  0
  1 23  1  0  0  0  0
  1 24  1  0  0  0  0
  1 25  1  0  0  0  0
  2  3  1  0  0  0  0
  3  4  1  0  0  0  0
  3 26  1  0  0  0  0
  3 27  1  0  0  0  0
  4  5  1  0  0  0  0
  4 28  1  0  0  0  0
  4 29  1  0  0  0  0
  5  6  1  0  0  0  0
  6 11  1  0  0  0  0
  6  7  2  0  0  0  0
  7  8  1  0  0  0  0
  8  9  2  0  0  0  0
  8 30  1  0  0  0  0
  9 10  1  0  0  0  0
  9 31  1  0  0  0  0
 10 11  2  0  0  0  0
 10 32  1  0  0  0  0
 11 12  1  0  0  0  0
 12 13  2  0  0  0  0
 12 14  1  0  0  0  0
 14 22  1  0  0  0  0
 14 15  1  0  0  0  0
 15 16  1  0  0  0  0
 15 33  1  0  0  0  0
 15 34  1  0  0  0  0
 16 17  1  0  0  0  0
 16 35  1  0  0  0  0
 16 36  1  0  0  0  0
 17 18  1  0  0  0  0
 17 21  1  0  0  0  0
 17 37  1  0  0  0  0
 18 19  1  0  0  0  0
 18 20  2  0  0  0  0
 19 38  1  0  0  0  0
 19 39  1  0  0  0  0
 21 22  1  0  0  0  0
 21 40  1  0  0  0  0
 21 41  1  0  0  0  0
 22 42  1  0  0  0  0
 22 43  1  0  0  0  0
M  END
> <s_m_source_file>
AV-unprocessed.smi

> <i_m_source_file_index>
1568

> <i_lp_mmshare_version>
43012

> <i_f3d_flags>
0

> <s_epik_input>
W0NIM11PW0NIMl1bQ0gyXU9jMW5bY0hdW2NIXVtjSF1jMUMoPU8pTjJbQ0gyXVtDSDJdW0NIXShDKD1PKVtOSDJdKVtDSDJdW0NIMl0y

> <s_epik_cmdline>
J2VwaWtfcHl0aG9uJywgJy1waCcsICc3LjAnLCAnLXRuJywgJzgnLCAnLW1hJywgJzIwMCcsICctbWV0YWxfYmluZGluZycsICctaW1hZScsICc8aW5maWxlLm1hZT4nLCAnLW9tYWUnLCAnPG91dGZpbGUubWFlPic=

> <r_lp_tautomer_probability>
1

> <r_epik_Ionization_Penalty>
2.36279e-06

> <r_epik_Ionization_Penalty_Charging>
0

> <r_epik_Ionization_Penalty_Neutral>
2.36279e-06

> <r_epik_State_Penalty>
-0

> <r_epik_Charging_Adjusted_Penalty>
0

> <i_epik_Tot_Q>
0

> <i_epik_Tot_abs_Q>
0

> <r_epik_Metal_State_Penalty>
-0

> <b_epik_Metal_Only>
0

> <s_lp_Force_Field>
OPLS_2005

> <r_lp_Energy>
28.0257

> <b_lp_Chiralities_Consistent>
1

> <s_lp_Variant>
AV-unprocessed.smi:1568-1

> <Gold.Version>
5.8.1

> <Gold.Id.Protein>
6NUR|6NUR_protein|mol2

> <Gold.PLP.Fitness>
43.2175

> <Gold.PLP.PLP>
-37.5057

> <Gold.PLP.part.hbond>
-4.0000

> <Gold.PLP.part.metal>
0.0000

> <Gold.PLP.part.buried>
-5.9406

> <Gold.PLP.part.nonpolar>
-28.3287

> <Gold.PLP.part.repulsive>
1.0811

> <Gold.PLP.ligand.clash>
0.0000

> <Gold.PLP.ligand.torsion>
1.7808

> <Gold.PLP.Chemscore.Hbond>
2.4022

> <Gold.PLP.Chemscore.CHOScore>
0.0000

> <Gold.PLP.Chemscore.Metal>
0.0000

> <Gold.Chemscore.Hbonds>
donor molecule, donor type, donor heavy atom, donor atom, acceptor molecule, acceptor atom, score
      L1  H    19    38       P1  7957  0.22
      L1  H    19    39       P1  7948  0.70
      P1  H  6896  6909       L1    13  0.88
      P1  H  7989  7998       L1    20  0.70

> <Gold.PLP.Chemscore.Internal.Correction>
2.0667

> <Gold.Rescore>
     Score         DG    S(hbond)    S(metal)    S(lipo)     H(rot)  DE(clash)    DE(int)     intcor
     12.53     -15.31       1.74        0.00      82.82       2.21       0.34       2.44       ----

> <Gold.Chemscore.Fitness>
12.5314

> <Gold.Chemscore.DG>
-15.3081

> <Gold.Chemscore.ZeroCoef>
-5.4800

> <Gold.Chemscore.Hbond>
1.7390

> <Gold.Chemscore.Metal>
0.0000

> <Gold.Chemscore.Lipo>
82.8160

> <Gold.Chemscore.Internal_Hbond>
0.0000

> <Gold.Chemscore.DEClash>
0.3363

> <Gold.Chemscore.DEInternal>
2.4403

> <Gold.Chemscore.Rot>
2.2148

> <Gold.Chemscore.Internal.Correction>
   9.000000E+99

> <Gold.Chemscore.Hbonds>
donor molecule, donor type, donor heavy atom, donor atom, acceptor molecule, acceptor atom, score
      L1  H    19    38       P1  7957  0.22
      L1  H    19    39       P1  7948  0.68
      P1  H  6896  6909       L1    13  0.85
      P1  H  7989  7998       L1    20  0.24
      P1  H  8011  8017       L1    20  0.01

> <Gold.Chemscore.Hbond.Weighted>
-5.8084

> <Gold.Chemscore.Metal.Weighted>
-0.0000

> <Gold.Chemscore.Lipo.Weighted>
-9.6895

> <Gold.Chemscore.Internal_Hbond.Weighted>
0.0000

> <Gold.Chemscore.DEClash.Weighted>
0.3363

> <Gold.Chemscore.DEInternal.Weighted>
2.4403

> <Gold.Chemscore.Rot.Weighted>
5.6698

> <Gold.Chemscore.Internal.Correction.Weighted>
   9.000000E+99

> <Gold.Protein.RotatedTorsions>
[ 6907 6896 6895 6894 ] final  118.02 input  -60.11 | X-H torsion
[ 7974 7965 7964 7962 ] final  -91.56 input  175.53 | X-H torsion
[ 8008 7997 7996 7995 ] final   48.20 input   59.86 | X-H torsion
[ 10167 10162 10161 10158 ] final  -68.03 input  -65.29 | X-H torsion
[ 10718 10713 10712 10709 ] final  179.91 input   66.30 | X-H torsion
[ 10763 10752 10751 10750 ] final  -97.66 input  -60.55 | X-H torsion
[ 11005 11000 10999 10996 ] final  -18.84 input  -57.11 | X-H torsion

> <Gold.Protein.ActiveResidues>
 VAL166  LYS551  ARG553  GLY616  TRP617  ASP618  TYR619  PRO620  LYS621  CYS622 
 ASP623  PHE694  ASN695  SER759  ASP760  ASP761  ALA762  ILE779  LEU786  VAL792 
 PHE793  MET794  SER795  GLU796  ALA797  LYS798  CYS799  TRP800  GLU811  SER814 

> <Gold.Protein.RotatedAtoms>
  152.4572  133.7748  159.6818 H   0  0  0  0  0  0  0  0  0  0  0  0  # atno 6907 bound_to 6896
  150.8503  133.7788  159.3034 H   0  0  0  0  0  0  0  0  0  0  0  0  # atno 6908 bound_to 6896
  151.5385  135.1071  159.9972 H   0  0  0  0  0  0  0  0  0  0  0  0  # atno 6909 bound_to 6896
  145.4114  140.9545  143.2232 H   0  0  0  0  0  0  0  0  0  0  0  0  # atno 7974 bound_to 7965
  155.3817  140.3429  155.4247 H   0  0  0  0  0  0  0  0  0  0  0  0  # atno 8008 bound_to 7997
  156.1607  140.1600  156.8650 H   0  0  0  0  0  0  0  0  0  0  0  0  # atno 8009 bound_to 7997
  154.5137  140.0784  156.8021 H   0  0  0  0  0  0  0  0  0  0  0  0  # atno 8010 bound_to 7997
  140.5538  143.2312  151.6861 H   0  0  0  0  0  0  0  0  0  0  0  0  # atno 10167 bound_to 10162
  156.8688  130.9776  151.3075 H   0  0  0  0  0  0  0  0  0  0  0  0  # atno 10718 bound_to 10713
  154.7347  135.5038  153.9022 H   0  0  0  0  0  0  0  0  0  0  0  0  # atno 10763 bound_to 10752
  153.0984  135.6678  153.9728 H   0  0  0  0  0  0  0  0  0  0  0  0  # atno 10764 bound_to 10752
  153.9521  135.3056  155.3417 H   0  0  0  0  0  0  0  0  0  0  0  0  # atno 10765 bound_to 10752
  140.8307  133.7999  155.9756 H   0  0  0  0  0  0  0  0  0  0  0  0  # atno 11005 bound_to 11000
  144.8306  139.5635  143.6945 LP  0  0  0  0  0  0  0  0  0  0  0  0  # atno 17320 bound_to 7965
  146.2703  139.6618  142.9301 LP  0  0  0  0  0  0  0  0  0  0  0  0  # atno 17321 bound_to 7965
  139.5039  144.3775  152.0409 LP  0  0  0  0  0  0  0  0  0  0  0  0  # atno 17342 bound_to 10162
  140.2894  144.3770  150.6093 LP  0  0  0  0  0  0  0  0  0  0  0  0  # atno 17343 bound_to 10162
  157.6208  130.8653  149.9105 LP  0  0  0  0  0  0  0  0  0  0  0  0  # atno 17370 bound_to 10713
  156.0737  130.3681  150.0721 LP  0  0  0  0  0  0  0  0  0  0  0  0  # atno 17371 bound_to 10713
  140.9000  134.2389  157.5047 LP  0  0  0  0  0  0  0  0  0  0  0  0  # atno 17394 bound_to 11000
  139.8705  134.9702  156.4693 LP  0  0  0  0  0  0  0  0  0  0  0  0  # atno 17395 bound_to 11000

$$$$
