AV-unprocessed.smi:2973|AV-procd|sdf|11338|dock8
  -GOLD-   2272016253D 1   1.00000     0.00000
 Structure written by MMmdl.
 49 51  0  0  0  0  0  0  0  0  1 V2000
  145.0243  134.9722  158.5755 C   0  0  0  0  0  0  0  0  0  0  0  0
  145.4753  135.0656  160.0491 C   0  0  1  0  0  0  0  0  0  0  0  0
  144.9669  133.8377  160.8359 C   0  0  0  0  0  0  0  0  0  0  0  0
  145.3364  133.9125  162.3256 C   0  0  0  0  0  0  0  0  0  0  0  0
  146.8503  134.0783  162.5176 C   0  0  0  0  0  0  0  0  0  0  0  0
  147.3677  135.3086  161.7559 C   0  0  0  0  0  0  0  0  0  0  0  0
  147.0118  135.2508  160.2508 C   0  0  1  0  0  0  0  0  0  0  0  0
  147.7837  134.2217  159.5738 N   0  0  0  0  0  0  0  0  0  0  0  0
  148.6198  134.7169  158.6527 C   0  0  0  0  0  0  0  0  0  0  0  0
  149.3846  134.0502  157.9580 O   0  0  0  0  0  0  0  0  0  0  0  0
  148.4806  136.0553  158.6305 N   0  0  0  0  0  0  0  0  0  0  0  0
  149.2478  136.9546  157.7552 C   0  0  0  0  0  0  0  0  0  0  0  0
  150.4479  137.6496  158.4217 C   0  0  0  0  0  0  0  0  0  0  0  0
  151.1026  137.0317  159.2604 O   0  0  0  0  0  0  0  0  0  0  0  0
  150.7339  138.9140  158.0665 N   0  0  0  0  0  0  0  0  0  0  0  0
  151.8106  139.7236  158.6237 C   0  0  0  0  0  0  0  0  0  0  0  0
  151.9084  141.0889  157.9225 C   0  0  0  0  0  0  0  0  0  0  0  0
  152.0469  142.2354  158.9059 C   0  0  0  0  0  0  0  0  0  0  0  0
  151.8739  143.5710  158.4843 C   0  0  0  0  0  0  0  0  0  0  0  0
  152.0142  144.5989  159.4371 C   0  0  0  0  0  0  0  0  0  0  0  0
  152.3188  144.2531  160.7679 C   0  0  0  0  0  0  0  0  0  0  0  0
  152.4672  142.8891  161.0886 C   0  0  0  0  0  0  0  0  0  0  0  0
  152.3347  141.8958  160.1830 N   0  0  0  0  0  0  0  0  0  0  0  0
  147.5718  136.4680  159.5250 C   0  0  0  0  0  0  0  0  0  0  0  0
  147.2266  137.6274  159.7538 O   0  0  0  0  0  0  0  0  0  0  0  0
  145.4635  134.1099  158.0733 H   0  0  0  0  0  0  0  0  0  0  0  0
  145.2963  135.8627  158.0087 H   0  0  0  0  0  0  0  0  0  0  0  0
  143.9410  134.8707  158.5076 H   0  0  0  0  0  0  0  0  0  0  0  0
  144.9819  135.9419  160.4733 H   0  0  0  0  0  0  0  0  0  0  0  0
  143.8835  133.7571  160.7394 H   0  0  0  0  0  0  0  0  0  0  0  0
  145.3794  132.9243  160.4054 H   0  0  0  0  0  0  0  0  0  0  0  0
  144.8148  134.7501  162.7901 H   0  0  0  0  0  0  0  0  0  0  0  0
  144.9939  133.0130  162.8378 H   0  0  0  0  0  0  0  0  0  0  0  0
  147.0807  134.1753  163.5789 H   0  0  0  0  0  0  0  0  0  0  0  0
  147.3663  133.1820  162.1713 H   0  0  0  0  0  0  0  0  0  0  0  0
  146.9338  136.2051  162.2020 H   0  0  0  0  0  0  0  0  0  0  0  0
  148.4471  135.3950  161.8934 H   0  0  0  0  0  0  0  0  0  0  0  0
  147.6941  133.2400  159.7922 H   0  0  0  0  0  0  0  0  0  0  0  0
  149.6142  136.3974  156.8914 H   0  0  0  0  0  0  0  0  0  0  0  0
  148.5914  137.7244  157.3459 H   0  0  0  0  0  0  0  0  0  0  0  0
  150.1513  139.3516  157.3676 H   0  0  0  0  0  0  0  0  0  0  0  0
  151.6674  139.8526  159.6980 H   0  0  0  0  0  0  0  0  0  0  0  0
  152.7426  139.1719  158.4973 H   0  0  0  0  0  0  0  0  0  0  0  0
  152.7635  141.1003  157.2452 H   0  0  0  0  0  0  0  0  0  0  0  0
  151.0270  141.2594  157.3027 H   0  0  0  0  0  0  0  0  0  0  0  0
  151.6394  143.8037  157.4558 H   0  0  0  0  0  0  0  0  0  0  0  0
  151.8909  145.6333  159.1523 H   0  0  0  0  0  0  0  0  0  0  0  0
  152.4351  145.0146  161.5248 H   0  0  0  0  0  0  0  0  0  0  0  0
  152.6999  142.5878  162.0992 H   0  0  0  0  0  0  0  0  0  0  0  0
  1  2  1  0  0  0  0
  1 26  1  0  0  0  0
  1 27  1  0  0  0  0
  1 28  1  0  0  0  0
  2  7  1  0  0  0  0
  2  3  1  0  0  0  0
  2 29  1  0  0  0  0
  3  4  1  0  0  0  0
  3 30  1  0  0  0  0
  3 31  1  0  0  0  0
  4  5  1  0  0  0  0
  4 32  1  0  0  0  0
  4 33  1  0  0  0  0
  5  6  1  0  0  0  0
  5 34  1  0  0  0  0
  5 35  1  0  0  0  0
  6  7  1  0  0  0  0
  6 36  1  0  0  0  0
  6 37  1  0  0  0  0
  7 24  1  0  0  0  0
  7  8  1  0  0  0  0
  8  9  1  0  0  0  0
  8 38  1  0  0  0  0
  9 10  2  0  0  0  0
  9 11  1  0  0  0  0
 11 12  1  0  0  0  0
 11 24  1  0  0  0  0
 12 13  1  0  0  0  0
 12 39  1  0  0  0  0
 12 40  1  0  0  0  0
 13 14  2  0  0  0  0
 13 15  1  0  0  0  0
 15 16  1  0  0  0  0
 15 41  1  0  0  0  0
 16 17  1  0  0  0  0
 16 42  1  0  0  0  0
 16 43  1  0  0  0  0
 17 18  1  0  0  0  0
 17 44  1  0  0  0  0
 17 45  1  0  0  0  0
 18 23  1  0  0  0  0
 18 19  2  0  0  0  0
 19 20  1  0  0  0  0
 19 46  1  0  0  0  0
 20 21  2  0  0  0  0
 20 47  1  0  0  0  0
 21 22  1  0  0  0  0
 21 48  1  0  0  0  0
 22 23  2  0  0  0  0
 22 49  1  0  0  0  0
 24 25  2  0  0  0  0
M  END
> <s_m_source_file>
AV-unprocessed.smi

> <i_m_source_file_index>
2973

> <i_lp_mmshare_version>
43012

> <i_f3d_flags>
0

> <s_epik_input>
W0NIMl0xW0NIMl1bQ0gyXVtDSDJdW0NAQEhdKFtDSDNdKVtDQF0xMltOSF1DKD1PKU4oQzI9TylbQ0gyXUMoPU8pW05IXVtDSDJdW0NIMl1jM1tjSF1bY0hdW2NIXVtjSF1uMw==

> <s_epik_cmdline>
J2VwaWtfcHl0aG9uJywgJy1waCcsICc3LjAnLCAnLXRuJywgJzgnLCAnLW1hJywgJzIwMCcsICctbWV0YWxfYmluZGluZycsICctaW1hZScsICc8aW5maWxlLm1hZT4nLCAnLW9tYWUnLCAnPG91dGZpbGUubWFlPic=

> <r_lp_tautomer_probability>
1

> <r_epik_Ionization_Penalty>
0.0245152

> <r_epik_Ionization_Penalty_Charging>
0

> <r_epik_Ionization_Penalty_Neutral>
0.0245152

> <r_epik_State_Penalty>
0.0198648

> <r_epik_Charging_Adjusted_Penalty>
0.0198648

> <i_epik_Tot_Q>
0

> <i_epik_Tot_abs_Q>
0

> <r_epik_Metal_State_Penalty>
0.0400162

> <b_epik_Metal_Only>
0

> <s_lp_Force_Field>
OPLS_2005

> <r_lp_Energy>
22.4148

> <b_lp_Chiralities_Consistent>
1

> <s_lp_Variant>
AV-unprocessed.smi:2973-2

> <Gold.Version>
5.8.1

> <Gold.Id.Protein>
6NUR|6NUR_protein|mol2

> <Gold.PLP.Fitness>
48.3899

> <Gold.PLP.PLP>
-41.8559

> <Gold.PLP.part.hbond>
-3.0000

> <Gold.PLP.part.metal>
0.0000

> <Gold.PLP.part.buried>
-6.1822

> <Gold.PLP.part.nonpolar>
-33.0296

> <Gold.PLP.part.repulsive>
0.1774

> <Gold.PLP.ligand.clash>
0.0000

> <Gold.PLP.ligand.torsion>
1.1010

> <Gold.PLP.Chemscore.Hbond>
2.9033

> <Gold.PLP.Chemscore.CHOScore>
0.0000

> <Gold.PLP.Chemscore.Metal>
0.0000

> <Gold.Chemscore.Hbonds>
donor molecule, donor type, donor heavy atom, donor atom, acceptor molecule, acceptor atom, score
      P1  H  6896  6907       L1    14  1.00
      P1  H  6896  6909       L1    10  0.95
      P1  H  6934  6947       L1    25  0.88

> <Gold.PLP.Chemscore.Internal.Correction>
0.0264

> <Gold.Rescore>
     Score         DG    S(hbond)    S(metal)    S(lipo)     H(rot)  DE(clash)    DE(int)     intcor
     21.18     -22.63       2.67        0.00     111.00       1.86       0.23       1.22       ----

> <Gold.Chemscore.Fitness>
21.1797

> <Gold.Chemscore.DG>
-22.6325

> <Gold.Chemscore.ZeroCoef>
-5.4800

> <Gold.Chemscore.Hbond>
2.6691

> <Gold.Chemscore.Metal>
0.0000

> <Gold.Chemscore.Lipo>
111.0031

> <Gold.Chemscore.Internal_Hbond>
0.0000

> <Gold.Chemscore.DEClash>
0.2332

> <Gold.Chemscore.DEInternal>
1.2196

> <Gold.Chemscore.Rot>
1.8553

> <Gold.Chemscore.Internal.Correction>
   9.000000E+99

> <Gold.Chemscore.Hbonds>
donor molecule, donor type, donor heavy atom, donor atom, acceptor molecule, acceptor atom, score
      P1  H  6896  6907       L1    14  0.92
      P1  H  6896  6909       L1    10  0.20
      P1  H  6934  6947       L1    25  0.87

> <Gold.Chemscore.Hbond.Weighted>
-8.9149

> <Gold.Chemscore.Metal.Weighted>
-0.0000

> <Gold.Chemscore.Lipo.Weighted>
-12.9874

> <Gold.Chemscore.Internal_Hbond.Weighted>
0.0000

> <Gold.Chemscore.DEClash.Weighted>
0.2332

> <Gold.Chemscore.DEInternal.Weighted>
1.2196

> <Gold.Chemscore.Rot.Weighted>
4.7497

> <Gold.Chemscore.Internal.Correction.Weighted>
   9.000000E+99

> <Gold.Protein.RotatedTorsions>
[ 6907 6896 6895 6894 ] final   -3.76 input  -60.11 | X-H torsion
[ 7974 7965 7964 7962 ] final   51.81 input  175.53 | X-H torsion
[ 8008 7997 7996 7995 ] final   92.17 input   59.86 | X-H torsion
[ 10167 10162 10161 10158 ] final  -57.52 input  -65.29 | X-H torsion
[ 10718 10713 10712 10709 ] final  -98.83 input   66.30 | X-H torsion
[ 10763 10752 10751 10750 ] final -175.35 input  -60.55 | X-H torsion
[ 11005 11000 10999 10996 ] final  -72.35 input  -57.11 | X-H torsion

> <Gold.Protein.ActiveResidues>
 VAL166  LYS551  ARG553  GLY616  TRP617  ASP618  TYR619  PRO620  LYS621  CYS622 
 ASP623  PHE694  ASN695  SER759  ASP760  ASP761  ALA762  ILE779  LEU786  VAL792 
 PHE793  MET794  SER795  GLU796  ALA797  LYS798  CYS799  TRP800  GLU811  SER814 

> <Gold.Protein.RotatedAtoms>
  151.5086  135.1064  159.9847 H   0  0  0  0  0  0  0  0  0  0  0  0  # atno 6907 bound_to 6896
  152.4671  133.7943  159.6929 H   0  0  0  0  0  0  0  0  0  0  0  0  # atno 6908 bound_to 6896
  150.8660  133.7510  159.3002 H   0  0  0  0  0  0  0  0  0  0  0  0  # atno 6909 bound_to 6896
  145.9876  139.4306  143.0093 H   0  0  0  0  0  0  0  0  0  0  0  0  # atno 7974 bound_to 7965
  156.0322  140.3329  155.7152 H   0  0  0  0  0  0  0  0  0  0  0  0  # atno 8008 bound_to 7997
  155.5867  140.0642  157.2787 H   0  0  0  0  0  0  0  0  0  0  0  0  # atno 8009 bound_to 7997
  154.4358  140.1834  156.1021 H   0  0  0  0  0  0  0  0  0  0  0  0  # atno 8010 bound_to 7997
  140.6253  143.2436  151.5379 H   0  0  0  0  0  0  0  0  0  0  0  0  # atno 10167 bound_to 10162
  156.0117  130.5255  150.6580 H   0  0  0  0  0  0  0  0  0  0  0  0  # atno 10718 bound_to 10713
  154.5854  135.2840  155.0690 H   0  0  0  0  0  0  0  0  0  0  0  0  # atno 10763 bound_to 10752
  154.2011  135.6424  153.5091 H   0  0  0  0  0  0  0  0  0  0  0  0  # atno 10764 bound_to 10752
  153.0102  135.5469  154.6522 H   0  0  0  0  0  0  0  0  0  0  0  0  # atno 10765 bound_to 10752
  141.1607  133.6844  156.7045 H   0  0  0  0  0  0  0  0  0  0  0  0  # atno 11005 bound_to 11000
  145.7677  140.9909  143.1166 LP  0  0  0  0  0  0  0  0  0  0  0  0  # atno 17320 bound_to 7965
  144.6879  139.9408  143.7475 LP  0  0  0  0  0  0  0  0  0  0  0  0  # atno 17321 bound_to 7965
  139.5474  144.2484  152.1468 LP  0  0  0  0  0  0  0  0  0  0  0  0  # atno 17342 bound_to 10162
  140.1714  144.4932  150.6577 LP  0  0  0  0  0  0  0  0  0  0  0  0  # atno 17343 bound_to 10162
  157.4328  131.0851  151.1021 LP  0  0  0  0  0  0  0  0  0  0  0  0  # atno 17370 bound_to 10713
  157.1589  130.6217  149.5605 LP  0  0  0  0  0  0  0  0  0  0  0  0  # atno 17371 bound_to 10713
  140.2933  134.8223  157.4036 LP  0  0  0  0  0  0  0  0  0  0  0  0  # atno 17394 bound_to 11000
  140.1327  134.5074  155.8093 LP  0  0  0  0  0  0  0  0  0  0  0  0  # atno 17395 bound_to 11000

$$$$
