AV-unprocessed.smi:2928|AV-procd|sdf|11233|dock10
  -GOLD-   2272016123D 1   1.00000     0.00000
 Structure written by MMmdl.
 55 58  0  0  0  0  0  0  0  0  2 V2000
  155.6686  138.1831  165.3563 C   0  0  0  0  0  0  0  0  0  0  0  0
  155.3038  138.2962  163.9239 N   0  3  2  0  0  0  0  0  0  0  0  0
  154.4052  137.2275  163.4232 C   0  0  2  0  0  0  0  0  0  0  0  0
  155.1401  135.8653  163.3415 C   0  0  0  0  0  0  0  0  0  0  0  0
  156.4724  135.9168  162.5695 C   0  0  0  0  0  0  0  0  0  0  0  0
  157.2950  137.1775  162.8968 C   0  0  0  0  0  0  0  0  0  0  0  0
  156.4503  138.4729  162.9997 C   0  0  1  0  0  0  0  0  0  0  0  0
  155.9252  139.0128  161.6492 C   0  0  0  0  0  0  0  0  0  0  0  0
  154.7709  138.1826  161.0304 C   0  0  2  0  0  0  0  0  0  0  0  0
  154.0589  138.9708  160.0267 N   0  0  0  0  0  0  0  0  0  0  0  0
  153.7085  140.2585  160.1587 C   0  0  0  0  0  0  0  0  0  0  0  0
  153.9227  140.9198  161.1745 O   0  0  0  0  0  0  0  0  0  0  0  0
  153.0881  140.7071  159.0549 N   0  0  0  0  0  0  0  0  0  0  0  0
  152.5536  142.0029  158.8026 C   0  0  0  0  0  0  0  0  0  0  0  0
  153.0535  143.1579  159.4533 C   0  0  0  0  0  0  0  0  0  0  0  0
  152.5352  144.4197  159.1147 C   0  0  0  0  0  0  0  0  0  0  0  0
  151.5436  144.4864  158.1222 C   0  0  0  0  0  0  0  0  0  0  0  0
  151.0670  143.3995  157.4834 N   0  0  0  0  0  0  0  0  0  0  0  0
  151.5470  142.1741  157.8093 C   0  0  0  0  0  0  0  0  0  0  0  0
  151.0006  141.0682  157.1192 N   0  0  0  0  0  0  0  0  0  0  0  0
  149.7556  141.2757  156.3849 C   0  0  0  0  0  0  0  0  0  0  0  0
  149.8406  140.4014  155.1284 C   0  0  0  0  0  0  0  0  0  0  0  0
  150.9135  139.3724  155.4718 C   0  0  0  0  0  0  0  0  0  0  0  0
  151.8644  140.1777  156.3518 C   0  0  0  0  0  0  0  0  0  0  0  0
  153.7611  137.6973  162.0982 C   0  0  0  0  0  0  0  0  0  0  0  0
  156.2533  137.2882  165.5663 H   0  0  0  0  0  0  0  0  0  0  0  0
  154.7711  138.1520  165.9748 H   0  0  0  0  0  0  0  0  0  0  0  0
  156.2533  139.0488  165.6687 H   0  0  0  0  0  0  0  0  0  0  0  0
  153.5907  137.1138  164.1401 H   0  0  0  0  0  0  0  0  0  0  0  0
  155.3429  135.5144  164.3537 H   0  0  0  0  0  0  0  0  0  0  0  0
  154.4867  135.1117  162.9007 H   0  0  0  0  0  0  0  0  0  0  0  0
  157.0610  135.0287  162.8017 H   0  0  0  0  0  0  0  0  0  0  0  0
  156.2935  135.8490  161.4998 H   0  0  0  0  0  0  0  0  0  0  0  0
  157.8080  137.0168  163.8453 H   0  0  0  0  0  0  0  0  0  0  0  0
  158.0875  137.3028  162.1582 H   0  0  0  0  0  0  0  0  0  0  0  0
  157.0959  139.2492  163.4132 H   0  0  0  0  0  0  0  0  0  0  0  0
  155.5682  140.0302  161.8193 H   0  0  0  0  0  0  0  0  0  0  0  0
  156.7469  139.1047  160.9378 H   0  0  0  0  0  0  0  0  0  0  0  0
  155.1806  137.3144  160.5198 H   0  0  0  0  0  0  0  0  0  0  0  0
  153.8358  138.5078  159.1577 H   0  0  0  0  0  0  0  0  0  0  0  0
  152.9013  140.0206  158.3387 H   0  0  0  0  0  0  0  0  0  0  0  0
  153.8416  143.1027  160.1884 H   0  0  0  0  0  0  0  0  0  0  0  0
  152.8994  145.3160  159.5947 H   0  0  0  0  0  0  0  0  0  0  0  0
  151.1258  145.4380  157.8284 H   0  0  0  0  0  0  0  0  0  0  0  0
  148.9203  140.9523  157.0061 H   0  0  0  0  0  0  0  0  0  0  0  0
  149.6006  142.3251  156.1293 H   0  0  0  0  0  0  0  0  0  0  0  0
  148.8857  139.9478  154.8621 H   0  0  0  0  0  0  0  0  0  0  0  0
  150.1727  141.0059  154.2832 H   0  0  0  0  0  0  0  0  0  0  0  0
  150.4759  138.5538  156.0448 H   0  0  0  0  0  0  0  0  0  0  0  0
  151.4010  138.9507  154.5925 H   0  0  0  0  0  0  0  0  0  0  0  0
  152.5459  140.7483  155.7196 H   0  0  0  0  0  0  0  0  0  0  0  0
  152.4567  139.5360  157.0046 H   0  0  0  0  0  0  0  0  0  0  0  0
  153.1293  136.9102  161.6849 H   0  0  0  0  0  0  0  0  0  0  0  0
  153.0867  138.5211  162.3388 H   0  0  0  0  0  0  0  0  0  0  0  0
  154.7705  139.1521  163.8641 H   0  0  0  0  0  0  0  0  0  0  0  0
  1  2  1  0  0  0  0
  1 26  1  0  0  0  0
  1 27  1  0  0  0  0
  1 28  1  0  0  0  0
  2  7  1  0  0  0  0
  2  3  1  0  0  0  0
  2 55  1  0  0  0  0
  3 25  1  0  0  0  0
  3  4  1  0  0  0  0
  3 29  1  0  0  0  0
  4  5  1  0  0  0  0
  4 30  1  0  0  0  0
  4 31  1  0  0  0  0
  5  6  1  0  0  0  0
  5 32  1  0  0  0  0
  5 33  1  0  0  0  0
  6  7  1  0  0  0  0
  6 34  1  0  0  0  0
  6 35  1  0  0  0  0
  7  8  1  0  0  0  0
  7 36  1  0  0  0  0
  8  9  1  0  0  0  0
  8 37  1  0  0  0  0
  8 38  1  0  0  0  0
  9 10  1  0  0  0  0
  9 25  1  0  0  0  0
  9 39  1  0  0  0  0
 10 11  1  0  0  0  0
 10 40  1  0  0  0  0
 11 12  2  0  0  0  0
 11 13  1  0  0  0  0
 13 14  1  0  0  0  0
 13 41  1  0  0  0  0
 14 19  1  0  0  0  0
 14 15  2  0  0  0  0
 15 16  1  0  0  0  0
 15 42  1  0  0  0  0
 16 17  2  0  0  0  0
 16 43  1  0  0  0  0
 17 18  1  0  0  0  0
 17 44  1  0  0  0  0
 18 19  2  0  0  0  0
 19 20  1  0  0  0  0
 20 24  1  0  0  0  0
 20 21  1  0  0  0  0
 21 22  1  0  0  0  0
 21 45  1  0  0  0  0
 21 46  1  0  0  0  0
 22 23  1  0  0  0  0
 22 47  1  0  0  0  0
 22 48  1  0  0  0  0
 23 24  1  0  0  0  0
 23 49  1  0  0  0  0
 23 50  1  0  0  0  0
 24 51  1  0  0  0  0
 24 52  1  0  0  0  0
 25 53  1  0  0  0  0
 25 54  1  0  0  0  0
M  CHG  1   2   1
M  END
> <s_m_source_file>
AV-unprocessed.smi

> <i_m_source_file_index>
2928

> <i_lp_mmshare_version>
43012

> <i_f3d_flags>
0

> <s_epik_input>
W0NIMl0xW0NIMl1bQ0gyXVtDQEhdKE4oW0NIM10pW0NIXTEyKVtDSDJdW0NASF0oW0NIMl0yKVtOSF1DKD1PKVtOSF1jM1tjSF1bY0hdW2NIXW5jM040W0NIMl1bQ0gyXVtDSDJdW0NIMl00

> <s_epik_cmdline>
J2VwaWtfcHl0aG9uJywgJy1waCcsICc3LjAnLCAnLXRuJywgJzgnLCAnLW1hJywgJzIwMCcsICctbWV0YWxfYmluZGluZycsICctaW1hZScsICc8aW5maWxlLm1hZT4nLCAnLW9tYWUnLCAnPG91dGZpbGUubWFlPic=

> <r_lp_tautomer_probability>
1

> <r_epik_Ionization_Penalty>
0.07954

> <r_epik_Ionization_Penalty_Charging>
0.00089841

> <r_epik_Ionization_Penalty_Neutral>
0.0786416

> <r_epik_State_Penalty>
0.0689917

> <r_epik_Charging_Adjusted_Penalty>
0.0698901

> <i_epik_Tot_Q>
1

> <i_epik_Tot_abs_Q>
1

> <r_epik_Metal_State_Penalty>
0.0608947

> <b_epik_Metal_Only>
0

> <s_lp_Force_Field>
OPLS_2005

> <r_lp_Energy>
63.7088

> <b_lp_Chiralities_Consistent>
1

> <s_lp_Variant>
AV-unprocessed.smi:2928-3

> <Gold.Version>
5.8.1

> <Gold.Id.Protein>
6NUR|6NUR_protein|mol2

> <Gold.PLP.Fitness>
40.6186

> <Gold.PLP.PLP>
-41.4966

> <Gold.PLP.part.hbond>
0.0000

> <Gold.PLP.part.metal>
0.0000

> <Gold.PLP.part.buried>
-6.1615

> <Gold.PLP.part.nonpolar>
-35.9008

> <Gold.PLP.part.repulsive>
0.4092

> <Gold.PLP.ligand.clash>
0.0000

> <Gold.PLP.ligand.torsion>
0.5872

> <Gold.PLP.Chemscore.Hbond>
0.0000

> <Gold.PLP.Chemscore.CHOScore>
0.0000

> <Gold.PLP.Chemscore.Metal>
0.0000

> <Gold.PLP.Chemscore.Internal.Correction>
0.2965

> <Gold.Rescore>
     Score         DG    S(hbond)    S(metal)    S(lipo)     H(rot)  DE(clash)    DE(int)     intcor
     13.41     -17.27       0.00        0.00     126.57       1.18       0.13       3.73       ----

> <Gold.Chemscore.Fitness>
13.4118

> <Gold.Chemscore.DG>
-17.2743

> <Gold.Chemscore.ZeroCoef>
-5.4800

> <Gold.Chemscore.Hbond>
0.0000

> <Gold.Chemscore.Metal>
0.0000

> <Gold.Chemscore.Lipo>
126.5730

> <Gold.Chemscore.Internal_Hbond>
0.0000

> <Gold.Chemscore.DEClash>
0.1289

> <Gold.Chemscore.DEInternal>
3.7336

> <Gold.Chemscore.Rot>
1.1776

> <Gold.Chemscore.Internal.Correction>
   9.000000E+99

> <Gold.Chemscore.Hbond.Weighted>
-0.0000

> <Gold.Chemscore.Metal.Weighted>
-0.0000

> <Gold.Chemscore.Lipo.Weighted>
-14.8090

> <Gold.Chemscore.Internal_Hbond.Weighted>
0.0000

> <Gold.Chemscore.DEClash.Weighted>
0.1289

> <Gold.Chemscore.DEInternal.Weighted>
3.7336

> <Gold.Chemscore.Rot.Weighted>
3.0147

> <Gold.Chemscore.Internal.Correction.Weighted>
   9.000000E+99

> <Gold.Protein.RotatedTorsions>
[ 6907 6896 6895 6894 ] final   58.56 input  -60.11 | X-H torsion
[ 7974 7965 7964 7962 ] final -121.68 input  175.53 | X-H torsion
[ 8008 7997 7996 7995 ] final   27.90 input   59.86 | X-H torsion
[ 10167 10162 10161 10158 ] final -108.31 input  -65.29 | X-H torsion
[ 10718 10713 10712 10709 ] final   89.91 input   66.30 | X-H torsion
[ 10763 10752 10751 10750 ] final    3.27 input  -60.55 | X-H torsion
[ 11005 11000 10999 10996 ] final -170.35 input  -57.11 | X-H torsion

> <Gold.Protein.ActiveResidues>
 VAL166  LYS551  ARG553  GLY616  TRP617  ASP618  TYR619  PRO620  LYS621  CYS622 
 ASP623  PHE694  ASN695  SER759  ASP760  ASP761  ALA762  ILE779  LEU786  VAL792 
 PHE793  MET794  SER795  GLU796  ALA797  LYS798  CYS799  TRP800  GLU811  SER814 

> <Gold.Protein.RotatedAtoms>
  152.3835  134.6553  160.0133 H   0  0  0  0  0  0  0  0  0  0  0  0  # atno 6907 bound_to 6896
  151.6809  133.3306  159.3227 H   0  0  0  0  0  0  0  0  0  0  0  0  # atno 6908 bound_to 6896
  150.7767  134.6718  159.6440 H   0  0  0  0  0  0  0  0  0  0  0  0  # atno 6909 bound_to 6896
  145.0377  140.8119  143.4285 H   0  0  0  0  0  0  0  0  0  0  0  0  # atno 7974 bound_to 7965
  155.0503  140.3179  155.4694 H   0  0  0  0  0  0  0  0  0  0  0  0  # atno 8008 bound_to 7997
  156.2836  140.2147  156.5572 H   0  0  0  0  0  0  0  0  0  0  0  0  # atno 8009 bound_to 7997
  154.7216  140.0489  157.0632 H   0  0  0  0  0  0  0  0  0  0  0  0  # atno 8010 bound_to 7997
  140.1676  143.4069  152.1379 H   0  0  0  0  0  0  0  0  0  0  0  0  # atno 10167 bound_to 10162
  157.6957  131.0351  150.3497 H   0  0  0  0  0  0  0  0  0  0  0  0  # atno 10718 bound_to 10713
  153.2853  135.6944  153.7345 H   0  0  0  0  0  0  0  0  0  0  0  0  # atno 10763 bound_to 10752
  153.6317  135.3409  155.3044 H   0  0  0  0  0  0  0  0  0  0  0  0  # atno 10764 bound_to 10752
  154.8508  135.4410  154.1919 H   0  0  0  0  0  0  0  0  0  0  0  0  # atno 10765 bound_to 10752
  140.5205  134.5714  157.5046 H   0  0  0  0  0  0  0  0  0  0  0  0  # atno 11005 bound_to 11000
  145.1688  139.2416  143.5353 LP  0  0  0  0  0  0  0  0  0  0  0  0  # atno 17320 bound_to 7965
  146.3506  140.1434  142.8594 LP  0  0  0  0  0  0  0  0  0  0  0  0  # atno 17321 bound_to 7965
  139.5352  144.7202  151.4916 LP  0  0  0  0  0  0  0  0  0  0  0  0  # atno 17342 bound_to 10162
  140.6603  143.8512  150.6880 LP  0  0  0  0  0  0  0  0  0  0  0  0  # atno 17343 bound_to 10162
  156.3947  130.3904  149.7004 LP  0  0  0  0  0  0  0  0  0  0  0  0  # atno 17370 bound_to 10713
  156.4342  130.7830  151.2850 LP  0  0  0  0  0  0  0  0  0  0  0  0  # atno 17371 bound_to 10713
  139.9608  134.7455  156.0240 LP  0  0  0  0  0  0  0  0  0  0  0  0  # atno 17394 bound_to 11000
  141.1337  133.6580  156.3534 LP  0  0  0  0  0  0  0  0  0  0  0  0  # atno 17395 bound_to 11000

$$$$
