AV-unprocessed.smi:1381|AV-procd|sdf|5614|dock7
  -GOLD-   22720 5223D 1   1.00000     0.00000
 Structure written by MMmdl.
 42 43  0  0  0  0  0  0  0  0  3 V2000
  151.1889  141.2753  156.4644 C   0  0  0  0  0  0  0  0  0  0  0  0
  151.4291  139.9331  155.8629 C   0  0  0  0  0  0  0  0  0  0  0  0
  150.7374  138.7561  155.9133 C   0  0  0  0  0  0  0  0  0  0  0  0
  151.5300  137.8796  155.1232 C   0  0  0  0  0  0  0  0  0  0  0  0
  151.2593  136.5919  154.8596 N   0  5  0  0  0  0  0  0  0  0  0  0
  149.9821  136.1479  154.8776 C   0  0  0  0  0  0  0  0  0  0  0  0
  148.9706  136.8326  155.0490 O   0  0  0  0  0  0  0  0  0  0  0  0
  149.8684  134.8250  154.6912 N   0  0  0  0  0  0  0  0  0  0  0  0
  148.6201  134.0723  154.6887 C   0  0  0  0  0  0  0  0  0  0  0  0
  148.4707  133.2419  153.3996 C   0  0  0  0  0  0  0  0  0  0  0  0
  147.3858  133.7496  152.5248 N   0  3  1  0  0  0  0  0  0  0  0  0
  146.9478  132.7464  151.5274 C   0  0  0  0  0  0  0  0  0  0  0  0
  145.9037  133.3555  150.5752 C   0  0  1  0  0  0  0  0  0  0  0  0
  145.3609  132.3228  149.5808 C   0  0  0  0  0  0  0  0  0  0  0  0
  144.8040  133.8545  151.3321 O   0  0  0  0  0  0  0  0  0  0  0  0
  145.1463  134.8307  152.3161 C   0  0  2  0  0  0  0  0  0  0  0  0
  145.5306  136.1819  151.6874 C   0  0  0  0  0  0  0  0  0  0  0  0
  146.2165  134.2716  153.2744 C   0  0  0  0  0  0  0  0  0  0  0  0
  152.5986  138.4767  154.6227 N   0  0  0  0  0  0  0  0  0  0  0  0
  152.5447  139.7925  155.0976 O   0  0  0  0  0  0  0  0  0  0  0  0
  150.4163  141.8113  155.9136 H   0  0  0  0  0  0  0  0  0  0  0  0
  152.0962  141.8798  156.4503 H   0  0  0  0  0  0  0  0  0  0  0  0
  150.8632  141.1814  157.5004 H   0  0  0  0  0  0  0  0  0  0  0  0
  149.8148  138.5519  156.4356 H   0  0  0  0  0  0  0  0  0  0  0  0
  150.7208  134.3026  154.5499 H   0  0  0  0  0  0  0  0  0  0  0  0
  148.5795  133.4454  155.5798 H   0  0  0  0  0  0  0  0  0  0  0  0
  147.7969  134.7823  154.7706 H   0  0  0  0  0  0  0  0  0  0  0  0
  149.4178  133.2864  152.8593 H   0  0  0  0  0  0  0  0  0  0  0  0
  148.2953  132.1886  153.6244 H   0  0  0  0  0  0  0  0  0  0  0  0
  147.8068  132.3991  150.9517 H   0  0  0  0  0  0  0  0  0  0  0  0
  146.5343  131.8773  152.0422 H   0  0  0  0  0  0  0  0  0  0  0  0
  146.3573  134.1666  150.0052 H   0  0  0  0  0  0  0  0  0  0  0  0
  146.1619  131.9050  148.9705 H   0  0  0  0  0  0  0  0  0  0  0  0
  144.6332  132.7763  148.9073 H   0  0  0  0  0  0  0  0  0  0  0  0
  144.8678  131.4982  150.0966 H   0  0  0  0  0  0  0  0  0  0  0  0
  144.2396  135.0025  152.8970 H   0  0  0  0  0  0  0  0  0  0  0  0
  145.6486  136.9454  152.4567 H   0  0  0  0  0  0  0  0  0  0  0  0
  144.7563  136.5244  151.0005 H   0  0  0  0  0  0  0  0  0  0  0  0
  146.4693  136.1315  151.1364 H   0  0  0  0  0  0  0  0  0  0  0  0
  145.7871  133.4635  153.8691 H   0  0  0  0  0  0  0  0  0  0  0  0
  146.5182  135.0482  153.9764 H   0  0  0  0  0  0  0  0  0  0  0  0
  147.7754  134.5208  152.0017 H   0  0  0  0  0  0  0  0  0  0  0  0
  1  2  1  0  0  0  0
  1 21  1  0  0  0  0
  1 22  1  0  0  0  0
  1 23  1  0  0  0  0
  2 20  1  0  0  0  0
  2  3  2  0  0  0  0
  3  4  1  0  0  0  0
  3 24  1  0  0  0  0
  4  5  1  0  0  0  0
  4 19  2  0  0  0  0
  5  6  1  0  0  0  0
  6  7  2  0  0  0  0
  6  8  1  0  0  0  0
  8  9  1  0  0  0  0
  8 25  1  0  0  0  0
  9 10  1  0  0  0  0
  9 26  1  0  0  0  0
  9 27  1  0  0  0  0
 10 11  1  0  0  0  0
 10 28  1  0  0  0  0
 10 29  1  0  0  0  0
 11 18  1  0  0  0  0
 11 12  1  0  0  0  0
 11 42  1  0  0  0  0
 12 13  1  0  0  0  0
 12 30  1  0  0  0  0
 12 31  1  0  0  0  0
 13 14  1  0  0  0  0
 13 15  1  0  0  0  0
 13 32  1  0  0  0  0
 14 33  1  0  0  0  0
 14 34  1  0  0  0  0
 14 35  1  0  0  0  0
 15 16  1  0  0  0  0
 16 17  1  0  0  0  0
 16 18  1  0  0  0  0
 16 36  1  0  0  0  0
 17 37  1  0  0  0  0
 17 38  1  0  0  0  0
 17 39  1  0  0  0  0
 18 40  1  0  0  0  0
 18 41  1  0  0  0  0
 19 20  1  0  0  0  0
M  CHG  1   5  -1
M  CHG  1  11   1
M  END
> <s_m_source_file>
AV-unprocessed.smi

> <i_m_source_file_index>
1381

> <i_lp_mmshare_version>
43012

> <i_f3d_flags>
0

> <s_epik_input>
W0NIM11jMVtjSF1jKG5vMSlbTkhdQyg9TylbTkhdW0NIMl1bQ0gyXU4yW0NIMl1bQ0BASF0oW0NIM10pT1tDQEBIXShbQ0gzXSlbQ0gyXTI=

> <s_epik_cmdline>
J2VwaWtfcHl0aG9uJywgJy1waCcsICc3LjAnLCAnLXRuJywgJzgnLCAnLW1hJywgJzIwMCcsICctbWV0YWxfYmluZGluZycsICctaW1hZScsICc8aW5maWxlLm1hZT4nLCAnLW9tYWUnLCAnPG91dGZpbGUubWFlPic=

> <r_epik_Ionization_Penalty>
6.73511

> <r_epik_Ionization_Penalty_Charging>
6.73502

> <r_epik_Ionization_Penalty_Neutral>
9.26583e-05

> <r_epik_State_Penalty>
6.93549

> <r_epik_Charging_Adjusted_Penalty>
13.6705

> <i_epik_Tot_Q>
0

> <i_epik_Tot_abs_Q>
2

> <r_epik_Metal_State_Penalty>
2.87211

> <b_epik_Metal_Only>
1

> <s_lp_Force_Field>
OPLS_2005

> <r_lp_Energy>
5.23247

> <b_lp_Chiralities_Consistent>
1

> <s_lp_Variant>
AV-unprocessed.smi:1381-13

> <Gold.Version>
5.8.1

> <Gold.Id.Protein>
6NUR|6NUR_protein|mol2

> <Gold.PLP.Fitness>
45.4214

> <Gold.PLP.PLP>
-31.5978

> <Gold.PLP.part.hbond>
-4.4799

> <Gold.PLP.part.metal>
0.0000

> <Gold.PLP.part.buried>
-3.9143

> <Gold.PLP.part.nonpolar>
-24.2559

> <Gold.PLP.part.repulsive>
0.5426

> <Gold.PLP.ligand.clash>
0.0000

> <Gold.PLP.ligand.torsion>
0.7407

> <Gold.PLP.Chemscore.Hbond>
5.0772

> <Gold.PLP.Chemscore.CHOScore>
0.0000

> <Gold.PLP.Chemscore.Metal>
0.0000

> <Gold.Chemscore.Hbonds>
donor molecule, donor type, donor heavy atom, donor atom, acceptor molecule, acceptor atom, score
      L1  H    11    42       P1  7948  2.00
      P1  H  7989  7998       L1    20  0.30
      P1  H  7997  8008       L1    20  0.70
      P1  H 10752 10764       L1     5  1.89

> <Gold.PLP.Chemscore.Internal.Correction>
0.0733

> <Gold.Rescore>
     Score         DG    S(hbond)    S(metal)    S(lipo)     H(rot)  DE(clash)    DE(int)     intcor
     14.13     -16.31       2.30        0.00      61.58       1.58       0.10       2.08       ----

> <Gold.Chemscore.Fitness>
14.1284

> <Gold.Chemscore.DG>
-16.3107

> <Gold.Chemscore.ZeroCoef>
-5.4800

> <Gold.Chemscore.Hbond>
2.2961

> <Gold.Chemscore.Metal>
0.0000

> <Gold.Chemscore.Lipo>
61.5779

> <Gold.Chemscore.Internal_Hbond>
0.0000

> <Gold.Chemscore.DEClash>
0.1020

> <Gold.Chemscore.DEInternal>
2.0803

> <Gold.Chemscore.Rot>
1.5792

> <Gold.Chemscore.Internal.Correction>
   9.000000E+99

> <Gold.Chemscore.Hbonds>
donor molecule, donor type, donor heavy atom, donor atom, acceptor molecule, acceptor atom, score
      L1  H    11    42       P1  7948  0.31
      P1  H  7989  7998       L1    20  0.01
      P1  H  7997  8008       L1    20  0.34
      P1  H 10752 10764       L1     5  0.59

> <Gold.Chemscore.Hbond.Weighted>
-7.6690

> <Gold.Chemscore.Metal.Weighted>
-0.0000

> <Gold.Chemscore.Lipo.Weighted>
-7.2046

> <Gold.Chemscore.Internal_Hbond.Weighted>
0.0000

> <Gold.Chemscore.DEClash.Weighted>
0.1020

> <Gold.Chemscore.DEInternal.Weighted>
2.0803

> <Gold.Chemscore.Rot.Weighted>
4.0428

> <Gold.Chemscore.Internal.Correction.Weighted>
   9.000000E+99

> <Gold.Protein.RotatedTorsions>
[ 6907 6896 6895 6894 ] final   72.53 input  -60.11 | X-H torsion
[ 7974 7965 7964 7962 ] final   57.51 input  175.53 | X-H torsion
[ 8008 7997 7996 7995 ] final   -4.26 input   59.86 | X-H torsion
[ 10167 10162 10161 10158 ] final    6.53 input  -65.29 | X-H torsion
[ 10718 10713 10712 10709 ] final  146.86 input   66.30 | X-H torsion
[ 10763 10752 10751 10750 ] final  -85.44 input  -60.55 | X-H torsion
[ 11005 11000 10999 10996 ] final  130.54 input  -57.11 | X-H torsion

> <Gold.Protein.ActiveResidues>
 VAL166  LYS551  ARG553  GLY616  TRP617  ASP618  TYR619  PRO620  LYS621  CYS622 
 ASP623  PHE694  ASN695  SER759  ASP760  ASP761  ALA762  ILE779  LEU786  VAL792 
 PHE793  MET794  SER795  GLU796  ALA797  LYS798  CYS799  TRP800  GLU811  SER814 

> <Gold.Protein.RotatedAtoms>
  152.4873  134.4557  159.9588 H   0  0  0  0  0  0  0  0  0  0  0  0  # atno 6907 bound_to 6896
  151.4550  133.3601  159.2808 H   0  0  0  0  0  0  0  0  0  0  0  0  # atno 6908 bound_to 6896
  150.8995  134.8431  159.7410 H   0  0  0  0  0  0  0  0  0  0  0  0  # atno 6909 bound_to 6896
  145.9283  139.3786  143.0436 H   0  0  0  0  0  0  0  0  0  0  0  0  # atno 7974 bound_to 7965
  154.6161  140.2488  155.7607 H   0  0  0  0  0  0  0  0  0  0  0  0  # atno 8008 bound_to 7997
  156.2400  140.2936  156.0366 H   0  0  0  0  0  0  0  0  0  0  0  0  # atno 8009 bound_to 7997
  155.1972  140.0393  157.2901 H   0  0  0  0  0  0  0  0  0  0  0  0  # atno 8010 bound_to 7997
  140.6423  143.7746  150.7446 H   0  0  0  0  0  0  0  0  0  0  0  0  # atno 10167 bound_to 10162
  157.3280  131.0915  151.1186 H   0  0  0  0  0  0  0  0  0  0  0  0  # atno 10718 bound_to 10713
  154.6111  135.5485  153.7474 H   0  0  0  0  0  0  0  0  0  0  0  0  # atno 10763 bound_to 10752
  153.0196  135.6390  154.1576 H   0  0  0  0  0  0  0  0  0  0  0  0  # atno 10764 bound_to 10752
  154.1514  135.2902  155.3114 H   0  0  0  0  0  0  0  0  0  0  0  0  # atno 10765 bound_to 10752
  139.9678  134.9586  156.9309 H   0  0  0  0  0  0  0  0  0  0  0  0  # atno 11005 bound_to 11000
  145.8460  140.9555  143.0774 LP  0  0  0  0  0  0  0  0  0  0  0  0  # atno 17320 bound_to 7965
  144.6761  140.0345  143.7482 LP  0  0  0  0  0  0  0  0  0  0  0  0  # atno 17321 bound_to 7965
  140.1380  143.4467  152.2212 LP  0  0  0  0  0  0  0  0  0  0  0  0  # atno 17342 bound_to 10162
  139.5632  144.7419  151.4096 LP  0  0  0  0  0  0  0  0  0  0  0  0  # atno 17343 bound_to 10162
  157.2445  130.6585  149.5904 LP  0  0  0  0  0  0  0  0  0  0  0  0  # atno 17370 bound_to 10713
  155.9692  130.4558  150.5900 LP  0  0  0  0  0  0  0  0  0  0  0  0  # atno 17371 bound_to 10713
  140.5359  134.0768  155.7328 LP  0  0  0  0  0  0  0  0  0  0  0  0  # atno 17394 bound_to 11000
  141.1358  133.9224  157.2437 LP  0  0  0  0  0  0  0  0  0  0  0  0  # atno 17395 bound_to 11000

$$$$
