AV-unprocessed.smi:258|AV-procd|sdf|1972|dock3
  -GOLD-   2262021133D 1   1.00000     0.00000
 Structure written by MMmdl.
 57 60  0  0  0  0  0  0  0  0  1 V2000
  149.2580  145.3578  159.8704 O   0  0  0  0  0  0  0  0  0  0  0  0
  150.5297  144.8115  159.5911 C   0  0  0  0  0  0  0  0  0  0  0  0
  151.3588  144.7103  160.8778 C   0  0  0  0  0  0  0  0  0  0  0  0
  151.5196  143.3410  161.2204 O   0  0  0  0  0  0  0  0  0  0  0  0
  152.5770  142.6806  160.5366 C   0  0  1  0  0  0  0  0  0  0  0  0
  153.4045  141.8138  161.5074 C   0  0  0  0  0  0  0  0  0  0  0  0
  154.4367  140.9804  160.7333 C   0  0  0  0  0  0  0  0  0  0  0  0
  153.7591  140.1437  159.6369 C   0  0  0  0  0  0  0  0  0  0  0  0
  152.9492  140.9923  158.7613 N   0  0  0  0  0  0  0  0  0  0  0  0
  152.5389  140.4647  157.5801 C   0  0  0  0  0  0  0  0  0  0  0  0
  153.2482  139.4582  157.0015 N   0  0  0  0  0  0  0  0  0  0  0  0
  152.8436  138.9240  155.8452 C   0  0  0  0  0  0  0  0  0  0  0  0
  151.7789  139.2417  155.1065 N   0  0  0  0  0  0  0  0  0  0  0  0
  151.0696  140.2575  155.6762 C   0  0  0  0  0  0  0  0  0  0  0  0
  151.3741  140.9190  156.8993 C   0  0  0  0  0  0  0  0  0  0  0  0
  150.4276  141.9064  157.1501 N   0  0  0  0  0  0  0  0  0  0  0  0
  149.6065  141.8265  156.1382 C   0  0  0  0  0  0  0  0  0  0  0  0
  149.9186  140.8629  155.2068 N   0  0  0  0  0  0  0  0  0  0  0  0
  149.1860  140.5494  153.9946 C   0  0  0  0  0  0  0  0  0  0  0  0
  147.7987  139.9288  154.2999 C   0  0  1  0  0  0  0  0  0  0  0  0
  147.0065  139.6456  153.0019 C   0  0  0  0  0  0  0  0  0  0  0  0
  147.7485  138.8066  152.1419 O   0  0  0  0  0  0  0  0  0  0  0  0
  147.9329  138.6980  155.2330 C   0  0  1  0  0  0  0  0  0  0  0  0
  148.7806  137.5455  154.6928 C   0  0  0  0  0  0  0  0  0  0  0  0
  149.6620  137.1405  155.8762 C   0  0  0  0  0  0  0  0  0  0  0  0
  149.0087  137.6874  157.0108 O   0  0  0  0  0  0  0  0  0  0  0  0
  148.5214  138.9608  156.6239 C   0  0  0  0  0  0  0  0  0  0  0  0
  151.9403  141.8014  159.4448 C   0  0  0  0  0  0  0  0  0  0  0  0
  148.7321  145.3113  159.0867 H   0  0  0  0  0  0  0  0  0  0  0  0
  150.4312  143.8408  159.1040 H   0  0  0  0  0  0  0  0  0  0  0  0
  151.0253  145.4783  158.8854 H   0  0  0  0  0  0  0  0  0  0  0  0
  152.3457  145.1383  160.6967 H   0  0  0  0  0  0  0  0  0  0  0  0
  150.8998  145.2870  161.6813 H   0  0  0  0  0  0  0  0  0  0  0  0
  153.2238  143.4135  160.0499 H   0  0  0  0  0  0  0  0  0  0  0  0
  153.9165  142.4322  162.2440 H   0  0  0  0  0  0  0  0  0  0  0  0
  152.7417  141.1494  162.0634 H   0  0  0  0  0  0  0  0  0  0  0  0
  155.1748  141.6440  160.2809 H   0  0  0  0  0  0  0  0  0  0  0  0
  154.9820  140.3287  161.4165 H   0  0  0  0  0  0  0  0  0  0  0  0
  154.5213  139.6235  159.0549 H   0  0  0  0  0  0  0  0  0  0  0  0
  153.1230  139.3822  160.0908 H   0  0  0  0  0  0  0  0  0  0  0  0
  153.4618  138.1283  155.4564 H   0  0  0  0  0  0  0  0  0  0  0  0
  148.7445  142.4707  156.0437 H   0  0  0  0  0  0  0  0  0  0  0  0
  149.0930  141.4606  153.4020 H   0  0  0  0  0  0  0  0  0  0  0  0
  149.8026  139.8757  153.3983 H   0  0  0  0  0  0  0  0  0  0  0  0
  147.2180  140.6564  154.8706 H   0  0  0  0  0  0  0  0  0  0  0  0
  146.0512  139.1666  153.2166 H   0  0  0  0  0  0  0  0  0  0  0  0
  146.7862  140.5639  152.4594 H   0  0  0  0  0  0  0  0  0  0  0  0
  148.5732  139.2266  151.9497 H   0  0  0  0  0  0  0  0  0  0  0  0
  146.9329  138.2868  155.3838 H   0  0  0  0  0  0  0  0  0  0  0  0
  148.1349  136.7191  154.3927 H   0  0  0  0  0  0  0  0  0  0  0  0
  149.3847  137.8111  153.8256 H   0  0  0  0  0  0  0  0  0  0  0  0
  149.7800  136.0603  155.9637 H   0  0  0  0  0  0  0  0  0  0  0  0
  150.6538  137.5861  155.7855 H   0  0  0  0  0  0  0  0  0  0  0  0
  149.3554  139.6621  156.5989 H   0  0  0  0  0  0  0  0  0  0  0  0
  147.7806  139.3356  157.3306 H   0  0  0  0  0  0  0  0  0  0  0  0
  151.2036  141.1318  159.8910 H   0  0  0  0  0  0  0  0  0  0  0  0
  151.3985  142.4356  158.7435 H   0  0  0  0  0  0  0  0  0  0  0  0
  1  2  1  0  0  0  0
  1 29  1  0  0  0  0
  2  3  1  0  0  0  0
  2 30  1  0  0  0  0
  2 31  1  0  0  0  0
  3  4  1  0  0  0  0
  3 32  1  0  0  0  0
  3 33  1  0  0  0  0
  4  5  1  0  0  0  0
  5 28  1  0  0  0  0
  5  6  1  0  0  0  0
  5 34  1  0  0  0  0
  6  7  1  0  0  0  0
  6 35  1  0  0  0  0
  6 36  1  0  0  0  0
  7  8  1  0  0  0  0
  7 37  1  0  0  0  0
  7 38  1  0  0  0  0
  8  9  1  0  0  0  0
  8 39  1  0  0  0  0
  8 40  1  0  0  0  0
  9 10  1  0  0  0  0
  9 28  1  0  0  0  0
 10 15  1  0  0  0  0
 10 11  2  0  0  0  0
 11 12  1  0  0  0  0
 12 13  2  0  0  0  0
 12 41  1  0  0  0  0
 13 14  1  0  0  0  0
 14 18  1  0  0  0  0
 14 15  2  0  0  0  0
 15 16  1  0  0  0  0
 16 17  2  0  0  0  0
 17 18  1  0  0  0  0
 17 42  1  0  0  0  0
 18 19  1  0  0  0  0
 19 20  1  0  0  0  0
 19 43  1  0  0  0  0
 19 44  1  0  0  0  0
 20 21  1  0  0  0  0
 20 23  1  0  0  0  0
 20 45  1  0  0  0  0
 21 22  1  0  0  0  0
 21 46  1  0  0  0  0
 21 47  1  0  0  0  0
 22 48  1  0  0  0  0
 23 27  1  0  0  0  0
 23 24  1  0  0  0  0
 23 49  1  0  0  0  0
 24 25  1  0  0  0  0
 24 50  1  0  0  0  0
 24 51  1  0  0  0  0
 25 26  1  0  0  0  0
 25 52  1  0  0  0  0
 25 53  1  0  0  0  0
 26 27  1  0  0  0  0
 27 54  1  0  0  0  0
 27 55  1  0  0  0  0
 28 56  1  0  0  0  0
 28 57  1  0  0  0  0
M  END
> <s_m_source_file>
AV-unprocessed.smi

> <i_m_source_file_index>
258

> <i_lp_mmshare_version>
43012

> <i_f3d_flags>
0

> <s_epik_input>
W09IXVtDSDJdW0NIMl1PW0NAQEhdMVtDSDJdW0NIMl1bQ0gyXU4oW0NIMl0xKWMobltjSF1uMiljKGMyMyluW2NIXW4zW0NIMl1bQ0BIXShbQ0gyXVtPSF0pW0NAQEhdNFtDSDJdW0NIMl1PW0NIMl00

> <s_epik_cmdline>
J2VwaWtfcHl0aG9uJywgJy1waCcsICc3LjAnLCAnLXRuJywgJzgnLCAnLW1hJywgJzIwMCcsICctbWV0YWxfYmluZGluZycsICctaW1hZScsICc8aW5maWxlLm1hZT4nLCAnLW9tYWUnLCAnPG91dGZpbGUubWFlPic=

> <r_lp_tautomer_probability>
1

> <r_epik_Ionization_Penalty>
0.00349036

> <r_epik_Ionization_Penalty_Charging>
0

> <r_epik_Ionization_Penalty_Neutral>
0.00349036

> <r_epik_State_Penalty>
0.00229798

> <r_epik_Charging_Adjusted_Penalty>
0.00229798

> <i_epik_Tot_Q>
0

> <i_epik_Tot_abs_Q>
0

> <r_epik_Metal_State_Penalty>
-0

> <b_epik_Metal_Only>
0

> <s_lp_Force_Field>
OPLS_2005

> <r_lp_Energy>
51.0481

> <b_lp_Chiralities_Consistent>
1

> <s_lp_Variant>
AV-unprocessed.smi:258-8

> <Gold.Version>
5.8.1

> <Gold.Id.Protein>
6NUR|6NUR_protein|mol2

> <Gold.PLP.Fitness>
53.6398

> <Gold.PLP.PLP>
-45.5281

> <Gold.PLP.part.hbond>
-5.4056

> <Gold.PLP.part.metal>
0.0000

> <Gold.PLP.part.buried>
-2.4064

> <Gold.PLP.part.nonpolar>
-37.8425

> <Gold.PLP.part.repulsive>
0.2262

> <Gold.PLP.ligand.clash>
0.0000

> <Gold.PLP.ligand.torsion>
1.7761

> <Gold.PLP.Chemscore.Hbond>
2.7000

> <Gold.PLP.Chemscore.CHOScore>
0.9855

> <Gold.PLP.Chemscore.Metal>
0.0000

> <Gold.Chemscore.Hbonds>
donor molecule, donor type, donor heavy atom, donor atom, acceptor molecule, acceptor atom, score
      L1  H     1    29       P1  8029  0.84
      L1  H    22    48       P1  7957  0.96
      P1  H  6933  6945       L1     4  0.05
      P1  H  7997  8010       L1    11  0.52
      L1  C    17    42       P1  8028  0.88

> <Gold.PLP.Chemscore.Internal.Correction>
0.6074

> <Gold.Rescore>
     Score         DG    S(hbond)    S(metal)    S(lipo)     H(rot)  DE(clash)    DE(int)     intcor
      8.02     -13.31       2.25        0.00      95.10       4.22       0.74       4.55       ----

> <Gold.Chemscore.Fitness>
8.0230

> <Gold.Chemscore.DG>
-13.3144

> <Gold.Chemscore.ZeroCoef>
-5.4800

> <Gold.Chemscore.Hbond>
2.2522

> <Gold.Chemscore.Metal>
0.0000

> <Gold.Chemscore.Lipo>
95.1009

> <Gold.Chemscore.Internal_Hbond>
0.0000

> <Gold.Chemscore.DEClash>
0.7447

> <Gold.Chemscore.DEInternal>
4.5467

> <Gold.Chemscore.Rot>
4.2246

> <Gold.Chemscore.Internal.Correction>
   9.000000E+99

> <Gold.Chemscore.Hbonds>
donor molecule, donor type, donor heavy atom, donor atom, acceptor molecule, acceptor atom, score
      L1  H     1    29       P1  8029  0.83
      L1  H    22    48       P1  7957  0.88
      P1  H  6933  6945       L1     4  0.05
      P1  H  7997  8010       L1    11  0.11

> <Gold.Chemscore.Hbond.Weighted>
-7.5225

> <Gold.Chemscore.Metal.Weighted>
-0.0000

> <Gold.Chemscore.Lipo.Weighted>
-11.1268

> <Gold.Chemscore.Internal_Hbond.Weighted>
0.0000

> <Gold.Chemscore.DEClash.Weighted>
0.7447

> <Gold.Chemscore.DEInternal.Weighted>
4.5467

> <Gold.Chemscore.Rot.Weighted>
10.8149

> <Gold.Chemscore.Internal.Correction.Weighted>
   9.000000E+99

> <Gold.Protein.RotatedTorsions>
[ 6907 6896 6895 6894 ] final -154.07 input  -60.11 | X-H torsion
[ 7974 7965 7964 7962 ] final   20.89 input  175.53 | X-H torsion
[ 8008 7997 7996 7995 ] final   52.11 input   59.86 | X-H torsion
[ 10167 10162 10161 10158 ] final   12.67 input  -65.29 | X-H torsion
[ 10718 10713 10712 10709 ] final  160.36 input   66.30 | X-H torsion
[ 10763 10752 10751 10750 ] final  157.59 input  -60.55 | X-H torsion
[ 11005 11000 10999 10996 ] final -103.46 input  -57.11 | X-H torsion

> <Gold.Protein.ActiveResidues>
 VAL166  LYS551  ARG553  GLY616  TRP617  ASP618  TYR619  PRO620  LYS621  CYS622 
 ASP623  PHE694  ASN695  SER759  ASP760  ASP761  ALA762  ILE779  LEU786  VAL792 
 PHE793  MET794  SER795  GLU796  ALA797  LYS798  CYS799  TRP800  GLU811  SER814 

> <Gold.Protein.RotatedAtoms>
  151.2520  133.4345  159.2611 H   0  0  0  0  0  0  0  0  0  0  0  0  # atno 6907 bound_to 6896
  151.0608  134.9736  159.8270 H   0  0  0  0  0  0  0  0  0  0  0  0  # atno 6908 bound_to 6896
  152.5398  134.2470  159.8937 H   0  0  0  0  0  0  0  0  0  0  0  0  # atno 6909 bound_to 6896
  146.2093  139.8106  142.8701 H   0  0  0  0  0  0  0  0  0  0  0  0  # atno 7974 bound_to 7965
  155.4464  140.3456  155.4295 H   0  0  0  0  0  0  0  0  0  0  0  0  # atno 8008 bound_to 7997
  156.1247  140.1497  156.9183 H   0  0  0  0  0  0  0  0  0  0  0  0  # atno 8009 bound_to 7997
  154.4849  140.0858  156.7444 H   0  0  0  0  0  0  0  0  0  0  0  0  # atno 8010 bound_to 7997
  140.6053  143.8521  150.7007 H   0  0  0  0  0  0  0  0  0  0  0  0  # atno 10167 bound_to 10162
  157.1514  131.0565  151.2278 H   0  0  0  0  0  0  0  0  0  0  0  0  # atno 10718 bound_to 10713
  154.2027  135.2789  155.2985 H   0  0  0  0  0  0  0  0  0  0  0  0  # atno 10763 bound_to 10752
  154.5841  135.5580  153.7217 H   0  0  0  0  0  0  0  0  0  0  0  0  # atno 10764 bound_to 10752
  153.0084  135.6352  154.2166 H   0  0  0  0  0  0  0  0  0  0  0  0  # atno 10765 bound_to 10752
  141.1144  133.8642  157.1489 H   0  0  0  0  0  0  0  0  0  0  0  0  # atno 11005 bound_to 11000
  145.3200  141.0241  143.3505 LP  0  0  0  0  0  0  0  0  0  0  0  0  # atno 17320 bound_to 7965
  144.8873  139.4822  143.6694 LP  0  0  0  0  0  0  0  0  0  0  0  0  # atno 17321 bound_to 7965
  140.2077  143.3908  152.1742 LP  0  0  0  0  0  0  0  0  0  0  0  0  # atno 17342 bound_to 10162
  139.5320  144.7169  151.5023 LP  0  0  0  0  0  0  0  0  0  0  0  0  # atno 17343 bound_to 10162
  157.4217  130.7441  149.6918 LP  0  0  0  0  0  0  0  0  0  0  0  0  # atno 17370 bound_to 10713
  155.9770  130.4069  150.3743 LP  0  0  0  0  0  0  0  0  0  0  0  0  # atno 17371 bound_to 10713
  140.0058  135.0009  157.0288 LP  0  0  0  0  0  0  0  0  0  0  0  0  # atno 17394 bound_to 11000
  140.4685  134.1410  155.7200 LP  0  0  0  0  0  0  0  0  0  0  0  0  # atno 17395 bound_to 11000

$$$$
