AV-unprocessed.smi:3311|AV-procd|sdf|12721|dock9
  -GOLD-   2272019 63D 1   1.00000     0.00000
 Structure written by MMmdl.
 44 45  0  0  0  0  0  0  0  0  2 V2000
  152.4132  144.3523  156.9526 C   0  0  0  0  0  0  0  0  0  0  0  0
  152.4282  143.3636  158.1327 C   0  0  2  0  0  0  0  0  0  0  0  0
  151.1464  142.6247  158.1489 N   0  3  0  0  0  0  0  0  0  0  0  0
  150.6529  142.2009  156.8199 C   0  0  0  0  0  0  0  0  0  0  0  0
  149.5436  141.1260  156.9213 C   0  0  0  0  0  0  0  0  0  0  0  0
  148.8051  141.4091  158.0953 O   0  0  0  0  0  0  0  0  0  0  0  0
  148.5670  141.1273  155.7194 C   0  0  0  0  0  0  0  0  0  0  0  0
  149.2266  140.6097  154.4290 C   0  0  0  0  0  0  0  0  0  0  0  0
  149.8179  139.2061  154.6330 C   0  0  0  0  0  0  0  0  0  0  0  0
  150.7978  139.1760  155.8164 C   0  0  0  0  0  0  0  0  0  0  0  0
  150.1409  139.7106  157.1024 C   0  0  0  0  0  0  0  0  0  0  0  0
  152.6774  144.0555  159.5006 C   0  0  1  0  0  0  0  0  0  0  0  0
  151.7338  145.2467  159.7545 C   0  0  0  0  0  0  0  0  0  0  0  0
  152.5976  143.1147  160.6111 N   0  0  0  0  0  0  0  0  0  0  0  0
  152.0109  143.2976  161.8466 C   0  0  0  0  0  0  0  0  0  0  0  0
  152.1789  142.1418  162.5540 C   0  0  0  0  0  0  0  0  0  0  0  0
  152.8855  141.2948  161.6555 C   0  0  0  0  0  0  0  0  0  0  0  0
  153.1325  141.8780  160.4940 N   0  0  0  0  0  0  0  0  0  0  0  0
  153.3739  144.8526  156.8289 H   0  0  0  0  0  0  0  0  0  0  0  0
  151.6524  145.1214  157.0895 H   0  0  0  0  0  0  0  0  0  0  0  0
  152.1999  143.8377  156.0152 H   0  0  0  0  0  0  0  0  0  0  0  0
  153.2409  142.6590  157.9464 H   0  0  0  0  0  0  0  0  0  0  0  0
  151.2536  141.8030  158.7270 H   0  0  0  0  0  0  0  0  0  0  0  0
  150.2898  143.0829  156.2925 H   0  0  0  0  0  0  0  0  0  0  0  0
  151.4898  141.8147  156.2362 H   0  0  0  0  0  0  0  0  0  0  0  0
  147.8923  141.2268  157.9283 H   0  0  0  0  0  0  0  0  0  0  0  0
  147.7131  140.4870  155.9475 H   0  0  0  0  0  0  0  0  0  0  0  0
  148.1523  142.1215  155.5510 H   0  0  0  0  0  0  0  0  0  0  0  0
  148.4917  140.5852  153.6238 H   0  0  0  0  0  0  0  0  0  0  0  0
  150.0086  141.2970  154.1053 H   0  0  0  0  0  0  0  0  0  0  0  0
  149.0111  138.4941  154.8117 H   0  0  0  0  0  0  0  0  0  0  0  0
  150.3221  138.8785  153.7234 H   0  0  0  0  0  0  0  0  0  0  0  0
  151.1462  138.1556  155.9789 H   0  0  0  0  0  0  0  0  0  0  0  0
  151.6844  139.7625  155.5747 H   0  0  0  0  0  0  0  0  0  0  0  0
  150.8650  139.7036  157.9183 H   0  0  0  0  0  0  0  0  0  0  0  0
  149.3514  139.0168  157.3964 H   0  0  0  0  0  0  0  0  0  0  0  0
  153.6972  144.4439  159.4966 H   0  0  0  0  0  0  0  0  0  0  0  0
  151.8817  146.0387  159.0204 H   0  0  0  0  0  0  0  0  0  0  0  0
  151.9132  145.6839  160.7372 H   0  0  0  0  0  0  0  0  0  0  0  0
  150.6867  144.9448  159.7125 H   0  0  0  0  0  0  0  0  0  0  0  0
  151.5282  144.2249  162.1184 H   0  0  0  0  0  0  0  0  0  0  0  0
  151.8462  141.9321  163.5598 H   0  0  0  0  0  0  0  0  0  0  0  0
  153.2235  140.2808  161.8113 H   0  0  0  0  0  0  0  0  0  0  0  0
  150.4433  143.2178  158.5657 H   0  0  0  0  0  0  0  0  0  0  0  0
  1  2  1  0  0  0  0
  1 19  1  0  0  0  0
  1 20  1  0  0  0  0
  1 21  1  0  0  0  0
  2  3  1  0  0  0  0
  2 12  1  0  0  0  0
  2 22  1  0  0  0  0
  3  4  1  0  0  0  0
  3 23  1  0  0  0  0
  3 44  1  0  0  0  0
  4  5  1  0  0  0  0
  4 24  1  0  0  0  0
  4 25  1  0  0  0  0
  5 11  1  0  0  0  0
  5  6  1  0  0  0  0
  5  7  1  0  0  0  0
  6 26  1  0  0  0  0
  7  8  1  0  0  0  0
  7 27  1  0  0  0  0
  7 28  1  0  0  0  0
  8  9  1  0  0  0  0
  8 29  1  0  0  0  0
  8 30  1  0  0  0  0
  9 10  1  0  0  0  0
  9 31  1  0  0  0  0
  9 32  1  0  0  0  0
 10 11  1  0  0  0  0
 10 33  1  0  0  0  0
 10 34  1  0  0  0  0
 11 35  1  0  0  0  0
 11 36  1  0  0  0  0
 12 13  1  0  0  0  0
 12 14  1  0  0  0  0
 12 37  1  0  0  0  0
 13 38  1  0  0  0  0
 13 39  1  0  0  0  0
 13 40  1  0  0  0  0
 14 18  1  0  0  0  0
 14 15  1  0  0  0  0
 15 16  2  0  0  0  0
 15 41  1  0  0  0  0
 16 17  1  0  0  0  0
 16 42  1  0  0  0  0
 17 18  2  0  0  0  0
 17 43  1  0  0  0  0
M  CHG  1   3   1
M  END
> <s_m_source_file>
AV-unprocessed.smi

> <i_m_source_file_index>
3311

> <i_lp_mmshare_version>
43012

> <i_f3d_flags>
0

> <s_epik_input>
bjFbY0hdW2NIXVtjSF1uMVtDQEBIXShbQ0gzXSlbQ0BIXShbQ0gzXSlbTkhdW0NIMl1DMihbT0hdKVtDSDJdW0NIMl1bQ0gyXVtDSDJdW0NIMl0y

> <s_epik_cmdline>
J2VwaWtfcHl0aG9uJywgJy1waCcsICc3LjAnLCAnLXRuJywgJzgnLCAnLW1hJywgJzIwMCcsICctbWV0YWxfYmluZGluZycsICctaW1hZScsICc8aW5maWxlLm1hZT4nLCAnLW9tYWUnLCAnPG91dGZpbGUubWFlPic=

> <r_lp_tautomer_probability>
1

> <r_epik_Ionization_Penalty>
0.0141403

> <r_epik_Ionization_Penalty_Charging>
0.0141276

> <r_epik_Ionization_Penalty_Neutral>
1.27139e-05

> <r_epik_State_Penalty>
0.0110334

> <r_epik_Charging_Adjusted_Penalty>
0.025161

> <i_epik_Tot_Q>
1

> <i_epik_Tot_abs_Q>
1

> <r_epik_Metal_State_Penalty>
0.0110573

> <b_epik_Metal_Only>
0

> <s_lp_Force_Field>
OPLS_2005

> <r_lp_Energy>
22.4961

> <b_lp_Chiralities_Consistent>
1

> <s_lp_Variant>
AV-unprocessed.smi:3311-3

> <Gold.Version>
5.8.1

> <Gold.Id.Protein>
6NUR|6NUR_protein|mol2

> <Gold.PLP.Fitness>
42.5607

> <Gold.PLP.PLP>
-44.5941

> <Gold.PLP.part.hbond>
0.0000

> <Gold.PLP.part.metal>
0.0000

> <Gold.PLP.part.buried>
-3.4422

> <Gold.PLP.part.nonpolar>
-40.3209

> <Gold.PLP.part.repulsive>
0.0329

> <Gold.PLP.ligand.clash>
0.0000

> <Gold.PLP.ligand.torsion>
1.0873

> <Gold.PLP.Chemscore.Hbond>
0.0000

> <Gold.PLP.Chemscore.CHOScore>
0.0000

> <Gold.PLP.Chemscore.Metal>
0.0000

> <Gold.PLP.Chemscore.Internal.Correction>
0.1412

> <Gold.Rescore>
     Score         DG    S(hbond)    S(metal)    S(lipo)     H(rot)  DE(clash)    DE(int)     intcor
     13.13     -15.30       0.00        0.00     130.79       2.14       1.53       0.63       ----

> <Gold.Chemscore.Fitness>
13.1333

> <Gold.Chemscore.DG>
-15.2975

> <Gold.Chemscore.ZeroCoef>
-5.4800

> <Gold.Chemscore.Hbond>
0.0000

> <Gold.Chemscore.Metal>
0.0000

> <Gold.Chemscore.Lipo>
130.7876

> <Gold.Chemscore.Internal_Hbond>
0.0000

> <Gold.Chemscore.DEClash>
1.5342

> <Gold.Chemscore.DEInternal>
0.6300

> <Gold.Chemscore.Rot>
2.1424

> <Gold.Chemscore.Internal.Correction>
   9.000000E+99

> <Gold.Chemscore.Hbond.Weighted>
-0.0000

> <Gold.Chemscore.Metal.Weighted>
-0.0000

> <Gold.Chemscore.Lipo.Weighted>
-15.3021

> <Gold.Chemscore.Internal_Hbond.Weighted>
0.0000

> <Gold.Chemscore.DEClash.Weighted>
1.5342

> <Gold.Chemscore.DEInternal.Weighted>
0.6300

> <Gold.Chemscore.Rot.Weighted>
5.4846

> <Gold.Chemscore.Internal.Correction.Weighted>
   9.000000E+99

> <Gold.Protein.RotatedTorsions>
[ 6907 6896 6895 6894 ] final -139.49 input  -60.11 | X-H torsion
[ 7974 7965 7964 7962 ] final  -29.39 input  175.53 | X-H torsion
[ 8008 7997 7996 7995 ] final -103.04 input   59.86 | X-H torsion
[ 10167 10162 10161 10158 ] final -154.05 input  -65.29 | X-H torsion
[ 10718 10713 10712 10709 ] final  -82.04 input   66.30 | X-H torsion
[ 10763 10752 10751 10750 ] final  -95.60 input  -60.55 | X-H torsion
[ 11005 11000 10999 10996 ] final  179.71 input  -57.11 | X-H torsion

> <Gold.Protein.ActiveResidues>
 VAL166  LYS551  ARG553  GLY616  TRP617  ASP618  TYR619  PRO620  LYS621  CYS622 
 ASP623  PHE694  ASN695  SER759  ASP760  ASP761  ALA762  ILE779  LEU786  VAL792 
 PHE793  MET794  SER795  GLU796  ALA797  LYS798  CYS799  TRP800  GLU811  SER814 

> <Gold.Protein.RotatedAtoms>
  151.0485  133.5645  159.2644 H   0  0  0  0  0  0  0  0  0  0  0  0  # atno 6907 bound_to 6896
  151.2665  135.0670  159.9127 H   0  0  0  0  0  0  0  0  0  0  0  0  # atno 6908 bound_to 6896
  152.5377  134.0222  159.8041 H   0  0  0  0  0  0  0  0  0  0  0  0  # atno 6909 bound_to 6896
  146.1220  140.5405  142.8731 H   0  0  0  0  0  0  0  0  0  0  0  0  # atno 7974 bound_to 7965
  154.8652  140.0425  157.1690 H   0  0  0  0  0  0  0  0  0  0  0  0  # atno 8008 bound_to 7997
  154.8797  140.2971  155.5411 H   0  0  0  0  0  0  0  0  0  0  0  0  # atno 8009 bound_to 7997
  156.2999  140.2413  156.3798 H   0  0  0  0  0  0  0  0  0  0  0  0  # atno 8010 bound_to 7997
  139.7045  143.9208  152.2443 H   0  0  0  0  0  0  0  0  0  0  0  0  # atno 10167 bound_to 10162
  156.0040  130.4622  150.4043 H   0  0  0  0  0  0  0  0  0  0  0  0  # atno 10718 bound_to 10713
  154.7163  135.5114  153.8743 H   0  0  0  0  0  0  0  0  0  0  0  0  # atno 10763 bound_to 10752
  153.0823  135.6635  154.0028 H   0  0  0  0  0  0  0  0  0  0  0  0  # atno 10764 bound_to 10752
  153.9860  135.3024  155.3395 H   0  0  0  0  0  0  0  0  0  0  0  0  # atno 10765 bound_to 10752
  140.4092  134.6707  157.4605 H   0  0  0  0  0  0  0  0  0  0  0  0  # atno 11005 bound_to 11000
  144.7606  140.5413  143.6738 LP  0  0  0  0  0  0  0  0  0  0  0  0  # atno 17320 bound_to 7965
  145.5446  139.1475  143.3428 LP  0  0  0  0  0  0  0  0  0  0  0  0  # atno 17321 bound_to 7965
  139.9060  144.6884  150.8613 LP  0  0  0  0  0  0  0  0  0  0  0  0  # atno 17342 bound_to 10162
  140.7718  143.3478  151.2075 LP  0  0  0  0  0  0  0  0  0  0  0  0  # atno 17343 bound_to 10162
  157.2110  131.0460  151.2599 LP  0  0  0  0  0  0  0  0  0  0  0  0  # atno 17370 bound_to 10713
  157.3888  130.7271  149.6682 LP  0  0  0  0  0  0  0  0  0  0  0  0  # atno 17371 bound_to 10713
  140.0280  134.6449  155.9146 LP  0  0  0  0  0  0  0  0  0  0  0  0  # atno 17394 bound_to 11000
  141.1827  133.6549  156.5089 LP  0  0  0  0  0  0  0  0  0  0  0  0  # atno 17395 bound_to 11000

$$$$
