AV-unprocessed.smi:48|AV-procd|sdf|461|dock4
  -GOLD-   2262016333D 1   1.00000     0.00000
 Structure written by MMmdl.
 30 32  0  0  0  0  0  0  0  0  1 V2000
  147.5555  138.6228  152.0264 O   0  0  0  0  0  0  0  0  0  0  0  0
  147.0364  138.4492  153.3277 C   0  0  0  0  0  0  0  0  0  0  0  0
  147.4535  139.6300  154.2218 C   0  0  1  0  0  0  0  0  0  0  0  0
  148.7382  140.1272  153.8607 O   0  0  0  0  0  0  0  0  0  0  0  0
  148.9157  141.4001  154.4072 C   0  0  2  0  0  0  0  0  0  0  0  0
  149.6657  141.2597  155.6961 N   0  0  0  0  0  0  0  0  0  0  0  0
  149.4089  141.8057  156.9048 C   0  0  0  0  0  0  0  0  0  0  0  0
  150.2384  141.5023  157.9031 N   0  0  0  0  0  0  0  0  0  0  0  0
  151.1299  140.6496  157.2731 C   0  0  0  0  0  0  0  0  0  0  0  0
  152.2705  139.9430  157.7262 C   0  0  0  0  0  0  0  0  0  0  0  0
  152.7960  140.0597  159.3656 Cl  0  0  0  0  0  0  0  0  0  0  0  0
  152.9429  139.1692  156.8405 N   0  0  0  0  0  0  0  0  0  0  0  0
  152.5129  139.0947  155.5745 C   0  0  0  0  0  0  0  0  0  0  0  0
  151.4633  139.6997  155.0057 N   0  0  0  0  0  0  0  0  0  0  0  0
  150.7893  140.4797  155.9019 C   0  0  0  0  0  0  0  0  0  0  0  0
  147.5098  141.9691  154.6775 C   0  0  1  0  0  0  0  0  0  0  0  0
  147.2971  143.2390  154.0908 O   0  0  0  0  0  0  0  0  0  0  0  0
  146.5887  140.8906  154.1067 C   0  0  1  0  0  0  0  0  0  0  0  0
  146.2388  141.1314  152.7533 O   0  0  0  0  0  0  0  0  0  0  0  0
  147.4676  139.3193  155.2683 H   0  0  0  0  0  0  0  0  0  0  0  0
  149.5539  142.0209  153.7769 H   0  0  0  0  0  0  0  0  0  0  0  0
  147.3478  142.0463  155.7540 H   0  0  0  0  0  0  0  0  0  0  0  0
  145.6681  140.8035  154.6847 H   0  0  0  0  0  0  0  0  0  0  0  0
  148.1986  139.3150  152.0503 H   0  0  0  0  0  0  0  0  0  0  0  0
  145.9520  138.3398  153.2904 H   0  0  0  0  0  0  0  0  0  0  0  0
  147.4451  137.5179  153.7206 H   0  0  0  0  0  0  0  0  0  0  0  0
  148.5684  142.4651  157.0664 H   0  0  0  0  0  0  0  0  0  0  0  0
  153.0929  138.4582  154.9225 H   0  0  0  0  0  0  0  0  0  0  0  0
  148.0131  143.8051  154.3373 H   0  0  0  0  0  0  0  0  0  0  0  0
  145.3456  140.8495  152.6239 H   0  0  0  0  0  0  0  0  0  0  0  0
  1  2  1  0  0  0  0
  1 24  1  0  0  0  0
  2  3  1  0  0  0  0
  2 25  1  0  0  0  0
  2 26  1  0  0  0  0
  3 20  1  0  0  0  0
  3 18  1  0  0  0  0
  3  4  1  0  0  0  0
  4  5  1  0  0  0  0
  5 21  1  0  0  0  0
  5  6  1  0  0  0  0
  5 16  1  0  0  0  0
  6 15  1  0  0  0  0
  6  7  1  0  0  0  0
  7  8  2  0  0  0  0
  7 27  1  0  0  0  0
  8  9  1  0  0  0  0
  9 15  2  0  0  0  0
  9 10  1  0  0  0  0
 10 11  1  0  0  0  0
 10 12  2  0  0  0  0
 12 13  1  0  0  0  0
 13 14  2  0  0  0  0
 13 28  1  0  0  0  0
 14 15  1  0  0  0  0
 16 22  1  0  0  0  0
 16 17  1  0  0  0  0
 16 18  1  0  0  0  0
 17 29  1  0  0  0  0
 18 23  1  0  0  0  0
 18 19  1  0  0  0  0
 19 30  1  0  0  0  0
M  END
> <s_m_source_file>
AV-unprocessed.smi

> <i_m_source_file_index>
48

> <i_lp_mmshare_version>
43012

> <i_f3d_flags>
0

> <s_epik_input>
W09IXVtDSDJdW0NASF0xT1tDQEhdKFtDQEhdKFtPSF0pW0NAQEhdMVtPSF0pbihbY0hdbjIpYyhjMjMpbltjSF1uYzNDbA==

> <s_epik_cmdline>
J2VwaWtfcHl0aG9uJywgJy1waCcsICc3LjAnLCAnLXRuJywgJzgnLCAnLW1hJywgJzIwMCcsICctbWV0YWxfYmluZGluZycsICctaW1hZScsICc8aW5maWxlLm1hZT4nLCAnLW9tYWUnLCAnPG91dGZpbGUubWFlPic=

> <r_lp_tautomer_probability>
1

> <r_epik_Ionization_Penalty>
3.45505e-06

> <r_epik_Ionization_Penalty_Charging>
0

> <r_epik_Ionization_Penalty_Neutral>
3.45505e-06

> <r_epik_State_Penalty>
-0

> <r_epik_Charging_Adjusted_Penalty>
0

> <i_epik_Tot_Q>
0

> <i_epik_Tot_abs_Q>
0

> <r_epik_Metal_State_Penalty>
-0

> <b_epik_Metal_Only>
0

> <s_epik_Chemistry_Notes>
This compound contains an acetal/aminal-like group ( X-CH(R)-Y where X, Y are N, S, or O) that may be acid/base labile, releasing an aldehyde.

> <s_lp_Force_Field>
OPLS_2005

> <r_lp_Energy>
38.2719

> <b_lp_Chiralities_Consistent>
1

> <s_lp_Variant>
AV-unprocessed.smi:48-15

> <Gold.Version>
5.8.1

> <Gold.Id.Protein>
6NUR|6NUR_protein|mol2

> <Gold.PLP.Fitness>
43.6587

> <Gold.PLP.PLP>
-28.5433

> <Gold.PLP.part.hbond>
-7.4341

> <Gold.PLP.part.metal>
0.0000

> <Gold.PLP.part.buried>
0.7131

> <Gold.PLP.part.nonpolar>
-22.6694

> <Gold.PLP.part.repulsive>
2.1577

> <Gold.PLP.ligand.clash>
0.0000

> <Gold.PLP.ligand.torsion>
0.6609

> <Gold.PLP.Chemscore.Hbond>
5.1140

> <Gold.PLP.Chemscore.CHOScore>
0.3576

> <Gold.PLP.Chemscore.Metal>
0.0000

> <Gold.Chemscore.Hbonds>
donor molecule, donor type, donor heavy atom, donor atom, acceptor molecule, acceptor atom, score
      L1  H     1    24       P1  7957  0.85
      L1  H    17    29       P1  8028  0.98
      L1  H    19    30       P1 10175  0.90
      P1  H  7954  7966       L1     1  0.17
      P1  H  7989  7998       L1    14  1.00
      P1  H  7997  8008       L1    12  1.00
      L1  C     7    27       P1  8028  0.41

> <Gold.PLP.Chemscore.Internal.Correction>
0.0225

> <Gold.Rescore>
     Score         DG    S(hbond)    S(metal)    S(lipo)     H(rot)  DE(clash)    DE(int)     intcor
      7.80     -10.20       3.07        0.00      35.92       3.80       0.93       1.47       ----

> <Gold.Chemscore.Fitness>
7.7956

> <Gold.Chemscore.DG>
-10.1950

> <Gold.Chemscore.ZeroCoef>
-5.4800

> <Gold.Chemscore.Hbond>
3.0672

> <Gold.Chemscore.Metal>
0.0000

> <Gold.Chemscore.Lipo>
35.9237

> <Gold.Chemscore.Internal_Hbond>
0.0000

> <Gold.Chemscore.DEClash>
0.9268

> <Gold.Chemscore.DEInternal>
1.4726

> <Gold.Chemscore.Rot>
3.8017

> <Gold.Chemscore.Internal.Correction>
   9.000000E+99

> <Gold.Chemscore.Hbonds>
donor molecule, donor type, donor heavy atom, donor atom, acceptor molecule, acceptor atom, score
      L1  H     1    24       P1  7957  0.83
      L1  H    17    29       P1  8028  0.56
      L1  H    19    30       P1 10175  0.18
      P1  H  7954  7966       L1     1  0.02
      P1  H  7989  7998       L1    14  0.39
      P1  H  7997  8008       L1    12  0.10

> <Gold.Chemscore.Hbond.Weighted>
-10.2443

> <Gold.Chemscore.Metal.Weighted>
-0.0000

> <Gold.Chemscore.Lipo.Weighted>
-4.2031

> <Gold.Chemscore.Internal_Hbond.Weighted>
0.0000

> <Gold.Chemscore.DEClash.Weighted>
0.9268

> <Gold.Chemscore.DEInternal.Weighted>
1.4726

> <Gold.Chemscore.Rot.Weighted>
9.7324

> <Gold.Chemscore.Internal.Correction.Weighted>
   9.000000E+99

> <Gold.Protein.RotatedTorsions>
[ 6907 6896 6895 6894 ] final   55.15 input  -60.11 | X-H torsion
[ 7974 7965 7964 7962 ] final  105.23 input  175.53 | X-H torsion
[ 8008 7997 7996 7995 ] final  -62.33 input   59.86 | X-H torsion
[ 10167 10162 10161 10158 ] final   30.34 input  -65.29 | X-H torsion
[ 10718 10713 10712 10709 ] final  -86.81 input   66.30 | X-H torsion
[ 10763 10752 10751 10750 ] final  -77.18 input  -60.55 | X-H torsion
[ 11005 11000 10999 10996 ] final   16.17 input  -57.11 | X-H torsion

> <Gold.Protein.ActiveResidues>
 VAL166  LYS551  ARG553  GLY616  TRP617  ASP618  TYR619  PRO620  LYS621  CYS622 
 ASP623  PHE694  ASN695  SER759  ASP760  ASP761  ALA762  ILE779  LEU786  VAL792 
 PHE793  MET794  SER795  GLU796  ALA797  LYS798  CYS799  TRP800  GLU811  SER814 

> <Gold.Protein.RotatedAtoms>
  152.3510  134.7006  160.0236 H   0  0  0  0  0  0  0  0  0  0  0  0  # atno 6907 bound_to 6896
  151.7360  133.3314  159.3361 H   0  0  0  0  0  0  0  0  0  0  0  0  # atno 6908 bound_to 6896
  150.7540  134.6254  159.6203 H   0  0  0  0  0  0  0  0  0  0  0  0  # atno 6909 bound_to 6896
  145.3223  139.2509  143.3705 H   0  0  0  0  0  0  0  0  0  0  0  0  # atno 7974 bound_to 7965
  154.4494  140.0998  156.6571 H   0  0  0  0  0  0  0  0  0  0  0  0  # atno 8008 bound_to 7997
  155.5334  140.3482  155.4412 H   0  0  0  0  0  0  0  0  0  0  0  0  # atno 8009 bound_to 7997
  156.0648  140.1335  156.9888 H   0  0  0  0  0  0  0  0  0  0  0  0  # atno 8010 bound_to 7997
  140.4686  144.0797  150.6231 H   0  0  0  0  0  0  0  0  0  0  0  0  # atno 10167 bound_to 10162
  155.9988  130.4778  150.4771 H   0  0  0  0  0  0  0  0  0  0  0  0  # atno 10718 bound_to 10713
  154.5095  135.5773  153.6594 H   0  0  0  0  0  0  0  0  0  0  0  0  # atno 10763 bound_to 10752
  152.9894  135.6155  154.2897 H   0  0  0  0  0  0  0  0  0  0  0  0  # atno 10764 bound_to 10752
  154.2811  135.2851  155.2676 H   0  0  0  0  0  0  0  0  0  0  0  0  # atno 10765 bound_to 10752
  140.4501  134.1233  155.7701 H   0  0  0  0  0  0  0  0  0  0  0  0  # atno 11005 bound_to 11000
  146.3077  140.3783  142.8681 LP  0  0  0  0  0  0  0  0  0  0  0  0  # atno 17320 bound_to 7965
  144.8929  140.7547  143.5915 LP  0  0  0  0  0  0  0  0  0  0  0  0  # atno 17321 bound_to 7965
  140.4005  143.2706  151.9953 LP  0  0  0  0  0  0  0  0  0  0  0  0  # atno 17342 bound_to 10162
  139.4815  144.6001  151.7620 LP  0  0  0  0  0  0  0  0  0  0  0  0  # atno 17343 bound_to 10162
  157.2780  131.0601  151.2216 LP  0  0  0  0  0  0  0  0  0  0  0  0  # atno 17370 bound_to 10713
  157.3273  130.6967  149.6304 LP  0  0  0  0  0  0  0  0  0  0  0  0  # atno 17371 bound_to 10713
  141.1668  133.8687  157.1691 LP  0  0  0  0  0  0  0  0  0  0  0  0  # atno 17394 bound_to 11000
  140.0013  135.0027  157.0195 LP  0  0  0  0  0  0  0  0  0  0  0  0  # atno 17395 bound_to 11000

$$$$
