AV-unprocessed.smi:864|AV-procd|sdf|3989|dock3
  -GOLD-   22720 1463D 1   1.00000     0.00000
 Structure written by MMmdl.
 45 47  0  0  0  0  0  0  0  0  2 V2000
  144.3588  132.0228  149.6229 C   0  0  0  0  0  0  0  0  0  0  0  0
  144.7321  133.2745  150.3879 C   0  0  0  0  0  0  0  0  0  0  0  0
  145.9136  133.3658  151.1542 C   0  0  0  0  0  0  0  0  0  0  0  0
  146.1879  134.5577  151.8559 C   0  0  0  0  0  0  0  0  0  0  0  0
  145.2760  135.6341  151.7791 C   0  0  0  0  0  0  0  0  0  0  0  0
  145.5096  136.9078  152.5751 C   0  0  0  0  0  0  0  0  0  0  0  0
  146.0885  138.0662  151.7351 C   0  0  0  0  0  0  0  0  0  0  0  0
  147.4434  138.4291  152.1476 N   0  0  0  0  0  0  0  0  0  0  0  0
  147.9071  138.3766  153.4051 C   0  0  0  0  0  0  0  0  0  0  0  0
  147.2170  138.0932  154.3849 O   0  0  0  0  0  0  0  0  0  0  0  0
  149.2248  138.6103  153.4629 N   0  0  0  0  0  0  0  0  0  0  0  0
  150.0339  138.4821  154.6722 C   0  0  1  0  0  0  0  0  0  0  0  0
  151.5245  138.2580  154.3639 C   0  0  0  0  0  0  0  0  0  0  0  0
  152.2312  139.2543  155.2642 C   0  0  0  0  0  0  0  0  0  0  0  0
  153.4529  139.2657  155.4081 O   0  0  0  0  0  0  0  0  0  0  0  0
  151.3598  140.0765  155.8594 N   0  0  0  0  0  0  0  0  0  0  0  0
  151.7008  141.0417  156.8630 C   0  0  0  0  0  0  0  0  0  0  0  0
  151.2684  140.8582  158.3052 C   0  0  0  0  0  0  0  0  0  0  0  0
  150.5935  141.8938  157.4396 C   0  0  0  0  0  0  0  0  0  0  0  0
  149.9783  139.7704  155.5130 C   0  0  0  0  0  0  0  0  0  0  0  0
  144.1188  135.4903  150.9840 C   0  0  0  0  0  0  0  0  0  0  0  0
  143.8902  134.3307  150.3297 N   0  3  0  0  0  0  0  0  0  0  0  0
  145.1296  131.2576  149.7209 H   0  0  0  0  0  0  0  0  0  0  0  0
  144.2337  132.2464  148.5631 H   0  0  0  0  0  0  0  0  0  0  0  0
  143.4224  131.6122  150.0022 H   0  0  0  0  0  0  0  0  0  0  0  0
  146.5970  132.5312  151.2141 H   0  0  0  0  0  0  0  0  0  0  0  0
  147.0792  134.6347  152.4613 H   0  0  0  0  0  0  0  0  0  0  0  0
  144.5680  137.2220  153.0275 H   0  0  0  0  0  0  0  0  0  0  0  0
  146.1823  136.6844  153.4039 H   0  0  0  0  0  0  0  0  0  0  0  0
  146.1158  137.7777  150.6842 H   0  0  0  0  0  0  0  0  0  0  0  0
  145.4300  138.9346  151.7920 H   0  0  0  0  0  0  0  0  0  0  0  0
  148.0894  138.6794  151.4128 H   0  0  0  0  0  0  0  0  0  0  0  0
  149.7106  138.8392  152.6080 H   0  0  0  0  0  0  0  0  0  0  0  0
  149.6595  137.6499  155.2718 H   0  0  0  0  0  0  0  0  0  0  0  0
  151.8380  137.2366  154.5823 H   0  0  0  0  0  0  0  0  0  0  0  0
  151.7747  138.4821  153.3262 H   0  0  0  0  0  0  0  0  0  0  0  0
  152.6620  141.5359  156.7295 H   0  0  0  0  0  0  0  0  0  0  0  0
  150.6770  139.9880  158.5814 H   0  0  0  0  0  0  0  0  0  0  0  0
  151.9443  141.2182  159.0782 H   0  0  0  0  0  0  0  0  0  0  0  0
  150.8182  142.9400  157.6367 H   0  0  0  0  0  0  0  0  0  0  0  0
  149.5746  141.6891  157.1164 H   0  0  0  0  0  0  0  0  0  0  0  0
  149.5610  140.6069  154.9495 H   0  0  0  0  0  0  0  0  0  0  0  0
  149.3710  139.6281  156.4080 H   0  0  0  0  0  0  0  0  0  0  0  0
  143.3610  136.2523  150.8738 H   0  0  0  0  0  0  0  0  0  0  0  0
  143.0391  134.2455  149.7733 H   0  0  0  0  0  0  0  0  0  0  0  0
  1  2  1  0  0  0  0
  1 23  1  0  0  0  0
  1 24  1  0  0  0  0
  1 25  1  0  0  0  0
  2 22  1  0  0  0  0
  2  3  2  0  0  0  0
  3  4  1  0  0  0  0
  3 26  1  0  0  0  0
  4  5  2  0  0  0  0
  4 27  1  0  0  0  0
  5  6  1  0  0  0  0
  5 21  1  0  0  0  0
  6  7  1  0  0  0  0
  6 28  1  0  0  0  0
  6 29  1  0  0  0  0
  7  8  1  0  0  0  0
  7 30  1  0  0  0  0
  7 31  1  0  0  0  0
  8  9  1  0  0  0  0
  8 32  1  0  0  0  0
  9 10  2  0  0  0  0
  9 11  1  0  0  0  0
 11 12  1  0  0  0  0
 11 33  1  0  0  0  0
 12 20  1  0  0  0  0
 12 13  1  0  0  0  0
 12 34  1  0  0  0  0
 13 14  1  0  0  0  0
 13 35  1  0  0  0  0
 13 36  1  0  0  0  0
 14 15  2  0  0  0  0
 14 16  1  0  0  0  0
 16 17  1  0  0  0  0
 16 20  1  0  0  0  0
 17 19  1  0  0  0  0
 17 18  1  0  0  0  0
 17 37  1  0  0  0  0
 18 19  1  0  0  0  0
 18 38  1  0  0  0  0
 18 39  1  0  0  0  0
 19 40  1  0  0  0  0
 19 41  1  0  0  0  0
 20 42  1  0  0  0  0
 20 43  1  0  0  0  0
 21 22  2  0  0  0  0
 21 44  1  0  0  0  0
 22 45  1  0  0  0  0
M  CHG  1  22   1
M  END
> <s_m_source_file>
AV-unprocessed.smi

> <i_m_source_file_index>
864

> <i_lp_mmshare_version>
43012

> <i_f3d_flags>
0

> <s_epik_input>
W0NIM11jMVtjSF1bY0hdYyhbY0hdbjEpW0NIMl1bQ0gyXVtOSF1DKD1PKVtOSF1bQ0BASF0yW0NIMl1DKD1PKU4oW0NIMl0yKVtDSF0zW0NIMl1bQ0gyXTM=

> <s_epik_cmdline>
J2VwaWtfcHl0aG9uJywgJy1waCcsICc3LjAnLCAnLXRuJywgJzgnLCAnLW1hJywgJzIwMCcsICctbWV0YWxfYmluZGluZycsICctaW1hZScsICc8aW5maWxlLm1hZT4nLCAnLW9tYWUnLCAnPG91dGZpbGUubWFlPic=

> <r_epik_Ionization_Penalty>
1.42657

> <r_epik_Ionization_Penalty_Charging>
1.42653

> <r_epik_Ionization_Penalty_Neutral>
4.57062e-05

> <r_epik_State_Penalty>
1.51075

> <r_epik_Charging_Adjusted_Penalty>
2.93728

> <i_epik_Tot_Q>
1

> <i_epik_Tot_abs_Q>
1

> <r_epik_Metal_State_Penalty>
1.56242

> <b_epik_Metal_Only>
0

> <s_lp_Force_Field>
OPLS_2005

> <r_lp_Energy>
39.135

> <b_lp_Chiralities_Consistent>
1

> <s_lp_Variant>
AV-unprocessed.smi:864-4

> <Gold.Version>
5.8.1

> <Gold.Id.Protein>
6NUR|6NUR_protein|mol2

> <Gold.PLP.Fitness>
53.6200

> <Gold.PLP.PLP>
-42.0301

> <Gold.PLP.part.hbond>
-5.7681

> <Gold.PLP.part.metal>
0.0000

> <Gold.PLP.part.buried>
-0.5763

> <Gold.PLP.part.nonpolar>
-36.6259

> <Gold.PLP.part.repulsive>
0.3179

> <Gold.PLP.ligand.clash>
0.0000

> <Gold.PLP.ligand.torsion>
1.2406

> <Gold.PLP.Chemscore.Hbond>
4.6320

> <Gold.PLP.Chemscore.CHOScore>
0.0000

> <Gold.PLP.Chemscore.Metal>
0.0000

> <Gold.Chemscore.Hbonds>
donor molecule, donor type, donor heavy atom, donor atom, acceptor molecule, acceptor atom, score
      L1  H     8    32       P1  7957  0.77
      L1  H    11    33       P1  7957  0.83
      L1  H    22    45       P1 10186  1.92
      P1  H  7997  8009       L1    15  0.83

> <Gold.PLP.Chemscore.Internal.Correction>
0.1751

> <Gold.Rescore>
     Score         DG    S(hbond)    S(metal)    S(lipo)     H(rot)  DE(clash)    DE(int)     intcor
     19.50     -23.27       3.58        0.00      89.94       1.84       0.99       2.77       ----

> <Gold.Chemscore.Fitness>
19.5045

> <Gold.Chemscore.DG>
-23.2662

> <Gold.Chemscore.ZeroCoef>
-5.4800

> <Gold.Chemscore.Hbond>
3.5836

> <Gold.Chemscore.Metal>
0.0000

> <Gold.Chemscore.Lipo>
89.9360

> <Gold.Chemscore.Internal_Hbond>
0.0000

> <Gold.Chemscore.DEClash>
0.9878

> <Gold.Chemscore.DEInternal>
2.7738

> <Gold.Chemscore.Rot>
1.8381

> <Gold.Chemscore.Internal.Correction>
   9.000000E+99

> <Gold.Chemscore.Hbonds>
donor molecule, donor type, donor heavy atom, donor atom, acceptor molecule, acceptor atom, score
      L1  H     8    32       P1  7957  0.29
      L1  H    11    33       P1  7957  0.61
      L1  H    22    45       P1 10186  0.86
      P1  H  7997  8009       L1    15  0.80

> <Gold.Chemscore.Hbond.Weighted>
-11.9691

> <Gold.Chemscore.Metal.Weighted>
-0.0000

> <Gold.Chemscore.Lipo.Weighted>
-10.5225

> <Gold.Chemscore.Internal_Hbond.Weighted>
0.0000

> <Gold.Chemscore.DEClash.Weighted>
0.9878

> <Gold.Chemscore.DEInternal.Weighted>
2.7738

> <Gold.Chemscore.Rot.Weighted>
4.7054

> <Gold.Chemscore.Internal.Correction.Weighted>
   9.000000E+99

> <Gold.Protein.RotatedTorsions>
[ 6907 6896 6895 6894 ] final  -40.13 input  -60.11 | X-H torsion
[ 7974 7965 7964 7962 ] final -149.29 input  175.53 | X-H torsion
[ 8008 7997 7996 7995 ] final -153.13 input   59.86 | X-H torsion
[ 10167 10162 10161 10158 ] final   -5.25 input  -65.29 | X-H torsion
[ 10718 10713 10712 10709 ] final   61.20 input   66.30 | X-H torsion
[ 10763 10752 10751 10750 ] final   24.01 input  -60.55 | X-H torsion
[ 11005 11000 10999 10996 ] final -102.98 input  -57.11 | X-H torsion

> <Gold.Protein.ActiveResidues>
 VAL166  LYS551  ARG553  GLY616  TRP617  ASP618  TYR619  PRO620  LYS621  CYS622 
 ASP623  PHE694  ASN695  SER759  ASP760  ASP761  ALA762  ILE779  LEU786  VAL792 
 PHE793  MET794  SER795  GLU796  ALA797  LYS798  CYS799  TRP800  GLU811  SER814 

> <Gold.Protein.RotatedAtoms>
  150.9820  134.9173  159.7849 H   0  0  0  0  0  0  0  0  0  0  0  0  # atno 6907 bound_to 6896
  152.5225  134.3397  159.9222 H   0  0  0  0  0  0  0  0  0  0  0  0  # atno 6908 bound_to 6896
  151.3404  133.3924  159.2705 H   0  0  0  0  0  0  0  0  0  0  0  0  # atno 6909 bound_to 6896
  144.7976  140.5084  143.5729 H   0  0  0  0  0  0  0  0  0  0  0  0  # atno 7974 bound_to 7965
  155.6659  140.0728  157.2537 H   0  0  0  0  0  0  0  0  0  0  0  0  # atno 8008 bound_to 7997
  154.4133  140.1708  156.1878 H   0  0  0  0  0  0  0  0  0  0  0  0  # atno 8009 bound_to 7997
  155.9657  140.3366  155.6534 H   0  0  0  0  0  0  0  0  0  0  0  0  # atno 8010 bound_to 7997
  140.6956  143.6330  150.8506 H   0  0  0  0  0  0  0  0  0  0  0  0  # atno 10167 bound_to 10162
  157.5810  130.8981  149.9431 H   0  0  0  0  0  0  0  0  0  0  0  0  # atno 10718 bound_to 10713
  153.0795  135.6614  154.0074 H   0  0  0  0  0  0  0  0  0  0  0  0  # atno 10763 bound_to 10752
  153.9700  135.2965  155.3429 H   0  0  0  0  0  0  0  0  0  0  0  0  # atno 10764 bound_to 10752
  154.7191  135.5172  153.8856 H   0  0  0  0  0  0  0  0  0  0  0  0  # atno 10765 bound_to 10752
  141.1166  133.8602  157.1428 H   0  0  0  0  0  0  0  0  0  0  0  0  # atno 11005 bound_to 11000
  145.5633  139.1480  143.3329 LP  0  0  0  0  0  0  0  0  0  0  0  0  # atno 17320 bound_to 7965
  146.2249  140.5769  142.9001 LP  0  0  0  0  0  0  0  0  0  0  0  0  # atno 17321 bound_to 7965
  140.0047  143.5706  152.2862 LP  0  0  0  0  0  0  0  0  0  0  0  0  # atno 17342 bound_to 10162
  139.6408  144.7654  151.2342 LP  0  0  0  0  0  0  0  0  0  0  0  0  # atno 17343 bound_to 10162
  156.0856  130.3668  150.0494 LP  0  0  0  0  0  0  0  0  0  0  0  0  # atno 17370 bound_to 10713
  156.8633  130.9499  151.3616 LP  0  0  0  0  0  0  0  0  0  0  0  0  # atno 17371 bound_to 10713
  140.0092  134.9995  157.0359 LP  0  0  0  0  0  0  0  0  0  0  0  0  # atno 17394 bound_to 11000
  140.4629  134.1466  155.7193 LP  0  0  0  0  0  0  0  0  0  0  0  0  # atno 17395 bound_to 11000

$$$$
