AV-unprocessed.smi:1645|AV-procd|sdf|6608|dock2
  -GOLD-   22720 7313D 1   1.00000     0.00000
 Structure written by MMmdl.
 56 59  0  0  0  0  0  0  0  0  3 V2000
  146.2854  139.1311  154.0632 O   0  0  0  0  0  0  0  0  0  0  0  0
  147.1083  138.3324  153.6166 C   0  0  0  0  0  0  0  0  0  0  0  0
  148.4367  138.3978  153.8110 N   0  0  0  0  0  0  0  0  0  0  0  0
  149.1655  139.3265  154.6030 C   0  0  0  0  0  0  0  0  0  0  0  0
  150.5398  139.0857  154.8082 C   0  0  0  0  0  0  0  0  0  0  0  0
  151.2969  139.9704  155.6035 C   0  0  0  0  0  0  0  0  0  0  0  0
  150.6715  141.0916  156.2055 C   0  0  0  0  0  0  0  0  0  0  0  0
  151.3459  142.0307  157.0189 N   0  0  0  0  0  0  0  0  0  0  0  0
  150.8685  143.4153  156.9362 C   0  0  0  0  0  0  0  0  0  0  0  0
  151.8916  144.4029  157.5223 C   0  0  0  0  0  0  0  0  0  0  0  0
  152.2990  143.9980  158.9451 C   0  0  0  0  0  0  0  0  0  0  0  0
  152.8263  142.5573  158.9426 C   0  0  0  0  0  0  0  0  0  0  0  0
  151.7940  141.5881  158.3411 C   0  0  0  0  0  0  0  0  0  0  0  0
  149.3466  141.2730  155.9855 N   0  3  0  0  0  0  0  0  0  0  0  0
  148.5849  140.4544  155.2290 C   0  0  0  0  0  0  0  0  0  0  0  0
  146.7773  137.2890  152.8425 N   0  0  0  0  0  0  0  0  0  0  0  0
  145.4162  136.9516  152.4342 C   0  0  2  0  0  0  0  0  0  0  0  0
  144.3706  137.2315  153.5273 C   0  0  0  0  0  0  0  0  0  0  0  0
  143.3259  136.1058  153.3871 C   0  0  0  0  0  0  0  0  0  0  0  0
  143.7763  135.2919  152.2410 N   0  3  2  0  0  0  0  0  0  0  0  0
  143.3510  133.8758  152.2091 C   0  0  0  0  0  0  0  0  0  0  0  0
  143.8424  133.2277  150.8991 C   0  0  0  0  0  0  0  0  0  0  0  0
  145.3596  133.4207  150.6992 C   0  0  0  0  0  0  0  0  0  0  0  0
  145.7546  134.9040  150.8348 C   0  0  0  0  0  0  0  0  0  0  0  0
  145.2364  135.4544  152.1744 C   0  0  1  0  0  0  0  0  0  0  0  0
  148.9957  137.7250  153.3067 H   0  0  0  0  0  0  0  0  0  0  0  0
  151.0179  138.2280  154.3576 H   0  0  0  0  0  0  0  0  0  0  0  0
  152.3460  139.7600  155.7462 H   0  0  0  0  0  0  0  0  0  0  0  0
  150.6613  143.7096  155.9077 H   0  0  0  0  0  0  0  0  0  0  0  0
  149.9261  143.4901  157.4799 H   0  0  0  0  0  0  0  0  0  0  0  0
  152.7758  144.4347  156.8839 H   0  0  0  0  0  0  0  0  0  0  0  0
  151.4757  145.4110  157.5246 H   0  0  0  0  0  0  0  0  0  0  0  0
  153.0608  144.6784  159.3273 H   0  0  0  0  0  0  0  0  0  0  0  0
  151.4411  144.0782  159.6139 H   0  0  0  0  0  0  0  0  0  0  0  0
  153.7509  142.5099  158.3656 H   0  0  0  0  0  0  0  0  0  0  0  0
  153.0791  142.2495  159.9574 H   0  0  0  0  0  0  0  0  0  0  0  0
  150.9295  141.5042  159.0009 H   0  0  0  0  0  0  0  0  0  0  0  0
  152.2514  140.6006  158.2743 H   0  0  0  0  0  0  0  0  0  0  0  0
  147.5433  140.7326  155.1715 H   0  0  0  0  0  0  0  0  0  0  0  0
  147.5164  136.6839  152.5148 H   0  0  0  0  0  0  0  0  0  0  0  0
  145.1327  137.5120  151.5404 H   0  0  0  0  0  0  0  0  0  0  0  0
  144.8181  137.1930  154.5216 H   0  0  0  0  0  0  0  0  0  0  0  0
  143.9252  138.2197  153.4062 H   0  0  0  0  0  0  0  0  0  0  0  0
  143.3008  135.5012  154.2951 H   0  0  0  0  0  0  0  0  0  0  0  0
  142.3217  136.4922  153.2096 H   0  0  0  0  0  0  0  0  0  0  0  0
  143.7548  133.3463  153.0733 H   0  0  0  0  0  0  0  0  0  0  0  0
  142.2638  133.8186  152.2726 H   0  0  0  0  0  0  0  0  0  0  0  0
  143.5963  132.1656  150.8919 H   0  0  0  0  0  0  0  0  0  0  0  0
  143.3109  133.6716  150.0562 H   0  0  0  0  0  0  0  0  0  0  0  0
  145.9003  132.8325  151.4419 H   0  0  0  0  0  0  0  0  0  0  0  0
  145.6617  133.0389  149.7235 H   0  0  0  0  0  0  0  0  0  0  0  0
  146.8384  135.0053  150.7754 H   0  0  0  0  0  0  0  0  0  0  0  0
  145.3394  135.4782  150.0055 H   0  0  0  0  0  0  0  0  0  0  0  0
  145.6870  134.8918  152.9957 H   0  0  0  0  0  0  0  0  0  0  0  0
  143.4056  135.7351  151.4125 H   0  0  0  0  0  0  0  0  0  0  0  0
  148.8945  142.0782  156.4195 H   0  0  0  0  0  0  0  0  0  0  0  0
  1  2  2  0  0  0  0
  2  3  1  0  0  0  0
  2 16  1  0  0  0  0
  3  4  1  0  0  0  0
  3 26  1  0  0  0  0
  4 15  1  0  0  0  0
  4  5  2  0  0  0  0
  5  6  1  0  0  0  0
  5 27  1  0  0  0  0
  6  7  2  0  0  0  0
  6 28  1  0  0  0  0
  7  8  1  0  0  0  0
  7 14  1  0  0  0  0
  8 13  1  0  0  0  0
  8  9  1  0  0  0  0
  9 10  1  0  0  0  0
  9 29  1  0  0  0  0
  9 30  1  0  0  0  0
 10 11  1  0  0  0  0
 10 31  1  0  0  0  0
 10 32  1  0  0  0  0
 11 12  1  0  0  0  0
 11 33  1  0  0  0  0
 11 34  1  0  0  0  0
 12 13  1  0  0  0  0
 12 35  1  0  0  0  0
 12 36  1  0  0  0  0
 13 37  1  0  0  0  0
 13 38  1  0  0  0  0
 14 15  2  0  0  0  0
 14 56  1  0  0  0  0
 15 39  1  0  0  0  0
 16 17  1  0  0  0  0
 16 40  1  0  0  0  0
 17 25  1  0  0  0  0
 17 18  1  0  0  0  0
 17 41  1  0  0  0  0
 18 19  1  0  0  0  0
 18 42  1  0  0  0  0
 18 43  1  0  0  0  0
 19 20  1  0  0  0  0
 19 44  1  0  0  0  0
 19 45  1  0  0  0  0
 20 25  1  0  0  0  0
 20 21  1  0  0  0  0
 20 55  1  0  0  0  0
 21 22  1  0  0  0  0
 21 46  1  0  0  0  0
 21 47  1  0  0  0  0
 22 23  1  0  0  0  0
 22 48  1  0  0  0  0
 22 49  1  0  0  0  0
 23 24  1  0  0  0  0
 23 50  1  0  0  0  0
 23 51  1  0  0  0  0
 24 25  1  0  0  0  0
 24 52  1  0  0  0  0
 24 53  1  0  0  0  0
 25 54  1  0  0  0  0
M  CHG  1  14   1
M  CHG  1  20   1
M  END
> <s_m_source_file>
AV-unprocessed.smi

> <i_m_source_file_index>
1645

> <i_lp_mmshare_version>
43012

> <i_f3d_flags>
0

> <s_epik_input>
W0NIMl0xW0NIMl1bQ0gyXVtDSDJdW0NASF0oTjEyKVtDQEBIXShbQ0gyXVtDSDJdMilbTkhdQyg9TylbTkhdYzNbY0hdW2NIXWMobltjSF0zKU40W0NIMl1bQ0gyXVtDSDJdW0NIMl1bQ0gyXTQ=

> <s_epik_cmdline>
J2VwaWtfcHl0aG9uJywgJy1waCcsICc3LjAnLCAnLXRuJywgJzgnLCAnLW1hJywgJzIwMCcsICctbWV0YWxfYmluZGluZycsICctaW1hZScsICc8aW5maWxlLm1hZT4nLCAnLW9tYWUnLCAnPG91dGZpbGUubWFlPic=

> <r_lp_tautomer_probability>
0.999994

> <r_epik_Ionization_Penalty>
1.26838

> <r_epik_Ionization_Penalty_Charging>
1.26836

> <r_epik_Ionization_Penalty_Neutral>
1.95562e-05

> <r_epik_State_Penalty>
1.33841

> <r_epik_Charging_Adjusted_Penalty>
2.60677

> <i_epik_Tot_Q>
2

> <i_epik_Tot_abs_Q>
2

> <r_epik_Metal_State_Penalty>
1.40601

> <b_epik_Metal_Only>
0

> <s_lp_Force_Field>
OPLS_2005

> <r_lp_Energy>
57.8286

> <b_lp_Chiralities_Consistent>
1

> <s_lp_Variant>
AV-unprocessed.smi:1645-9

> <Gold.Version>
5.8.1

> <Gold.Id.Protein>
6NUR|6NUR_protein|mol2

> <Gold.PLP.Fitness>
48.2430

> <Gold.PLP.PLP>
-43.6902

> <Gold.PLP.part.hbond>
-2.2493

> <Gold.PLP.part.metal>
0.0000

> <Gold.PLP.part.buried>
-1.5854

> <Gold.PLP.part.nonpolar>
-40.6782

> <Gold.PLP.part.repulsive>
0.3452

> <Gold.PLP.ligand.clash>
0.0029

> <Gold.PLP.ligand.torsion>
0.8229

> <Gold.PLP.Chemscore.Hbond>
1.8960

> <Gold.PLP.Chemscore.CHOScore>
0.0000

> <Gold.PLP.Chemscore.Metal>
0.0000

> <Gold.Chemscore.Hbonds>
donor molecule, donor type, donor heavy atom, donor atom, acceptor molecule, acceptor atom, score
      L1  H     3    26       P1  7948  0.86
      L1  H    16    40       P1  7948  1.00

> <Gold.PLP.Chemscore.Internal.Correction>
0.5135

> <Gold.Rescore>
     Score         DG    S(hbond)    S(metal)    S(lipo)     H(rot)  DE(clash)    DE(int)     intcor
     18.75     -22.92       1.85        0.00     122.15       1.18       0.63       3.54       ----

> <Gold.Chemscore.Fitness>
18.7491

> <Gold.Chemscore.DG>
-22.9198

> <Gold.Chemscore.ZeroCoef>
-5.4800

> <Gold.Chemscore.Hbond>
1.8497

> <Gold.Chemscore.Metal>
0.0000

> <Gold.Chemscore.Lipo>
122.1477

> <Gold.Chemscore.Internal_Hbond>
0.0000

> <Gold.Chemscore.DEClash>
0.6323

> <Gold.Chemscore.DEInternal>
3.5384

> <Gold.Chemscore.Rot>
1.1833

> <Gold.Chemscore.Internal.Correction>
   9.000000E+99

> <Gold.Chemscore.Hbonds>
donor molecule, donor type, donor heavy atom, donor atom, acceptor molecule, acceptor atom, score
      L1  H     3    26       P1  7948  0.81
      L1  H    16    40       P1  7948  0.99

> <Gold.Chemscore.Hbond.Weighted>
-6.1779

> <Gold.Chemscore.Metal.Weighted>
-0.0000

> <Gold.Chemscore.Lipo.Weighted>
-14.2913

> <Gold.Chemscore.Internal_Hbond.Weighted>
0.0000

> <Gold.Chemscore.DEClash.Weighted>
0.6323

> <Gold.Chemscore.DEInternal.Weighted>
3.5384

> <Gold.Chemscore.Rot.Weighted>
3.0293

> <Gold.Chemscore.Internal.Correction.Weighted>
   9.000000E+99

> <Gold.Protein.RotatedTorsions>
[ 6907 6896 6895 6894 ] final -103.17 input  -60.11 | X-H torsion
[ 7974 7965 7964 7962 ] final -142.12 input  175.53 | X-H torsion
[ 8008 7997 7996 7995 ] final  -11.61 input   59.86 | X-H torsion
[ 10167 10162 10161 10158 ] final  -45.39 input  -65.29 | X-H torsion
[ 10718 10713 10712 10709 ] final   -6.08 input   66.30 | X-H torsion
[ 10763 10752 10751 10750 ] final  -61.34 input  -60.55 | X-H torsion
[ 11005 11000 10999 10996 ] final   35.14 input  -57.11 | X-H torsion

> <Gold.Protein.ActiveResidues>
 VAL166  LYS551  ARG553  GLY616  TRP617  ASP618  TYR619  PRO620  LYS621  CYS622 
 ASP623  PHE694  ASN695  SER759  ASP760  ASP761  ALA762  ILE779  LEU786  VAL792 
 PHE793  MET794  SER795  GLU796  ALA797  LYS798  CYS799  TRP800  GLU811  SER814 

> <Gold.Protein.RotatedAtoms>
  150.7228  134.0470  159.3785 H   0  0  0  0  0  0  0  0  0  0  0  0  # atno 6907 bound_to 6896
  151.8446  135.0576  160.0461 H   0  0  0  0  0  0  0  0  0  0  0  0  # atno 6908 bound_to 6896
  152.2837  133.5458  159.5550 H   0  0  0  0  0  0  0  0  0  0  0  0  # atno 6909 bound_to 6896
  144.8468  140.5997  143.5416 H   0  0  0  0  0  0  0  0  0  0  0  0  # atno 7974 bound_to 7965
  154.5450  140.2298  155.8578 H   0  0  0  0  0  0  0  0  0  0  0  0  # atno 8008 bound_to 7997
  156.1894  140.3081  155.9264 H   0  0  0  0  0  0  0  0  0  0  0  0  # atno 8009 bound_to 7997
  155.3183  140.0439  157.3029 H   0  0  0  0  0  0  0  0  0  0  0  0  # atno 8010 bound_to 7997
  140.6860  143.2882  151.3632 H   0  0  0  0  0  0  0  0  0  0  0  0  # atno 10167 bound_to 10162
  156.7372  130.5198  149.5832 H   0  0  0  0  0  0  0  0  0  0  0  0  # atno 10718 bound_to 10713
  154.2831  135.6268  153.5355 H   0  0  0  0  0  0  0  0  0  0  0  0  # atno 10763 bound_to 10752
  152.9863  135.5638  154.5473 H   0  0  0  0  0  0  0  0  0  0  0  0  # atno 10764 bound_to 10752
  154.5068  135.2875  155.1351 H   0  0  0  0  0  0  0  0  0  0  0  0  # atno 10765 bound_to 10752
  140.2457  134.3363  155.7909 H   0  0  0  0  0  0  0  0  0  0  0  0  # atno 11005 bound_to 11000
  145.4582  139.1516  143.3881 LP  0  0  0  0  0  0  0  0  0  0  0  0  # atno 17320 bound_to 7965
  146.2750  140.4710  142.8799 LP  0  0  0  0  0  0  0  0  0  0  0  0  # atno 17321 bound_to 7965
  139.6218  144.0891  152.2398 LP  0  0  0  0  0  0  0  0  0  0  0  0  # atno 17342 bound_to 10162
  140.0338  144.6060  150.7466 LP  0  0  0  0  0  0  0  0  0  0  0  0  # atno 17343 bound_to 10162
  156.1489  130.6296  151.0569 LP  0  0  0  0  0  0  0  0  0  0  0  0  # atno 17370 bound_to 10713
  157.6834  131.0832  150.7309 LP  0  0  0  0  0  0  0  0  0  0  0  0  # atno 17371 bound_to 10713
  141.2206  133.7324  156.8956 LP  0  0  0  0  0  0  0  0  0  0  0  0  # atno 17394 bound_to 11000
  140.1609  134.9166  157.2713 LP  0  0  0  0  0  0  0  0  0  0  0  0  # atno 17395 bound_to 11000

$$$$
