AV-unprocessed.smi:2558|AV-procd|sdf|10033|dock9
  -GOLD-   2272014 73D 1   1.00000     0.00000
 Structure written by MMmdl.
 42 43  0  0  0  0  0  0  0  0  2 V2000
  150.6930  139.5891  154.7540 C   0  0  0  0  0  0  0  0  0  0  0  0
  152.0672  138.6588  155.5508 S   0  0  0  0  0  0  0  0  0  0  0  0
  152.1783  137.3440  154.8988 O   0  0  0  0  0  0  0  0  0  0  0  0
  153.2467  139.5375  155.6026 O   0  0  0  0  0  0  0  0  0  0  0  0
  151.4799  138.4397  157.1866 N   0  0  0  0  0  0  0  0  0  0  0  0
  150.8542  137.2520  157.6372 C   0  0  0  0  0  0  0  0  0  0  0  0
  151.0654  136.8629  158.7880 O   0  0  0  0  0  0  0  0  0  0  0  0
  149.9734  136.7444  156.7331 N   0  5  0  0  0  0  0  0  0  0  0  0
  149.8531  135.4307  156.4163 C   0  0  0  0  0  0  0  0  0  0  0  0
  149.8140  134.4785  157.1988 O   0  0  0  0  0  0  0  0  0  0  0  0
  149.8000  135.2252  155.0881 N   0  0  0  0  0  0  0  0  0  0  0  0
  149.6205  134.0039  154.3855 C   0  0  0  0  0  0  0  0  0  0  0  0
  150.1844  132.8327  154.9307 C   0  0  0  0  0  0  0  0  0  0  0  0
  150.0424  131.6168  154.2352 C   0  0  0  0  0  0  0  0  0  0  0  0
  149.3488  131.6244  153.0096 C   0  0  0  0  0  0  0  0  0  0  0  0
  148.8189  132.7393  152.4641 N   0  0  0  0  0  0  0  0  0  0  0  0
  148.9560  133.9018  153.1386 C   0  0  0  0  0  0  0  0  0  0  0  0
  151.6002  139.6144  158.0933 C   0  0  0  0  0  0  0  0  0  0  0  0
  151.0670  140.9098  157.4459 C   0  0  0  0  0  0  0  0  0  0  0  0
  151.1171  142.0782  158.4443 C   0  0  0  0  0  0  0  0  0  0  0  0
  152.5327  142.2666  159.0167 C   0  0  0  0  0  0  0  0  0  0  0  0
  153.0543  140.9736  159.6673 C   0  0  0  0  0  0  0  0  0  0  0  0
  153.0214  139.7991  158.6760 C   0  0  0  0  0  0  0  0  0  0  0  0
  150.9586  139.8122  153.7212 H   0  0  0  0  0  0  0  0  0  0  0  0
  150.5214  140.5195  155.2946 H   0  0  0  0  0  0  0  0  0  0  0  0
  149.7847  138.9874  154.7727 H   0  0  0  0  0  0  0  0  0  0  0  0
  149.9626  136.0389  154.5135 H   0  0  0  0  0  0  0  0  0  0  0  0
  150.7143  132.8622  155.8716 H   0  0  0  0  0  0  0  0  0  0  0  0
  150.4566  130.7013  154.6308 H   0  0  0  0  0  0  0  0  0  0  0  0
  149.2224  130.7104  152.4481 H   0  0  0  0  0  0  0  0  0  0  0  0
  148.5407  134.7670  152.6445 H   0  0  0  0  0  0  0  0  0  0  0  0
  150.9637  139.4215  158.9569 H   0  0  0  0  0  0  0  0  0  0  0  0
  151.6530  141.1735  156.5662 H   0  0  0  0  0  0  0  0  0  0  0  0
  150.0427  140.7626  157.1021 H   0  0  0  0  0  0  0  0  0  0  0  0
  150.7879  142.9962  157.9573 H   0  0  0  0  0  0  0  0  0  0  0  0
  150.4159  141.8921  159.2588 H   0  0  0  0  0  0  0  0  0  0  0  0
  153.2105  142.5717  158.2183 H   0  0  0  0  0  0  0  0  0  0  0  0
  152.5322  143.0758  159.7475 H   0  0  0  0  0  0  0  0  0  0  0  0
  154.0712  141.1239  160.0306 H   0  0  0  0  0  0  0  0  0  0  0  0
  152.4468  140.7326  160.5407 H   0  0  0  0  0  0  0  0  0  0  0  0
  153.3439  138.8845  159.1747 H   0  0  0  0  0  0  0  0  0  0  0  0
  153.7463  139.9947  157.8855 H   0  0  0  0  0  0  0  0  0  0  0  0
  1  2  1  0  0  0  0
  1 24  1  0  0  0  0
  1 25  1  0  0  0  0
  1 26  1  0  0  0  0
  2  3  2  0  0  0  0
  2  4  2  0  0  0  0
  2  5  1  0  0  0  0
  5  6  1  0  0  0  0
  5 18  1  0  0  0  0
  6  7  2  0  0  0  0
  6  8  1  0  0  0  0
  8  9  1  0  0  0  0
  9 10  2  0  0  0  0
  9 11  1  0  0  0  0
 11 12  1  0  0  0  0
 11 27  1  0  0  0  0
 12 17  1  0  0  0  0
 12 13  2  0  0  0  0
 13 14  1  0  0  0  0
 13 28  1  0  0  0  0
 14 15  2  0  0  0  0
 14 29  1  0  0  0  0
 15 16  1  0  0  0  0
 15 30  1  0  0  0  0
 16 17  2  0  0  0  0
 17 31  1  0  0  0  0
 18 23  1  0  0  0  0
 18 19  1  0  0  0  0
 18 32  1  0  0  0  0
 19 20  1  0  0  0  0
 19 33  1  0  0  0  0
 19 34  1  0  0  0  0
 20 21  1  0  0  0  0
 20 35  1  0  0  0  0
 20 36  1  0  0  0  0
 21 22  1  0  0  0  0
 21 37  1  0  0  0  0
 21 38  1  0  0  0  0
 22 23  1  0  0  0  0
 22 39  1  0  0  0  0
 22 40  1  0  0  0  0
 23 41  1  0  0  0  0
 23 42  1  0  0  0  0
M  CHG  1   8  -1
M  END
> <s_m_source_file>
AV-unprocessed.smi

> <i_m_source_file_index>
2558

> <i_lp_mmshare_version>
43012

> <i_f3d_flags>
0

> <s_epik_input>
W0NIMl0xW0NIMl1bQ0gyXVtDSDJdW0NIMl1bQ0hdMU4oUyg9TykoPU8pW0NIM10pQyg9TylbTkhdQyg9TylbTkhdYzJbY0hdW2NIXVtjSF1uW2NIXTI=

> <s_epik_cmdline>
J2VwaWtfcHl0aG9uJywgJy1waCcsICc3LjAnLCAnLXRuJywgJzgnLCAnLW1hJywgJzIwMCcsICctbWV0YWxfYmluZGluZycsICctaW1hZScsICc8aW5maWxlLm1hZT4nLCAnLW9tYWUnLCAnPG91dGZpbGUubWFlPic=

> <r_epik_Ionization_Penalty>
6.14208

> <r_epik_Ionization_Penalty_Charging>
6.14039

> <r_epik_Ionization_Penalty_Neutral>
0.00168563

> <r_epik_State_Penalty>
6.14513

> <r_epik_Charging_Adjusted_Penalty>
12.2855

> <i_epik_Tot_Q>
-1

> <i_epik_Tot_abs_Q>
1

> <r_epik_Metal_State_Penalty>
2.09011

> <b_epik_Metal_Only>
1

> <s_lp_Force_Field>
OPLS_2005

> <r_lp_Energy>
23.9967

> <b_lp_Chiralities_Consistent>
1

> <s_lp_Variant>
AV-unprocessed.smi:2558-2

> <Gold.Version>
5.8.1

> <Gold.Id.Protein>
6NUR|6NUR_protein|mol2

> <Gold.PLP.Fitness>
48.2846

> <Gold.PLP.PLP>
-36.5775

> <Gold.PLP.part.hbond>
-3.8827

> <Gold.PLP.part.metal>
0.0000

> <Gold.PLP.part.buried>
-6.3043

> <Gold.PLP.part.nonpolar>
-27.4424

> <Gold.PLP.part.repulsive>
0.2706

> <Gold.PLP.ligand.clash>
0.0000

> <Gold.PLP.ligand.torsion>
3.0020

> <Gold.PLP.Chemscore.Hbond>
3.7680

> <Gold.PLP.Chemscore.CHOScore>
1.0000

> <Gold.PLP.Chemscore.Metal>
0.0000

> <Gold.Chemscore.Hbonds>
donor molecule, donor type, donor heavy atom, donor atom, acceptor molecule, acceptor atom, score
      P1  H  6896  6908       L1    10  0.14
      P1  H  6896  6909       L1     7  0.59
      P1  H  7997  8010       L1     4  0.67
      P1  H 10752 10765       L1     3  0.77
      L1  C    15    30       P1 10747  0.63
      L1  C    17    31       P1  7948  0.08

> <Gold.PLP.Chemscore.Internal.Correction>
3.4070

> <Gold.Rescore>
     Score         DG    S(hbond)    S(metal)    S(lipo)     H(rot)  DE(clash)    DE(int)     intcor
     18.36     -24.42       3.77        0.00      76.00       1.00       0.00       6.05       ----

> <Gold.Chemscore.Fitness>
18.3610

> <Gold.Chemscore.DG>
-24.4162

> <Gold.Chemscore.ZeroCoef>
-5.4800

> <Gold.Chemscore.Hbond>
3.7739

> <Gold.Chemscore.Metal>
0.0000

> <Gold.Chemscore.Lipo>
75.9955

> <Gold.Chemscore.Internal_Hbond>
0.0000

> <Gold.Chemscore.DEClash>
0.0029

> <Gold.Chemscore.DEInternal>
6.0523

> <Gold.Chemscore.Rot>
1.0000

> <Gold.Chemscore.Internal.Correction>
   9.000000E+99

> <Gold.Chemscore.Hbonds>
donor molecule, donor type, donor heavy atom, donor atom, acceptor molecule, acceptor atom, score
      P1  H  6896  6908       L1    10  0.15
      P1  H  6896  6909       L1     7  0.58
      P1  H  7997  8010       L1     4  0.67
      P1  H 10752 10765       L1     3  0.77

> <Gold.Chemscore.Hbond.Weighted>
-12.6048

> <Gold.Chemscore.Metal.Weighted>
-0.0000

> <Gold.Chemscore.Lipo.Weighted>
-8.8915

> <Gold.Chemscore.Internal_Hbond.Weighted>
0.0000

> <Gold.Chemscore.DEClash.Weighted>
0.0029

> <Gold.Chemscore.DEInternal.Weighted>
6.0523

> <Gold.Chemscore.Rot.Weighted>
2.5600

> <Gold.Chemscore.Internal.Correction.Weighted>
   9.000000E+99

> <Gold.Protein.RotatedTorsions>
[ 6907 6896 6895 6894 ] final  121.28 input  -60.11 | X-H torsion
[ 7974 7965 7964 7962 ] final   57.87 input  175.53 | X-H torsion
[ 8008 7997 7996 7995 ] final  104.21 input   59.86 | X-H torsion
[ 10167 10162 10161 10158 ] final -111.75 input  -65.29 | X-H torsion
[ 10718 10713 10712 10709 ] final   85.48 input   66.30 | X-H torsion
[ 10763 10752 10751 10750 ] final -177.22 input  -60.55 | X-H torsion
[ 11005 11000 10999 10996 ] final   61.43 input  -57.11 | X-H torsion

> <Gold.Protein.ActiveResidues>
 VAL166  LYS551  ARG553  GLY616  TRP617  ASP618  TYR619  PRO620  LYS621  CYS622 
 ASP623  PHE694  ASN695  SER759  ASP760  ASP761  ALA762  ILE779  LEU786  VAL792 
 PHE793  MET794  SER795  GLU796  ALA797  LYS798  CYS799  TRP800  GLU811  SER814 

> <Gold.Protein.RotatedAtoms>
  152.4333  133.7317  159.6590 H   0  0  0  0  0  0  0  0  0  0  0  0  # atno 6907 bound_to 6896
  150.8215  133.8235  159.3143 H   0  0  0  0  0  0  0  0  0  0  0  0  # atno 6908 bound_to 6896
  151.5916  135.1055  160.0092 H   0  0  0  0  0  0  0  0  0  0  0  0  # atno 6909 bound_to 6896
  145.9243  139.3755  143.0459 H   0  0  0  0  0  0  0  0  0  0  0  0  # atno 7974 bound_to 7965
  156.1552  140.3152  155.8714 H   0  0  0  0  0  0  0  0  0  0  0  0  # atno 8008 bound_to 7997
  155.3892  140.0492  157.3058 H   0  0  0  0  0  0  0  0  0  0  0  0  # atno 8009 bound_to 7997
  154.5095  140.2159  155.9196 H   0  0  0  0  0  0  0  0  0  0  0  0  # atno 8010 bound_to 7997
  140.1302  143.4367  152.1633 H   0  0  0  0  0  0  0  0  0  0  0  0  # atno 10167 bound_to 10162
  157.6915  131.0176  150.2828 H   0  0  0  0  0  0  0  0  0  0  0  0  # atno 10718 bound_to 10713
  154.5628  135.2821  155.0902 H   0  0  0  0  0  0  0  0  0  0  0  0  # atno 10763 bound_to 10752
  154.2305  135.6375  153.5177 H   0  0  0  0  0  0  0  0  0  0  0  0  # atno 10764 bound_to 10752
  153.0034  135.5536  154.6228 H   0  0  0  0  0  0  0  0  0  0  0  0  # atno 10765 bound_to 10752
  140.0161  134.6222  155.9707 H   0  0  0  0  0  0  0  0  0  0  0  0  # atno 11005 bound_to 11000
  145.8509  140.9529  143.0750 LP  0  0  0  0  0  0  0  0  0  0  0  0  # atno 17320 bound_to 7965
  144.6757  140.0405  143.7481 LP  0  0  0  0  0  0  0  0  0  0  0  0  # atno 17321 bound_to 7965
  139.5524  144.7347  151.4396 LP  0  0  0  0  0  0  0  0  0  0  0  0  # atno 17342 bound_to 10162
  140.6821  143.8057  150.7136 LP  0  0  0  0  0  0  0  0  0  0  0  0  # atno 17343 bound_to 10162
  156.3372  130.3809  149.7440 LP  0  0  0  0  0  0  0  0  0  0  0  0  # atno 17370 bound_to 10713
  156.4960  130.8107  151.3114 LP  0  0  0  0  0  0  0  0  0  0  0  0  # atno 17371 bound_to 10713
  141.1744  133.6539  156.4771 LP  0  0  0  0  0  0  0  0  0  0  0  0  # atno 17394 bound_to 11000
  140.4468  134.6965  157.5019 LP  0  0  0  0  0  0  0  0  0  0  0  0  # atno 17395 bound_to 11000

$$$$
