AV-unprocessed.smi:1780|AV-procd|sdf|7183|dock10
  -GOLD-   22720 8423D 1   1.00000     0.00000
 Structure written by MMmdl.
 43 44  0  0  0  0  0  0  0  0  1 V2000
  145.2598  130.7624  151.6107 C   0  0  0  0  0  0  0  0  0  0  0  0
  144.3256  131.7943  150.9677 C   0  0  0  0  0  0  0  0  0  0  0  0
  144.5800  133.1332  151.4627 N   0  0  0  0  0  0  0  0  0  0  0  0
  145.7434  133.8713  151.3712 C   0  0  0  0  0  0  0  0  0  0  0  0
  145.4790  135.0598  151.9827 C   0  0  0  0  0  0  0  0  0  0  0  0
  146.4062  136.1228  152.1214 N   0  0  0  0  0  0  0  0  0  0  0  0
  146.1710  137.3440  152.6273 C   0  0  0  0  0  0  0  0  0  0  0  0
  145.0746  137.7502  153.0121 O   0  0  0  0  0  0  0  0  0  0  0  0
  147.2938  138.0760  152.6718 N   0  0  0  0  0  0  0  0  0  0  0  0
  147.3994  139.4419  153.1815 C   0  0  0  0  0  0  0  0  0  0  0  0
  148.5833  139.6378  154.1720 C   0  0  2  0  0  0  0  0  0  0  0  0
  148.9950  141.1321  154.1865 C   0  0  0  0  0  0  0  0  0  0  0  0
  149.7264  138.7339  153.8998 N   0  0  0  0  0  0  0  0  0  0  0  0
  149.5735  137.4158  154.5268 C   0  0  0  0  0  0  0  0  0  0  0  0
  150.7732  136.4877  154.2696 C   0  0  0  0  0  0  0  0  0  0  0  0
  151.9667  137.1084  154.7260 O   0  0  0  0  0  0  0  0  0  0  0  0
  152.1972  138.3538  154.0830 C   0  0  0  0  0  0  0  0  0  0  0  0
  151.0090  139.2969  154.3392 C   0  0  0  0  0  0  0  0  0  0  0  0
  144.1289  134.9762  152.4269 C   0  0  0  0  0  0  0  0  0  0  0  0
  143.5954  133.8066  152.1074 N   0  0  0  0  0  0  0  0  0  0  0  0
  145.0470  129.7611  151.2361 H   0  0  0  0  0  0  0  0  0  0  0  0
  145.1410  130.7452  152.6944 H   0  0  0  0  0  0  0  0  0  0  0  0
  146.3048  130.9837  151.3913 H   0  0  0  0  0  0  0  0  0  0  0  0
  144.4458  131.7919  149.8836 H   0  0  0  0  0  0  0  0  0  0  0  0
  143.2855  131.5382  151.1722 H   0  0  0  0  0  0  0  0  0  0  0  0
  146.6343  133.4947  150.8909 H   0  0  0  0  0  0  0  0  0  0  0  0
  147.3515  135.9243  151.8289 H   0  0  0  0  0  0  0  0  0  0  0  0
  148.1462  137.6551  152.3325 H   0  0  0  0  0  0  0  0  0  0  0  0
  147.5287  140.0529  152.2902 H   0  0  0  0  0  0  0  0  0  0  0  0
  146.4659  139.7686  153.6429 H   0  0  0  0  0  0  0  0  0  0  0  0
  148.2039  139.4055  155.1684 H   0  0  0  0  0  0  0  0  0  0  0  0
  148.1512  141.7932  154.3768 H   0  0  0  0  0  0  0  0  0  0  0  0
  149.4360  141.4284  153.2341 H   0  0  0  0  0  0  0  0  0  0  0  0
  149.7087  141.3621  154.9756 H   0  0  0  0  0  0  0  0  0  0  0  0
  149.4290  137.5315  155.6020 H   0  0  0  0  0  0  0  0  0  0  0  0
  148.6942  136.9049  154.1401 H   0  0  0  0  0  0  0  0  0  0  0  0
  150.6401  135.5429  154.7966 H   0  0  0  0  0  0  0  0  0  0  0  0
  150.8591  136.2524  153.2075 H   0  0  0  0  0  0  0  0  0  0  0  0
  153.1172  138.7896  154.4726 H   0  0  0  0  0  0  0  0  0  0  0  0
  152.3450  138.1994  153.0131 H   0  0  0  0  0  0  0  0  0  0  0  0
  151.2233  140.2246  153.8123 H   0  0  0  0  0  0  0  0  0  0  0  0
  150.9620  139.5381  155.4022 H   0  0  0  0  0  0  0  0  0  0  0  0
  143.5260  135.6978  152.9574 H   0  0  0  0  0  0  0  0  0  0  0  0
  1  2  1  0  0  0  0
  1 21  1  0  0  0  0
  1 22  1  0  0  0  0
  1 23  1  0  0  0  0
  2  3  1  0  0  0  0
  2 24  1  0  0  0  0
  2 25  1  0  0  0  0
  3 20  1  0  0  0  0
  3  4  1  0  0  0  0
  4  5  2  0  0  0  0
  4 26  1  0  0  0  0
  5  6  1  0  0  0  0
  5 19  1  0  0  0  0
  6  7  1  0  0  0  0
  6 27  1  0  0  0  0
  7  8  2  0  0  0  0
  7  9  1  0  0  0  0
  9 10  1  0  0  0  0
  9 28  1  0  0  0  0
 10 11  1  0  0  0  0
 10 29  1  0  0  0  0
 10 30  1  0  0  0  0
 11 12  1  0  0  0  0
 11 13  1  0  0  0  0
 11 31  1  0  0  0  0
 12 32  1  0  0  0  0
 12 33  1  0  0  0  0
 12 34  1  0  0  0  0
 13 18  1  0  0  0  0
 13 14  1  0  0  0  0
 14 15  1  0  0  0  0
 14 35  1  0  0  0  0
 14 36  1  0  0  0  0
 15 16  1  0  0  0  0
 15 37  1  0  0  0  0
 15 38  1  0  0  0  0
 16 17  1  0  0  0  0
 17 18  1  0  0  0  0
 17 39  1  0  0  0  0
 17 40  1  0  0  0  0
 18 41  1  0  0  0  0
 18 42  1  0  0  0  0
 19 20  2  0  0  0  0
 19 43  1  0  0  0  0
M  END
> <s_m_source_file>
AV-unprocessed.smi

> <i_m_source_file_index>
1780

> <i_lp_mmshare_version>
43012

> <i_f3d_flags>
0

> <s_epik_input>
W0NIM11bQ0gyXW4xW2NIXWMoW2NIXW4xKVtOSF1DKD1PKVtOSF1bQ0gyXVtDQEhdKFtDSDNdKU4yW0NIMl1bQ0gyXU9bQ0gyXVtDSDJdMg==

> <s_epik_cmdline>
J2VwaWtfcHl0aG9uJywgJy1waCcsICc3LjAnLCAnLXRuJywgJzgnLCAnLW1hJywgJzIwMCcsICctbWV0YWxfYmluZGluZycsICctaW1hZScsICc8aW5maWxlLm1hZT4nLCAnLW9tYWUnLCAnPG91dGZpbGUubWFlPic=

> <r_lp_tautomer_probability>
1

> <r_epik_Ionization_Penalty>
0.242902

> <r_epik_Ionization_Penalty_Charging>
0

> <r_epik_Ionization_Penalty_Neutral>
0.242902

> <r_epik_State_Penalty>
0.233765

> <r_epik_Charging_Adjusted_Penalty>
0.233765

> <i_epik_Tot_Q>
0

> <i_epik_Tot_abs_Q>
0

> <r_epik_Metal_State_Penalty>
0.233759

> <b_epik_Metal_Only>
0

> <s_lp_Force_Field>
OPLS_2005

> <r_lp_Energy>
32.6304

> <b_lp_Chiralities_Consistent>
1

> <s_lp_Variant>
AV-unprocessed.smi:1780-1

> <Gold.Version>
5.8.1

> <Gold.Id.Protein>
6NUR|6NUR_protein|mol2

> <Gold.PLP.Fitness>
39.0425

> <Gold.PLP.PLP>
-32.9597

> <Gold.PLP.part.hbond>
-3.0000

> <Gold.PLP.part.metal>
0.0000

> <Gold.PLP.part.buried>
-3.4824

> <Gold.PLP.part.nonpolar>
-28.7452

> <Gold.PLP.part.repulsive>
1.9686

> <Gold.PLP.ligand.clash>
0.7649

> <Gold.PLP.ligand.torsion>
1.0832

> <Gold.PLP.Chemscore.Hbond>
2.9920

> <Gold.PLP.Chemscore.CHOScore>
0.0000

> <Gold.PLP.Chemscore.Metal>
0.0000

> <Gold.Chemscore.Hbonds>
donor molecule, donor type, donor heavy atom, donor atom, acceptor molecule, acceptor atom, score
      L1  H     6    27       P1  7948  1.00
      L1  H     9    28       P1  7948  0.98
      P1  H 10752 10765       L1    16  0.62

> <Gold.PLP.Chemscore.Internal.Correction>
0.0381

> <Gold.Rescore>
     Score         DG    S(hbond)    S(metal)    S(lipo)     H(rot)  DE(clash)    DE(int)     intcor
     15.60     -18.79       2.52        0.00      76.94       1.61       0.14       3.05       ----

> <Gold.Chemscore.Fitness>
15.5976

> <Gold.Chemscore.DG>
-18.7888

> <Gold.Chemscore.ZeroCoef>
-5.4800

> <Gold.Chemscore.Hbond>
2.5249

> <Gold.Chemscore.Metal>
0.0000

> <Gold.Chemscore.Lipo>
76.9375

> <Gold.Chemscore.Internal_Hbond>
0.0000

> <Gold.Chemscore.DEClash>
0.1402

> <Gold.Chemscore.DEInternal>
3.0510

> <Gold.Chemscore.Rot>
1.6117

> <Gold.Chemscore.Internal.Correction>
   9.000000E+99

> <Gold.Chemscore.Hbonds>
donor molecule, donor type, donor heavy atom, donor atom, acceptor molecule, acceptor atom, score
      L1  H     6    27       P1  7948  0.96
      L1  H     9    28       P1  7948  0.93
      P1  H 10752 10765       L1    16  0.12

> <Gold.Chemscore.Hbond.Weighted>
-8.4331

> <Gold.Chemscore.Metal.Weighted>
-0.0000

> <Gold.Chemscore.Lipo.Weighted>
-9.0017

> <Gold.Chemscore.Internal_Hbond.Weighted>
0.0000

> <Gold.Chemscore.DEClash.Weighted>
0.1402

> <Gold.Chemscore.DEInternal.Weighted>
3.0510

> <Gold.Chemscore.Rot.Weighted>
4.1260

> <Gold.Chemscore.Internal.Correction.Weighted>
   9.000000E+99

> <Gold.Protein.RotatedTorsions>
[ 6907 6896 6895 6894 ] final -131.91 input  -60.11 | X-H torsion
[ 7974 7965 7964 7962 ] final  -17.05 input  175.53 | X-H torsion
[ 8008 7997 7996 7995 ] final   75.20 input   59.86 | X-H torsion
[ 10167 10162 10161 10158 ] final  171.16 input  -65.29 | X-H torsion
[ 10718 10713 10712 10709 ] final   42.85 input   66.30 | X-H torsion
[ 10763 10752 10751 10750 ] final -162.31 input  -60.55 | X-H torsion
[ 11005 11000 10999 10996 ] final -144.97 input  -57.11 | X-H torsion

> <Gold.Protein.ActiveResidues>
 VAL166  LYS551  ARG553  GLY616  TRP617  ASP618  TYR619  PRO620  LYS621  CYS622 
 ASP623  PHE694  ASN695  SER759  ASP760  ASP761  ALA762  ILE779  LEU786  VAL792 
 PHE793  MET794  SER795  GLU796  ALA797  LYS798  CYS799  TRP800  GLU811  SER814 

> <Gold.Protein.RotatedAtoms>
  150.9564  133.6493  159.2762 H   0  0  0  0  0  0  0  0  0  0  0  0  # atno 6907 bound_to 6896
  151.3831  135.0942  159.9512 H   0  0  0  0  0  0  0  0  0  0  0  0  # atno 6908 bound_to 6896
  152.5130  133.9094  159.7535 H   0  0  0  0  0  0  0  0  0  0  0  0  # atno 6909 bound_to 6896
  146.1959  140.3724  142.8441 H   0  0  0  0  0  0  0  0  0  0  0  0  # atno 7974 bound_to 7965
  155.8095  140.3473  155.5449 H   0  0  0  0  0  0  0  0  0  0  0  0  # atno 8008 bound_to 7997
  155.8455  140.0948  157.1728 H   0  0  0  0  0  0  0  0  0  0  0  0  # atno 8009 bound_to 7997
  154.4006  140.1386  156.3768 H   0  0  0  0  0  0  0  0  0  0  0  0  # atno 8010 bound_to 7997
  139.5039  144.3516  151.9917 H   0  0  0  0  0  0  0  0  0  0  0  0  # atno 10167 bound_to 10162
  157.4094  130.7905  149.7417 H   0  0  0  0  0  0  0  0  0  0  0  0  # atno 10718 bound_to 10713
  154.7225  135.3029  154.9024 H   0  0  0  0  0  0  0  0  0  0  0  0  # atno 10763 bound_to 10752
  153.9891  135.6721  153.4757 H   0  0  0  0  0  0  0  0  0  0  0  0  # atno 10764 bound_to 10752
  153.0846  135.4990  154.8490 H   0  0  0  0  0  0  0  0  0  0  0  0  # atno 10765 bound_to 10752
  140.7970  134.2901  157.4993 H   0  0  0  0  0  0  0  0  0  0  0  0  # atno 11005 bound_to 11000
  144.8580  140.7098  143.6126 LP  0  0  0  0  0  0  0  0  0  0  0  0  # atno 17320 bound_to 7965
  145.3644  139.1674  143.4366 LP  0  0  0  0  0  0  0  0  0  0  0  0  # atno 17321 bound_to 7965
  140.2953  144.3708  150.6076 LP  0  0  0  0  0  0  0  0  0  0  0  0  # atno 17342 bound_to 10162
  140.5915  143.2168  151.7243 LP  0  0  0  0  0  0  0  0  0  0  0  0  # atno 17343 bound_to 10162
  155.9846  130.3990  150.3304 LP  0  0  0  0  0  0  0  0  0  0  0  0  # atno 17370 bound_to 10713
  157.1440  131.0304  151.2915 LP  0  0  0  0  0  0  0  0  0  0  0  0  # atno 17371 bound_to 10713
  139.8725  134.9408  156.3778 LP  0  0  0  0  0  0  0  0  0  0  0  0  # atno 17394 bound_to 11000
  140.9333  133.7564  156.0052 LP  0  0  0  0  0  0  0  0  0  0  0  0  # atno 17395 bound_to 11000

$$$$
