AV-unprocessed.smi:1056|AV-procd|sdf|4633|dock2
  -GOLD-   22720 3133D 1   1.00000     0.00000
 Structure written by MMmdl.
 45 47  0  0  0  0  0  0  0  0  2 V2000
  152.8932  142.6403  159.8943 C   0  0  0  0  0  0  0  0  0  0  0  0
  152.1574  142.0508  158.7040 C   0  0  0  0  0  0  0  0  0  0  0  0
  152.0020  140.6487  158.6187 C   0  0  0  0  0  0  0  0  0  0  0  0
  151.3256  140.0602  157.5279 C   0  0  0  0  0  0  0  0  0  0  0  0
  151.0611  138.7314  157.2433 N   0  0  0  0  0  0  0  0  0  0  0  0
  150.4010  138.8288  156.0929 C   0  0  0  0  0  0  0  0  0  0  0  0
  150.2111  140.0660  155.5952 N   0  0  0  0  0  0  0  0  0  0  0  0
  149.5257  140.4252  154.3679 C   0  0  0  0  0  0  0  0  0  0  0  0
  148.3344  141.3724  154.6185 C   0  0  1  0  0  0  0  0  0  0  0  0
  148.7549  142.7084  154.4298 O   0  0  0  0  0  0  0  0  0  0  0  0
  147.1487  141.1070  153.6695 C   0  0  0  0  0  0  0  0  0  0  0  0
  145.9051  141.7979  154.0947 N   0  3  1  0  0  0  0  0  0  0  0  0
  145.5925  141.6387  155.5354 C   0  0  0  0  0  0  0  0  0  0  0  0
  144.1894  142.1939  155.8369 C   0  0  0  0  0  0  0  0  0  0  0  0
  143.9269  143.4722  155.1796 N   0  0  0  0  0  0  0  0  0  0  0  0
  144.6555  143.9983  154.1815 C   0  0  0  0  0  0  0  0  0  0  0  0
  144.3661  145.0755  153.6679 O   0  0  0  0  0  0  0  0  0  0  0  0
  145.8837  143.2239  153.6797 C   0  0  0  0  0  0  0  0  0  0  0  0
  150.8051  140.9202  156.5174 C   0  0  0  0  0  0  0  0  0  0  0  0
  150.9519  142.3167  156.5910 C   0  0  0  0  0  0  0  0  0  0  0  0
  151.6322  142.8878  157.6866 C   0  0  0  0  0  0  0  0  0  0  0  0
  151.7905  144.3964  157.7557 C   0  0  0  0  0  0  0  0  0  0  0  0
  153.1646  141.8693  160.6163 H   0  0  0  0  0  0  0  0  0  0  0  0
  152.2698  143.3723  160.4083 H   0  0  0  0  0  0  0  0  0  0  0  0
  153.8097  143.1326  159.5686 H   0  0  0  0  0  0  0  0  0  0  0  0
  152.4030  140.0111  159.3930 H   0  0  0  0  0  0  0  0  0  0  0  0
  150.0375  137.9499  155.5805 H   0  0  0  0  0  0  0  0  0  0  0  0
  150.2426  140.8817  153.6838 H   0  0  0  0  0  0  0  0  0  0  0  0
  149.1886  139.5019  153.8957 H   0  0  0  0  0  0  0  0  0  0  0  0
  148.0111  141.2902  155.6556 H   0  0  0  0  0  0  0  0  0  0  0  0
  148.8745  143.1102  155.2773 H   0  0  0  0  0  0  0  0  0  0  0  0
  147.3949  141.4084  152.6498 H   0  0  0  0  0  0  0  0  0  0  0  0
  146.9698  140.0309  153.6345 H   0  0  0  0  0  0  0  0  0  0  0  0
  145.6348  140.5938  155.8399 H   0  0  0  0  0  0  0  0  0  0  0  0
  146.3419  142.1701  156.1246 H   0  0  0  0  0  0  0  0  0  0  0  0
  143.4351  141.4860  155.4913 H   0  0  0  0  0  0  0  0  0  0  0  0
  144.0467  142.3032  156.9122 H   0  0  0  0  0  0  0  0  0  0  0  0
  143.1254  143.9957  155.5031 H   0  0  0  0  0  0  0  0  0  0  0  0
  146.7767  143.7253  154.0563 H   0  0  0  0  0  0  0  0  0  0  0  0
  145.9167  143.2845  152.5910 H   0  0  0  0  0  0  0  0  0  0  0  0
  150.5464  142.9427  155.8105 H   0  0  0  0  0  0  0  0  0  0  0  0
  151.3685  144.8818  156.8752 H   0  0  0  0  0  0  0  0  0  0  0  0
  152.8447  144.6680  157.8135 H   0  0  0  0  0  0  0  0  0  0  0  0
  151.2814  144.7937  158.6339 H   0  0  0  0  0  0  0  0  0  0  0  0
  145.1496  141.3569  153.5901 H   0  0  0  0  0  0  0  0  0  0  0  0
  1  2  1  0  0  0  0
  1 23  1  0  0  0  0
  1 24  1  0  0  0  0
  1 25  1  0  0  0  0
  2 21  1  0  0  0  0
  2  3  2  0  0  0  0
  3  4  1  0  0  0  0
  3 26  1  0  0  0  0
  4 19  2  0  0  0  0
  4  5  1  0  0  0  0
  5  6  2  0  0  0  0
  6  7  1  0  0  0  0
  6 27  1  0  0  0  0
  7  8  1  0  0  0  0
  7 19  1  0  0  0  0
  8  9  1  0  0  0  0
  8 28  1  0  0  0  0
  8 29  1  0  0  0  0
  9 10  1  0  0  0  0
  9 11  1  0  0  0  0
  9 30  1  0  0  0  0
 10 31  1  0  0  0  0
 11 12  1  0  0  0  0
 11 32  1  0  0  0  0
 11 33  1  0  0  0  0
 12 18  1  0  0  0  0
 12 13  1  0  0  0  0
 12 45  1  0  0  0  0
 13 14  1  0  0  0  0
 13 34  1  0  0  0  0
 13 35  1  0  0  0  0
 14 15  1  0  0  0  0
 14 36  1  0  0  0  0
 14 37  1  0  0  0  0
 15 16  1  0  0  0  0
 15 38  1  0  0  0  0
 16 17  2  0  0  0  0
 16 18  1  0  0  0  0
 18 39  1  0  0  0  0
 18 40  1  0  0  0  0
 19 20  1  0  0  0  0
 20 21  2  0  0  0  0
 20 41  1  0  0  0  0
 21 22  1  0  0  0  0
 22 42  1  0  0  0  0
 22 43  1  0  0  0  0
 22 44  1  0  0  0  0
M  CHG  1  12   1
M  END
> <s_m_source_file>
AV-unprocessed.smi

> <i_m_source_file_index>
1056

> <i_lp_mmshare_version>
43012

> <i_f3d_flags>
0

> <s_epik_input>
W0NIM11jKFtjSF0xKWMoW0NIM10pW2NIXWMoYzEyKW4oW2NIXW4yKVtDSDJdW0NASF0oW09IXSlbQ0gyXU4zW0NIMl1bQ0gyXVtOSF1DKD1PKVtDSDJdMw==

> <s_epik_cmdline>
J2VwaWtfcHl0aG9uJywgJy1waCcsICc3LjAnLCAnLXRuJywgJzgnLCAnLW1hJywgJzIwMCcsICctbWV0YWxfYmluZGluZycsICctaW1hZScsICc8aW5maWxlLm1hZT4nLCAnLW9tYWUnLCAnPG91dGZpbGUubWFlPic=

> <r_epik_Ionization_Penalty>
0.153633

> <r_epik_Ionization_Penalty_Charging>
0.0674887

> <r_epik_Ionization_Penalty_Neutral>
0.0861443

> <r_epik_State_Penalty>
0.135155

> <r_epik_Charging_Adjusted_Penalty>
0.202644

> <i_epik_Tot_Q>
1

> <i_epik_Tot_abs_Q>
1

> <r_epik_Metal_State_Penalty>
0.190685

> <b_epik_Metal_Only>
0

> <s_lp_Force_Field>
OPLS_2005

> <r_lp_Energy>
24.5126

> <b_lp_Chiralities_Consistent>
1

> <s_lp_Variant>
AV-unprocessed.smi:1056-4

> <Gold.Version>
5.8.1

> <Gold.Id.Protein>
6NUR|6NUR_protein|mol2

> <Gold.PLP.Fitness>
50.6823

> <Gold.PLP.PLP>
-43.6732

> <Gold.PLP.part.hbond>
-2.7854

> <Gold.PLP.part.metal>
0.0000

> <Gold.PLP.part.buried>
-5.6921

> <Gold.PLP.part.nonpolar>
-35.7822

> <Gold.PLP.part.repulsive>
0.1249

> <Gold.PLP.ligand.clash>
0.0000

> <Gold.PLP.ligand.torsion>
0.7059

> <Gold.PLP.Chemscore.Hbond>
2.7561

> <Gold.PLP.Chemscore.CHOScore>
0.0000

> <Gold.PLP.Chemscore.Metal>
0.0000

> <Gold.Chemscore.Hbonds>
donor molecule, donor type, donor heavy atom, donor atom, acceptor molecule, acceptor atom, score
      L1  H    10    31       P1  8028  0.54
      L1  H    12    45       P1 10175  2.00
      P1  H  8011  8017       L1    10  0.01
      P1  H  8022  8030       L1    10  0.19

> <Gold.PLP.Chemscore.Internal.Correction>
0.1526

> <Gold.Rescore>
     Score         DG    S(hbond)    S(metal)    S(lipo)     H(rot)  DE(clash)    DE(int)     intcor
     15.83     -16.84       1.64        0.00     102.43       2.38       0.10       0.91       ----

> <Gold.Chemscore.Fitness>
15.8295

> <Gold.Chemscore.DG>
-16.8399

> <Gold.Chemscore.ZeroCoef>
-5.4800

> <Gold.Chemscore.Hbond>
1.6360

> <Gold.Chemscore.Metal>
0.0000

> <Gold.Chemscore.Lipo>
102.4281

> <Gold.Chemscore.Internal_Hbond>
0.0000

> <Gold.Chemscore.DEClash>
0.1007

> <Gold.Chemscore.DEInternal>
0.9096

> <Gold.Chemscore.Rot>
2.3783

> <Gold.Chemscore.Internal.Correction>
   9.000000E+99

> <Gold.Chemscore.Hbonds>
donor molecule, donor type, donor heavy atom, donor atom, acceptor molecule, acceptor atom, score
      L1  H    10    31       P1  8028  0.54
      L1  H    12    45       P1 10175  0.24

> <Gold.Chemscore.Hbond.Weighted>
-5.4641

> <Gold.Chemscore.Metal.Weighted>
-0.0000

> <Gold.Chemscore.Lipo.Weighted>
-11.9841

> <Gold.Chemscore.Internal_Hbond.Weighted>
0.0000

> <Gold.Chemscore.DEClash.Weighted>
0.1007

> <Gold.Chemscore.DEInternal.Weighted>
0.9096

> <Gold.Chemscore.Rot.Weighted>
6.0884

> <Gold.Chemscore.Internal.Correction.Weighted>
   9.000000E+99

> <Gold.Protein.RotatedTorsions>
[ 6907 6896 6895 6894 ] final   -9.37 input  -60.11 | X-H torsion
[ 7974 7965 7964 7962 ] final   88.06 input  175.53 | X-H torsion
[ 8008 7997 7996 7995 ] final  176.56 input   59.86 | X-H torsion
[ 10167 10162 10161 10158 ] final -124.01 input  -65.29 | X-H torsion
[ 10718 10713 10712 10709 ] final   88.47 input   66.30 | X-H torsion
[ 10763 10752 10751 10750 ] final -168.01 input  -60.55 | X-H torsion
[ 11005 11000 10999 10996 ] final -136.37 input  -57.11 | X-H torsion

> <Gold.Protein.ActiveResidues>
 VAL166  LYS551  ARG553  GLY616  TRP617  ASP618  TYR619  PRO620  LYS621  CYS622 
 ASP623  PHE694  ASN695  SER759  ASP760  ASP761  ALA762  ILE779  LEU786  VAL792 
 PHE793  MET794  SER795  GLU796  ALA797  LYS798  CYS799  TRP800  GLU811  SER814 

> <Gold.Protein.RotatedAtoms>
  151.4188  135.0995  159.9607 H   0  0  0  0  0  0  0  0  0  0  0  0  # atno 6907 bound_to 6896
  152.4995  133.8727  159.7317 H   0  0  0  0  0  0  0  0  0  0  0  0  # atno 6908 bound_to 6896
  150.9238  133.6791  159.2854 H   0  0  0  0  0  0  0  0  0  0  0  0  # atno 6909 bound_to 6896
  145.5507  139.2295  143.2514 H   0  0  0  0  0  0  0  0  0  0  0  0  # atno 7974 bound_to 7965
  156.0751  140.1380  156.9781 H   0  0  0  0  0  0  0  0  0  0  0  0  # atno 8008 bound_to 7997
  154.4553  140.0963  156.6790 H   0  0  0  0  0  0  0  0  0  0  0  0  # atno 8009 bound_to 7997
  155.5165  140.3455  155.4400 H   0  0  0  0  0  0  0  0  0  0  0  0  # atno 8010 bound_to 7997
  139.9974  143.5577  152.2317 H   0  0  0  0  0  0  0  0  0  0  0  0  # atno 10167 bound_to 10162
  157.6949  131.0296  150.3279 H   0  0  0  0  0  0  0  0  0  0  0  0  # atno 10718 bound_to 10713
  154.6672  135.2934  154.9789 H   0  0  0  0  0  0  0  0  0  0  0  0  # atno 10763 bound_to 10752
  154.0828  135.6602  153.4844 H   0  0  0  0  0  0  0  0  0  0  0  0  # atno 10764 bound_to 10752
  153.0465  135.5201  154.7651 H   0  0  0  0  0  0  0  0  0  0  0  0  # atno 10765 bound_to 10752
  140.8811  134.1931  157.4590 H   0  0  0  0  0  0  0  0  0  0  0  0  # atno 11005 bound_to 11000
  146.1919  140.6330  142.9142 LP  0  0  0  0  0  0  0  0  0  0  0  0  # atno 17320 bound_to 7965
  144.7531  140.5240  143.6788 LP  0  0  0  0  0  0  0  0  0  0  0  0  # atno 17321 bound_to 7965
  139.6296  144.7642  151.2564 LP  0  0  0  0  0  0  0  0  0  0  0  0  # atno 17342 bound_to 10162
  140.7432  143.6502  150.8255 LP  0  0  0  0  0  0  0  0  0  0  0  0  # atno 17343 bound_to 10162
  156.3757  130.3871  149.7141 LP  0  0  0  0  0  0  0  0  0  0  0  0  # atno 17370 bound_to 10713
  156.4540  130.7920  151.2941 LP  0  0  0  0  0  0  0  0  0  0  0  0  # atno 17371 bound_to 10713
  139.8720  134.9817  156.5128 LP  0  0  0  0  0  0  0  0  0  0  0  0  # atno 17394 bound_to 11000
  140.8460  133.8168  155.9121 LP  0  0  0  0  0  0  0  0  0  0  0  0  # atno 17395 bound_to 11000

$$$$
