AV-unprocessed.smi:2303|AV-procd|sdf|9243|dock8
  -GOLD-   2272012463D 1   1.00000     0.00000
 Structure written by MMmdl.
 32 33  0  0  0  0  0  0  0  0  2 V2000
  152.5166  144.8215  158.5794 C   0  0  0  0  0  0  0  0  0  0  0  0
  151.7769  143.7637  159.4136 C   0  0  0  0  0  0  0  0  0  0  0  0
  152.6623  143.2224  160.5502 C   0  0  0  0  0  0  0  0  0  0  0  0
  151.2239  142.6467  158.5247 C   0  0  0  0  0  0  0  0  0  0  0  0
  149.8537  142.5603  158.3215 C   0  0  0  0  0  0  0  0  0  0  0  0
  149.3857  141.4675  157.4725 C   0  0  0  0  0  0  0  0  0  0  0  0
  147.9585  141.2653  157.2200 C   0  0  0  0  0  0  0  0  0  0  0  0
  147.1290  141.1057  158.1167 O   0  0  0  0  0  0  0  0  0  0  0  0
  147.5799  141.2647  155.9218 N   0  0  0  0  0  0  0  0  0  0  0  0
  148.4180  141.5033  154.7544 C   0  0  0  0  0  0  0  0  0  0  0  0
  147.4261  141.8365  153.6546 C   0  0  0  0  0  0  0  0  0  0  0  0
  146.2427  142.3815  154.4379 C   0  0  0  0  0  0  0  0  0  0  0  0
  146.2419  141.5789  155.6053 O   0  0  0  0  0  0  0  0  0  0  0  0
  150.2678  140.5725  156.9708 C   0  0  0  0  0  0  0  0  0  0  0  0
  151.7003  140.7213  157.2258 C   0  0  0  0  0  0  0  0  0  0  0  0
  152.4784  139.9015  156.7425 O   0  0  0  0  0  0  0  0  0  0  0  0
  152.1175  141.7699  157.9896 N   0  5  0  0  0  0  0  0  0  0  0  0
  151.8673  145.2320  157.8055 H   0  0  0  0  0  0  0  0  0  0  0  0
  153.3945  144.4006  158.0882 H   0  0  0  0  0  0  0  0  0  0  0  0
  152.8509  145.6505  159.2035 H   0  0  0  0  0  0  0  0  0  0  0  0
  150.9380  144.2712  159.8920 H   0  0  0  0  0  0  0  0  0  0  0  0
  152.1268  142.4804  161.1433 H   0  0  0  0  0  0  0  0  0  0  0  0
  152.9671  144.0243  161.2226 H   0  0  0  0  0  0  0  0  0  0  0  0
  153.5688  142.7525  160.1672 H   0  0  0  0  0  0  0  0  0  0  0  0
  149.1687  143.2613  158.7757 H   0  0  0  0  0  0  0  0  0  0  0  0
  149.0843  142.3471  154.9418 H   0  0  0  0  0  0  0  0  0  0  0  0
  149.0246  140.6308  154.5106 H   0  0  0  0  0  0  0  0  0  0  0  0
  147.8169  142.5431  152.9220 H   0  0  0  0  0  0  0  0  0  0  0  0
  147.1336  140.9260  153.1301 H   0  0  0  0  0  0  0  0  0  0  0  0
  146.4075  143.4236  154.7158 H   0  0  0  0  0  0  0  0  0  0  0  0
  145.2999  142.3100  153.8952 H   0  0  0  0  0  0  0  0  0  0  0  0
  149.9298  139.7424  156.3660 H   0  0  0  0  0  0  0  0  0  0  0  0
  1  2  1  0  0  0  0
  1 18  1  0  0  0  0
  1 19  1  0  0  0  0
  1 20  1  0  0  0  0
  2  3  1  0  0  0  0
  2 21  1  0  0  0  0
  2  4  1  0  0  0  0
  3 22  1  0  0  0  0
  3 23  1  0  0  0  0
  3 24  1  0  0  0  0
  4 17  1  0  0  0  0
  4  5  2  0  0  0  0
  5 25  1  0  0  0  0
  5  6  1  0  0  0  0
  6  7  1  0  0  0  0
  6 14  2  0  0  0  0
  7  8  2  0  0  0  0
  7  9  1  0  0  0  0
  9 13  1  0  0  0  0
  9 10  1  0  0  0  0
 10 11  1  0  0  0  0
 10 26  1  0  0  0  0
 10 27  1  0  0  0  0
 11 12  1  0  0  0  0
 11 28  1  0  0  0  0
 11 29  1  0  0  0  0
 12 13  1  0  0  0  0
 12 30  1  0  0  0  0
 12 31  1  0  0  0  0
 14 15  1  0  0  0  0
 14 32  1  0  0  0  0
 15 16  2  0  0  0  0
 15 17  1  0  0  0  0
M  CHG  1  17  -1
M  END
> <s_m_source_file>
AV-unprocessed.smi

> <i_m_source_file_index>
2303

> <i_lp_mmshare_version>
43012

> <i_f3d_flags>
0

> <s_epik_input>
W0NIM11bQ0hdKFtDSDNdKWMxW2NIXWMoW2NIXWMobjEpW09IXSlDKD1PKU4yW0NIMl1bQ0gyXVtDSDJdTzI=

> <s_epik_cmdline>
J2VwaWtfcHl0aG9uJywgJy1waCcsICc3LjAnLCAnLXRuJywgJzgnLCAnLW1hJywgJzIwMCcsICctbWV0YWxfYmluZGluZycsICctaW1hZScsICc8aW5maWxlLm1hZT4nLCAnLW9tYWUnLCAnPG91dGZpbGUubWFlPic=

> <r_lp_tautomer_probability>
1

> <r_epik_Ionization_Penalty>
5.39588

> <r_epik_Ionization_Penalty_Charging>
0.166011

> <r_epik_Ionization_Penalty_Neutral>
5.22987

> <r_epik_State_Penalty>
5.22978

> <r_epik_Charging_Adjusted_Penalty>
5.39579

> <i_epik_Tot_Q>
-1

> <i_epik_Tot_abs_Q>
1

> <r_epik_Metal_State_Penalty>
1.21816

> <b_epik_Metal_Only>
1

> <s_epik_Chemistry_Notes>
This compound has a N-S or N-O group and may undergo hydrolysis at high or low pH.

> <s_lp_Force_Field>
OPLS_2005

> <r_lp_Energy>
27.9757

> <b_lp_Chiralities_Consistent>
1

> <s_lp_Variant>
AV-unprocessed.smi:2303-2

> <Gold.Version>
5.8.1

> <Gold.Id.Protein>
6NUR|6NUR_protein|mol2

> <Gold.PLP.Fitness>
34.1351

> <Gold.PLP.PLP>
-32.6610

> <Gold.PLP.part.hbond>
-1.7723

> <Gold.PLP.part.metal>
0.0000

> <Gold.PLP.part.buried>
-4.9229

> <Gold.PLP.part.nonpolar>
-25.9855

> <Gold.PLP.part.repulsive>
0.1012

> <Gold.PLP.ligand.clash>
0.0000

> <Gold.PLP.ligand.torsion>
1.3771

> <Gold.PLP.Chemscore.Hbond>
1.0000

> <Gold.PLP.Chemscore.CHOScore>
0.0000

> <Gold.PLP.Chemscore.Metal>
0.0000

> <Gold.Chemscore.Hbonds>
donor molecule, donor type, donor heavy atom, donor atom, acceptor molecule, acceptor atom, score
      P1  H  7997  8008       L1    16  1.00

> <Gold.PLP.Chemscore.Internal.Correction>
1.2283

> <Gold.Rescore>
     Score         DG    S(hbond)    S(metal)    S(lipo)     H(rot)  DE(clash)    DE(int)     intcor
     14.06     -15.43       1.00        0.00      78.43       1.00       0.01       1.36       ----

> <Gold.Chemscore.Fitness>
14.0616

> <Gold.Chemscore.DG>
-15.4325

> <Gold.Chemscore.ZeroCoef>
-5.4800

> <Gold.Chemscore.Hbond>
0.9990

> <Gold.Chemscore.Metal>
0.0000

> <Gold.Chemscore.Lipo>
78.4262

> <Gold.Chemscore.Internal_Hbond>
0.0000

> <Gold.Chemscore.DEClash>
0.0126

> <Gold.Chemscore.DEInternal>
1.3583

> <Gold.Chemscore.Rot>
1.0000

> <Gold.Chemscore.Internal.Correction>
   9.000000E+99

> <Gold.Chemscore.Hbonds>
donor molecule, donor type, donor heavy atom, donor atom, acceptor molecule, acceptor atom, score
      P1  H  7997  8008       L1    16  0.99

> <Gold.Chemscore.Hbond.Weighted>
-3.3367

> <Gold.Chemscore.Metal.Weighted>
-0.0000

> <Gold.Chemscore.Lipo.Weighted>
-9.1759

> <Gold.Chemscore.Internal_Hbond.Weighted>
0.0000

> <Gold.Chemscore.DEClash.Weighted>
0.0126

> <Gold.Chemscore.DEInternal.Weighted>
1.3583

> <Gold.Chemscore.Rot.Weighted>
2.5600

> <Gold.Chemscore.Internal.Correction.Weighted>
   9.000000E+99

> <Gold.Protein.RotatedTorsions>
[ 6907 6896 6895 6894 ] final  -53.79 input  -60.11 | X-H torsion
[ 7974 7965 7964 7962 ] final   48.52 input  175.53 | X-H torsion
[ 8008 7997 7996 7995 ] final  -42.40 input   59.86 | X-H torsion
[ 10167 10162 10161 10158 ] final   62.98 input  -65.29 | X-H torsion
[ 10718 10713 10712 10709 ] final  -80.68 input   66.30 | X-H torsion
[ 10763 10752 10751 10750 ] final   64.33 input  -60.55 | X-H torsion
[ 11005 11000 10999 10996 ] final  150.13 input  -57.11 | X-H torsion

> <Gold.Protein.ActiveResidues>
 VAL166  LYS551  ARG553  GLY616  TRP617  ASP618  TYR619  PRO620  LYS621  CYS622 
 ASP623  PHE694  ASN695  SER759  ASP760  ASP761  ALA762  ILE779  LEU786  VAL792 
 PHE793  MET794  SER795  GLU796  ALA797  LYS798  CYS799  TRP800  GLU811  SER814 

> <Gold.Protein.RotatedAtoms>
  150.8396  134.7682  159.6920 H   0  0  0  0  0  0  0  0  0  0  0  0  # atno 6907 bound_to 6896
  152.4486  134.5439  159.9857 H   0  0  0  0  0  0  0  0  0  0  0  0  # atno 6908 bound_to 6896
  151.5582  133.3369  159.3002 H   0  0  0  0  0  0  0  0  0  0  0  0  # atno 6909 bound_to 6896
  146.0196  139.4636  142.9905 H   0  0  0  0  0  0  0  0  0  0  0  0  # atno 7974 bound_to 7965
  154.3999  140.1474  156.3349 H   0  0  0  0  0  0  0  0  0  0  0  0  # atno 8008 bound_to 7997
  155.8409  140.3462  155.5610 H   0  0  0  0  0  0  0  0  0  0  0  0  # atno 8009 bound_to 7997
  155.8088  140.0881  157.1906 H   0  0  0  0  0  0  0  0  0  0  0  0  # atno 8010 bound_to 7997
  140.1380  144.4581  150.6827 H   0  0  0  0  0  0  0  0  0  0  0  0  # atno 10167 bound_to 10162
  156.0065  130.4581  150.3837 H   0  0  0  0  0  0  0  0  0  0  0  0  # atno 10718 bound_to 10713
  153.0052  135.5397  154.6493 H   0  0  0  0  0  0  0  0  0  0  0  0  # atno 10763 bound_to 10752
  154.5729  135.2843  155.0811 H   0  0  0  0  0  0  0  0  0  0  0  0  # atno 10764 bound_to 10752
  154.1970  135.6490  153.5128 H   0  0  0  0  0  0  0  0  0  0  0  0  # atno 10765 bound_to 10752
  140.1105  134.8927  157.1929 H   0  0  0  0  0  0  0  0  0  0  0  0  # atno 11005 bound_to 11000
  145.7214  141.0074  143.1400 LP  0  0  0  0  0  0  0  0  0  0  0  0  # atno 17320 bound_to 7965
  144.6985  139.8874  143.7451 LP  0  0  0  0  0  0  0  0  0  0  0  0  # atno 17321 bound_to 7965
  140.6778  143.2312  151.5463 LP  0  0  0  0  0  0  0  0  0  0  0  0  # atno 17342 bound_to 10162
  139.5486  144.2454  152.1489 LP  0  0  0  0  0  0  0  0  0  0  0  0  # atno 17343 bound_to 10162
  157.1915  131.0416  151.2698 LP  0  0  0  0  0  0  0  0  0  0  0  0  # atno 17370 bound_to 10713
  157.4057  130.7357  149.6800 LP  0  0  0  0  0  0  0  0  0  0  0  0  # atno 17371 bound_to 10713
  140.3098  134.3037  155.7269 LP  0  0  0  0  0  0  0  0  0  0  0  0  # atno 17394 bound_to 11000
  141.2129  133.7643  156.9760 LP  0  0  0  0  0  0  0  0  0  0  0  0  # atno 17395 bound_to 11000

$$$$
