AV-unprocessed.smi:271|AV-procd|sdf|2050|dock1
  -GOLD-   2262021283D 1   1.00000     0.00000
 Structure written by MMmdl.
 58 60  0  0  0  0  0  0  0  0  1 V2000
  152.2261  145.0463  159.3993 C   0  0  0  0  0  0  0  0  0  0  0  0
  151.4111  143.7511  159.2616 C   0  0  0  0  0  0  0  0  0  0  0  0
  151.9580  142.6703  160.2097 C   0  0  0  0  0  0  0  0  0  0  0  0
  151.3802  143.2797  157.7945 C   0  0  0  0  0  0  0  0  0  0  0  0
  150.3929  142.1217  157.5372 C   0  0  0  0  0  0  0  0  0  0  0  0
  151.0282  140.8042  157.5084 N   0  0  0  0  0  0  0  0  0  0  0  0
  151.4557  140.3573  156.1845 C   0  0  0  0  0  0  0  0  0  0  0  0
  152.1591  138.9906  156.2004 C   0  0  0  0  0  0  0  0  0  0  0  0
  151.7129  138.1196  155.1034 C   0  0  0  0  0  0  0  0  0  0  0  0
  151.3621  137.4345  154.2398 N   0  0  0  0  0  0  0  0  0  0  0  0
  150.3446  139.8549  158.1874 C   0  0  0  0  0  0  0  0  0  0  0  0
  149.1094  139.5355  157.7290 N   0  0  0  0  0  0  0  0  0  0  0  0
  148.3881  138.5999  158.3534 C   0  0  0  0  0  0  0  0  0  0  0  0
  148.7100  137.8775  159.4285 N   0  0  0  0  0  0  0  0  0  0  0  0
  149.9534  138.1961  159.8907 C   0  0  0  0  0  0  0  0  0  0  0  0
  150.8299  139.1707  159.3375 C   0  0  0  0  0  0  0  0  0  0  0  0
  152.0026  139.2301  160.0795 N   0  0  0  0  0  0  0  0  0  0  0  0
  151.8299  138.3390  161.0168 C   0  0  0  0  0  0  0  0  0  0  0  0
  150.6344  137.6564  160.9694 N   0  0  0  0  0  0  0  0  0  0  0  0
  150.1842  136.6126  161.8800 C   0  0  0  0  0  0  0  0  0  0  0  0
  149.8448  137.1123  163.3119 C   0  0  1  0  0  0  0  0  0  0  0  0
  148.5251  136.5046  163.8437 C   0  0  0  0  0  0  0  0  0  0  0  0
  148.0149  137.2713  164.9143 O   0  0  0  0  0  0  0  0  0  0  0  0
  151.0123  136.8905  164.3097 C   0  0  2  0  0  0  0  0  0  0  0  0
  150.9166  137.6897  165.5992 C   0  0  0  0  0  0  0  0  0  0  0  0
  152.3528  137.6691  166.1156 C   0  0  0  0  0  0  0  0  0  0  0  0
  153.1821  137.5451  164.9654 O   0  0  0  0  0  0  0  0  0  0  0  0
  152.3768  137.3726  163.8057 C   0  0  0  0  0  0  0  0  0  0  0  0
  153.2641  144.8948  159.1013 H   0  0  0  0  0  0  0  0  0  0  0  0
  152.2248  145.4055  160.4290 H   0  0  0  0  0  0  0  0  0  0  0  0
  151.8137  145.8403  158.7760 H   0  0  0  0  0  0  0  0  0  0  0  0
  150.3886  143.9786  159.5662 H   0  0  0  0  0  0  0  0  0  0  0  0
  152.9702  142.3746  159.9319 H   0  0  0  0  0  0  0  0  0  0  0  0
  151.3356  141.7760  160.2041 H   0  0  0  0  0  0  0  0  0  0  0  0
  151.9890  143.0319  161.2380 H   0  0  0  0  0  0  0  0  0  0  0  0
  151.0966  144.1181  157.1568 H   0  0  0  0  0  0  0  0  0  0  0  0
  152.3897  142.9975  157.4925 H   0  0  0  0  0  0  0  0  0  0  0  0
  149.6003  142.1216  158.2850 H   0  0  0  0  0  0  0  0  0  0  0  0
  149.9039  142.2841  156.5759 H   0  0  0  0  0  0  0  0  0  0  0  0
  150.5981  140.3268  155.5110 H   0  0  0  0  0  0  0  0  0  0  0  0
  152.1406  141.1005  155.7749 H   0  0  0  0  0  0  0  0  0  0  0  0
  153.2381  139.1160  156.1080 H   0  0  0  0  0  0  0  0  0  0  0  0
  151.9703  138.4592  157.1335 H   0  0  0  0  0  0  0  0  0  0  0  0
  147.4149  138.3999  157.9300 H   0  0  0  0  0  0  0  0  0  0  0  0
  152.5816  138.1526  161.7690 H   0  0  0  0  0  0  0  0  0  0  0  0
  149.3224  136.1182  161.4318 H   0  0  0  0  0  0  0  0  0  0  0  0
  150.9597  135.8473  161.9280 H   0  0  0  0  0  0  0  0  0  0  0  0
  149.6922  138.1903  163.2392 H   0  0  0  0  0  0  0  0  0  0  0  0
  147.7753  136.4276  163.0563 H   0  0  0  0  0  0  0  0  0  0  0  0
  148.6827  135.4968  164.2260 H   0  0  0  0  0  0  0  0  0  0  0  0
  148.0506  138.1846  164.6747 H   0  0  0  0  0  0  0  0  0  0  0  0
  151.0827  135.8341  164.5726 H   0  0  0  0  0  0  0  0  0  0  0  0
  150.6124  138.7161  165.3889 H   0  0  0  0  0  0  0  0  0  0  0  0
  150.2155  137.2678  166.3198 H   0  0  0  0  0  0  0  0  0  0  0  0
  152.5977  138.5641  166.6877 H   0  0  0  0  0  0  0  0  0  0  0  0
  152.5174  136.8018  166.7560 H   0  0  0  0  0  0  0  0  0  0  0  0
  152.8456  136.6793  163.1084 H   0  0  0  0  0  0  0  0  0  0  0  0
  152.2834  138.3378  163.3056 H   0  0  0  0  0  0  0  0  0  0  0  0
  1  2  1  0  0  0  0
  1 29  1  0  0  0  0
  1 30  1  0  0  0  0
  1 31  1  0  0  0  0
  2  3  1  0  0  0  0
  2  4  1  0  0  0  0
  2 32  1  0  0  0  0
  3 33  1  0  0  0  0
  3 34  1  0  0  0  0
  3 35  1  0  0  0  0
  4  5  1  0  0  0  0
  4 36  1  0  0  0  0
  4 37  1  0  0  0  0
  5  6  1  0  0  0  0
  5 38  1  0  0  0  0
  5 39  1  0  0  0  0
  6  7  1  0  0  0  0
  6 11  1  0  0  0  0
  7  8  1  0  0  0  0
  7 40  1  0  0  0  0
  7 41  1  0  0  0  0
  8  9  1  0  0  0  0
  8 42  1  0  0  0  0
  8 43  1  0  0  0  0
  9 10  3  0  0  0  0
 11 16  1  0  0  0  0
 11 12  2  0  0  0  0
 12 13  1  0  0  0  0
 13 14  2  0  0  0  0
 13 44  1  0  0  0  0
 14 15  1  0  0  0  0
 15 19  1  0  0  0  0
 15 16  2  0  0  0  0
 16 17  1  0  0  0  0
 17 18  2  0  0  0  0
 18 19  1  0  0  0  0
 18 45  1  0  0  0  0
 19 20  1  0  0  0  0
 20 21  1  0  0  0  0
 20 46  1  0  0  0  0
 20 47  1  0  0  0  0
 21 22  1  0  0  0  0
 21 24  1  0  0  0  0
 21 48  1  0  0  0  0
 22 23  1  0  0  0  0
 22 49  1  0  0  0  0
 22 50  1  0  0  0  0
 23 51  1  0  0  0  0
 24 28  1  0  0  0  0
 24 25  1  0  0  0  0
 24 52  1  0  0  0  0
 25 26  1  0  0  0  0
 25 53  1  0  0  0  0
 25 54  1  0  0  0  0
 26 27  1  0  0  0  0
 26 55  1  0  0  0  0
 26 56  1  0  0  0  0
 27 28  1  0  0  0  0
 28 57  1  0  0  0  0
 28 58  1  0  0  0  0
M  END
> <s_m_source_file>
AV-unprocessed.smi

> <i_m_source_file_index>
271

> <i_lp_mmshare_version>
43012

> <i_f3d_flags>
0

> <s_epik_input>
W0NIM11bQ0hdKFtDSDNdKVtDSDJdW0NIMl1OKFtDSDJdW0NIMl1DI04pYyhuW2NIXW4xKWMoYzEyKW5bY0hdbjJbQ0gyXVtDQEhdKFtDSDJdW09IXSlbQ0BASF0zW0NIMl1bQ0gyXU9bQ0gyXTM=

> <s_epik_cmdline>
J2VwaWtfcHl0aG9uJywgJy1waCcsICc3LjAnLCAnLXRuJywgJzgnLCAnLW1hJywgJzIwMCcsICctbWV0YWxfYmluZGluZycsICctaW1hZScsICc8aW5maWxlLm1hZT4nLCAnLW9tYWUnLCAnPG91dGZpbGUubWFlPic=

> <r_lp_tautomer_probability>
1

> <r_epik_Ionization_Penalty>
0.000825874

> <r_epik_Ionization_Penalty_Charging>
0

> <r_epik_Ionization_Penalty_Neutral>
0.000825874

> <r_epik_State_Penalty>
0.000396768

> <r_epik_Charging_Adjusted_Penalty>
0.000396768

> <i_epik_Tot_Q>
0

> <i_epik_Tot_abs_Q>
0

> <r_epik_Metal_State_Penalty>
-0

> <b_epik_Metal_Only>
0

> <s_lp_Force_Field>
OPLS_2005

> <r_lp_Energy>
35.3128

> <b_lp_Chiralities_Consistent>
1

> <s_lp_Variant>
AV-unprocessed.smi:271-2

> <Gold.Version>
5.8.1

> <Gold.Id.Protein>
6NUR|6NUR_protein|mol2

> <Gold.PLP.Fitness>
55.9599

> <Gold.PLP.PLP>
-48.9974

> <Gold.PLP.part.hbond>
-4.7475

> <Gold.PLP.part.metal>
0.0000

> <Gold.PLP.part.buried>
-6.2961

> <Gold.PLP.part.nonpolar>
-40.5965

> <Gold.PLP.part.repulsive>
1.6549

> <Gold.PLP.ligand.clash>
0.0000

> <Gold.PLP.ligand.torsion>
2.1811

> <Gold.PLP.Chemscore.Hbond>
2.9913

> <Gold.PLP.Chemscore.CHOScore>
0.0000

> <Gold.PLP.Chemscore.Metal>
0.0000

> <Gold.Chemscore.Hbonds>
donor molecule, donor type, donor heavy atom, donor atom, acceptor molecule, acceptor atom, score
      P1  H  6934  6947       L1    14  0.01
      P1  H 10752 10764       L1    10  0.15

> <Gold.PLP.Chemscore.Internal.Correction>
2.3510

> <Gold.Rescore>
     Score         DG    S(hbond)    S(metal)    S(lipo)     H(rot)  DE(clash)    DE(int)     intcor
      9.71     -13.86       1.62        0.00     107.74       3.77       1.58       2.57       ----

> <Gold.Chemscore.Fitness>
9.7128

> <Gold.Chemscore.DG>
-13.8631

> <Gold.Chemscore.ZeroCoef>
-5.4800

> <Gold.Chemscore.Hbond>
1.6239

> <Gold.Chemscore.Metal>
0.0000

> <Gold.Chemscore.Lipo>
107.7428

> <Gold.Chemscore.Internal_Hbond>
0.0000

> <Gold.Chemscore.DEClash>
1.5797

> <Gold.Chemscore.DEInternal>
2.5705

> <Gold.Chemscore.Rot>
3.7683

> <Gold.Chemscore.Internal.Correction>
   9.000000E+99

> <Gold.Chemscore.Hbonds>
donor molecule, donor type, donor heavy atom, donor atom, acceptor molecule, acceptor atom, score
      P1  H 10752 10764       L1    10  0.08

> <Gold.Chemscore.Hbond.Weighted>
-5.4240

> <Gold.Chemscore.Metal.Weighted>
-0.0000

> <Gold.Chemscore.Lipo.Weighted>
-12.6059

> <Gold.Chemscore.Internal_Hbond.Weighted>
0.0000

> <Gold.Chemscore.DEClash.Weighted>
1.5797

> <Gold.Chemscore.DEInternal.Weighted>
2.5705

> <Gold.Chemscore.Rot.Weighted>
9.6468

> <Gold.Chemscore.Internal.Correction.Weighted>
   9.000000E+99

> <Gold.Protein.RotatedTorsions>
[ 6907 6896 6895 6894 ] final   -3.53 input  -60.11 | X-H torsion
[ 7974 7965 7964 7962 ] final -157.45 input  175.53 | X-H torsion
[ 8008 7997 7996 7995 ] final -103.75 input   59.86 | X-H torsion
[ 10167 10162 10161 10158 ] final   -9.41 input  -65.29 | X-H torsion
[ 10718 10713 10712 10709 ] final  -49.01 input   66.30 | X-H torsion
[ 10763 10752 10751 10750 ] final  -85.13 input  -60.55 | X-H torsion
[ 11005 11000 10999 10996 ] final  166.30 input  -57.11 | X-H torsion

> <Gold.Protein.ActiveResidues>
 VAL166  LYS551  ARG553  GLY616  TRP617  ASP618  TYR619  PRO620  LYS621  CYS622 
 ASP623  PHE694  ASN695  SER759  ASP760  ASP761  ALA762  ILE779  LEU786  VAL792 
 PHE793  MET794  SER795  GLU796  ALA797  LYS798  CYS799  TRP800  GLU811  SER814 

> <Gold.Protein.RotatedAtoms>
  151.5123  135.1065  159.9856 H   0  0  0  0  0  0  0  0  0  0  0  0  # atno 6907 bound_to 6896
  152.4656  133.7912  159.6913 H   0  0  0  0  0  0  0  0  0  0  0  0  # atno 6908 bound_to 6896
  150.8638  133.7540  159.3009 H   0  0  0  0  0  0  0  0  0  0  0  0  # atno 6909 bound_to 6896
  144.7548  140.3967  143.6021 H   0  0  0  0  0  0  0  0  0  0  0  0  # atno 7974 bound_to 7965
  154.8754  140.0421  157.1750 H   0  0  0  0  0  0  0  0  0  0  0  0  # atno 8008 bound_to 7997
  154.8695  140.2956  155.5469 H   0  0  0  0  0  0  0  0  0  0  0  0  # atno 8009 bound_to 7997
  156.2999  140.2431  156.3682 H   0  0  0  0  0  0  0  0  0  0  0  0  # atno 8010 bound_to 7997
  140.7086  143.5861  150.8942 H   0  0  0  0  0  0  0  0  0  0  0  0  # atno 10167 bound_to 10162
  156.1934  130.4153  149.9340 H   0  0  0  0  0  0  0  0  0  0  0  0  # atno 10718 bound_to 10713
  154.6075  135.5496  153.7439 H   0  0  0  0  0  0  0  0  0  0  0  0  # atno 10763 bound_to 10752
  153.0181  135.6381  154.1626 H   0  0  0  0  0  0  0  0  0  0  0  0  # atno 10764 bound_to 10752
  154.1564  135.2900  155.3101 H   0  0  0  0  0  0  0  0  0  0  0  0  # atno 10765 bound_to 10752
  140.2650  134.7872  157.3625 H   0  0  0  0  0  0  0  0  0  0  0  0  # atno 11005 bound_to 11000
  145.6818  139.1620  143.2696 LP  0  0  0  0  0  0  0  0  0  0  0  0  # atno 17320 bound_to 7965
  146.1544  140.6879  142.9307 LP  0  0  0  0  0  0  0  0  0  0  0  0  # atno 17321 bound_to 7965
  139.9586  143.6189  152.3009 LP  0  0  0  0  0  0  0  0  0  0  0  0  # atno 17342 bound_to 10162
  139.6734  144.7660  151.1741 LP  0  0  0  0  0  0  0  0  0  0  0  0  # atno 17343 bound_to 10162
  156.7073  130.8956  151.3606 LP  0  0  0  0  0  0  0  0  0  0  0  0  # atno 17370 bound_to 10713
  157.6943  130.9265  150.0600 LP  0  0  0  0  0  0  0  0  0  0  0  0  # atno 17371 bound_to 10713
  140.1427  134.4950  155.8019 LP  0  0  0  0  0  0  0  0  0  0  0  0  # atno 17394 bound_to 11000
  141.2185  133.6832  156.7240 LP  0  0  0  0  0  0  0  0  0  0  0  0  # atno 17395 bound_to 11000

$$$$
