AV-unprocessed.smi:120|AV-procd|sdf|1138|dock5
  -GOLD-   2262018273D 1   1.00000     0.00000
 Structure written by MMmdl.
 45 48  0  0  0  0  0  0  0  0  1 V2000
  150.4107  130.6450  157.6499 C   0  0  0  0  0  0  0  0  0  0  0  0
  149.7864  130.6783  156.3747 O   0  0  0  0  0  0  0  0  0  0  0  0
  149.7775  131.8723  155.6854 C   0  0  0  0  0  0  0  0  0  0  0  0
  149.1549  131.8753  154.4226 C   0  0  0  0  0  0  0  0  0  0  0  0
  149.0982  133.0528  153.6574 C   0  0  0  0  0  0  0  0  0  0  0  0
  149.6664  134.2411  154.1507 C   0  0  0  0  0  0  0  0  0  0  0  0
  150.3026  134.2737  155.4132 C   0  0  0  0  0  0  0  0  0  0  0  0
  150.9030  135.5230  155.9316 C   0  0  0  0  0  0  0  0  0  0  0  0
  150.9787  135.7751  157.2324 N   0  0  0  0  0  0  0  0  0  0  0  0
  151.6084  137.0282  157.2710 O   0  0  0  0  0  0  0  0  0  0  0  0
  151.8321  137.3746  155.9784 C   0  0  0  0  0  0  0  0  0  0  0  0
  152.5063  138.6818  155.6921 C   0  0  0  0  0  0  0  0  0  0  0  0
  151.6607  139.7983  156.0828 N   0  0  0  0  0  0  0  0  0  0  0  0
  150.6653  140.2364  155.1742 C   0  0  0  0  0  0  0  0  0  0  0  0
  150.4870  139.6945  154.0822 O   0  0  0  0  0  0  0  0  0  0  0  0
  149.8877  141.3811  155.6359 C   0  0  0  0  0  0  0  0  0  0  0  0
  148.9049  141.8714  154.8616 F   0  0  0  0  0  0  0  0  0  0  0  0
  150.1376  141.9601  156.8303 C   0  0  0  0  0  0  0  0  0  0  0  0
  151.1335  141.5225  157.6887 N   0  0  0  0  0  0  0  0  0  0  0  0
  151.4040  142.1961  159.0172 C   0  0  1  0  0  0  0  0  0  0  0  0
  152.7868  142.8744  159.0086 C   0  0  0  0  0  0  0  0  0  0  0  0
  152.4741  144.2745  159.4971 C   0  0  0  0  0  0  0  0  0  0  0  0
  151.0493  144.4688  159.0009 C   0  0  0  0  0  0  0  0  0  0  0  0
  150.4553  143.2000  159.2434 O   0  0  0  0  0  0  0  0  0  0  0  0
  151.9283  140.4130  157.3282 C   0  0  0  0  0  0  0  0  0  0  0  0
  152.8263  140.0111  158.0723 O   0  0  0  0  0  0  0  0  0  0  0  0
  151.4076  136.4711  155.0961 N   0  0  0  0  0  0  0  0  0  0  0  0
  150.3486  133.0770  156.1687 C   0  0  0  0  0  0  0  0  0  0  0  0
  150.3291  129.6399  158.0636 H   0  0  0  0  0  0  0  0  0  0  0  0
  149.9276  131.3287  158.3492 H   0  0  0  0  0  0  0  0  0  0  0  0
  151.4719  130.8876  157.5807 H   0  0  0  0  0  0  0  0  0  0  0  0
  148.7155  130.9667  154.0378 H   0  0  0  0  0  0  0  0  0  0  0  0
  148.6181  133.0455  152.6900 H   0  0  0  0  0  0  0  0  0  0  0  0
  149.6124  135.1325  153.5430 H   0  0  0  0  0  0  0  0  0  0  0  0
  153.4608  138.7469  156.2151 H   0  0  0  0  0  0  0  0  0  0  0  0
  152.7314  138.7872  154.6290 H   0  0  0  0  0  0  0  0  0  0  0  0
  149.5215  142.8013  157.1082 H   0  0  0  0  0  0  0  0  0  0  0  0
  151.2919  141.4174  159.7740 H   0  0  0  0  0  0  0  0  0  0  0  0
  153.4898  142.3406  159.6487 H   0  0  0  0  0  0  0  0  0  0  0  0
  153.1854  142.9069  157.9933 H   0  0  0  0  0  0  0  0  0  0  0  0
  152.4979  144.3067  160.5871 H   0  0  0  0  0  0  0  0  0  0  0  0
  153.1662  145.0259  159.1160 H   0  0  0  0  0  0  0  0  0  0  0  0
  150.5230  145.2655  159.5265 H   0  0  0  0  0  0  0  0  0  0  0  0
  151.0373  144.6925  157.9333 H   0  0  0  0  0  0  0  0  0  0  0  0
  150.8280  133.1003  157.1351 H   0  0  0  0  0  0  0  0  0  0  0  0
  1  2  1  0  0  0  0
  1 29  1  0  0  0  0
  1 30  1  0  0  0  0
  1 31  1  0  0  0  0
  2  3  1  0  0  0  0
  3 28  1  0  0  0  0
  3  4  2  0  0  0  0
  4  5  1  0  0  0  0
  4 32  1  0  0  0  0
  5  6  2  0  0  0  0
  5 33  1  0  0  0  0
  6  7  1  0  0  0  0
  6 34  1  0  0  0  0
  7  8  1  0  0  0  0
  7 28  2  0  0  0  0
  8 27  1  0  0  0  0
  8  9  2  0  0  0  0
  9 10  1  0  0  0  0
 10 11  1  0  0  0  0
 11 12  1  0  0  0  0
 11 27  2  0  0  0  0
 12 13  1  0  0  0  0
 12 35  1  0  0  0  0
 12 36  1  0  0  0  0
 13 25  1  0  0  0  0
 13 14  1  0  0  0  0
 14 15  2  0  0  0  0
 14 16  1  0  0  0  0
 16 17  1  0  0  0  0
 16 18  2  0  0  0  0
 18 19  1  0  0  0  0
 18 37  1  0  0  0  0
 19 20  1  0  0  0  0
 19 25  1  0  0  0  0
 20 24  1  0  0  0  0
 20 21  1  0  0  0  0
 20 38  1  0  0  0  0
 21 22  1  0  0  0  0
 21 39  1  0  0  0  0
 21 40  1  0  0  0  0
 22 23  1  0  0  0  0
 22 41  1  0  0  0  0
 22 42  1  0  0  0  0
 23 24  1  0  0  0  0
 23 43  1  0  0  0  0
 23 44  1  0  0  0  0
 25 26  2  0  0  0  0
 28 45  1  0  0  0  0
M  END
> <s_m_source_file>
AV-unprocessed.smi

> <i_m_source_file_index>
120

> <i_lp_mmshare_version>
43012

> <i_f3d_flags>
0

> <s_epik_input>
W0NIM11PYzFbY0hdW2NIXVtjSF1jKFtjSF0xKS1jMm5vYyhuMilbQ0gyXW4zYyg9TyljKEYpW2NIXW4oYzM9TylbQ0BASF00W0NIMl1bQ0gyXVtDSDJdTzQ=

> <s_epik_cmdline>
J2VwaWtfcHl0aG9uJywgJy1waCcsICc3LjAnLCAnLXRuJywgJzgnLCAnLW1hJywgJzIwMCcsICctbWV0YWxfYmluZGluZycsICctaW1hZScsICc8aW5maWxlLm1hZT4nLCAnLW9tYWUnLCAnPG91dGZpbGUubWFlPic=

> <r_lp_tautomer_probability>
1

> <r_epik_Ionization_Penalty>
4.93314e-09

> <r_epik_Ionization_Penalty_Charging>
4.92654e-09

> <r_epik_Ionization_Penalty_Neutral>
6.60436e-12

> <r_epik_State_Penalty>
-0

> <r_epik_Charging_Adjusted_Penalty>
4.92654e-09

> <i_epik_Tot_Q>
0

> <i_epik_Tot_abs_Q>
0

> <r_epik_Metal_State_Penalty>
-0

> <b_epik_Metal_Only>
0

> <s_epik_Chemistry_Notes>
This compound contains an acetal/aminal-like group ( X-CH(R)-Y where X, Y are N, S, or O) that may be acid/base labile, releasing an aldehyde.

> <s_lp_Force_Field>
OPLS_2005

> <r_lp_Energy>
36.9113

> <b_lp_Chiralities_Consistent>
1

> <s_lp_Variant>
AV-unprocessed.smi:120-2

> <Gold.Version>
5.8.1

> <Gold.Id.Protein>
6NUR|6NUR_protein|mol2

> <Gold.PLP.Fitness>
58.8466

> <Gold.PLP.PLP>
-50.7961

> <Gold.PLP.part.hbond>
-4.0480

> <Gold.PLP.part.metal>
0.0000

> <Gold.PLP.part.buried>
-3.6486

> <Gold.PLP.part.nonpolar>
-43.8813

> <Gold.PLP.part.repulsive>
0.3594

> <Gold.PLP.ligand.clash>
0.0000

> <Gold.PLP.ligand.torsion>
0.7820

> <Gold.PLP.Chemscore.Hbond>
2.2500

> <Gold.PLP.Chemscore.CHOScore>
0.9444

> <Gold.PLP.Chemscore.Metal>
0.0000

> <Gold.Chemscore.Hbonds>
donor molecule, donor type, donor heavy atom, donor atom, acceptor molecule, acceptor atom, score
      P1  H  7989  7998       L1    15  0.30
      P1  H  7997  8008       L1    26  0.99
      P1  H 10752 10763       L1    27  0.90
      L1  C    18    37       P1  8028  0.94

> <Gold.PLP.Chemscore.Internal.Correction>
0.0314

> <Gold.Rescore>
     Score         DG    S(hbond)    S(metal)    S(lipo)     H(rot)  DE(clash)    DE(int)     intcor
     15.40     -17.12       1.85        0.00      90.27       1.99       0.11       1.61       ----

> <Gold.Chemscore.Fitness>
15.4012

> <Gold.Chemscore.DG>
-17.1220

> <Gold.Chemscore.ZeroCoef>
-5.4800

> <Gold.Chemscore.Hbond>
1.8472

> <Gold.Chemscore.Metal>
0.0000

> <Gold.Chemscore.Lipo>
90.2680

> <Gold.Chemscore.Internal_Hbond>
0.0000

> <Gold.Chemscore.DEClash>
0.1058

> <Gold.Chemscore.DEInternal>
1.6150

> <Gold.Chemscore.Rot>
1.9879

> <Gold.Chemscore.Internal.Correction>
   9.000000E+99

> <Gold.Chemscore.Hbonds>
donor molecule, donor type, donor heavy atom, donor atom, acceptor molecule, acceptor atom, score
      P1  H  7997  8008       L1    26  0.50
      P1  H 10752 10763       L1    27  0.08

> <Gold.Chemscore.Hbond.Weighted>
-6.1696

> <Gold.Chemscore.Metal.Weighted>
-0.0000

> <Gold.Chemscore.Lipo.Weighted>
-10.5614

> <Gold.Chemscore.Internal_Hbond.Weighted>
0.0000

> <Gold.Chemscore.DEClash.Weighted>
0.1058

> <Gold.Chemscore.DEInternal.Weighted>
1.6150

> <Gold.Chemscore.Rot.Weighted>
5.0890

> <Gold.Chemscore.Internal.Correction.Weighted>
   9.000000E+99

> <Gold.Protein.RotatedTorsions>
[ 6907 6896 6895 6894 ] final  -50.93 input  -60.11 | X-H torsion
[ 7974 7965 7964 7962 ] final -172.10 input  175.53 | X-H torsion
[ 8008 7997 7996 7995 ] final  -80.06 input   59.86 | X-H torsion
[ 10167 10162 10161 10158 ] final -156.78 input  -65.29 | X-H torsion
[ 10718 10713 10712 10709 ] final -115.13 input   66.30 | X-H torsion
[ 10763 10752 10751 10750 ] final   60.56 input  -60.55 | X-H torsion
[ 11005 11000 10999 10996 ] final  173.14 input  -57.11 | X-H torsion

> <Gold.Protein.ActiveResidues>
 VAL166  LYS551  ARG553  GLY616  TRP617  ASP618  TYR619  PRO620  LYS621  CYS622 
 ASP623  PHE694  ASN695  SER759  ASP760  ASP761  ALA762  ILE779  LEU786  VAL792 
 PHE793  MET794  SER795  GLU796  ALA797  LYS798  CYS799  TRP800  GLU811  SER814 

> <Gold.Protein.RotatedAtoms>
  150.8660  134.8023  159.7118 H   0  0  0  0  0  0  0  0  0  0  0  0  # atno 6907 bound_to 6896
  152.4681  134.5023  159.9738 H   0  0  0  0  0  0  0  0  0  0  0  0  # atno 6908 bound_to 6896
  151.5119  133.3445  159.2922 H   0  0  0  0  0  0  0  0  0  0  0  0  # atno 6909 bound_to 6896
  144.7150  140.1822  143.6357 H   0  0  0  0  0  0  0  0  0  0  0  0  # atno 7974 bound_to 7965
  154.5846  140.0668  156.9153 H   0  0  0  0  0  0  0  0  0  0  0  0  # atno 8008 bound_to 7997
  155.2402  140.3344  155.4275 H   0  0  0  0  0  0  0  0  0  0  0  0  # atno 8009 bound_to 7997
  156.2213  140.1800  156.7453 H   0  0  0  0  0  0  0  0  0  0  0  0  # atno 8010 bound_to 7997
  139.6822  143.9561  152.2343 H   0  0  0  0  0  0  0  0  0  0  0  0  # atno 10167 bound_to 10162
  156.0875  130.6064  150.8866 H   0  0  0  0  0  0  0  0  0  0  0  0  # atno 10718 bound_to 10713
  152.9924  135.5532  154.5893 H   0  0  0  0  0  0  0  0  0  0  0  0  # atno 10763 bound_to 10752
  154.5258  135.2810  155.1225 H   0  0  0  0  0  0  0  0  0  0  0  0  # atno 10764 bound_to 10752
  154.2561  135.6390  153.5310 H   0  0  0  0  0  0  0  0  0  0  0  0  # atno 10765 bound_to 10752
  140.3373  134.7306  157.4177 H   0  0  0  0  0  0  0  0  0  0  0  0  # atno 11005 bound_to 11000
  145.8845  139.2341  143.1585 LP  0  0  0  0  0  0  0  0  0  0  0  0  # atno 17320 bound_to 7965
  145.9963  140.8559  143.0041 LP  0  0  0  0  0  0  0  0  0  0  0  0  # atno 17321 bound_to 7965
  139.9354  144.6715  150.8320 LP  0  0  0  0  0  0  0  0  0  0  0  0  # atno 17342 bound_to 10162
  140.7656  143.3280  151.2473 LP  0  0  0  0  0  0  0  0  0  0  0  0  # atno 17343 bound_to 10162
  157.6015  131.0941  150.8953 LP  0  0  0  0  0  0  0  0  0  0  0  0  # atno 17370 bound_to 10713
  156.9109  130.5280  149.5280 LP  0  0  0  0  0  0  0  0  0  0  0  0  # atno 17371 bound_to 10713
  140.0810  134.5731  155.8540 LP  0  0  0  0  0  0  0  0  0  0  0  0  # atno 17394 bound_to 11000
  141.2048  133.6642  156.6141 LP  0  0  0  0  0  0  0  0  0  0  0  0  # atno 17395 bound_to 11000

$$$$
