AV-unprocessed.smi:1835|AV-procd|sdf|7476|dock10
  -GOLD-   22720 9173D 1   1.00000     0.00000
 Structure written by MMmdl.
 42 43  0  0  0  0  0  0  0  0  2 V2000
  149.6600  135.3945  155.1814 C   0  0  0  0  0  0  0  0  0  0  0  0
  148.8696  134.1537  154.7045 C   0  0  1  0  0  0  0  0  0  0  0  0
  148.2337  133.4065  155.9109 C   0  0  0  0  0  0  0  0  0  0  0  0
  147.5606  134.3070  156.8436 N   0  0  0  0  0  0  0  0  0  0  0  0
  148.1460  134.9522  157.8645 C   0  0  0  0  0  0  0  0  0  0  0  0
  149.3498  134.8751  158.1119 O   0  0  0  0  0  0  0  0  0  0  0  0
  147.2241  135.8179  158.7338 C   0  0  0  0  0  0  0  0  0  0  0  0
  147.0965  135.3129  160.1110 N   0  0  0  0  0  0  0  0  0  0  0  0
  146.6132  133.9990  160.2735 C   0  0  0  0  0  0  0  0  0  0  0  0
  146.4607  133.4437  161.4861 C   0  0  0  0  0  0  0  0  0  0  0  0
  146.8065  134.2306  162.6461 C   0  0  0  0  0  0  0  0  0  0  0  0
  147.2671  135.4892  162.5024 C   0  0  0  0  0  0  0  0  0  0  0  0
  147.4344  136.1008  161.1789 C   0  0  0  0  0  0  0  0  0  0  0  0
  147.8521  137.2509  161.0379 O   0  0  0  0  0  0  0  0  0  0  0  0
  147.8760  134.5532  153.6535 N   0  3  0  0  0  0  0  0  0  0  0  0
  147.3142  133.3839  152.9226 C   0  0  0  0  0  0  0  0  0  0  0  0
  146.3811  133.8365  151.7884 C   0  0  0  0  0  0  0  0  0  0  0  0
  145.3327  134.6275  152.3274 O   0  0  0  0  0  0  0  0  0  0  0  0
  145.8333  135.8037  152.9450 C   0  0  0  0  0  0  0  0  0  0  0  0
  146.7626  135.4294  154.1129 C   0  0  0  0  0  0  0  0  0  0  0  0
  150.4534  135.1257  155.8779 H   0  0  0  0  0  0  0  0  0  0  0  0
  149.0056  136.1054  155.6869 H   0  0  0  0  0  0  0  0  0  0  0  0
  150.1525  135.9226  154.3675 H   0  0  0  0  0  0  0  0  0  0  0  0
  149.5738  133.4599  154.2419 H   0  0  0  0  0  0  0  0  0  0  0  0
  147.5535  132.6278  155.5610 H   0  0  0  0  0  0  0  0  0  0  0  0
  149.0021  132.9062  156.5002 H   0  0  0  0  0  0  0  0  0  0  0  0
  146.5674  134.4363  156.7137 H   0  0  0  0  0  0  0  0  0  0  0  0
  147.6127  136.8369  158.7277 H   0  0  0  0  0  0  0  0  0  0  0  0
  146.2361  135.8848  158.2741 H   0  0  0  0  0  0  0  0  0  0  0  0
  146.3719  133.4787  159.3580 H   0  0  0  0  0  0  0  0  0  0  0  0
  146.0866  132.4359  161.5912 H   0  0  0  0  0  0  0  0  0  0  0  0
  146.6940  133.8084  163.6340 H   0  0  0  0  0  0  0  0  0  0  0  0
  147.5198  136.0630  163.3818 H   0  0  0  0  0  0  0  0  0  0  0  0
  148.1024  132.7692  152.4924 H   0  0  0  0  0  0  0  0  0  0  0  0
  146.7644  132.7485  153.6187 H   0  0  0  0  0  0  0  0  0  0  0  0
  146.9296  134.3971  151.0296 H   0  0  0  0  0  0  0  0  0  0  0  0
  145.9471  132.9689  151.2913 H   0  0  0  0  0  0  0  0  0  0  0  0
  146.3576  136.4191  152.2120 H   0  0  0  0  0  0  0  0  0  0  0  0
  144.9925  136.3937  153.3103 H   0  0  0  0  0  0  0  0  0  0  0  0
  146.1956  134.9227  154.8955 H   0  0  0  0  0  0  0  0  0  0  0  0
  147.1448  136.3593  154.5325 H   0  0  0  0  0  0  0  0  0  0  0  0
  148.3907  135.1005  152.9784 H   0  0  0  0  0  0  0  0  0  0  0  0
  1  2  1  0  0  0  0
  1 21  1  0  0  0  0
  1 22  1  0  0  0  0
  1 23  1  0  0  0  0
  2  3  1  0  0  0  0
  2 15  1  0  0  0  0
  2 24  1  0  0  0  0
  3  4  1  0  0  0  0
  3 25  1  0  0  0  0
  3 26  1  0  0  0  0
  4  5  1  0  0  0  0
  4 27  1  0  0  0  0
  5  6  2  0  0  0  0
  5  7  1  0  0  0  0
  7  8  1  0  0  0  0
  7 28  1  0  0  0  0
  7 29  1  0  0  0  0
  8 13  1  0  0  0  0
  8  9  1  0  0  0  0
  9 10  2  0  0  0  0
  9 30  1  0  0  0  0
 10 11  1  0  0  0  0
 10 31  1  0  0  0  0
 11 12  2  0  0  0  0
 11 32  1  0  0  0  0
 12 13  1  0  0  0  0
 12 33  1  0  0  0  0
 13 14  2  0  0  0  0
 15 20  1  0  0  0  0
 15 16  1  0  0  0  0
 15 42  1  0  0  0  0
 16 17  1  0  0  0  0
 16 34  1  0  0  0  0
 16 35  1  0  0  0  0
 17 18  1  0  0  0  0
 17 36  1  0  0  0  0
 17 37  1  0  0  0  0
 18 19  1  0  0  0  0
 19 20  1  0  0  0  0
 19 38  1  0  0  0  0
 19 39  1  0  0  0  0
 20 40  1  0  0  0  0
 20 41  1  0  0  0  0
M  CHG  1  15   1
M  END
> <s_m_source_file>
AV-unprocessed.smi

> <i_m_source_file_index>
1835

> <i_lp_mmshare_version>
43012

> <i_f3d_flags>
0

> <s_epik_input>
W0NIMl0xW0NIMl1PW0NIMl1bQ0gyXU4xW0NASF0oW0NIM10pW0NIMl1bTkhdQyg9TylbQ0gyXW4yW2NIXVtjSF1bY0hdW2NIXWMyPU8=

> <s_epik_cmdline>
J2VwaWtfcHl0aG9uJywgJy1waCcsICc3LjAnLCAnLXRuJywgJzgnLCAnLW1hJywgJzIwMCcsICctbWV0YWxfYmluZGluZycsICctaW1hZScsICc8aW5maWxlLm1hZT4nLCAnLW9tYWUnLCAnPG91dGZpbGUubWFlPic=

> <r_lp_tautomer_probability>
1

> <r_epik_Ionization_Penalty>
0.656654

> <r_epik_Ionization_Penalty_Charging>
0.656654

> <r_epik_Ionization_Penalty_Neutral>
9.12373e-08

> <r_epik_State_Penalty>
0.675641

> <r_epik_Charging_Adjusted_Penalty>
1.33229

> <i_epik_Tot_Q>
1

> <i_epik_Tot_abs_Q>
1

> <r_epik_Metal_State_Penalty>
0.675692

> <b_epik_Metal_Only>
0

> <s_lp_Force_Field>
OPLS_2005

> <r_lp_Energy>
28.3698

> <b_lp_Chiralities_Consistent>
1

> <s_lp_Variant>
AV-unprocessed.smi:1835-4

> <Gold.Version>
5.8.1

> <Gold.Id.Protein>
6NUR|6NUR_protein|mol2

> <Gold.PLP.Fitness>
47.2922

> <Gold.PLP.PLP>
-33.6528

> <Gold.PLP.part.hbond>
-4.0000

> <Gold.PLP.part.metal>
0.0000

> <Gold.PLP.part.buried>
-2.6432

> <Gold.PLP.part.nonpolar>
-27.3239

> <Gold.PLP.part.repulsive>
0.1321

> <Gold.PLP.ligand.clash>
0.0000

> <Gold.PLP.ligand.torsion>
0.4217

> <Gold.PLP.Chemscore.Hbond>
4.8080

> <Gold.PLP.Chemscore.CHOScore>
0.0000

> <Gold.PLP.Chemscore.Metal>
0.0000

> <Gold.Chemscore.Hbonds>
donor molecule, donor type, donor heavy atom, donor atom, acceptor molecule, acceptor atom, score
      L1  H    15    42       P1  7948  2.00
      P1  H  6896  6909       L1     6  0.90
      P1  H  6931  6943       L1    14  0.90
      P1  H  6934  6947       L1    14  0.78

> <Gold.PLP.Chemscore.Internal.Correction>
0.0586

> <Gold.Rescore>
     Score         DG    S(hbond)    S(metal)    S(lipo)     H(rot)  DE(clash)    DE(int)     intcor
     19.72     -20.29       3.69        0.00      64.09       1.96       0.03       0.54       ----

> <Gold.Chemscore.Fitness>
19.7173

> <Gold.Chemscore.DG>
-20.2876

> <Gold.Chemscore.ZeroCoef>
-5.4800

> <Gold.Chemscore.Hbond>
3.6943

> <Gold.Chemscore.Metal>
0.0000

> <Gold.Chemscore.Lipo>
64.0909

> <Gold.Chemscore.Internal_Hbond>
0.0000

> <Gold.Chemscore.DEClash>
0.0318

> <Gold.Chemscore.DEInternal>
0.5385

> <Gold.Chemscore.Rot>
1.9649

> <Gold.Chemscore.Internal.Correction>
   9.000000E+99

> <Gold.Chemscore.Hbonds>
donor molecule, donor type, donor heavy atom, donor atom, acceptor molecule, acceptor atom, score
      L1  H    15    42       P1  7948  0.85
      P1  H  6896  6909       L1     6  0.82
      P1  H  6931  6943       L1    14  0.88
      P1  H  6934  6947       L1    14  0.79

> <Gold.Chemscore.Hbond.Weighted>
-12.3390

> <Gold.Chemscore.Metal.Weighted>
-0.0000

> <Gold.Chemscore.Lipo.Weighted>
-7.4986

> <Gold.Chemscore.Internal_Hbond.Weighted>
0.0000

> <Gold.Chemscore.DEClash.Weighted>
0.0318

> <Gold.Chemscore.DEInternal.Weighted>
0.5385

> <Gold.Chemscore.Rot.Weighted>
5.0300

> <Gold.Chemscore.Internal.Correction.Weighted>
   9.000000E+99

> <Gold.Protein.RotatedTorsions>
[ 6907 6896 6895 6894 ] final   57.41 input  -60.11 | X-H torsion
[ 7974 7965 7964 7962 ] final   39.82 input  175.53 | X-H torsion
[ 8008 7997 7996 7995 ] final -154.78 input   59.86 | X-H torsion
[ 10167 10162 10161 10158 ] final    6.78 input  -65.29 | X-H torsion
[ 10718 10713 10712 10709 ] final   96.33 input   66.30 | X-H torsion
[ 10763 10752 10751 10750 ] final  -69.70 input  -60.55 | X-H torsion
[ 11005 11000 10999 10996 ] final   -4.21 input  -57.11 | X-H torsion

> <Gold.Protein.ActiveResidues>
 VAL166  LYS551  ARG553  GLY616  TRP617  ASP618  TYR619  PRO620  LYS621  CYS622 
 ASP623  PHE694  ASN695  SER759  ASP760  ASP761  ALA762  ILE779  LEU786  VAL792 
 PHE793  MET794  SER795  GLU796  ALA797  LYS798  CYS799  TRP800  GLU811  SER814 

> <Gold.Protein.RotatedAtoms>
  152.3728  134.6707  160.0169 H   0  0  0  0  0  0  0  0  0  0  0  0  # atno 6907 bound_to 6896
  151.6995  133.3305  159.3271 H   0  0  0  0  0  0  0  0  0  0  0  0  # atno 6908 bound_to 6896
  150.7687  134.6563  159.6360 H   0  0  0  0  0  0  0  0  0  0  0  0  # atno 6909 bound_to 6896
  146.0954  139.5606  142.9449 H   0  0  0  0  0  0  0  0  0  0  0  0  # atno 7974 bound_to 7965
  155.6917  140.0756  157.2445 H   0  0  0  0  0  0  0  0  0  0  0  0  # atno 8008 bound_to 7997
  154.4087  140.1663  156.2147 H   0  0  0  0  0  0  0  0  0  0  0  0  # atno 8009 bound_to 7997
  155.9446  140.3382  155.6359 H   0  0  0  0  0  0  0  0  0  0  0  0  # atno 8010 bound_to 7997
  140.6408  143.7777  150.7426 H   0  0  0  0  0  0  0  0  0  0  0  0  # atno 10167 bound_to 10162
  157.6928  131.0574  150.4475 H   0  0  0  0  0  0  0  0  0  0  0  0  # atno 10718 bound_to 10713
  154.4072  135.6017  153.5931 H   0  0  0  0  0  0  0  0  0  0  0  0  # atno 10763 bound_to 10752
  152.9789  135.5920  154.4113 H   0  0  0  0  0  0  0  0  0  0  0  0  # atno 10764 bound_to 10752
  154.3920  135.2842  155.2127 H   0  0  0  0  0  0  0  0  0  0  0  0  # atno 10765 bound_to 10752
  140.6777  133.9181  155.8535 H   0  0  0  0  0  0  0  0  0  0  0  0  # atno 11005 bound_to 11000
  145.5959  141.0363  143.2045 LP  0  0  0  0  0  0  0  0  0  0  0  0  # atno 17320 bound_to 7965
  144.7391  139.7499  143.7318 LP  0  0  0  0  0  0  0  0  0  0  0  0  # atno 17321 bound_to 7965
  140.1409  143.4442  152.2194 LP  0  0  0  0  0  0  0  0  0  0  0  0  # atno 17342 bound_to 10162
  139.5618  144.7410  151.4134 LP  0  0  0  0  0  0  0  0  0  0  0  0  # atno 17343 bound_to 10162
  156.4829  130.4078  149.6451 LP  0  0  0  0  0  0  0  0  0  0  0  0  # atno 17370 bound_to 10713
  156.3490  130.7422  151.2378 LP  0  0  0  0  0  0  0  0  0  0  0  0  # atno 17371 bound_to 10713
  141.0342  134.0713  157.3979 LP  0  0  0  0  0  0  0  0  0  0  0  0  # atno 17394 bound_to 11000
  139.8961  135.0144  156.7036 LP  0  0  0  0  0  0  0  0  0  0  0  0  # atno 17395 bound_to 11000

$$$$
