AV-unprocessed.smi:2772|AV-procd|sdf|10664|dock10
  -GOLD-   2272015113D 1   1.00000     0.00000
 Structure written by MMmdl.
 55 57  0  0  0  0  0  0  0  0  3 V2000
  152.8184  143.1750  160.7770 C   0  0  0  0  0  0  0  0  0  0  0  0
  152.0821  142.7992  159.5082 C   0  0  0  0  0  0  0  0  0  0  0  0
  152.0192  143.6907  158.4179 C   0  0  0  0  0  0  0  0  0  0  0  0
  151.3186  143.2938  157.2625 C   0  0  0  0  0  0  0  0  0  0  0  0
  150.6978  142.0213  157.2420 C   0  0  0  0  0  0  0  0  0  0  0  0
  149.9771  141.4966  156.1347 N   0  0  0  0  0  0  0  0  0  0  0  0
  149.0452  140.5281  156.1213 C   0  0  0  0  0  0  0  0  0  0  0  0
  148.6606  139.8930  157.1028 O   0  0  0  0  0  0  0  0  0  0  0  0
  148.5856  140.3145  154.8798 N   0  0  0  0  0  0  0  0  0  0  0  0
  147.5685  139.3303  154.5204 C   0  0  2  0  0  0  0  0  0  0  0  0
  148.0377  137.9048  154.8493 C   0  0  0  0  0  0  0  0  0  0  0  0
  146.9988  136.8674  154.3962 C   0  0  0  0  0  0  0  0  0  0  0  0
  146.7117  136.9681  152.9358 N   0  3  1  0  0  0  0  0  0  0  0  0
  145.8340  135.8490  152.4561 C   0  0  2  0  0  0  0  0  0  0  0  0
  146.4653  134.4757  152.7889 C   0  0  0  0  0  0  0  0  0  0  0  0
  145.5903  133.3037  152.3121 C   0  0  0  0  0  0  0  0  0  0  0  0
  145.3304  133.3893  150.8559 N   0  3  1  0  0  0  0  0  0  0  0  0
  144.5857  132.2178  150.3454 C   0  0  0  0  0  0  0  0  0  0  0  0
  144.6835  134.6720  150.4924 C   0  0  0  0  0  0  0  0  0  0  0  0
  145.5385  135.8727  150.9345 C   0  0  0  0  0  0  0  0  0  0  0  0
  146.2461  138.3430  152.5882 C   0  0  0  0  0  0  0  0  0  0  0  0
  147.2590  139.4182  153.0207 C   0  0  0  0  0  0  0  0  0  0  0  0
  150.8355  141.2055  158.3852 C   0  0  0  0  0  0  0  0  0  0  0  0
  151.5047  141.5785  159.4967 N   0  0  0  0  0  0  0  0  0  0  0  0
  153.4520  144.0482  160.6193 H   0  0  0  0  0  0  0  0  0  0  0  0
  153.4524  142.3533  161.1118 H   0  0  0  0  0  0  0  0  0  0  0  0
  152.1076  143.4067  161.5706 H   0  0  0  0  0  0  0  0  0  0  0  0
  152.4999  144.6569  158.4601 H   0  0  0  0  0  0  0  0  0  0  0  0
  151.2851  143.9652  156.4191 H   0  0  0  0  0  0  0  0  0  0  0  0
  150.2400  141.8717  155.2350 H   0  0  0  0  0  0  0  0  0  0  0  0
  148.9614  140.8788  154.1317 H   0  0  0  0  0  0  0  0  0  0  0  0
  146.6527  139.5451  155.0752 H   0  0  0  0  0  0  0  0  0  0  0  0
  148.9935  137.7023  154.3631 H   0  0  0  0  0  0  0  0  0  0  0  0
  148.2090  137.8022  155.9216 H   0  0  0  0  0  0  0  0  0  0  0  0
  147.3744  135.8792  154.6545 H   0  0  0  0  0  0  0  0  0  0  0  0
  146.0730  137.0030  154.9581 H   0  0  0  0  0  0  0  0  0  0  0  0
  144.8756  135.9328  152.9719 H   0  0  0  0  0  0  0  0  0  0  0  0
  147.4506  134.4030  152.3258 H   0  0  0  0  0  0  0  0  0  0  0  0
  146.6251  134.3600  153.8596 H   0  0  0  0  0  0  0  0  0  0  0  0
  146.0916  132.3615  152.5371 H   0  0  0  0  0  0  0  0  0  0  0  0
  144.6432  133.2964  152.8545 H   0  0  0  0  0  0  0  0  0  0  0  0
  143.5942  132.1566  150.7960 H   0  0  0  0  0  0  0  0  0  0  0  0
  145.1206  131.2937  150.5681 H   0  0  0  0  0  0  0  0  0  0  0  0
  144.4662  132.2789  149.2632 H   0  0  0  0  0  0  0  0  0  0  0  0
  144.5339  134.7108  149.4125 H   0  0  0  0  0  0  0  0  0  0  0  0
  143.6945  134.7263  150.9509 H   0  0  0  0  0  0  0  0  0  0  0  0
  144.9954  136.7771  150.6589 H   0  0  0  0  0  0  0  0  0  0  0  0
  146.4731  135.8780  150.3714 H   0  0  0  0  0  0  0  0  0  0  0  0
  146.1190  138.4498  151.5118 H   0  0  0  0  0  0  0  0  0  0  0  0
  145.2754  138.5293  153.0504 H   0  0  0  0  0  0  0  0  0  0  0  0
  146.8692  140.4076  152.7783 H   0  0  0  0  0  0  0  0  0  0  0  0
  148.1784  139.2998  152.4450 H   0  0  0  0  0  0  0  0  0  0  0  0
  150.3904  140.2215  158.4126 H   0  0  0  0  0  0  0  0  0  0  0  0
  147.5946  136.8541  152.4582 H   0  0  0  0  0  0  0  0  0  0  0  0
  146.2305  133.3758  150.3974 H   0  0  0  0  0  0  0  0  0  0  0  0
  1  2  1  0  0  0  0
  1 25  1  0  0  0  0
  1 26  1  0  0  0  0
  1 27  1  0  0  0  0
  2 24  1  0  0  0  0
  2  3  2  0  0  0  0
  3  4  1  0  0  0  0
  3 28  1  0  0  0  0
  4  5  2  0  0  0  0
  4 29  1  0  0  0  0
  5  6  1  0  0  0  0
  5 23  1  0  0  0  0
  6  7  1  0  0  0  0
  6 30  1  0  0  0  0
  7  8  2  0  0  0  0
  7  9  1  0  0  0  0
  9 10  1  0  0  0  0
  9 31  1  0  0  0  0
 10 22  1  0  0  0  0
 10 11  1  0  0  0  0
 10 32  1  0  0  0  0
 11 12  1  0  0  0  0
 11 33  1  0  0  0  0
 11 34  1  0  0  0  0
 12 13  1  0  0  0  0
 12 35  1  0  0  0  0
 12 36  1  0  0  0  0
 13 14  1  0  0  0  0
 13 21  1  0  0  0  0
 13 54  1  0  0  0  0
 14 20  1  0  0  0  0
 14 15  1  0  0  0  0
 14 37  1  0  0  0  0
 15 16  1  0  0  0  0
 15 38  1  0  0  0  0
 15 39  1  0  0  0  0
 16 17  1  0  0  0  0
 16 40  1  0  0  0  0
 16 41  1  0  0  0  0
 17 18  1  0  0  0  0
 17 19  1  0  0  0  0
 17 55  1  0  0  0  0
 18 42  1  0  0  0  0
 18 43  1  0  0  0  0
 18 44  1  0  0  0  0
 19 20  1  0  0  0  0
 19 45  1  0  0  0  0
 19 46  1  0  0  0  0
 20 47  1  0  0  0  0
 20 48  1  0  0  0  0
 21 22  1  0  0  0  0
 21 49  1  0  0  0  0
 21 50  1  0  0  0  0
 22 51  1  0  0  0  0
 22 52  1  0  0  0  0
 23 24  2  0  0  0  0
 23 53  1  0  0  0  0
M  CHG  1  13   1
M  CHG  1  17   1
M  END
> <s_m_source_file>
AV-unprocessed.smi

> <i_m_source_file_index>
2772

> <i_lp_mmshare_version>
43012

> <i_f3d_flags>
0

> <s_epik_input>
W0NIM11jMVtjSF1bY0hdYyhbY0hdbjEpW05IXUMoPU8pW05IXVtDSF0yW0NIMl1bQ0gyXU4oW0NIMl1bQ0gyXTIpW0NIXTNbQ0gyXVtDSDJdTihbQ0gzXSlbQ0gyXVtDSDJdMw==

> <s_epik_cmdline>
J2VwaWtfcHl0aG9uJywgJy1waCcsICc3LjAnLCAnLXRuJywgJzgnLCAnLW1hJywgJzIwMCcsICctbWV0YWxfYmluZGluZycsICctaW1hZScsICc8aW5maWxlLm1hZT4nLCAnLW9tYWUnLCAnPG91dGZpbGUubWFlPic=

> <r_epik_Ionization_Penalty>
0.196786

> <r_epik_Ionization_Penalty_Charging>
0.180787

> <r_epik_Ionization_Penalty_Neutral>
0.0159988

> <r_epik_State_Penalty>
0.163322

> <r_epik_Charging_Adjusted_Penalty>
0.344109

> <i_epik_Tot_Q>
2

> <i_epik_Tot_abs_Q>
2

> <r_epik_Metal_State_Penalty>
0.163596

> <b_epik_Metal_Only>
0

> <s_lp_Force_Field>
OPLS_2005

> <r_lp_Energy>
43.2769

> <b_lp_Chiralities_Consistent>
1

> <s_lp_Variant>
AV-unprocessed.smi:2772-1

> <Gold.Version>
5.8.1

> <Gold.Id.Protein>
6NUR|6NUR_protein|mol2

> <Gold.PLP.Fitness>
44.6972

> <Gold.PLP.PLP>
-38.9300

> <Gold.PLP.part.hbond>
-1.3543

> <Gold.PLP.part.metal>
0.0000

> <Gold.PLP.part.buried>
-2.8318

> <Gold.PLP.part.nonpolar>
-34.0711

> <Gold.PLP.part.repulsive>
0.2155

> <Gold.PLP.ligand.clash>
0.0000

> <Gold.PLP.ligand.torsion>
0.1327

> <Gold.PLP.Chemscore.Hbond>
2.0000

> <Gold.PLP.Chemscore.CHOScore>
0.0000

> <Gold.PLP.Chemscore.Metal>
0.0000

> <Gold.Chemscore.Hbonds>
donor molecule, donor type, donor heavy atom, donor atom, acceptor molecule, acceptor atom, score
      L1  H    13    54       P1  7948  2.00

> <Gold.PLP.Chemscore.Internal.Correction>
0.0326

> <Gold.Rescore>
     Score         DG    S(hbond)    S(metal)    S(lipo)     H(rot)  DE(clash)    DE(int)     intcor
     17.38     -19.19       1.00        0.00     115.18       1.21       0.32       1.49       ----

> <Gold.Chemscore.Fitness>
17.3770

> <Gold.Chemscore.DG>
-19.1928

> <Gold.Chemscore.ZeroCoef>
-5.4800

> <Gold.Chemscore.Hbond>
0.9978

> <Gold.Chemscore.Metal>
0.0000

> <Gold.Chemscore.Lipo>
115.1766

> <Gold.Chemscore.Internal_Hbond>
0.0000

> <Gold.Chemscore.DEClash>
0.3208

> <Gold.Chemscore.DEInternal>
1.4950

> <Gold.Chemscore.Rot>
1.2092

> <Gold.Chemscore.Internal.Correction>
   9.000000E+99

> <Gold.Chemscore.Hbonds>
donor molecule, donor type, donor heavy atom, donor atom, acceptor molecule, acceptor atom, score
      L1  H    13    54       P1  7948  0.99

> <Gold.Chemscore.Hbond.Weighted>
-3.3326

> <Gold.Chemscore.Metal.Weighted>
-0.0000

> <Gold.Chemscore.Lipo.Weighted>
-13.4757

> <Gold.Chemscore.Internal_Hbond.Weighted>
0.0000

> <Gold.Chemscore.DEClash.Weighted>
0.3208

> <Gold.Chemscore.DEInternal.Weighted>
1.4950

> <Gold.Chemscore.Rot.Weighted>
3.0955

> <Gold.Chemscore.Internal.Correction.Weighted>
   9.000000E+99

> <Gold.Protein.RotatedTorsions>
[ 6907 6896 6895 6894 ] final  142.36 input  -60.11 | X-H torsion
[ 7974 7965 7964 7962 ] final  154.30 input  175.53 | X-H torsion
[ 8008 7997 7996 7995 ] final   18.47 input   59.86 | X-H torsion
[ 10167 10162 10161 10158 ] final  -69.55 input  -65.29 | X-H torsion
[ 10718 10713 10712 10709 ] final -112.05 input   66.30 | X-H torsion
[ 10763 10752 10751 10750 ] final  116.38 input  -60.55 | X-H torsion
[ 11005 11000 10999 10996 ] final   54.00 input  -57.11 | X-H torsion

> <Gold.Protein.ActiveResidues>
 VAL166  LYS551  ARG553  GLY616  TRP617  ASP618  TYR619  PRO620  LYS621  CYS622 
 ASP623  PHE694  ASN695  SER759  ASP760  ASP761  ALA762  ILE779  LEU786  VAL792 
 PHE793  MET794  SER795  GLU796  ALA797  LYS798  CYS799  TRP800  GLU811  SER814 

> <Gold.Protein.RotatedAtoms>
  152.2196  133.4973  159.5155 H   0  0  0  0  0  0  0  0  0  0  0  0  # atno 6907 bound_to 6896
  150.7009  134.1359  159.4096 H   0  0  0  0  0  0  0  0  0  0  0  0  # atno 6908 bound_to 6896
  151.9280  135.0269  160.0578 H   0  0  0  0  0  0  0  0  0  0  0  0  # atno 6909 bound_to 6896
  144.8097  139.6916  143.6147 H   0  0  0  0  0  0  0  0  0  0  0  0  # atno 7974 bound_to 7965
  154.9065  140.3008  155.5289 H   0  0  0  0  0  0  0  0  0  0  0  0  # atno 8008 bound_to 7997
  156.3016  140.2397  156.4034 H   0  0  0  0  0  0  0  0  0  0  0  0  # atno 8009 bound_to 7997
  154.8469  140.0411  157.1567 H   0  0  0  0  0  0  0  0  0  0  0  0  # atno 8010 bound_to 7997
  140.5421  143.2314  151.7069 H   0  0  0  0  0  0  0  0  0  0  0  0  # atno 10167 bound_to 10162
  156.0683  130.5900  150.8457 H   0  0  0  0  0  0  0  0  0  0  0  0  # atno 10718 bound_to 10713
  153.5364  135.3567  155.2699 H   0  0  0  0  0  0  0  0  0  0  0  0  # atno 10763 bound_to 10752
  154.8722  135.4080  154.3093 H   0  0  0  0  0  0  0  0  0  0  0  0  # atno 10764 bound_to 10752
  153.3792  135.7067  153.6646 H   0  0  0  0  0  0  0  0  0  0  0  0  # atno 10765 bound_to 10752
  140.0722  134.5454  155.9035 H   0  0  0  0  0  0  0  0  0  0  0  0  # atno 11005 bound_to 11000
  146.2394  139.5971  142.9501 LP  0  0  0  0  0  0  0  0  0  0  0  0  # atno 17320 bound_to 7965
  145.5352  141.0424  143.2361 LP  0  0  0  0  0  0  0  0  0  0  0  0  # atno 17321 bound_to 7965
  139.4993  144.3951  152.0239 LP  0  0  0  0  0  0  0  0  0  0  0  0  # atno 17342 bound_to 10162
  140.3061  144.3591  150.6046 LP  0  0  0  0  0  0  0  0  0  0  0  0  # atno 17343 bound_to 10162
  157.5738  131.0946  150.9377 LP  0  0  0  0  0  0  0  0  0  0  0  0  # atno 17370 bound_to 10713
  156.9587  130.5447  149.5285 LP  0  0  0  0  0  0  0  0  0  0  0  0  # atno 17371 bound_to 10713
  141.2016  133.6619  156.5959 LP  0  0  0  0  0  0  0  0  0  0  0  0  # atno 17394 bound_to 11000
  140.3611  134.7687  157.4534 LP  0  0  0  0  0  0  0  0  0  0  0  0  # atno 17395 bound_to 11000

$$$$
