AV-unprocessed.smi:282|AV-procd|sdf|2124|dock6
  -GOLD-   2262021433D 1   1.00000     0.00000
 Structure written by MMmdl.
 65 69  0  0  0  0  0  0  0  0  2 V2000
  147.6364  140.7571  154.6521 C   0  0  0  0  0  0  0  0  0  0  0  0
  148.9370  141.5307  154.9075 C   0  0  0  0  0  0  0  0  0  0  0  0
  149.8744  140.8297  155.9139 C   0  0  1  0  0  0  0  0  0  0  0  0
  151.1216  141.6861  156.2257 C   0  0  0  0  0  0  0  0  0  0  0  0
  150.8004  142.8431  157.1014 N   0  3  2  0  0  0  0  0  0  0  0  0
  151.9964  143.6831  157.3668 C   0  0  0  0  0  0  0  0  0  0  0  0
  151.6287  144.9417  158.1676 C   0  0  0  0  0  0  0  0  0  0  0  0
  150.9293  144.5657  159.4791 C   0  0  0  0  0  0  0  0  0  0  0  0
  149.7091  143.6841  159.1855 C   0  0  0  0  0  0  0  0  0  0  0  0
  150.0946  142.4436  158.3546 C   0  0  1  0  0  0  0  0  0  0  0  0
  148.8465  141.5957  158.0368 C   0  0  0  0  0  0  0  0  0  0  0  0
  149.1788  140.4784  157.1567 N   0  0  0  0  0  0  0  0  0  0  0  0
  149.4767  139.3076  157.7787 C   0  0  0  0  0  0  0  0  0  0  0  0
  150.7741  138.9640  157.9959 N   0  0  0  0  0  0  0  0  0  0  0  0
  151.0755  137.8193  158.6152 C   0  0  0  0  0  0  0  0  0  0  0  0
  150.2492  136.8856  159.0892 N   0  0  0  0  0  0  0  0  0  0  0  0
  148.9456  137.2176  158.8664 C   0  0  0  0  0  0  0  0  0  0  0  0
  148.4760  138.4005  158.2285 C   0  0  0  0  0  0  0  0  0  0  0  0
  147.0873  138.3925  158.1815 N   0  0  0  0  0  0  0  0  0  0  0  0
  146.7550  137.2753  158.7684 C   0  0  0  0  0  0  0  0  0  0  0  0
  147.8088  136.4986  159.1951 N   0  0  0  0  0  0  0  0  0  0  0  0
  147.7259  135.2124  159.8727 C   0  0  0  0  0  0  0  0  0  0  0  0
  146.9081  135.2208  161.1987 C   0  0  0  0  0  0  0  0  0  0  0  0
  147.5313  136.2051  162.2302 C   0  0  0  0  0  0  0  0  0  0  0  0
  147.1950  137.5507  161.9570 O   0  0  0  0  0  0  0  0  0  0  0  0
  145.4432  135.6348  160.9091 C   0  0  0  0  0  0  0  0  0  0  0  0
  144.4940  135.3615  162.0903 C   0  0  0  0  0  0  0  0  0  0  0  0
  144.5582  133.9910  162.4622 O   0  0  0  0  0  0  0  0  0  0  0  0
  145.8531  133.5979  162.8983 C   0  0  0  0  0  0  0  0  0  0  0  0
  146.8673  133.7750  161.7542 C   0  0  0  0  0  0  0  0  0  0  0  0
  147.0240  141.2658  153.9073 H   0  0  0  0  0  0  0  0  0  0  0  0
  147.0408  140.6658  155.5608 H   0  0  0  0  0  0  0  0  0  0  0  0
  147.8416  139.7517  154.2831 H   0  0  0  0  0  0  0  0  0  0  0  0
  149.4580  141.6421  153.9559 H   0  0  0  0  0  0  0  0  0  0  0  0
  148.7008  142.5428  155.2362 H   0  0  0  0  0  0  0  0  0  0  0  0
  150.2138  139.9165  155.4226 H   0  0  0  0  0  0  0  0  0  0  0  0
  151.8752  141.0733  156.7221 H   0  0  0  0  0  0  0  0  0  0  0  0
  151.5755  142.0372  155.2981 H   0  0  0  0  0  0  0  0  0  0  0  0
  152.7399  143.0973  157.9101 H   0  0  0  0  0  0  0  0  0  0  0  0
  152.4532  143.9766  156.4211 H   0  0  0  0  0  0  0  0  0  0  0  0
  152.5250  145.5259  158.3773 H   0  0  0  0  0  0  0  0  0  0  0  0
  150.9751  145.5793  157.5710 H   0  0  0  0  0  0  0  0  0  0  0  0
  151.6233  144.0326  160.1302 H   0  0  0  0  0  0  0  0  0  0  0  0
  150.6246  145.4650  160.0155 H   0  0  0  0  0  0  0  0  0  0  0  0
  149.2451  143.3765  160.1234 H   0  0  0  0  0  0  0  0  0  0  0  0
  148.9606  144.2695  158.6495 H   0  0  0  0  0  0  0  0  0  0  0  0
  150.7832  141.8331  158.9421 H   0  0  0  0  0  0  0  0  0  0  0  0
  148.3984  141.2522  158.9687 H   0  0  0  0  0  0  0  0  0  0  0  0
  148.0877  142.2085  157.5499 H   0  0  0  0  0  0  0  0  0  0  0  0
  152.1291  137.6227  158.7495 H   0  0  0  0  0  0  0  0  0  0  0  0
  145.7240  136.9805  158.8993 H   0  0  0  0  0  0  0  0  0  0  0  0
  147.2967  134.4951  159.1719 H   0  0  0  0  0  0  0  0  0  0  0  0
  148.7432  134.8647  160.0569 H   0  0  0  0  0  0  0  0  0  0  0  0
  147.2053  135.9661  163.2425 H   0  0  0  0  0  0  0  0  0  0  0  0
  148.6175  136.1369  162.2468 H   0  0  0  0  0  0  0  0  0  0  0  0
  146.5908  137.8502  162.6192 H   0  0  0  0  0  0  0  0  0  0  0  0
  145.3876  136.6891  160.6360 H   0  0  0  0  0  0  0  0  0  0  0  0
  145.0741  135.0781  160.0469 H   0  0  0  0  0  0  0  0  0  0  0  0
  144.7235  135.9957  162.9469 H   0  0  0  0  0  0  0  0  0  0  0  0
  143.4690  135.5932  161.8003 H   0  0  0  0  0  0  0  0  0  0  0  0
  146.1427  134.1623  163.7851 H   0  0  0  0  0  0  0  0  0  0  0  0
  145.8145  132.5502  163.1971 H   0  0  0  0  0  0  0  0  0  0  0  0
  146.5897  133.0882  160.9532 H   0  0  0  0  0  0  0  0  0  0  0  0
  147.8572  133.4589  162.0842 H   0  0  0  0  0  0  0  0  0  0  0  0
  150.1525  143.4191  156.5830 H   0  0  0  0  0  0  0  0  0  0  0  0
  1  2  1  0  0  0  0
  1 31  1  0  0  0  0
  1 32  1  0  0  0  0
  1 33  1  0  0  0  0
  2  3  1  0  0  0  0
  2 34  1  0  0  0  0
  2 35  1  0  0  0  0
  3 12  1  0  0  0  0
  3  4  1  0  0  0  0
  3 36  1  0  0  0  0
  4  5  1  0  0  0  0
  4 37  1  0  0  0  0
  4 38  1  0  0  0  0
  5 10  1  0  0  0  0
  5  6  1  0  0  0  0
  5 65  1  0  0  0  0
  6  7  1  0  0  0  0
  6 39  1  0  0  0  0
  6 40  1  0  0  0  0
  7  8  1  0  0  0  0
  7 41  1  0  0  0  0
  7 42  1  0  0  0  0
  8  9  1  0  0  0  0
  8 43  1  0  0  0  0
  8 44  1  0  0  0  0
  9 10  1  0  0  0  0
  9 45  1  0  0  0  0
  9 46  1  0  0  0  0
 10 11  1  0  0  0  0
 10 47  1  0  0  0  0
 11 12  1  0  0  0  0
 11 48  1  0  0  0  0
 11 49  1  0  0  0  0
 12 13  1  0  0  0  0
 13 18  1  0  0  0  0
 13 14  2  0  0  0  0
 14 15  1  0  0  0  0
 15 16  2  0  0  0  0
 15 50  1  0  0  0  0
 16 17  1  0  0  0  0
 17 21  1  0  0  0  0
 17 18  2  0  0  0  0
 18 19  1  0  0  0  0
 19 20  2  0  0  0  0
 20 21  1  0  0  0  0
 20 51  1  0  0  0  0
 21 22  1  0  0  0  0
 22 23  1  0  0  0  0
 22 52  1  0  0  0  0
 22 53  1  0  0  0  0
 23 30  1  0  0  0  0
 23 24  1  0  0  0  0
 23 26  1  0  0  0  0
 24 25  1  0  0  0  0
 24 54  1  0  0  0  0
 24 55  1  0  0  0  0
 25 56  1  0  0  0  0
 26 27  1  0  0  0  0
 26 57  1  0  0  0  0
 26 58  1  0  0  0  0
 27 28  1  0  0  0  0
 27 59  1  0  0  0  0
 27 60  1  0  0  0  0
 28 29  1  0  0  0  0
 29 30  1  0  0  0  0
 29 61  1  0  0  0  0
 29 62  1  0  0  0  0
 30 63  1  0  0  0  0
 30 64  1  0  0  0  0
M  CHG  1   5   1
M  END
> <s_m_source_file>
AV-unprocessed.smi

> <i_m_source_file_index>
282

> <i_lp_mmshare_version>
43012

> <i_f3d_flags>
0

> <s_epik_input>
W0NIMl0xW0NIMl1bQ0gyXVtDSDJdW0NAQEhdKE4xMilbQ0gyXU4oW0NAQEhdKFtDSDJdMilbQ0gyXVtDSDNdKWMobltjSF1uMyljKGMzNCluW2NIXW40W0NIMl1DNShbQ0gyXVtPSF0pW0NIMl1bQ0gyXU9bQ0gyXVtDSDJdNQ==

> <s_epik_cmdline>
J2VwaWtfcHl0aG9uJywgJy1waCcsICc3LjAnLCAnLXRuJywgJzgnLCAnLW1hJywgJzIwMCcsICctbWV0YWxfYmluZGluZycsICctaW1hZScsICc8aW5maWxlLm1hZT4nLCAnLW9tYWUnLCAnPG91dGZpbGUubWFlPic=

> <r_lp_tautomer_probability>
1

> <r_epik_Ionization_Penalty>
0.00308583

> <r_epik_Ionization_Penalty_Charging>
0.00300384

> <r_epik_Ionization_Penalty_Neutral>
8.19894e-05

> <r_epik_State_Penalty>
-0

> <r_epik_Charging_Adjusted_Penalty>
0.00300384

> <i_epik_Tot_Q>
1

> <i_epik_Tot_abs_Q>
1

> <r_epik_Metal_State_Penalty>
-0

> <b_epik_Metal_Only>
0

> <s_lp_Force_Field>
OPLS_2005

> <r_lp_Energy>
57.1852

> <b_lp_Chiralities_Consistent>
1

> <s_lp_Variant>
AV-unprocessed.smi:282-8

> <Gold.Version>
5.8.1

> <Gold.Id.Protein>
6NUR|6NUR_protein|mol2

> <Gold.PLP.Fitness>
54.5150

> <Gold.PLP.PLP>
-44.6100

> <Gold.PLP.part.hbond>
-3.9162

> <Gold.PLP.part.metal>
0.0000

> <Gold.PLP.part.buried>
-8.6636

> <Gold.PLP.part.nonpolar>
-33.6118

> <Gold.PLP.part.repulsive>
0.0776

> <Gold.PLP.ligand.clash>
0.0309

> <Gold.PLP.ligand.torsion>
1.4253

> <Gold.PLP.Chemscore.Hbond>
4.1644

> <Gold.PLP.Chemscore.CHOScore>
0.0000

> <Gold.PLP.Chemscore.Metal>
0.0000

> <Gold.Chemscore.Hbonds>
donor molecule, donor type, donor heavy atom, donor atom, acceptor molecule, acceptor atom, score
      L1  H     5    65       P1  8028  2.00
      P1  H  6896  6909       L1    16  0.73
      P1  H  6931  6943       L1    25  0.60
      P1  H  6934  6947       L1    25  0.58

> <Gold.PLP.Chemscore.Internal.Correction>
0.2933

> <Gold.Rescore>
     Score         DG    S(hbond)    S(metal)    S(lipo)     H(rot)  DE(clash)    DE(int)     intcor
     19.33     -22.17       2.55        0.00     117.99       2.20       0.24       2.60       ----

> <Gold.Chemscore.Fitness>
19.3265

> <Gold.Chemscore.DG>
-22.1669

> <Gold.Chemscore.ZeroCoef>
-5.4800

> <Gold.Chemscore.Hbond>
2.5524

> <Gold.Chemscore.Metal>
0.0000

> <Gold.Chemscore.Lipo>
117.9903

> <Gold.Chemscore.Internal_Hbond>
0.0000

> <Gold.Chemscore.DEClash>
0.2445

> <Gold.Chemscore.DEInternal>
2.5959

> <Gold.Chemscore.Rot>
2.2042

> <Gold.Chemscore.Internal.Correction>
   9.000000E+99

> <Gold.Chemscore.Hbonds>
donor molecule, donor type, donor heavy atom, donor atom, acceptor molecule, acceptor atom, score
      L1  H     5    65       P1  8028  0.93
      P1  H  6896  6909       L1    16  0.70
      P1  H  6931  6943       L1    25  0.12
      P1  H  6934  6947       L1    25  0.10

> <Gold.Chemscore.Hbond.Weighted>
-8.5249

> <Gold.Chemscore.Metal.Weighted>
-0.0000

> <Gold.Chemscore.Lipo.Weighted>
-13.8049

> <Gold.Chemscore.Internal_Hbond.Weighted>
0.0000

> <Gold.Chemscore.DEClash.Weighted>
0.2445

> <Gold.Chemscore.DEInternal.Weighted>
2.5959

> <Gold.Chemscore.Rot.Weighted>
5.6429

> <Gold.Chemscore.Internal.Correction.Weighted>
   9.000000E+99

> <Gold.Protein.RotatedTorsions>
[ 6907 6896 6895 6894 ] final   91.82 input  -60.11 | X-H torsion
[ 7974 7965 7964 7962 ] final  -34.35 input  175.53 | X-H torsion
[ 8008 7997 7996 7995 ] final  -26.33 input   59.86 | X-H torsion
[ 10167 10162 10161 10158 ] final  -58.36 input  -65.29 | X-H torsion
[ 10718 10713 10712 10709 ] final  130.62 input   66.30 | X-H torsion
[ 10763 10752 10751 10750 ] final   30.44 input  -60.55 | X-H torsion
[ 11005 11000 10999 10996 ] final  169.56 input  -57.11 | X-H torsion

> <Gold.Protein.ActiveResidues>
 VAL166  LYS551  ARG553  GLY616  TRP617  ASP618  TYR619  PRO620  LYS621  CYS622 
 ASP623  PHE694  ASN695  SER759  ASP760  ASP761  ALA762  ILE779  LEU786  VAL792 
 PHE793  MET794  SER795  GLU796  ALA797  LYS798  CYS799  TRP800  GLU811  SER814 

> <Gold.Protein.RotatedAtoms>
  152.5451  134.1598  159.8552 H   0  0  0  0  0  0  0  0  0  0  0  0  # atno 6907 bound_to 6896
  151.1617  133.4833  159.2601 H   0  0  0  0  0  0  0  0  0  0  0  0  # atno 6908 bound_to 6896
  151.1366  135.0169  159.8661 H   0  0  0  0  0  0  0  0  0  0  0  0  # atno 6909 bound_to 6896
  146.0837  140.6027  142.8896 H   0  0  0  0  0  0  0  0  0  0  0  0  # atno 7974 bound_to 7965
  154.4430  140.1902  156.0759 H   0  0  0  0  0  0  0  0  0  0  0  0  # atno 8008 bound_to 7997
  156.0476  140.3312  155.7287 H   0  0  0  0  0  0  0  0  0  0  0  0  # atno 8009 bound_to 7997
  155.5606  140.0603  157.2820 H   0  0  0  0  0  0  0  0  0  0  0  0  # atno 8010 bound_to 7997
  140.6202  143.2417  151.5499 H   0  0  0  0  0  0  0  0  0  0  0  0  # atno 10167 bound_to 10162
  157.5044  131.1095  150.9381 H   0  0  0  0  0  0  0  0  0  0  0  0  # atno 10718 bound_to 10713
  153.0371  135.6464  154.1045 H   0  0  0  0  0  0  0  0  0  0  0  0  # atno 10763 bound_to 10752
  154.0758  135.2877  155.3301 H   0  0  0  0  0  0  0  0  0  0  0  0  # atno 10764 bound_to 10752
  154.6563  135.5407  153.8027 H   0  0  0  0  0  0  0  0  0  0  0  0  # atno 10765 bound_to 10752
  140.2991  134.7610  157.3901 H   0  0  0  0  0  0  0  0  0  0  0  0  # atno 11005 bound_to 11000
  144.7311  140.4673  143.6937 LP  0  0  0  0  0  0  0  0  0  0  0  0  # atno 17320 bound_to 7965
  145.6170  139.1519  143.3043 LP  0  0  0  0  0  0  0  0  0  0  0  0  # atno 17321 bound_to 7965
  139.5432  144.2591  152.1392 LP  0  0  0  0  0  0  0  0  0  0  0  0  # atno 17342 bound_to 10162
  140.1809  144.4845  150.6529 LP  0  0  0  0  0  0  0  0  0  0  0  0  # atno 17343 bound_to 10162
  157.0042  130.5611  149.5314 LP  0  0  0  0  0  0  0  0  0  0  0  0  # atno 17370 bound_to 10713
  156.0249  130.5343  150.8379 LP  0  0  0  0  0  0  0  0  0  0  0  0  # atno 17371 bound_to 10713
  140.1125  134.5326  155.8253 LP  0  0  0  0  0  0  0  0  0  0  0  0  # atno 17394 bound_to 11000
  141.2131  133.6729  156.6716 LP  0  0  0  0  0  0  0  0  0  0  0  0  # atno 17395 bound_to 11000

$$$$
