AV-unprocessed.smi:2837|AV-procd|sdf|10920|dock5
  -GOLD-   2272015373D 1   1.00000     0.00000
 Structure written by MMmdl.
 32 34  0  0  0  0  0  0  0  0  1 V2000
  149.4728  136.5939  155.5955 F   0  0  0  0  0  0  0  0  0  0  0  0
  150.7882  136.5356  155.2727 C   0  0  0  0  0  0  0  0  0  0  0  0
  150.9696  135.4401  154.4965 F   0  0  0  0  0  0  0  0  0  0  0  0
  151.1594  137.6500  154.5880 O   0  0  0  0  0  0  0  0  0  0  0  0
  151.0894  138.8773  155.2077 C   0  0  0  0  0  0  0  0  0  0  0  0
  151.6020  139.1371  156.5007 C   0  0  0  0  0  0  0  0  0  0  0  0
  151.4618  140.4277  157.0458 C   0  0  0  0  0  0  0  0  0  0  0  0
  150.8061  141.4197  156.2884 C   0  0  0  0  0  0  0  0  0  0  0  0
  150.6681  142.7018  156.8394 N   0  0  0  0  0  0  0  0  0  0  0  0
  151.0111  142.9780  158.2302 C   0  0  2  0  0  0  0  0  0  0  0  0
  150.1456  144.0766  158.8610 C   0  0  0  0  0  0  0  0  0  0  0  0
  151.2041  145.0763  159.3433 C   0  0  1  0  0  0  0  0  0  0  0  0
  152.0344  144.5290  160.5128 C   0  0  0  0  0  0  0  0  0  0  0  0
  152.9183  143.4973  159.8129 C   0  0  0  0  0  0  0  0  0  0  0  0
  152.4185  143.5841  158.3646 C   0  0  2  0  0  0  0  0  0  0  0  0
  152.1404  144.9730  158.2857 O   0  0  0  0  0  0  0  0  0  0  0  0
  150.3030  141.1750  155.0556 N   0  0  0  0  0  0  0  0  0  0  0  0
  150.4430  139.9360  154.5384 C   0  0  0  0  0  0  0  0  0  0  0  0
  151.3801  136.4031  156.1786 H   0  0  0  0  0  0  0  0  0  0  0  0
  152.0917  138.3675  157.0785 H   0  0  0  0  0  0  0  0  0  0  0  0
  151.8485  140.6463  158.0305 H   0  0  0  0  0  0  0  0  0  0  0  0
  150.3087  143.4558  156.2718 H   0  0  0  0  0  0  0  0  0  0  0  0
  150.9541  142.0497  158.8005 H   0  0  0  0  0  0  0  0  0  0  0  0
  149.4927  144.5472  158.1244 H   0  0  0  0  0  0  0  0  0  0  0  0
  149.5226  143.7041  159.6743 H   0  0  0  0  0  0  0  0  0  0  0  0
  150.8191  146.0833  159.5055 H   0  0  0  0  0  0  0  0  0  0  0  0
  152.6454  145.3146  160.9588 H   0  0  0  0  0  0  0  0  0  0  0  0
  151.4111  144.0937  161.2947 H   0  0  0  0  0  0  0  0  0  0  0  0
  153.9678  143.7872  159.8766 H   0  0  0  0  0  0  0  0  0  0  0  0
  152.8152  142.4956  160.2315 H   0  0  0  0  0  0  0  0  0  0  0  0
  153.1408  143.2216  157.6319 H   0  0  0  0  0  0  0  0  0  0  0  0
  150.0269  139.7841  153.5534 H   0  0  0  0  0  0  0  0  0  0  0  0
  1  2  1  0  0  0  0
  2  3  1  0  0  0  0
  2  4  1  0  0  0  0
  2 19  1  0  0  0  0
  4  5  1  0  0  0  0
  5 18  1  0  0  0  0
  5  6  2  0  0  0  0
  6  7  1  0  0  0  0
  6 20  1  0  0  0  0
  7  8  2  0  0  0  0
  7 21  1  0  0  0  0
  8  9  1  0  0  0  0
  8 17  1  0  0  0  0
  9 10  1  0  0  0  0
  9 22  1  0  0  0  0
 10 15  1  0  0  0  0
 10 11  1  0  0  0  0
 10 23  1  0  0  0  0
 11 12  1  0  0  0  0
 11 24  1  0  0  0  0
 11 25  1  0  0  0  0
 12 16  1  0  0  0  0
 12 13  1  0  0  0  0
 12 26  1  0  0  0  0
 13 14  1  0  0  0  0
 13 27  1  0  0  0  0
 13 28  1  0  0  0  0
 14 15  1  0  0  0  0
 14 29  1  0  0  0  0
 14 30  1  0  0  0  0
 15 16  1  0  0  0  0
 15 31  1  0  0  0  0
 17 18  2  0  0  0  0
 18 32  1  0  0  0  0
M  END
> <s_m_source_file>
AV-unprocessed.smi

> <i_m_source_file_index>
2837

> <i_lp_mmshare_version>
43012

> <i_f3d_flags>
0

> <s_epik_input>
RltDSF0oRilPYzFbY0hdW2NIXWMobltjSF0xKVtOSF1bQ0BIXShbQ0gyXVtDQEBIXTIzKVtDQEBIXShPMylbQ0gyXVtDSDJdMg==

> <s_epik_cmdline>
J2VwaWtfcHl0aG9uJywgJy1waCcsICc3LjAnLCAnLXRuJywgJzgnLCAnLW1hJywgJzIwMCcsICctbWV0YWxfYmluZGluZycsICctaW1hZScsICc8aW5maWxlLm1hZT4nLCAnLW9tYWUnLCAnPG91dGZpbGUubWFlPic=

> <r_lp_tautomer_probability>
1

> <r_epik_Ionization_Penalty>
0.0124072

> <r_epik_Ionization_Penalty_Charging>
0

> <r_epik_Ionization_Penalty_Neutral>
0.0124072

> <r_epik_State_Penalty>
0.00959565

> <r_epik_Charging_Adjusted_Penalty>
0.00959565

> <i_epik_Tot_Q>
0

> <i_epik_Tot_abs_Q>
0

> <r_epik_Metal_State_Penalty>
9.67369e-06

> <b_epik_Metal_Only>
0

> <s_lp_Force_Field>
OPLS_2005

> <r_lp_Energy>
39.7079

> <b_lp_Chiralities_Consistent>
1

> <s_lp_Variant>
AV-unprocessed.smi:2837-1

> <Gold.Version>
5.8.1

> <Gold.Id.Protein>
6NUR|6NUR_protein|mol2

> <Gold.PLP.Fitness>
40.4905

> <Gold.PLP.PLP>
-35.4441

> <Gold.PLP.part.hbond>
-2.0000

> <Gold.PLP.part.metal>
0.0000

> <Gold.PLP.part.buried>
-4.8705

> <Gold.PLP.part.nonpolar>
-28.8903

> <Gold.PLP.part.repulsive>
0.3688

> <Gold.PLP.ligand.clash>
0.0000

> <Gold.PLP.ligand.torsion>
0.4768

> <Gold.PLP.Chemscore.Hbond>
1.0000

> <Gold.PLP.Chemscore.CHOScore>
0.9882

> <Gold.PLP.Chemscore.Metal>
0.0000

> <Gold.Chemscore.Hbonds>
donor molecule, donor type, donor heavy atom, donor atom, acceptor molecule, acceptor atom, score
      L1  H     9    22       P1  8028  1.00
      L1  C    18    32       P1  7957  1.00

> <Gold.PLP.Chemscore.Internal.Correction>
0.0353

> <Gold.Rescore>
     Score         DG    S(hbond)    S(metal)    S(lipo)     H(rot)  DE(clash)    DE(int)     intcor
     16.03     -16.33       0.99        0.00      93.30       1.32       0.05       0.25       ----

> <Gold.Chemscore.Fitness>
16.0260

> <Gold.Chemscore.DG>
-16.3258

> <Gold.Chemscore.ZeroCoef>
-5.4800

> <Gold.Chemscore.Hbond>
0.9918

> <Gold.Chemscore.Metal>
0.0000

> <Gold.Chemscore.Lipo>
93.2972

> <Gold.Chemscore.Internal_Hbond>
0.0000

> <Gold.Chemscore.DEClash>
0.0515

> <Gold.Chemscore.DEInternal>
0.2482

> <Gold.Chemscore.Rot>
1.3213

> <Gold.Chemscore.Internal.Correction>
   9.000000E+99

> <Gold.Chemscore.Hbonds>
donor molecule, donor type, donor heavy atom, donor atom, acceptor molecule, acceptor atom, score
      L1  H     9    22       P1  8028  0.94

> <Gold.Chemscore.Hbond.Weighted>
-3.3125

> <Gold.Chemscore.Metal.Weighted>
-0.0000

> <Gold.Chemscore.Lipo.Weighted>
-10.9158

> <Gold.Chemscore.Internal_Hbond.Weighted>
0.0000

> <Gold.Chemscore.DEClash.Weighted>
0.0515

> <Gold.Chemscore.DEInternal.Weighted>
0.2482

> <Gold.Chemscore.Rot.Weighted>
3.3825

> <Gold.Chemscore.Internal.Correction.Weighted>
   9.000000E+99

> <Gold.Protein.RotatedTorsions>
[ 6907 6896 6895 6894 ] final   81.30 input  -60.11 | X-H torsion
[ 7974 7965 7964 7962 ] final  128.41 input  175.53 | X-H torsion
[ 8008 7997 7996 7995 ] final  -41.06 input   59.86 | X-H torsion
[ 10167 10162 10161 10158 ] final -142.33 input  -65.29 | X-H torsion
[ 10718 10713 10712 10709 ] final -164.48 input   66.30 | X-H torsion
[ 10763 10752 10751 10750 ] final  -58.16 input  -60.55 | X-H torsion
[ 11005 11000 10999 10996 ] final -109.99 input  -57.11 | X-H torsion

> <Gold.Protein.ActiveResidues>
 VAL166  LYS551  ARG553  GLY616  TRP617  ASP618  TYR619  PRO620  LYS621  CYS622 
 ASP623  PHE694  ASN695  SER759  ASP760  ASP761  ALA762  ILE779  LEU786  VAL792 
 PHE793  MET794  SER795  GLU796  ALA797  LYS798  CYS799  TRP800  GLU811  SER814 

> <Gold.Protein.RotatedAtoms>
  152.5264  134.3225  159.9153 H   0  0  0  0  0  0  0  0  0  0  0  0  # atno 6907 bound_to 6896
  151.3174  133.4048  159.2659 H   0  0  0  0  0  0  0  0  0  0  0  0  # atno 6908 bound_to 6896
  150.9988  134.9322  159.7999 H   0  0  0  0  0  0  0  0  0  0  0  0  # atno 6909 bound_to 6896
  145.0398  139.3973  143.5107 H   0  0  0  0  0  0  0  0  0  0  0  0  # atno 7974 bound_to 7965
  154.4007  140.1509  156.3129 H   0  0  0  0  0  0  0  0  0  0  0  0  # atno 8008 bound_to 7997
  155.8599  140.3454  155.5728 H   0  0  0  0  0  0  0  0  0  0  0  0  # atno 8009 bound_to 7997
  155.7892  140.0854  157.2008 H   0  0  0  0  0  0  0  0  0  0  0  0  # atno 8010 bound_to 7997
  139.8098  143.7718  152.2663 H   0  0  0  0  0  0  0  0  0  0  0  0  # atno 10167 bound_to 10162
  156.6396  130.8963  151.2993 H   0  0  0  0  0  0  0  0  0  0  0  0  # atno 10718 bound_to 10713
  154.2338  135.6356  153.5184 H   0  0  0  0  0  0  0  0  0  0  0  0  # atno 10763 bound_to 10752
  152.9943  135.5525  154.5984 H   0  0  0  0  0  0  0  0  0  0  0  0  # atno 10764 bound_to 10752
  154.5473  135.2899  155.1015 H   0  0  0  0  0  0  0  0  0  0  0  0  # atno 10765 bound_to 10752
  141.0817  133.9209  157.2275 H   0  0  0  0  0  0  0  0  0  0  0  0  # atno 11005 bound_to 11000
  146.3508  139.9993  142.8678 LP  0  0  0  0  0  0  0  0  0  0  0  0  # atno 17320 bound_to 7965
  145.1662  140.9698  143.4348 LP  0  0  0  0  0  0  0  0  0  0  0  0  # atno 17321 bound_to 7965
  139.7863  144.7426  151.0017 LP  0  0  0  0  0  0  0  0  0  0  0  0  # atno 17342 bound_to 10162
  140.7818  143.4488  151.0442 LP  0  0  0  0  0  0  0  0  0  0  0  0  # atno 17343 bound_to 10162
  157.7175  130.9515  150.1310 LP  0  0  0  0  0  0  0  0  0  0  0  0  # atno 17370 bound_to 10713
  156.2169  130.3671  149.8602 LP  0  0  0  0  0  0  0  0  0  0  0  0  # atno 17371 bound_to 10713
  139.9631  135.0149  156.9314 LP  0  0  0  0  0  0  0  0  0  0  0  0  # atno 17394 bound_to 11000
  140.5454  134.0679  155.7353 LP  0  0  0  0  0  0  0  0  0  0  0  0  # atno 17395 bound_to 11000

$$$$
