AV-unprocessed.smi:1662|AV-procd|sdf|6657|dock5
  -GOLD-   22720 7363D 1   1.00000     0.00000
 Structure written by MMmdl.
 47 48  0  0  0  0  0  0  0  0  1 V2000
  145.8019  143.5091  153.3358 C   0  0  0  0  0  0  0  0  0  0  0  0
  146.2844  142.6477  154.4717 C   0  0  0  0  0  0  0  0  0  0  0  0
  146.1018  143.1059  155.6664 N   0  0  0  0  0  0  0  0  0  0  0  0
  146.5093  142.3960  156.7794 N   0  0  0  0  0  0  0  0  0  0  0  0
  146.2450  143.0770  158.0558 C   0  0  0  0  0  0  0  0  0  0  0  0
  147.4680  143.1301  158.9834 C   0  0  0  0  0  0  0  0  0  0  0  0
  147.3650  142.8494  160.1786 O   0  0  0  0  0  0  0  0  0  0  0  0
  148.6280  143.4745  158.4020 N   0  0  0  0  0  0  0  0  0  0  0  0
  149.9209  143.6041  159.0737 C   0  0  2  0  0  0  0  0  0  0  0  0
  150.1178  145.0780  159.4774 C   0  0  0  0  0  0  0  0  0  0  0  0
  151.4873  145.3160  160.1285 C   0  0  0  0  0  0  0  0  0  0  0  0
  152.6256  144.8351  159.2150 C   0  0  0  0  0  0  0  0  0  0  0  0
  152.4651  143.3548  158.8133 C   0  0  1  0  0  0  0  0  0  0  0  0
  152.7790  142.4096  159.9912 C   0  0  0  0  0  0  0  0  0  0  0  0
  151.0770  143.1165  158.1600 C   0  0  1  0  0  0  0  0  0  0  0  0
  150.8997  141.6632  157.6770 C   0  0  0  0  0  0  0  0  0  0  0  0
  147.1135  141.1731  156.7421 C   0  0  0  0  0  0  0  0  0  0  0  0
  147.4508  140.5694  157.7617 O   0  0  0  0  0  0  0  0  0  0  0  0
  147.3188  140.6611  155.3853 C   0  0  0  0  0  0  0  0  0  0  0  0
  147.9555  139.3865  155.3011 C   0  0  0  0  0  0  0  0  0  0  0  0
  148.4538  138.3436  155.2364 N   0  0  0  0  0  0  0  0  0  0  0  0
  146.9307  141.3527  154.2847 C   0  0  0  0  0  0  0  0  0  0  0  0
  147.1213  140.8658  152.8547 C   0  0  0  0  0  0  0  0  0  0  0  0
  145.0647  142.9783  152.7333 H   0  0  0  0  0  0  0  0  0  0  0  0
  146.6304  143.7923  152.6862 H   0  0  0  0  0  0  0  0  0  0  0  0
  145.3340  144.4284  153.6923 H   0  0  0  0  0  0  0  0  0  0  0  0
  145.9143  144.1016  157.8760 H   0  0  0  0  0  0  0  0  0  0  0  0
  145.4162  142.5890  158.5723 H   0  0  0  0  0  0  0  0  0  0  0  0
  148.6135  143.6763  157.4127 H   0  0  0  0  0  0  0  0  0  0  0  0
  149.9224  143.0072  159.9869 H   0  0  0  0  0  0  0  0  0  0  0  0
  150.0250  145.7166  158.5976 H   0  0  0  0  0  0  0  0  0  0  0  0
  149.3287  145.3852  160.1648 H   0  0  0  0  0  0  0  0  0  0  0  0
  151.6123  146.3772  160.3463 H   0  0  0  0  0  0  0  0  0  0  0  0
  151.5335  144.8007  161.0881 H   0  0  0  0  0  0  0  0  0  0  0  0
  152.6416  145.4512  158.3149 H   0  0  0  0  0  0  0  0  0  0  0  0
  153.5874  144.9929  159.7039 H   0  0  0  0  0  0  0  0  0  0  0  0
  153.2212  143.1530  158.0533 H   0  0  0  0  0  0  0  0  0  0  0  0
  152.0462  142.4911  160.7932 H   0  0  0  0  0  0  0  0  0  0  0  0
  153.7567  142.6340  160.4182 H   0  0  0  0  0  0  0  0  0  0  0  0
  152.8055  141.3680  159.6724 H   0  0  0  0  0  0  0  0  0  0  0  0
  151.0530  143.7359  157.2615 H   0  0  0  0  0  0  0  0  0  0  0  0
  150.7754  140.9745  158.5128 H   0  0  0  0  0  0  0  0  0  0  0  0
  151.7615  141.3344  157.0961 H   0  0  0  0  0  0  0  0  0  0  0  0
  150.0242  141.5598  157.0360 H   0  0  0  0  0  0  0  0  0  0  0  0
  147.6182  139.8973  152.8106 H   0  0  0  0  0  0  0  0  0  0  0  0
  147.7303  141.5710  152.2881 H   0  0  0  0  0  0  0  0  0  0  0  0
  146.1580  140.7628  152.3541 H   0  0  0  0  0  0  0  0  0  0  0  0
  1  2  1  0  0  0  0
  1 24  1  0  0  0  0
  1 25  1  0  0  0  0
  1 26  1  0  0  0  0
  2 22  1  0  0  0  0
  2  3  2  0  0  0  0
  3  4  1  0  0  0  0
  4  5  1  0  0  0  0
  4 17  1  0  0  0  0
  5  6  1  0  0  0  0
  5 27  1  0  0  0  0
  5 28  1  0  0  0  0
  6  7  2  0  0  0  0
  6  8  1  0  0  0  0
  8  9  1  0  0  0  0
  8 29  1  0  0  0  0
  9 15  1  0  0  0  0
  9 10  1  0  0  0  0
  9 30  1  0  0  0  0
 10 11  1  0  0  0  0
 10 31  1  0  0  0  0
 10 32  1  0  0  0  0
 11 12  1  0  0  0  0
 11 33  1  0  0  0  0
 11 34  1  0  0  0  0
 12 13  1  0  0  0  0
 12 35  1  0  0  0  0
 12 36  1  0  0  0  0
 13 14  1  0  0  0  0
 13 15  1  0  0  0  0
 13 37  1  0  0  0  0
 14 38  1  0  0  0  0
 14 39  1  0  0  0  0
 14 40  1  0  0  0  0
 15 16  1  0  0  0  0
 15 41  1  0  0  0  0
 16 42  1  0  0  0  0
 16 43  1  0  0  0  0
 16 44  1  0  0  0  0
 17 18  2  0  0  0  0
 17 19  1  0  0  0  0
 19 20  1  0  0  0  0
 19 22  2  0  0  0  0
 20 21  3  0  0  0  0
 22 23  1  0  0  0  0
 23 45  1  0  0  0  0
 23 46  1  0  0  0  0
 23 47  1  0  0  0  0
M  END
> <s_m_source_file>
AV-unprocessed.smi

> <i_m_source_file_index>
1662

> <i_lp_mmshare_version>
43012

> <i_f3d_flags>
0

> <s_epik_input>
TiNDYyhjMVtDSDNdKWMoPU8pbihuYzFbQ0gzXSlbQ0gyXUMoPU8pW05IXVtDQEBIXTJbQ0gyXVtDSDJdW0NIMl1bQ0BASF0oW0NIM10pW0NASF0yW0NIM10=

> <s_epik_cmdline>
J2VwaWtfcHl0aG9uJywgJy1waCcsICc3LjAnLCAnLXRuJywgJzgnLCAnLW1hJywgJzIwMCcsICctbWV0YWxfYmluZGluZycsICctaW1hZScsICc8aW5maWxlLm1hZT4nLCAnLW9tYWUnLCAnPG91dGZpbGUubWFlPic=

> <r_lp_tautomer_probability>
1

> <r_epik_Ionization_Penalty>
1.90709e-08

> <r_epik_Ionization_Penalty_Charging>
2.37982e-11

> <r_epik_Ionization_Penalty_Neutral>
1.90471e-08

> <r_epik_State_Penalty>
-0

> <r_epik_Charging_Adjusted_Penalty>
2.37982e-11

> <i_epik_Tot_Q>
0

> <i_epik_Tot_abs_Q>
0

> <r_epik_Metal_State_Penalty>
-0

> <b_epik_Metal_Only>
0

> <s_lp_Force_Field>
OPLS_2005

> <r_lp_Energy>
29.144

> <b_lp_Chiralities_Consistent>
1

> <s_lp_Variant>
AV-unprocessed.smi:1662-1

> <Gold.Version>
5.8.1

> <Gold.Id.Protein>
6NUR|6NUR_protein|mol2

> <Gold.PLP.Fitness>
44.8404

> <Gold.PLP.PLP>
-40.0835

> <Gold.PLP.part.hbond>
-4.3099

> <Gold.PLP.part.metal>
0.0000

> <Gold.PLP.part.buried>
-3.4723

> <Gold.PLP.part.nonpolar>
-32.0198

> <Gold.PLP.part.repulsive>
0.3696

> <Gold.PLP.ligand.clash>
0.0000

> <Gold.PLP.ligand.torsion>
0.6214

> <Gold.PLP.Chemscore.Hbond>
1.9976

> <Gold.PLP.Chemscore.CHOScore>
0.0000

> <Gold.PLP.Chemscore.Metal>
0.0000

> <Gold.Chemscore.Hbonds>
donor molecule, donor type, donor heavy atom, donor atom, acceptor molecule, acceptor atom, score
      L1  H     8    29       P1  8028  0.59
      P1  H  6933  6944       L1     7  0.88
      P1  H  6934  6946       L1     7  0.57

> <Gold.PLP.Chemscore.Internal.Correction>
0.0069

> <Gold.Rescore>
     Score         DG    S(hbond)    S(metal)    S(lipo)     H(rot)  DE(clash)    DE(int)     intcor
     17.28     -19.41       1.45        0.00     109.41       1.45       0.23       1.90       ----

> <Gold.Chemscore.Fitness>
17.2764

> <Gold.Chemscore.DG>
-19.4077

> <Gold.Chemscore.ZeroCoef>
-5.4800

> <Gold.Chemscore.Hbond>
1.4488

> <Gold.Chemscore.Metal>
0.0000

> <Gold.Chemscore.Lipo>
109.4145

> <Gold.Chemscore.Internal_Hbond>
0.0000

> <Gold.Chemscore.DEClash>
0.2312

> <Gold.Chemscore.DEInternal>
1.9001

> <Gold.Chemscore.Rot>
1.4504

> <Gold.Chemscore.Internal.Correction>
   9.000000E+99

> <Gold.Chemscore.Hbonds>
donor molecule, donor type, donor heavy atom, donor atom, acceptor molecule, acceptor atom, score
      L1  H     8    29       P1  8028  0.04
      P1  H  6933  6944       L1     7  0.87
      P1  H  6934  6946       L1     7  0.54

> <Gold.Chemscore.Hbond.Weighted>
-4.8391

> <Gold.Chemscore.Metal.Weighted>
-0.0000

> <Gold.Chemscore.Lipo.Weighted>
-12.8015

> <Gold.Chemscore.Internal_Hbond.Weighted>
0.0000

> <Gold.Chemscore.DEClash.Weighted>
0.2312

> <Gold.Chemscore.DEInternal.Weighted>
1.9001

> <Gold.Chemscore.Rot.Weighted>
3.7129

> <Gold.Chemscore.Internal.Correction.Weighted>
   9.000000E+99

> <Gold.Protein.RotatedTorsions>
[ 6907 6896 6895 6894 ] final  121.92 input  -60.11 | X-H torsion
[ 7974 7965 7964 7962 ] final   40.58 input  175.53 | X-H torsion
[ 8008 7997 7996 7995 ] final  152.07 input   59.86 | X-H torsion
[ 10167 10162 10161 10158 ] final  -45.54 input  -65.29 | X-H torsion
[ 10718 10713 10712 10709 ] final   82.67 input   66.30 | X-H torsion
[ 10763 10752 10751 10750 ] final  136.98 input  -60.55 | X-H torsion
[ 11005 11000 10999 10996 ] final  -62.40 input  -57.11 | X-H torsion

> <Gold.Protein.ActiveResidues>
 VAL166  LYS551  ARG553  GLY616  TRP617  ASP618  TYR619  PRO620  LYS621  CYS622 
 ASP623  PHE694  ASN695  SER759  ASP760  ASP761  ALA762  ILE779  LEU786  VAL792 
 PHE793  MET794  SER795  GLU796  ALA797  LYS798  CYS799  TRP800  GLU811  SER814 

> <Gold.Protein.RotatedAtoms>
  152.4284  133.7234  159.6546 H   0  0  0  0  0  0  0  0  0  0  0  0  # atno 6907 bound_to 6896
  150.8161  133.8324  159.3166 H   0  0  0  0  0  0  0  0  0  0  0  0  # atno 6908 bound_to 6896
  151.6020  135.1049  160.0114 H   0  0  0  0  0  0  0  0  0  0  0  0  # atno 6909 bound_to 6896
  146.0893  139.5516  142.9486 H   0  0  0  0  0  0  0  0  0  0  0  0  # atno 7974 bound_to 7965
  156.2645  140.2030  156.6276 H   0  0  0  0  0  0  0  0  0  0  0  0  # atno 8008 bound_to 7997
  154.6708  140.0550  157.0187 H   0  0  0  0  0  0  0  0  0  0  0  0  # atno 8009 bound_to 7997
  155.1140  140.3218  155.4517 H   0  0  0  0  0  0  0  0  0  0  0  0  # atno 8010 bound_to 7997
  140.6854  143.2874  151.3654 H   0  0  0  0  0  0  0  0  0  0  0  0  # atno 10167 bound_to 10162
  157.6862  131.0057  150.2409 H   0  0  0  0  0  0  0  0  0  0  0  0  # atno 10718 bound_to 10713
  153.8656  135.3062  155.3440 H   0  0  0  0  0  0  0  0  0  0  0  0  # atno 10763 bound_to 10752
  154.7829  135.4825  153.9886 H   0  0  0  0  0  0  0  0  0  0  0  0  # atno 10764 bound_to 10752
  153.1436  135.6829  153.9084 H   0  0  0  0  0  0  0  0  0  0  0  0  # atno 10765 bound_to 10752
  141.1358  133.6639  156.5521 H   0  0  0  0  0  0  0  0  0  0  0  0  # atno 11005 bound_to 11000
  145.6069  141.0346  143.1987 LP  0  0  0  0  0  0  0  0  0  0  0  0  # atno 17320 bound_to 7965
  144.7348  139.7617  143.7333 LP  0  0  0  0  0  0  0  0  0  0  0  0  # atno 17321 bound_to 7965
  139.6208  144.0911  152.2389 LP  0  0  0  0  0  0  0  0  0  0  0  0  # atno 17342 bound_to 10162
  140.0355  144.6048  150.7453 LP  0  0  0  0  0  0  0  0  0  0  0  0  # atno 17343 bound_to 10162
  156.3023  130.3760  149.7738 LP  0  0  0  0  0  0  0  0  0  0  0  0  # atno 17370 bound_to 10713
  156.5365  130.8281  151.3254 LP  0  0  0  0  0  0  0  0  0  0  0  0  # atno 17371 bound_to 10713
  140.4055  134.7318  157.4805 LP  0  0  0  0  0  0  0  0  0  0  0  0  # atno 17394 bound_to 11000
  140.0465  134.6192  155.8915 LP  0  0  0  0  0  0  0  0  0  0  0  0  # atno 17395 bound_to 11000

$$$$
