AV-unprocessed.smi:3019|AV-procd|sdf|11489|dock2
  -GOLD-   2272016433D 1   1.00000     0.00000
 Structure written by MMmdl.
 30 31  0  0  0  0  0  0  0  0  1 V2000
  154.3513  137.8671  162.5247 C   0  0  0  0  0  0  0  0  0  0  0  0
  155.2061  139.0649  162.0851 C   0  0  0  0  0  0  0  0  0  0  0  0
  155.9308  139.7207  163.2696 C   0  0  0  0  0  0  0  0  0  0  0  0
  154.4024  140.0632  161.3096 C   0  0  0  0  0  0  0  0  0  0  0  0
  153.6631  139.7187  160.2527 N   0  0  0  0  0  0  0  0  0  0  0  0
  153.0635  140.8172  159.7473 N   0  0  0  0  0  0  0  0  0  0  0  0
  153.4878  141.7717  160.5748 C   0  0  0  0  0  0  0  0  0  0  0  0
  153.0978  143.2017  160.3638 C   0  0  2  0  0  0  0  0  0  0  0  0
  152.2846  143.7606  161.5482 C   0  0  0  0  0  0  0  0  0  0  0  0
  151.8350  145.1211  161.2572 N   0  0  0  0  0  0  0  0  0  0  0  0
  151.0860  145.1707  160.0023 C   0  0  0  0  0  0  0  0  0  0  0  0
  151.9231  144.5768  158.8548 C   0  0  0  0  0  0  0  0  0  0  0  0
  152.3027  143.2442  159.1806 O   0  0  0  0  0  0  0  0  0  0  0  0
  154.3436  141.3668  161.5631 N   0  0  0  0  0  0  0  0  0  0  0  0
  153.8949  137.3743  161.6655 H   0  0  0  0  0  0  0  0  0  0  0  0
  153.5488  138.1771  163.1952 H   0  0  0  0  0  0  0  0  0  0  0  0
  154.9540  137.1253  163.0493 H   0  0  0  0  0  0  0  0  0  0  0  0
  155.9755  138.6780  161.4151 H   0  0  0  0  0  0  0  0  0  0  0  0
  156.5787  140.5306  162.9329 H   0  0  0  0  0  0  0  0  0  0  0  0
  156.5528  138.9983  163.7985 H   0  0  0  0  0  0  0  0  0  0  0  0
  155.2224  140.1374  163.9866 H   0  0  0  0  0  0  0  0  0  0  0  0
  154.0028  143.7942  160.2135 H   0  0  0  0  0  0  0  0  0  0  0  0
  151.4216  143.1207  161.7371 H   0  0  0  0  0  0  0  0  0  0  0  0
  152.8871  143.7512  162.4568 H   0  0  0  0  0  0  0  0  0  0  0  0
  150.1553  144.6112  160.1036 H   0  0  0  0  0  0  0  0  0  0  0  0
  150.8099  146.1995  159.7714 H   0  0  0  0  0  0  0  0  0  0  0  0
  151.3399  144.5611  157.9341 H   0  0  0  0  0  0  0  0  0  0  0  0
  152.8081  145.1850  158.6605 H   0  0  0  0  0  0  0  0  0  0  0  0
  151.2491  145.4550  162.0158 H   0  0  0  0  0  0  0  0  0  0  0  0
  153.5507  138.7969  159.8556 H   0  0  0  0  0  0  0  0  0  0  0  0
  1  2  1  0  0  0  0
  1 15  1  0  0  0  0
  1 16  1  0  0  0  0
  1 17  1  0  0  0  0
  2  3  1  0  0  0  0
  2  4  1  0  0  0  0
  2 18  1  0  0  0  0
  3 19  1  0  0  0  0
  3 20  1  0  0  0  0
  3 21  1  0  0  0  0
  4 14  2  0  0  0  0
  4  5  1  0  0  0  0
  5  6  1  0  0  0  0
  5 30  1  0  0  0  0
  6  7  2  0  0  0  0
  7  8  1  0  0  0  0
  7 14  1  0  0  0  0
  8 13  1  0  0  0  0
  8  9  1  0  0  0  0
  8 22  1  0  0  0  0
  9 10  1  0  0  0  0
  9 23  1  0  0  0  0
  9 24  1  0  0  0  0
 10 11  1  0  0  0  0
 10 29  1  0  0  0  0
 11 12  1  0  0  0  0
 11 25  1  0  0  0  0
 11 26  1  0  0  0  0
 12 13  1  0  0  0  0
 12 27  1  0  0  0  0
 12 28  1  0  0  0  0
M  END
> <s_m_source_file>
AV-unprocessed.smi

> <i_m_source_file_index>
3019

> <i_lp_mmshare_version>
43012

> <i_f3d_flags>
0

> <s_epik_input>
W0NIM11bQ0hdKFtDSDNdKWMxbltuSF1jKG4xKVtDQEBIXTJbQ0gyXVtOSF1bQ0gyXVtDSDJdTzI=

> <s_epik_cmdline>
J2VwaWtfcHl0aG9uJywgJy1waCcsICc3LjAnLCAnLXRuJywgJzgnLCAnLW1hJywgJzIwMCcsICctbWV0YWxfYmluZGluZycsICctaW1hZScsICc8aW5maWxlLm1hZT4nLCAnLW9tYWUnLCAnPG91dGZpbGUubWFlPic=

> <r_lp_tautomer_probability>
0.948284

> <r_epik_Ionization_Penalty>
1.10045

> <r_epik_Ionization_Penalty_Charging>
0

> <r_epik_Ionization_Penalty_Neutral>
1.10045

> <r_epik_State_Penalty>
1.2625

> <r_epik_Charging_Adjusted_Penalty>
1.2625

> <i_epik_Tot_Q>
0

> <i_epik_Tot_abs_Q>
0

> <r_epik_Metal_State_Penalty>
1.57133

> <b_epik_Metal_Only>
0

> <s_lp_Force_Field>
OPLS_2005

> <r_lp_Energy>
11.1222

> <b_lp_Chiralities_Consistent>
1

> <s_lp_Variant>
AV-unprocessed.smi:3019-5

> <Gold.Version>
5.8.1

> <Gold.Id.Protein>
6NUR|6NUR_protein|mol2

> <Gold.PLP.Fitness>
33.0347

> <Gold.PLP.PLP>
-33.1807

> <Gold.PLP.part.hbond>
-1.8465

> <Gold.PLP.part.metal>
0.0000

> <Gold.PLP.part.buried>
-6.4746

> <Gold.PLP.part.nonpolar>
-25.4277

> <Gold.PLP.part.repulsive>
0.0632

> <Gold.PLP.ligand.clash>
0.0000

> <Gold.PLP.ligand.torsion>
0.1000

> <Gold.PLP.Chemscore.Hbond>
0.0000

> <Gold.PLP.Chemscore.CHOScore>
0.0000

> <Gold.PLP.Chemscore.Metal>
0.0000

> <Gold.PLP.Chemscore.Internal.Correction>
0.0539

> <Gold.Rescore>
     Score         DG    S(hbond)    S(metal)    S(lipo)     H(rot)  DE(clash)    DE(int)     intcor
     10.33     -10.41       0.00        0.00      69.72       1.26       0.04       0.04       ----

> <Gold.Chemscore.Fitness>
10.3324

> <Gold.Chemscore.DG>
-10.4116

> <Gold.Chemscore.ZeroCoef>
-5.4800

> <Gold.Chemscore.Hbond>
0.0000

> <Gold.Chemscore.Metal>
0.0000

> <Gold.Chemscore.Lipo>
69.7161

> <Gold.Chemscore.Internal_Hbond>
0.0000

> <Gold.Chemscore.DEClash>
0.0389

> <Gold.Chemscore.DEInternal>
0.0403

> <Gold.Chemscore.Rot>
1.2598

> <Gold.Chemscore.Internal.Correction>
   9.000000E+99

> <Gold.Chemscore.Hbond.Weighted>
-0.0000

> <Gold.Chemscore.Metal.Weighted>
-0.0000

> <Gold.Chemscore.Lipo.Weighted>
-8.1568

> <Gold.Chemscore.Internal_Hbond.Weighted>
0.0000

> <Gold.Chemscore.DEClash.Weighted>
0.0389

> <Gold.Chemscore.DEInternal.Weighted>
0.0403

> <Gold.Chemscore.Rot.Weighted>
3.2251

> <Gold.Chemscore.Internal.Correction.Weighted>
   9.000000E+99

> <Gold.Protein.RotatedTorsions>
[ 6907 6896 6895 6894 ] final -108.84 input  -60.11 | X-H torsion
[ 7974 7965 7964 7962 ] final -177.61 input  175.53 | X-H torsion
[ 8008 7997 7996 7995 ] final  -68.53 input   59.86 | X-H torsion
[ 10167 10162 10161 10158 ] final -164.92 input  -65.29 | X-H torsion
[ 10718 10713 10712 10709 ] final    4.86 input   66.30 | X-H torsion
[ 10763 10752 10751 10750 ] final  140.29 input  -60.55 | X-H torsion
[ 11005 11000 10999 10996 ] final  108.41 input  -57.11 | X-H torsion

> <Gold.Protein.ActiveResidues>
 VAL166  LYS551  ARG553  GLY616  TRP617  ASP618  TYR619  PRO620  LYS621  CYS622 
 ASP623  PHE694  ASN695  SER759  ASP760  ASP761  ALA762  ILE779  LEU786  VAL792 
 PHE793  MET794  SER795  GLU796  ALA797  LYS798  CYS799  TRP800  GLU811  SER814 

> <Gold.Protein.RotatedAtoms>
  150.7526  133.9618  159.3517 H   0  0  0  0  0  0  0  0  0  0  0  0  # atno 6907 bound_to 6896
  151.7544  135.0823  160.0345 H   0  0  0  0  0  0  0  0  0  0  0  0  # atno 6908 bound_to 6896
  152.3445  133.6068  159.5936 H   0  0  0  0  0  0  0  0  0  0  0  0  # atno 6909 bound_to 6896
  144.7128  140.0993  143.6417 H   0  0  0  0  0  0  0  0  0  0  0  0  # atno 7974 bound_to 7965
  154.4874  140.0871  156.7518 H   0  0  0  0  0  0  0  0  0  0  0  0  # atno 8008 bound_to 7997
  155.4315  140.3450  155.4262 H   0  0  0  0  0  0  0  0  0  0  0  0  # atno 8009 bound_to 7997
  156.1281  140.1493  156.9093 H   0  0  0  0  0  0  0  0  0  0  0  0  # atno 8010 bound_to 7997
  139.6217  144.0611  152.1939 H   0  0  0  0  0  0  0  0  0  0  0  0  # atno 10167 bound_to 10162
  156.8988  130.5714  149.5648 H   0  0  0  0  0  0  0  0  0  0  0  0  # atno 10718 bound_to 10713
  153.9203  135.3001  155.3448 H   0  0  0  0  0  0  0  0  0  0  0  0  # atno 10763 bound_to 10752
  154.7579  135.4948  153.9412 H   0  0  0  0  0  0  0  0  0  0  0  0  # atno 10764 bound_to 10752
  153.1145  135.6767  153.9545 H   0  0  0  0  0  0  0  0  0  0  0  0  # atno 10765 bound_to 10752
  139.8844  134.9429  156.5968 H   0  0  0  0  0  0  0  0  0  0  0  0  # atno 11005 bound_to 11000
  145.9552  139.2761  143.1188 LP  0  0  0  0  0  0  0  0  0  0  0  0  # atno 17320 bound_to 7965
  145.9280  140.9068  143.0371 LP  0  0  0  0  0  0  0  0  0  0  0  0  # atno 17321 bound_to 7965
  140.0254  144.6121  150.7531 LP  0  0  0  0  0  0  0  0  0  0  0  0  # atno 17342 bound_to 10162
  140.7386  143.2780  151.3682 LP  0  0  0  0  0  0  0  0  0  0  0  0  # atno 17343 bound_to 10162
  156.0592  130.5648  150.9157 LP  0  0  0  0  0  0  0  0  0  0  0  0  # atno 17370 bound_to 10713
  157.6039  131.0940  150.8913 LP  0  0  0  0  0  0  0  0  0  0  0  0  # atno 17371 bound_to 10713
  140.7914  133.8579  155.8649 LP  0  0  0  0  0  0  0  0  0  0  0  0  # atno 17394 bound_to 11000
  140.9674  134.1576  157.4604 LP  0  0  0  0  0  0  0  0  0  0  0  0  # atno 17395 bound_to 11000

$$$$
