AV-unprocessed.smi:2042|AV-procd|sdf|8294|dock4
  -GOLD-   2272010563D 1   1.00000     0.00000
 Structure written by MMmdl.
 30 31  0  0  0  0  0  0  0  0  1 V2000
  146.5471  133.3165  153.6038 O   0  0  0  0  0  0  0  0  0  0  0  0
  147.3617  132.7336  152.8922 C   0  0  0  0  0  0  0  0  0  0  0  0
  147.1474  132.3781  151.6100 N   0  0  0  0  0  0  0  0  0  0  0  0
  145.9716  132.5273  150.8252 C   0  0  0  0  0  0  0  0  0  0  0  0
  144.7541  133.0739  151.2994 C   0  0  0  0  0  0  0  0  0  0  0  0
  143.6545  133.1472  150.4226 C   0  0  0  0  0  0  0  0  0  0  0  0
  143.8085  132.6672  149.1078 C   0  0  0  0  0  0  0  0  0  0  0  0
  144.9586  132.1335  148.6457 N   0  0  0  0  0  0  0  0  0  0  0  0
  146.0081  132.0656  149.4922 C   0  0  0  0  0  0  0  0  0  0  0  0
  148.5871  132.4246  153.3533 N   0  0  0  0  0  0  0  0  0  0  0  0
  149.1448  132.6664  154.6850 C   0  0  2  0  0  0  0  0  0  0  0  0
  150.1251  133.8541  154.6643 C   0  0  0  0  0  0  0  0  0  0  0  0
  150.9397  133.8426  155.9638 C   0  0  0  0  0  0  0  0  0  0  0  0
  151.0891  132.0827  156.4543 S   0  0  0  0  0  0  0  0  0  0  0  0
  152.4373  131.5921  156.1304 O   0  0  0  0  0  0  0  0  0  0  0  0
  150.5252  131.9145  157.8023 O   0  0  0  0  0  0  0  0  0  0  0  0
  149.9042  131.4389  155.2143 C   0  0  0  0  0  0  0  0  0  0  0  0
  147.9403  131.9837  151.1253 H   0  0  0  0  0  0  0  0  0  0  0  0
  144.6338  133.4234  152.3127 H   0  0  0  0  0  0  0  0  0  0  0  0
  142.7120  133.5583  150.7530 H   0  0  0  0  0  0  0  0  0  0  0  0
  142.9843  132.7078  148.4109 H   0  0  0  0  0  0  0  0  0  0  0  0
  146.9104  131.6289  149.0891 H   0  0  0  0  0  0  0  0  0  0  0  0
  149.2146  131.9922  152.6907 H   0  0  0  0  0  0  0  0  0  0  0  0
  148.3475  132.9182  155.3869 H   0  0  0  0  0  0  0  0  0  0  0  0
  150.8109  133.7401  153.8233 H   0  0  0  0  0  0  0  0  0  0  0  0
  149.6084  134.8043  154.5256 H   0  0  0  0  0  0  0  0  0  0  0  0
  151.9276  134.2894  155.8513 H   0  0  0  0  0  0  0  0  0  0  0  0
  150.4081  134.3681  156.7575 H   0  0  0  0  0  0  0  0  0  0  0  0
  149.2532  130.6929  155.6704 H   0  0  0  0  0  0  0  0  0  0  0  0
  150.4810  130.9594  154.4223 H   0  0  0  0  0  0  0  0  0  0  0  0
  1  2  2  0  0  0  0
  2  3  1  0  0  0  0
  2 10  1  0  0  0  0
  3  4  1  0  0  0  0
  3 18  1  0  0  0  0
  4  9  1  0  0  0  0
  4  5  2  0  0  0  0
  5  6  1  0  0  0  0
  5 19  1  0  0  0  0
  6  7  2  0  0  0  0
  6 20  1  0  0  0  0
  7  8  1  0  0  0  0
  7 21  1  0  0  0  0
  8  9  2  0  0  0  0
  9 22  1  0  0  0  0
 10 11  1  0  0  0  0
 10 23  1  0  0  0  0
 11 17  1  0  0  0  0
 11 12  1  0  0  0  0
 11 24  1  0  0  0  0
 12 13  1  0  0  0  0
 12 25  1  0  0  0  0
 12 26  1  0  0  0  0
 13 14  1  0  0  0  0
 13 27  1  0  0  0  0
 13 28  1  0  0  0  0
 14 15  2  0  0  0  0
 14 16  2  0  0  0  0
 14 17  1  0  0  0  0
 17 29  1  0  0  0  0
 17 30  1  0  0  0  0
M  END
> <s_m_source_file>
AV-unprocessed.smi

> <i_m_source_file_index>
2042

> <i_lp_mmshare_version>
43012

> <i_f3d_flags>
0

> <s_epik_input>
Tz1TMSg9TylbQ0gyXVtDSDJdW0NASF0oW0NIMl0xKVtOSF1DKD1PKVtOSF1jMltjSF1bY0hdW2NIXW5bY0hdMg==

> <s_epik_cmdline>
J2VwaWtfcHl0aG9uJywgJy1waCcsICc3LjAnLCAnLXRuJywgJzgnLCAnLW1hJywgJzIwMCcsICctbWV0YWxfYmluZGluZycsICctaW1hZScsICc8aW5maWxlLm1hZT4nLCAnLW9tYWUnLCAnPG91dGZpbGUubWFlPic=

> <r_epik_Ionization_Penalty>
0.00421056

> <r_epik_Ionization_Penalty_Charging>
0

> <r_epik_Ionization_Penalty_Neutral>
0.00421056

> <r_epik_State_Penalty>
0.00300625

> <r_epik_Charging_Adjusted_Penalty>
0.00300625

> <i_epik_Tot_Q>
0

> <i_epik_Tot_abs_Q>
0

> <r_epik_Metal_State_Penalty>
-0

> <b_epik_Metal_Only>
0

> <s_lp_Force_Field>
OPLS_2005

> <r_lp_Energy>
18.6302

> <b_lp_Chiralities_Consistent>
1

> <s_lp_Variant>
AV-unprocessed.smi:2042-1

> <Gold.Version>
5.8.1

> <Gold.Id.Protein>
6NUR|6NUR_protein|mol2

> <Gold.PLP.Fitness>
39.5945

> <Gold.PLP.PLP>
-30.8913

> <Gold.PLP.part.hbond>
-3.6431

> <Gold.PLP.part.metal>
0.0000

> <Gold.PLP.part.buried>
-3.4641

> <Gold.PLP.part.nonpolar>
-24.3141

> <Gold.PLP.part.repulsive>
0.6174

> <Gold.PLP.ligand.clash>
0.0000

> <Gold.PLP.ligand.torsion>
0.2057

> <Gold.PLP.Chemscore.Hbond>
2.0000

> <Gold.PLP.Chemscore.CHOScore>
1.0381

> <Gold.PLP.Chemscore.Metal>
0.0000

> <Gold.Chemscore.Hbonds>
donor molecule, donor type, donor heavy atom, donor atom, acceptor molecule, acceptor atom, score
      L1  H     3    18       P1 10747  1.00
      P1  H  6896  6908       L1    16  0.68
      L1  C     7    21       P1 10186  0.13
      L1  C     9    22       P1 10747  1.00

> <Gold.PLP.Chemscore.Internal.Correction>
0.0005

> <Gold.Rescore>
     Score         DG    S(hbond)    S(metal)    S(lipo)     H(rot)  DE(clash)    DE(int)     intcor
     16.09     -17.68       2.00        0.00      69.19       1.00       0.21       1.38       ----

> <Gold.Chemscore.Fitness>
16.0916

> <Gold.Chemscore.DG>
-17.6800

> <Gold.Chemscore.ZeroCoef>
-5.4800

> <Gold.Chemscore.Hbond>
1.9954

> <Gold.Chemscore.Metal>
0.0000

> <Gold.Chemscore.Lipo>
69.1913

> <Gold.Chemscore.Internal_Hbond>
0.0000

> <Gold.Chemscore.DEClash>
0.2079

> <Gold.Chemscore.DEInternal>
1.3805

> <Gold.Chemscore.Rot>
1.0000

> <Gold.Chemscore.Internal.Correction>
   9.000000E+99

> <Gold.Chemscore.Hbonds>
donor molecule, donor type, donor heavy atom, donor atom, acceptor molecule, acceptor atom, score
      L1  H     3    18       P1 10747  1.00
      P1  H  6896  6908       L1    16  0.59

> <Gold.Chemscore.Hbond.Weighted>
-6.6646

> <Gold.Chemscore.Metal.Weighted>
-0.0000

> <Gold.Chemscore.Lipo.Weighted>
-8.0954

> <Gold.Chemscore.Internal_Hbond.Weighted>
0.0000

> <Gold.Chemscore.DEClash.Weighted>
0.2079

> <Gold.Chemscore.DEInternal.Weighted>
1.3805

> <Gold.Chemscore.Rot.Weighted>
2.5600

> <Gold.Chemscore.Internal.Correction.Weighted>
   9.000000E+99

> <Gold.Protein.RotatedTorsions>
[ 6907 6896 6895 6894 ] final   88.95 input  -60.11 | X-H torsion
[ 7974 7965 7964 7962 ] final -146.37 input  175.53 | X-H torsion
[ 8008 7997 7996 7995 ] final -156.25 input   59.86 | X-H torsion
[ 10167 10162 10161 10158 ] final  -13.31 input  -65.29 | X-H torsion
[ 10718 10713 10712 10709 ] final  -63.71 input   66.30 | X-H torsion
[ 10763 10752 10751 10750 ] final   57.38 input  -60.55 | X-H torsion
[ 11005 11000 10999 10996 ] final  102.52 input  -57.11 | X-H torsion

> <Gold.Protein.ActiveResidues>
 VAL166  LYS551  ARG553  GLY616  TRP617  ASP618  TYR619  PRO620  LYS621  CYS622 
 ASP623  PHE694  ASN695  SER759  ASP760  ASP761  ALA762  ILE779  LEU786  VAL792 
 PHE793  MET794  SER795  GLU796  ALA797  LYS798  CYS799  TRP800  GLU811  SER814 

> <Gold.Protein.RotatedAtoms>
  152.5431  134.2042  159.8724 H   0  0  0  0  0  0  0  0  0  0  0  0  # atno 6907 bound_to 6896
  151.2029  133.4593  159.2604 H   0  0  0  0  0  0  0  0  0  0  0  0  # atno 6908 bound_to 6896
  151.0972  134.9963  159.8486 H   0  0  0  0  0  0  0  0  0  0  0  0  # atno 6909 bound_to 6896
  144.8164  140.5465  143.5608 H   0  0  0  0  0  0  0  0  0  0  0  0  # atno 7974 bound_to 7965
  155.7143  140.0782  157.2358 H   0  0  0  0  0  0  0  0  0  0  0  0  # atno 8008 bound_to 7997
  154.4054  140.1624  156.2384 H   0  0  0  0  0  0  0  0  0  0  0  0  # atno 8009 bound_to 7997
  155.9255  140.3395  155.6209 H   0  0  0  0  0  0  0  0  0  0  0  0  # atno 8010 bound_to 7997
  140.7179  143.5440  150.9376 H   0  0  0  0  0  0  0  0  0  0  0  0  # atno 10167 bound_to 10162
  156.0774  130.4224  150.1317 H   0  0  0  0  0  0  0  0  0  0  0  0  # atno 10718 bound_to 10713
  152.9849  135.5643  154.5382 H   0  0  0  0  0  0  0  0  0  0  0  0  # atno 10763 bound_to 10752
  154.4841  135.2790  155.1550 H   0  0  0  0  0  0  0  0  0  0  0  0  # atno 10764 bound_to 10752
  154.3046  135.6300  153.5492 H   0  0  0  0  0  0  0  0  0  0  0  0  # atno 10765 bound_to 10752
  139.8778  134.9227  156.5070 H   0  0  0  0  0  0  0  0  0  0  0  0  # atno 11005 bound_to 11000
  145.5204  139.1477  143.3555 LP  0  0  0  0  0  0  0  0  0  0  0  0  # atno 17320 bound_to 7965
  146.2468  140.5345  142.8910 LP  0  0  0  0  0  0  0  0  0  0  0  0  # atno 17321 bound_to 7965
  139.9163  143.6659  152.3105 LP  0  0  0  0  0  0  0  0  0  0  0  0  # atno 17342 bound_to 10162
  139.7060  144.7628  151.1192 LP  0  0  0  0  0  0  0  0  0  0  0  0  # atno 17343 bound_to 10162
  156.9355  130.9727  151.3525 LP  0  0  0  0  0  0  0  0  0  0  0  0  # atno 17370 bound_to 10713
  157.5875  130.8420  149.8611 LP  0  0  0  0  0  0  0  0  0  0  0  0  # atno 17371 bound_to 10713
  140.8548  133.8104  155.9205 LP  0  0  0  0  0  0  0  0  0  0  0  0  # atno 17394 bound_to 11000
  140.9108  134.2262  157.4986 LP  0  0  0  0  0  0  0  0  0  0  0  0  # atno 17395 bound_to 11000

$$$$
