AV-unprocessed.smi:3183|AV-procd|sdf|12158|dock4
  -GOLD-   2272017593D 1   1.00000     0.00000
 Structure written by MMmdl.
 43 44  0  0  0  0  0  0  0  0  2 V2000
  152.2848  143.1205  161.3965 C   0  0  0  0  0  0  0  0  0  0  0  0
  152.3586  143.0541  159.8605 C   0  0  1  0  0  0  0  0  0  0  0  0
  151.8368  141.6877  159.3722 C   0  0  0  0  0  0  0  0  0  0  0  0
  151.9008  141.5553  157.8427 C   0  0  0  0  0  0  0  0  0  0  0  0
  151.1507  142.6947  157.1336 C   0  0  1  0  0  0  0  0  0  0  0  0
  149.6876  142.5593  157.3159 N   0  3  0  0  0  0  0  0  0  0  0  0
  149.0883  141.3663  156.6858 C   0  0  0  0  0  0  0  0  0  0  0  0
  147.5676  141.3363  156.8982 C   0  0  0  0  0  0  0  0  0  0  0  0
  146.7866  142.0984  155.8706 C   0  0  0  0  0  0  0  0  0  0  0  0
  145.7564  142.9889  156.0079 C   0  0  0  0  0  0  0  0  0  0  0  0
  145.4413  143.3684  154.6746 C   0  0  0  0  0  0  0  0  0  0  0  0
  146.2079  142.7667  153.7831 N   0  0  0  0  0  0  0  0  0  0  0  0
  147.0340  141.9875  154.5119 N   0  0  0  0  0  0  0  0  0  0  0  0
  148.0169  141.1823  153.8118 C   0  0  0  0  0  0  0  0  0  0  0  0
  151.6424  144.0662  157.6309 C   0  0  0  0  0  0  0  0  0  0  0  0
  151.5931  144.2133  159.1684 C   0  0  2  0  0  0  0  0  0  0  0  0
  152.1195  145.6019  159.5738 C   0  0  0  0  0  0  0  0  0  0  0  0
  151.2514  143.1283  161.7446 H   0  0  0  0  0  0  0  0  0  0  0  0
  152.7784  144.0095  161.7882 H   0  0  0  0  0  0  0  0  0  0  0  0
  152.7797  142.2611  161.8498 H   0  0  0  0  0  0  0  0  0  0  0  0
  153.4106  143.1260  159.5797 H   0  0  0  0  0  0  0  0  0  0  0  0
  152.4212  140.8854  159.8243 H   0  0  0  0  0  0  0  0  0  0  0  0
  150.8102  141.5421  159.7114 H   0  0  0  0  0  0  0  0  0  0  0  0
  152.9461  141.5666  157.5309 H   0  0  0  0  0  0  0  0  0  0  0  0
  151.5034  140.5881  157.5321 H   0  0  0  0  0  0  0  0  0  0  0  0
  151.3754  142.6268  156.0678 H   0  0  0  0  0  0  0  0  0  0  0  0
  149.4947  142.5276  158.3069 H   0  0  0  0  0  0  0  0  0  0  0  0
  149.3175  141.3739  155.6192 H   0  0  0  0  0  0  0  0  0  0  0  0
  149.5437  140.4716  157.1131 H   0  0  0  0  0  0  0  0  0  0  0  0
  147.2289  140.2994  156.9030 H   0  0  0  0  0  0  0  0  0  0  0  0
  147.3385  141.7376  157.8864 H   0  0  0  0  0  0  0  0  0  0  0  0
  145.2924  143.3239  156.9237 H   0  0  0  0  0  0  0  0  0  0  0  0
  144.6844  144.0578  154.3306 H   0  0  0  0  0  0  0  0  0  0  0  0
  148.6152  140.6001  154.5117 H   0  0  0  0  0  0  0  0  0  0  0  0
  148.6806  141.8301  153.2383 H   0  0  0  0  0  0  0  0  0  0  0  0
  147.5120  140.4981  153.1292 H   0  0  0  0  0  0  0  0  0  0  0  0
  152.6699  144.2125  157.2940 H   0  0  0  0  0  0  0  0  0  0  0  0
  151.0582  144.8577  157.1590 H   0  0  0  0  0  0  0  0  0  0  0  0
  150.5480  144.1605  159.4770 H   0  0  0  0  0  0  0  0  0  0  0  0
  153.1865  145.6975  159.3698 H   0  0  0  0  0  0  0  0  0  0  0  0
  151.9613  145.8021  160.6333 H   0  0  0  0  0  0  0  0  0  0  0  0
  151.6064  146.3914  159.0242 H   0  0  0  0  0  0  0  0  0  0  0  0
  149.2441  143.3811  156.9312 H   0  0  0  0  0  0  0  0  0  0  0  0
  1  2  1  0  0  0  0
  1 18  1  0  0  0  0
  1 19  1  0  0  0  0
  1 20  1  0  0  0  0
  2 16  1  0  0  0  0
  2  3  1  0  0  0  0
  2 21  1  0  0  0  0
  3  4  1  0  0  0  0
  3 22  1  0  0  0  0
  3 23  1  0  0  0  0
  4  5  1  0  0  0  0
  4 24  1  0  0  0  0
  4 25  1  0  0  0  0
  5  6  1  0  0  0  0
  5 15  1  0  0  0  0
  5 26  1  0  0  0  0
  6  7  1  0  0  0  0
  6 27  1  0  0  0  0
  6 43  1  0  0  0  0
  7  8  1  0  0  0  0
  7 28  1  0  0  0  0
  7 29  1  0  0  0  0
  8  9  1  0  0  0  0
  8 30  1  0  0  0  0
  8 31  1  0  0  0  0
  9 13  1  0  0  0  0
  9 10  2  0  0  0  0
 10 11  1  0  0  0  0
 10 32  1  0  0  0  0
 11 12  2  0  0  0  0
 11 33  1  0  0  0  0
 12 13  1  0  0  0  0
 13 14  1  0  0  0  0
 14 34  1  0  0  0  0
 14 35  1  0  0  0  0
 14 36  1  0  0  0  0
 15 16  1  0  0  0  0
 15 37  1  0  0  0  0
 15 38  1  0  0  0  0
 16 17  1  0  0  0  0
 16 39  1  0  0  0  0
 17 40  1  0  0  0  0
 17 41  1  0  0  0  0
 17 42  1  0  0  0  0
M  CHG  1   6   1
M  END
> <s_m_source_file>
AV-unprocessed.smi

> <i_m_source_file_index>
3183

> <i_lp_mmshare_version>
43012

> <i_f3d_flags>
0

> <s_epik_input>
W0NIM11bQ0BASF0xW0NIMl1bQ0gyXVtDQEhdKFtDSDJdW0NASF0xW0NIM10pW05IXVtDSDJdW0NIMl1jMltjSF1bY0hdbm4yW0NIM10=

> <s_epik_cmdline>
J2VwaWtfcHl0aG9uJywgJy1waCcsICc3LjAnLCAnLXRuJywgJzgnLCAnLW1hJywgJzIwMCcsICctbWV0YWxfYmluZGluZycsICctaW1hZScsICc8aW5maWxlLm1hZT4nLCAnLW9tYWUnLCAnPG91dGZpbGUubWFlPic=

> <r_lp_tautomer_probability>
1

> <r_epik_Ionization_Penalty>
0.000327718

> <r_epik_Ionization_Penalty_Charging>
0.000294043

> <r_epik_Ionization_Penalty_Neutral>
3.36755e-05

> <r_epik_State_Penalty>
-0

> <r_epik_Charging_Adjusted_Penalty>
0.000294043

> <i_epik_Tot_Q>
1

> <i_epik_Tot_abs_Q>
1

> <r_epik_Metal_State_Penalty>
-0

> <b_epik_Metal_Only>
0

> <s_lp_Force_Field>
OPLS_2005

> <r_lp_Energy>
17.888

> <b_lp_Chiralities_Consistent>
1

> <s_lp_Variant>
AV-unprocessed.smi:3183-6

> <Gold.Version>
5.8.1

> <Gold.Id.Protein>
6NUR|6NUR_protein|mol2

> <Gold.PLP.Fitness>
46.6100

> <Gold.PLP.PLP>
-41.2902

> <Gold.PLP.part.hbond>
-1.0000

> <Gold.PLP.part.metal>
0.0000

> <Gold.PLP.part.buried>
-6.1381

> <Gold.PLP.part.nonpolar>
-34.4291

> <Gold.PLP.part.repulsive>
0.2185

> <Gold.PLP.ligand.clash>
0.0000

> <Gold.PLP.ligand.torsion>
0.3455

> <Gold.PLP.Chemscore.Hbond>
2.0000

> <Gold.PLP.Chemscore.CHOScore>
0.0000

> <Gold.PLP.Chemscore.Metal>
0.0000

> <Gold.Chemscore.Hbonds>
donor molecule, donor type, donor heavy atom, donor atom, acceptor molecule, acceptor atom, score
      L1  H     6    43       P1  8028  2.00

> <Gold.PLP.Chemscore.Internal.Correction>
0.0107

> <Gold.Rescore>
     Score         DG    S(hbond)    S(metal)    S(lipo)     H(rot)  DE(clash)    DE(int)     intcor
     18.43     -18.77       0.98        0.00     115.82       1.38       0.14       0.20       ----

> <Gold.Chemscore.Fitness>
18.4259

> <Gold.Chemscore.DG>
-18.7690

> <Gold.Chemscore.ZeroCoef>
-5.4800

> <Gold.Chemscore.Hbond>
0.9769

> <Gold.Chemscore.Metal>
0.0000

> <Gold.Chemscore.Lipo>
115.8193

> <Gold.Chemscore.Internal_Hbond>
0.0000

> <Gold.Chemscore.DEClash>
0.1386

> <Gold.Chemscore.DEInternal>
0.2045

> <Gold.Chemscore.Rot>
1.3768

> <Gold.Chemscore.Internal.Correction>
   9.000000E+99

> <Gold.Chemscore.Hbonds>
donor molecule, donor type, donor heavy atom, donor atom, acceptor molecule, acceptor atom, score
      L1  H     6    43       P1  8028  0.90

> <Gold.Chemscore.Hbond.Weighted>
-3.2628

> <Gold.Chemscore.Metal.Weighted>
-0.0000

> <Gold.Chemscore.Lipo.Weighted>
-13.5509

> <Gold.Chemscore.Internal_Hbond.Weighted>
0.0000

> <Gold.Chemscore.DEClash.Weighted>
0.1386

> <Gold.Chemscore.DEInternal.Weighted>
0.2045

> <Gold.Chemscore.Rot.Weighted>
3.5247

> <Gold.Chemscore.Internal.Correction.Weighted>
   9.000000E+99

> <Gold.Protein.RotatedTorsions>
[ 6907 6896 6895 6894 ] final -115.22 input  -60.11 | X-H torsion
[ 7974 7965 7964 7962 ] final  169.89 input  175.53 | X-H torsion
[ 8008 7997 7996 7995 ] final  -94.89 input   59.86 | X-H torsion
[ 10167 10162 10161 10158 ] final  132.33 input  -65.29 | X-H torsion
[ 10718 10713 10712 10709 ] final  -17.35 input   66.30 | X-H torsion
[ 10763 10752 10751 10750 ] final  138.43 input  -60.55 | X-H torsion
[ 11005 11000 10999 10996 ] final -142.41 input  -57.11 | X-H torsion

> <Gold.Protein.ActiveResidues>
 VAL166  LYS551  ARG553  GLY616  TRP617  ASP618  TYR619  PRO620  LYS621  CYS622 
 ASP623  PHE694  ASN695  SER759  ASP760  ASP761  ALA762  ILE779  LEU786  VAL792 
 PHE793  MET794  SER795  GLU796  ALA797  LYS798  CYS799  TRP800  GLU811  SER814 

> <Gold.Protein.RotatedAtoms>
  150.7961  133.8689  159.3252 H   0  0  0  0  0  0  0  0  0  0  0  0  # atno 6907 bound_to 6896
  151.6513  135.0999  160.0171 H   0  0  0  0  0  0  0  0  0  0  0  0  # atno 6908 bound_to 6896
  152.4043  133.6826  159.6378 H   0  0  0  0  0  0  0  0  0  0  0  0  # atno 6909 bound_to 6896
  144.7341  139.9121  143.6415 H   0  0  0  0  0  0  0  0  0  0  0  0  # atno 7974 bound_to 7965
  154.7543  140.0485  157.0919 H   0  0  0  0  0  0  0  0  0  0  0  0  # atno 8008 bound_to 7997
  155.0018  140.3125  155.4845 H   0  0  0  0  0  0  0  0  0  0  0  0  # atno 8009 bound_to 7997
  156.2891  140.2200  156.5128 H   0  0  0  0  0  0  0  0  0  0  0  0  # atno 8010 bound_to 7997
  139.5344  144.6667  151.4836 H   0  0  0  0  0  0  0  0  0  0  0  0  # atno 10167 bound_to 10162
  156.5748  130.4759  149.6347 H   0  0  0  0  0  0  0  0  0  0  0  0  # atno 10718 bound_to 10713
  153.8894  135.3035  155.3447 H   0  0  0  0  0  0  0  0  0  0  0  0  # atno 10763 bound_to 10752
  154.7724  135.4879  153.9678 H   0  0  0  0  0  0  0  0  0  0  0  0  # atno 10764 bound_to 10752
  153.1306  135.6803  153.9282 H   0  0  0  0  0  0  0  0  0  0  0  0  # atno 10765 bound_to 10752
  140.8228  134.2611  157.4892 H   0  0  0  0  0  0  0  0  0  0  0  0  # atno 11005 bound_to 11000
  146.0993  139.3987  143.0357 LP  0  0  0  0  0  0  0  0  0  0  0  0  # atno 17320 bound_to 7965
  145.7601  140.9938  143.1204 LP  0  0  0  0  0  0  0  0  0  0  0  0  # atno 17321 bound_to 7965
  140.6543  143.8633  150.6818 LP  0  0  0  0  0  0  0  0  0  0  0  0  # atno 17342 bound_to 10162
  140.2007  143.3961  152.1794 LP  0  0  0  0  0  0  0  0  0  0  0  0  # atno 17343 bound_to 10162
  156.2683  130.7002  151.1792 LP  0  0  0  0  0  0  0  0  0  0  0  0  # atno 17370 bound_to 10713
  157.7340  131.0586  150.5547 LP  0  0  0  0  0  0  0  0  0  0  0  0  # atno 17371 bound_to 10713
  139.8708  134.9544  156.4176 LP  0  0  0  0  0  0  0  0  0  0  0  0  # atno 17394 bound_to 11000
  140.9081  133.7731  155.9759 LP  0  0  0  0  0  0  0  0  0  0  0  0  # atno 17395 bound_to 11000

$$$$
