AV-unprocessed.smi:2900|AV-procd|sdf|11148|dock6
  -GOLD-   2272016 23D 1   1.00000     0.00000
 Structure written by MMmdl.
 35 36  0  0  0  0  0  0  0  0  1 V2000
  153.3238  138.8351  159.8159 O   0  0  0  0  0  0  0  0  0  0  0  0
  153.0000  139.9891  159.5376 C   0  0  0  0  0  0  0  0  0  0  0  0
  153.5949  141.1631  160.1713 C   0  0  0  0  0  0  0  0  0  0  0  0
  153.2114  142.4163  159.8472 C   0  0  0  0  0  0  0  0  0  0  0  0
  152.1777  142.6117  158.8447 C   0  0  0  0  0  0  0  0  0  0  0  0
  151.6803  143.9692  158.4132 C   0  0  0  0  0  0  0  0  0  0  0  0
  150.3631  144.0763  158.5892 F   0  0  0  0  0  0  0  0  0  0  0  0
  152.2815  144.9234  159.1246 F   0  0  0  0  0  0  0  0  0  0  0  0
  151.9527  144.1687  157.1232 F   0  0  0  0  0  0  0  0  0  0  0  0
  151.6458  141.5755  158.2808 N   0  0  0  0  0  0  0  0  0  0  0  0
  152.0504  140.2915  158.6048 N   0  0  0  0  0  0  0  0  0  0  0  0
  151.3555  139.2357  157.8565 C   0  0  0  0  0  0  0  0  0  0  0  0
  151.4664  139.4091  156.3247 C   0  0  1  0  0  0  0  0  0  0  0  0
  152.8319  139.2730  155.9880 O   0  0  0  0  0  0  0  0  0  0  0  0
  150.6671  138.3625  155.5279 C   0  0  0  0  0  0  0  0  0  0  0  0
  149.2973  138.4554  155.8949 O   0  0  0  0  0  0  0  0  0  0  0  0
  148.5446  139.4753  155.3534 C   0  0  0  0  0  0  0  0  0  0  0  0
  147.1889  139.5417  155.7362 C   0  0  0  0  0  0  0  0  0  0  0  0
  146.3453  140.5505  155.2320 C   0  0  0  0  0  0  0  0  0  0  0  0
  146.8522  141.5074  154.3338 C   0  0  0  0  0  0  0  0  0  0  0  0
  148.2026  141.4528  153.9423 C   0  0  0  0  0  0  0  0  0  0  0  0
  149.0467  140.4444  154.4475 C   0  0  0  0  0  0  0  0  0  0  0  0
  154.3631  141.0226  160.9176 H   0  0  0  0  0  0  0  0  0  0  0  0
  153.6662  143.2691  160.3287 H   0  0  0  0  0  0  0  0  0  0  0  0
  151.7625  138.2663  158.1506 H   0  0  0  0  0  0  0  0  0  0  0  0
  150.3026  139.2023  158.1446 H   0  0  0  0  0  0  0  0  0  0  0  0
  151.1425  140.4121  156.0452 H   0  0  0  0  0  0  0  0  0  0  0  0
  152.9303  139.4546  155.0657 H   0  0  0  0  0  0  0  0  0  0  0  0
  150.8074  138.5018  154.4543 H   0  0  0  0  0  0  0  0  0  0  0  0
  151.0137  137.3610  155.7824 H   0  0  0  0  0  0  0  0  0  0  0  0
  146.7913  138.8114  156.4254 H   0  0  0  0  0  0  0  0  0  0  0  0
  145.3093  140.5893  155.5349 H   0  0  0  0  0  0  0  0  0  0  0  0
  146.2065  142.2812  153.9456 H   0  0  0  0  0  0  0  0  0  0  0  0
  148.5932  142.1861  153.2524 H   0  0  0  0  0  0  0  0  0  0  0  0
  150.0761  140.4366  154.1231 H   0  0  0  0  0  0  0  0  0  0  0  0
  1  2  2  0  0  0  0
  2 11  1  0  0  0  0
  2  3  1  0  0  0  0
  3  4  2  0  0  0  0
  3 23  1  0  0  0  0
  4  5  1  0  0  0  0
  4 24  1  0  0  0  0
  5  6  1  0  0  0  0
  5 10  2  0  0  0  0
  6  7  1  0  0  0  0
  6  8  1  0  0  0  0
  6  9  1  0  0  0  0
 10 11  1  0  0  0  0
 11 12  1  0  0  0  0
 12 13  1  0  0  0  0
 12 25  1  0  0  0  0
 12 26  1  0  0  0  0
 13 14  1  0  0  0  0
 13 15  1  0  0  0  0
 13 27  1  0  0  0  0
 14 28  1  0  0  0  0
 15 16  1  0  0  0  0
 15 29  1  0  0  0  0
 15 30  1  0  0  0  0
 16 17  1  0  0  0  0
 17 22  1  0  0  0  0
 17 18  2  0  0  0  0
 18 19  1  0  0  0  0
 18 31  1  0  0  0  0
 19 20  2  0  0  0  0
 19 32  1  0  0  0  0
 20 21  1  0  0  0  0
 20 33  1  0  0  0  0
 21 22  2  0  0  0  0
 21 34  1  0  0  0  0
 22 35  1  0  0  0  0
M  END
> <s_m_source_file>
AV-unprocessed.smi

> <i_m_source_file_index>
2900

> <i_lp_mmshare_version>
43012

> <i_f3d_flags>
0

> <s_epik_input>
Tz1jMVtjSF1bY0hdYyhDKEYpKEYpRilubjFbQ0gyXVtDQEhdKFtPSF0pW0NIMl1PYzJbY0hdW2NIXVtjSF1bY0hdW2NIXTI=

> <s_epik_cmdline>
J2VwaWtfcHl0aG9uJywgJy1waCcsICc3LjAnLCAnLXRuJywgJzgnLCAnLW1hJywgJzIwMCcsICctbWV0YWxfYmluZGluZycsICctaW1hZScsICc8aW5maWxlLm1hZT4nLCAnLW9tYWUnLCAnPG91dGZpbGUubWFlPic=

> <r_lp_tautomer_probability>
1

> <r_epik_Ionization_Penalty>
1.22578e-07

> <r_epik_Ionization_Penalty_Charging>
5.40425e-09

> <r_epik_Ionization_Penalty_Neutral>
1.17174e-07

> <r_epik_State_Penalty>
-0

> <r_epik_Charging_Adjusted_Penalty>
5.40425e-09

> <i_epik_Tot_Q>
0

> <i_epik_Tot_abs_Q>
0

> <r_epik_Metal_State_Penalty>
-0

> <b_epik_Metal_Only>
0

> <s_lp_Force_Field>
OPLS_2005

> <r_lp_Energy>
32.4131

> <b_lp_Chiralities_Consistent>
1

> <s_lp_Variant>
AV-unprocessed.smi:2900-2

> <Gold.Version>
5.8.1

> <Gold.Id.Protein>
6NUR|6NUR_protein|mol2

> <Gold.PLP.Fitness>
48.2288

> <Gold.PLP.PLP>
-45.4326

> <Gold.PLP.part.hbond>
-0.8182

> <Gold.PLP.part.metal>
0.0000

> <Gold.PLP.part.buried>
-4.5365

> <Gold.PLP.part.nonpolar>
-39.6603

> <Gold.PLP.part.repulsive>
0.0327

> <Gold.PLP.ligand.clash>
0.0000

> <Gold.PLP.ligand.torsion>
0.1395

> <Gold.PLP.Chemscore.Hbond>
1.0000

> <Gold.PLP.Chemscore.CHOScore>
0.0000

> <Gold.PLP.Chemscore.Metal>
0.0000

> <Gold.Chemscore.Hbonds>
donor molecule, donor type, donor heavy atom, donor atom, acceptor molecule, acceptor atom, score
      P1  H  7997  8009       L1    14  0.75

> <Gold.PLP.Chemscore.Internal.Correction>
0.0753

> <Gold.Rescore>
     Score         DG    S(hbond)    S(metal)    S(lipo)     H(rot)  DE(clash)    DE(int)     intcor
     11.60     -11.89       0.83        0.00      88.73       2.63       0.07       0.23       ----

> <Gold.Chemscore.Fitness>
11.6002

> <Gold.Chemscore.DG>
-11.8915

> <Gold.Chemscore.ZeroCoef>
-5.4800

> <Gold.Chemscore.Hbond>
0.8301

> <Gold.Chemscore.Metal>
0.0000

> <Gold.Chemscore.Lipo>
88.7270

> <Gold.Chemscore.Internal_Hbond>
0.0000

> <Gold.Chemscore.DEClash>
0.0653

> <Gold.Chemscore.DEInternal>
0.2261

> <Gold.Chemscore.Rot>
2.6336

> <Gold.Chemscore.Internal.Correction>
   9.000000E+99

> <Gold.Chemscore.Hbonds>
donor molecule, donor type, donor heavy atom, donor atom, acceptor molecule, acceptor atom, score
      P1  H  7997  8009       L1    14  0.09

> <Gold.Chemscore.Hbond.Weighted>
-2.7725

> <Gold.Chemscore.Metal.Weighted>
-0.0000

> <Gold.Chemscore.Lipo.Weighted>
-10.3811

> <Gold.Chemscore.Internal_Hbond.Weighted>
0.0000

> <Gold.Chemscore.DEClash.Weighted>
0.0653

> <Gold.Chemscore.DEInternal.Weighted>
0.2261

> <Gold.Chemscore.Rot.Weighted>
6.7420

> <Gold.Chemscore.Internal.Correction.Weighted>
   9.000000E+99

> <Gold.Protein.RotatedTorsions>
[ 6907 6896 6895 6894 ] final   79.63 input  -60.11 | X-H torsion
[ 7974 7965 7964 7962 ] final   -6.10 input  175.53 | X-H torsion
[ 8008 7997 7996 7995 ] final -170.86 input   59.86 | X-H torsion
[ 10167 10162 10161 10158 ] final -120.87 input  -65.29 | X-H torsion
[ 10718 10713 10712 10709 ] final  -28.26 input   66.30 | X-H torsion
[ 10763 10752 10751 10750 ] final  -72.34 input  -60.55 | X-H torsion
[ 11005 11000 10999 10996 ] final -170.19 input  -57.11 | X-H torsion

> <Gold.Protein.ActiveResidues>
 VAL166  LYS551  ARG553  GLY616  TRP617  ASP618  TYR619  PRO620  LYS621  CYS622 
 ASP623  PHE694  ASN695  SER759  ASP760  ASP761  ALA762  ILE779  LEU786  VAL792 
 PHE793  MET794  SER795  GLU796  ALA797  LYS798  CYS799  TRP800  GLU811  SER814 

> <Gold.Protein.RotatedAtoms>
  152.5205  134.3482  159.9241 H   0  0  0  0  0  0  0  0  0  0  0  0  # atno 6907 bound_to 6896
  151.3432  133.3948  159.2681 H   0  0  0  0  0  0  0  0  0  0  0  0  # atno 6908 bound_to 6896
  150.9786  134.9164  159.7889 H   0  0  0  0  0  0  0  0  0  0  0  0  # atno 6909 bound_to 6896
  146.2338  140.2120  142.8335 H   0  0  0  0  0  0  0  0  0  0  0  0  # atno 7974 bound_to 7965
  155.9239  140.1079  157.1185 H   0  0  0  0  0  0  0  0  0  0  0  0  # atno 8008 bound_to 7997
  154.4059  140.1250  156.4780 H   0  0  0  0  0  0  0  0  0  0  0  0  # atno 8009 bound_to 7997
  155.7162  140.3470  155.4998 H   0  0  0  0  0  0  0  0  0  0  0  0  # atno 8010 bound_to 7997
  140.0311  143.5247  152.2176 H   0  0  0  0  0  0  0  0  0  0  0  0  # atno 10167 bound_to 10162
  156.4275  130.4438  149.7141 H   0  0  0  0  0  0  0  0  0  0  0  0  # atno 10718 bound_to 10713
  154.4444  135.5933  153.6150 H   0  0  0  0  0  0  0  0  0  0  0  0  # atno 10763 bound_to 10752
  152.9808  135.6006  154.3683 H   0  0  0  0  0  0  0  0  0  0  0  0  # atno 10764 bound_to 10752
  154.3536  135.2841  155.2337 H   0  0  0  0  0  0  0  0  0  0  0  0  # atno 10765 bound_to 10752
  140.5223  134.5697  157.5051 H   0  0  0  0  0  0  0  0  0  0  0  0  # atno 11005 bound_to 11000
  144.9699  140.8359  143.5461 LP  0  0  0  0  0  0  0  0  0  0  0  0  # atno 17320 bound_to 7965
  145.2100  139.2209  143.5148 LP  0  0  0  0  0  0  0  0  0  0  0  0  # atno 17321 bound_to 7965
  139.6075  144.7600  151.3027 LP  0  0  0  0  0  0  0  0  0  0  0  0  # atno 17342 bound_to 10162
  140.7301  143.6888  150.7939 LP  0  0  0  0  0  0  0  0  0  0  0  0  # atno 17343 bound_to 10162
  156.4057  130.7697  151.2707 LP  0  0  0  0  0  0  0  0  0  0  0  0  # atno 17370 bound_to 10713
  157.7508  131.0226  150.3801 LP  0  0  0  0  0  0  0  0  0  0  0  0  # atno 17371 bound_to 10713
  139.9599  134.7470  156.0260 LP  0  0  0  0  0  0  0  0  0  0  0  0  # atno 17394 bound_to 11000
  141.1327  133.6582  156.3509 LP  0  0  0  0  0  0  0  0  0  0  0  0  # atno 17395 bound_to 11000

$$$$
