AV-unprocessed.smi:1209|AV-procd|sdf|5075|dock4
  -GOLD-   22720 4123D 1   1.00000     0.00000
 Structure written by MMmdl.
 49 51  0  0  0  0  0  0  0  0  2 V2000
  142.2939  135.5214  152.8549 C   0  0  0  0  0  0  0  0  0  0  0  0
  143.4677  136.3663  153.2132 C   0  0  0  0  0  0  0  0  0  0  0  0
  144.3752  137.0664  152.4700 C   0  0  0  0  0  0  0  0  0  0  0  0
  145.2176  137.6669  153.4471 C   0  0  0  0  0  0  0  0  0  0  0  0
  146.3823  138.5963  153.2410 C   0  0  0  0  0  0  0  0  0  0  0  0
  146.1241  139.9594  153.7847 N   0  3  1  0  0  0  0  0  0  0  0  0
  145.7281  139.9115  155.2108 C   0  0  0  0  0  0  0  0  0  0  0  0
  147.2232  140.9390  153.5539 C   0  0  0  0  0  0  0  0  0  0  0  0
  148.4948  140.6292  154.3671 C   0  0  1  0  0  0  0  0  0  0  0  0
  149.6303  140.7666  153.5356 O   0  0  0  0  0  0  0  0  0  0  0  0
  148.6506  141.5469  155.5928 C   0  0  0  0  0  0  0  0  0  0  0  0
  149.4433  140.9153  156.6308 N   0  0  0  0  0  0  0  0  0  0  0  0
  149.4272  139.6223  157.0077 C   0  0  0  0  0  0  0  0  0  0  0  0
  150.2364  139.2701  158.0033 N   0  0  0  0  0  0  0  0  0  0  0  0
  150.8493  140.4743  158.3063 C   0  0  0  0  0  0  0  0  0  0  0  0
  151.8199  140.7931  159.2812 C   0  0  0  0  0  0  0  0  0  0  0  0
  152.3116  142.1118  159.4113 C   0  0  0  0  0  0  0  0  0  0  0  0
  153.3557  142.4082  160.4733 C   0  0  0  0  0  0  0  0  0  0  0  0
  151.8303  143.1377  158.5584 C   0  0  0  0  0  0  0  0  0  0  0  0
  152.3487  144.5606  158.6715 C   0  0  0  0  0  0  0  0  0  0  0  0
  150.8583  142.8372  157.5821 C   0  0  0  0  0  0  0  0  0  0  0  0
  150.3779  141.5213  157.4625 C   0  0  0  0  0  0  0  0  0  0  0  0
  144.8544  137.3374  154.6762 N   0  0  0  0  0  0  0  0  0  0  0  0
  143.7367  136.5081  154.5364 O   0  0  0  0  0  0  0  0  0  0  0  0
  141.9234  135.7718  151.8620 H   0  0  0  0  0  0  0  0  0  0  0  0
  141.4779  135.6679  153.5629 H   0  0  0  0  0  0  0  0  0  0  0  0
  142.5624  134.4650  152.8598 H   0  0  0  0  0  0  0  0  0  0  0  0
  144.4168  137.1497  151.3942 H   0  0  0  0  0  0  0  0  0  0  0  0
  147.2498  138.1613  153.7391 H   0  0  0  0  0  0  0  0  0  0  0  0
  146.6512  138.6558  152.1856 H   0  0  0  0  0  0  0  0  0  0  0  0
  146.5453  139.5397  155.8304 H   0  0  0  0  0  0  0  0  0  0  0  0
  144.8643  139.2609  155.3536 H   0  0  0  0  0  0  0  0  0  0  0  0
  145.4472  140.9022  155.5700 H   0  0  0  0  0  0  0  0  0  0  0  0
  147.4953  140.9494  152.4972 H   0  0  0  0  0  0  0  0  0  0  0  0
  146.8626  141.9445  153.7750 H   0  0  0  0  0  0  0  0  0  0  0  0
  148.4664  139.6055  154.7270 H   0  0  0  0  0  0  0  0  0  0  0  0
  149.5673  140.1428  152.8282 H   0  0  0  0  0  0  0  0  0  0  0  0
  149.1064  142.4992  155.3173 H   0  0  0  0  0  0  0  0  0  0  0  0
  147.6732  141.7781  156.0180 H   0  0  0  0  0  0  0  0  0  0  0  0
  148.7809  138.9007  156.5297 H   0  0  0  0  0  0  0  0  0  0  0  0
  152.1861  140.0121  159.9314 H   0  0  0  0  0  0  0  0  0  0  0  0
  152.9410  143.0637  161.2392 H   0  0  0  0  0  0  0  0  0  0  0  0
  154.2261  142.8953  160.0331 H   0  0  0  0  0  0  0  0  0  0  0  0
  153.6968  141.4949  160.9619 H   0  0  0  0  0  0  0  0  0  0  0  0
  151.7599  145.2464  158.0618 H   0  0  0  0  0  0  0  0  0  0  0  0
  153.3841  144.6131  158.3348 H   0  0  0  0  0  0  0  0  0  0  0  0
  152.3029  144.9115  159.7022 H   0  0  0  0  0  0  0  0  0  0  0  0
  150.4828  143.6084  156.9263 H   0  0  0  0  0  0  0  0  0  0  0  0
  145.3147  140.3139  153.2940 H   0  0  0  0  0  0  0  0  0  0  0  0
  1  2  1  0  0  0  0
  1 25  1  0  0  0  0
  1 26  1  0  0  0  0
  1 27  1  0  0  0  0
  2 24  1  0  0  0  0
  2  3  2  0  0  0  0
  3  4  1  0  0  0  0
  3 28  1  0  0  0  0
  4  5  1  0  0  0  0
  4 23  2  0  0  0  0
  5  6  1  0  0  0  0
  5 29  1  0  0  0  0
  5 30  1  0  0  0  0
  6  7  1  0  0  0  0
  6  8  1  0  0  0  0
  6 49  1  0  0  0  0
  7 31  1  0  0  0  0
  7 32  1  0  0  0  0
  7 33  1  0  0  0  0
  8  9  1  0  0  0  0
  8 34  1  0  0  0  0
  8 35  1  0  0  0  0
  9 10  1  0  0  0  0
  9 11  1  0  0  0  0
  9 36  1  0  0  0  0
 10 37  1  0  0  0  0
 11 12  1  0  0  0  0
 11 38  1  0  0  0  0
 11 39  1  0  0  0  0
 12 22  1  0  0  0  0
 12 13  1  0  0  0  0
 13 14  2  0  0  0  0
 13 40  1  0  0  0  0
 14 15  1  0  0  0  0
 15 22  2  0  0  0  0
 15 16  1  0  0  0  0
 16 17  2  0  0  0  0
 16 41  1  0  0  0  0
 17 18  1  0  0  0  0
 17 19  1  0  0  0  0
 18 42  1  0  0  0  0
 18 43  1  0  0  0  0
 18 44  1  0  0  0  0
 19 20  1  0  0  0  0
 19 21  2  0  0  0  0
 20 45  1  0  0  0  0
 20 46  1  0  0  0  0
 20 47  1  0  0  0  0
 21 22  1  0  0  0  0
 21 48  1  0  0  0  0
 23 24  1  0  0  0  0
M  CHG  1   6   1
M  END
> <s_m_source_file>
AV-unprocessed.smi

> <i_m_source_file_index>
1209

> <i_lp_mmshare_version>
43012

> <i_f3d_flags>
0

> <s_epik_input>
W0NIM11jMVtjSF1jKG5vMSlbQ0gyXU4oW0NIM10pW0NIMl1bQ0BIXShbT0hdKVtDSDJdbihbY0hdbjIpYyhjMjMpW2NIXWMoW0NIM10pYyhbY0hdMylbQ0gzXQ==

> <s_epik_cmdline>
J2VwaWtfcHl0aG9uJywgJy1waCcsICc3LjAnLCAnLXRuJywgJzgnLCAnLW1hJywgJzIwMCcsICctbWV0YWxfYmluZGluZycsICctaW1hZScsICc8aW5maWxlLm1hZT4nLCAnLW9tYWUnLCAnPG91dGZpbGUubWFlPic=

> <r_epik_Ionization_Penalty>
2.05249

> <r_epik_Ionization_Penalty_Charging>
1.96618

> <r_epik_Ionization_Penalty_Neutral>
0.0863156

> <r_epik_State_Penalty>
2.19215

> <r_epik_Charging_Adjusted_Penalty>
4.15833

> <i_epik_Tot_Q>
1

> <i_epik_Tot_abs_Q>
1

> <r_epik_Metal_State_Penalty>
2.17654

> <b_epik_Metal_Only>
0

> <s_lp_Force_Field>
OPLS_2005

> <r_lp_Energy>
8.33494

> <b_lp_Chiralities_Consistent>
1

> <s_lp_Variant>
AV-unprocessed.smi:1209-7

> <Gold.Version>
5.8.1

> <Gold.Id.Protein>
6NUR|6NUR_protein|mol2

> <Gold.PLP.Fitness>
53.6010

> <Gold.PLP.PLP>
-43.5535

> <Gold.PLP.part.hbond>
-3.4145

> <Gold.PLP.part.metal>
0.0000

> <Gold.PLP.part.buried>
-5.1031

> <Gold.PLP.part.nonpolar>
-35.8088

> <Gold.PLP.part.repulsive>
0.0716

> <Gold.PLP.ligand.clash>
0.0000

> <Gold.PLP.ligand.torsion>
1.2582

> <Gold.PLP.Chemscore.Hbond>
4.1040

> <Gold.PLP.Chemscore.CHOScore>
0.0000

> <Gold.PLP.Chemscore.Metal>
0.0000

> <Gold.Chemscore.Hbonds>
donor molecule, donor type, donor heavy atom, donor atom, acceptor molecule, acceptor atom, score
      L1  H     6    49       P1 10175  2.00
      L1  H    10    37       P1  7957  0.83
      P1  H  7989  7998       L1    10  0.26
      P1  H  8011  8017       L1    10  0.72

> <Gold.PLP.Chemscore.Internal.Correction>
0.2519

> <Gold.Rescore>
     Score         DG    S(hbond)    S(metal)    S(lipo)     H(rot)  DE(clash)    DE(int)     intcor
     18.00     -20.99       2.31        0.00     121.95       2.53       0.25       2.74       ----

> <Gold.Chemscore.Fitness>
18.0014

> <Gold.Chemscore.DG>
-20.9894

> <Gold.Chemscore.ZeroCoef>
-5.4800

> <Gold.Chemscore.Hbond>
2.3133

> <Gold.Chemscore.Metal>
0.0000

> <Gold.Chemscore.Lipo>
121.9493

> <Gold.Chemscore.Internal_Hbond>
0.0000

> <Gold.Chemscore.DEClash>
0.2460

> <Gold.Chemscore.DEInternal>
2.7421

> <Gold.Chemscore.Rot>
2.5332

> <Gold.Chemscore.Internal.Correction>
   9.000000E+99

> <Gold.Chemscore.Hbonds>
donor molecule, donor type, donor heavy atom, donor atom, acceptor molecule, acceptor atom, score
      L1  H     6    49       P1 10175  0.99
      L1  H    10    37       P1  7957  0.83
      P1  H  7989  7998       L1    10  0.03
      P1  H  8011  8017       L1    10  0.08

> <Gold.Chemscore.Hbond.Weighted>
-7.7265

> <Gold.Chemscore.Metal.Weighted>
-0.0000

> <Gold.Chemscore.Lipo.Weighted>
-14.2681

> <Gold.Chemscore.Internal_Hbond.Weighted>
0.0000

> <Gold.Chemscore.DEClash.Weighted>
0.2460

> <Gold.Chemscore.DEInternal.Weighted>
2.7421

> <Gold.Chemscore.Rot.Weighted>
6.4851

> <Gold.Chemscore.Internal.Correction.Weighted>
   9.000000E+99

> <Gold.Protein.RotatedTorsions>
[ 6907 6896 6895 6894 ] final   75.10 input  -60.11 | X-H torsion
[ 7974 7965 7964 7962 ] final  -54.11 input  175.53 | X-H torsion
[ 8008 7997 7996 7995 ] final   14.10 input   59.86 | X-H torsion
[ 10167 10162 10161 10158 ] final  -56.71 input  -65.29 | X-H torsion
[ 10718 10713 10712 10709 ] final   78.27 input   66.30 | X-H torsion
[ 10763 10752 10751 10750 ] final -131.51 input  -60.55 | X-H torsion
[ 11005 11000 10999 10996 ] final  109.86 input  -57.11 | X-H torsion

> <Gold.Protein.ActiveResidues>
 VAL166  LYS551  ARG553  GLY616  TRP617  ASP618  TYR619  PRO620  LYS621  CYS622 
 ASP623  PHE694  ASN695  SER759  ASP760  ASP761  ALA762  ILE779  LEU786  VAL792 
 PHE793  MET794  SER795  GLU796  ALA797  LYS798  CYS799  TRP800  GLU811  SER814 

> <Gold.Protein.RotatedAtoms>
  152.5009  134.4171  159.9468 H   0  0  0  0  0  0  0  0  0  0  0  0  # atno 6907 bound_to 6896
  151.4142  133.3711  159.2755 H   0  0  0  0  0  0  0  0  0  0  0  0  # atno 6908 bound_to 6896
  150.9269  134.8707  159.7585 H   0  0  0  0  0  0  0  0  0  0  0  0  # atno 6909 bound_to 6896
  145.8893  140.8083  142.9800 H   0  0  0  0  0  0  0  0  0  0  0  0  # atno 7974 bound_to 7965
  154.8437  140.2919  155.5643 H   0  0  0  0  0  0  0  0  0  0  0  0  # atno 8008 bound_to 7997
  156.3013  140.2509  156.3316 H   0  0  0  0  0  0  0  0  0  0  0  0  # atno 8009 bound_to 7997
  154.9097  140.0389  157.1928 H   0  0  0  0  0  0  0  0  0  0  0  0  # atno 8010 bound_to 7997
  140.6301  143.2455  151.5263 H   0  0  0  0  0  0  0  0  0  0  0  0  # atno 10167 bound_to 10162
  157.6739  130.9860  150.1762 H   0  0  0  0  0  0  0  0  0  0  0  0  # atno 10718 bound_to 10713
  154.8750  135.3828  154.4258 H   0  0  0  0  0  0  0  0  0  0  0  0  # atno 10763 bound_to 10752
  153.4957  135.7030  153.5865 H   0  0  0  0  0  0  0  0  0  0  0  0  # atno 10764 bound_to 10752
  153.4219  135.3899  155.2083 H   0  0  0  0  0  0  0  0  0  0  0  0  # atno 10765 bound_to 10752
  139.8870  134.9469  156.6190 H   0  0  0  0  0  0  0  0  0  0  0  0  # atno 11005 bound_to 11000
  144.6730  140.1505  143.7430 LP  0  0  0  0  0  0  0  0  0  0  0  0  # atno 17320 bound_to 7965
  145.8928  139.2385  143.1539 LP  0  0  0  0  0  0  0  0  0  0  0  0  # atno 17321 bound_to 7965
  139.5516  144.2380  152.1541 LP  0  0  0  0  0  0  0  0  0  0  0  0  # atno 17342 bound_to 10162
  140.1622  144.5015  150.6626 LP  0  0  0  0  0  0  0  0  0  0  0  0  # atno 17343 bound_to 10162
  156.2504  130.3700  149.8238 LP  0  0  0  0  0  0  0  0  0  0  0  0  # atno 17370 bound_to 10713
  156.6012  130.8547  151.3432 LP  0  0  0  0  0  0  0  0  0  0  0  0  # atno 17371 bound_to 10713
  140.7754  133.8704  155.8524 LP  0  0  0  0  0  0  0  0  0  0  0  0  # atno 17394 bound_to 11000
  140.9806  134.1410  157.4497 LP  0  0  0  0  0  0  0  0  0  0  0  0  # atno 17395 bound_to 11000

$$$$
