AV-unprocessed.smi:605|AV-procd|sdf|3039|dock10
  -GOLD-   2262023563D 1   1.00000     0.00000
 Structure written by MMmdl.
 35 36  0  0  0  0  0  0  0  0  1 V2000
  142.4837  144.7309  161.5183 C   0  0  0  0  0  0  0  0  0  0  0  0
  143.4092  143.6997  162.1808 C   0  0  0  0  0  0  0  0  0  0  0  0
  143.4193  143.7945  163.7133 C   0  0  0  0  0  0  0  0  0  0  0  0
  144.7909  143.7284  161.6050 C   0  0  0  0  0  0  0  0  0  0  0  0
  145.7125  142.7938  161.8730 N   0  0  0  0  0  0  0  0  0  0  0  0
  146.9122  143.0332  161.2200 N   0  0  0  0  0  0  0  0  0  0  0  0
  146.8684  144.1491  160.4783 C   0  0  0  0  0  0  0  0  0  0  0  0
  147.9473  144.6365  159.6842 N   0  0  0  0  0  0  0  0  0  0  0  0
  149.2840  144.4792  159.7932 C   0  0  0  0  0  0  0  0  0  0  0  0
  149.7671  143.8035  160.7000 O   0  0  0  0  0  0  0  0  0  0  0  0
  150.0315  145.0860  158.8566 N   0  0  0  0  0  0  0  0  0  0  0  0
  151.4889  145.0587  158.7604 C   0  0  0  0  0  0  0  0  0  0  0  0
  151.9723  143.7197  158.1682 C   0  0  0  0  0  0  0  0  0  0  0  0
  153.0070  143.1656  159.1506 C   0  0  0  0  0  0  0  0  0  0  0  0
  152.6050  143.7518  160.5003 C   0  0  0  0  0  0  0  0  0  0  0  0
  152.1188  145.1601  160.1608 C   0  0  0  0  0  0  0  0  0  0  0  0
  145.3295  144.9938  160.5062 S   0  0  0  0  0  0  0  0  0  0  0  0
  142.4303  144.5750  160.4405 H   0  0  0  0  0  0  0  0  0  0  0  0
  142.8350  145.7487  161.6912 H   0  0  0  0  0  0  0  0  0  0  0  0
  141.4698  144.6596  161.9128 H   0  0  0  0  0  0  0  0  0  0  0  0
  142.9962  142.7198  161.9384 H   0  0  0  0  0  0  0  0  0  0  0  0
  144.0159  142.9938  164.1515 H   0  0  0  0  0  0  0  0  0  0  0  0
  142.4102  143.7133  164.1180 H   0  0  0  0  0  0  0  0  0  0  0  0
  143.8368  144.7440  164.0498 H   0  0  0  0  0  0  0  0  0  0  0  0
  147.6586  145.1872  158.8887 H   0  0  0  0  0  0  0  0  0  0  0  0
  149.5459  145.6189  158.1489 H   0  0  0  0  0  0  0  0  0  0  0  0
  151.8565  145.8848  158.1494 H   0  0  0  0  0  0  0  0  0  0  0  0
  151.1452  143.0127  158.0831 H   0  0  0  0  0  0  0  0  0  0  0  0
  152.3913  143.8426  157.1690 H   0  0  0  0  0  0  0  0  0  0  0  0
  153.0370  142.0756  159.1581 H   0  0  0  0  0  0  0  0  0  0  0  0
  154.0006  143.5240  158.8785 H   0  0  0  0  0  0  0  0  0  0  0  0
  151.7847  143.1713  160.9246 H   0  0  0  0  0  0  0  0  0  0  0  0
  153.4235  143.7516  161.2205 H   0  0  0  0  0  0  0  0  0  0  0  0
  152.9761  145.8334  160.1204 H   0  0  0  0  0  0  0  0  0  0  0  0
  151.4379  145.5561  160.9156 H   0  0  0  0  0  0  0  0  0  0  0  0
  1  2  1  0  0  0  0
  1 18  1  0  0  0  0
  1 19  1  0  0  0  0
  1 20  1  0  0  0  0
  2  3  1  0  0  0  0
  2  4  1  0  0  0  0
  2 21  1  0  0  0  0
  3 22  1  0  0  0  0
  3 23  1  0  0  0  0
  3 24  1  0  0  0  0
  4 17  1  0  0  0  0
  4  5  2  0  0  0  0
  5  6  1  0  0  0  0
  6  7  2  0  0  0  0
  7  8  1  0  0  0  0
  7 17  1  0  0  0  0
  8  9  1  0  0  0  0
  8 25  1  0  0  0  0
  9 10  2  0  0  0  0
  9 11  1  0  0  0  0
 11 12  1  0  0  0  0
 11 26  1  0  0  0  0
 12 16  1  0  0  0  0
 12 13  1  0  0  0  0
 12 27  1  0  0  0  0
 13 14  1  0  0  0  0
 13 28  1  0  0  0  0
 13 29  1  0  0  0  0
 14 15  1  0  0  0  0
 14 30  1  0  0  0  0
 14 31  1  0  0  0  0
 15 16  1  0  0  0  0
 15 32  1  0  0  0  0
 15 33  1  0  0  0  0
 16 34  1  0  0  0  0
 16 35  1  0  0  0  0
M  END
> <s_m_source_file>
AV-unprocessed.smi

> <i_m_source_file_index>
605

> <i_lp_mmshare_version>
43012

> <i_f3d_flags>
0

> <s_epik_input>
W0NIM11bQ0hdKFtDSDNdKWMxbm5jKHMxKVtOSF1DKD1PKVtOSF1bQ0hdMltDSDJdW0NIMl1bQ0gyXVtDSDJdMg==

> <s_epik_cmdline>
J2VwaWtfcHl0aG9uJywgJy1waCcsICc3LjAnLCAnLXRuJywgJzgnLCAnLW1hJywgJzIwMCcsICctbWV0YWxfYmluZGluZycsICctaW1hZScsICc8aW5maWxlLm1hZT4nLCAnLW9tYWUnLCAnPG91dGZpbGUubWFlPic=

> <r_lp_tautomer_probability>
1

> <r_epik_Ionization_Penalty>
0.000375049

> <r_epik_Ionization_Penalty_Charging>
0

> <r_epik_Ionization_Penalty_Neutral>
0.000375049

> <r_epik_State_Penalty>
-0

> <r_epik_Charging_Adjusted_Penalty>
0

> <i_epik_Tot_Q>
0

> <i_epik_Tot_abs_Q>
0

> <r_epik_Metal_State_Penalty>
0.186879

> <b_epik_Metal_Only>
0

> <s_lp_Force_Field>
OPLS_2005

> <r_lp_Energy>
14.8416

> <b_lp_Chiralities_Consistent>
1

> <s_lp_Variant>
AV-unprocessed.smi:605-1

> <Gold.Version>
5.8.1

> <Gold.Id.Protein>
6NUR|6NUR_protein|mol2

> <Gold.PLP.Fitness>
45.4663

> <Gold.PLP.PLP>
-37.1086

> <Gold.PLP.part.hbond>
-5.0519

> <Gold.PLP.part.metal>
0.0000

> <Gold.PLP.part.buried>
-5.9751

> <Gold.PLP.part.nonpolar>
-27.9299

> <Gold.PLP.part.repulsive>
0.5611

> <Gold.PLP.ligand.clash>
0.0000

> <Gold.PLP.ligand.torsion>
0.5034

> <Gold.PLP.Chemscore.Hbond>
3.0949

> <Gold.PLP.Chemscore.CHOScore>
0.0000

> <Gold.PLP.Chemscore.Metal>
0.0000

> <Gold.Chemscore.Hbonds>
donor molecule, donor type, donor heavy atom, donor atom, acceptor molecule, acceptor atom, score
      L1  H     8    25       P1  8029  1.00
      L1  H    11    26       P1  8029  0.96
      P1  H  6933  6944       L1     6  0.99
      P1  H  6934  6946       L1     6  0.13

> <Gold.PLP.Chemscore.Internal.Correction>
0.0800

> <Gold.Rescore>
     Score         DG    S(hbond)    S(metal)    S(lipo)     H(rot)  DE(clash)    DE(int)     intcor
     16.47     -21.25       2.21        0.00      98.01       1.20       0.48       4.30       ----

> <Gold.Chemscore.Fitness>
16.4683

> <Gold.Chemscore.DG>
-21.2516

> <Gold.Chemscore.ZeroCoef>
-5.4800

> <Gold.Chemscore.Hbond>
2.2062

> <Gold.Chemscore.Metal>
0.0000

> <Gold.Chemscore.Lipo>
98.0143

> <Gold.Chemscore.Internal_Hbond>
0.0000

> <Gold.Chemscore.DEClash>
0.4813

> <Gold.Chemscore.DEInternal>
4.3020

> <Gold.Chemscore.Rot>
1.1971

> <Gold.Chemscore.Internal.Correction>
   9.000000E+99

> <Gold.Chemscore.Hbonds>
donor molecule, donor type, donor heavy atom, donor atom, acceptor molecule, acceptor atom, score
      L1  H     8    25       P1  8029  0.98
      L1  H    11    26       P1  8029  0.51
      P1  H  6933  6944       L1     6  0.87

> <Gold.Chemscore.Hbond.Weighted>
-7.3686

> <Gold.Chemscore.Metal.Weighted>
-0.0000

> <Gold.Chemscore.Lipo.Weighted>
-11.4677

> <Gold.Chemscore.Internal_Hbond.Weighted>
0.0000

> <Gold.Chemscore.DEClash.Weighted>
0.4813

> <Gold.Chemscore.DEInternal.Weighted>
4.3020

> <Gold.Chemscore.Rot.Weighted>
3.0647

> <Gold.Chemscore.Internal.Correction.Weighted>
   9.000000E+99

> <Gold.Protein.RotatedTorsions>
[ 6907 6896 6895 6894 ] final    3.86 input  -60.11 | X-H torsion
[ 7974 7965 7964 7962 ] final  -94.41 input  175.53 | X-H torsion
[ 8008 7997 7996 7995 ] final -146.46 input   59.86 | X-H torsion
[ 10167 10162 10161 10158 ] final -121.59 input  -65.29 | X-H torsion
[ 10718 10713 10712 10709 ] final -152.55 input   66.30 | X-H torsion
[ 10763 10752 10751 10750 ] final  116.16 input  -60.55 | X-H torsion
[ 11005 11000 10999 10996 ] final -167.33 input  -57.11 | X-H torsion

> <Gold.Protein.ActiveResidues>
 VAL166  LYS551  ARG553  GLY616  TRP617  ASP618  TYR619  PRO620  LYS621  CYS622 
 ASP623  PHE694  ASN695  SER759  ASP760  ASP761  ALA762  ILE779  LEU786  VAL792 
 PHE793  MET794  SER795  GLU796  ALA797  LYS798  CYS799  TRP800  GLU811  SER814 

> <Gold.Protein.RotatedAtoms>
  151.6319  135.1022  160.0123 H   0  0  0  0  0  0  0  0  0  0  0  0  # atno 6907 bound_to 6896
  152.4101  133.6946  159.6399 H   0  0  0  0  0  0  0  0  0  0  0  0  # atno 6908 bound_to 6896
  150.7992  133.8556  159.3258 H   0  0  0  0  0  0  0  0  0  0  0  0  # atno 6909 bound_to 6896
  145.3736  140.9508  143.2433 H   0  0  0  0  0  0  0  0  0  0  0  0  # atno 7974 bound_to 7965
  155.5598  140.0624  157.2831 H   0  0  0  0  0  0  0  0  0  0  0  0  # atno 8008 bound_to 7997
  154.4394  140.1887  156.0816 H   0  0  0  0  0  0  0  0  0  0  0  0  # atno 8009 bound_to 7997
  156.0455  140.3290  155.7295 H   0  0  0  0  0  0  0  0  0  0  0  0  # atno 8010 bound_to 7997
  140.0234  143.5321  152.2210 H   0  0  0  0  0  0  0  0  0  0  0  0  # atno 10167 bound_to 10162
  156.4739  130.8271  151.2500 H   0  0  0  0  0  0  0  0  0  0  0  0  # atno 10718 bound_to 10713
  153.5331  135.3574  155.2685 H   0  0  0  0  0  0  0  0  0  0  0  0  # atno 10763 bound_to 10752
  154.8725  135.4073  154.3129 H   0  0  0  0  0  0  0  0  0  0  0  0  # atno 10764 bound_to 10752
  153.3821  135.7068  153.6625 H   0  0  0  0  0  0  0  0  0  0  0  0  # atno 10765 bound_to 10752
  140.5545  134.5395  157.5130 H   0  0  0  0  0  0  0  0  0  0  0  0  # atno 11005 bound_to 11000
  144.8558  139.5252  143.6835 LP  0  0  0  0  0  0  0  0  0  0  0  0  # atno 17320 bound_to 7965
  146.2874  139.7042  142.9186 LP  0  0  0  0  0  0  0  0  0  0  0  0  # atno 17321 bound_to 7965
  139.6124  144.7612  151.2922 LP  0  0  0  0  0  0  0  0  0  0  0  0  # atno 17342 bound_to 10162
  140.7333  143.6799  150.8009 LP  0  0  0  0  0  0  0  0  0  0  0  0  # atno 17343 bound_to 10162
  157.7489  131.0067  150.3161 LP  0  0  0  0  0  0  0  0  0  0  0  0  # atno 17370 bound_to 10713
  156.3590  130.3843  149.7267 LP  0  0  0  0  0  0  0  0  0  0  0  0  # atno 17371 bound_to 10713
  139.9438  134.7738  156.0611 LP  0  0  0  0  0  0  0  0  0  0  0  0  # atno 17394 bound_to 11000
  141.1152  133.6630  156.3075 LP  0  0  0  0  0  0  0  0  0  0  0  0  # atno 17395 bound_to 11000

$$$$
