AV-unprocessed.smi:3102|AV-procd|sdf|11812|dock9
  -GOLD-   2272017183D 1   1.00000     0.00000
 Structure written by MMmdl.
 31 32  0  0  0  0  0  0  0  0  1 V2000
  153.1178  141.7774  160.1437 C   0  0  0  0  0  0  0  0  0  0  0  0
  153.3218  140.8230  159.1075 O   0  0  0  0  0  0  0  0  0  0  0  0
  152.4211  140.7883  158.0628 C   0  0  0  0  0  0  0  0  0  0  0  0
  151.3448  141.6955  158.0694 C   0  0  0  0  0  0  0  0  0  0  0  0
  150.4223  141.6617  157.0074 C   0  0  0  0  0  0  0  0  0  0  0  0
  150.5980  140.7201  155.9658 C   0  0  0  0  0  0  0  0  0  0  0  0
  149.7200  140.6233  154.8731 N   0  0  0  0  0  0  0  0  0  0  0  0
  148.6523  141.5928  154.6631 C   0  0  2  0  0  0  0  0  0  0  0  0
  147.6668  141.6725  155.8131 C   0  0  0  0  0  0  0  0  0  0  0  0
  146.4573  142.3108  155.1371 C   0  0  0  0  0  0  0  0  0  0  0  0
  146.4909  141.8697  153.7819 O   0  0  0  0  0  0  0  0  0  0  0  0
  147.7229  141.2056  153.5147 C   0  0  0  0  0  0  0  0  0  0  0  0
  151.7164  139.8543  156.0501 C   0  0  0  0  0  0  0  0  0  0  0  0
  151.9941  138.8117  154.9809 C   0  0  0  0  0  0  0  0  0  0  0  0
  152.6030  139.8848  157.0695 N   0  0  0  0  0  0  0  0  0  0  0  0
  153.9095  141.6784  160.8862 H   0  0  0  0  0  0  0  0  0  0  0  0
  152.1659  141.6175  160.6521 H   0  0  0  0  0  0  0  0  0  0  0  0
  153.1513  142.7975  159.7586 H   0  0  0  0  0  0  0  0  0  0  0  0
  151.2283  142.4051  158.8750 H   0  0  0  0  0  0  0  0  0  0  0  0
  149.5986  142.3591  157.0106 H   0  0  0  0  0  0  0  0  0  0  0  0
  149.6495  139.7389  154.3903 H   0  0  0  0  0  0  0  0  0  0  0  0
  149.0677  142.5794  154.4545 H   0  0  0  0  0  0  0  0  0  0  0  0
  147.4090  140.6729  156.1671 H   0  0  0  0  0  0  0  0  0  0  0  0
  148.0315  142.2512  156.6618 H   0  0  0  0  0  0  0  0  0  0  0  0
  145.5193  142.0397  155.6219 H   0  0  0  0  0  0  0  0  0  0  0  0
  146.5439  143.3978  155.1498 H   0  0  0  0  0  0  0  0  0  0  0  0
  148.1241  141.4813  152.5391 H   0  0  0  0  0  0  0  0  0  0  0  0
  147.5341  140.1308  153.5115 H   0  0  0  0  0  0  0  0  0  0  0  0
  151.1588  138.1149  154.9042 H   0  0  0  0  0  0  0  0  0  0  0  0
  152.8929  138.2358  155.2055 H   0  0  0  0  0  0  0  0  0  0  0  0
  152.1354  139.2903  154.0115 H   0  0  0  0  0  0  0  0  0  0  0  0
  1  2  1  0  0  0  0
  1 16  1  0  0  0  0
  1 17  1  0  0  0  0
  1 18  1  0  0  0  0
  2  3  1  0  0  0  0
  3 15  1  0  0  0  0
  3  4  2  0  0  0  0
  4  5  1  0  0  0  0
  4 19  1  0  0  0  0
  5  6  2  0  0  0  0
  5 20  1  0  0  0  0
  6  7  1  0  0  0  0
  6 13  1  0  0  0  0
  7  8  1  0  0  0  0
  7 21  1  0  0  0  0
  8 12  1  0  0  0  0
  8  9  1  0  0  0  0
  8 22  1  0  0  0  0
  9 10  1  0  0  0  0
  9 23  1  0  0  0  0
  9 24  1  0  0  0  0
 10 11  1  0  0  0  0
 10 25  1  0  0  0  0
 10 26  1  0  0  0  0
 11 12  1  0  0  0  0
 12 27  1  0  0  0  0
 12 28  1  0  0  0  0
 13 14  1  0  0  0  0
 13 15  2  0  0  0  0
 14 29  1  0  0  0  0
 14 30  1  0  0  0  0
 14 31  1  0  0  0  0
M  END
> <s_m_source_file>
AV-unprocessed.smi

> <i_m_source_file_index>
3102

> <i_lp_mmshare_version>
43012

> <i_f3d_flags>
0

> <s_epik_input>
W0NIM11PYzFbY0hdW2NIXWMoYyhuMSlbQ0gzXSlbTkhdW0NAQEhdMltDSDJdW0NIMl1PW0NIMl0y

> <s_epik_cmdline>
J2VwaWtfcHl0aG9uJywgJy1waCcsICc3LjAnLCAnLXRuJywgJzgnLCAnLW1hJywgJzIwMCcsICctbWV0YWxfYmluZGluZycsICctaW1hZScsICc8aW5maWxlLm1hZT4nLCAnLW9tYWUnLCAnPG91dGZpbGUubWFlPic=

> <r_lp_tautomer_probability>
1

> <r_epik_Ionization_Penalty>
0.00117248

> <r_epik_Ionization_Penalty_Charging>
0

> <r_epik_Ionization_Penalty_Neutral>
0.00117248

> <r_epik_State_Penalty>
0.000742146

> <r_epik_Charging_Adjusted_Penalty>
0.000742146

> <i_epik_Tot_Q>
0

> <i_epik_Tot_abs_Q>
0

> <r_epik_Metal_State_Penalty>
-0

> <b_epik_Metal_Only>
0

> <s_lp_Force_Field>
OPLS_2005

> <r_lp_Energy>
20.6196

> <b_lp_Chiralities_Consistent>
1

> <s_lp_Variant>
AV-unprocessed.smi:3102-1

> <Gold.Version>
5.8.1

> <Gold.Id.Protein>
6NUR|6NUR_protein|mol2

> <Gold.PLP.Fitness>
31.6931

> <Gold.PLP.PLP>
-29.4678

> <Gold.PLP.part.hbond>
-1.1422

> <Gold.PLP.part.metal>
0.0000

> <Gold.PLP.part.buried>
-3.3488

> <Gold.PLP.part.nonpolar>
-24.5647

> <Gold.PLP.part.repulsive>
0.3556

> <Gold.PLP.ligand.clash>
0.7262

> <Gold.PLP.ligand.torsion>
0.0339

> <Gold.PLP.Chemscore.Hbond>
1.0000

> <Gold.PLP.Chemscore.CHOScore>
0.0000

> <Gold.PLP.Chemscore.Metal>
0.0000

> <Gold.Chemscore.Hbonds>
donor molecule, donor type, donor heavy atom, donor atom, acceptor molecule, acceptor atom, score
      P1  H  7997  8009       L1    15  1.00

> <Gold.PLP.Chemscore.Internal.Correction>
0.0194

> <Gold.Rescore>
     Score         DG    S(hbond)    S(metal)    S(lipo)     H(rot)  DE(clash)    DE(int)     intcor
     12.00     -12.78       0.68        0.00      68.81       1.18       0.01       0.77       ----

> <Gold.Chemscore.Fitness>
11.9956

> <Gold.Chemscore.DG>
-12.7809

> <Gold.Chemscore.ZeroCoef>
-5.4800

> <Gold.Chemscore.Hbond>
0.6837

> <Gold.Chemscore.Metal>
0.0000

> <Gold.Chemscore.Lipo>
68.8051

> <Gold.Chemscore.Internal_Hbond>
0.0000

> <Gold.Chemscore.DEClash>
0.0126

> <Gold.Chemscore.DEInternal>
0.7727

> <Gold.Chemscore.Rot>
1.1847

> <Gold.Chemscore.Internal.Correction>
   9.000000E+99

> <Gold.Chemscore.Hbonds>
donor molecule, donor type, donor heavy atom, donor atom, acceptor molecule, acceptor atom, score
      P1  H  7997  8009       L1    15  0.45

> <Gold.Chemscore.Hbond.Weighted>
-2.2835

> <Gold.Chemscore.Metal.Weighted>
-0.0000

> <Gold.Chemscore.Lipo.Weighted>
-8.0502

> <Gold.Chemscore.Internal_Hbond.Weighted>
0.0000

> <Gold.Chemscore.DEClash.Weighted>
0.0126

> <Gold.Chemscore.DEInternal.Weighted>
0.7727

> <Gold.Chemscore.Rot.Weighted>
3.0328

> <Gold.Chemscore.Internal.Correction.Weighted>
   9.000000E+99

> <Gold.Protein.RotatedTorsions>
[ 6907 6896 6895 6894 ] final  153.72 input  -60.11 | X-H torsion
[ 7974 7965 7964 7962 ] final -174.67 input  175.53 | X-H torsion
[ 8008 7997 7996 7995 ] final -170.17 input   59.86 | X-H torsion
[ 10167 10162 10161 10158 ] final   66.35 input  -65.29 | X-H torsion
[ 10718 10713 10712 10709 ] final  -67.76 input   66.30 | X-H torsion
[ 10763 10752 10751 10750 ] final  115.96 input  -60.55 | X-H torsion
[ 11005 11000 10999 10996 ] final -179.45 input  -57.11 | X-H torsion

> <Gold.Protein.ActiveResidues>
 VAL166  LYS551  ARG553  GLY616  TRP617  ASP618  TYR619  PRO620  LYS621  CYS622 
 ASP623  PHE694  ASN695  SER759  ASP760  ASP761  ALA762  ILE779  LEU786  VAL792 
 PHE793  MET794  SER795  GLU796  ALA797  LYS798  CYS799  TRP800  GLU811  SER814 

> <Gold.Protein.RotatedAtoms>
  152.0687  133.4096  159.4449 H   0  0  0  0  0  0  0  0  0  0  0  0  # atno 6907 bound_to 6896
  150.6864  134.3117  159.4758 H   0  0  0  0  0  0  0  0  0  0  0  0  # atno 6908 bound_to 6896
  152.0946  134.9383  160.0621 H   0  0  0  0  0  0  0  0  0  0  0  0  # atno 6909 bound_to 6896
  144.7131  140.1437  143.6390 H   0  0  0  0  0  0  0  0  0  0  0  0  # atno 7974 bound_to 7965
  155.9148  140.1063  157.1252 H   0  0  0  0  0  0  0  0  0  0  0  0  # atno 8008 bound_to 7997
  154.4045  140.1267  156.4668 H   0  0  0  0  0  0  0  0  0  0  0  0  # atno 8009 bound_to 7997
  155.7267  140.3469  155.5043 H   0  0  0  0  0  0  0  0  0  0  0  0  # atno 8010 bound_to 7997
  140.1014  144.4900  150.7035 H   0  0  0  0  0  0  0  0  0  0  0  0  # atno 10167 bound_to 10162
  156.0540  130.4283  150.1901 H   0  0  0  0  0  0  0  0  0  0  0  0  # atno 10718 bound_to 10713
  153.5300  135.3580  155.2671 H   0  0  0  0  0  0  0  0  0  0  0  0  # atno 10763 bound_to 10752
  154.8727  135.4066  154.3163 H   0  0  0  0  0  0  0  0  0  0  0  0  # atno 10764 bound_to 10752
  153.3849  135.7069  153.6605 H   0  0  0  0  0  0  0  0  0  0  0  0  # atno 10765 bound_to 10752
  140.4185  134.6627  157.4651 H   0  0  0  0  0  0  0  0  0  0  0  0  # atno 11005 bound_to 11000
  145.9179  139.2527  143.1399 LP  0  0  0  0  0  0  0  0  0  0  0  0  # atno 17320 bound_to 7965
  145.9650  140.8805  143.0191 LP  0  0  0  0  0  0  0  0  0  0  0  0  # atno 17321 bound_to 7965
  140.6976  143.2413  151.4957 LP  0  0  0  0  0  0  0  0  0  0  0  0  # atno 17342 bound_to 10162
  139.5669  144.2021  152.1778 LP  0  0  0  0  0  0  0  0  0  0  0  0  # atno 17343 bound_to 10162
  156.9980  130.9914  151.3398 LP  0  0  0  0  0  0  0  0  0  0  0  0  # atno 17370 bound_to 10713
  157.5494  130.8172  149.8126 LP  0  0  0  0  0  0  0  0  0  0  0  0  # atno 17371 bound_to 10713
  140.0217  134.6537  155.9230 LP  0  0  0  0  0  0  0  0  0  0  0  0  # atno 17394 bound_to 11000
  141.1793  133.6544  156.4956 LP  0  0  0  0  0  0  0  0  0  0  0  0  # atno 17395 bound_to 11000

$$$$
