AV-unprocessed.smi:1196|AV-procd|sdf|5001|dock3
  -GOLD-   22720 4 13D 1   1.00000     0.00000
 Structure written by MMmdl.
 36 37  0  0  0  0  0  0  0  0  2 V2000
  154.2851  140.7245  160.8518 C   0  0  0  0  0  0  0  0  0  0  0  0
  153.0573  141.5365  160.4105 C   0  0  1  0  0  0  0  0  0  0  0  0
  153.4518  142.6717  159.4461 C   0  0  0  0  0  0  0  0  0  0  0  0
  152.4881  143.7583  159.4475 N   0  0  0  0  0  0  0  0  0  0  0  0
  151.8004  144.2923  158.3784 C   0  0  0  0  0  0  0  0  0  0  0  0
  151.0136  145.2979  158.8626 C   0  0  0  0  0  0  0  0  0  0  0  0
  151.2943  145.3042  160.2577 C   0  0  0  0  0  0  0  0  0  0  0  0
  152.1758  144.3804  160.6052 N   0  0  0  0  0  0  0  0  0  0  0  0
  152.0793  140.6548  159.7763 N   0  0  0  0  0  0  0  0  0  0  0  0
  152.3218  139.8363  158.7412 C   0  0  0  0  0  0  0  0  0  0  0  0
  153.4229  139.7432  158.1975 O   0  0  0  0  0  0  0  0  0  0  0  0
  151.1371  138.9983  158.2534 C   0  0  0  0  0  0  0  0  0  0  0  0
  151.4603  138.1824  156.9868 C   0  0  0  0  0  0  0  0  0  0  0  0
  151.2293  138.9763  155.6837 C   0  0  2  0  0  0  0  0  0  0  0  0
  149.9128  139.5897  155.6570 N   0  5  0  0  0  0  0  0  0  0  0  0
  149.2464  139.1291  154.5724 C   0  0  0  0  0  0  0  0  0  0  0  0
  148.1113  139.4248  154.2057 O   0  0  0  0  0  0  0  0  0  0  0  0
  149.9965  138.2567  153.8915 N   0  0  0  0  0  0  0  0  0  0  0  0
  151.1826  138.0772  154.4634 C   0  0  0  0  0  0  0  0  0  0  0  0
  152.0872  137.3312  154.0914 O   0  0  0  0  0  0  0  0  0  0  0  0
  155.0210  141.3626  161.3415 H   0  0  0  0  0  0  0  0  0  0  0  0
  154.7720  140.2473  160.0008 H   0  0  0  0  0  0  0  0  0  0  0  0
  154.0090  139.9422  161.5594 H   0  0  0  0  0  0  0  0  0  0  0  0
  152.6117  141.9880  161.2989 H   0  0  0  0  0  0  0  0  0  0  0  0
  154.4189  143.0861  159.7332 H   0  0  0  0  0  0  0  0  0  0  0  0
  153.5665  142.2935  158.4287 H   0  0  0  0  0  0  0  0  0  0  0  0
  151.9285  143.9175  157.3736 H   0  0  0  0  0  0  0  0  0  0  0  0
  150.3414  145.9330  158.3051 H   0  0  0  0  0  0  0  0  0  0  0  0
  150.8858  145.9477  161.0229 H   0  0  0  0  0  0  0  0  0  0  0  0
  151.1473  140.6560  160.1653 H   0  0  0  0  0  0  0  0  0  0  0  0
  150.8314  138.3327  159.0613 H   0  0  0  0  0  0  0  0  0  0  0  0
  150.2903  139.6568  158.0541 H   0  0  0  0  0  0  0  0  0  0  0  0
  152.5047  137.8682  157.0304 H   0  0  0  0  0  0  0  0  0  0  0  0
  150.8700  137.2639  156.9742 H   0  0  0  0  0  0  0  0  0  0  0  0
  152.0304  139.7030  155.5418 H   0  0  0  0  0  0  0  0  0  0  0  0
  149.6937  137.7848  153.0526 H   0  0  0  0  0  0  0  0  0  0  0  0
  1  2  1  0  0  0  0
  1 21  1  0  0  0  0
  1 22  1  0  0  0  0
  1 23  1  0  0  0  0
  2  3  1  0  0  0  0
  2  9  1  0  0  0  0
  2 24  1  0  0  0  0
  3  4  1  0  0  0  0
  3 25  1  0  0  0  0
  3 26  1  0  0  0  0
  4  8  1  0  0  0  0
  4  5  1  0  0  0  0
  5  6  2  0  0  0  0
  5 27  1  0  0  0  0
  6  7  1  0  0  0  0
  6 28  1  0  0  0  0
  7  8  2  0  0  0  0
  7 29  1  0  0  0  0
  9 10  1  0  0  0  0
  9 30  1  0  0  0  0
 10 11  2  0  0  0  0
 10 12  1  0  0  0  0
 12 13  1  0  0  0  0
 12 31  1  0  0  0  0
 12 32  1  0  0  0  0
 13 14  1  0  0  0  0
 13 33  1  0  0  0  0
 13 34  1  0  0  0  0
 14 19  1  0  0  0  0
 14 15  1  0  0  0  0
 14 35  1  0  0  0  0
 15 16  1  0  0  0  0
 16 17  2  0  0  0  0
 16 18  1  0  0  0  0
 18 19  1  0  0  0  0
 18 36  1  0  0  0  0
 19 20  2  0  0  0  0
M  CHG  1  15  -1
M  END
> <s_m_source_file>
AV-unprocessed.smi

> <i_m_source_file_index>
1196

> <i_lp_mmshare_version>
43012

> <i_f3d_flags>
0

> <s_epik_input>
bjFbY0hdW2NIXVtjSF1uMVtDSDJdW0NAQEhdKFtDSDNdKVtOSF1DKD1PKVtDSDJdW0NIMl1bQ0BASF0yW05IXUMoPU8pW05IXUMyPU8=

> <s_epik_cmdline>
J2VwaWtfcHl0aG9uJywgJy1waCcsICc3LjAnLCAnLXRuJywgJzgnLCAnLW1hJywgJzIwMCcsICctbWV0YWxfYmluZGluZycsICctaW1hZScsICc8aW5maWxlLm1hZT4nLCAnLW9tYWUnLCAnPG91dGZpbGUubWFlPic=

> <r_lp_tautomer_probability>
1

> <r_epik_Ionization_Penalty>
5.79547

> <r_epik_Ionization_Penalty_Charging>
5.79516

> <r_epik_Ionization_Penalty_Neutral>
0.000313087

> <r_epik_State_Penalty>
5.80096

> <r_epik_Charging_Adjusted_Penalty>
11.5961

> <i_epik_Tot_Q>
-1

> <i_epik_Tot_abs_Q>
1

> <r_epik_Metal_State_Penalty>
2.14443

> <b_epik_Metal_Only>
1

> <s_lp_Force_Field>
OPLS_2005

> <r_lp_Energy>
12.2353

> <b_lp_Chiralities_Consistent>
1

> <s_lp_Variant>
AV-unprocessed.smi:1196-6

> <Gold.Version>
5.8.1

> <Gold.Id.Protein>
6NUR|6NUR_protein|mol2

> <Gold.PLP.Fitness>
49.2342

> <Gold.PLP.PLP>
-41.8176

> <Gold.PLP.part.hbond>
-3.4049

> <Gold.PLP.part.metal>
0.0000

> <Gold.PLP.part.buried>
-6.9729

> <Gold.PLP.part.nonpolar>
-33.5513

> <Gold.PLP.part.repulsive>
0.9420

> <Gold.PLP.ligand.clash>
0.0000

> <Gold.PLP.ligand.torsion>
0.5689

> <Gold.PLP.Chemscore.Hbond>
2.8233

> <Gold.PLP.Chemscore.CHOScore>
0.0000

> <Gold.PLP.Chemscore.Metal>
0.0000

> <Gold.Chemscore.Hbonds>
donor molecule, donor type, donor heavy atom, donor atom, acceptor molecule, acceptor atom, score
      L1  H    18    36       P1  7948  0.94
      P1  H  7997  8010       L1    11  1.00
      P1  H 10752 10763       L1    20  0.90

> <Gold.PLP.Chemscore.Internal.Correction>
0.0846

> <Gold.Rescore>
     Score         DG    S(hbond)    S(metal)    S(lipo)     H(rot)  DE(clash)    DE(int)     intcor
     14.20     -16.38       2.66        0.00      80.43       2.89       0.26       1.92       ----

> <Gold.Chemscore.Fitness>
14.1996

> <Gold.Chemscore.DG>
-16.3811

> <Gold.Chemscore.ZeroCoef>
-5.4800

> <Gold.Chemscore.Hbond>
2.6650

> <Gold.Chemscore.Metal>
0.0000

> <Gold.Chemscore.Lipo>
80.4296

> <Gold.Chemscore.Internal_Hbond>
0.0000

> <Gold.Chemscore.DEClash>
0.2616

> <Gold.Chemscore.DEInternal>
1.9200

> <Gold.Chemscore.Rot>
2.8946

> <Gold.Chemscore.Internal.Correction>
   9.000000E+99

> <Gold.Chemscore.Hbonds>
donor molecule, donor type, donor heavy atom, donor atom, acceptor molecule, acceptor atom, score
      L1  H    18    36       P1  7948  0.63
      P1  H  7997  8010       L1    11  0.96
      P1  H 10752 10763       L1    20  0.88

> <Gold.Chemscore.Hbond.Weighted>
-8.9010

> <Gold.Chemscore.Metal.Weighted>
-0.0000

> <Gold.Chemscore.Lipo.Weighted>
-9.4103

> <Gold.Chemscore.Internal_Hbond.Weighted>
0.0000

> <Gold.Chemscore.DEClash.Weighted>
0.2616

> <Gold.Chemscore.DEInternal.Weighted>
1.9200

> <Gold.Chemscore.Rot.Weighted>
7.4101

> <Gold.Chemscore.Internal.Correction.Weighted>
   9.000000E+99

> <Gold.Protein.RotatedTorsions>
[ 6907 6896 6895 6894 ] final   16.22 input  -60.11 | X-H torsion
[ 7974 7965 7964 7962 ] final  165.15 input  175.53 | X-H torsion
[ 8008 7997 7996 7995 ] final   17.91 input   59.86 | X-H torsion
[ 10167 10162 10161 10158 ] final  -99.29 input  -65.29 | X-H torsion
[ 10718 10713 10712 10709 ] final -113.33 input   66.30 | X-H torsion
[ 10763 10752 10751 10750 ] final   23.89 input  -60.55 | X-H torsion
[ 11005 11000 10999 10996 ] final -124.82 input  -57.11 | X-H torsion

> <Gold.Protein.ActiveResidues>
 VAL166  LYS551  ARG553  GLY616  TRP617  ASP618  TYR619  PRO620  LYS621  CYS622 
 ASP623  PHE694  ASN695  SER759  ASP760  ASP761  ALA762  ILE779  LEU786  VAL792 
 PHE793  MET794  SER795  GLU796  ALA797  LYS798  CYS799  TRP800  GLU811  SER814 

> <Gold.Protein.RotatedAtoms>
  151.8304  135.0623  160.0435 H   0  0  0  0  0  0  0  0  0  0  0  0  # atno 6907 bound_to 6896
  152.2885  133.5533  159.5550 H   0  0  0  0  0  0  0  0  0  0  0  0  # atno 6908 bound_to 6896
  150.7219  134.0379  159.3798 H   0  0  0  0  0  0  0  0  0  0  0  0  # atno 6909 bound_to 6896
  144.7515  139.8428  143.6364 H   0  0  0  0  0  0  0  0  0  0  0  0  # atno 7974 bound_to 7965
  154.8983  140.2997  155.5332 H   0  0  0  0  0  0  0  0  0  0  0  0  # atno 8008 bound_to 7997
  156.3019  140.2411  156.3943 H   0  0  0  0  0  0  0  0  0  0  0  0  # atno 8009 bound_to 7997
  154.8547  140.0408  157.1616 H   0  0  0  0  0  0  0  0  0  0  0  0  # atno 8010 bound_to 7997
  140.2640  143.3388  152.0598 H   0  0  0  0  0  0  0  0  0  0  0  0  # atno 10167 bound_to 10162
  156.0760  130.5967  150.8628 H   0  0  0  0  0  0  0  0  0  0  0  0  # atno 10718 bound_to 10713
  153.0804  135.6617  154.0057 H   0  0  0  0  0  0  0  0  0  0  0  0  # atno 10763 bound_to 10752
  153.9680  135.2967  155.3430 H   0  0  0  0  0  0  0  0  0  0  0  0  # atno 10764 bound_to 10752
  154.7202  135.5168  153.8872 H   0  0  0  0  0  0  0  0  0  0  0  0  # atno 10765 bound_to 10752
  140.9811  134.0672  157.3764 H   0  0  0  0  0  0  0  0  0  0  0  0  # atno 11005 bound_to 11000
  146.1470  139.4543  143.0072 LP  0  0  0  0  0  0  0  0  0  0  0  0  # atno 17320 bound_to 7965
  145.6929  141.0159  143.1546 LP  0  0  0  0  0  0  0  0  0  0  0  0  # atno 17321 bound_to 7965
  139.5008  144.6700  151.6265 LP  0  0  0  0  0  0  0  0  0  0  0  0  # atno 17342 bound_to 10162
  140.5943  143.9724  150.6344 LP  0  0  0  0  0  0  0  0  0  0  0  0  # atno 17343 bound_to 10162
  157.5855  131.0945  150.9202 LP  0  0  0  0  0  0  0  0  0  0  0  0  # atno 17370 bound_to 10713
  156.9389  130.5377  149.5280 LP  0  0  0  0  0  0  0  0  0  0  0  0  # atno 17371 bound_to 10713
  139.8951  135.0139  156.6983 LP  0  0  0  0  0  0  0  0  0  0  0  0  # atno 17394 bound_to 11000
  140.7185  133.9161  155.8131 LP  0  0  0  0  0  0  0  0  0  0  0  0  # atno 17395 bound_to 11000

$$$$
