AV-unprocessed.smi:1435|AV-procd|sdf|5858|dock3
  -GOLD-   22720 5533D 1   1.00000     0.00000
 Structure written by MMmdl.
 44 45  0  0  0  0  0  0  0  0  2 V2000
  145.9287  137.0227  155.5973 O   0  0  0  0  0  0  0  0  0  0  0  0
  146.8480  137.1377  154.7867 C   0  0  0  0  0  0  0  0  0  0  0  0
  148.0504  138.0258  155.1109 C   0  0  0  0  0  0  0  0  0  0  0  0
  147.6930  139.5226  155.1100 C   0  0  0  0  0  0  0  0  0  0  0  0
  149.1918  140.5847  154.8982 S   0  0  0  0  0  0  0  0  0  0  0  0
  150.3282  139.7159  154.5558 O   0  0  0  0  0  0  0  0  0  0  0  0
  148.8435  141.6968  154.0001 O   0  0  0  0  0  0  0  0  0  0  0  0
  149.4463  141.2470  156.6120 C   0  0  0  0  0  0  0  0  0  0  0  0
  150.7789  141.9959  156.7426 C   0  0  0  0  0  0  0  0  0  0  0  0
  151.8278  140.9436  157.1335 C   0  0  0  0  0  0  0  0  0  0  0  0
  151.0521  139.6930  157.5726 C   0  0  0  0  0  0  0  0  0  0  0  0
  149.5801  140.1089  157.6271 C   0  0  0  0  0  0  0  0  0  0  0  0
  146.8565  136.5320  153.5898 N   0  0  0  0  0  0  0  0  0  0  0  0
  145.7692  135.7184  153.0614 C   0  0  0  0  0  0  0  0  0  0  0  0
  146.2521  134.3011  152.7103 C   0  0  0  0  0  0  0  0  0  0  0  0
  145.2782  133.5723  151.8060 C   0  0  0  0  0  0  0  0  0  0  0  0
  145.6291  132.3378  151.2165 C   0  0  0  0  0  0  0  0  0  0  0  0
  144.7001  131.6819  150.3820 C   0  0  0  0  0  0  0  0  0  0  0  0
  143.4413  132.2756  150.1560 C   0  0  0  0  0  0  0  0  0  0  0  0
  143.1410  133.4575  150.7379 N   0  3  0  0  0  0  0  0  0  0  0  0
  144.0027  134.1170  151.5432 C   0  0  0  0  0  0  0  0  0  0  0  0
  148.4121  137.7428  156.0997 H   0  0  0  0  0  0  0  0  0  0  0  0
  148.8707  137.8322  154.4181 H   0  0  0  0  0  0  0  0  0  0  0  0
  146.9769  139.7598  154.3232 H   0  0  0  0  0  0  0  0  0  0  0  0
  147.2295  139.7912  156.0589 H   0  0  0  0  0  0  0  0  0  0  0  0
  148.5952  141.8870  156.8457 H   0  0  0  0  0  0  0  0  0  0  0  0
  151.0567  142.5385  155.8395 H   0  0  0  0  0  0  0  0  0  0  0  0
  150.6962  142.7313  157.5438 H   0  0  0  0  0  0  0  0  0  0  0  0
  152.4744  140.7070  156.2877 H   0  0  0  0  0  0  0  0  0  0  0  0
  152.4662  141.3169  157.9350 H   0  0  0  0  0  0  0  0  0  0  0  0
  151.1852  138.9012  156.8344 H   0  0  0  0  0  0  0  0  0  0  0  0
  151.4008  139.3052  158.5303 H   0  0  0  0  0  0  0  0  0  0  0  0
  149.3506  140.4880  158.6238 H   0  0  0  0  0  0  0  0  0  0  0  0
  148.9019  139.2777  157.4318 H   0  0  0  0  0  0  0  0  0  0  0  0
  147.6527  136.6820  152.9869 H   0  0  0  0  0  0  0  0  0  0  0  0
  144.9836  135.6690  153.8159 H   0  0  0  0  0  0  0  0  0  0  0  0
  145.3319  136.2034  152.1869 H   0  0  0  0  0  0  0  0  0  0  0  0
  147.2235  134.3428  152.2154 H   0  0  0  0  0  0  0  0  0  0  0  0
  146.3992  133.7189  153.6210 H   0  0  0  0  0  0  0  0  0  0  0  0
  146.5981  131.8971  151.4017 H   0  0  0  0  0  0  0  0  0  0  0  0
  144.9501  130.7368  149.9222 H   0  0  0  0  0  0  0  0  0  0  0  0
  142.6714  131.8442  149.5331 H   0  0  0  0  0  0  0  0  0  0  0  0
  143.6480  135.0531  151.9503 H   0  0  0  0  0  0  0  0  0  0  0  0
  142.2242  133.8694  150.5616 H   0  0  0  0  0  0  0  0  0  0  0  0
  1  2  2  0  0  0  0
  2  3  1  0  0  0  0
  2 13  1  0  0  0  0
  3  4  1  0  0  0  0
  3 22  1  0  0  0  0
  3 23  1  0  0  0  0
  4  5  1  0  0  0  0
  4 24  1  0  0  0  0
  4 25  1  0  0  0  0
  5  6  2  0  0  0  0
  5  7  2  0  0  0  0
  5  8  1  0  0  0  0
  8 12  1  0  0  0  0
  8  9  1  0  0  0  0
  8 26  1  0  0  0  0
  9 10  1  0  0  0  0
  9 27  1  0  0  0  0
  9 28  1  0  0  0  0
 10 11  1  0  0  0  0
 10 29  1  0  0  0  0
 10 30  1  0  0  0  0
 11 12  1  0  0  0  0
 11 31  1  0  0  0  0
 11 32  1  0  0  0  0
 12 33  1  0  0  0  0
 12 34  1  0  0  0  0
 13 14  1  0  0  0  0
 13 35  1  0  0  0  0
 14 15  1  0  0  0  0
 14 36  1  0  0  0  0
 14 37  1  0  0  0  0
 15 16  1  0  0  0  0
 15 38  1  0  0  0  0
 15 39  1  0  0  0  0
 16 21  1  0  0  0  0
 16 17  2  0  0  0  0
 17 18  1  0  0  0  0
 17 40  1  0  0  0  0
 18 19  2  0  0  0  0
 18 41  1  0  0  0  0
 19 20  1  0  0  0  0
 19 42  1  0  0  0  0
 20 21  2  0  0  0  0
 20 44  1  0  0  0  0
 21 43  1  0  0  0  0
M  CHG  1  20   1
M  END
> <s_m_source_file>
AV-unprocessed.smi

> <i_m_source_file_index>
1435

> <i_lp_mmshare_version>
43012

> <i_f3d_flags>
0

> <s_epik_input>
W0NIMl0xW0NIMl1bQ0gyXVtDSDJdW0NIXTFTKD1PKSg9TylbQ0gyXVtDSDJdQyg9TylbTkhdW0NIMl1bQ0gyXWMyW2NIXVtjSF1bY0hdbltjSF0y

> <s_epik_cmdline>
J2VwaWtfcHl0aG9uJywgJy1waCcsICc3LjAnLCAnLXRuJywgJzgnLCAnLW1hJywgJzIwMCcsICctbWV0YWxfYmluZGluZycsICctaW1hZScsICc8aW5maWxlLm1hZT4nLCAnLW9tYWUnLCAnPG91dGZpbGUubWFlPic=

> <r_epik_Ionization_Penalty>
2.2792

> <r_epik_Ionization_Penalty_Charging>
2.2792

> <r_epik_Ionization_Penalty_Neutral>
6.52611e-08

> <r_epik_State_Penalty>
2.42836

> <r_epik_Charging_Adjusted_Penalty>
4.70756

> <i_epik_Tot_Q>
1

> <i_epik_Tot_abs_Q>
1

> <r_epik_Metal_State_Penalty>
2.44099

> <b_epik_Metal_Only>
0

> <s_lp_Force_Field>
OPLS_2005

> <r_lp_Energy>
17.5712

> <b_lp_Chiralities_Consistent>
1

> <s_lp_Variant>
AV-unprocessed.smi:1435-2

> <Gold.Version>
5.8.1

> <Gold.Id.Protein>
6NUR|6NUR_protein|mol2

> <Gold.PLP.Fitness>
45.7220

> <Gold.PLP.PLP>
-33.1510

> <Gold.PLP.part.hbond>
-4.7708

> <Gold.PLP.part.metal>
0.0000

> <Gold.PLP.part.buried>
-4.5671

> <Gold.PLP.part.nonpolar>
-24.4187

> <Gold.PLP.part.repulsive>
0.3754

> <Gold.PLP.ligand.clash>
0.0000

> <Gold.PLP.ligand.torsion>
0.8085

> <Gold.PLP.Chemscore.Hbond>
4.5920

> <Gold.PLP.Chemscore.CHOScore>
0.0000

> <Gold.PLP.Chemscore.Metal>
0.0000

> <Gold.Chemscore.Hbonds>
donor molecule, donor type, donor heavy atom, donor atom, acceptor molecule, acceptor atom, score
      L1  H    13    35       P1  7948  1.00
      L1  H    20    44       P1 10186  2.00
      P1  H  7989  7998       L1     6  0.99
      P1  H  8011  8017       L1     7  0.55

> <Gold.PLP.Chemscore.Internal.Correction>
0.4121

> <Gold.Rescore>
     Score         DG    S(hbond)    S(metal)    S(lipo)     H(rot)  DE(clash)    DE(int)     intcor
     19.28     -20.34       3.31        0.00      79.19       2.14       0.04       1.01       ----

> <Gold.Chemscore.Fitness>
19.2768

> <Gold.Chemscore.DG>
-20.3353

> <Gold.Chemscore.ZeroCoef>
-5.4800

> <Gold.Chemscore.Hbond>
3.3147

> <Gold.Chemscore.Metal>
0.0000

> <Gold.Chemscore.Lipo>
79.1863

> <Gold.Chemscore.Internal_Hbond>
0.0000

> <Gold.Chemscore.DEClash>
0.0440

> <Gold.Chemscore.DEInternal>
1.0145

> <Gold.Chemscore.Rot>
2.1408

> <Gold.Chemscore.Internal.Correction>
   9.000000E+99

> <Gold.Chemscore.Hbonds>
donor molecule, donor type, donor heavy atom, donor atom, acceptor molecule, acceptor atom, score
      L1  H    13    35       P1  7948  0.99
      L1  H    20    44       P1 10186  0.80
      P1  H  7989  7998       L1     6  0.51
      P1  H  8011  8017       L1     7  0.53

> <Gold.Chemscore.Hbond.Weighted>
-11.0710

> <Gold.Chemscore.Metal.Weighted>
-0.0000

> <Gold.Chemscore.Lipo.Weighted>
-9.2648

> <Gold.Chemscore.Internal_Hbond.Weighted>
0.0000

> <Gold.Chemscore.DEClash.Weighted>
0.0440

> <Gold.Chemscore.DEInternal.Weighted>
1.0145

> <Gold.Chemscore.Rot.Weighted>
5.4805

> <Gold.Chemscore.Internal.Correction.Weighted>
   9.000000E+99

> <Gold.Protein.RotatedTorsions>
[ 6907 6896 6895 6894 ] final   64.57 input  -60.11 | X-H torsion
[ 7974 7965 7964 7962 ] final -120.00 input  175.53 | X-H torsion
[ 8008 7997 7996 7995 ] final  179.07 input   59.86 | X-H torsion
[ 10167 10162 10161 10158 ] final  175.51 input  -65.29 | X-H torsion
[ 10718 10713 10712 10709 ] final    0.00 input   66.30 | X-H torsion
[ 10763 10752 10751 10750 ] final  -49.09 input  -60.55 | X-H torsion
[ 11005 11000 10999 10996 ] final  113.65 input  -57.11 | X-H torsion

> <Gold.Protein.ActiveResidues>
 VAL166  LYS551  ARG553  GLY616  TRP617  ASP618  TYR619  PRO620  LYS621  CYS622 
 ASP623  PHE694  ASN695  SER759  ASP760  ASP761  ALA762  ILE779  LEU786  VAL792 
 PHE793  MET794  SER795  GLU796  ALA797  LYS798  CYS799  TRP800  GLU811  SER814 

> <Gold.Protein.RotatedAtoms>
  152.4342  134.5719  159.9923 H   0  0  0  0  0  0  0  0  0  0  0  0  # atno 6907 bound_to 6896
  151.5834  133.3369  159.3021 H   0  0  0  0  0  0  0  0  0  0  0  0  # atno 6908 bound_to 6896
  150.8238  134.7494  159.6860 H   0  0  0  0  0  0  0  0  0  0  0  0  # atno 6909 bound_to 6896
  145.0563  140.8256  143.4179 H   0  0  0  0  0  0  0  0  0  0  0  0  # atno 7974 bound_to 7965
  156.0476  140.1318  157.0086 H   0  0  0  0  0  0  0  0  0  0  0  0  # atno 8008 bound_to 7997
  154.4419  140.1017  156.6399 H   0  0  0  0  0  0  0  0  0  0  0  0  # atno 8009 bound_to 7997
  155.5573  140.3464  155.4485 H   0  0  0  0  0  0  0  0  0  0  0  0  # atno 8010 bound_to 7997
  139.5180  144.3023  152.0367 H   0  0  0  0  0  0  0  0  0  0  0  0  # atno 10167 bound_to 10162
  156.8269  130.5475  149.5691 H   0  0  0  0  0  0  0  0  0  0  0  0  # atno 10718 bound_to 10713
  154.0883  135.6581  153.4848 H   0  0  0  0  0  0  0  0  0  0  0  0  # atno 10763 bound_to 10752
  153.0331  135.5196  154.7405 H   0  0  0  0  0  0  0  0  0  0  0  0  # atno 10764 bound_to 10752
  154.6521  135.3003  154.9942 H   0  0  0  0  0  0  0  0  0  0  0  0  # atno 10765 bound_to 10752
  139.8958  134.9553  156.6771 H   0  0  0  0  0  0  0  0  0  0  0  0  # atno 11005 bound_to 11000
  145.1464  139.2540  143.5463 LP  0  0  0  0  0  0  0  0  0  0  0  0  # atno 17320 bound_to 7965
  146.3521  140.1156  142.8602 LP  0  0  0  0  0  0  0  0  0  0  0  0  # atno 17321 bound_to 7965
  140.2470  144.4209  150.6237 LP  0  0  0  0  0  0  0  0  0  0  0  0  # atno 17342 bound_to 10162
  140.6251  143.2180  151.6613 LP  0  0  0  0  0  0  0  0  0  0  0  0  # atno 17343 bound_to 10162
  156.0956  130.5930  150.9808 LP  0  0  0  0  0  0  0  0  0  0  0  0  # atno 17370 bound_to 10713
  157.6427  131.0908  150.8218 LP  0  0  0  0  0  0  0  0  0  0  0  0  # atno 17371 bound_to 10713
  140.7328  133.9044  155.8223 LP  0  0  0  0  0  0  0  0  0  0  0  0  # atno 17394 bound_to 11000
  141.0139  134.0982  157.4192 LP  0  0  0  0  0  0  0  0  0  0  0  0  # atno 17395 bound_to 11000

$$$$
