AV-unprocessed.smi:1562|AV-procd|sdf|6288|dock9
  -GOLD-   22720 6483D 1   1.00000     0.00000
 Structure written by MMmdl.
 41 42  0  0  0  0  0  0  0  0  2 V2000
  149.5681  141.9978  156.1936 N   0  0  0  0  0  0  0  0  0  0  0  0
  149.8071  140.9909  155.3498 C   0  0  0  0  0  0  0  0  0  0  0  0
  149.6735  141.1129  154.1335 O   0  0  0  0  0  0  0  0  0  0  0  0
  150.2615  139.6586  155.9603 C   0  0  0  0  0  0  0  0  0  0  0  0
  150.1736  139.6954  157.5051 C   0  0  0  0  0  0  0  0  0  0  0  0
  150.7657  138.4173  158.1263 C   0  0  0  0  0  0  0  0  0  0  0  0
  152.1570  138.2718  157.6664 N   0  0  0  0  0  0  0  0  0  0  0  0
  153.2714  138.5521  158.3885 C   0  0  0  0  0  0  0  0  0  0  0  0
  154.3849  138.7019  157.8833 O   0  0  0  0  0  0  0  0  0  0  0  0
  153.0796  138.6172  159.7160 N   0  0  0  0  0  0  0  0  0  0  0  0
  154.1244  138.9036  160.6891 C   0  0  0  0  0  0  0  0  0  0  0  0
  154.8365  140.2201  160.3495 C   0  0  0  0  0  0  0  0  0  0  0  0
  154.1033  141.4267  160.9029 C   0  0  0  0  0  0  0  0  0  0  0  0
  153.3573  142.2963  160.0780 C   0  0  0  0  0  0  0  0  0  0  0  0
  152.7034  143.4038  160.6574 C   0  0  0  0  0  0  0  0  0  0  0  0
  152.8109  143.6193  162.0471 C   0  0  0  0  0  0  0  0  0  0  0  0
  153.5700  142.7202  162.8234 C   0  0  0  0  0  0  0  0  0  0  0  0
  154.1804  141.6698  162.2315 N   0  3  0  0  0  0  0  0  0  0  0  0
  152.2114  138.0411  156.2181 C   0  0  0  0  0  0  0  0  0  0  0  0
  151.6928  139.2982  155.4963 C   0  0  0  0  0  0  0  0  0  0  0  0
  149.2653  142.8909  155.8325 H   0  0  0  0  0  0  0  0  0  0  0  0
  149.6883  141.8639  157.1869 H   0  0  0  0  0  0  0  0  0  0  0  0
  149.5914  138.8711  155.6100 H   0  0  0  0  0  0  0  0  0  0  0  0
  150.7090  140.5620  157.8970 H   0  0  0  0  0  0  0  0  0  0  0  0
  149.1347  139.8076  157.8173 H   0  0  0  0  0  0  0  0  0  0  0  0
  150.6586  138.4496  159.2104 H   0  0  0  0  0  0  0  0  0  0  0  0
  150.1892  137.5480  157.8067 H   0  0  0  0  0  0  0  0  0  0  0  0
  152.1448  138.4712  160.0687 H   0  0  0  0  0  0  0  0  0  0  0  0
  153.6904  138.9616  161.6889 H   0  0  0  0  0  0  0  0  0  0  0  0
  154.8391  138.0792  160.6942 H   0  0  0  0  0  0  0  0  0  0  0  0
  155.8531  140.2075  160.7453 H   0  0  0  0  0  0  0  0  0  0  0  0
  154.9286  140.3293  159.2679 H   0  0  0  0  0  0  0  0  0  0  0  0
  153.2867  142.1197  159.0144 H   0  0  0  0  0  0  0  0  0  0  0  0
  152.1275  144.0805  160.0430 H   0  0  0  0  0  0  0  0  0  0  0  0
  152.3186  144.4621  162.5100 H   0  0  0  0  0  0  0  0  0  0  0  0
  153.7075  142.8086  163.8914 H   0  0  0  0  0  0  0  0  0  0  0  0
  153.2155  137.7954  155.8696 H   0  0  0  0  0  0  0  0  0  0  0  0
  151.5930  137.1792  155.9639 H   0  0  0  0  0  0  0  0  0  0  0  0
  151.7060  139.1331  154.4182 H   0  0  0  0  0  0  0  0  0  0  0  0
  152.3758  140.1276  155.6891 H   0  0  0  0  0  0  0  0  0  0  0  0
  154.7264  141.0332  162.8128 H   0  0  0  0  0  0  0  0  0  0  0  0
  1  2  1  0  0  0  0
  1 21  1  0  0  0  0
  1 22  1  0  0  0  0
  2  3  2  0  0  0  0
  2  4  1  0  0  0  0
  4 20  1  0  0  0  0
  4  5  1  0  0  0  0
  4 23  1  0  0  0  0
  5  6  1  0  0  0  0
  5 24  1  0  0  0  0
  5 25  1  0  0  0  0
  6  7  1  0  0  0  0
  6 26  1  0  0  0  0
  6 27  1  0  0  0  0
  7  8  1  0  0  0  0
  7 19  1  0  0  0  0
  8  9  2  0  0  0  0
  8 10  1  0  0  0  0
 10 11  1  0  0  0  0
 10 28  1  0  0  0  0
 11 12  1  0  0  0  0
 11 29  1  0  0  0  0
 11 30  1  0  0  0  0
 12 13  1  0  0  0  0
 12 31  1  0  0  0  0
 12 32  1  0  0  0  0
 13 18  1  0  0  0  0
 13 14  2  0  0  0  0
 14 15  1  0  0  0  0
 14 33  1  0  0  0  0
 15 16  2  0  0  0  0
 15 34  1  0  0  0  0
 16 17  1  0  0  0  0
 16 35  1  0  0  0  0
 17 18  2  0  0  0  0
 17 36  1  0  0  0  0
 18 41  1  0  0  0  0
 19 20  1  0  0  0  0
 19 37  1  0  0  0  0
 19 38  1  0  0  0  0
 20 39  1  0  0  0  0
 20 40  1  0  0  0  0
M  CHG  1  18   1
M  END
> <s_m_source_file>
AV-unprocessed.smi

> <i_m_source_file_index>
1562

> <i_lp_mmshare_version>
43012

> <i_f3d_flags>
0

> <s_epik_input>
W05IMl1DKD1PKVtDSF0xW0NIMl1bQ0gyXU4oW0NIMl1bQ0gyXTEpQyg9TylbTkhdW0NIMl1bQ0gyXWMyW2NIXVtjSF1bY0hdW2NIXW4y

> <s_epik_cmdline>
J2VwaWtfcHl0aG9uJywgJy1waCcsICc3LjAnLCAnLXRuJywgJzgnLCAnLW1hJywgJzIwMCcsICctbWV0YWxfYmluZGluZycsICctaW1hZScsICc8aW5maWxlLm1hZT4nLCAnLW9tYWUnLCAnPG91dGZpbGUubWFlPic=

> <r_epik_Ionization_Penalty>
1.55599

> <r_epik_Ionization_Penalty_Charging>
1.55593

> <r_epik_Ionization_Penalty_Neutral>
5.20779e-05

> <r_epik_State_Penalty>
1.65054

> <r_epik_Charging_Adjusted_Penalty>
3.20648

> <i_epik_Tot_Q>
1

> <i_epik_Tot_abs_Q>
1

> <r_epik_Metal_State_Penalty>
1.69236

> <b_epik_Metal_Only>
0

> <s_lp_Force_Field>
OPLS_2005

> <r_lp_Energy>
33.1399

> <b_lp_Chiralities_Consistent>
1

> <s_lp_Variant>
AV-unprocessed.smi:1562-2

> <Gold.Version>
5.8.1

> <Gold.Id.Protein>
6NUR|6NUR_protein|mol2

> <Gold.PLP.Fitness>
47.6110

> <Gold.PLP.PLP>
-40.1094

> <Gold.PLP.part.hbond>
-4.1936

> <Gold.PLP.part.metal>
0.0000

> <Gold.PLP.part.buried>
-5.5268

> <Gold.PLP.part.nonpolar>
-31.5778

> <Gold.PLP.part.repulsive>
1.6740

> <Gold.PLP.ligand.clash>
1.1548

> <Gold.PLP.ligand.torsion>
0.4709

> <Gold.PLP.Chemscore.Hbond>
3.1736

> <Gold.PLP.Chemscore.CHOScore>
0.0000

> <Gold.PLP.Chemscore.Metal>
0.0000

> <Gold.Chemscore.Hbonds>
donor molecule, donor type, donor heavy atom, donor atom, acceptor molecule, acceptor atom, score
      L1  H     1    21       P1  8028  1.00
      P1  H  7989  7998       L1     3  0.41
      P1  H  7997  8010       L1     9  0.98
      P1  H  8011  8017       L1     3  0.41

> <Gold.PLP.Chemscore.Internal.Correction>
0.0774

> <Gold.Rescore>
     Score         DG    S(hbond)    S(metal)    S(lipo)     H(rot)  DE(clash)    DE(int)     intcor
     18.75     -21.38       2.90        0.00      97.58       2.03       1.04       1.59       ----

> <Gold.Chemscore.Fitness>
18.7480

> <Gold.Chemscore.DG>
-21.3812

> <Gold.Chemscore.ZeroCoef>
-5.4800

> <Gold.Chemscore.Hbond>
2.9016

> <Gold.Chemscore.Metal>
0.0000

> <Gold.Chemscore.Lipo>
97.5786

> <Gold.Chemscore.Internal_Hbond>
0.0000

> <Gold.Chemscore.DEClash>
1.0436

> <Gold.Chemscore.DEInternal>
1.5896

> <Gold.Chemscore.Rot>
2.0339

> <Gold.Chemscore.Internal.Correction>
   9.000000E+99

> <Gold.Chemscore.Hbonds>
donor molecule, donor type, donor heavy atom, donor atom, acceptor molecule, acceptor atom, score
      L1  H     1    21       P1  8028  1.00
      P1  H  7989  7998       L1     3  0.14
      P1  H  7997  8010       L1     9  0.88
      P1  H  8011  8017       L1     3  0.40

> <Gold.Chemscore.Hbond.Weighted>
-9.6913

> <Gold.Chemscore.Metal.Weighted>
-0.0000

> <Gold.Chemscore.Lipo.Weighted>
-11.4167

> <Gold.Chemscore.Internal_Hbond.Weighted>
0.0000

> <Gold.Chemscore.DEClash.Weighted>
1.0436

> <Gold.Chemscore.DEInternal.Weighted>
1.5896

> <Gold.Chemscore.Rot.Weighted>
5.2069

> <Gold.Chemscore.Internal.Correction.Weighted>
   9.000000E+99

> <Gold.Protein.RotatedTorsions>
[ 6907 6896 6895 6894 ] final  145.42 input  -60.11 | X-H torsion
[ 7974 7965 7964 7962 ] final  135.46 input  175.53 | X-H torsion
[ 8008 7997 7996 7995 ] final   17.99 input   59.86 | X-H torsion
[ 10167 10162 10161 10158 ] final  118.98 input  -65.29 | X-H torsion
[ 10718 10713 10712 10709 ] final   -2.54 input   66.30 | X-H torsion
[ 10763 10752 10751 10750 ] final  -10.11 input  -60.55 | X-H torsion
[ 11005 11000 10999 10996 ] final   29.15 input  -57.11 | X-H torsion

> <Gold.Protein.ActiveResidues>
 VAL166  LYS551  ARG553  GLY616  TRP617  ASP618  TYR619  PRO620  LYS621  CYS622 
 ASP623  PHE694  ASN695  SER759  ASP760  ASP761  ALA762  ILE779  LEU786  VAL792 
 PHE793  MET794  SER795  GLU796  ALA797  LYS798  CYS799  TRP800  GLU811  SER814 

> <Gold.Protein.RotatedAtoms>
  152.1811  133.4708  159.4958 H   0  0  0  0  0  0  0  0  0  0  0  0  # atno 6907 bound_to 6896
  150.6935  134.1832  159.4265 H   0  0  0  0  0  0  0  0  0  0  0  0  # atno 6908 bound_to 6896
  151.9743  135.0060  160.0605 H   0  0  0  0  0  0  0  0  0  0  0  0  # atno 6909 bound_to 6896
  144.9661  139.4657  143.5456 H   0  0  0  0  0  0  0  0  0  0  0  0  # atno 7974 bound_to 7965
  154.8994  140.2998  155.5326 H   0  0  0  0  0  0  0  0  0  0  0  0  # atno 8008 bound_to 7997
  156.3019  140.2409  156.3955 H   0  0  0  0  0  0  0  0  0  0  0  0  # atno 8009 bound_to 7997
  154.8536  140.0408  157.1609 H   0  0  0  0  0  0  0  0  0  0  0  0  # atno 8010 bound_to 7997
  139.6076  144.7074  151.2918 H   0  0  0  0  0  0  0  0  0  0  0  0  # atno 10167 bound_to 10162
  156.7893  130.5356  149.5738 H   0  0  0  0  0  0  0  0  0  0  0  0  # atno 10718 bound_to 10713
  153.4645  135.7016  153.6030 H   0  0  0  0  0  0  0  0  0  0  0  0  # atno 10763 bound_to 10752
  153.4310  135.3802  155.2171 H   0  0  0  0  0  0  0  0  0  0  0  0  # atno 10764 bound_to 10752
  154.8726  135.3951  154.4075 H   0  0  0  0  0  0  0  0  0  0  0  0  # atno 10765 bound_to 10752
  140.3080  134.2682  155.7740 H   0  0  0  0  0  0  0  0  0  0  0  0  # atno 11005 bound_to 11000
  146.3368  139.8842  142.8819 LP  0  0  0  0  0  0  0  0  0  0  0  0  # atno 17320 bound_to 7965
  145.2628  141.0083  143.3816 LP  0  0  0  0  0  0  0  0  0  0  0  0  # atno 17321 bound_to 7965
  140.7296  143.6903  150.7927 LP  0  0  0  0  0  0  0  0  0  0  0  0  # atno 17342 bound_to 10162
  140.0492  143.5267  152.2682 LP  0  0  0  0  0  0  0  0  0  0  0  0  # atno 17343 bound_to 10162
  156.1169  130.6081  151.0134 LP  0  0  0  0  0  0  0  0  0  0  0  0  # atno 17370 bound_to 10713
  157.6608  131.0881  150.7842 LP  0  0  0  0  0  0  0  0  0  0  0  0  # atno 17371 bound_to 10713
  141.2114  133.7689  156.9865 LP  0  0  0  0  0  0  0  0  0  0  0  0  # atno 17394 bound_to 11000
  140.1050  134.9512  157.1980 LP  0  0  0  0  0  0  0  0  0  0  0  0  # atno 17395 bound_to 11000

$$$$
