AV-unprocessed.smi:1150|AV-procd|sdf|4893|dock5
  -GOLD-   22720 3463D 1   1.00000     0.00000
 Structure written by MMmdl.
 50 51  0  0  0  0  0  0  0  0  1 V2000
  152.2042  138.6016  154.5006 C   0  0  0  0  0  0  0  0  0  0  0  0
  150.6844  138.7257  154.6810 C   0  0  0  0  0  0  0  0  0  0  0  0
  150.2507  140.0416  155.3597 C   0  0  2  0  0  0  0  0  0  0  0  0
  150.4488  139.9491  156.8054 N   0  0  0  0  0  0  0  0  0  0  0  0
  151.6252  139.9573  157.4516 C   0  0  0  0  0  0  0  0  0  0  0  0
  152.7161  139.8636  156.8904 O   0  0  0  0  0  0  0  0  0  0  0  0
  151.5545  140.1595  158.9658 C   0  0  0  0  0  0  0  0  0  0  0  0
  152.0078  141.5619  159.2970 C   0  0  0  0  0  0  0  0  0  0  0  0
  153.0722  141.9479  160.1639 C   0  0  0  0  0  0  0  0  0  0  0  0
  154.0082  141.0617  160.9345 C   0  0  0  0  0  0  0  0  0  0  0  0
  153.1808  143.2612  160.2772 N   0  0  0  0  0  0  0  0  0  0  0  0
  152.2004  143.7559  159.4957 N   0  0  0  0  0  0  0  0  0  0  0  0
  152.0242  145.1916  159.3982 C   0  0  0  0  0  0  0  0  0  0  0  0
  151.4761  142.7537  158.8815 C   0  0  0  0  0  0  0  0  0  0  0  0
  150.3271  143.0452  157.9714 C   0  0  0  0  0  0  0  0  0  0  0  0
  148.7821  140.4351  155.0388 C   0  0  0  0  0  0  0  0  0  0  0  0
  148.5564  140.6207  153.5199 C   0  0  0  0  0  0  0  0  0  0  0  0
  147.0968  140.9689  153.1900 C   0  0  0  0  0  0  0  0  0  0  0  0
  146.6441  142.2229  153.9511 C   0  0  0  0  0  0  0  0  0  0  0  0
  146.8379  142.0428  155.4633 C   0  0  0  0  0  0  0  0  0  0  0  0
  148.2965  141.6950  155.7995 C   0  0  0  0  0  0  0  0  0  0  0  0
  152.4578  137.6775  153.9810 H   0  0  0  0  0  0  0  0  0  0  0  0
  152.7229  138.5926  155.4595 H   0  0  0  0  0  0  0  0  0  0  0  0
  152.5999  139.4313  153.9140 H   0  0  0  0  0  0  0  0  0  0  0  0
  150.2133  138.6544  153.7000 H   0  0  0  0  0  0  0  0  0  0  0  0
  150.3271  137.8691  155.2528 H   0  0  0  0  0  0  0  0  0  0  0  0
  150.8927  140.8246  154.9520 H   0  0  0  0  0  0  0  0  0  0  0  0
  149.6151  140.0158  157.3705 H   0  0  0  0  0  0  0  0  0  0  0  0
  150.5329  139.9750  159.2987 H   0  0  0  0  0  0  0  0  0  0  0  0
  152.1769  139.4137  159.4611 H   0  0  0  0  0  0  0  0  0  0  0  0
  153.4573  140.4131  161.6155 H   0  0  0  0  0  0  0  0  0  0  0  0
  154.7158  141.6398  161.5299 H   0  0  0  0  0  0  0  0  0  0  0  0
  154.5838  140.4258  160.2622 H   0  0  0  0  0  0  0  0  0  0  0  0
  152.2746  145.5227  158.3901 H   0  0  0  0  0  0  0  0  0  0  0  0
  152.6673  145.7087  160.1115 H   0  0  0  0  0  0  0  0  0  0  0  0
  150.9864  145.4491  159.6114 H   0  0  0  0  0  0  0  0  0  0  0  0
  149.9758  142.1403  157.4758 H   0  0  0  0  0  0  0  0  0  0  0  0
  150.6128  143.7592  157.1989 H   0  0  0  0  0  0  0  0  0  0  0  0
  149.4913  143.4662  158.5301 H   0  0  0  0  0  0  0  0  0  0  0  0
  148.1505  139.6012  155.3494 H   0  0  0  0  0  0  0  0  0  0  0  0
  149.1965  141.4159  153.1396 H   0  0  0  0  0  0  0  0  0  0  0  0
  148.8438  139.7145  152.9858 H   0  0  0  0  0  0  0  0  0  0  0  0
  146.9870  141.1265  152.1168 H   0  0  0  0  0  0  0  0  0  0  0  0
  146.4511  140.1287  153.4484 H   0  0  0  0  0  0  0  0  0  0  0  0
  147.2156  143.0869  153.6089 H   0  0  0  0  0  0  0  0  0  0  0  0
  145.5978  142.4355  153.7311 H   0  0  0  0  0  0  0  0  0  0  0  0
  146.5445  142.9539  155.9855 H   0  0  0  0  0  0  0  0  0  0  0  0
  146.1798  141.2522  155.8260 H   0  0  0  0  0  0  0  0  0  0  0  0
  148.3850  141.5482  156.8754 H   0  0  0  0  0  0  0  0  0  0  0  0
  148.9236  142.5522  155.5533 H   0  0  0  0  0  0  0  0  0  0  0  0
  1  2  1  0  0  0  0
  1 22  1  0  0  0  0
  1 23  1  0  0  0  0
  1 24  1  0  0  0  0
  2  3  1  0  0  0  0
  2 25  1  0  0  0  0
  2 26  1  0  0  0  0
  3  4  1  0  0  0  0
  3 16  1  0  0  0  0
  3 27  1  0  0  0  0
  4  5  1  0  0  0  0
  4 28  1  0  0  0  0
  5  6  2  0  0  0  0
  5  7  1  0  0  0  0
  7  8  1  0  0  0  0
  7 29  1  0  0  0  0
  7 30  1  0  0  0  0
  8 14  2  0  0  0  0
  8  9  1  0  0  0  0
  9 10  1  0  0  0  0
  9 11  2  0  0  0  0
 10 31  1  0  0  0  0
 10 32  1  0  0  0  0
 10 33  1  0  0  0  0
 11 12  1  0  0  0  0
 12 13  1  0  0  0  0
 12 14  1  0  0  0  0
 13 34  1  0  0  0  0
 13 35  1  0  0  0  0
 13 36  1  0  0  0  0
 14 15  1  0  0  0  0
 15 37  1  0  0  0  0
 15 38  1  0  0  0  0
 15 39  1  0  0  0  0
 16 21  1  0  0  0  0
 16 17  1  0  0  0  0
 16 40  1  0  0  0  0
 17 18  1  0  0  0  0
 17 41  1  0  0  0  0
 17 42  1  0  0  0  0
 18 19  1  0  0  0  0
 18 43  1  0  0  0  0
 18 44  1  0  0  0  0
 19 20  1  0  0  0  0
 19 45  1  0  0  0  0
 19 46  1  0  0  0  0
 20 21  1  0  0  0  0
 20 47  1  0  0  0  0
 20 48  1  0  0  0  0
 21 49  1  0  0  0  0
 21 50  1  0  0  0  0
M  END
> <s_m_source_file>
AV-unprocessed.smi

> <i_m_source_file_index>
1150

> <i_lp_mmshare_version>
43012

> <i_f3d_flags>
0

> <s_epik_input>
W0NIMl0xW0NIMl1bQ0gyXVtDSDJdW0NIMl1bQ0hdMVtDQEhdKFtDSDJdW0NIM10pW05IXUMoPU8pW0NIMl1jMmMoW0NIM10pbm4oW0NIM10pYzJbQ0gzXQ==

> <s_epik_cmdline>
J2VwaWtfcHl0aG9uJywgJy1waCcsICc3LjAnLCAnLXRuJywgJzgnLCAnLW1hJywgJzIwMCcsICctbWV0YWxfYmluZGluZycsICctaW1hZScsICc8aW5maWxlLm1hZT4nLCAnLW9tYWUnLCAnPG91dGZpbGUubWFlPic=

> <r_lp_tautomer_probability>
1

> <r_epik_Ionization_Penalty>
0.00328092

> <r_epik_Ionization_Penalty_Charging>
0

> <r_epik_Ionization_Penalty_Neutral>
0.00328092

> <r_epik_State_Penalty>
0.00231765

> <r_epik_Charging_Adjusted_Penalty>
0.00231765

> <i_epik_Tot_Q>
0

> <i_epik_Tot_abs_Q>
0

> <r_epik_Metal_State_Penalty>
-0

> <b_epik_Metal_Only>
0

> <s_lp_Force_Field>
OPLS_2005

> <r_lp_Energy>
6.65813

> <b_lp_Chiralities_Consistent>
1

> <s_lp_Variant>
AV-unprocessed.smi:1150-1

> <Gold.Version>
5.8.1

> <Gold.Id.Protein>
6NUR|6NUR_protein|mol2

> <Gold.PLP.Fitness>
46.8940

> <Gold.PLP.PLP>
-44.9541

> <Gold.PLP.part.hbond>
-1.0000

> <Gold.PLP.part.metal>
0.0000

> <Gold.PLP.part.buried>
-0.3878

> <Gold.PLP.part.nonpolar>
-42.7394

> <Gold.PLP.part.repulsive>
0.0257

> <Gold.PLP.ligand.clash>
0.0000

> <Gold.PLP.ligand.torsion>
0.5652

> <Gold.PLP.Chemscore.Hbond>
1.0000

> <Gold.PLP.Chemscore.CHOScore>
0.0000

> <Gold.PLP.Chemscore.Metal>
0.0000

> <Gold.Chemscore.Hbonds>
donor molecule, donor type, donor heavy atom, donor atom, acceptor molecule, acceptor atom, score
      P1  H  7997  8010       L1     6  1.00

> <Gold.PLP.Chemscore.Internal.Correction>
0.0703

> <Gold.Rescore>
     Score         DG    S(hbond)    S(metal)    S(lipo)     H(rot)  DE(clash)    DE(int)     intcor
     16.76     -19.17       1.00        0.00     119.59       1.42       0.39       2.01       ----

> <Gold.Chemscore.Fitness>
16.7634

> <Gold.Chemscore.DG>
-19.1683

> <Gold.Chemscore.ZeroCoef>
-5.4800

> <Gold.Chemscore.Hbond>
0.9955

> <Gold.Chemscore.Metal>
0.0000

> <Gold.Chemscore.Lipo>
119.5892

> <Gold.Chemscore.Internal_Hbond>
0.0000

> <Gold.Chemscore.DEClash>
0.3916

> <Gold.Chemscore.DEInternal>
2.0133

> <Gold.Chemscore.Rot>
1.4174

> <Gold.Chemscore.Internal.Correction>
   9.000000E+99

> <Gold.Chemscore.Hbonds>
donor molecule, donor type, donor heavy atom, donor atom, acceptor molecule, acceptor atom, score
      P1  H  7997  8010       L1     6  1.00

> <Gold.Chemscore.Hbond.Weighted>
-3.3249

> <Gold.Chemscore.Metal.Weighted>
-0.0000

> <Gold.Chemscore.Lipo.Weighted>
-13.9919

> <Gold.Chemscore.Internal_Hbond.Weighted>
0.0000

> <Gold.Chemscore.DEClash.Weighted>
0.3916

> <Gold.Chemscore.DEInternal.Weighted>
2.0133

> <Gold.Chemscore.Rot.Weighted>
3.6286

> <Gold.Chemscore.Internal.Correction.Weighted>
   9.000000E+99

> <Gold.Protein.RotatedTorsions>
[ 6907 6896 6895 6894 ] final  125.00 input  -60.11 | X-H torsion
[ 7974 7965 7964 7962 ] final  -77.11 input  175.53 | X-H torsion
[ 8008 7997 7996 7995 ] final   60.06 input   59.86 | X-H torsion
[ 10167 10162 10161 10158 ] final    1.12 input  -65.29 | X-H torsion
[ 10718 10713 10712 10709 ] final   14.65 input   66.30 | X-H torsion
[ 10763 10752 10751 10750 ] final   55.44 input  -60.55 | X-H torsion
[ 11005 11000 10999 10996 ] final  125.21 input  -57.11 | X-H torsion

> <Gold.Protein.ActiveResidues>
 VAL166  LYS551  ARG553  GLY616  TRP617  ASP618  TYR619  PRO620  LYS621  CYS622 
 ASP623  PHE694  ASN695  SER759  ASP760  ASP761  ALA762  ILE779  LEU786  VAL792 
 PHE793  MET794  SER795  GLU796  ALA797  LYS798  CYS799  TRP800  GLU811  SER814 

> <Gold.Protein.RotatedAtoms>
  152.4030  133.6846  159.6332 H   0  0  0  0  0  0  0  0  0  0  0  0  # atno 6907 bound_to 6896
  150.7919  133.8758  159.3280 H   0  0  0  0  0  0  0  0  0  0  0  0  # atno 6908 bound_to 6896
  151.6519  135.1002  160.0214 H   0  0  0  0  0  0  0  0  0  0  0  0  # atno 6909 bound_to 6896
  145.6040  140.9402  143.1225 H   0  0  0  0  0  0  0  0  0  0  0  0  # atno 7974 bound_to 7965
  155.5762  140.3490  155.4528 H   0  0  0  0  0  0  0  0  0  0  0  0  # atno 8008 bound_to 7997
  156.0407  140.1295  157.0184 H   0  0  0  0  0  0  0  0  0  0  0  0  # atno 8009 bound_to 7997
  154.4391  140.1024  156.6219 H   0  0  0  0  0  0  0  0  0  0  0  0  # atno 8010 bound_to 7997
  140.6697  143.7082  150.7898 H   0  0  0  0  0  0  0  0  0  0  0  0  # atno 10167 bound_to 10162
  157.0422  130.6235  149.5753 H   0  0  0  0  0  0  0  0  0  0  0  0  # atno 10718 bound_to 10713
  152.9817  135.5710  154.5067 H   0  0  0  0  0  0  0  0  0  0  0  0  # atno 10763 bound_to 10752
  154.4578  135.2780  155.1737 H   0  0  0  0  0  0  0  0  0  0  0  0  # atno 10764 bound_to 10752
  154.3337  135.6244  153.5617 H   0  0  0  0  0  0  0  0  0  0  0  0  # atno 10765 bound_to 10752
  139.9396  134.9637  156.8525 H   0  0  0  0  0  0  0  0  0  0  0  0  # atno 11005 bound_to 11000
  144.7298  139.7762  143.7351 LP  0  0  0  0  0  0  0  0  0  0  0  0  # atno 17320 bound_to 7965
  146.1555  139.4651  143.0022 LP  0  0  0  0  0  0  0  0  0  0  0  0  # atno 17321 bound_to 7965
  140.0765  143.5010  152.2552 LP  0  0  0  0  0  0  0  0  0  0  0  0  # atno 17342 bound_to 10162
  139.5960  144.7567  151.3284 LP  0  0  0  0  0  0  0  0  0  0  0  0  # atno 17343 bound_to 10162
  156.0034  130.5117  150.7746 LP  0  0  0  0  0  0  0  0  0  0  0  0  # atno 17370 bound_to 10713
  157.5096  131.0924  151.0215 LP  0  0  0  0  0  0  0  0  0  0  0  0  # atno 17371 bound_to 10713
  140.5987  134.0192  155.7528 LP  0  0  0  0  0  0  0  0  0  0  0  0  # atno 17394 bound_to 11000
  141.1024  133.9747  157.3055 LP  0  0  0  0  0  0  0  0  0  0  0  0  # atno 17395 bound_to 11000

$$$$
