AV-unprocessed.smi:625|AV-procd|sdf|3108|dock5
  -GOLD-   22720 0 33D 1   1.00000     0.00000
 Structure written by MMmdl.
 49 51  0  0  0  0  0  0  0  0  1 V2000
  145.8829  136.9192  152.7679 C   0  0  0  0  0  0  0  0  0  0  0  0
  147.1418  136.7301  153.4728 N   0  0  0  0  0  0  0  0  0  0  0  0
  147.2513  136.5317  154.7968 C   0  0  0  0  0  0  0  0  0  0  0  0
  146.2612  136.4935  155.5291 O   0  0  0  0  0  0  0  0  0  0  0  0
  148.6322  136.3711  155.2591 C   0  0  0  0  0  0  0  0  0  0  0  0
  149.1141  135.1694  155.9241 C   0  0  0  0  0  0  0  0  0  0  0  0
  150.3917  135.0831  156.3432 C   0  0  0  0  0  0  0  0  0  0  0  0
  151.3430  136.1807  156.1504 C   0  0  0  0  0  0  0  0  0  0  0  0
  152.5064  136.1136  156.5472 O   0  0  0  0  0  0  0  0  0  0  0  0
  150.8536  137.2862  155.5104 N   0  0  0  0  0  0  0  0  0  0  0  0
  151.7133  138.4613  155.2742 C   0  0  0  0  0  0  0  0  0  0  0  0
  151.0248  139.8142  155.5242 C   0  0  0  0  0  0  0  0  0  0  0  0
  150.3775  140.3364  154.6175 O   0  0  0  0  0  0  0  0  0  0  0  0
  151.1781  140.3807  156.7329 N   0  0  0  0  0  0  0  0  0  0  0  0
  150.6876  141.6933  157.1399 C   0  0  1  0  0  0  0  0  0  0  0  0
  149.1527  141.7364  157.0420 C   0  0  0  0  0  0  0  0  0  0  0  0
  151.1930  141.9874  158.5718 C   0  0  1  0  0  0  0  0  0  0  0  0
  152.7278  141.9155  158.7506 C   0  0  0  0  0  0  0  0  0  0  0  0
  153.0498  143.2219  159.4996 C   0  0  1  0  0  0  0  0  0  0  0  0
  152.9428  144.4014  158.5165 C   0  0  0  0  0  0  0  0  0  0  0  0
  151.4231  144.5265  158.3041 C   0  0  0  0  0  0  0  0  0  0  0  0
  150.8594  143.3780  159.1665 C   0  0  2  0  0  0  0  0  0  0  0  0
  151.8072  143.4175  160.3615 C   0  0  0  0  0  0  0  0  0  0  0  0
  149.5154  137.3729  155.0787 C   0  0  0  0  0  0  0  0  0  0  0  0
  146.0716  137.0720  151.7055 H   0  0  0  0  0  0  0  0  0  0  0  0
  145.3511  137.7921  153.1484 H   0  0  0  0  0  0  0  0  0  0  0  0
  145.2411  136.0442  152.8781 H   0  0  0  0  0  0  0  0  0  0  0  0
  147.9868  136.7518  152.9206 H   0  0  0  0  0  0  0  0  0  0  0  0
  148.4654  134.3235  156.0972 H   0  0  0  0  0  0  0  0  0  0  0  0
  150.7259  134.1813  156.8349 H   0  0  0  0  0  0  0  0  0  0  0  0
  152.6088  138.4045  155.8955 H   0  0  0  0  0  0  0  0  0  0  0  0
  152.0839  138.4583  154.2483 H   0  0  0  0  0  0  0  0  0  0  0  0
  151.7187  139.8737  157.4188 H   0  0  0  0  0  0  0  0  0  0  0  0
  151.1050  142.4303  156.4534 H   0  0  0  0  0  0  0  0  0  0  0  0
  148.7678  142.7226  157.3010 H   0  0  0  0  0  0  0  0  0  0  0  0
  148.6916  141.0114  157.7135 H   0  0  0  0  0  0  0  0  0  0  0  0
  148.8131  141.5149  156.0299 H   0  0  0  0  0  0  0  0  0  0  0  0
  150.7490  141.2400  159.2325 H   0  0  0  0  0  0  0  0  0  0  0  0
  153.0025  141.0427  159.3441 H   0  0  0  0  0  0  0  0  0  0  0  0
  153.2673  141.8521  157.8044 H   0  0  0  0  0  0  0  0  0  0  0  0
  153.9928  143.1923  160.0460 H   0  0  0  0  0  0  0  0  0  0  0  0
  153.3448  145.3146  158.9571 H   0  0  0  0  0  0  0  0  0  0  0  0
  153.4795  144.2149  157.5855 H   0  0  0  0  0  0  0  0  0  0  0  0
  151.0704  145.4885  158.6785 H   0  0  0  0  0  0  0  0  0  0  0  0
  151.1351  144.4667  157.2556 H   0  0  0  0  0  0  0  0  0  0  0  0
  149.8073  143.5021  159.4246 H   0  0  0  0  0  0  0  0  0  0  0  0
  151.6430  142.6081  161.0752 H   0  0  0  0  0  0  0  0  0  0  0  0
  151.7951  144.3704  160.8940 H   0  0  0  0  0  0  0  0  0  0  0  0
  149.2616  138.3109  154.6046 H   0  0  0  0  0  0  0  0  0  0  0  0
  1  2  1  0  0  0  0
  1 25  1  0  0  0  0
  1 26  1  0  0  0  0
  1 27  1  0  0  0  0
  2  3  1  0  0  0  0
  2 28  1  0  0  0  0
  3  4  2  0  0  0  0
  3  5  1  0  0  0  0
  5 24  2  0  0  0  0
  5  6  1  0  0  0  0
  6  7  2  0  0  0  0
  6 29  1  0  0  0  0
  7  8  1  0  0  0  0
  7 30  1  0  0  0  0
  8  9  2  0  0  0  0
  8 10  1  0  0  0  0
 10 11  1  0  0  0  0
 10 24  1  0  0  0  0
 11 12  1  0  0  0  0
 11 31  1  0  0  0  0
 11 32  1  0  0  0  0
 12 13  2  0  0  0  0
 12 14  1  0  0  0  0
 14 15  1  0  0  0  0
 14 33  1  0  0  0  0
 15 16  1  0  0  0  0
 15 17  1  0  0  0  0
 15 34  1  0  0  0  0
 16 35  1  0  0  0  0
 16 36  1  0  0  0  0
 16 37  1  0  0  0  0
 17 22  1  0  0  0  0
 17 18  1  0  0  0  0
 17 38  1  0  0  0  0
 18 19  1  0  0  0  0
 18 39  1  0  0  0  0
 18 40  1  0  0  0  0
 19 23  1  0  0  0  0
 19 20  1  0  0  0  0
 19 41  1  0  0  0  0
 20 21  1  0  0  0  0
 20 42  1  0  0  0  0
 20 43  1  0  0  0  0
 21 22  1  0  0  0  0
 21 44  1  0  0  0  0
 21 45  1  0  0  0  0
 22 23  1  0  0  0  0
 22 46  1  0  0  0  0
 23 47  1  0  0  0  0
 23 48  1  0  0  0  0
 24 49  1  0  0  0  0
M  END
> <s_m_source_file>
AV-unprocessed.smi

> <i_m_source_file_index>
625

> <i_lp_mmshare_version>
43012

> <i_f3d_flags>
0

> <s_epik_input>
W0NIM11bTkhdQyg9TyljMVtjSF1bY0hdYyg9TyluKFtjSF0xKVtDSDJdQyg9TylbTkhdW0NASF0oW0NIM10pW0NASF0oW0NIMl1bQ0BIXTIzKVtDQEhdKFtDSDJdMylbQ0gyXVtDSDJdMg==

> <s_epik_cmdline>
J2VwaWtfcHl0aG9uJywgJy1waCcsICc3LjAnLCAnLXRuJywgJzgnLCAnLW1hJywgJzIwMCcsICctbWV0YWxfYmluZGluZycsICctaW1hZScsICc8aW5maWxlLm1hZT4nLCAnLW9tYWUnLCAnPG91dGZpbGUubWFlPic=

> <r_lp_tautomer_probability>
1

> <r_epik_Ionization_Penalty>
3.7129e-07

> <r_epik_Ionization_Penalty_Charging>
5.04114e-08

> <r_epik_Ionization_Penalty_Neutral>
3.20879e-07

> <r_epik_State_Penalty>
-0

> <r_epik_Charging_Adjusted_Penalty>
5.04114e-08

> <i_epik_Tot_Q>
0

> <i_epik_Tot_abs_Q>
0

> <r_epik_Metal_State_Penalty>
-0

> <b_epik_Metal_Only>
0

> <s_lp_Force_Field>
OPLS_2005

> <r_lp_Energy>
63.411

> <b_lp_Chiralities_Consistent>
1

> <s_lp_Variant>
AV-unprocessed.smi:625-8

> <Gold.Version>
5.8.1

> <Gold.Id.Protein>
6NUR|6NUR_protein|mol2

> <Gold.PLP.Fitness>
45.3502

> <Gold.PLP.PLP>
-39.8124

> <Gold.PLP.part.hbond>
-2.8660

> <Gold.PLP.part.metal>
0.0000

> <Gold.PLP.part.buried>
-5.3093

> <Gold.PLP.part.nonpolar>
-31.7805

> <Gold.PLP.part.repulsive>
0.2291

> <Gold.PLP.ligand.clash>
0.0000

> <Gold.PLP.ligand.torsion>
1.7794

> <Gold.PLP.Chemscore.Hbond>
3.0000

> <Gold.PLP.Chemscore.CHOScore>
0.0000

> <Gold.PLP.Chemscore.Metal>
0.0000

> <Gold.Chemscore.Hbonds>
donor molecule, donor type, donor heavy atom, donor atom, acceptor molecule, acceptor atom, score
      L1  H     2    28       P1  7948  0.99
      P1  H  7989  7998       L1    13  1.00
      P1  H 10752 10763       L1     9  1.00

> <Gold.PLP.Chemscore.Internal.Correction>
0.0966

> <Gold.Rescore>
     Score         DG    S(hbond)    S(metal)    S(lipo)     H(rot)  DE(clash)    DE(int)     intcor
     20.97     -23.68       2.87        0.00     110.09       1.67       0.02       2.69       ----

> <Gold.Chemscore.Fitness>
20.9699

> <Gold.Chemscore.DG>
-23.6821

> <Gold.Chemscore.ZeroCoef>
-5.4800

> <Gold.Chemscore.Hbond>
2.8740

> <Gold.Chemscore.Metal>
0.0000

> <Gold.Chemscore.Lipo>
110.0880

> <Gold.Chemscore.Internal_Hbond>
0.0000

> <Gold.Chemscore.DEClash>
0.0195

> <Gold.Chemscore.DEInternal>
2.6927

> <Gold.Chemscore.Rot>
1.6709

> <Gold.Chemscore.Internal.Correction>
   9.000000E+99

> <Gold.Chemscore.Hbonds>
donor molecule, donor type, donor heavy atom, donor atom, acceptor molecule, acceptor atom, score
      L1  H     2    28       P1  7948  0.91
      P1  H  7989  7998       L1    13  0.39
      P1  H 10752 10763       L1     9  0.74

> <Gold.Chemscore.Hbond.Weighted>
-9.5992

> <Gold.Chemscore.Metal.Weighted>
-0.0000

> <Gold.Chemscore.Lipo.Weighted>
-12.8803

> <Gold.Chemscore.Internal_Hbond.Weighted>
0.0000

> <Gold.Chemscore.DEClash.Weighted>
0.0195

> <Gold.Chemscore.DEInternal.Weighted>
2.6927

> <Gold.Chemscore.Rot.Weighted>
4.2774

> <Gold.Chemscore.Internal.Correction.Weighted>
   9.000000E+99

> <Gold.Protein.RotatedTorsions>
[ 6907 6896 6895 6894 ] final  -88.52 input  -60.11 | X-H torsion
[ 7974 7965 7964 7962 ] final  -12.85 input  175.53 | X-H torsion
[ 8008 7997 7996 7995 ] final  -43.15 input   59.86 | X-H torsion
[ 10167 10162 10161 10158 ] final  -35.96 input  -65.29 | X-H torsion
[ 10718 10713 10712 10709 ] final   42.09 input   66.30 | X-H torsion
[ 10763 10752 10751 10750 ] final  117.58 input  -60.55 | X-H torsion
[ 11005 11000 10999 10996 ] final -102.35 input  -57.11 | X-H torsion

> <Gold.Protein.ActiveResidues>
 VAL166  LYS551  ARG553  GLY616  TRP617  ASP618  TYR619  PRO620  LYS621  CYS622 
 ASP623  PHE694  ASN695  SER759  ASP760  ASP761  ALA762  ILE779  LEU786  VAL792 
 PHE793  MET794  SER795  GLU796  ALA797  LYS798  CYS799  TRP800  GLU811  SER814 

> <Gold.Protein.RotatedAtoms>
  150.6869  134.2729  159.4595 H   0  0  0  0  0  0  0  0  0  0  0  0  # atno 6907 bound_to 6896
  152.0649  134.9568  160.0584 H   0  0  0  0  0  0  0  0  0  0  0  0  # atno 6908 bound_to 6896
  152.0980  133.4200  159.4611 H   0  0  0  0  0  0  0  0  0  0  0  0  # atno 6909 bound_to 6896
  146.2136  140.3118  142.8383 H   0  0  0  0  0  0  0  0  0  0  0  0  # atno 7974 bound_to 7965
  154.3997  140.1455  156.3471 H   0  0  0  0  0  0  0  0  0  0  0  0  # atno 8008 bound_to 7997
  155.8303  140.3466  155.5547 H   0  0  0  0  0  0  0  0  0  0  0  0  # atno 8009 bound_to 7997
  155.8195  140.0896  157.1848 H   0  0  0  0  0  0  0  0  0  0  0  0  # atno 8010 bound_to 7997
  140.7153  143.3441  151.2293 H   0  0  0  0  0  0  0  0  0  0  0  0  # atno 10167 bound_to 10162
  157.4010  130.7860  149.7348 H   0  0  0  0  0  0  0  0  0  0  0  0  # atno 10718 bound_to 10713
  153.5545  135.3533  155.2773 H   0  0  0  0  0  0  0  0  0  0  0  0  # atno 10763 bound_to 10752
  154.8702  135.4122  154.2899 H   0  0  0  0  0  0  0  0  0  0  0  0  # atno 10764 bound_to 10752
  153.3632  135.7061  153.6764 H   0  0  0  0  0  0  0  0  0  0  0  0  # atno 10765 bound_to 10752
  141.1193  133.8551  157.1348 H   0  0  0  0  0  0  0  0  0  0  0  0  # atno 11005 bound_to 11000
  144.8983  140.7610  143.5883 LP  0  0  0  0  0  0  0  0  0  0  0  0  # atno 17320 bound_to 7965
  145.3043  139.1840  143.4673 LP  0  0  0  0  0  0  0  0  0  0  0  0  # atno 17321 bound_to 7965
  139.6956  143.9618  152.2881 LP  0  0  0  0  0  0  0  0  0  0  0  0  # atno 17342 bound_to 10162
  139.9294  144.6751  150.8378 LP  0  0  0  0  0  0  0  0  0  0  0  0  # atno 17343 bound_to 10162
  155.9823  130.4011  150.3424 LP  0  0  0  0  0  0  0  0  0  0  0  0  # atno 17370 bound_to 10713
  157.1551  131.0331  151.2867 LP  0  0  0  0  0  0  0  0  0  0  0  0  # atno 17371 bound_to 10713
  140.0138  134.9976  157.0450 LP  0  0  0  0  0  0  0  0  0  0  0  0  # atno 17394 bound_to 11000
  140.4555  134.1538  155.7185 LP  0  0  0  0  0  0  0  0  0  0  0  0  # atno 17395 bound_to 11000

$$$$
