AV-unprocessed.smi:1212|AV-procd|sdf|5082|dock3
  -GOLD-   22720 4133D 1   1.00000     0.00000
 Structure written by MMmdl.
 39 40  0  0  0  0  0  0  0  0  1 V2000
  151.5798  140.6902  156.8368 C   0  0  0  0  0  0  0  0  0  0  0  0
  150.3699  140.1339  156.1667 C   0  0  0  0  0  0  0  0  0  0  0  0
  149.1296  140.5582  156.4386 N   0  0  0  0  0  0  0  0  0  0  0  0
  148.1693  139.8913  155.6899 N   0  0  0  0  0  0  0  0  0  0  0  0
  148.7166  138.9821  154.8713 C   0  0  0  0  0  0  0  0  0  0  0  0
  147.9660  138.1560  153.9936 N   0  0  0  0  0  0  0  0  0  0  0  0
  146.6311  138.0953  153.8426 C   0  0  0  0  0  0  0  0  0  0  0  0
  145.8118  138.7714  154.4655 O   0  0  0  0  0  0  0  0  0  0  0  0
  146.2885  137.1918  152.9129 N   0  0  0  0  0  0  0  0  0  0  0  0
  144.9220  136.8904  152.5048 C   0  0  0  0  0  0  0  0  0  0  0  0
  144.5150  135.4590  152.9018 C   0  0  0  0  0  0  0  0  0  0  0  0
  144.6614  134.5347  151.7703 N   0  0  0  0  0  0  0  0  0  0  0  0
  145.9198  134.6271  151.0115 C   0  0  0  0  0  0  0  0  0  0  0  0
  146.8570  133.4123  151.2079 C   0  0  0  0  0  0  0  0  0  0  0  0
  146.1760  132.0630  151.5117 C   0  0  0  0  0  0  0  0  0  0  0  0
  145.0690  131.6521  150.5185 C   0  0  0  0  0  0  0  0  0  0  0  0
  143.9426  132.6846  150.2757 C   0  0  0  0  0  0  0  0  0  0  0  0
  143.6937  133.6385  151.4555 C   0  0  0  0  0  0  0  0  0  0  0  0
  142.6324  133.5513  152.0738 O   0  0  0  0  0  0  0  0  0  0  0  0
  150.4666  138.8668  154.9499 S   0  0  0  0  0  0  0  0  0  0  0  0
  151.3024  141.2409  157.7363 H   0  0  0  0  0  0  0  0  0  0  0  0
  152.1031  141.3653  156.1598 H   0  0  0  0  0  0  0  0  0  0  0  0
  152.2557  139.8826  157.1185 H   0  0  0  0  0  0  0  0  0  0  0  0
  148.5108  137.5384  153.4104 H   0  0  0  0  0  0  0  0  0  0  0  0
  147.0246  136.6775  152.4514 H   0  0  0  0  0  0  0  0  0  0  0  0
  144.2333  137.6177  152.9382 H   0  0  0  0  0  0  0  0  0  0  0  0
  144.8598  137.0153  151.4235 H   0  0  0  0  0  0  0  0  0  0  0  0
  145.1217  135.1191  153.7431 H   0  0  0  0  0  0  0  0  0  0  0  0
  143.4898  135.4521  153.2729 H   0  0  0  0  0  0  0  0  0  0  0  0
  145.6900  134.7492  149.9528 H   0  0  0  0  0  0  0  0  0  0  0  0
  146.4710  135.5325  151.2664 H   0  0  0  0  0  0  0  0  0  0  0  0
  147.4914  133.3118  150.3269 H   0  0  0  0  0  0  0  0  0  0  0  0
  147.5353  133.6313  152.0336 H   0  0  0  0  0  0  0  0  0  0  0  0
  146.9372  131.2825  151.5328 H   0  0  0  0  0  0  0  0  0  0  0  0
  145.7679  132.0843  152.5232 H   0  0  0  0  0  0  0  0  0  0  0  0
  145.5274  131.4077  149.5597 H   0  0  0  0  0  0  0  0  0  0  0  0
  144.6220  130.7226  150.8728 H   0  0  0  0  0  0  0  0  0  0  0  0
  144.1587  133.2726  149.3838 H   0  0  0  0  0  0  0  0  0  0  0  0
  143.0177  132.1559  150.0421 H   0  0  0  0  0  0  0  0  0  0  0  0
  1  2  1  0  0  0  0
  1 21  1  0  0  0  0
  1 22  1  0  0  0  0
  1 23  1  0  0  0  0
  2 20  1  0  0  0  0
  2  3  2  0  0  0  0
  3  4  1  0  0  0  0
  4  5  2  0  0  0  0
  5  6  1  0  0  0  0
  5 20  1  0  0  0  0
  6  7  1  0  0  0  0
  6 24  1  0  0  0  0
  7  8  2  0  0  0  0
  7  9  1  0  0  0  0
  9 10  1  0  0  0  0
  9 25  1  0  0  0  0
 10 11  1  0  0  0  0
 10 26  1  0  0  0  0
 10 27  1  0  0  0  0
 11 12  1  0  0  0  0
 11 28  1  0  0  0  0
 11 29  1  0  0  0  0
 12 18  1  0  0  0  0
 12 13  1  0  0  0  0
 13 14  1  0  0  0  0
 13 30  1  0  0  0  0
 13 31  1  0  0  0  0
 14 15  1  0  0  0  0
 14 32  1  0  0  0  0
 14 33  1  0  0  0  0
 15 16  1  0  0  0  0
 15 34  1  0  0  0  0
 15 35  1  0  0  0  0
 16 17  1  0  0  0  0
 16 36  1  0  0  0  0
 16 37  1  0  0  0  0
 17 18  1  0  0  0  0
 17 38  1  0  0  0  0
 17 39  1  0  0  0  0
 18 19  2  0  0  0  0
M  END
> <s_m_source_file>
AV-unprocessed.smi

> <i_m_source_file_index>
1212

> <i_lp_mmshare_version>
43012

> <i_f3d_flags>
0

> <s_epik_input>
W0NIM11jMW5uYyhzMSlbTkhdQyg9TylbTkhdW0NIMl1bQ0gyXU4yW0NIMl1bQ0gyXVtDSDJdW0NIMl1bQ0gyXUMyPU8=

> <s_epik_cmdline>
J2VwaWtfcHl0aG9uJywgJy1waCcsICc3LjAnLCAnLXRuJywgJzgnLCAnLW1hJywgJzIwMCcsICctbWV0YWxfYmluZGluZycsICctaW1hZScsICc8aW5maWxlLm1hZT4nLCAnLW9tYWUnLCAnPG91dGZpbGUubWFlPic=

> <r_lp_tautomer_probability>
1

> <r_epik_Ionization_Penalty>
0.00255187

> <r_epik_Ionization_Penalty_Charging>
0

> <r_epik_Ionization_Penalty_Neutral>
0.00255187

> <r_epik_State_Penalty>
-0

> <r_epik_Charging_Adjusted_Penalty>
0

> <i_epik_Tot_Q>
0

> <i_epik_Tot_abs_Q>
0

> <r_epik_Metal_State_Penalty>
0.352847

> <b_epik_Metal_Only>
0

> <s_lp_Force_Field>
OPLS_2005

> <r_lp_Energy>
20.0291

> <b_lp_Chiralities_Consistent>
1

> <s_lp_Variant>
AV-unprocessed.smi:1212-1

> <Gold.Version>
5.8.1

> <Gold.Id.Protein>
6NUR|6NUR_protein|mol2

> <Gold.PLP.Fitness>
37.4613

> <Gold.PLP.PLP>
-32.3595

> <Gold.PLP.part.hbond>
-2.0000

> <Gold.PLP.part.metal>
0.0000

> <Gold.PLP.part.buried>
-5.1147

> <Gold.PLP.part.nonpolar>
-25.6513

> <Gold.PLP.part.repulsive>
1.2713

> <Gold.PLP.ligand.clash>
0.0000

> <Gold.PLP.ligand.torsion>
0.4526

> <Gold.PLP.Chemscore.Hbond>
2.0000

> <Gold.PLP.Chemscore.CHOScore>
0.0000

> <Gold.PLP.Chemscore.Metal>
0.0000

> <Gold.Chemscore.Hbonds>
donor molecule, donor type, donor heavy atom, donor atom, acceptor molecule, acceptor atom, score
      L1  H     6    24       P1  7948  0.93
      L1  H     9    25       P1  7948  0.94

> <Gold.PLP.Chemscore.Internal.Correction>
0.0069

> <Gold.Rescore>
     Score         DG    S(hbond)    S(metal)    S(lipo)     H(rot)  DE(clash)    DE(int)     intcor
     14.14     -16.03       1.95        0.00      70.71       1.65       0.08       1.81       ----

> <Gold.Chemscore.Fitness>
14.1418

> <Gold.Chemscore.DG>
-16.0271

> <Gold.Chemscore.ZeroCoef>
-5.4800

> <Gold.Chemscore.Hbond>
1.9489

> <Gold.Chemscore.Metal>
0.0000

> <Gold.Chemscore.Lipo>
70.7078

> <Gold.Chemscore.Internal_Hbond>
0.0000

> <Gold.Chemscore.DEClash>
0.0775

> <Gold.Chemscore.DEInternal>
1.8079

> <Gold.Chemscore.Rot>
1.6544

> <Gold.Chemscore.Internal.Correction>
   9.000000E+99

> <Gold.Chemscore.Hbonds>
donor molecule, donor type, donor heavy atom, donor atom, acceptor molecule, acceptor atom, score
      L1  H     6    24       P1  7948  0.88
      L1  H     9    25       P1  7948  0.89

> <Gold.Chemscore.Hbond.Weighted>
-6.5095

> <Gold.Chemscore.Metal.Weighted>
-0.0000

> <Gold.Chemscore.Lipo.Weighted>
-8.2728

> <Gold.Chemscore.Internal_Hbond.Weighted>
0.0000

> <Gold.Chemscore.DEClash.Weighted>
0.0775

> <Gold.Chemscore.DEInternal.Weighted>
1.8079

> <Gold.Chemscore.Rot.Weighted>
4.2352

> <Gold.Chemscore.Internal.Correction.Weighted>
   9.000000E+99

> <Gold.Protein.RotatedTorsions>
[ 6907 6896 6895 6894 ] final -162.35 input  -60.11 | X-H torsion
[ 7974 7965 7964 7962 ] final  103.27 input  175.53 | X-H torsion
[ 8008 7997 7996 7995 ] final   44.82 input   59.86 | X-H torsion
[ 10167 10162 10161 10158 ] final  -19.80 input  -65.29 | X-H torsion
[ 10718 10713 10712 10709 ] final -148.55 input   66.30 | X-H torsion
[ 10763 10752 10751 10750 ] final -119.74 input  -60.55 | X-H torsion
[ 11005 11000 10999 10996 ] final -143.69 input  -57.11 | X-H torsion

> <Gold.Protein.ActiveResidues>
 VAL166  LYS551  ARG553  GLY616  TRP617  ASP618  TYR619  PRO620  LYS621  CYS622 
 ASP623  PHE694  ASN695  SER759  ASP760  ASP761  ALA762  ILE779  LEU786  VAL792 
 PHE793  MET794  SER795  GLU796  ALA797  LYS798  CYS799  TRP800  GLU811  SER814 

> <Gold.Protein.RotatedAtoms>
  151.3790  133.3828  159.2707 H   0  0  0  0  0  0  0  0  0  0  0  0  # atno 6907 bound_to 6896
  150.9592  134.8983  159.7730 H   0  0  0  0  0  0  0  0  0  0  0  0  # atno 6908 bound_to 6896
  152.5143  134.3748  159.9383 H   0  0  0  0  0  0  0  0  0  0  0  0  # atno 6909 bound_to 6896
  145.3482  139.2446  143.3572 H   0  0  0  0  0  0  0  0  0  0  0  0  # atno 7974 bound_to 7965
  155.3256  140.3399  155.4240 H   0  0  0  0  0  0  0  0  0  0  0  0  # atno 8008 bound_to 7997
  156.1887  140.1690  156.8172 H   0  0  0  0  0  0  0  0  0  0  0  0  # atno 8009 bound_to 7997
  154.5416  140.0723  156.8503 H   0  0  0  0  0  0  0  0  0  0  0  0  # atno 8010 bound_to 7997
  140.7271  143.4784  151.0151 H   0  0  0  0  0  0  0  0  0  0  0  0  # atno 10167 bound_to 10162
  156.4216  130.8032  151.2255 H   0  0  0  0  0  0  0  0  0  0  0  0  # atno 10718 bound_to 10713
  154.8625  135.4227  154.2347 H   0  0  0  0  0  0  0  0  0  0  0  0  # atno 10763 bound_to 10752
  153.3325  135.6989  153.6941 H   0  0  0  0  0  0  0  0  0  0  0  0  # atno 10764 bound_to 10752
  153.5952  135.3547  155.2899 H   0  0  0  0  0  0  0  0  0  0  0  0  # atno 10765 bound_to 10752
  140.8100  134.2755  157.4944 H   0  0  0  0  0  0  0  0  0  0  0  0  # atno 11005 bound_to 11000
  146.2979  140.4093  142.8715 LP  0  0  0  0  0  0  0  0  0  0  0  0  # atno 17320 bound_to 7965
  144.8738  140.7308  143.6030 LP  0  0  0  0  0  0  0  0  0  0  0  0  # atno 17321 bound_to 7965
  139.8480  143.7475  152.3179 LP  0  0  0  0  0  0  0  0  0  0  0  0  # atno 17342 bound_to 10162
  139.7647  144.7495  151.0311 LP  0  0  0  0  0  0  0  0  0  0  0  0  # atno 17343 bound_to 10162
  157.7508  131.0226  150.3799 LP  0  0  0  0  0  0  0  0  0  0  0  0  # atno 17370 bound_to 10713
  156.4118  130.3935  149.6886 LP  0  0  0  0  0  0  0  0  0  0  0  0  # atno 17371 bound_to 10713
  139.8715  134.9478  156.3977 LP  0  0  0  0  0  0  0  0  0  0  0  0  # atno 17394 bound_to 11000
  140.9207  133.7647  155.9903 LP  0  0  0  0  0  0  0  0  0  0  0  0  # atno 17395 bound_to 11000

$$$$
