AV-unprocessed.smi:1514|AV-procd|sdf|6116|dock3
  -GOLD-   22720 6253D 1   1.00000     0.00000
 Structure written by MMmdl.
 47 48  0  0  0  0  0  0  0  0  1 V2000
  148.2158  126.7688  151.9988 C   0  0  0  0  0  0  0  0  0  0  0  0
  148.8721  127.2584  153.2976 C   0  0  0  0  0  0  0  0  0  0  0  0
  149.2600  128.6674  153.2982 N   0  0  0  0  0  0  0  0  0  0  0  0
  150.2038  128.9494  154.3796 C   0  0  0  0  0  0  0  0  0  0  0  0
  150.6401  130.4262  154.3850 C   0  0  0  0  0  0  0  0  0  0  0  0
  149.4930  131.3262  154.5319 N   0  0  0  0  0  0  0  0  0  0  0  0
  149.8823  132.7346  154.5265 C   0  0  0  0  0  0  0  0  0  0  0  0
  148.7927  133.7105  154.9990 C   0  0  0  0  0  0  0  0  0  0  0  0
  148.9999  135.0228  154.4038 N   0  0  0  0  0  0  0  0  0  0  0  0
  149.3804  136.1124  155.0839 C   0  0  0  0  0  0  0  0  0  0  0  0
  149.6050  136.1108  156.2944 O   0  0  0  0  0  0  0  0  0  0  0  0
  149.4812  137.1792  154.2717 N   0  0  0  0  0  0  0  0  0  0  0  0
  149.7978  138.4627  154.5885 C   0  0  0  0  0  0  0  0  0  0  0  0
  148.9652  139.5241  154.8172 C   0  0  0  0  0  0  0  0  0  0  0  0
  149.8774  140.5852  155.0888 C   0  0  0  0  0  0  0  0  0  0  0  0
  149.5620  142.0157  155.4125 C   0  0  0  0  0  0  0  0  0  0  0  0
  151.1464  140.1971  155.0323 N   0  0  0  0  0  0  0  0  0  0  0  0
  151.1022  138.8838  154.7206 N   0  0  0  0  0  0  0  0  0  0  0  0
  152.3326  138.1308  154.5740 C   0  0  0  0  0  0  0  0  0  0  0  0
  148.5480  131.0424  153.4516 C   0  0  0  0  0  0  0  0  0  0  0  0
  148.1123  129.5654  153.4476 C   0  0  0  0  0  0  0  0  0  0  0  0
  148.0539  125.6916  152.0351 H   0  0  0  0  0  0  0  0  0  0  0  0
  148.8477  126.9792  151.1355 H   0  0  0  0  0  0  0  0  0  0  0  0
  147.2455  127.2356  151.8304 H   0  0  0  0  0  0  0  0  0  0  0  0
  148.2098  127.0546  154.1403 H   0  0  0  0  0  0  0  0  0  0  0  0
  149.7622  126.6497  153.4620 H   0  0  0  0  0  0  0  0  0  0  0  0
  149.7564  128.6970  155.3424 H   0  0  0  0  0  0  0  0  0  0  0  0
  151.0865  128.3181  154.2721 H   0  0  0  0  0  0  0  0  0  0  0  0
  151.3432  130.5745  155.2037 H   0  0  0  0  0  0  0  0  0  0  0  0
  151.1794  130.6528  153.4638 H   0  0  0  0  0  0  0  0  0  0  0  0
  150.7817  132.8701  155.1295 H   0  0  0  0  0  0  0  0  0  0  0  0
  150.1584  133.0157  153.5090 H   0  0  0  0  0  0  0  0  0  0  0  0
  147.8078  133.3336  154.7179 H   0  0  0  0  0  0  0  0  0  0  0  0
  148.8041  133.8165  156.0840 H   0  0  0  0  0  0  0  0  0  0  0  0
  148.8364  135.1067  153.4112 H   0  0  0  0  0  0  0  0  0  0  0  0
  149.2810  137.0149  153.2962 H   0  0  0  0  0  0  0  0  0  0  0  0
  147.8864  139.5585  154.7959 H   0  0  0  0  0  0  0  0  0  0  0  0
  148.4985  142.2219  155.2913 H   0  0  0  0  0  0  0  0  0  0  0  0
  150.1074  142.6966  154.7586 H   0  0  0  0  0  0  0  0  0  0  0  0
  149.8316  142.2532  156.4418 H   0  0  0  0  0  0  0  0  0  0  0  0
  152.3439  137.6312  153.6051 H   0  0  0  0  0  0  0  0  0  0  0  0
  152.3981  137.3814  155.3629 H   0  0  0  0  0  0  0  0  0  0  0  0
  153.1981  138.7917  154.6398 H   0  0  0  0  0  0  0  0  0  0  0  0
  147.6648  131.6728  153.5602 H   0  0  0  0  0  0  0  0  0  0  0  0
  148.9937  131.2945  152.4881 H   0  0  0  0  0  0  0  0  0  0  0  0
  147.4079  129.4159  152.6299 H   0  0  0  0  0  0  0  0  0  0  0  0
  147.5751  129.3383  154.3698 H   0  0  0  0  0  0  0  0  0  0  0  0
  1  2  1  0  0  0  0
  1 22  1  0  0  0  0
  1 23  1  0  0  0  0
  1 24  1  0  0  0  0
  2  3  1  0  0  0  0
  2 25  1  0  0  0  0
  2 26  1  0  0  0  0
  3 21  1  0  0  0  0
  3  4  1  0  0  0  0
  4  5  1  0  0  0  0
  4 27  1  0  0  0  0
  4 28  1  0  0  0  0
  5  6  1  0  0  0  0
  5 29  1  0  0  0  0
  5 30  1  0  0  0  0
  6  7  1  0  0  0  0
  6 20  1  0  0  0  0
  7  8  1  0  0  0  0
  7 31  1  0  0  0  0
  7 32  1  0  0  0  0
  8  9  1  0  0  0  0
  8 33  1  0  0  0  0
  8 34  1  0  0  0  0
  9 10  1  0  0  0  0
  9 35  1  0  0  0  0
 10 11  2  0  0  0  0
 10 12  1  0  0  0  0
 12 13  1  0  0  0  0
 12 36  1  0  0  0  0
 13 18  1  0  0  0  0
 13 14  2  0  0  0  0
 14 15  1  0  0  0  0
 14 37  1  0  0  0  0
 15 16  1  0  0  0  0
 15 17  2  0  0  0  0
 16 38  1  0  0  0  0
 16 39  1  0  0  0  0
 16 40  1  0  0  0  0
 17 18  1  0  0  0  0
 18 19  1  0  0  0  0
 19 41  1  0  0  0  0
 19 42  1  0  0  0  0
 19 43  1  0  0  0  0
 20 21  1  0  0  0  0
 20 44  1  0  0  0  0
 20 45  1  0  0  0  0
 21 46  1  0  0  0  0
 21 47  1  0  0  0  0
M  END
> <s_m_source_file>
AV-unprocessed.smi

> <i_m_source_file_index>
1514

> <i_lp_mmshare_version>
43012

> <i_f3d_flags>
0

> <s_epik_input>
W0NIM11bQ0gyXU4xW0NIMl1bQ0gyXU4oW0NIMl1bQ0gyXTEpW0NIMl1bQ0gyXVtOSF1DKD1PKVtOSF1jMltjSF1jKFtDSDNdKW5uMltDSDNd

> <s_epik_cmdline>
J2VwaWtfcHl0aG9uJywgJy1waCcsICc3LjAnLCAnLXRuJywgJzgnLCAnLW1hJywgJzIwMCcsICctbWV0YWxfYmluZGluZycsICctaW1hZScsICc8aW5maWxlLm1hZT4nLCAnLW9tYWUnLCAnPG91dGZpbGUubWFlPic=

> <r_lp_tautomer_probability>
1

> <r_epik_Ionization_Penalty>
2.12169

> <r_epik_Ionization_Penalty_Charging>
0

> <r_epik_Ionization_Penalty_Neutral>
2.12169

> <r_epik_State_Penalty>
1.63644

> <r_epik_Charging_Adjusted_Penalty>
1.63644

> <i_epik_Tot_Q>
0

> <i_epik_Tot_abs_Q>
0

> <r_epik_Metal_State_Penalty>
1.63644

> <b_epik_Metal_Only>
0

> <s_lp_Force_Field>
OPLS_2005

> <r_lp_Energy>
34.6539

> <b_lp_Chiralities_Consistent>
1

> <s_lp_Variant>
AV-unprocessed.smi:1514-3

> <Gold.Version>
5.8.1

> <Gold.Id.Protein>
6NUR|6NUR_protein|mol2

> <Gold.PLP.Fitness>
39.7123

> <Gold.PLP.PLP>
-33.1442

> <Gold.PLP.part.hbond>
-3.0000

> <Gold.PLP.part.metal>
0.0000

> <Gold.PLP.part.buried>
-1.4473

> <Gold.PLP.part.nonpolar>
-29.4461

> <Gold.PLP.part.repulsive>
0.2740

> <Gold.PLP.ligand.clash>
0.0000

> <Gold.PLP.ligand.torsion>
1.1362

> <Gold.PLP.Chemscore.Hbond>
2.9120

> <Gold.PLP.Chemscore.CHOScore>
0.0000

> <Gold.PLP.Chemscore.Metal>
0.0000

> <Gold.Chemscore.Hbonds>
donor molecule, donor type, donor heavy atom, donor atom, acceptor molecule, acceptor atom, score
      L1  H     9    35       P1  7948  0.94
      L1  H    12    36       P1  7948  1.00
      P1  H  7989  7998       L1    17  1.00

> <Gold.PLP.Chemscore.Internal.Correction>
0.1046

> <Gold.Rescore>
     Score         DG    S(hbond)    S(metal)    S(lipo)     H(rot)  DE(clash)    DE(int)     intcor
     14.49     -16.02       1.89        0.00      72.16       1.64       0.44       1.09       ----

> <Gold.Chemscore.Fitness>
14.4929

> <Gold.Chemscore.DG>
-16.0220

> <Gold.Chemscore.ZeroCoef>
-5.4800

> <Gold.Chemscore.Hbond>
1.8880

> <Gold.Chemscore.Metal>
0.0000

> <Gold.Chemscore.Lipo>
72.1585

> <Gold.Chemscore.Internal_Hbond>
0.0000

> <Gold.Chemscore.DEClash>
0.4400

> <Gold.Chemscore.DEInternal>
1.0891

> <Gold.Chemscore.Rot>
1.6432

> <Gold.Chemscore.Internal.Correction>
   9.000000E+99

> <Gold.Chemscore.Hbonds>
donor molecule, donor type, donor heavy atom, donor atom, acceptor molecule, acceptor atom, score
      L1  H     9    35       P1  7948  0.50
      L1  H    12    36       P1  7948  0.96
      P1  H  7989  7998       L1    17  0.09

> <Gold.Chemscore.Hbond.Weighted>
-6.3060

> <Gold.Chemscore.Metal.Weighted>
-0.0000

> <Gold.Chemscore.Lipo.Weighted>
-8.4425

> <Gold.Chemscore.Internal_Hbond.Weighted>
0.0000

> <Gold.Chemscore.DEClash.Weighted>
0.4400

> <Gold.Chemscore.DEInternal.Weighted>
1.0891

> <Gold.Chemscore.Rot.Weighted>
4.2065

> <Gold.Chemscore.Internal.Correction.Weighted>
   9.000000E+99

> <Gold.Protein.RotatedTorsions>
[ 6907 6896 6895 6894 ] final   87.41 input  -60.11 | X-H torsion
[ 7974 7965 7964 7962 ] final   73.16 input  175.53 | X-H torsion
[ 8008 7997 7996 7995 ] final   78.53 input   59.86 | X-H torsion
[ 10167 10162 10161 10158 ] final  142.97 input  -65.29 | X-H torsion
[ 10718 10713 10712 10709 ] final   33.27 input   66.30 | X-H torsion
[ 10763 10752 10751 10750 ] final   61.84 input  -60.55 | X-H torsion
[ 11005 11000 10999 10996 ] final   62.03 input  -57.11 | X-H torsion

> <Gold.Protein.ActiveResidues>
 VAL166  LYS551  ARG553  GLY616  TRP617  ASP618  TYR619  PRO620  LYS621  CYS622 
 ASP623  PHE694  ASN695  SER759  ASP760  ASP761  ALA762  ILE779  LEU786  VAL792 
 PHE793  MET794  SER795  GLU796  ALA797  LYS798  CYS799  TRP800  GLU811  SER814 

> <Gold.Protein.RotatedAtoms>
  152.5410  134.2281  159.8813 H   0  0  0  0  0  0  0  0  0  0  0  0  # atno 6907 bound_to 6896
  151.2255  133.4472  159.2609 H   0  0  0  0  0  0  0  0  0  0  0  0  # atno 6908 bound_to 6896
  151.0765  134.9845  159.8391 H   0  0  0  0  0  0  0  0  0  0  0  0  # atno 6909 bound_to 6896
  145.7443  139.2733  143.1468 H   0  0  0  0  0  0  0  0  0  0  0  0  # atno 7974 bound_to 7965
  155.8570  140.3455  155.5731 H   0  0  0  0  0  0  0  0  0  0  0  0  # atno 8008 bound_to 7997
  155.7975  140.0880  157.1995 H   0  0  0  0  0  0  0  0  0  0  0  0  # atno 8009 bound_to 7997
  154.4010  140.1471  156.3223 H   0  0  0  0  0  0  0  0  0  0  0  0  # atno 8010 bound_to 7997
  139.4981  144.6071  151.6353 H   0  0  0  0  0  0  0  0  0  0  0  0  # atno 10167 bound_to 10162
  157.2957  130.7325  149.6637 H   0  0  0  0  0  0  0  0  0  0  0  0  # atno 10718 bound_to 10713
  152.9963  135.5486  154.6097 H   0  0  0  0  0  0  0  0  0  0  0  0  # atno 10763 bound_to 10752
  154.5420  135.2820  155.1089 H   0  0  0  0  0  0  0  0  0  0  0  0  # atno 10764 bound_to 10752
  154.2362  135.6424  153.5244 H   0  0  0  0  0  0  0  0  0  0  0  0  # atno 10765 bound_to 10752
  140.0120  134.6282  155.9767 H   0  0  0  0  0  0  0  0  0  0  0  0  # atno 11005 bound_to 11000
  146.0418  140.8157  142.9825 LP  0  0  0  0  0  0  0  0  0  0  0  0  # atno 17320 bound_to 7965
  144.6863  140.2921  143.7276 LP  0  0  0  0  0  0  0  0  0  0  0  0  # atno 17321 bound_to 7965
  140.5736  144.0066  150.6230 LP  0  0  0  0  0  0  0  0  0  0  0  0  # atno 17342 bound_to 10162
  140.3192  143.3148  152.0801 LP  0  0  0  0  0  0  0  0  0  0  0  0  # atno 17343 bound_to 10162
  155.9669  130.4295  150.4836 LP  0  0  0  0  0  0  0  0  0  0  0  0  # atno 17370 bound_to 10713
  157.2807  131.0606  151.2199 LP  0  0  0  0  0  0  0  0  0  0  0  0  # atno 17371 bound_to 10713
  141.1717  133.6538  156.4677 LP  0  0  0  0  0  0  0  0  0  0  0  0  # atno 17394 bound_to 11000
  140.4538  134.6904  157.5052 LP  0  0  0  0  0  0  0  0  0  0  0  0  # atno 17395 bound_to 11000

$$$$
