AV-unprocessed.smi:2340|AV-procd|sdf|9348|dock4
  -GOLD-   2272012573D 1   1.00000     0.00000
 Structure written by MMmdl.
 40 41  0  0  0  0  0  0  0  0  1 V2000
  144.1635  132.7215  149.0817 C   0  0  0  0  0  0  0  0  0  0  0  0
  144.8095  133.0650  150.3867 C   0  0  0  0  0  0  0  0  0  0  0  0
  145.9604  132.5267  150.9060 C   0  0  0  0  0  0  0  0  0  0  0  0
  146.3567  133.2151  152.4563 S   0  0  0  0  0  0  0  0  0  0  0  0
  144.9192  134.2287  152.3415 C   0  0  0  0  0  0  0  0  0  0  0  0
  144.5068  135.2069  153.3975 C   0  0  2  0  0  0  0  0  0  0  0  0
  142.9804  135.2136  153.5898 C   0  0  0  0  0  0  0  0  0  0  0  0
  145.1017  136.6054  153.1259 C   0  0  0  0  0  0  0  0  0  0  0  0
  146.5535  136.6415  153.2732 N   0  0  0  0  0  0  0  0  0  0  0  0
  147.2103  137.2841  154.2484 C   0  0  0  0  0  0  0  0  0  0  0  0
  146.6607  137.9285  155.1417 O   0  0  0  0  0  0  0  0  0  0  0  0
  148.5374  137.1341  154.1354 N   0  0  0  0  0  0  0  0  0  0  0  0
  149.5340  137.7111  155.0383 C   0  0  2  0  0  0  0  0  0  0  0  0
  150.3678  138.7665  154.3127 C   0  0  0  0  0  0  0  0  0  0  0  0
  151.8099  138.3901  154.6364 C   0  0  0  0  0  0  0  0  0  0  0  0
  151.7522  136.9831  154.7873 O   0  0  0  0  0  0  0  0  0  0  0  0
  150.5841  136.6921  155.5406 C   0  0  2  0  0  0  0  0  0  0  0  0
  150.2424  135.1976  155.4250 C   0  0  0  0  0  0  0  0  0  0  0  0
  144.2295  134.0305  151.2144 N   0  0  0  0  0  0  0  0  0  0  0  0
  144.6877  131.9085  148.5785 H   0  0  0  0  0  0  0  0  0  0  0  0
  144.1596  133.5783  148.4077 H   0  0  0  0  0  0  0  0  0  0  0  0
  143.1294  132.4071  149.2248 H   0  0  0  0  0  0  0  0  0  0  0  0
  146.5968  131.7694  150.4724 H   0  0  0  0  0  0  0  0  0  0  0  0
  144.9363  134.8497  154.3351 H   0  0  0  0  0  0  0  0  0  0  0  0
  142.6114  134.2115  153.8101 H   0  0  0  0  0  0  0  0  0  0  0  0
  142.4683  135.5669  152.6944 H   0  0  0  0  0  0  0  0  0  0  0  0
  142.6830  135.8571  154.4178 H   0  0  0  0  0  0  0  0  0  0  0  0
  144.8308  136.9421  152.1236 H   0  0  0  0  0  0  0  0  0  0  0  0
  144.6776  137.3335  153.8178 H   0  0  0  0  0  0  0  0  0  0  0  0
  147.0943  136.1378  152.5855 H   0  0  0  0  0  0  0  0  0  0  0  0
  148.8889  136.5783  153.3696 H   0  0  0  0  0  0  0  0  0  0  0  0
  149.0401  138.1685  155.8976 H   0  0  0  0  0  0  0  0  0  0  0  0
  150.2165  138.7110  153.2333 H   0  0  0  0  0  0  0  0  0  0  0  0
  150.1272  139.7824  154.6271 H   0  0  0  0  0  0  0  0  0  0  0  0
  152.5096  138.6843  153.8538 H   0  0  0  0  0  0  0  0  0  0  0  0
  152.1307  138.8455  155.5746 H   0  0  0  0  0  0  0  0  0  0  0  0
  150.8085  136.9163  156.5851 H   0  0  0  0  0  0  0  0  0  0  0  0
  149.3421  134.9548  155.9901 H   0  0  0  0  0  0  0  0  0  0  0  0
  151.0535  134.5862  155.8204 H   0  0  0  0  0  0  0  0  0  0  0  0
  150.0837  134.8996  154.3884 H   0  0  0  0  0  0  0  0  0  0  0  0
  1  2  1  0  0  0  0
  1 20  1  0  0  0  0
  1 21  1  0  0  0  0
  1 22  1  0  0  0  0
  2 19  1  0  0  0  0
  2  3  2  0  0  0  0
  3  4  1  0  0  0  0
  3 23  1  0  0  0  0
  4  5  1  0  0  0  0
  5  6  1  0  0  0  0
  5 19  2  0  0  0  0
  6  7  1  0  0  0  0
  6  8  1  0  0  0  0
  6 24  1  0  0  0  0
  7 25  1  0  0  0  0
  7 26  1  0  0  0  0
  7 27  1  0  0  0  0
  8  9  1  0  0  0  0
  8 28  1  0  0  0  0
  8 29  1  0  0  0  0
  9 10  1  0  0  0  0
  9 30  1  0  0  0  0
 10 11  2  0  0  0  0
 10 12  1  0  0  0  0
 12 13  1  0  0  0  0
 12 31  1  0  0  0  0
 13 17  1  0  0  0  0
 13 14  1  0  0  0  0
 13 32  1  0  0  0  0
 14 15  1  0  0  0  0
 14 33  1  0  0  0  0
 14 34  1  0  0  0  0
 15 16  1  0  0  0  0
 15 35  1  0  0  0  0
 15 36  1  0  0  0  0
 16 17  1  0  0  0  0
 17 18  1  0  0  0  0
 17 37  1  0  0  0  0
 18 38  1  0  0  0  0
 18 39  1  0  0  0  0
 18 40  1  0  0  0  0
M  END
> <s_m_source_file>
AV-unprocessed.smi

> <i_m_source_file_index>
2340

> <i_lp_mmshare_version>
43012

> <i_f3d_flags>
0

> <s_epik_input>
W0NIM11jMVtjSF1zYyhuMSlbQ0BIXShbQ0gzXSlbQ0gyXVtOSF1DKD1PKVtOSF1bQ0BASF0yW0NIMl1bQ0gyXU9bQ0BIXTJbQ0gzXQ==

> <s_epik_cmdline>
J2VwaWtfcHl0aG9uJywgJy1waCcsICc3LjAnLCAnLXRuJywgJzgnLCAnLW1hJywgJzIwMCcsICctbWV0YWxfYmluZGluZycsICctaW1hZScsICc8aW5maWxlLm1hZT4nLCAnLW9tYWUnLCAnPG91dGZpbGUubWFlPic=

> <r_epik_Ionization_Penalty>
0.00156622

> <r_epik_Ionization_Penalty_Charging>
0

> <r_epik_Ionization_Penalty_Neutral>
0.00156622

> <r_epik_State_Penalty>
0.00101902

> <r_epik_Charging_Adjusted_Penalty>
0.00101902

> <i_epik_Tot_Q>
0

> <i_epik_Tot_abs_Q>
0

> <r_epik_Metal_State_Penalty>
-0

> <b_epik_Metal_Only>
0

> <s_lp_Force_Field>
OPLS_2005

> <r_lp_Energy>
6.07196

> <b_lp_Chiralities_Consistent>
1

> <s_lp_Variant>
AV-unprocessed.smi:2340-5

> <Gold.Version>
5.8.1

> <Gold.Id.Protein>
6NUR|6NUR_protein|mol2

> <Gold.PLP.Fitness>
38.7272

> <Gold.PLP.PLP>
-29.1125

> <Gold.PLP.part.hbond>
-2.7832

> <Gold.PLP.part.metal>
0.0000

> <Gold.PLP.part.buried>
-5.4251

> <Gold.PLP.part.nonpolar>
-21.0031

> <Gold.PLP.part.repulsive>
0.3208

> <Gold.PLP.ligand.clash>
0.0000

> <Gold.PLP.ligand.torsion>
0.8468

> <Gold.PLP.Chemscore.Hbond>
2.7433

> <Gold.PLP.Chemscore.CHOScore>
0.9970

> <Gold.PLP.Chemscore.Metal>
0.0000

> <Gold.Chemscore.Hbonds>
donor molecule, donor type, donor heavy atom, donor atom, acceptor molecule, acceptor atom, score
      L1  H     9    30       P1  7948  0.75
      L1  H    12    31       P1  7948  1.00
      P1  H 10752 10765       L1    16  1.00
      L1  C     3    23       P1 10747  0.95

> <Gold.PLP.Chemscore.Internal.Correction>
0.0876

> <Gold.Rescore>
     Score         DG    S(hbond)    S(metal)    S(lipo)     H(rot)  DE(clash)    DE(int)     intcor
     18.52     -19.36       2.75        0.00      73.74       1.53       0.01       0.84       ----

> <Gold.Chemscore.Fitness>
18.5205

> <Gold.Chemscore.DG>
-19.3647

> <Gold.Chemscore.ZeroCoef>
-5.4800

> <Gold.Chemscore.Hbond>
2.7486

> <Gold.Chemscore.Metal>
0.0000

> <Gold.Chemscore.Lipo>
73.7417

> <Gold.Chemscore.Internal_Hbond>
0.0000

> <Gold.Chemscore.DEClash>
0.0060

> <Gold.Chemscore.DEInternal>
0.8383

> <Gold.Chemscore.Rot>
1.5325

> <Gold.Chemscore.Internal.Correction>
   9.000000E+99

> <Gold.Chemscore.Hbonds>
donor molecule, donor type, donor heavy atom, donor atom, acceptor molecule, acceptor atom, score
      L1  H     9    30       P1  7948  0.72
      L1  H    12    31       P1  7948  0.90
      P1  H 10752 10765       L1    16  0.90

> <Gold.Chemscore.Hbond.Weighted>
-9.1803

> <Gold.Chemscore.Metal.Weighted>
-0.0000

> <Gold.Chemscore.Lipo.Weighted>
-8.6278

> <Gold.Chemscore.Internal_Hbond.Weighted>
0.0000

> <Gold.Chemscore.DEClash.Weighted>
0.0060

> <Gold.Chemscore.DEInternal.Weighted>
0.8383

> <Gold.Chemscore.Rot.Weighted>
3.9233

> <Gold.Chemscore.Internal.Correction.Weighted>
   9.000000E+99

> <Gold.Protein.RotatedTorsions>
[ 6907 6896 6895 6894 ] final  170.90 input  -60.11 | X-H torsion
[ 7974 7965 7964 7962 ] final -117.12 input  175.53 | X-H torsion
[ 8008 7997 7996 7995 ] final   20.98 input   59.86 | X-H torsion
[ 10167 10162 10161 10158 ] final   10.50 input  -65.29 | X-H torsion
[ 10718 10713 10712 10709 ] final -172.49 input   66.30 | X-H torsion
[ 10763 10752 10751 10750 ] final -178.67 input  -60.55 | X-H torsion
[ 11005 11000 10999 10996 ] final  137.30 input  -57.11 | X-H torsion

> <Gold.Protein.ActiveResidues>
 VAL166  LYS551  ARG553  GLY616  TRP617  ASP618  TYR619  PRO620  LYS621  CYS622 
 ASP623  PHE694  ASN695  SER759  ASP760  ASP761  ALA762  ILE779  LEU786  VAL792 
 PHE793  MET794  SER795  GLU796  ALA797  LYS798  CYS799  TRP800  GLU811  SER814 

> <Gold.Protein.RotatedAtoms>
  151.8087  133.3379  159.3548 H   0  0  0  0  0  0  0  0  0  0  0  0  # atno 6907 bound_to 6896
  150.7333  134.5685  159.5887 H   0  0  0  0  0  0  0  0  0  0  0  0  # atno 6908 bound_to 6896
  152.3091  134.7521  160.0392 H   0  0  0  0  0  0  0  0  0  0  0  0  # atno 6909 bound_to 6896
  145.0888  140.8476  143.3995 H   0  0  0  0  0  0  0  0  0  0  0  0  # atno 7974 bound_to 7965
  154.9438  140.3056  155.5108 H   0  0  0  0  0  0  0  0  0  0  0  0  # atno 8008 bound_to 7997
  156.2993  140.2331  156.4447 H   0  0  0  0  0  0  0  0  0  0  0  0  # atno 8009 bound_to 7997
  154.8120  140.0428  157.1338 H   0  0  0  0  0  0  0  0  0  0  0  0  # atno 8010 bound_to 7997
  140.6190  143.8245  150.7152 H   0  0  0  0  0  0  0  0  0  0  0  0  # atno 10167 bound_to 10162
  156.7563  130.9397  151.3116 H   0  0  0  0  0  0  0  0  0  0  0  0  # atno 10718 bound_to 10713
  154.5448  135.2808  155.1063 H   0  0  0  0  0  0  0  0  0  0  0  0  # atno 10763 bound_to 10752
  154.2532  135.6335  153.5251 H   0  0  0  0  0  0  0  0  0  0  0  0  # atno 10764 bound_to 10752
  152.9988  135.5587  154.5997 H   0  0  0  0  0  0  0  0  0  0  0  0  # atno 10765 bound_to 10752
  140.0105  134.9441  157.0266 H   0  0  0  0  0  0  0  0  0  0  0  0  # atno 11005 bound_to 11000
  145.1090  139.2770  143.5647 LP  0  0  0  0  0  0  0  0  0  0  0  0  # atno 17320 bound_to 7965
  146.3531  140.0680  142.8625 LP  0  0  0  0  0  0  0  0  0  0  0  0  # atno 17321 bound_to 7965
  140.1831  143.4098  152.1918 LP  0  0  0  0  0  0  0  0  0  0  0  0  # atno 17342 bound_to 10162
  139.5422  144.7267  151.4696 LP  0  0  0  0  0  0  0  0  0  0  0  0  # atno 17343 bound_to 10162
  157.6755  130.9090  150.0139 LP  0  0  0  0  0  0  0  0  0  0  0  0  # atno 17370 bound_to 10713
  156.1368  130.3642  149.9644 LP  0  0  0  0  0  0  0  0  0  0  0  0  # atno 17371 bound_to 10713
  140.4564  134.1529  155.7186 LP  0  0  0  0  0  0  0  0  0  0  0  0  # atno 17394 bound_to 11000
  141.1707  133.8614  157.1579 LP  0  0  0  0  0  0  0  0  0  0  0  0  # atno 17395 bound_to 11000

$$$$
