AV-unprocessed.smi:3281|AV-procd|sdf|12556|dock6
  -GOLD-   2272018473D 1   1.00000     0.00000
 Structure written by MMmdl.
 37 38  0  0  0  0  0  0  0  0  2 V2000
  149.6303  134.9968  154.6046 C   0  0  0  0  0  0  0  0  0  0  0  0
  149.9826  135.7866  155.8695 C   0  0  0  0  0  0  0  0  0  0  0  0
  150.4275  137.1835  155.5863 C   0  0  0  0  0  0  0  0  0  0  0  0
  150.6986  137.7445  154.3627 C   0  0  0  0  0  0  0  0  0  0  0  0
  151.0925  139.0831  154.4299 N   0  0  0  0  0  0  0  0  0  0  0  0
  151.1409  139.5375  155.6839 C   0  0  0  0  0  0  0  0  0  0  0  0
  151.4963  140.9427  156.0365 C   0  0  0  0  0  0  0  0  0  0  0  0
  150.2946  141.7300  156.5734 C   0  0  0  0  0  0  0  0  0  0  0  0
  150.6909  143.1001  156.9605 N   0  3  0  0  0  0  0  0  0  0  0  0
  150.7304  143.3631  158.4167 C   0  0  2  0  0  0  0  0  0  0  0  0
  150.8490  144.8759  158.7086 C   0  0  0  0  0  0  0  0  0  0  0  0
  150.8479  145.1969  160.2128 C   0  0  0  0  0  0  0  0  0  0  0  0
  152.0178  144.5400  160.9571 C   0  0  0  0  0  0  0  0  0  0  0  0
  151.9271  142.7337  160.8450 S   0  0  0  0  0  0  0  0  0  0  0  0
  151.9018  142.5811  159.0384 C   0  0  0  0  0  0  0  0  0  0  0  0
  150.6671  138.3340  156.8764 S   0  0  0  0  0  0  0  0  0  0  0  0
  149.3089  133.9857  154.8554 H   0  0  0  0  0  0  0  0  0  0  0  0
  150.4883  134.9164  153.9367 H   0  0  0  0  0  0  0  0  0  0  0  0
  148.8205  135.4772  154.0547 H   0  0  0  0  0  0  0  0  0  0  0  0
  149.1173  135.8069  156.5328 H   0  0  0  0  0  0  0  0  0  0  0  0
  150.7674  135.2618  156.4151 H   0  0  0  0  0  0  0  0  0  0  0  0
  150.6339  137.2666  153.3962 H   0  0  0  0  0  0  0  0  0  0  0  0
  152.2954  140.9217  156.7784 H   0  0  0  0  0  0  0  0  0  0  0  0
  151.9038  141.4333  155.1512 H   0  0  0  0  0  0  0  0  0  0  0  0
  149.5154  141.7700  155.8122 H   0  0  0  0  0  0  0  0  0  0  0  0
  149.8749  141.2168  157.4398 H   0  0  0  0  0  0  0  0  0  0  0  0
  151.6224  143.2522  156.6005 H   0  0  0  0  0  0  0  0  0  0  0  0
  149.8043  142.9842  158.8526 H   0  0  0  0  0  0  0  0  0  0  0  0
  151.7582  145.2708  158.2530 H   0  0  0  0  0  0  0  0  0  0  0  0
  150.0208  145.4146  158.2492 H   0  0  0  0  0  0  0  0  0  0  0  0
  150.8994  146.2775  160.3489 H   0  0  0  0  0  0  0  0  0  0  0  0
  149.9040  144.8790  160.6578 H   0  0  0  0  0  0  0  0  0  0  0  0
  152.9698  144.8766  160.5448 H   0  0  0  0  0  0  0  0  0  0  0  0
  152.0054  144.8263  162.0090 H   0  0  0  0  0  0  0  0  0  0  0  0
  151.8260  141.5218  158.7905 H   0  0  0  0  0  0  0  0  0  0  0  0
  152.8544  142.9340  158.6413 H   0  0  0  0  0  0  0  0  0  0  0  0
  150.0679  143.7647  156.5241 H   0  0  0  0  0  0  0  0  0  0  0  0
  1  2  1  0  0  0  0
  1 17  1  0  0  0  0
  1 18  1  0  0  0  0
  1 19  1  0  0  0  0
  2  3  1  0  0  0  0
  2 20  1  0  0  0  0
  2 21  1  0  0  0  0
  3 16  1  0  0  0  0
  3  4  2  0  0  0  0
  4  5  1  0  0  0  0
  4 22  1  0  0  0  0
  5  6  2  0  0  0  0
  6  7  1  0  0  0  0
  6 16  1  0  0  0  0
  7  8  1  0  0  0  0
  7 23  1  0  0  0  0
  7 24  1  0  0  0  0
  8  9  1  0  0  0  0
  8 25  1  0  0  0  0
  8 26  1  0  0  0  0
  9 10  1  0  0  0  0
  9 27  1  0  0  0  0
  9 37  1  0  0  0  0
 10 15  1  0  0  0  0
 10 11  1  0  0  0  0
 10 28  1  0  0  0  0
 11 12  1  0  0  0  0
 11 29  1  0  0  0  0
 11 30  1  0  0  0  0
 12 13  1  0  0  0  0
 12 31  1  0  0  0  0
 12 32  1  0  0  0  0
 13 14  1  0  0  0  0
 13 33  1  0  0  0  0
 13 34  1  0  0  0  0
 14 15  1  0  0  0  0
 15 35  1  0  0  0  0
 15 36  1  0  0  0  0
M  CHG  1   9   1
M  END
> <s_m_source_file>
AV-unprocessed.smi

> <i_m_source_file_index>
3281

> <i_lp_mmshare_version>
43012

> <i_f3d_flags>
0

> <s_epik_input>
W0NIM11bQ0gyXWMxW2NIXW5jKHMxKVtDSDJdW0NIMl1bTkhdW0NAQEhdMltDSDJdW0NIMl1bQ0gyXVNbQ0gyXTI=

> <s_epik_cmdline>
J2VwaWtfcHl0aG9uJywgJy1waCcsICc3LjAnLCAnLXRuJywgJzgnLCAnLW1hJywgJzIwMCcsICctbWV0YWxfYmluZGluZycsICctaW1hZScsICc8aW5maWxlLm1hZT4nLCAnLW9tYWUnLCAnPG91dGZpbGUubWFlPic=

> <r_epik_Ionization_Penalty>
0.00827702

> <r_epik_Ionization_Penalty_Charging>
0.00826679

> <r_epik_Ionization_Penalty_Neutral>
1.02314e-05

> <r_epik_State_Penalty>
0.00622064

> <r_epik_Charging_Adjusted_Penalty>
0.0144874

> <i_epik_Tot_Q>
1

> <i_epik_Tot_abs_Q>
1

> <r_epik_Metal_State_Penalty>
0.0062521

> <b_epik_Metal_Only>
0

> <s_lp_Force_Field>
OPLS_2005

> <r_lp_Energy>
-1.10641

> <b_lp_Chiralities_Consistent>
1

> <s_lp_Variant>
AV-unprocessed.smi:3281-1

> <Gold.Version>
5.8.1

> <Gold.Id.Protein>
6NUR|6NUR_protein|mol2

> <Gold.PLP.Fitness>
45.4820

> <Gold.PLP.PLP>
-34.4231

> <Gold.PLP.part.hbond>
-2.0000

> <Gold.PLP.part.metal>
0.0000

> <Gold.PLP.part.buried>
-4.8784

> <Gold.PLP.part.nonpolar>
-27.6690

> <Gold.PLP.part.repulsive>
0.1564

> <Gold.PLP.ligand.clash>
0.0000

> <Gold.PLP.ligand.torsion>
0.5355

> <Gold.PLP.Chemscore.Hbond>
2.9000

> <Gold.PLP.Chemscore.CHOScore>
1.1277

> <Gold.PLP.Chemscore.Metal>
0.0000

> <Gold.Chemscore.Hbonds>
donor molecule, donor type, donor heavy atom, donor atom, acceptor molecule, acceptor atom, score
      L1  H     9    37       P1  8028  2.00
      P1  H  7989  7998       L1     5  0.79
      L1  C     4    22       P1  7948  0.43
      L1  C     4    22       P1  7949  0.63

> <Gold.PLP.Chemscore.Internal.Correction>
0.0468

> <Gold.Rescore>
     Score         DG    S(hbond)    S(metal)    S(lipo)     H(rot)  DE(clash)    DE(int)     intcor
     17.99     -19.39       1.25        0.00     113.24       1.38       0.67       0.73       ----

> <Gold.Chemscore.Fitness>
17.9930

> <Gold.Chemscore.DG>
-19.3934

> <Gold.Chemscore.ZeroCoef>
-5.4800

> <Gold.Chemscore.Hbond>
1.2542

> <Gold.Chemscore.Metal>
0.0000

> <Gold.Chemscore.Lipo>
113.2368

> <Gold.Chemscore.Internal_Hbond>
0.0000

> <Gold.Chemscore.DEClash>
0.6723

> <Gold.Chemscore.DEInternal>
0.7281

> <Gold.Chemscore.Rot>
1.3767

> <Gold.Chemscore.Internal.Correction>
   9.000000E+99

> <Gold.Chemscore.Hbonds>
donor molecule, donor type, donor heavy atom, donor atom, acceptor molecule, acceptor atom, score
      L1  H     9    37       P1  8028  1.00
      P1  H  7989  7998       L1     5  0.15

> <Gold.Chemscore.Hbond.Weighted>
-4.1891

> <Gold.Chemscore.Metal.Weighted>
-0.0000

> <Gold.Chemscore.Lipo.Weighted>
-13.2487

> <Gold.Chemscore.Internal_Hbond.Weighted>
0.0000

> <Gold.Chemscore.DEClash.Weighted>
0.6723

> <Gold.Chemscore.DEInternal.Weighted>
0.7281

> <Gold.Chemscore.Rot.Weighted>
3.5243

> <Gold.Chemscore.Internal.Correction.Weighted>
   9.000000E+99

> <Gold.Protein.RotatedTorsions>
[ 6907 6896 6895 6894 ] final -160.29 input  -60.11 | X-H torsion
[ 7974 7965 7964 7962 ] final  -83.01 input  175.53 | X-H torsion
[ 8008 7997 7996 7995 ] final   47.07 input   59.86 | X-H torsion
[ 10167 10162 10161 10158 ] final   33.25 input  -65.29 | X-H torsion
[ 10718 10713 10712 10709 ] final  -11.18 input   66.30 | X-H torsion
[ 10763 10752 10751 10750 ] final   17.69 input  -60.55 | X-H torsion
[ 11005 11000 10999 10996 ] final -119.51 input  -57.11 | X-H torsion

> <Gold.Protein.ActiveResidues>
 VAL166  LYS551  ARG553  GLY616  TRP617  ASP618  TYR619  PRO620  LYS621  CYS622 
 ASP623  PHE694  ASN695  SER759  ASP760  ASP761  ALA762  ILE779  LEU786  VAL792 
 PHE793  MET794  SER795  GLU796  ALA797  LYS798  CYS799  TRP800  GLU811  SER814 

> <Gold.Protein.RotatedAtoms>
  151.3468  133.3941  159.2676 H   0  0  0  0  0  0  0  0  0  0  0  0  # atno 6907 bound_to 6896
  150.9833  134.9185  159.7867 H   0  0  0  0  0  0  0  0  0  0  0  0  # atno 6908 bound_to 6896
  152.5224  134.3432  159.9277 H   0  0  0  0  0  0  0  0  0  0  0  0  # atno 6909 bound_to 6896
  145.5257  140.9527  143.1630 H   0  0  0  0  0  0  0  0  0  0  0  0  # atno 7974 bound_to 7965
  155.3629  140.3419  155.4241 H   0  0  0  0  0  0  0  0  0  0  0  0  # atno 8008 bound_to 7997
  156.1704  140.1630  156.8492 H   0  0  0  0  0  0  0  0  0  0  0  0  # atno 8009 bound_to 7997
  154.5227  140.0763  156.8184 H   0  0  0  0  0  0  0  0  0  0  0  0  # atno 8010 bound_to 7997
  140.4424  144.1167  150.6176 H   0  0  0  0  0  0  0  0  0  0  0  0  # atno 10167 bound_to 10162
  156.6628  130.4986  149.6025 H   0  0  0  0  0  0  0  0  0  0  0  0  # atno 10718 bound_to 10713
  153.1316  135.6741  153.9169 H   0  0  0  0  0  0  0  0  0  0  0  0  # atno 10763 bound_to 10752
  153.8654  135.3076  155.3441 H   0  0  0  0  0  0  0  0  0  0  0  0  # atno 10764 bound_to 10752
  154.7712  135.4938  153.9734 H   0  0  0  0  0  0  0  0  0  0  0  0  # atno 10765 bound_to 10752
  141.0210  134.0123  157.3282 H   0  0  0  0  0  0  0  0  0  0  0  0  # atno 11005 bound_to 11000
  144.7652  139.6862  143.7218 LP  0  0  0  0  0  0  0  0  0  0  0  0  # atno 17320 bound_to 7965
  146.2077  139.5412  142.9702 LP  0  0  0  0  0  0  0  0  0  0  0  0  # atno 17321 bound_to 7965
  140.4302  143.2571  151.9605 LP  0  0  0  0  0  0  0  0  0  0  0  0  # atno 17342 bound_to 10162
  139.4790  144.5750  151.8026 LP  0  0  0  0  0  0  0  0  0  0  0  0  # atno 17343 bound_to 10162
  156.1998  130.6612  151.1155 LP  0  0  0  0  0  0  0  0  0  0  0  0  # atno 17370 bound_to 10713
  157.7104  131.0737  150.6521 LP  0  0  0  0  0  0  0  0  0  0  0  0  # atno 17371 bound_to 10713
  139.9146  135.0195  156.7831 LP  0  0  0  0  0  0  0  0  0  0  0  0  # atno 17394 bound_to 11000
  140.6572  133.9678  155.7786 LP  0  0  0  0  0  0  0  0  0  0  0  0  # atno 17395 bound_to 11000

$$$$
