AV-unprocessed.smi:1971|AV-procd|sdf|7967|dock3
  -GOLD-   2272010143D 1   1.00000     0.00000
 Structure written by MMmdl.
 43 44  0  0  0  0  0  0  0  0  1 V2000
  151.9855  142.8459  159.3803 C   0  0  0  0  0  0  0  0  0  0  0  0
  151.3815  143.1355  157.9990 C   0  0  0  0  0  0  0  0  0  0  0  0
  150.8355  141.9690  157.3074 N   0  0  0  0  0  0  0  0  0  0  0  0
  150.3415  142.3346  155.9820 C   0  0  0  0  0  0  0  0  0  0  0  0
  149.7504  141.1238  155.2377 C   0  0  0  0  0  0  0  0  0  0  0  0
  150.7367  140.0494  155.0627 N   0  0  0  0  0  0  0  0  0  0  0  0
  150.1907  138.8881  154.3279 C   0  0  1  0  0  0  0  0  0  0  0  0
  151.0472  137.6103  154.4760 C   0  0  0  0  0  0  0  0  0  0  0  0
  148.7324  138.5335  154.7109 C   0  0  0  0  0  0  0  0  0  0  0  0
  148.1455  137.5862  153.7699 N   0  0  0  0  0  0  0  0  0  0  0  0
  146.8887  137.1304  153.8351 C   0  0  0  0  0  0  0  0  0  0  0  0
  146.0815  137.4888  154.6933 O   0  0  0  0  0  0  0  0  0  0  0  0
  146.6433  136.2416  152.8567 N   0  0  0  0  0  0  0  0  0  0  0  0
  145.4412  135.5342  152.5937 C   0  0  0  0  0  0  0  0  0  0  0  0
  144.5963  135.1039  153.5380 N   0  0  0  0  0  0  0  0  0  0  0  0
  143.4946  134.4397  152.9924 C   0  0  0  0  0  0  0  0  0  0  0  0
  143.5179  134.3722  151.6216 C   0  0  0  0  0  0  0  0  0  0  0  0
  144.9307  135.1481  150.9571 S   0  0  0  0  0  0  0  0  0  0  0  0
  151.2352  139.6908  156.3978 C   0  0  0  0  0  0  0  0  0  0  0  0
  151.8242  140.9032  157.1421 C   0  0  0  0  0  0  0  0  0  0  0  0
  152.2803  143.7737  159.8707 H   0  0  0  0  0  0  0  0  0  0  0  0
  152.8747  142.2193  159.3142 H   0  0  0  0  0  0  0  0  0  0  0  0
  151.2652  142.3448  160.0274 H   0  0  0  0  0  0  0  0  0  0  0  0
  150.5839  143.8664  158.1384 H   0  0  0  0  0  0  0  0  0  0  0  0
  152.1280  143.6239  157.3708 H   0  0  0  0  0  0  0  0  0  0  0  0
  149.5745  143.1041  156.0751 H   0  0  0  0  0  0  0  0  0  0  0  0
  151.1475  142.7694  155.3886 H   0  0  0  0  0  0  0  0  0  0  0  0
  148.8779  140.7486  155.7751 H   0  0  0  0  0  0  0  0  0  0  0  0
  149.3969  141.4789  154.2713 H   0  0  0  0  0  0  0  0  0  0  0  0
  150.1804  139.1354  153.2653 H   0  0  0  0  0  0  0  0  0  0  0  0
  150.5598  136.7520  154.0130 H   0  0  0  0  0  0  0  0  0  0  0  0
  151.2208  137.3636  155.5240 H   0  0  0  0  0  0  0  0  0  0  0  0
  152.0161  137.7064  153.9872 H   0  0  0  0  0  0  0  0  0  0  0  0
  148.6793  138.1246  155.7201 H   0  0  0  0  0  0  0  0  0  0  0  0
  148.1224  139.4380  154.7355 H   0  0  0  0  0  0  0  0  0  0  0  0
  148.7484  137.2404  153.0376 H   0  0  0  0  0  0  0  0  0  0  0  0
  147.4101  136.0400  152.2321 H   0  0  0  0  0  0  0  0  0  0  0  0
  142.7386  134.0454  153.6550 H   0  0  0  0  0  0  0  0  0  0  0  0
  142.7921  133.9160  150.9651 H   0  0  0  0  0  0  0  0  0  0  0  0
  150.4337  139.2469  156.9905 H   0  0  0  0  0  0  0  0  0  0  0  0
  152.0225  138.9425  156.3238 H   0  0  0  0  0  0  0  0  0  0  0  0
  152.6938  141.2782  156.6001 H   0  0  0  0  0  0  0  0  0  0  0  0
  152.1830  140.5691  158.1151 H   0  0  0  0  0  0  0  0  0  0  0  0
  1  2  1  0  0  0  0
  1 21  1  0  0  0  0
  1 22  1  0  0  0  0
  1 23  1  0  0  0  0
  2  3  1  0  0  0  0
  2 24  1  0  0  0  0
  2 25  1  0  0  0  0
  3 20  1  0  0  0  0
  3  4  1  0  0  0  0
  4  5  1  0  0  0  0
  4 26  1  0  0  0  0
  4 27  1  0  0  0  0
  5  6  1  0  0  0  0
  5 28  1  0  0  0  0
  5 29  1  0  0  0  0
  6  7  1  0  0  0  0
  6 19  1  0  0  0  0
  7  8  1  0  0  0  0
  7  9  1  0  0  0  0
  7 30  1  0  0  0  0
  8 31  1  0  0  0  0
  8 32  1  0  0  0  0
  8 33  1  0  0  0  0
  9 10  1  0  0  0  0
  9 34  1  0  0  0  0
  9 35  1  0  0  0  0
 10 11  1  0  0  0  0
 10 36  1  0  0  0  0
 11 12  2  0  0  0  0
 11 13  1  0  0  0  0
 13 14  1  0  0  0  0
 13 37  1  0  0  0  0
 14 18  1  0  0  0  0
 14 15  2  0  0  0  0
 15 16  1  0  0  0  0
 16 17  2  0  0  0  0
 16 38  1  0  0  0  0
 17 18  1  0  0  0  0
 17 39  1  0  0  0  0
 19 20  1  0  0  0  0
 19 40  1  0  0  0  0
 19 41  1  0  0  0  0
 20 42  1  0  0  0  0
 20 43  1  0  0  0  0
M  END
> <s_m_source_file>
AV-unprocessed.smi

> <i_m_source_file_index>
1971

> <i_lp_mmshare_version>
43012

> <i_f3d_flags>
0

> <s_epik_input>
W0NIM11bQ0gyXU4xW0NIMl1bQ0gyXU4oW0NIMl1bQ0gyXTEpW0NASF0oW0NIM10pW0NIMl1bTkhdQyg9TylbTkhdYzJuW2NIXVtjSF1zMg==

> <s_epik_cmdline>
J2VwaWtfcHl0aG9uJywgJy1waCcsICc3LjAnLCAnLXRuJywgJzgnLCAnLW1hJywgJzIwMCcsICctbWV0YWxfYmluZGluZycsICctaW1hZScsICc8aW5maWxlLm1hZT4nLCAnLW9tYWUnLCAnPG91dGZpbGUubWFlPic=

> <r_lp_tautomer_probability>
0.999

> <r_epik_Ionization_Penalty>
2.43994

> <r_epik_Ionization_Penalty_Charging>
0

> <r_epik_Ionization_Penalty_Neutral>
2.43994

> <r_epik_State_Penalty>
1.7682

> <r_epik_Charging_Adjusted_Penalty>
1.7682

> <i_epik_Tot_Q>
0

> <i_epik_Tot_abs_Q>
0

> <r_epik_Metal_State_Penalty>
1.80147

> <b_epik_Metal_Only>
0

> <s_lp_Force_Field>
OPLS_2005

> <r_lp_Energy>
42.8393

> <b_lp_Chiralities_Consistent>
1

> <s_lp_Variant>
AV-unprocessed.smi:1971-6

> <Gold.Version>
5.8.1

> <Gold.Id.Protein>
6NUR|6NUR_protein|mol2

> <Gold.PLP.Fitness>
41.0770

> <Gold.PLP.PLP>
-28.4546

> <Gold.PLP.part.hbond>
-2.6666

> <Gold.PLP.part.metal>
0.0000

> <Gold.PLP.part.buried>
-1.3781

> <Gold.PLP.part.nonpolar>
-25.8516

> <Gold.PLP.part.repulsive>
0.2580

> <Gold.PLP.ligand.clash>
0.0000

> <Gold.PLP.ligand.torsion>
0.6466

> <Gold.PLP.Chemscore.Hbond>
2.6080

> <Gold.PLP.Chemscore.CHOScore>
2.0000

> <Gold.PLP.Chemscore.Metal>
0.0000

> <Gold.Chemscore.Hbonds>
donor molecule, donor type, donor heavy atom, donor atom, acceptor molecule, acceptor atom, score
      L1  H    10    36       P1  7948  0.98
      L1  H    13    37       P1  7948  1.00
      P1  H  7989  7998       L1     6  0.60
      L1  C    16    38       P1 10957  0.95
      L1  C    17    39       P1 10186  1.00

> <Gold.PLP.Chemscore.Internal.Correction>
0.0915

> <Gold.Rescore>
     Score         DG    S(hbond)    S(metal)    S(lipo)     H(rot)  DE(clash)    DE(int)     intcor
     15.61     -17.00       1.91        0.00      82.09       1.75       0.00       1.39       ----

> <Gold.Chemscore.Fitness>
15.6090

> <Gold.Chemscore.DG>
-17.0028

> <Gold.Chemscore.ZeroCoef>
-5.4800

> <Gold.Chemscore.Hbond>
1.9135

> <Gold.Chemscore.Metal>
0.0000

> <Gold.Chemscore.Lipo>
82.0921

> <Gold.Chemscore.Internal_Hbond>
0.0000

> <Gold.Chemscore.DEClash>
0.0038

> <Gold.Chemscore.DEInternal>
1.3900

> <Gold.Chemscore.Rot>
1.7473

> <Gold.Chemscore.Internal.Correction>
   9.000000E+99

> <Gold.Chemscore.Hbonds>
donor molecule, donor type, donor heavy atom, donor atom, acceptor molecule, acceptor atom, score
      L1  H    10    36       P1  7948  0.89
      L1  H    13    37       P1  7948  0.92
      P1  H  7989  7998       L1     6  0.01

> <Gold.Chemscore.Hbond.Weighted>
-6.3911

> <Gold.Chemscore.Metal.Weighted>
-0.0000

> <Gold.Chemscore.Lipo.Weighted>
-9.6048

> <Gold.Chemscore.Internal_Hbond.Weighted>
0.0000

> <Gold.Chemscore.DEClash.Weighted>
0.0038

> <Gold.Chemscore.DEInternal.Weighted>
1.3900

> <Gold.Chemscore.Rot.Weighted>
4.4731

> <Gold.Chemscore.Internal.Correction.Weighted>
   9.000000E+99

> <Gold.Protein.RotatedTorsions>
[ 6907 6896 6895 6894 ] final  173.89 input  -60.11 | X-H torsion
[ 7974 7965 7964 7962 ] final   63.63 input  175.53 | X-H torsion
[ 8008 7997 7996 7995 ] final  162.94 input   59.86 | X-H torsion
[ 10167 10162 10161 10158 ] final    3.60 input  -65.29 | X-H torsion
[ 10718 10713 10712 10709 ] final  121.75 input   66.30 | X-H torsion
[ 10763 10752 10751 10750 ] final   30.49 input  -60.55 | X-H torsion
[ 11005 11000 10999 10996 ] final  -50.32 input  -57.11 | X-H torsion

> <Gold.Protein.ActiveResidues>
 VAL166  LYS551  ARG553  GLY616  TRP617  ASP618  TYR619  PRO620  LYS621  CYS622 
 ASP623  PHE694  ASN695  SER759  ASP760  ASP761  ALA762  ILE779  LEU786  VAL792 
 PHE793  MET794  SER795  GLU796  ALA797  LYS798  CYS799  TRP800  GLU811  SER814 

> <Gold.Protein.RotatedAtoms>
  151.7611  133.3334  159.3417 H   0  0  0  0  0  0  0  0  0  0  0  0  # atno 6907 bound_to 6896
  150.7497  134.6104  159.6093 H   0  0  0  0  0  0  0  0  0  0  0  0  # atno 6908 bound_to 6896
  152.3404  134.7143  160.0317 H   0  0  0  0  0  0  0  0  0  0  0  0  # atno 6909 bound_to 6896
  145.8596  139.3306  143.0827 H   0  0  0  0  0  0  0  0  0  0  0  0  # atno 7974 bound_to 7965
  156.1994  140.1737  156.7931 H   0  0  0  0  0  0  0  0  0  0  0  0  # atno 8008 bound_to 7997
  154.5572  140.0706  156.8793 H   0  0  0  0  0  0  0  0  0  0  0  0  # atno 8009 bound_to 7997
  155.2917  140.3356  155.4254 H   0  0  0  0  0  0  0  0  0  0  0  0  # atno 8010 bound_to 7997
  140.6577  143.7384  150.7683 H   0  0  0  0  0  0  0  0  0  0  0  0  # atno 10167 bound_to 10162
  157.5794  131.1076  150.8216 H   0  0  0  0  0  0  0  0  0  0  0  0  # atno 10718 bound_to 10713
  153.0369  135.6463  154.1053 H   0  0  0  0  0  0  0  0  0  0  0  0  # atno 10763 bound_to 10752
  154.0766  135.2876  155.3300 H   0  0  0  0  0  0  0  0  0  0  0  0  # atno 10764 bound_to 10752
  154.6558  135.5409  153.8021 H   0  0  0  0  0  0  0  0  0  0  0  0  # atno 10765 bound_to 10752
  141.0809  133.6653  156.3714 H   0  0  0  0  0  0  0  0  0  0  0  0  # atno 11005 bound_to 11000
  145.9263  140.9080  143.0379 LP  0  0  0  0  0  0  0  0  0  0  0  0  # atno 17320 bound_to 7965
  144.6727  140.1358  143.7440 LP  0  0  0  0  0  0  0  0  0  0  0  0  # atno 17321 bound_to 7965
  140.1047  143.4755  152.2405 LP  0  0  0  0  0  0  0  0  0  0  0  0  # atno 17342 bound_to 10162
  139.5804  144.7507  151.3656 LP  0  0  0  0  0  0  0  0  0  0  0  0  # atno 17343 bound_to 10162
  156.8667  130.5132  149.5299 LP  0  0  0  0  0  0  0  0  0  0  0  0  # atno 17370 bound_to 10713
  156.0839  130.5843  150.9613 LP  0  0  0  0  0  0  0  0  0  0  0  0  # atno 17371 bound_to 10713
  140.5470  134.6064  157.5397 LP  0  0  0  0  0  0  0  0  0  0  0  0  # atno 17394 bound_to 11000
  139.9623  134.7432  156.0211 LP  0  0  0  0  0  0  0  0  0  0  0  0  # atno 17395 bound_to 11000

$$$$
