AV-unprocessed.smi:1780|AV-procd|sdf|7186|dock1
  -GOLD-   22720 8423D 1   1.00000     0.00000
 Structure written by MMmdl.
 44 45  0  0  0  0  0  0  0  0  2 V2000
  151.0187  145.4645  159.6925 C   0  0  0  0  0  0  0  0  0  0  0  0
  152.1865  144.5300  159.3542 C   0  0  0  0  0  0  0  0  0  0  0  0
  151.7491  143.3713  158.6001 N   0  0  0  0  0  0  0  0  0  0  0  0
  151.0824  143.3413  157.3911 C   0  0  0  0  0  0  0  0  0  0  0  0
  150.9013  142.0182  157.1019 C   0  0  0  0  0  0  0  0  0  0  0  0
  150.2722  141.4199  155.9809 N   0  0  0  0  0  0  0  0  0  0  0  0
  149.5378  140.2959  155.9628 C   0  0  0  0  0  0  0  0  0  0  0  0
  149.2922  139.5924  156.9430 O   0  0  0  0  0  0  0  0  0  0  0  0
  149.0859  140.0266  154.7299 N   0  0  0  0  0  0  0  0  0  0  0  0
  148.2435  138.8859  154.3818 C   0  0  0  0  0  0  0  0  0  0  0  0
  147.0790  139.2566  153.4240 C   0  0  1  0  0  0  0  0  0  0  0  0
  146.3514  137.9750  152.9490 C   0  0  0  0  0  0  0  0  0  0  0  0
  146.1679  140.2543  154.0751 N   0  3  0  0  0  0  0  0  0  0  0  0
  145.7821  139.8589  155.4575 C   0  0  0  0  0  0  0  0  0  0  0  0
  144.7733  140.8528  156.0550 C   0  0  0  0  0  0  0  0  0  0  0  0
  145.3405  142.1543  156.0600 O   0  0  0  0  0  0  0  0  0  0  0  0
  145.6303  142.6010  154.7439 C   0  0  0  0  0  0  0  0  0  0  0  0
  146.6542  141.6622  154.0817 C   0  0  0  0  0  0  0  0  0  0  0  0
  151.4806  141.3028  158.1820 C   0  0  0  0  0  0  0  0  0  0  0  0
  151.9937  142.1274  159.0822 N   0  0  0  0  0  0  0  0  0  0  0  0
  151.3673  146.3334  160.2509 H   0  0  0  0  0  0  0  0  0  0  0  0
  150.2698  144.9574  160.3018 H   0  0  0  0  0  0  0  0  0  0  0  0
  150.5281  145.8244  158.7878 H   0  0  0  0  0  0  0  0  0  0  0  0
  152.9372  145.0638  158.7703 H   0  0  0  0  0  0  0  0  0  0  0  0
  152.6781  144.1899  160.2667 H   0  0  0  0  0  0  0  0  0  0  0  0
  150.8068  144.2438  156.8656 H   0  0  0  0  0  0  0  0  0  0  0  0
  150.3868  141.9051  155.1031 H   0  0  0  0  0  0  0  0  0  0  0  0
  149.3377  140.6559  153.9812 H   0  0  0  0  0  0  0  0  0  0  0  0
  148.8787  138.1335  153.9133 H   0  0  0  0  0  0  0  0  0  0  0  0
  147.8855  138.4403  155.3088 H   0  0  0  0  0  0  0  0  0  0  0  0
  147.4930  139.7289  152.5317 H   0  0  0  0  0  0  0  0  0  0  0  0
  147.0421  137.2585  152.5049 H   0  0  0  0  0  0  0  0  0  0  0  0
  145.6136  138.1865  152.1748 H   0  0  0  0  0  0  0  0  0  0  0  0
  145.8475  137.4726  153.7754 H   0  0  0  0  0  0  0  0  0  0  0  0
  145.3386  138.8653  155.4762 H   0  0  0  0  0  0  0  0  0  0  0  0
  146.6723  139.8167  156.0871 H   0  0  0  0  0  0  0  0  0  0  0  0
  143.8380  140.8479  155.4926 H   0  0  0  0  0  0  0  0  0  0  0  0
  144.5305  140.5710  157.0796 H   0  0  0  0  0  0  0  0  0  0  0  0
  144.7130  142.6541  154.1551 H   0  0  0  0  0  0  0  0  0  0  0  0
  146.0310  143.6135  154.7969 H   0  0  0  0  0  0  0  0  0  0  0  0
  147.6086  141.7176  154.6079 H   0  0  0  0  0  0  0  0  0  0  0  0
  146.8163  142.0236  153.0667 H   0  0  0  0  0  0  0  0  0  0  0  0
  151.5468  140.2365  158.3391 H   0  0  0  0  0  0  0  0  0  0  0  0
  145.3208  140.2617  153.5251 H   0  0  0  0  0  0  0  0  0  0  0  0
  1  2  1  0  0  0  0
  1 21  1  0  0  0  0
  1 22  1  0  0  0  0
  1 23  1  0  0  0  0
  2  3  1  0  0  0  0
  2 24  1  0  0  0  0
  2 25  1  0  0  0  0
  3 20  1  0  0  0  0
  3  4  1  0  0  0  0
  4  5  2  0  0  0  0
  4 26  1  0  0  0  0
  5  6  1  0  0  0  0
  5 19  1  0  0  0  0
  6  7  1  0  0  0  0
  6 27  1  0  0  0  0
  7  8  2  0  0  0  0
  7  9  1  0  0  0  0
  9 10  1  0  0  0  0
  9 28  1  0  0  0  0
 10 11  1  0  0  0  0
 10 29  1  0  0  0  0
 10 30  1  0  0  0  0
 11 12  1  0  0  0  0
 11 13  1  0  0  0  0
 11 31  1  0  0  0  0
 12 32  1  0  0  0  0
 12 33  1  0  0  0  0
 12 34  1  0  0  0  0
 13 18  1  0  0  0  0
 13 14  1  0  0  0  0
 13 44  1  0  0  0  0
 14 15  1  0  0  0  0
 14 35  1  0  0  0  0
 14 36  1  0  0  0  0
 15 16  1  0  0  0  0
 15 37  1  0  0  0  0
 15 38  1  0  0  0  0
 16 17  1  0  0  0  0
 17 18  1  0  0  0  0
 17 39  1  0  0  0  0
 17 40  1  0  0  0  0
 18 41  1  0  0  0  0
 18 42  1  0  0  0  0
 19 20  2  0  0  0  0
 19 43  1  0  0  0  0
M  CHG  1  13   1
M  END
> <s_m_source_file>
AV-unprocessed.smi

> <i_m_source_file_index>
1780

> <i_lp_mmshare_version>
43012

> <i_f3d_flags>
0

> <s_epik_input>
W0NIM11bQ0gyXW4xW2NIXWMoW2NIXW4xKVtOSF1DKD1PKVtOSF1bQ0gyXVtDQEhdKFtDSDNdKU4yW0NIMl1bQ0gyXU9bQ0gyXVtDSDJdMg==

> <s_epik_cmdline>
J2VwaWtfcHl0aG9uJywgJy1waCcsICc3LjAnLCAnLXRuJywgJzgnLCAnLW1hJywgJzIwMCcsICctbWV0YWxfYmluZGluZycsICctaW1hZScsICc8aW5maWxlLm1hZT4nLCAnLW9tYWUnLCAnPG91dGZpbGUubWFlPic=

> <r_lp_tautomer_probability>
1

> <r_epik_Ionization_Penalty>
0.64612

> <r_epik_Ionization_Penalty_Charging>
0.645968

> <r_epik_Ionization_Penalty_Neutral>
0.000152026

> <r_epik_State_Penalty>
0.664063

> <r_epik_Charging_Adjusted_Penalty>
1.31003

> <i_epik_Tot_Q>
1

> <i_epik_Tot_abs_Q>
1

> <r_epik_Metal_State_Penalty>
0.664075

> <b_epik_Metal_Only>
0

> <s_lp_Force_Field>
OPLS_2005

> <r_lp_Energy>
24.1412

> <b_lp_Chiralities_Consistent>
1

> <s_lp_Variant>
AV-unprocessed.smi:1780-4

> <Gold.Version>
5.8.1

> <Gold.Id.Protein>
6NUR|6NUR_protein|mol2

> <Gold.PLP.Fitness>
43.9745

> <Gold.PLP.PLP>
-36.5623

> <Gold.PLP.part.hbond>
-1.0000

> <Gold.PLP.part.metal>
0.0000

> <Gold.PLP.part.buried>
-5.2922

> <Gold.PLP.part.nonpolar>
-31.6195

> <Gold.PLP.part.repulsive>
0.4031

> <Gold.PLP.ligand.clash>
0.0000

> <Gold.PLP.ligand.torsion>
0.6660

> <Gold.PLP.Chemscore.Hbond>
2.0000

> <Gold.PLP.Chemscore.CHOScore>
0.8776

> <Gold.PLP.Chemscore.Metal>
0.0000

> <Gold.Chemscore.Hbonds>
donor molecule, donor type, donor heavy atom, donor atom, acceptor molecule, acceptor atom, score
      L1  H    13    44       P1 10175  2.00
      L1  C     4    26       P1  8028  1.00

> <Gold.PLP.Chemscore.Internal.Correction>
0.1115

> <Gold.Rescore>
     Score         DG    S(hbond)    S(metal)    S(lipo)     H(rot)  DE(clash)    DE(int)     intcor
     12.35     -14.78       0.97        0.00      88.32       1.67       0.21       2.22       ----

> <Gold.Chemscore.Fitness>
12.3485

> <Gold.Chemscore.DG>
-14.7802

> <Gold.Chemscore.ZeroCoef>
-5.4800

> <Gold.Chemscore.Hbond>
0.9713

> <Gold.Chemscore.Metal>
0.0000

> <Gold.Chemscore.Lipo>
88.3185

> <Gold.Chemscore.Internal_Hbond>
0.0000

> <Gold.Chemscore.DEClash>
0.2122

> <Gold.Chemscore.DEInternal>
2.2195

> <Gold.Chemscore.Rot>
1.6708

> <Gold.Chemscore.Internal.Correction>
   9.000000E+99

> <Gold.Chemscore.Hbonds>
donor molecule, donor type, donor heavy atom, donor atom, acceptor molecule, acceptor atom, score
      L1  H    13    44       P1 10175  0.99

> <Gold.Chemscore.Hbond.Weighted>
-3.2442

> <Gold.Chemscore.Metal.Weighted>
-0.0000

> <Gold.Chemscore.Lipo.Weighted>
-10.3333

> <Gold.Chemscore.Internal_Hbond.Weighted>
0.0000

> <Gold.Chemscore.DEClash.Weighted>
0.2122

> <Gold.Chemscore.DEInternal.Weighted>
2.2195

> <Gold.Chemscore.Rot.Weighted>
4.2773

> <Gold.Chemscore.Internal.Correction.Weighted>
   9.000000E+99

> <Gold.Protein.RotatedTorsions>
[ 6907 6896 6895 6894 ] final -101.79 input  -60.11 | X-H torsion
[ 7974 7965 7964 7962 ] final  -77.56 input  175.53 | X-H torsion
[ 8008 7997 7996 7995 ] final  -59.06 input   59.86 | X-H torsion
[ 10167 10162 10161 10158 ] final  152.93 input  -65.29 | X-H torsion
[ 10718 10713 10712 10709 ] final  -66.74 input   66.30 | X-H torsion
[ 10763 10752 10751 10750 ] final -145.97 input  -60.55 | X-H torsion
[ 11005 11000 10999 10996 ] final  -12.61 input  -57.11 | X-H torsion

> <Gold.Protein.ActiveResidues>
 VAL166  LYS551  ARG553  GLY616  TRP617  ASP618  TYR619  PRO620  LYS621  CYS622 
 ASP623  PHE694  ASN695  SER759  ASP760  ASP761  ALA762  ILE779  LEU786  VAL792 
 PHE793  MET794  SER795  GLU796  ALA797  LYS798  CYS799  TRP800  GLU811  SER814 

> <Gold.Protein.RotatedAtoms>
  150.7169  134.0680  159.3854 H   0  0  0  0  0  0  0  0  0  0  0  0  # atno 6907 bound_to 6896
  151.8662  135.0504  160.0484 H   0  0  0  0  0  0  0  0  0  0  0  0  # atno 6908 bound_to 6896
  152.2679  133.5320  159.5458 H   0  0  0  0  0  0  0  0  0  0  0  0  # atno 6909 bound_to 6896
  145.5981  140.9415  143.1255 H   0  0  0  0  0  0  0  0  0  0  0  0  # atno 7974 bound_to 7965
  154.4336  140.1070  156.6056 H   0  0  0  0  0  0  0  0  0  0  0  0  # atno 8008 bound_to 7997
  155.5864  140.3491  155.4535 H   0  0  0  0  0  0  0  0  0  0  0  0  # atno 8009 bound_to 7997
  156.0280  140.1254  157.0278 H   0  0  0  0  0  0  0  0  0  0  0  0  # atno 8010 bound_to 7997
  139.4830  144.5316  151.7713 H   0  0  0  0  0  0  0  0  0  0  0  0  # atno 10167 bound_to 10162
  156.0595  130.4267  150.1753 H   0  0  0  0  0  0  0  0  0  0  0  0  # atno 10718 bound_to 10713
  154.8358  135.3399  154.6587 H   0  0  0  0  0  0  0  0  0  0  0  0  # atno 10763 bound_to 10752
  153.7202  135.6958  153.5019 H   0  0  0  0  0  0  0  0  0  0  0  0  # atno 10764 bound_to 10752
  153.2387  135.4392  155.0627 H   0  0  0  0  0  0  0  0  0  0  0  0  # atno 10765 bound_to 10752
  140.7675  133.8465  155.9178 H   0  0  0  0  0  0  0  0  0  0  0  0  # atno 11005 bound_to 11000
  144.7322  139.7693  143.7343 LP  0  0  0  0  0  0  0  0  0  0  0  0  # atno 17320 bound_to 7965
  146.1596  139.4706  142.9996 LP  0  0  0  0  0  0  0  0  0  0  0  0  # atno 17321 bound_to 7965
  140.4843  144.1403  150.5938 LP  0  0  0  0  0  0  0  0  0  0  0  0  # atno 17342 bound_to 10162
  140.4242  143.2597  151.9677 LP  0  0  0  0  0  0  0  0  0  0  0  0  # atno 17343 bound_to 10162
  156.9824  130.9868  151.3434 LP  0  0  0  0  0  0  0  0  0  0  0  0  # atno 17370 bound_to 10713
  157.5593  130.8235  149.8245 LP  0  0  0  0  0  0  0  0  0  0  0  0  # atno 17371 bound_to 10713
  140.9605  134.1662  157.4658 LP  0  0  0  0  0  0  0  0  0  0  0  0  # atno 17394 bound_to 11000
  139.8761  134.9943  156.5686 LP  0  0  0  0  0  0  0  0  0  0  0  0  # atno 17395 bound_to 11000

$$$$
