AV-unprocessed.smi:2770|AV-procd|sdf|10658|dock1
  -GOLD-   2272015103D 1   1.00000     0.00000
 Structure written by MMmdl.
 34 35  0  0  0  0  0  0  0  0  1 V2000
  146.4704  142.8926  154.4026 C   0  0  0  0  0  0  0  0  0  0  0  0
  147.4796  142.1342  155.1256 N   0  0  0  0  0  0  0  0  0  0  0  0
  148.4627  141.4343  154.5413 C   0  0  0  0  0  0  0  0  0  0  0  0
  148.5996  141.3598  153.3196 O   0  0  0  0  0  0  0  0  0  0  0  0
  149.4307  140.7152  155.4877 C   0  0  2  0  0  0  0  0  0  0  0  0
  150.1103  141.6744  156.4902 C   0  0  0  0  0  0  0  0  0  0  0  0
  151.0801  140.9445  157.2974 N   0  0  0  0  0  0  0  0  0  0  0  0
  151.6527  141.7140  158.3199 C   0  0  0  0  0  0  0  0  0  0  0  0
  152.3668  141.0634  159.3479 C   0  0  0  0  0  0  0  0  0  0  0  0
  152.9382  141.8420  160.3729 C   0  0  0  0  0  0  0  0  0  0  0  0
  152.7770  143.2400  160.3341 C   0  0  0  0  0  0  0  0  0  0  0  0
  152.0469  143.8001  159.2651 C   0  0  0  0  0  0  0  0  0  0  0  0
  151.8384  145.2963  159.1642 C   0  0  0  0  0  0  0  0  0  0  0  0
  151.4963  143.0593  158.2786 N   0  0  0  0  0  0  0  0  0  0  0  0
  152.0604  140.2378  156.4832 C   0  0  0  0  0  0  0  0  0  0  0  0
  151.3430  139.3158  155.4827 C   0  0  0  0  0  0  0  0  0  0  0  0
  150.4318  140.0785  154.6956 O   0  0  0  0  0  0  0  0  0  0  0  0
  145.8018  143.3872  155.1069 H   0  0  0  0  0  0  0  0  0  0  0  0
  145.8733  142.2371  153.7676 H   0  0  0  0  0  0  0  0  0  0  0  0
  146.9331  143.6570  153.7768 H   0  0  0  0  0  0  0  0  0  0  0  0
  147.4308  142.1420  156.1341 H   0  0  0  0  0  0  0  0  0  0  0  0
  148.8718  139.9545  156.0368 H   0  0  0  0  0  0  0  0  0  0  0  0
  150.6162  142.4836  155.9606 H   0  0  0  0  0  0  0  0  0  0  0  0
  149.3634  142.1304  157.1415 H   0  0  0  0  0  0  0  0  0  0  0  0
  152.4745  139.9886  159.3530 H   0  0  0  0  0  0  0  0  0  0  0  0
  153.4905  141.3749  161.1749 H   0  0  0  0  0  0  0  0  0  0  0  0
  153.2041  143.8634  161.1058 H   0  0  0  0  0  0  0  0  0  0  0  0
  152.2993  145.8180  160.0033 H   0  0  0  0  0  0  0  0  0  0  0  0
  150.7736  145.5313  159.1607 H   0  0  0  0  0  0  0  0  0  0  0  0
  152.2785  145.6779  158.2426 H   0  0  0  0  0  0  0  0  0  0  0  0
  152.6812  140.9562  155.9459 H   0  0  0  0  0  0  0  0  0  0  0  0
  152.7226  139.6541  157.1237 H   0  0  0  0  0  0  0  0  0  0  0  0
  152.0686  138.8381  154.8243 H   0  0  0  0  0  0  0  0  0  0  0  0
  150.8103  138.5173  156.0020 H   0  0  0  0  0  0  0  0  0  0  0  0
  1  2  1  0  0  0  0
  1 18  1  0  0  0  0
  1 19  1  0  0  0  0
  1 20  1  0  0  0  0
  2  3  1  0  0  0  0
  2 21  1  0  0  0  0
  3  4  2  0  0  0  0
  3  5  1  0  0  0  0
  5 17  1  0  0  0  0
  5  6  1  0  0  0  0
  5 22  1  0  0  0  0
  6  7  1  0  0  0  0
  6 23  1  0  0  0  0
  6 24  1  0  0  0  0
  7  8  1  0  0  0  0
  7 15  1  0  0  0  0
  8 14  1  0  0  0  0
  8  9  2  0  0  0  0
  9 10  1  0  0  0  0
  9 25  1  0  0  0  0
 10 11  2  0  0  0  0
 10 26  1  0  0  0  0
 11 12  1  0  0  0  0
 11 27  1  0  0  0  0
 12 13  1  0  0  0  0
 12 14  2  0  0  0  0
 13 28  1  0  0  0  0
 13 29  1  0  0  0  0
 13 30  1  0  0  0  0
 15 16  1  0  0  0  0
 15 31  1  0  0  0  0
 15 32  1  0  0  0  0
 16 17  1  0  0  0  0
 16 33  1  0  0  0  0
 16 34  1  0  0  0  0
M  END
> <s_m_source_file>
AV-unprocessed.smi

> <i_m_source_file_index>
2770

> <i_lp_mmshare_version>
43012

> <i_f3d_flags>
0

> <s_epik_input>
W0NIM11bTkhdQyg9TylbQ0BASF0xW0NIMl1OKFtDSDJdW0NIMl1PMSljMltjSF1bY0hdW2NIXWMobjIpW0NIM10=

> <s_epik_cmdline>
J2VwaWtfcHl0aG9uJywgJy1waCcsICc3LjAnLCAnLXRuJywgJzgnLCAnLW1hJywgJzIwMCcsICctbWV0YWxfYmluZGluZycsICctaW1hZScsICc8aW5maWxlLm1hZT4nLCAnLW9tYWUnLCAnPG91dGZpbGUubWFlPic=

> <r_lp_tautomer_probability>
1

> <r_epik_Ionization_Penalty>
0.0115449

> <r_epik_Ionization_Penalty_Charging>
0

> <r_epik_Ionization_Penalty_Neutral>
0.0115449

> <r_epik_State_Penalty>
0.00889041

> <r_epik_Charging_Adjusted_Penalty>
0.00889041

> <i_epik_Tot_Q>
0

> <i_epik_Tot_abs_Q>
0

> <r_epik_Metal_State_Penalty>
0.00871946

> <b_epik_Metal_Only>
0

> <s_lp_Force_Field>
OPLS_2005

> <r_lp_Energy>
19.0153

> <b_lp_Chiralities_Consistent>
1

> <s_lp_Variant>
AV-unprocessed.smi:2770-1

> <Gold.Version>
5.8.1

> <Gold.Id.Protein>
6NUR|6NUR_protein|mol2

> <Gold.PLP.Fitness>
42.0909

> <Gold.PLP.PLP>
-36.8081

> <Gold.PLP.part.hbond>
-3.0000

> <Gold.PLP.part.metal>
0.0000

> <Gold.PLP.part.buried>
-4.6607

> <Gold.PLP.part.nonpolar>
-32.3162

> <Gold.PLP.part.repulsive>
2.9832

> <Gold.PLP.ligand.clash>
0.0000

> <Gold.PLP.ligand.torsion>
0.2060

> <Gold.PLP.Chemscore.Hbond>
1.8640

> <Gold.PLP.Chemscore.CHOScore>
0.0000

> <Gold.PLP.Chemscore.Metal>
0.0000

> <Gold.Chemscore.Hbonds>
donor molecule, donor type, donor heavy atom, donor atom, acceptor molecule, acceptor atom, score
      P1  H  7989  7998       L1    17  1.00
      P1  H  8011  8017       L1     4  0.86

> <Gold.PLP.Chemscore.Internal.Correction>
0.1029

> <Gold.Rescore>
     Score         DG    S(hbond)    S(metal)    S(lipo)     H(rot)  DE(clash)    DE(int)     intcor
     16.72     -18.54       1.82        0.00      87.59       1.27       1.73       0.08       ----

> <Gold.Chemscore.Fitness>
16.7239

> <Gold.Chemscore.DG>
-18.5350

> <Gold.Chemscore.ZeroCoef>
-5.4800

> <Gold.Chemscore.Hbond>
1.8164

> <Gold.Chemscore.Metal>
0.0000

> <Gold.Chemscore.Lipo>
87.5895

> <Gold.Chemscore.Internal_Hbond>
0.0000

> <Gold.Chemscore.DEClash>
1.7307

> <Gold.Chemscore.DEInternal>
0.0805

> <Gold.Chemscore.Rot>
1.2734

> <Gold.Chemscore.Internal.Correction>
   9.000000E+99

> <Gold.Chemscore.Hbonds>
donor molecule, donor type, donor heavy atom, donor atom, acceptor molecule, acceptor atom, score
      P1  H  7989  7998       L1    17  0.25
      P1  H  8011  8017       L1     4  0.84

> <Gold.Chemscore.Hbond.Weighted>
-6.0668

> <Gold.Chemscore.Metal.Weighted>
-0.0000

> <Gold.Chemscore.Lipo.Weighted>
-10.2480

> <Gold.Chemscore.Internal_Hbond.Weighted>
0.0000

> <Gold.Chemscore.DEClash.Weighted>
1.7307

> <Gold.Chemscore.DEInternal.Weighted>
0.0805

> <Gold.Chemscore.Rot.Weighted>
3.2598

> <Gold.Chemscore.Internal.Correction.Weighted>
   9.000000E+99

> <Gold.Protein.RotatedTorsions>
[ 6907 6896 6895 6894 ] final -117.77 input  -60.11 | X-H torsion
[ 7974 7965 7964 7962 ] final  -95.88 input  175.53 | X-H torsion
[ 8008 7997 7996 7995 ] final  179.39 input   59.86 | X-H torsion
[ 10167 10162 10161 10158 ] final   79.55 input  -65.29 | X-H torsion
[ 10718 10713 10712 10709 ] final  -60.27 input   66.30 | X-H torsion
[ 10763 10752 10751 10750 ] final   98.35 input  -60.55 | X-H torsion
[ 11005 11000 10999 10996 ] final -179.45 input  -57.11 | X-H torsion

> <Gold.Protein.ActiveResidues>
 VAL166  LYS551  ARG553  GLY616  TRP617  ASP618  TYR619  PRO620  LYS621  CYS622 
 ASP623  PHE694  ASN695  SER759  ASP760  ASP761  ALA762  ILE779  LEU786  VAL792 
 PHE793  MET794  SER795  GLU796  ALA797  LYS798  CYS799  TRP800  GLU811  SER814 

> <Gold.Protein.RotatedAtoms>
  150.8164  133.8330  159.3158 H   0  0  0  0  0  0  0  0  0  0  0  0  # atno 6907 bound_to 6896
  151.6101  135.1039  160.0088 H   0  0  0  0  0  0  0  0  0  0  0  0  # atno 6908 bound_to 6896
  152.4255  133.7147  159.6556 H   0  0  0  0  0  0  0  0  0  0  0  0  # atno 6909 bound_to 6896
  145.3542  140.9481  143.2537 H   0  0  0  0  0  0  0  0  0  0  0  0  # atno 7974 bound_to 7965
  156.0439  140.1310  157.0125 H   0  0  0  0  0  0  0  0  0  0  0  0  # atno 8008 bound_to 7997
  154.4403  140.1024  156.6348 H   0  0  0  0  0  0  0  0  0  0  0  0  # atno 8009 bound_to 7997
  155.5625  140.3465  155.4497 H   0  0  0  0  0  0  0  0  0  0  0  0  # atno 8010 bound_to 7997
  139.9591  144.5973  150.8089 H   0  0  0  0  0  0  0  0  0  0  0  0  # atno 10167 bound_to 10162
  156.1003  130.4187  150.0830 H   0  0  0  0  0  0  0  0  0  0  0  0  # atno 10718 bound_to 10713
  153.2880  135.4151  155.1141 H   0  0  0  0  0  0  0  0  0  0  0  0  # atno 10763 bound_to 10752
  154.8511  135.3511  154.6020 H   0  0  0  0  0  0  0  0  0  0  0  0  # atno 10764 bound_to 10752
  153.6442  135.7055  153.5289 H   0  0  0  0  0  0  0  0  0  0  0  0  # atno 10765 bound_to 10752
  140.4185  134.6627  157.4651 H   0  0  0  0  0  0  0  0  0  0  0  0  # atno 11005 bound_to 11000
  144.8695  139.5059  143.6774 LP  0  0  0  0  0  0  0  0  0  0  0  0  # atno 17320 bound_to 7965
  146.2955  139.7265  142.9130 LP  0  0  0  0  0  0  0  0  0  0  0  0  # atno 17321 bound_to 7965
  140.7559  143.3055  151.2973 LP  0  0  0  0  0  0  0  0  0  0  0  0  # atno 17342 bound_to 10162
  139.6568  144.0262  152.2665 LP  0  0  0  0  0  0  0  0  0  0  0  0  # atno 17343 bound_to 10162
  156.8819  130.9559  151.3598 LP  0  0  0  0  0  0  0  0  0  0  0  0  # atno 17370 bound_to 10713
  157.6171  130.8627  149.9047 LP  0  0  0  0  0  0  0  0  0  0  0  0  # atno 17371 bound_to 10713
  140.0217  134.6537  155.9230 LP  0  0  0  0  0  0  0  0  0  0  0  0  # atno 17394 bound_to 11000
  141.1793  133.6544  156.4956 LP  0  0  0  0  0  0  0  0  0  0  0  0  # atno 17395 bound_to 11000

$$$$
