AV-unprocessed.smi:2224|AV-procd|sdf|8994|dock3
  -GOLD-   2272012203D 1   1.00000     0.00000
 Structure written by MMmdl.
 44 46  0  0  0  0  0  0  0  0  1 V2000
  144.8133  132.7409  150.1728 C   0  0  0  0  0  0  0  0  0  0  0  0
  144.5814  133.7607  151.2677 C   0  0  0  0  0  0  0  0  0  0  0  0
  143.3414  133.8433  151.9298 C   0  0  0  0  0  0  0  0  0  0  0  0
  143.1920  134.8110  152.9427 C   0  0  0  0  0  0  0  0  0  0  0  0
  141.8853  134.9568  153.6936 C   0  0  0  0  0  0  0  0  0  0  0  0
  144.1796  135.6576  153.3048 N   0  0  0  0  0  0  0  0  0  0  0  0
  145.3777  135.5870  152.6738 C   0  0  0  0  0  0  0  0  0  0  0  0
  146.4770  136.4340  152.9742 N   0  0  0  0  0  0  0  0  0  0  0  0
  146.5720  137.3592  153.9451 C   0  0  0  0  0  0  0  0  0  0  0  0
  145.7082  137.6003  154.7889 O   0  0  0  0  0  0  0  0  0  0  0  0
  147.7474  138.0004  153.8892 N   0  0  0  0  0  0  0  0  0  0  0  0
  148.1674  139.0443  154.8193 C   0  0  1  0  0  0  0  0  0  0  0  0
  149.5145  139.6698  154.4242 C   0  0  2  0  0  0  0  0  0  0  0  0
  150.7139  139.4954  155.3161 C   0  0  0  0  0  0  0  0  0  0  0  0
  150.7071  140.7784  156.1519 C   0  0  0  0  0  0  0  0  0  0  0  0
  149.3605  141.2418  156.0872 O   0  0  0  0  0  0  0  0  0  0  0  0
  148.8920  141.0161  154.7599 C   0  0  2  0  0  0  0  0  0  0  0  0
  147.4764  140.4180  154.6167 C   0  0  0  0  0  0  0  0  0  0  0  0
  146.8143  140.6875  153.2577 C   0  0  0  0  0  0  0  0  0  0  0  0
  146.4656  140.8304  155.6885 C   0  0  0  0  0  0  0  0  0  0  0  0
  145.6101  134.6474  151.6445 C   0  0  0  0  0  0  0  0  0  0  0  0
  143.9434  132.0971  150.0391 H   0  0  0  0  0  0  0  0  0  0  0  0
  145.6683  132.1107  150.4188 H   0  0  0  0  0  0  0  0  0  0  0  0
  145.0167  133.2426  149.2264 H   0  0  0  0  0  0  0  0  0  0  0  0
  142.5268  133.1836  151.6686 H   0  0  0  0  0  0  0  0  0  0  0  0
  141.1759  134.1797  153.4075 H   0  0  0  0  0  0  0  0  0  0  0  0
  141.4334  135.9261  153.4816 H   0  0  0  0  0  0  0  0  0  0  0  0
  142.0536  134.8836  154.7684 H   0  0  0  0  0  0  0  0  0  0  0  0
  147.2835  136.3254  152.3777 H   0  0  0  0  0  0  0  0  0  0  0  0
  148.4009  137.7433  153.1643 H   0  0  0  0  0  0  0  0  0  0  0  0
  148.1585  138.7285  155.8651 H   0  0  0  0  0  0  0  0  0  0  0  0
  149.7233  139.5821  153.3564 H   0  0  0  0  0  0  0  0  0  0  0  0
  150.6018  138.6170  155.9524 H   0  0  0  0  0  0  0  0  0  0  0  0
  151.6424  139.3870  154.7551 H   0  0  0  0  0  0  0  0  0  0  0  0
  151.0259  140.6135  157.1812 H   0  0  0  0  0  0  0  0  0  0  0  0
  151.3623  141.5289  155.7069 H   0  0  0  0  0  0  0  0  0  0  0  0
  149.1521  141.8138  154.0624 H   0  0  0  0  0  0  0  0  0  0  0  0
  146.5786  141.7449  153.1336 H   0  0  0  0  0  0  0  0  0  0  0  0
  145.8831  140.1313  153.1448 H   0  0  0  0  0  0  0  0  0  0  0  0
  147.4626  140.4060  152.4275 H   0  0  0  0  0  0  0  0  0  0  0  0
  146.2239  141.8917  155.6235 H   0  0  0  0  0  0  0  0  0  0  0  0
  146.8475  140.6478  156.6933 H   0  0  0  0  0  0  0  0  0  0  0  0
  145.5335  140.2723  155.5959 H   0  0  0  0  0  0  0  0  0  0  0  0
  146.5690  134.6019  151.1485 H   0  0  0  0  0  0  0  0  0  0  0  0
  1  2  1  0  0  0  0
  1 22  1  0  0  0  0
  1 23  1  0  0  0  0
  1 24  1  0  0  0  0
  2 21  1  0  0  0  0
  2  3  2  0  0  0  0
  3  4  1  0  0  0  0
  3 25  1  0  0  0  0
  4  5  1  0  0  0  0
  4  6  2  0  0  0  0
  5 26  1  0  0  0  0
  5 27  1  0  0  0  0
  5 28  1  0  0  0  0
  6  7  1  0  0  0  0
  7  8  1  0  0  0  0
  7 21  2  0  0  0  0
  8  9  1  0  0  0  0
  8 29  1  0  0  0  0
  9 10  2  0  0  0  0
  9 11  1  0  0  0  0
 11 12  1  0  0  0  0
 11 30  1  0  0  0  0
 12 18  1  0  0  0  0
 12 13  1  0  0  0  0
 12 31  1  0  0  0  0
 13 17  1  0  0  0  0
 13 14  1  0  0  0  0
 13 32  1  0  0  0  0
 14 15  1  0  0  0  0
 14 33  1  0  0  0  0
 14 34  1  0  0  0  0
 15 16  1  0  0  0  0
 15 35  1  0  0  0  0
 15 36  1  0  0  0  0
 16 17  1  0  0  0  0
 17 18  1  0  0  0  0
 17 37  1  0  0  0  0
 18 19  1  0  0  0  0
 18 20  1  0  0  0  0
 19 38  1  0  0  0  0
 19 39  1  0  0  0  0
 19 40  1  0  0  0  0
 20 41  1  0  0  0  0
 20 42  1  0  0  0  0
 20 43  1  0  0  0  0
 21 44  1  0  0  0  0
M  END
> <s_m_source_file>
AV-unprocessed.smi

> <i_m_source_file_index>
2224

> <i_lp_mmshare_version>
43012

> <i_f3d_flags>
0

> <s_epik_input>
W0NIM11jMVtjSF1jKFtDSDNdKW5jKFtjSF0xKVtOSF1DKD1PKVtOSF1bQ0BIXTJDKFtDSDNdKShbQ0gzXSlbQ0BIXShbQ0BASF0yMylPW0NIMl1bQ0gyXTM=

> <s_epik_cmdline>
J2VwaWtfcHl0aG9uJywgJy1waCcsICc3LjAnLCAnLXRuJywgJzgnLCAnLW1hJywgJzIwMCcsICctbWV0YWxfYmluZGluZycsICctaW1hZScsICc8aW5maWxlLm1hZT4nLCAnLW9tYWUnLCAnPG91dGZpbGUubWFlPic=

> <r_lp_tautomer_probability>
1

> <r_epik_Ionization_Penalty>
0.000276544

> <r_epik_Ionization_Penalty_Charging>
0

> <r_epik_Ionization_Penalty_Neutral>
0.000276544

> <r_epik_State_Penalty>
-0

> <r_epik_Charging_Adjusted_Penalty>
0

> <i_epik_Tot_Q>
0

> <i_epik_Tot_abs_Q>
0

> <r_epik_Metal_State_Penalty>
-0

> <b_epik_Metal_Only>
0

> <s_lp_Force_Field>
OPLS_2005

> <r_lp_Energy>
38.5894

> <b_lp_Chiralities_Consistent>
1

> <s_lp_Variant>
AV-unprocessed.smi:2224-4

> <Gold.Version>
5.8.1

> <Gold.Id.Protein>
6NUR|6NUR_protein|mol2

> <Gold.PLP.Fitness>
39.7153

> <Gold.PLP.PLP>
-34.0607

> <Gold.PLP.part.hbond>
-2.0000

> <Gold.PLP.part.metal>
0.0000

> <Gold.PLP.part.buried>
-3.1967

> <Gold.PLP.part.nonpolar>
-28.5760

> <Gold.PLP.part.repulsive>
0.2518

> <Gold.PLP.ligand.clash>
0.0000

> <Gold.PLP.ligand.torsion>
0.1041

> <Gold.PLP.Chemscore.Hbond>
1.8960

> <Gold.PLP.Chemscore.CHOScore>
0.0000

> <Gold.PLP.Chemscore.Metal>
0.0000

> <Gold.Chemscore.Hbonds>
donor molecule, donor type, donor heavy atom, donor atom, acceptor molecule, acceptor atom, score
      L1  H     8    29       P1  7948  1.00
      L1  H    11    30       P1  7948  0.84

> <Gold.PLP.Chemscore.Internal.Correction>
0.1749

> <Gold.Rescore>
     Score         DG    S(hbond)    S(metal)    S(lipo)     H(rot)  DE(clash)    DE(int)     intcor
     17.18     -18.60       1.95        0.00      78.35       1.00       0.02       1.39       ----

> <Gold.Chemscore.Fitness>
17.1850

> <Gold.Chemscore.DG>
-18.5976

> <Gold.Chemscore.ZeroCoef>
-5.4800

> <Gold.Chemscore.Hbond>
1.9492

> <Gold.Chemscore.Metal>
0.0000

> <Gold.Chemscore.Lipo>
78.3531

> <Gold.Chemscore.Internal_Hbond>
0.0000

> <Gold.Chemscore.DEClash>
0.0234

> <Gold.Chemscore.DEInternal>
1.3893

> <Gold.Chemscore.Rot>
1.0000

> <Gold.Chemscore.Internal.Correction>
   9.000000E+99

> <Gold.Chemscore.Hbonds>
donor molecule, donor type, donor heavy atom, donor atom, acceptor molecule, acceptor atom, score
      L1  H     8    29       P1  7948  1.00
      L1  H    11    30       P1  7948  0.78

> <Gold.Chemscore.Hbond.Weighted>
-6.5103

> <Gold.Chemscore.Metal.Weighted>
-0.0000

> <Gold.Chemscore.Lipo.Weighted>
-9.1673

> <Gold.Chemscore.Internal_Hbond.Weighted>
0.0000

> <Gold.Chemscore.DEClash.Weighted>
0.0234

> <Gold.Chemscore.DEInternal.Weighted>
1.3893

> <Gold.Chemscore.Rot.Weighted>
2.5600

> <Gold.Chemscore.Internal.Correction.Weighted>
   9.000000E+99

> <Gold.Protein.RotatedTorsions>
[ 6907 6896 6895 6894 ] final  155.65 input  -60.11 | X-H torsion
[ 7974 7965 7964 7962 ] final -112.52 input  175.53 | X-H torsion
[ 8008 7997 7996 7995 ] final  137.92 input   59.86 | X-H torsion
[ 10167 10162 10161 10158 ] final  112.78 input  -65.29 | X-H torsion
[ 10718 10713 10712 10709 ] final    7.52 input   66.30 | X-H torsion
[ 10763 10752 10751 10750 ] final -135.35 input  -60.55 | X-H torsion
[ 11005 11000 10999 10996 ] final   62.12 input  -57.11 | X-H torsion

> <Gold.Protein.ActiveResidues>
 VAL166  LYS551  ARG553  GLY616  TRP617  ASP618  TYR619  PRO620  LYS621  CYS622 
 ASP623  PHE694  ASN695  SER759  ASP760  ASP761  ALA762  ILE779  LEU786  VAL792 
 PHE793  MET794  SER795  GLU796  ALA797  LYS798  CYS799  TRP800  GLU811  SER814 

> <Gold.Protein.RotatedAtoms>
  152.0411  133.3978  159.4336 H   0  0  0  0  0  0  0  0  0  0  0  0  # atno 6907 bound_to 6896
  150.6875  134.3414  159.4879 H   0  0  0  0  0  0  0  0  0  0  0  0  # atno 6908 bound_to 6896
  152.1212  134.9203  160.0613 H   0  0  0  0  0  0  0  0  0  0  0  0  # atno 6909 bound_to 6896
  145.1430  140.8788  143.3691 H   0  0  0  0  0  0  0  0  0  0  0  0  # atno 7974 bound_to 7965
  156.3000  140.2407  156.3988 H   0  0  0  0  0  0  0  0  0  0  0  0  # atno 8008 bound_to 7997
  154.8546  140.0422  157.1646 H   0  0  0  0  0  0  0  0  0  0  0  0  # atno 8009 bound_to 7997
  154.8961  140.2970  155.5347 H   0  0  0  0  0  0  0  0  0  0  0  0  # atno 8010 bound_to 7997
  139.6510  144.7128  151.2048 H   0  0  0  0  0  0  0  0  0  0  0  0  # atno 10167 bound_to 10162
  156.9381  130.5851  149.5651 H   0  0  0  0  0  0  0  0  0  0  0  0  # atno 10718 bound_to 10713
  154.8704  135.3706  154.4884 H   0  0  0  0  0  0  0  0  0  0  0  0  # atno 10763 bound_to 10752
  153.5533  135.7024  153.5586 H   0  0  0  0  0  0  0  0  0  0  0  0  # atno 10764 bound_to 10752
  153.3695  135.4025  155.1742 H   0  0  0  0  0  0  0  0  0  0  0  0  # atno 10765 bound_to 10752
  140.0114  134.6290  155.9775 H   0  0  0  0  0  0  0  0  0  0  0  0  # atno 11005 bound_to 11000
  145.0511  139.3181  143.5928 LP  0  0  0  0  0  0  0  0  0  0  0  0  # atno 17320 bound_to 7965
  146.3503  139.9920  142.8685 LP  0  0  0  0  0  0  0  0  0  0  0  0  # atno 17321 bound_to 7965
  140.7537  143.6150  150.8568 LP  0  0  0  0  0  0  0  0  0  0  0  0  # atno 17342 bound_to 10162
  139.9798  143.5963  152.2946 LP  0  0  0  0  0  0  0  0  0  0  0  0  # atno 17343 bound_to 10162
  156.0417  130.5498  150.8785 LP  0  0  0  0  0  0  0  0  0  0  0  0  # atno 17370 bound_to 10713
  157.5803  131.0946  150.9282 LP  0  0  0  0  0  0  0  0  0  0  0  0  # atno 17371 bound_to 10713
  141.1713  133.6537  156.4664 LP  0  0  0  0  0  0  0  0  0  0  0  0  # atno 17394 bound_to 11000
  140.4548  134.6896  157.5057 LP  0  0  0  0  0  0  0  0  0  0  0  0  # atno 17395 bound_to 11000

$$$$
