AV-unprocessed.smi:663|AV-procd|sdf|3250|dock7
  -GOLD-   22720 0203D 1   1.00000     0.00000
 Structure written by MMmdl.
 29 30  0  0  0  0  0  0  0  0  2 V2000
  150.5205  141.8619  156.5868 N   0  0  0  0  0  0  0  0  0  0  0  0
  151.2210  141.4137  157.6316 C   0  0  0  0  0  0  0  0  0  0  0  0
  151.9519  140.4282  157.5576 O   0  0  0  0  0  0  0  0  0  0  0  0
  151.0720  142.1756  158.9539 C   0  0  0  0  0  0  0  0  0  0  0  0
  152.4113  142.6837  159.5369 C   0  0  1  0  0  0  0  0  0  0  0  0
  153.4909  141.7446  159.2237 N   0  0  0  0  0  0  0  0  0  0  0  0
  154.4035  141.2468  160.0719 C   0  0  0  0  0  0  0  0  0  0  0  0
  154.3959  141.5812  161.2587 O   0  0  0  0  0  0  0  0  0  0  0  0
  155.2640  140.3794  159.4917 N   0  5  0  0  0  0  0  0  0  0  0  0
  155.7119  139.3180  160.1823 C   0  0  0  0  0  0  0  0  0  0  0  0
  156.8686  138.7026  159.8881 N   0  0  0  0  0  0  0  0  0  0  0  0
  157.1433  137.6289  160.7244 N   0  0  0  0  0  0  0  0  0  0  0  0
  156.1783  137.4571  161.6276 C   0  0  0  0  0  0  0  0  0  0  0  0
  154.8428  138.5857  161.5340 S   0  0  0  0  0  0  0  0  0  0  0  0
  152.7150  144.0820  159.0313 C   0  0  0  0  0  0  0  0  0  0  0  0
  151.6538  145.1558  159.0235 C   0  0  0  0  0  0  0  0  0  0  0  0
  152.1533  144.5752  157.7191 C   0  0  0  0  0  0  0  0  0  0  0  0
  150.6114  141.4052  155.6913 H   0  0  0  0  0  0  0  0  0  0  0  0
  149.9248  142.6704  156.6889 H   0  0  0  0  0  0  0  0  0  0  0  0
  150.3797  143.0098  158.8286 H   0  0  0  0  0  0  0  0  0  0  0  0
  150.5999  141.4958  159.6640 H   0  0  0  0  0  0  0  0  0  0  0  0
  152.2994  142.7642  160.6199 H   0  0  0  0  0  0  0  0  0  0  0  0
  153.5500  141.4353  158.2647 H   0  0  0  0  0  0  0  0  0  0  0  0
  156.2511  136.6585  162.3506 H   0  0  0  0  0  0  0  0  0  0  0  0
  153.7244  144.4174  159.2633 H   0  0  0  0  0  0  0  0  0  0  0  0
  150.6520  144.8793  159.3469 H   0  0  0  0  0  0  0  0  0  0  0  0
  151.9626  146.1680  159.2766 H   0  0  0  0  0  0  0  0  0  0  0  0
  152.7955  145.2001  157.1021 H   0  0  0  0  0  0  0  0  0  0  0  0
  151.4815  143.9146  157.1745 H   0  0  0  0  0  0  0  0  0  0  0  0
  1  2  1  0  0  0  0
  1 18  1  0  0  0  0
  1 19  1  0  0  0  0
  2  3  2  0  0  0  0
  2  4  1  0  0  0  0
  4  5  1  0  0  0  0
  4 20  1  0  0  0  0
  4 21  1  0  0  0  0
  5  6  1  0  0  0  0
  5 15  1  0  0  0  0
  5 22  1  0  0  0  0
  6  7  1  0  0  0  0
  6 23  1  0  0  0  0
  7  8  2  0  0  0  0
  7  9  1  0  0  0  0
  9 10  1  0  0  0  0
 10 14  1  0  0  0  0
 10 11  2  0  0  0  0
 11 12  1  0  0  0  0
 12 13  2  0  0  0  0
 13 14  1  0  0  0  0
 13 24  1  0  0  0  0
 15 17  1  0  0  0  0
 15 16  1  0  0  0  0
 15 25  1  0  0  0  0
 16 17  1  0  0  0  0
 16 26  1  0  0  0  0
 16 27  1  0  0  0  0
 17 28  1  0  0  0  0
 17 29  1  0  0  0  0
M  CHG  1   9  -1
M  END
> <s_m_source_file>
AV-unprocessed.smi

> <i_m_source_file_index>
663

> <i_lp_mmshare_version>
43012

> <i_f3d_flags>
0

> <s_epik_input>
W05IMl1DKD1PKVtDSDJdW0NAQEhdKFtDSF0xW0NIMl1bQ0gyXTEpW05IXUMoPU8pW05IXWMybm5bY0hdczI=

> <s_epik_cmdline>
J2VwaWtfcHl0aG9uJywgJy1waCcsICc3LjAnLCAnLXRuJywgJzgnLCAnLW1hJywgJzIwMCcsICctbWV0YWxfYmluZGluZycsICctaW1hZScsICc8aW5maWxlLm1hZT4nLCAnLW9tYWUnLCAnPG91dGZpbGUubWFlPic=

> <r_lp_tautomer_probability>
1

> <r_epik_Ionization_Penalty>
4.41895

> <r_epik_Ionization_Penalty_Charging>
4.37725

> <r_epik_Ionization_Penalty_Neutral>
0.0416999

> <r_epik_State_Penalty>
4.37688

> <r_epik_Charging_Adjusted_Penalty>
8.75413

> <i_epik_Tot_Q>
-1

> <i_epik_Tot_abs_Q>
1

> <r_epik_Metal_State_Penalty>
0.761195

> <b_epik_Metal_Only>
1

> <s_lp_Force_Field>
OPLS_2005

> <r_lp_Energy>
7.27665

> <b_lp_Chiralities_Consistent>
1

> <s_lp_Variant>
AV-unprocessed.smi:663-4

> <Gold.Version>
5.8.1

> <Gold.Id.Protein>
6NUR|6NUR_protein|mol2

> <Gold.PLP.Fitness>
38.1871

> <Gold.PLP.PLP>
-31.1473

> <Gold.PLP.part.hbond>
-2.0000

> <Gold.PLP.part.metal>
0.0000

> <Gold.PLP.part.buried>
-4.3688

> <Gold.PLP.part.nonpolar>
-24.5183

> <Gold.PLP.part.repulsive>
0.1971

> <Gold.PLP.ligand.clash>
0.0000

> <Gold.PLP.ligand.torsion>
1.4610

> <Gold.PLP.Chemscore.Hbond>
2.9440

> <Gold.PLP.Chemscore.CHOScore>
0.0000

> <Gold.PLP.Chemscore.Metal>
0.0000

> <Gold.Chemscore.Hbonds>
donor molecule, donor type, donor heavy atom, donor atom, acceptor molecule, acceptor atom, score
      P1  H  7997  8010       L1     9  1.09

> <Gold.PLP.Chemscore.Internal.Correction>
1.1299

> <Gold.Rescore>
     Score         DG    S(hbond)    S(metal)    S(lipo)     H(rot)  DE(clash)    DE(int)     intcor
     10.98     -13.28       1.92        0.00      66.39       2.49       0.03       2.28       ----

> <Gold.Chemscore.Fitness>
10.9797

> <Gold.Chemscore.DG>
-13.2844

> <Gold.Chemscore.ZeroCoef>
-5.4800

> <Gold.Chemscore.Hbond>
1.9168

> <Gold.Chemscore.Metal>
0.0000

> <Gold.Chemscore.Lipo>
66.3861

> <Gold.Chemscore.Internal_Hbond>
0.0000

> <Gold.Chemscore.DEClash>
0.0253

> <Gold.Chemscore.DEInternal>
2.2794

> <Gold.Chemscore.Rot>
2.4863

> <Gold.Chemscore.Internal.Correction>
   9.000000E+99

> <Gold.Chemscore.Hbonds>
donor molecule, donor type, donor heavy atom, donor atom, acceptor molecule, acceptor atom, score
      L1  H     1    19       P1  8028  0.01
      P1  H  7997  8010       L1     9  0.45

> <Gold.Chemscore.Hbond.Weighted>
-6.4021

> <Gold.Chemscore.Metal.Weighted>
-0.0000

> <Gold.Chemscore.Lipo.Weighted>
-7.7672

> <Gold.Chemscore.Internal_Hbond.Weighted>
0.0000

> <Gold.Chemscore.DEClash.Weighted>
0.0253

> <Gold.Chemscore.DEInternal.Weighted>
2.2794

> <Gold.Chemscore.Rot.Weighted>
6.3648

> <Gold.Chemscore.Internal.Correction.Weighted>
   9.000000E+99

> <Gold.Protein.RotatedTorsions>
[ 6907 6896 6895 6894 ] final -133.62 input  -60.11 | X-H torsion
[ 7974 7965 7964 7962 ] final  112.38 input  175.53 | X-H torsion
[ 8008 7997 7996 7995 ] final   -3.67 input   59.86 | X-H torsion
[ 10167 10162 10161 10158 ] final   -8.70 input  -65.29 | X-H torsion
[ 10718 10713 10712 10709 ] final -149.33 input   66.30 | X-H torsion
[ 10763 10752 10751 10750 ] final -174.26 input  -60.55 | X-H torsion
[ 11005 11000 10999 10996 ] final  151.39 input  -57.11 | X-H torsion

> <Gold.Protein.ActiveResidues>
 VAL166  LYS551  ARG553  GLY616  TRP617  ASP618  TYR619  PRO620  LYS621  CYS622 
 ASP623  PHE694  ASN695  SER759  ASP760  ASP761  ALA762  ILE779  LEU786  VAL792 
 PHE793  MET794  SER795  GLU796  ALA797  LYS798  CYS799  TRP800  GLU811  SER814 

> <Gold.Protein.RotatedAtoms>
  150.9762  133.6293  159.2729 H   0  0  0  0  0  0  0  0  0  0  0  0  # atno 6907 bound_to 6896
  151.3564  135.0894  159.9430 H   0  0  0  0  0  0  0  0  0  0  0  0  # atno 6908 bound_to 6896
  152.5200  133.9344  159.7650 H   0  0  0  0  0  0  0  0  0  0  0  0  # atno 6909 bound_to 6896
  145.2303  139.2822  143.4171 H   0  0  0  0  0  0  0  0  0  0  0  0  # atno 7974 bound_to 7965
  154.6224  140.2503  155.7533 H   0  0  0  0  0  0  0  0  0  0  0  0  # atno 8008 bound_to 7997
  156.2434  140.2924  156.0457 H   0  0  0  0  0  0  0  0  0  0  0  0  # atno 8009 bound_to 7997
  155.1876  140.0390  157.2884 H   0  0  0  0  0  0  0  0  0  0  0  0  # atno 8010 bound_to 7997
  140.7066  143.5939  150.8865 H   0  0  0  0  0  0  0  0  0  0  0  0  # atno 10167 bound_to 10162
  156.4317  130.8079  151.2306 H   0  0  0  0  0  0  0  0  0  0  0  0  # atno 10718 bound_to 10713
  154.5983  135.2852  155.0563 H   0  0  0  0  0  0  0  0  0  0  0  0  # atno 10763 bound_to 10752
  154.1837  135.6452  153.5045 H   0  0  0  0  0  0  0  0  0  0  0  0  # atno 10764 bound_to 10752
  153.0147  135.5430  154.6692 H   0  0  0  0  0  0  0  0  0  0  0  0  # atno 10765 bound_to 10752
  140.1214  134.8861  157.2078 H   0  0  0  0  0  0  0  0  0  0  0  0  # atno 11005 bound_to 11000
  146.3354  140.2636  142.8603 LP  0  0  0  0  0  0  0  0  0  0  0  0  # atno 17320 bound_to 7965
  144.9682  140.8343  143.5471 LP  0  0  0  0  0  0  0  0  0  0  0  0  # atno 17321 bound_to 7965
  139.9664  143.6105  152.2987 LP  0  0  0  0  0  0  0  0  0  0  0  0  # atno 17342 bound_to 10162
  139.6676  144.7662  151.1843 LP  0  0  0  0  0  0  0  0  0  0  0  0  # atno 17343 bound_to 10162
  157.7508  131.0196  150.3674 LP  0  0  0  0  0  0  0  0  0  0  0  0  # atno 17370 bound_to 10713
  156.4013  130.3916  149.6958 LP  0  0  0  0  0  0  0  0  0  0  0  0  # atno 17371 bound_to 10713
  140.2960  134.3186  155.7302 LP  0  0  0  0  0  0  0  0  0  0  0  0  # atno 17394 bound_to 11000
  141.2152  133.7563  156.9571 LP  0  0  0  0  0  0  0  0  0  0  0  0  # atno 17395 bound_to 11000

$$$$
