AV-unprocessed.smi:2986|AV-procd|sdf|11381|dock3
  -GOLD-   2272016303D 1   1.00000     0.00000
 Structure written by MMmdl.
 42 44  0  0  0  0  0  0  0  0  1 V2000
  156.8832  139.9838  159.7112 C   0  0  0  0  0  0  0  0  0  0  0  0
  155.5258  139.6799  159.4439 O   0  0  0  0  0  0  0  0  0  0  0  0
  154.6470  140.2268  160.4117 C   0  0  0  0  0  0  0  0  0  0  0  0
  153.2377  139.6783  160.1623 C   0  0  0  0  0  0  0  0  0  0  0  0
  152.4400  140.5929  159.3617 N   0  0  0  0  0  0  0  0  0  0  0  0
  151.7622  140.3270  158.2187 C   0  0  0  0  0  0  0  0  0  0  0  0
  151.7530  138.7189  157.4933 S   0  0  0  0  0  0  0  0  0  0  0  0
  149.9586  138.4134  157.5362 C   0  0  0  0  0  0  0  0  0  0  0  0
  149.5298  137.4078  158.6076 C   0  0  0  0  0  0  0  0  0  0  0  0
  150.1975  136.3889  158.7772 O   0  0  0  0  0  0  0  0  0  0  0  0
  148.4256  137.7276  159.3069 N   0  0  0  0  0  0  0  0  0  0  0  0
  147.7526  136.9650  160.2947 C   0  0  0  0  0  0  0  0  0  0  0  0
  147.5558  135.5535  160.2839 C   0  0  0  0  0  0  0  0  0  0  0  0
  146.8609  135.3327  161.4394 C   0  0  0  0  0  0  0  0  0  0  0  0
  146.3196  134.1000  162.0777 C   0  0  0  0  0  0  0  0  0  0  0  0
  146.6512  136.5046  162.0975 O   0  0  0  0  0  0  0  0  0  0  0  0
  147.2263  137.5443  161.3578 N   0  0  0  0  0  0  0  0  0  0  0  0
  151.0998  141.3539  157.6863 N   0  0  0  0  0  0  0  0  0  0  0  0
  151.3766  142.3832  158.5649 C   0  0  0  0  0  0  0  0  0  0  0  0
  150.9654  143.7353  158.5557 C   0  0  0  0  0  0  0  0  0  0  0  0
  151.3853  144.6158  159.5743 C   0  0  0  0  0  0  0  0  0  0  0  0
  152.2208  144.1583  160.6140 C   0  0  0  0  0  0  0  0  0  0  0  0
  152.6409  142.8146  160.6431 C   0  0  0  0  0  0  0  0  0  0  0  0
  152.2178  141.9400  159.6247 C   0  0  0  0  0  0  0  0  0  0  0  0
  157.5151  139.5493  158.9366 H   0  0  0  0  0  0  0  0  0  0  0  0
  157.1969  139.5730  160.6719 H   0  0  0  0  0  0  0  0  0  0  0  0
  157.0526  141.0613  159.7183 H   0  0  0  0  0  0  0  0  0  0  0  0
  154.9814  139.9603  161.4158 H   0  0  0  0  0  0  0  0  0  0  0  0
  154.6467  141.3158  160.3408 H   0  0  0  0  0  0  0  0  0  0  0  0
  153.2866  138.7101  159.6647 H   0  0  0  0  0  0  0  0  0  0  0  0
  152.7273  139.5072  161.1106 H   0  0  0  0  0  0  0  0  0  0  0  0
  149.4419  139.3612  157.6931 H   0  0  0  0  0  0  0  0  0  0  0  0
  149.6456  138.0426  156.5599 H   0  0  0  0  0  0  0  0  0  0  0  0
  147.9856  138.6037  159.0651 H   0  0  0  0  0  0  0  0  0  0  0  0
  147.8646  134.8131  159.5616 H   0  0  0  0  0  0  0  0  0  0  0  0
  146.5933  133.2132  161.5058 H   0  0  0  0  0  0  0  0  0  0  0  0
  145.2320  134.1413  162.1374 H   0  0  0  0  0  0  0  0  0  0  0  0
  146.7103  133.9847  163.0889 H   0  0  0  0  0  0  0  0  0  0  0  0
  150.3258  144.0957  157.7636 H   0  0  0  0  0  0  0  0  0  0  0  0
  151.0648  145.6471  159.5576 H   0  0  0  0  0  0  0  0  0  0  0  0
  152.5384  144.8396  161.3898 H   0  0  0  0  0  0  0  0  0  0  0  0
  153.2808  142.4614  161.4382 H   0  0  0  0  0  0  0  0  0  0  0  0
  1  2  1  0  0  0  0
  1 25  1  0  0  0  0
  1 26  1  0  0  0  0
  1 27  1  0  0  0  0
  2  3  1  0  0  0  0
  3  4  1  0  0  0  0
  3 28  1  0  0  0  0
  3 29  1  0  0  0  0
  4  5  1  0  0  0  0
  4 30  1  0  0  0  0
  4 31  1  0  0  0  0
  5 24  1  0  0  0  0
  5  6  1  0  0  0  0
  6  7  1  0  0  0  0
  6 18  2  0  0  0  0
  7  8  1  0  0  0  0
  8  9  1  0  0  0  0
  8 32  1  0  0  0  0
  8 33  1  0  0  0  0
  9 10  2  0  0  0  0
  9 11  1  0  0  0  0
 11 12  1  0  0  0  0
 11 34  1  0  0  0  0
 12 17  2  0  0  0  0
 12 13  1  0  0  0  0
 13 14  2  0  0  0  0
 13 35  1  0  0  0  0
 14 15  1  0  0  0  0
 14 16  1  0  0  0  0
 15 36  1  0  0  0  0
 15 37  1  0  0  0  0
 15 38  1  0  0  0  0
 16 17  1  0  0  0  0
 18 19  1  0  0  0  0
 19 24  2  0  0  0  0
 19 20  1  0  0  0  0
 20 21  2  0  0  0  0
 20 39  1  0  0  0  0
 21 22  1  0  0  0  0
 21 40  1  0  0  0  0
 22 23  2  0  0  0  0
 22 41  1  0  0  0  0
 23 24  1  0  0  0  0
 23 42  1  0  0  0  0
M  END
> <s_m_source_file>
AV-unprocessed.smi

> <i_m_source_file_index>
2986

> <i_lp_mmshare_version>
43012

> <i_f3d_flags>
0

> <s_epik_input>
W2NIXTFbY0hdW2NIXVtjSF1jKGMxMiluKFtDSDJdW0NIMl1PW0NIM10pYyhuMilTW0NIMl1DKD1PKVtOSF1jM1tjSF1jKFtDSDNdKW9uMw==

> <s_epik_cmdline>
J2VwaWtfcHl0aG9uJywgJy1waCcsICc3LjAnLCAnLXRuJywgJzgnLCAnLW1hJywgJzIwMCcsICctbWV0YWxfYmluZGluZycsICctaW1hZScsICc8aW5maWxlLm1hZT4nLCAnLW9tYWUnLCAnPG91dGZpbGUubWFlPic=

> <r_epik_Ionization_Penalty>
0.0256487

> <r_epik_Ionization_Penalty_Charging>
0

> <r_epik_Ionization_Penalty_Neutral>
0.0256487

> <r_epik_State_Penalty>
0.0204505

> <r_epik_Charging_Adjusted_Penalty>
0.0204505

> <i_epik_Tot_Q>
0

> <i_epik_Tot_abs_Q>
0

> <r_epik_Metal_State_Penalty>
0.237509

> <b_epik_Metal_Only>
0

> <s_lp_Force_Field>
OPLS_2005

> <r_lp_Energy>
8.97746

> <b_lp_Chiralities_Consistent>
1

> <s_lp_Variant>
AV-unprocessed.smi:2986-1

> <Gold.Version>
5.8.1

> <Gold.Id.Protein>
6NUR|6NUR_protein|mol2

> <Gold.PLP.Fitness>
55.0624

> <Gold.PLP.PLP>
-46.1267

> <Gold.PLP.part.hbond>
-4.0000

> <Gold.PLP.part.metal>
0.0000

> <Gold.PLP.part.buried>
-7.0026

> <Gold.PLP.part.nonpolar>
-35.8904

> <Gold.PLP.part.repulsive>
0.2558

> <Gold.PLP.ligand.clash>
0.0000

> <Gold.PLP.ligand.torsion>
1.1551

> <Gold.PLP.Chemscore.Hbond>
3.6880

> <Gold.PLP.Chemscore.CHOScore>
0.0000

> <Gold.PLP.Chemscore.Metal>
0.0000

> <Gold.Chemscore.Hbonds>
donor molecule, donor type, donor heavy atom, donor atom, acceptor molecule, acceptor atom, score
      P1  H  6896  6907       L1    10  1.00
      P1  H  6931  6943       L1    17  0.38
      P1  H  6934  6947       L1    17  0.98
      P1  H  7997  8009       L1     2  0.81

> <Gold.PLP.Chemscore.Internal.Correction>
0.1820

> <Gold.Rescore>
     Score         DG    S(hbond)    S(metal)    S(lipo)     H(rot)  DE(clash)    DE(int)     intcor
     21.52     -22.82       3.27        0.00     104.67       2.28       0.01       1.29       ----

> <Gold.Chemscore.Fitness>
21.5186

> <Gold.Chemscore.DG>
-22.8192

> <Gold.Chemscore.ZeroCoef>
-5.4800

> <Gold.Chemscore.Hbond>
3.2727

> <Gold.Chemscore.Metal>
0.0000

> <Gold.Chemscore.Lipo>
104.6700

> <Gold.Chemscore.Internal_Hbond>
0.0000

> <Gold.Chemscore.DEClash>
0.0135

> <Gold.Chemscore.DEInternal>
1.2871

> <Gold.Chemscore.Rot>
2.2804

> <Gold.Chemscore.Internal.Correction>
   9.000000E+99

> <Gold.Chemscore.Hbonds>
donor molecule, donor type, donor heavy atom, donor atom, acceptor molecule, acceptor atom, score
      P1  H  6896  6907       L1    10  0.98
      P1  H  6931  6943       L1    17  0.02
      P1  H  6934  6947       L1    17  0.35
      P1  H  7997  8009       L1     2  0.20

> <Gold.Chemscore.Hbond.Weighted>
-10.9307

> <Gold.Chemscore.Metal.Weighted>
-0.0000

> <Gold.Chemscore.Lipo.Weighted>
-12.2464

> <Gold.Chemscore.Internal_Hbond.Weighted>
0.0000

> <Gold.Chemscore.DEClash.Weighted>
0.0135

> <Gold.Chemscore.DEInternal.Weighted>
1.2871

> <Gold.Chemscore.Rot.Weighted>
5.8379

> <Gold.Chemscore.Internal.Correction.Weighted>
   9.000000E+99

> <Gold.Protein.RotatedTorsions>
[ 6907 6896 6895 6894 ] final  -52.62 input  -60.11 | X-H torsion
[ 7974 7965 7964 7962 ] final  -97.04 input  175.53 | X-H torsion
[ 8008 7997 7996 7995 ] final   99.70 input   59.86 | X-H torsion
[ 10167 10162 10161 10158 ] final  -54.72 input  -65.29 | X-H torsion
[ 10718 10713 10712 10709 ] final   39.88 input   66.30 | X-H torsion
[ 10763 10752 10751 10750 ] final  -28.01 input  -60.55 | X-H torsion
[ 11005 11000 10999 10996 ] final -103.81 input  -57.11 | X-H torsion

> <Gold.Protein.ActiveResidues>
 VAL166  LYS551  ARG553  GLY616  TRP617  ASP618  TYR619  PRO620  LYS621  CYS622 
 ASP623  PHE694  ASN695  SER759  ASP760  ASP761  ALA762  ILE779  LEU786  VAL792 
 PHE793  MET794  SER795  GLU796  ALA797  LYS798  CYS799  TRP800  GLU811  SER814 

> <Gold.Protein.RotatedAtoms>
  150.8501  134.7823  159.7001 H   0  0  0  0  0  0  0  0  0  0  0  0  # atno 6907 bound_to 6896
  152.4568  134.5271  159.9809 H   0  0  0  0  0  0  0  0  0  0  0  0  # atno 6908 bound_to 6896
  151.5394  133.3397  159.2968 H   0  0  0  0  0  0  0  0  0  0  0  0  # atno 6909 bound_to 6896
  145.3390  140.9456  143.2619 H   0  0  0  0  0  0  0  0  0  0  0  0  # atno 7974 bound_to 7965
  156.1131  140.3224  155.8101 H   0  0  0  0  0  0  0  0  0  0  0  0  # atno 8008 bound_to 7997
  155.4638  140.0541  157.3005 H   0  0  0  0  0  0  0  0  0  0  0  0  # atno 8009 bound_to 7997
  154.4774  140.2038  155.9860 H   0  0  0  0  0  0  0  0  0  0  0  0  # atno 8010 bound_to 7997
  140.6415  143.2510  151.4976 H   0  0  0  0  0  0  0  0  0  0  0  0  # atno 10167 bound_to 10162
  157.3757  130.7725  149.7153 H   0  0  0  0  0  0  0  0  0  0  0  0  # atno 10718 bound_to 10713
  153.7413  135.6932  153.4966 H   0  0  0  0  0  0  0  0  0  0  0  0  # atno 10763 bound_to 10752
  153.2067  135.4417  155.0330 H   0  0  0  0  0  0  0  0  0  0  0  0  # atno 10764 bound_to 10752
  154.8219  135.3426  154.6938 H   0  0  0  0  0  0  0  0  0  0  0  0  # atno 10765 bound_to 10752
  141.1129  133.8671  157.1533 H   0  0  0  0  0  0  0  0  0  0  0  0  # atno 11005 bound_to 11000
  144.8805  139.4911  143.6725 LP  0  0  0  0  0  0  0  0  0  0  0  0  # atno 17320 bound_to 7965
  146.3015  139.7442  142.9088 LP  0  0  0  0  0  0  0  0  0  0  0  0  # atno 17321 bound_to 7965
  139.5624  144.2123  152.1712 LP  0  0  0  0  0  0  0  0  0  0  0  0  # atno 17342 bound_to 10162
  140.1395  144.5215  150.6752 LP  0  0  0  0  0  0  0  0  0  0  0  0  # atno 17343 bound_to 10162
  155.9765  130.4075  150.3777 LP  0  0  0  0  0  0  0  0  0  0  0  0  # atno 17370 bound_to 10713
  157.1874  131.0407  151.2717 LP  0  0  0  0  0  0  0  0  0  0  0  0  # atno 17371 bound_to 10713
  140.0033  135.0019  157.0237 LP  0  0  0  0  0  0  0  0  0  0  0  0  # atno 17394 bound_to 11000
  140.4726  134.1370  155.7205 LP  0  0  0  0  0  0  0  0  0  0  0  0  # atno 17395 bound_to 11000

$$$$
