AV-unprocessed.smi:1166|AV-procd|sdf|4935|dock2
  -GOLD-   22720 3523D 1   1.00000     0.00000
 Structure written by MMmdl.
 47 48  0  0  0  0  0  0  0  0  2 V2000
  151.9196  145.8506  159.7169 C   0  0  0  0  0  0  0  0  0  0  0  0
  152.5114  144.6124  159.2274 N   0  0  0  0  0  0  0  0  0  0  0  0
  152.7730  144.4341  157.8034 C   0  0  0  0  0  0  0  0  0  0  0  0
  152.9061  143.6134  160.1433 C   0  0  0  0  0  0  0  0  0  0  0  0
  152.7066  143.7199  161.5413 C   0  0  0  0  0  0  0  0  0  0  0  0
  153.1295  142.6814  162.3966 C   0  0  0  0  0  0  0  0  0  0  0  0
  153.7551  141.5336  161.8487 C   0  0  0  0  0  0  0  0  0  0  0  0
  154.2289  140.4235  162.6026 N   0  0  0  0  0  0  0  0  0  0  0  0
  154.2104  139.1123  162.3047 C   0  0  0  0  0  0  0  0  0  0  0  0
  153.7846  138.6197  161.2610 O   0  0  0  0  0  0  0  0  0  0  0  0
  154.7261  138.3852  163.3059 N   0  0  0  0  0  0  0  0  0  0  0  0
  154.8474  136.9303  163.3174 C   0  0  1  0  0  0  0  0  0  0  0  0
  155.2249  136.4276  164.7201 C   0  0  0  0  0  0  0  0  0  0  0  0
  155.2922  134.8960  164.7197 C   0  0  0  0  0  0  0  0  0  0  0  0
  153.9715  134.2771  164.2288 C   0  0  0  0  0  0  0  0  0  0  0  0
  153.5662  134.8243  162.9179 N   0  0  0  0  0  0  0  0  0  0  0  0
  153.8303  133.8973  161.4686 S   0  0  0  0  0  0  0  0  0  0  0  0
  155.6521  133.6452  161.4184 C   0  0  0  0  0  0  0  0  0  0  0  0
  153.1911  132.5852  161.6527 O   0  0  0  0  0  0  0  0  0  0  0  0
  153.4520  134.7378  160.3223 O   0  0  0  0  0  0  0  0  0  0  0  0
  153.5208  136.2987  162.8526 C   0  0  0  0  0  0  0  0  0  0  0  0
  153.9260  141.4774  160.4505 C   0  0  0  0  0  0  0  0  0  0  0  0
  153.5055  142.4946  159.6687 N   0  3  0  0  0  0  0  0  0  0  0  0
  150.9817  145.6479  160.2348 H   0  0  0  0  0  0  0  0  0  0  0  0
  151.7062  146.5389  158.8988 H   0  0  0  0  0  0  0  0  0  0  0  0
  152.5979  146.3541  160.4063 H   0  0  0  0  0  0  0  0  0  0  0  0
  153.8433  144.3309  157.6210 H   0  0  0  0  0  0  0  0  0  0  0  0
  152.4158  145.2859  157.2243 H   0  0  0  0  0  0  0  0  0  0  0  0
  152.2687  143.5426  157.4293 H   0  0  0  0  0  0  0  0  0  0  0  0
  152.2331  144.5864  161.9777 H   0  0  0  0  0  0  0  0  0  0  0  0
  152.9588  142.7995  163.4541 H   0  0  0  0  0  0  0  0  0  0  0  0
  154.6193  140.6574  163.5038 H   0  0  0  0  0  0  0  0  0  0  0  0
  155.0553  138.8719  164.1269 H   0  0  0  0  0  0  0  0  0  0  0  0
  155.6316  136.6380  162.6190 H   0  0  0  0  0  0  0  0  0  0  0  0
  156.1857  136.8406  165.0295 H   0  0  0  0  0  0  0  0  0  0  0  0
  154.4879  136.7638  165.4508 H   0  0  0  0  0  0  0  0  0  0  0  0
  156.1176  134.5674  164.0896 H   0  0  0  0  0  0  0  0  0  0  0  0
  155.5156  134.5359  165.7242 H   0  0  0  0  0  0  0  0  0  0  0  0
  154.0565  133.1921  164.1784 H   0  0  0  0  0  0  0  0  0  0  0  0
  153.1804  134.4898  164.9487 H   0  0  0  0  0  0  0  0  0  0  0  0
  155.9047  133.0559  160.5372 H   0  0  0  0  0  0  0  0  0  0  0  0
  155.9782  133.1076  162.3071 H   0  0  0  0  0  0  0  0  0  0  0  0
  156.1596  134.6060  161.3552 H   0  0  0  0  0  0  0  0  0  0  0  0
  152.7037  136.6426  163.4885 H   0  0  0  0  0  0  0  0  0  0  0  0
  153.2783  136.6232  161.8407 H   0  0  0  0  0  0  0  0  0  0  0  0
  154.3878  140.6500  159.9310 H   0  0  0  0  0  0  0  0  0  0  0  0
  153.6488  142.4161  158.6617 H   0  0  0  0  0  0  0  0  0  0  0  0
  1  2  1  0  0  0  0
  1 24  1  0  0  0  0
  1 25  1  0  0  0  0
  1 26  1  0  0  0  0
  2  3  1  0  0  0  0
  2  4  1  0  0  0  0
  3 27  1  0  0  0  0
  3 28  1  0  0  0  0
  3 29  1  0  0  0  0
  4 23  1  0  0  0  0
  4  5  2  0  0  0  0
  5  6  1  0  0  0  0
  5 30  1  0  0  0  0
  6  7  2  0  0  0  0
  6 31  1  0  0  0  0
  7  8  1  0  0  0  0
  7 22  1  0  0  0  0
  8  9  1  0  0  0  0
  8 32  1  0  0  0  0
  9 10  2  0  0  0  0
  9 11  1  0  0  0  0
 11 12  1  0  0  0  0
 11 33  1  0  0  0  0
 12 21  1  0  0  0  0
 12 13  1  0  0  0  0
 12 34  1  0  0  0  0
 13 14  1  0  0  0  0
 13 35  1  0  0  0  0
 13 36  1  0  0  0  0
 14 15  1  0  0  0  0
 14 37  1  0  0  0  0
 14 38  1  0  0  0  0
 15 16  1  0  0  0  0
 15 39  1  0  0  0  0
 15 40  1  0  0  0  0
 16 17  1  0  0  0  0
 16 21  1  0  0  0  0
 17 18  1  0  0  0  0
 17 19  2  0  0  0  0
 17 20  2  0  0  0  0
 18 41  1  0  0  0  0
 18 42  1  0  0  0  0
 18 43  1  0  0  0  0
 21 44  1  0  0  0  0
 21 45  1  0  0  0  0
 22 23  2  0  0  0  0
 22 46  1  0  0  0  0
 23 47  1  0  0  0  0
M  CHG  1  23   1
M  END
> <s_m_source_file>
AV-unprocessed.smi

> <i_m_source_file_index>
1166

> <i_lp_mmshare_version>
43012

> <i_f3d_flags>
0

> <s_epik_input>
W0NIM11OKFtDSDNdKWMxW2NIXVtjSF1jKFtjSF1uMSlbTkhdQyg9TylbTkhdW0NAQEhdMltDSDJdW0NIMl1bQ0gyXU4oW0NIMl0yKVMoPU8pKD1PKVtDSDNd

> <s_epik_cmdline>
J2VwaWtfcHl0aG9uJywgJy1waCcsICc3LjAnLCAnLXRuJywgJzgnLCAnLW1hJywgJzIwMCcsICctbWV0YWxfYmluZGluZycsICctaW1hZScsICc8aW5maWxlLm1hZT4nLCAnLW9tYWUnLCAnPG91dGZpbGUubWFlPic=

> <r_lp_tautomer_probability>
0.999994

> <r_epik_Ionization_Penalty>
0.276583

> <r_epik_Ionization_Penalty_Charging>
0.276565

> <r_epik_Ionization_Penalty_Neutral>
1.87575e-05

> <r_epik_State_Penalty>
0.268949

> <r_epik_Charging_Adjusted_Penalty>
0.545513

> <i_epik_Tot_Q>
1

> <i_epik_Tot_abs_Q>
1

> <r_epik_Metal_State_Penalty>
0.551815

> <b_epik_Metal_Only>
0

> <s_lp_Force_Field>
OPLS_2005

> <r_lp_Energy>
8.45094

> <b_lp_Chiralities_Consistent>
1

> <s_lp_Variant>
AV-unprocessed.smi:1166-2

> <Gold.Version>
5.8.1

> <Gold.Id.Protein>
6NUR|6NUR_protein|mol2

> <Gold.PLP.Fitness>
48.4314

> <Gold.PLP.PLP>
-46.2594

> <Gold.PLP.part.hbond>
-1.0000

> <Gold.PLP.part.metal>
0.0000

> <Gold.PLP.part.buried>
-5.4050

> <Gold.PLP.part.nonpolar>
-39.6328

> <Gold.PLP.part.repulsive>
0.0473

> <Gold.PLP.ligand.clash>
0.0000

> <Gold.PLP.ligand.torsion>
1.4471

> <Gold.PLP.Chemscore.Hbond>
1.0000

> <Gold.PLP.Chemscore.CHOScore>
0.0000

> <Gold.PLP.Chemscore.Metal>
0.0000

> <Gold.PLP.Chemscore.Internal.Correction>
2.0663

> <Gold.Rescore>
     Score         DG    S(hbond)    S(metal)    S(lipo)     H(rot)  DE(clash)    DE(int)     intcor
     13.26     -17.46       0.95        0.00      97.10       1.00       0.01       4.18       ----

> <Gold.Chemscore.Fitness>
13.2615

> <Gold.Chemscore.DG>
-17.4556

> <Gold.Chemscore.ZeroCoef>
-5.4800

> <Gold.Chemscore.Hbond>
0.9506

> <Gold.Chemscore.Metal>
0.0000

> <Gold.Chemscore.Lipo>
97.0982

> <Gold.Chemscore.Internal_Hbond>
0.0000

> <Gold.Chemscore.DEClash>
0.0106

> <Gold.Chemscore.DEInternal>
4.1835

> <Gold.Chemscore.Rot>
1.0000

> <Gold.Chemscore.Internal.Correction>
   9.000000E+99

> <Gold.Chemscore.Hbond.Weighted>
-3.1751

> <Gold.Chemscore.Metal.Weighted>
-0.0000

> <Gold.Chemscore.Lipo.Weighted>
-11.3605

> <Gold.Chemscore.Internal_Hbond.Weighted>
0.0000

> <Gold.Chemscore.DEClash.Weighted>
0.0106

> <Gold.Chemscore.DEInternal.Weighted>
4.1835

> <Gold.Chemscore.Rot.Weighted>
2.5600

> <Gold.Chemscore.Internal.Correction.Weighted>
   9.000000E+99

> <Gold.Protein.RotatedTorsions>
[ 6907 6896 6895 6894 ] final  -57.14 input  -60.11 | X-H torsion
[ 7974 7965 7964 7962 ] final  159.19 input  175.53 | X-H torsion
[ 8008 7997 7996 7995 ] final  128.69 input   59.86 | X-H torsion
[ 10167 10162 10161 10158 ] final -108.29 input  -65.29 | X-H torsion
[ 10718 10713 10712 10709 ] final -148.53 input   66.30 | X-H torsion
[ 10763 10752 10751 10750 ] final  -32.22 input  -60.55 | X-H torsion
[ 11005 11000 10999 10996 ] final   23.07 input  -57.11 | X-H torsion

> <Gold.Protein.ActiveResidues>
 VAL166  LYS551  ARG553  GLY616  TRP617  ASP618  TYR619  PRO620  LYS621  CYS622 
 ASP623  PHE694  ASN695  SER759  ASP760  ASP761  ALA762  ILE779  LEU786  VAL792 
 PHE793  MET794  SER795  GLU796  ALA797  LYS798  CYS799  TRP800  GLU811  SER814 

> <Gold.Protein.RotatedAtoms>
  150.8110  134.7264  159.6687 H   0  0  0  0  0  0  0  0  0  0  0  0  # atno 6907 bound_to 6896
  152.4230  134.5918  159.9986 H   0  0  0  0  0  0  0  0  0  0  0  0  # atno 6908 bound_to 6896
  151.6127  133.3308  159.3107 H   0  0  0  0  0  0  0  0  0  0  0  0  # atno 6909 bound_to 6896
  144.7804  139.7582  143.6262 H   0  0  0  0  0  0  0  0  0  0  0  0  # atno 7974 bound_to 7965
  156.2920  140.2639  156.2476 H   0  0  0  0  0  0  0  0  0  0  0  0  # atno 8008 bound_to 7997
  154.9914  140.0388  157.2339 H   0  0  0  0  0  0  0  0  0  0  0  0  # atno 8009 bound_to 7997
  154.7682  140.2773  155.6164 H   0  0  0  0  0  0  0  0  0  0  0  0  # atno 8010 bound_to 7997
  140.1677  143.4068  152.1378 H   0  0  0  0  0  0  0  0  0  0  0  0  # atno 10167 bound_to 10162
  156.4214  130.8031  151.2254 H   0  0  0  0  0  0  0  0  0  0  0  0  # atno 10718 bound_to 10713
  153.8102  135.6883  153.4842 H   0  0  0  0  0  0  0  0  0  0  0  0  # atno 10763 bound_to 10752
  153.1633  135.4571  154.9801 H   0  0  0  0  0  0  0  0  0  0  0  0  # atno 10764 bound_to 10752
  154.7971  135.3323  154.7583 H   0  0  0  0  0  0  0  0  0  0  0  0  # atno 10765 bound_to 10752
  140.3737  134.1995  155.7666 H   0  0  0  0  0  0  0  0  0  0  0  0  # atno 11005 bound_to 11000
  146.2009  139.5302  142.9744 LP  0  0  0  0  0  0  0  0  0  0  0  0  # atno 17320 bound_to 7965
  145.6067  141.0346  143.1989 LP  0  0  0  0  0  0  0  0  0  0  0  0  # atno 17321 bound_to 7965
  139.5352  144.7202  151.4918 LP  0  0  0  0  0  0  0  0  0  0  0  0  # atno 17342 bound_to 10162
  140.6602  143.8514  150.6879 LP  0  0  0  0  0  0  0  0  0  0  0  0  # atno 17343 bound_to 10162
  157.7508  131.0227  150.3802 LP  0  0  0  0  0  0  0  0  0  0  0  0  # atno 17370 bound_to 10713
  156.4120  130.3936  149.6885 LP  0  0  0  0  0  0  0  0  0  0  0  0  # atno 17371 bound_to 10713
  141.1946  133.8124  157.0749 LP  0  0  0  0  0  0  0  0  0  0  0  0  # atno 17394 bound_to 11000
  140.0532  134.9794  157.1174 LP  0  0  0  0  0  0  0  0  0  0  0  0  # atno 17395 bound_to 11000

$$$$
