AV-unprocessed.smi:2256|AV-procd|sdf|9126|dock8
  -GOLD-   2272012333D 1   1.00000     0.00000
 Structure written by MMmdl.
 42 44  0  0  0  0  0  0  0  0  1 V2000
  155.5963  133.9669  163.9739 C   0  0  0  0  0  0  0  0  0  0  0  0
  155.6341  135.3902  163.4464 C   0  0  0  0  0  0  0  0  0  0  0  0
  155.2916  136.3847  164.3673 N   0  0  0  0  0  0  0  0  0  0  0  0
  155.2862  137.6256  164.0042 C   0  0  0  0  0  0  0  0  0  0  0  0
  155.6187  138.0127  162.6958 N   0  0  0  0  0  0  0  0  0  0  0  0
  155.5679  139.4560  162.4095 C   0  0  0  0  0  0  0  0  0  0  0  0
  154.8561  139.7629  161.0725 C   0  0  2  0  0  0  0  0  0  0  0  0
  155.8030  139.9516  160.0399 O   0  0  0  0  0  0  0  0  0  0  0  0
  153.9728  141.0206  161.1361 C   0  0  0  0  0  0  0  0  0  0  0  0
  153.0580  141.0252  160.0469 O   0  0  0  0  0  0  0  0  0  0  0  0
  152.3210  142.1656  159.8084 C   0  0  0  0  0  0  0  0  0  0  0  0
  152.4084  143.3426  160.5975 C   0  0  0  0  0  0  0  0  0  0  0  0
  151.6246  144.4726  160.2957 C   0  0  0  0  0  0  0  0  0  0  0  0
  150.7426  144.4445  159.2025 C   0  0  0  0  0  0  0  0  0  0  0  0
  150.6561  143.2805  158.4209 C   0  0  0  0  0  0  0  0  0  0  0  0
  149.8989  142.9614  157.3109 N   0  0  0  0  0  0  0  0  0  0  0  0
  150.1683  141.6712  156.8898 C   0  0  0  0  0  0  0  0  0  0  0  0
  151.1098  141.1214  157.7201 C   0  0  0  0  0  0  0  0  0  0  0  0
  151.4371  142.1207  158.7014 C   0  0  0  0  0  0  0  0  0  0  0  0
  155.9799  137.1086  161.7397 C   0  0  0  0  0  0  0  0  0  0  0  0
  156.2893  137.4615  160.6000 O   0  0  0  0  0  0  0  0  0  0  0  0
  155.9743  135.6997  162.1654 C   0  0  0  0  0  0  0  0  0  0  0  0
  156.3548  134.6600  161.1186 C   0  0  0  0  0  0  0  0  0  0  0  0
  149.2331  143.5651  156.8504 H   0  0  0  0  0  0  0  0  0  0  0  0
  154.8663  133.3752  163.4209 H   0  0  0  0  0  0  0  0  0  0  0  0
  155.3176  133.9412  165.0279 H   0  0  0  0  0  0  0  0  0  0  0  0
  156.5746  133.4958  163.8763 H   0  0  0  0  0  0  0  0  0  0  0  0
  155.0300  138.4395  164.6847 H   0  0  0  0  0  0  0  0  0  0  0  0
  155.0314  139.9476  163.2234 H   0  0  0  0  0  0  0  0  0  0  0  0
  156.5588  139.9149  162.4288 H   0  0  0  0  0  0  0  0  0  0  0  0
  154.2200  138.9268  160.7798 H   0  0  0  0  0  0  0  0  0  0  0  0
  156.2814  140.7481  160.2112 H   0  0  0  0  0  0  0  0  0  0  0  0
  153.4485  141.0716  162.0922 H   0  0  0  0  0  0  0  0  0  0  0  0
  154.6153  141.8996  161.0630 H   0  0  0  0  0  0  0  0  0  0  0  0
  153.0732  143.4051  161.4452 H   0  0  0  0  0  0  0  0  0  0  0  0
  151.7015  145.3610  160.9050 H   0  0  0  0  0  0  0  0  0  0  0  0
  150.1389  145.3082  158.9664 H   0  0  0  0  0  0  0  0  0  0  0  0
  149.6666  141.2487  156.0317 H   0  0  0  0  0  0  0  0  0  0  0  0
  151.5328  140.1295  157.6606 H   0  0  0  0  0  0  0  0  0  0  0  0
  157.3614  134.8523  160.7457 H   0  0  0  0  0  0  0  0  0  0  0  0
  155.6662  134.7087  160.2743 H   0  0  0  0  0  0  0  0  0  0  0  0
  156.3350  133.6401  161.4984 H   0  0  0  0  0  0  0  0  0  0  0  0
  1  2  1  0  0  0  0
  1 25  1  0  0  0  0
  1 26  1  0  0  0  0
  1 27  1  0  0  0  0
  2 22  2  0  0  0  0
  2  3  1  0  0  0  0
  3  4  2  0  0  0  0
  4  5  1  0  0  0  0
  4 28  1  0  0  0  0
  5  6  1  0  0  0  0
  5 20  1  0  0  0  0
  6  7  1  0  0  0  0
  6 29  1  0  0  0  0
  6 30  1  0  0  0  0
  7  8  1  0  0  0  0
  7  9  1  0  0  0  0
  7 31  1  0  0  0  0
  8 32  1  0  0  0  0
  9 10  1  0  0  0  0
  9 33  1  0  0  0  0
  9 34  1  0  0  0  0
 10 11  1  0  0  0  0
 11 19  1  0  0  0  0
 11 12  2  0  0  0  0
 12 13  1  0  0  0  0
 12 35  1  0  0  0  0
 13 14  2  0  0  0  0
 13 36  1  0  0  0  0
 14 15  1  0  0  0  0
 14 37  1  0  0  0  0
 15 19  2  0  0  0  0
 15 16  1  0  0  0  0
 16 24  1  0  0  0  0
 16 17  1  0  0  0  0
 17 18  2  0  0  0  0
 17 38  1  0  0  0  0
 18 19  1  0  0  0  0
 18 39  1  0  0  0  0
 20 21  2  0  0  0  0
 20 22  1  0  0  0  0
 22 23  1  0  0  0  0
 23 40  1  0  0  0  0
 23 41  1  0  0  0  0
 23 42  1  0  0  0  0
M  END
> <s_m_source_file>
AV-unprocessed.smi

> <i_m_source_file_index>
2256

> <i_lp_mmshare_version>
43012

> <i_f3d_flags>
0

> <s_epik_input>
W0NIM11jMW5bY0hdbihjKD1PKWMxW0NIM10pW0NIMl1bQ0BIXShbT0hdKVtDSDJdT2MoW2NIXVtjSF1bY0hdMiljKGMyMylbY0hdW2NIXVtuSF0z

> <s_epik_cmdline>
J2VwaWtfcHl0aG9uJywgJy1waCcsICc3LjAnLCAnLXRuJywgJzgnLCAnLW1hJywgJzIwMCcsICctbWV0YWxfYmluZGluZycsICctaW1hZScsICc8aW5maWxlLm1hZT4nLCAnLW9tYWUnLCAnPG91dGZpbGUubWFlPic=

> <r_lp_tautomer_probability>
1

> <r_epik_Ionization_Penalty>
4.18314e-05

> <r_epik_Ionization_Penalty_Charging>
1.04093e-07

> <r_epik_Ionization_Penalty_Neutral>
4.17273e-05

> <r_epik_State_Penalty>
-0

> <r_epik_Charging_Adjusted_Penalty>
1.04093e-07

> <i_epik_Tot_Q>
0

> <i_epik_Tot_abs_Q>
0

> <r_epik_Metal_State_Penalty>
-0

> <b_epik_Metal_Only>
0

> <s_lp_Force_Field>
OPLS_2005

> <r_lp_Energy>
26.398

> <b_lp_Chiralities_Consistent>
1

> <s_lp_Variant>
AV-unprocessed.smi:2256-1

> <Gold.Version>
5.8.1

> <Gold.Id.Protein>
6NUR|6NUR_protein|mol2

> <Gold.PLP.Fitness>
48.6457

> <Gold.PLP.PLP>
-47.2340

> <Gold.PLP.part.hbond>
-1.0000

> <Gold.PLP.part.metal>
0.0000

> <Gold.PLP.part.buried>
-7.5327

> <Gold.PLP.part.nonpolar>
-38.0663

> <Gold.PLP.part.repulsive>
0.1360

> <Gold.PLP.ligand.clash>
0.0000

> <Gold.PLP.ligand.torsion>
0.8576

> <Gold.PLP.Chemscore.Hbond>
1.0000

> <Gold.PLP.Chemscore.CHOScore>
0.0000

> <Gold.PLP.Chemscore.Metal>
0.0000

> <Gold.Chemscore.Hbonds>
donor molecule, donor type, donor heavy atom, donor atom, acceptor molecule, acceptor atom, score
      L1  H    16    24       P1  8028  1.00

> <Gold.PLP.Chemscore.Internal.Correction>
0.1270

> <Gold.Rescore>
     Score         DG    S(hbond)    S(metal)    S(lipo)     H(rot)  DE(clash)    DE(int)     intcor
     13.63     -17.40       0.99        0.00     129.96       2.58       0.03       3.74       ----

> <Gold.Chemscore.Fitness>
13.6337

> <Gold.Chemscore.DG>
-17.3996

> <Gold.Chemscore.ZeroCoef>
-5.4800

> <Gold.Chemscore.Hbond>
0.9939

> <Gold.Chemscore.Metal>
0.0000

> <Gold.Chemscore.Lipo>
129.9639

> <Gold.Chemscore.Internal_Hbond>
0.0000

> <Gold.Chemscore.DEClash>
0.0263

> <Gold.Chemscore.DEInternal>
3.7396

> <Gold.Chemscore.Rot>
2.5804

> <Gold.Chemscore.Internal.Correction>
   9.000000E+99

> <Gold.Chemscore.Hbonds>
donor molecule, donor type, donor heavy atom, donor atom, acceptor molecule, acceptor atom, score
      L1  H    16    24       P1  8028  0.83

> <Gold.Chemscore.Hbond.Weighted>
-3.3198

> <Gold.Chemscore.Metal.Weighted>
-0.0000

> <Gold.Chemscore.Lipo.Weighted>
-15.2058

> <Gold.Chemscore.Internal_Hbond.Weighted>
0.0000

> <Gold.Chemscore.DEClash.Weighted>
0.0263

> <Gold.Chemscore.DEInternal.Weighted>
3.7396

> <Gold.Chemscore.Rot.Weighted>
6.6059

> <Gold.Chemscore.Internal.Correction.Weighted>
   9.000000E+99

> <Gold.Protein.RotatedTorsions>
[ 6907 6896 6895 6894 ] final   24.74 input  -60.11 | X-H torsion
[ 7974 7965 7964 7962 ] final  102.53 input  175.53 | X-H torsion
[ 8008 7997 7996 7995 ] final -125.95 input   59.86 | X-H torsion
[ 10167 10162 10161 10158 ] final   36.41 input  -65.29 | X-H torsion
[ 10718 10713 10712 10709 ] final -157.37 input   66.30 | X-H torsion
[ 10763 10752 10751 10750 ] final   10.56 input  -60.55 | X-H torsion
[ 11005 11000 10999 10996 ] final    2.00 input  -57.11 | X-H torsion

> <Gold.Protein.ActiveResidues>
 VAL166  LYS551  ARG553  GLY616  TRP617  ASP618  TYR619  PRO620  LYS621  CYS622 
 ASP623  PHE694  ASN695  SER759  ASP760  ASP761  ALA762  ILE779  LEU786  VAL792 
 PHE793  MET794  SER795  GLU796  ALA797  LYS798  CYS799  TRP800  GLU811  SER814 

> <Gold.Protein.RotatedAtoms>
  151.9621  135.0118  160.0547 H   0  0  0  0  0  0  0  0  0  0  0  0  # atno 6907 bound_to 6896
  152.1859  133.4735  159.4991 H   0  0  0  0  0  0  0  0  0  0  0  0  # atno 6908 bound_to 6896
  150.6926  134.1691  159.4248 H   0  0  0  0  0  0  0  0  0  0  0  0  # atno 6909 bound_to 6896
  145.3579  139.2424  143.3523 H   0  0  0  0  0  0  0  0  0  0  0  0  # atno 7974 bound_to 7965
  155.2216  140.0422  157.2949 H   0  0  0  0  0  0  0  0  0  0  0  0  # atno 8008 bound_to 7997
  154.5946  140.2436  155.7845 H   0  0  0  0  0  0  0  0  0  0  0  0  # atno 8009 bound_to 7997
  156.2281  140.2947  156.0128 H   0  0  0  0  0  0  0  0  0  0  0  0  # atno 8010 bound_to 7997
  140.4131  144.1565  150.6141 H   0  0  0  0  0  0  0  0  0  0  0  0  # atno 10167 bound_to 10162
  156.5394  130.8556  151.2743 H   0  0  0  0  0  0  0  0  0  0  0  0  # atno 10718 bound_to 10713
  153.2019  135.6857  153.8220 H   0  0  0  0  0  0  0  0  0  0  0  0  # atno 10763 bound_to 10752
  153.7483  135.3227  155.3317 H   0  0  0  0  0  0  0  0  0  0  0  0  # atno 10764 bound_to 10752
  154.8176  135.4675  154.0789 H   0  0  0  0  0  0  0  0  0  0  0  0  # atno 10765 bound_to 10752
  140.6092  133.9764  155.8169 H   0  0  0  0  0  0  0  0  0  0  0  0  # atno 11005 bound_to 11000
  146.2940  140.4207  142.8728 LP  0  0  0  0  0  0  0  0  0  0  0  0  # atno 17320 bound_to 7965
  144.8669  140.7218  143.6072 LP  0  0  0  0  0  0  0  0  0  0  0  0  # atno 17321 bound_to 7965
  140.4616  143.2446  151.9211 LP  0  0  0  0  0  0  0  0  0  0  0  0  # atno 17342 bound_to 10162
  139.4782  144.5461  151.8456 LP  0  0  0  0  0  0  0  0  0  0  0  0  # atno 17343 bound_to 10162
  157.7408  130.9857  150.2402 LP  0  0  0  0  0  0  0  0  0  0  0  0  # atno 17370 bound_to 10713
  156.2986  130.3755  149.7772 LP  0  0  0  0  0  0  0  0  0  0  0  0  # atno 17371 bound_to 10713
  141.0820  134.0048  157.3372 LP  0  0  0  0  0  0  0  0  0  0  0  0  # atno 17394 bound_to 11000
  139.9199  135.0200  156.8025 LP  0  0  0  0  0  0  0  0  0  0  0  0  # atno 17395 bound_to 11000

$$$$
