AV-unprocessed.smi:834|AV-procd|sdf|3884|dock8
  -GOLD-   22720 1343D 1   1.00000     0.00000
 Structure written by MMmdl.
 39 40  0  0  0  0  0  0  0  0  1 V2000
  145.3167  133.8902  163.4844 C   0  0  0  0  0  0  0  0  0  0  0  0
  146.1733  134.0550  162.2756 C   0  0  0  0  0  0  0  0  0  0  0  0
  146.3885  133.0672  161.3982 N   0  0  0  0  0  0  0  0  0  0  0  0
  147.2201  133.4588  160.3584 N   0  0  0  0  0  0  0  0  0  0  0  0
  147.6099  134.7348  160.4837 C   0  0  0  0  0  0  0  0  0  0  0  0
  148.4676  135.3925  159.5630 N   0  0  0  0  0  0  0  0  0  0  0  0
  148.8787  136.6727  159.5746 C   0  0  0  0  0  0  0  0  0  0  0  0
  148.5836  137.5084  160.4293 O   0  0  0  0  0  0  0  0  0  0  0  0
  149.6675  136.9379  158.5233 N   0  0  0  0  0  0  0  0  0  0  0  0
  150.2750  138.2329  158.2378 C   0  0  0  0  0  0  0  0  0  0  0  0
  151.3922  138.5688  159.2452 C   0  0  0  0  0  0  0  0  0  0  0  0
  152.1770  139.8296  158.8698 C   0  0  0  0  0  0  0  0  0  0  0  0
  152.7200  139.9269  157.7689 O   0  0  0  0  0  0  0  0  0  0  0  0
  152.2253  140.7955  159.8002 N   0  0  0  0  0  0  0  0  0  0  0  0
  152.9284  142.0679  159.6568 C   0  0  0  0  0  0  0  0  0  0  0  0
  152.8733  142.8749  160.9683 C   0  0  0  0  0  0  0  0  0  0  0  0
  152.4561  144.2935  160.5772 C   0  0  0  0  0  0  0  0  0  0  0  0
  151.5992  144.1043  159.3297 C   0  0  0  0  0  0  0  0  0  0  0  0
  152.2791  142.9589  158.5784 C   0  0  0  0  0  0  0  0  0  0  0  0
  146.9850  135.5691  161.8962 S   0  0  0  0  0  0  0  0  0  0  0  0
  144.7392  132.9672  163.4243 H   0  0  0  0  0  0  0  0  0  0  0  0
  144.6253  134.7287  163.5695 H   0  0  0  0  0  0  0  0  0  0  0  0
  145.9388  133.8562  164.3787 H   0  0  0  0  0  0  0  0  0  0  0  0
  148.8007  134.8222  158.7998 H   0  0  0  0  0  0  0  0  0  0  0  0
  149.8587  136.1925  157.8697 H   0  0  0  0  0  0  0  0  0  0  0  0
  150.6811  138.1921  157.2264 H   0  0  0  0  0  0  0  0  0  0  0  0
  149.5088  139.0107  158.2335 H   0  0  0  0  0  0  0  0  0  0  0  0
  150.9720  138.7079  160.2421 H   0  0  0  0  0  0  0  0  0  0  0  0
  152.0856  137.7287  159.3118 H   0  0  0  0  0  0  0  0  0  0  0  0
  151.7465  140.6360  160.6747 H   0  0  0  0  0  0  0  0  0  0  0  0
  153.9709  141.8800  159.3924 H   0  0  0  0  0  0  0  0  0  0  0  0
  152.1235  142.4604  161.6446 H   0  0  0  0  0  0  0  0  0  0  0  0
  153.8257  142.8631  161.4993 H   0  0  0  0  0  0  0  0  0  0  0  0
  151.9256  144.8108  161.3772 H   0  0  0  0  0  0  0  0  0  0  0  0
  153.3406  144.8816  160.3290 H   0  0  0  0  0  0  0  0  0  0  0  0
  150.5899  143.8075  159.6185 H   0  0  0  0  0  0  0  0  0  0  0  0
  151.5217  145.0124  158.7309 H   0  0  0  0  0  0  0  0  0  0  0  0
  153.0602  143.3650  157.9340 H   0  0  0  0  0  0  0  0  0  0  0  0
  151.5806  142.4243  157.9328 H   0  0  0  0  0  0  0  0  0  0  0  0
  1  2  1  0  0  0  0
  1 21  1  0  0  0  0
  1 22  1  0  0  0  0
  1 23  1  0  0  0  0
  2 20  1  0  0  0  0
  2  3  2  0  0  0  0
  3  4  1  0  0  0  0
  4  5  2  0  0  0  0
  5  6  1  0  0  0  0
  5 20  1  0  0  0  0
  6  7  1  0  0  0  0
  6 24  1  0  0  0  0
  7  8  2  0  0  0  0
  7  9  1  0  0  0  0
  9 10  1  0  0  0  0
  9 25  1  0  0  0  0
 10 11  1  0  0  0  0
 10 26  1  0  0  0  0
 10 27  1  0  0  0  0
 11 12  1  0  0  0  0
 11 28  1  0  0  0  0
 11 29  1  0  0  0  0
 12 13  2  0  0  0  0
 12 14  1  0  0  0  0
 14 15  1  0  0  0  0
 14 30  1  0  0  0  0
 15 19  1  0  0  0  0
 15 16  1  0  0  0  0
 15 31  1  0  0  0  0
 16 17  1  0  0  0  0
 16 32  1  0  0  0  0
 16 33  1  0  0  0  0
 17 18  1  0  0  0  0
 17 34  1  0  0  0  0
 17 35  1  0  0  0  0
 18 19  1  0  0  0  0
 18 36  1  0  0  0  0
 18 37  1  0  0  0  0
 19 38  1  0  0  0  0
 19 39  1  0  0  0  0
M  END
> <s_m_source_file>
AV-unprocessed.smi

> <i_m_source_file_index>
834

> <i_lp_mmshare_version>
43012

> <i_f3d_flags>
0

> <s_epik_input>
W0NIM11jMW5uYyhzMSlbTkhdQyg9TylbTkhdW0NIMl1bQ0gyXUMoPU8pW05IXVtDSF0yW0NIMl1bQ0gyXVtDSDJdW0NIMl0y

> <s_epik_cmdline>
J2VwaWtfcHl0aG9uJywgJy1waCcsICc3LjAnLCAnLXRuJywgJzgnLCAnLW1hJywgJzIwMCcsICctbWV0YWxfYmluZGluZycsICctaW1hZScsICc8aW5maWxlLm1hZT4nLCAnLW9tYWUnLCAnPG91dGZpbGUubWFlPic=

> <r_lp_tautomer_probability>
1

> <r_epik_Ionization_Penalty>
0.00240541

> <r_epik_Ionization_Penalty_Charging>
0

> <r_epik_Ionization_Penalty_Neutral>
0.00240541

> <r_epik_State_Penalty>
-0

> <r_epik_Charging_Adjusted_Penalty>
0

> <i_epik_Tot_Q>
0

> <i_epik_Tot_abs_Q>
0

> <r_epik_Metal_State_Penalty>
0.349697

> <b_epik_Metal_Only>
0

> <s_lp_Force_Field>
OPLS_2005

> <r_lp_Energy>
16.3225

> <b_lp_Chiralities_Consistent>
1

> <s_lp_Variant>
AV-unprocessed.smi:834-1

> <Gold.Version>
5.8.1

> <Gold.Id.Protein>
6NUR|6NUR_protein|mol2

> <Gold.PLP.Fitness>
38.7443

> <Gold.PLP.PLP>
-33.9351

> <Gold.PLP.part.hbond>
-3.0000

> <Gold.PLP.part.metal>
0.0000

> <Gold.PLP.part.buried>
-4.1422

> <Gold.PLP.part.nonpolar>
-27.4936

> <Gold.PLP.part.repulsive>
0.3635

> <Gold.PLP.ligand.clash>
0.0000

> <Gold.PLP.ligand.torsion>
0.1223

> <Gold.PLP.Chemscore.Hbond>
1.6770

> <Gold.PLP.Chemscore.CHOScore>
0.0000

> <Gold.PLP.Chemscore.Metal>
0.0000

> <Gold.Chemscore.Hbonds>
donor molecule, donor type, donor heavy atom, donor atom, acceptor molecule, acceptor atom, score
      P1  H  6931  6943       L1     8  0.53
      P1  H  6934  6947       L1     8  0.32
      P1  H  7997  8010       L1    13  0.96

> <Gold.PLP.Chemscore.Internal.Correction>
0.0227

> <Gold.Rescore>
     Score         DG    S(hbond)    S(metal)    S(lipo)     H(rot)  DE(clash)    DE(int)     intcor
     14.95     -16.57       1.80        0.00      86.72       1.99       0.17       1.45       ----

> <Gold.Chemscore.Fitness>
14.9475

> <Gold.Chemscore.DG>
-16.5653

> <Gold.Chemscore.ZeroCoef>
-5.4800

> <Gold.Chemscore.Hbond>
1.8029

> <Gold.Chemscore.Metal>
0.0000

> <Gold.Chemscore.Lipo>
86.7213

> <Gold.Chemscore.Internal_Hbond>
0.0000

> <Gold.Chemscore.DEClash>
0.1722

> <Gold.Chemscore.DEInternal>
1.4456

> <Gold.Chemscore.Rot>
1.9855

> <Gold.Chemscore.Internal.Correction>
   9.000000E+99

> <Gold.Chemscore.Hbonds>
donor molecule, donor type, donor heavy atom, donor atom, acceptor molecule, acceptor atom, score
      P1  H  6931  6943       L1     8  0.54
      P1  H  6934  6947       L1     8  0.32
      P1  H  7997  8010       L1    13  0.86

> <Gold.Chemscore.Hbond.Weighted>
-6.0217

> <Gold.Chemscore.Metal.Weighted>
-0.0000

> <Gold.Chemscore.Lipo.Weighted>
-10.1464

> <Gold.Chemscore.Internal_Hbond.Weighted>
0.0000

> <Gold.Chemscore.DEClash.Weighted>
0.1722

> <Gold.Chemscore.DEInternal.Weighted>
1.4456

> <Gold.Chemscore.Rot.Weighted>
5.0828

> <Gold.Chemscore.Internal.Correction.Weighted>
   9.000000E+99

> <Gold.Protein.RotatedTorsions>
[ 6907 6896 6895 6894 ] final   47.44 input  -60.11 | X-H torsion
[ 7974 7965 7964 7962 ] final  121.37 input  175.53 | X-H torsion
[ 8008 7997 7996 7995 ] final   63.99 input   59.86 | X-H torsion
[ 10167 10162 10161 10158 ] final -160.64 input  -65.29 | X-H torsion
[ 10718 10713 10712 10709 ] final    0.58 input   66.30 | X-H torsion
[ 10763 10752 10751 10750 ] final -148.99 input  -60.55 | X-H torsion
[ 11005 11000 10999 10996 ] final  -34.88 input  -57.11 | X-H torsion

> <Gold.Protein.ActiveResidues>
 VAL166  LYS551  ARG553  GLY616  TRP617  ASP618  TYR619  PRO620  LYS621  CYS622 
 ASP623  PHE694  ASN695  SER759  ASP760  ASP761  ALA762  ILE779  LEU786  VAL792 
 PHE793  MET794  SER795  GLU796  ALA797  LYS798  CYS799  TRP800  GLU811  SER814 

> <Gold.Protein.RotatedAtoms>
  152.2681  134.7962  160.0418 H   0  0  0  0  0  0  0  0  0  0  0  0  # atno 6907 bound_to 6896
  151.8585  133.3447  159.3704 H   0  0  0  0  0  0  0  0  0  0  0  0  # atno 6908 bound_to 6896
  150.7141  134.5157  159.5673 H   0  0  0  0  0  0  0  0  0  0  0  0  # atno 6909 bound_to 6896
  145.1201  139.3394  143.4718 H   0  0  0  0  0  0  0  0  0  0  0  0  # atno 7974 bound_to 7965
  155.6389  140.3496  155.4708 H   0  0  0  0  0  0  0  0  0  0  0  0  # atno 8008 bound_to 7997
  155.9942  140.1200  157.0633 H   0  0  0  0  0  0  0  0  0  0  0  0  # atno 8009 bound_to 7997
  154.4228  140.1113  156.5593 H   0  0  0  0  0  0  0  0  0  0  0  0  # atno 8010 bound_to 7997
  139.6524  144.0060  152.2171 H   0  0  0  0  0  0  0  0  0  0  0  0  # atno 10167 bound_to 10162
  156.8356  130.5503  149.5682 H   0  0  0  0  0  0  0  0  0  0  0  0  # atno 10718 bound_to 10713
  154.8202  135.3320  154.7059 H   0  0  0  0  0  0  0  0  0  0  0  0  # atno 10763 bound_to 10752
  153.7693  135.6927  153.4914 H   0  0  0  0  0  0  0  0  0  0  0  0  # atno 10764 bound_to 10752
  153.2056  135.4500  155.0267 H   0  0  0  0  0  0  0  0  0  0  0  0  # atno 10765 bound_to 10752
  140.9751  133.7087  156.1589 H   0  0  0  0  0  0  0  0  0  0  0  0  # atno 11005 bound_to 11000
  146.3521  140.1157  142.8602 LP  0  0  0  0  0  0  0  0  0  0  0  0  # atno 17320 bound_to 7965
  145.0750  140.9181  143.4859 LP  0  0  0  0  0  0  0  0  0  0  0  0  # atno 17321 bound_to 7965
  139.9777  144.6450  150.7929 LP  0  0  0  0  0  0  0  0  0  0  0  0  # atno 17342 bound_to 10162
  140.7544  143.3026  151.3042 LP  0  0  0  0  0  0  0  0  0  0  0  0  # atno 17343 bound_to 10162
  156.0910  130.5895  150.9732 LP  0  0  0  0  0  0  0  0  0  0  0  0  # atno 17370 bound_to 10713
  157.6383  131.0913  150.8302 LP  0  0  0  0  0  0  0  0  0  0  0  0  # atno 17371 bound_to 10713
  140.7271  134.4296  157.5569 LP  0  0  0  0  0  0  0  0  0  0  0  0  # atno 17394 bound_to 11000
  139.8927  134.8748  156.2257 LP  0  0  0  0  0  0  0  0  0  0  0  0  # atno 17395 bound_to 11000

$$$$
