AV-unprocessed.smi:1011|AV-procd|sdf|4421|dock1
  -GOLD-   22720 2373D 1   1.00000     0.00000
 Structure written by MMmdl.
 44 46  0  0  0  0  0  0  0  0  2 V2000
  151.1509  141.3264  155.6521 C   0  0  0  0  0  0  0  0  0  0  0  0
  150.0306  140.6747  154.8939 C   0  0  0  0  0  0  0  0  0  0  0  0
  149.9221  139.3126  154.4932 C   0  0  0  0  0  0  0  0  0  0  0  0
  148.8045  139.0583  153.8323 N   0  0  0  0  0  0  0  0  0  0  0  0
  148.1602  140.2439  153.7905 N   0  0  0  0  0  0  0  0  0  0  0  0
  146.8779  140.3438  153.1209 C   0  0  0  0  0  0  0  0  0  0  0  0
  146.8438  139.5136  151.8297 C   0  0  0  0  0  0  0  0  0  0  0  0
  145.5514  138.8592  151.7070 N   0  0  0  0  0  0  0  0  0  0  0  0
  145.4015  137.8664  152.7582 C   0  0  0  0  0  0  0  0  0  0  0  0
  145.1839  136.4948  152.2063 C   0  0  0  0  0  0  0  0  0  0  0  0
  146.0876  135.7884  151.4695 N   0  3  0  0  0  0  0  0  0  0  0  0
  145.5566  134.5432  151.1339 C   0  0  0  0  0  0  0  0  0  0  0  0
  146.0957  133.4894  150.4027 C   0  0  0  0  0  0  0  0  0  0  0  0
  145.2862  132.3446  150.2481 C   0  0  0  0  0  0  0  0  0  0  0  0
  145.8891  130.9970  149.3558 Cl  0  0  0  0  0  0  0  0  0  0  0  0
  143.9945  132.2809  150.8109 C   0  0  0  0  0  0  0  0  0  0  0  0
  143.4577  133.3563  151.5492 C   0  0  0  0  0  0  0  0  0  0  0  0
  144.2649  134.4841  151.6949 C   0  0  0  0  0  0  0  0  0  0  0  0
  144.0746  135.7102  152.3424 N   0  0  0  0  0  0  0  0  0  0  0  0
  142.8034  135.9579  153.0416 C   0  0  0  0  0  0  0  0  0  0  0  0
  142.4286  134.8203  154.0060 C   0  0  0  0  0  0  0  0  0  0  0  0
  141.0279  134.7436  154.1713 O   0  0  0  0  0  0  0  0  0  0  0  0
  148.8778  141.2368  154.4231 C   0  0  0  0  0  0  0  0  0  0  0  0
  152.0639  140.7317  155.6155 H   0  0  0  0  0  0  0  0  0  0  0  0
  150.8979  141.4633  156.7034 H   0  0  0  0  0  0  0  0  0  0  0  0
  151.3930  142.3094  155.2478 H   0  0  0  0  0  0  0  0  0  0  0  0
  150.6204  138.5058  154.6605 H   0  0  0  0  0  0  0  0  0  0  0  0
  146.1009  140.0099  153.8102 H   0  0  0  0  0  0  0  0  0  0  0  0
  146.6818  141.3957  152.9067 H   0  0  0  0  0  0  0  0  0  0  0  0
  147.0130  140.1570  150.9650 H   0  0  0  0  0  0  0  0  0  0  0  0
  147.6372  138.7649  151.8432 H   0  0  0  0  0  0  0  0  0  0  0  0
  144.8327  139.5612  151.8131 H   0  0  0  0  0  0  0  0  0  0  0  0
  146.3024  137.8428  153.3730 H   0  0  0  0  0  0  0  0  0  0  0  0
  144.5757  138.1470  153.4114 H   0  0  0  0  0  0  0  0  0  0  0  0
  147.0855  133.5378  149.9728 H   0  0  0  0  0  0  0  0  0  0  0  0
  143.4014  131.3883  150.6743 H   0  0  0  0  0  0  0  0  0  0  0  0
  142.4679  133.2940  151.9761 H   0  0  0  0  0  0  0  0  0  0  0  0
  142.8915  136.9004  153.5820 H   0  0  0  0  0  0  0  0  0  0  0  0
  142.0183  136.1104  152.3006 H   0  0  0  0  0  0  0  0  0  0  0  0
  142.7915  133.8662  153.6231 H   0  0  0  0  0  0  0  0  0  0  0  0
  142.8923  134.9732  154.9808 H   0  0  0  0  0  0  0  0  0  0  0  0
  140.8442  134.4504  155.0509 H   0  0  0  0  0  0  0  0  0  0  0  0
  148.5137  142.2522  154.4840 H   0  0  0  0  0  0  0  0  0  0  0  0
  147.0023  136.1406  151.2176 H   0  0  0  0  0  0  0  0  0  0  0  0
  1  2  1  0  0  0  0
  1 24  1  0  0  0  0
  1 25  1  0  0  0  0
  1 26  1  0  0  0  0
  2 23  2  0  0  0  0
  2  3  1  0  0  0  0
  3  4  2  0  0  0  0
  3 27  1  0  0  0  0
  4  5  1  0  0  0  0
  5  6  1  0  0  0  0
  5 23  1  0  0  0  0
  6  7  1  0  0  0  0
  6 28  1  0  0  0  0
  6 29  1  0  0  0  0
  7  8  1  0  0  0  0
  7 30  1  0  0  0  0
  7 31  1  0  0  0  0
  8  9  1  0  0  0  0
  8 32  1  0  0  0  0
  9 10  1  0  0  0  0
  9 33  1  0  0  0  0
  9 34  1  0  0  0  0
 10 19  1  0  0  0  0
 10 11  2  0  0  0  0
 11 12  1  0  0  0  0
 11 44  1  0  0  0  0
 12 18  2  0  0  0  0
 12 13  1  0  0  0  0
 13 14  2  0  0  0  0
 13 35  1  0  0  0  0
 14 15  1  0  0  0  0
 14 16  1  0  0  0  0
 16 17  2  0  0  0  0
 16 36  1  0  0  0  0
 17 18  1  0  0  0  0
 17 37  1  0  0  0  0
 18 19  1  0  0  0  0
 19 20  1  0  0  0  0
 20 21  1  0  0  0  0
 20 38  1  0  0  0  0
 20 39  1  0  0  0  0
 21 22  1  0  0  0  0
 21 40  1  0  0  0  0
 21 41  1  0  0  0  0
 22 42  1  0  0  0  0
 23 43  1  0  0  0  0
M  CHG  1  11   1
M  END
> <s_m_source_file>
AV-unprocessed.smi

> <i_m_source_file_index>
1011

> <i_lp_mmshare_version>
43012

> <i_f3d_flags>
0

> <s_epik_input>
W0NIM11jMVtjSF1ubihbY0hdMSlbQ0gyXVtDSDJdW05IXVtDSDJdYyhuMiluKFtDSDJdW0NIMl1bT0hdKWMoYzIzKVtjSF1bY0hdYyhDbClbY0hdMw==

> <s_epik_cmdline>
J2VwaWtfcHl0aG9uJywgJy1waCcsICc3LjAnLCAnLXRuJywgJzgnLCAnLW1hJywgJzIwMCcsICctbWV0YWxfYmluZGluZycsICctaW1hZScsICc8aW5maWxlLm1hZT4nLCAnLW9tYWUnLCAnPG91dGZpbGUubWFlPic=

> <r_epik_Ionization_Penalty>
1.62414

> <r_epik_Ionization_Penalty_Charging>
1.50824

> <r_epik_Ionization_Penalty_Neutral>
0.115896

> <r_epik_State_Penalty>
2.25317

> <r_epik_Charging_Adjusted_Penalty>
3.76141

> <i_epik_Tot_Q>
1

> <i_epik_Tot_abs_Q>
1

> <r_epik_Metal_State_Penalty>
2.26539

> <b_epik_Metal_Only>
0

> <s_lp_Force_Field>
OPLS_2005

> <r_lp_Energy>
12.3838

> <b_lp_Chiralities_Consistent>
1

> <s_lp_Variant>
AV-unprocessed.smi:1011-3

> <Gold.Version>
5.8.1

> <Gold.Id.Protein>
6NUR|6NUR_protein|mol2

> <Gold.PLP.Fitness>
57.1647

> <Gold.PLP.PLP>
-44.4535

> <Gold.PLP.part.hbond>
-4.1337

> <Gold.PLP.part.metal>
0.0000

> <Gold.PLP.part.buried>
-1.4330

> <Gold.PLP.part.nonpolar>
-40.2385

> <Gold.PLP.part.repulsive>
0.2308

> <Gold.PLP.ligand.clash>
0.0000

> <Gold.PLP.ligand.torsion>
1.2086

> <Gold.PLP.Chemscore.Hbond>
4.0000

> <Gold.PLP.Chemscore.CHOScore>
1.0000

> <Gold.PLP.Chemscore.Metal>
0.0000

> <Gold.Chemscore.Hbonds>
donor molecule, donor type, donor heavy atom, donor atom, acceptor molecule, acceptor atom, score
      L1  H     8    32       P1 10175  1.00
      L1  H    11    44       P1  7948  1.76
      L1  H    22    42       P1 11000  1.00
      L1  C    23    43       P1  8028  0.48

> <Gold.PLP.Chemscore.Internal.Correction>
0.1283

> <Gold.Rescore>
     Score         DG    S(hbond)    S(metal)    S(lipo)     H(rot)  DE(clash)    DE(int)     intcor
     16.61     -19.53       2.89        0.00     101.91       2.93       1.76       1.17       ----

> <Gold.Chemscore.Fitness>
16.6090

> <Gold.Chemscore.DG>
-19.5345

> <Gold.Chemscore.ZeroCoef>
-5.4800

> <Gold.Chemscore.Hbond>
2.8870

> <Gold.Chemscore.Metal>
0.0000

> <Gold.Chemscore.Lipo>
101.9069

> <Gold.Chemscore.Internal_Hbond>
0.0000

> <Gold.Chemscore.DEClash>
1.7585

> <Gold.Chemscore.DEInternal>
1.1670

> <Gold.Chemscore.Rot>
2.9340

> <Gold.Chemscore.Internal.Correction>
   9.000000E+99

> <Gold.Chemscore.Hbonds>
donor molecule, donor type, donor heavy atom, donor atom, acceptor molecule, acceptor atom, score
      L1  H     8    32       P1 10175  0.83
      L1  H    11    44       P1  7948  0.82
      L1  H    22    42       P1 11000  0.99

> <Gold.Chemscore.Hbond.Weighted>
-9.6425

> <Gold.Chemscore.Metal.Weighted>
-0.0000

> <Gold.Chemscore.Lipo.Weighted>
-11.9231

> <Gold.Chemscore.Internal_Hbond.Weighted>
0.0000

> <Gold.Chemscore.DEClash.Weighted>
1.7585

> <Gold.Chemscore.DEInternal.Weighted>
1.1670

> <Gold.Chemscore.Rot.Weighted>
7.5111

> <Gold.Chemscore.Internal.Correction.Weighted>
   9.000000E+99

> <Gold.Protein.RotatedTorsions>
[ 6907 6896 6895 6894 ] final -167.72 input  -60.11 | X-H torsion
[ 7974 7965 7964 7962 ] final   -5.69 input  175.53 | X-H torsion
[ 8008 7997 7996 7995 ] final  -61.15 input   59.86 | X-H torsion
[ 10167 10162 10161 10158 ] final   92.92 input  -65.29 | X-H torsion
[ 10718 10713 10712 10709 ] final   42.34 input   66.30 | X-H torsion
[ 10763 10752 10751 10750 ] final   37.30 input  -60.55 | X-H torsion
[ 11005 11000 10999 10996 ] final -150.84 input  -57.11 | X-H torsion

> <Gold.Protein.ActiveResidues>
 VAL166  LYS551  ARG553  GLY616  TRP617  ASP618  TYR619  PRO620  LYS621  CYS622 
 ASP623  PHE694  ASN695  SER759  ASP760  ASP761  ALA762  ILE779  LEU786  VAL792 
 PHE793  MET794  SER795  GLU796  ALA797  LYS798  CYS799  TRP800  GLU811  SER814 

> <Gold.Protein.RotatedAtoms>
  151.4640  133.3585  159.2813 H   0  0  0  0  0  0  0  0  0  0  0  0  # atno 6907 bound_to 6896
  150.9006  134.8419  159.7368 H   0  0  0  0  0  0  0  0  0  0  0  0  # atno 6908 bound_to 6896
  152.4877  134.4560  159.9642 H   0  0  0  0  0  0  0  0  0  0  0  0  # atno 6909 bound_to 6896
  146.2347  140.2059  142.8334 H   0  0  0  0  0  0  0  0  0  0  0  0  # atno 7974 bound_to 7965
  154.4433  140.1024  156.6386 H   0  0  0  0  0  0  0  0  0  0  0  0  # atno 8008 bound_to 7997
  155.5527  140.3486  155.4453 H   0  0  0  0  0  0  0  0  0  0  0  0  # atno 8009 bound_to 7997
  156.0517  140.1305  157.0031 H   0  0  0  0  0  0  0  0  0  0  0  0  # atno 8010 bound_to 7997
  139.8229  144.6723  150.9495 H   0  0  0  0  0  0  0  0  0  0  0  0  # atno 10167 bound_to 10162
  157.4037  130.7874  149.7370 H   0  0  0  0  0  0  0  0  0  0  0  0  # atno 10718 bound_to 10713
  153.0043  135.6281  154.2124 H   0  0  0  0  0  0  0  0  0  0  0  0  # atno 10763 bound_to 10752
  154.1867  135.2810  155.3037 H   0  0  0  0  0  0  0  0  0  0  0  0  # atno 10764 bound_to 10752
  154.5792  135.5652  153.7228 H   0  0  0  0  0  0  0  0  0  0  0  0  # atno 10765 bound_to 10752
  140.7360  134.3568  157.5157 H   0  0  0  0  0  0  0  0  0  0  0  0  # atno 11005 bound_to 11000
  144.9745  140.8400  143.5435 LP  0  0  0  0  0  0  0  0  0  0  0  0  # atno 17320 bound_to 7965
  145.2045  139.2235  143.5175 LP  0  0  0  0  0  0  0  0  0  0  0  0  # atno 17321 bound_to 7965
  140.7812  143.4074  151.1049 LP  0  0  0  0  0  0  0  0  0  0  0  0  # atno 17342 bound_to 10162
  139.7733  143.8462  152.3124 LP  0  0  0  0  0  0  0  0  0  0  0  0  # atno 17343 bound_to 10162
  155.9830  130.4004  150.3385 LP  0  0  0  0  0  0  0  0  0  0  0  0  # atno 17370 bound_to 10713
  157.1515  131.0322  151.2883 LP  0  0  0  0  0  0  0  0  0  0  0  0  # atno 17371 bound_to 10713
  139.8816  134.9049  156.2888 LP  0  0  0  0  0  0  0  0  0  0  0  0  # atno 17394 bound_to 11000
  140.9879  133.7226  156.0770 LP  0  0  0  0  0  0  0  0  0  0  0  0  # atno 17395 bound_to 11000

$$$$
