AV-unprocessed.smi:933|AV-procd|sdf|4204|dock6
  -GOLD-   22720 2113D 1   1.00000     0.00000
 Structure written by MMmdl.
 42 43  0  0  0  0  0  0  0  0  1 V2000
  143.1564  145.7546  154.4362 C   0  0  0  0  0  0  0  0  0  0  0  0
  144.3156  145.2484  153.5717 C   0  0  0  0  0  0  0  0  0  0  0  0
  144.9355  144.0039  154.1132 C   0  0  0  0  0  0  0  0  0  0  0  0
  146.0053  143.4174  153.5700 N   0  0  0  0  0  0  0  0  0  0  0  0
  146.4097  142.2770  154.2711 C   0  0  0  0  0  0  0  0  0  0  0  0
  147.5833  141.4807  153.7866 C   0  0  0  0  0  0  0  0  0  0  0  0
  148.4446  140.9596  154.9451 C   0  0  0  0  0  0  0  0  0  0  0  0
  148.8909  142.0607  155.7946 N   0  0  0  0  0  0  0  0  0  0  0  0
  149.6566  141.9757  156.8958 C   0  0  0  0  0  0  0  0  0  0  0  0
  150.0784  140.8987  157.3128 O   0  0  0  0  0  0  0  0  0  0  0  0
  149.9156  143.1548  157.4860 N   0  0  0  0  0  0  0  0  0  0  0  0
  150.6847  143.3363  158.7139 C   0  0  1  0  0  0  0  0  0  0  0  0
  152.1795  143.0809  158.4452 C   0  0  0  0  0  0  0  0  0  0  0  0
  152.8535  144.4515  158.4845 C   0  0  0  0  0  0  0  0  0  0  0  0
  152.0243  145.2378  159.4939 C   0  0  0  0  0  0  0  0  0  0  0  0
  150.5816  144.7913  159.2305 C   0  0  2  0  0  0  0  0  0  0  0  0
  149.6661  144.9529  160.4522 C   0  0  0  0  0  0  0  0  0  0  0  0
  145.6358  142.0178  155.3748 C   0  0  0  0  0  0  0  0  0  0  0  0
  144.3684  143.1970  155.5707 S   0  0  0  0  0  0  0  0  0  0  0  0
  142.7246  146.6622  154.0140 H   0  0  0  0  0  0  0  0  0  0  0  0
  143.4915  145.9846  155.4479 H   0  0  0  0  0  0  0  0  0  0  0  0
  142.3638  145.0094  154.5066 H   0  0  0  0  0  0  0  0  0  0  0  0
  143.9644  145.0505  152.5585 H   0  0  0  0  0  0  0  0  0  0  0  0
  145.0828  146.0192  153.4910 H   0  0  0  0  0  0  0  0  0  0  0  0
  147.2357  140.6405  153.1838 H   0  0  0  0  0  0  0  0  0  0  0  0
  148.1978  142.0911  153.1235 H   0  0  0  0  0  0  0  0  0  0  0  0
  147.8735  140.2485  155.5443 H   0  0  0  0  0  0  0  0  0  0  0  0
  149.3122  140.4297  154.5482 H   0  0  0  0  0  0  0  0  0  0  0  0
  148.6147  142.9871  155.5029 H   0  0  0  0  0  0  0  0  0  0  0  0
  149.5300  143.9876  157.0651 H   0  0  0  0  0  0  0  0  0  0  0  0
  150.3449  142.6267  159.4709 H   0  0  0  0  0  0  0  0  0  0  0  0
  152.5858  142.4617  159.2461 H   0  0  0  0  0  0  0  0  0  0  0  0
  152.3703  142.5552  157.5084 H   0  0  0  0  0  0  0  0  0  0  0  0
  153.9073  144.3940  158.7579 H   0  0  0  0  0  0  0  0  0  0  0  0
  152.7864  144.9243  157.5037 H   0  0  0  0  0  0  0  0  0  0  0  0
  152.3276  144.9609  160.5048 H   0  0  0  0  0  0  0  0  0  0  0  0
  152.1541  146.3157  159.3923 H   0  0  0  0  0  0  0  0  0  0  0  0
  150.1935  145.4247  158.4305 H   0  0  0  0  0  0  0  0  0  0  0  0
  150.0133  144.3509  161.2924 H   0  0  0  0  0  0  0  0  0  0  0  0
  148.6465  144.6448  160.2204 H   0  0  0  0  0  0  0  0  0  0  0  0
  149.6311  145.9925  160.7782 H   0  0  0  0  0  0  0  0  0  0  0  0
  145.7343  141.2083  156.0826 H   0  0  0  0  0  0  0  0  0  0  0  0
  1  2  1  0  0  0  0
  1 20  1  0  0  0  0
  1 21  1  0  0  0  0
  1 22  1  0  0  0  0
  2  3  1  0  0  0  0
  2 23  1  0  0  0  0
  2 24  1  0  0  0  0
  3 19  1  0  0  0  0
  3  4  2  0  0  0  0
  4  5  1  0  0  0  0
  5  6  1  0  0  0  0
  5 18  2  0  0  0  0
  6  7  1  0  0  0  0
  6 25  1  0  0  0  0
  6 26  1  0  0  0  0
  7  8  1  0  0  0  0
  7 27  1  0  0  0  0
  7 28  1  0  0  0  0
  8  9  1  0  0  0  0
  8 29  1  0  0  0  0
  9 10  2  0  0  0  0
  9 11  1  0  0  0  0
 11 12  1  0  0  0  0
 11 30  1  0  0  0  0
 12 16  1  0  0  0  0
 12 13  1  0  0  0  0
 12 31  1  0  0  0  0
 13 14  1  0  0  0  0
 13 32  1  0  0  0  0
 13 33  1  0  0  0  0
 14 15  1  0  0  0  0
 14 34  1  0  0  0  0
 14 35  1  0  0  0  0
 15 16  1  0  0  0  0
 15 36  1  0  0  0  0
 15 37  1  0  0  0  0
 16 17  1  0  0  0  0
 16 38  1  0  0  0  0
 17 39  1  0  0  0  0
 17 40  1  0  0  0  0
 17 41  1  0  0  0  0
 18 19  1  0  0  0  0
 18 42  1  0  0  0  0
M  END
> <s_m_source_file>
AV-unprocessed.smi

> <i_m_source_file_index>
933

> <i_lp_mmshare_version>
43012

> <i_f3d_flags>
0

> <s_epik_input>
W0NIM11bQ0gyXWMxbmMoW2NIXXMxKVtDSDJdW0NIMl1bTkhdQyg9TylbTkhdW0NAQEhdMltDSDJdW0NIMl1bQ0gyXVtDQEhdMltDSDNd

> <s_epik_cmdline>
J2VwaWtfcHl0aG9uJywgJy1waCcsICc3LjAnLCAnLXRuJywgJzgnLCAnLW1hJywgJzIwMCcsICctbWV0YWxfYmluZGluZycsICctaW1hZScsICc8aW5maWxlLm1hZT4nLCAnLW9tYWUnLCAnPG91dGZpbGUubWFlPic=

> <r_epik_Ionization_Penalty>
0.00203408

> <r_epik_Ionization_Penalty_Charging>
0

> <r_epik_Ionization_Penalty_Neutral>
0.00203408

> <r_epik_State_Penalty>
0.0013452

> <r_epik_Charging_Adjusted_Penalty>
0.0013452

> <i_epik_Tot_Q>
0

> <i_epik_Tot_abs_Q>
0

> <r_epik_Metal_State_Penalty>
-0

> <b_epik_Metal_Only>
0

> <s_lp_Force_Field>
OPLS_2005

> <r_lp_Energy>
18.1851

> <b_lp_Chiralities_Consistent>
1

> <s_lp_Variant>
AV-unprocessed.smi:933-4

> <Gold.Version>
5.8.1

> <Gold.Id.Protein>
6NUR|6NUR_protein|mol2

> <Gold.PLP.Fitness>
48.7807

> <Gold.PLP.PLP>
-43.7040

> <Gold.PLP.part.hbond>
-2.5404

> <Gold.PLP.part.metal>
0.0000

> <Gold.PLP.part.buried>
-6.6200

> <Gold.PLP.part.nonpolar>
-35.8247

> <Gold.PLP.part.repulsive>
0.3768

> <Gold.PLP.ligand.clash>
0.0000

> <Gold.PLP.ligand.torsion>
0.4287

> <Gold.PLP.Chemscore.Hbond>
1.9680

> <Gold.PLP.Chemscore.CHOScore>
0.0000

> <Gold.PLP.Chemscore.Metal>
0.0000

> <Gold.Chemscore.Hbonds>
donor molecule, donor type, donor heavy atom, donor atom, acceptor molecule, acceptor atom, score
      L1  H     8    29       P1  8028  0.96
      L1  H    11    30       P1  8028  0.98

> <Gold.PLP.Chemscore.Internal.Correction>
0.0301

> <Gold.Rescore>
     Score         DG    S(hbond)    S(metal)    S(lipo)     H(rot)  DE(clash)    DE(int)     intcor
     20.59     -21.14       1.83        0.00     115.50       1.55       0.07       0.48       ----

> <Gold.Chemscore.Fitness>
20.5887

> <Gold.Chemscore.DG>
-21.1363

> <Gold.Chemscore.ZeroCoef>
-5.4800

> <Gold.Chemscore.Hbond>
1.8282

> <Gold.Chemscore.Metal>
0.0000

> <Gold.Chemscore.Lipo>
115.5021

> <Gold.Chemscore.Internal_Hbond>
0.0000

> <Gold.Chemscore.DEClash>
0.0703

> <Gold.Chemscore.DEInternal>
0.4773

> <Gold.Chemscore.Rot>
1.5482

> <Gold.Chemscore.Internal.Correction>
   9.000000E+99

> <Gold.Chemscore.Hbonds>
donor molecule, donor type, donor heavy atom, donor atom, acceptor molecule, acceptor atom, score
      L1  H     8    29       P1  8028  0.92
      L1  H    11    30       P1  8028  0.61

> <Gold.Chemscore.Hbond.Weighted>
-6.1060

> <Gold.Chemscore.Metal.Weighted>
-0.0000

> <Gold.Chemscore.Lipo.Weighted>
-13.5137

> <Gold.Chemscore.Internal_Hbond.Weighted>
0.0000

> <Gold.Chemscore.DEClash.Weighted>
0.0703

> <Gold.Chemscore.DEInternal.Weighted>
0.4773

> <Gold.Chemscore.Rot.Weighted>
3.9635

> <Gold.Chemscore.Internal.Correction.Weighted>
   9.000000E+99

> <Gold.Protein.RotatedTorsions>
[ 6907 6896 6895 6894 ] final -114.91 input  -60.11 | X-H torsion
[ 7974 7965 7964 7962 ] final  -80.59 input  175.53 | X-H torsion
[ 8008 7997 7996 7995 ] final  152.21 input   59.86 | X-H torsion
[ 10167 10162 10161 10158 ] final   93.50 input  -65.29 | X-H torsion
[ 10718 10713 10712 10709 ] final   19.95 input   66.30 | X-H torsion
[ 10763 10752 10751 10750 ] final -122.18 input  -60.55 | X-H torsion
[ 11005 11000 10999 10996 ] final  -10.69 input  -57.11 | X-H torsion

> <Gold.Protein.ActiveResidues>
 VAL166  LYS551  ARG553  GLY616  TRP617  ASP618  TYR619  PRO620  LYS621  CYS622 
 ASP623  PHE694  ASN695  SER759  ASP760  ASP761  ALA762  ILE779  LEU786  VAL792 
 PHE793  MET794  SER795  GLU796  ALA797  LYS798  CYS799  TRP800  GLU811  SER814 

> <Gold.Protein.RotatedAtoms>
  150.7937  133.8734  159.3264 H   0  0  0  0  0  0  0  0  0  0  0  0  # atno 6907 bound_to 6896
  151.6565  135.0993  160.0180 H   0  0  0  0  0  0  0  0  0  0  0  0  # atno 6908 bound_to 6896
  152.4016  133.6787  159.6356 H   0  0  0  0  0  0  0  0  0  0  0  0  # atno 6909 bound_to 6896
  145.5579  140.9486  143.1463 H   0  0  0  0  0  0  0  0  0  0  0  0  # atno 7974 bound_to 7965
  156.2639  140.2027  156.6298 H   0  0  0  0  0  0  0  0  0  0  0  0  # atno 8008 bound_to 7997
  154.6692  140.0552  157.0171 H   0  0  0  0  0  0  0  0  0  0  0  0  # atno 8009 bound_to 7997
  155.1162  140.3220  155.4511 H   0  0  0  0  0  0  0  0  0  0  0  0  # atno 8010 bound_to 7997
  139.8173  144.6747  150.9563 H   0  0  0  0  0  0  0  0  0  0  0  0  # atno 10167 bound_to 10162
  157.1177  130.6536  149.5915 H   0  0  0  0  0  0  0  0  0  0  0  0  # atno 10718 bound_to 10713
  154.8684  135.4142  154.2740 H   0  0  0  0  0  0  0  0  0  0  0  0  # atno 10763 bound_to 10752
  153.3645  135.7005  153.6691 H   0  0  0  0  0  0  0  0  0  0  0  0  # atno 10764 bound_to 10752
  153.5579  135.3616  155.2759 H   0  0  0  0  0  0  0  0  0  0  0  0  # atno 10765 bound_to 10752
  140.7474  133.8620  155.9017 H   0  0  0  0  0  0  0  0  0  0  0  0  # atno 11005 bound_to 11000
  144.7497  139.7226  143.7278 LP  0  0  0  0  0  0  0  0  0  0  0  0  # atno 17320 bound_to 7965
  146.1871  139.5092  142.9829 LP  0  0  0  0  0  0  0  0  0  0  0  0  # atno 17321 bound_to 7965
  140.7815  143.4126  151.0969 LP  0  0  0  0  0  0  0  0  0  0  0  0  # atno 17342 bound_to 10162
  139.7788  143.8385  152.3134 LP  0  0  0  0  0  0  0  0  0  0  0  0  # atno 17343 bound_to 10162
  155.9835  130.4856  150.6939 LP  0  0  0  0  0  0  0  0  0  0  0  0  # atno 17370 bound_to 10713
  157.4504  131.0872  151.0852 LP  0  0  0  0  0  0  0  0  0  0  0  0  # atno 17371 bound_to 10713
  140.9781  134.1441  157.4518 LP  0  0  0  0  0  0  0  0  0  0  0  0  # atno 17394 bound_to 11000
  139.8794  135.0001  156.5994 LP  0  0  0  0  0  0  0  0  0  0  0  0  # atno 17395 bound_to 11000

$$$$
