AV-unprocessed.smi:2929|AV-procd|sdf|11239|dock2
  -GOLD-   2272016133D 1   1.00000     0.00000
 Structure written by MMmdl.
 33 34  0  0  0  0  0  0  0  0  1 V2000
  151.4105  132.3169  157.8118 C   0  0  0  0  0  0  0  0  0  0  0  0
  152.8011  131.5163  156.9137 S   0  0  0  0  0  0  0  0  0  0  0  0
  154.0553  131.9310  157.5618 O   0  0  0  0  0  0  0  0  0  0  0  0
  152.4958  130.0841  156.7721 O   0  0  0  0  0  0  0  0  0  0  0  0
  152.7375  132.2571  155.2864 C   0  0  0  0  0  0  0  0  0  0  0  0
  153.7161  133.1900  154.8889 C   0  0  0  0  0  0  0  0  0  0  0  0
  153.5953  133.7770  153.6148 C   0  0  0  0  0  0  0  0  0  0  0  0
  152.5007  133.4112  152.7923 C   0  0  0  0  0  0  0  0  0  0  0  0
  152.2530  133.9373  151.4947 N   0  0  0  0  0  0  0  0  0  0  0  0
  153.1274  134.2220  150.5141 C   0  0  0  0  0  0  0  0  0  0  0  0
  154.3442  134.0472  150.5681 O   0  0  0  0  0  0  0  0  0  0  0  0
  152.5004  134.7184  149.4384 N   0  0  0  0  0  0  0  0  0  0  0  0
  153.1595  135.1381  148.2083 C   0  0  0  0  0  0  0  0  0  0  0  0
  154.3951  135.9942  148.4086 C   0  0  0  0  0  0  0  0  0  0  0  0
  155.3905  136.1714  147.2860 C   0  0  0  0  0  0  0  0  0  0  0  0
  155.7698  135.3742  148.5100 C   0  0  0  0  0  0  0  0  0  0  0  0
  151.5698  132.4844  153.3094 C   0  0  0  0  0  0  0  0  0  0  0  0
  151.6731  131.9171  154.5294 N   0  0  0  0  0  0  0  0  0  0  0  0
  151.3636  131.9283  158.8287 H   0  0  0  0  0  0  0  0  0  0  0  0
  150.4741  132.1019  157.2971 H   0  0  0  0  0  0  0  0  0  0  0  0
  151.5696  133.3946  157.8410 H   0  0  0  0  0  0  0  0  0  0  0  0
  154.5363  133.4552  155.5390 H   0  0  0  0  0  0  0  0  0  0  0  0
  154.3337  134.5006  153.3085 H   0  0  0  0  0  0  0  0  0  0  0  0
  151.2793  134.0804  151.2693 H   0  0  0  0  0  0  0  0  0  0  0  0
  151.4971  134.8232  149.4765 H   0  0  0  0  0  0  0  0  0  0  0  0
  153.4092  134.2671  147.5996 H   0  0  0  0  0  0  0  0  0  0  0  0
  152.4382  135.7158  147.6301 H   0  0  0  0  0  0  0  0  0  0  0  0
  154.2193  136.8797  149.0169 H   0  0  0  0  0  0  0  0  0  0  0  0
  155.2190  135.6212  146.3630 H   0  0  0  0  0  0  0  0  0  0  0  0
  155.8421  137.1542  147.1661 H   0  0  0  0  0  0  0  0  0  0  0  0
  156.4721  135.8250  149.2083 H   0  0  0  0  0  0  0  0  0  0  0  0
  155.8492  134.2942  148.4014 H   0  0  0  0  0  0  0  0  0  0  0  0
  150.7109  132.1879  152.7252 H   0  0  0  0  0  0  0  0  0  0  0  0
  1  2  1  0  0  0  0
  1 19  1  0  0  0  0
  1 20  1  0  0  0  0
  1 21  1  0  0  0  0
  2  3  2  0  0  0  0
  2  4  2  0  0  0  0
  2  5  1  0  0  0  0
  5 18  1  0  0  0  0
  5  6  2  0  0  0  0
  6  7  1  0  0  0  0
  6 22  1  0  0  0  0
  7  8  2  0  0  0  0
  7 23  1  0  0  0  0
  8  9  1  0  0  0  0
  8 17  1  0  0  0  0
  9 10  1  0  0  0  0
  9 24  1  0  0  0  0
 10 11  2  0  0  0  0
 10 12  1  0  0  0  0
 12 13  1  0  0  0  0
 12 25  1  0  0  0  0
 13 14  1  0  0  0  0
 13 26  1  0  0  0  0
 13 27  1  0  0  0  0
 14 16  1  0  0  0  0
 14 15  1  0  0  0  0
 14 28  1  0  0  0  0
 15 16  1  0  0  0  0
 15 29  1  0  0  0  0
 15 30  1  0  0  0  0
 16 31  1  0  0  0  0
 16 32  1  0  0  0  0
 17 18  2  0  0  0  0
 17 33  1  0  0  0  0
M  END
> <s_m_source_file>
AV-unprocessed.smi

> <i_m_source_file_index>
2929

> <i_lp_mmshare_version>
43012

> <i_f3d_flags>
0

> <s_epik_input>
W0NIM11TKD1PKSg9TyljMVtjSF1bY0hdYyhbY0hdbjEpW05IXUMoPU8pW05IXVtDSDJdW0NIXTJbQ0gyXVtDSDJdMg==

> <s_epik_cmdline>
J2VwaWtfcHl0aG9uJywgJy1waCcsICc3LjAnLCAnLXRuJywgJzgnLCAnLW1hJywgJzIwMCcsICctbWV0YWxfYmluZGluZycsICctaW1hZScsICc8aW5maWxlLm1hZT4nLCAnLW9tYWUnLCAnPG91dGZpbGUubWFlPic=

> <r_lp_tautomer_probability>
1

> <r_epik_Ionization_Penalty>
4.04513e-05

> <r_epik_Ionization_Penalty_Charging>
0

> <r_epik_Ionization_Penalty_Neutral>
4.04513e-05

> <r_epik_State_Penalty>
-0

> <r_epik_Charging_Adjusted_Penalty>
0

> <i_epik_Tot_Q>
0

> <i_epik_Tot_abs_Q>
0

> <r_epik_Metal_State_Penalty>
-0

> <b_epik_Metal_Only>
0

> <s_lp_Force_Field>
OPLS_2005

> <r_lp_Energy>
13.7936

> <b_lp_Chiralities_Consistent>
1

> <s_lp_Variant>
AV-unprocessed.smi:2929-1

> <Gold.Version>
5.8.1

> <Gold.Id.Protein>
6NUR|6NUR_protein|mol2

> <Gold.PLP.Fitness>
39.7647

> <Gold.PLP.PLP>
-32.4857

> <Gold.PLP.part.hbond>
-3.0000

> <Gold.PLP.part.metal>
0.0000

> <Gold.PLP.part.buried>
-4.4836

> <Gold.PLP.part.nonpolar>
-24.5952

> <Gold.PLP.part.repulsive>
0.1777

> <Gold.PLP.ligand.clash>
0.0000

> <Gold.PLP.ligand.torsion>
1.6905

> <Gold.PLP.Chemscore.Hbond>
2.7000

> <Gold.PLP.Chemscore.CHOScore>
0.0000

> <Gold.PLP.Chemscore.Metal>
0.0000

> <Gold.Chemscore.Hbonds>
donor molecule, donor type, donor heavy atom, donor atom, acceptor molecule, acceptor atom, score
      L1  H    12    25       P1  7949  0.01
      P1  H 10708 10714       L1    11  0.80

> <Gold.PLP.Chemscore.Internal.Correction>
2.5601

> <Gold.Rescore>
     Score         DG    S(hbond)    S(metal)    S(lipo)     H(rot)  DE(clash)    DE(int)     intcor
     10.39     -16.68       2.72        0.00      45.11       1.23       2.25       4.04       ----

> <Gold.Chemscore.Fitness>
10.3904

> <Gold.Chemscore.DG>
-16.6784

> <Gold.Chemscore.ZeroCoef>
-5.4800

> <Gold.Chemscore.Hbond>
2.7191

> <Gold.Chemscore.Metal>
0.0000

> <Gold.Chemscore.Lipo>
45.1137

> <Gold.Chemscore.Internal_Hbond>
0.0000

> <Gold.Chemscore.DEClash>
2.2472

> <Gold.Chemscore.DEInternal>
4.0408

> <Gold.Chemscore.Rot>
1.2350

> <Gold.Chemscore.Internal.Correction>
   9.000000E+99

> <Gold.Chemscore.Hbonds>
donor molecule, donor type, donor heavy atom, donor atom, acceptor molecule, acceptor atom, score
      P1  H 10708 10714       L1    11  0.72

> <Gold.Chemscore.Hbond.Weighted>
-9.0817

> <Gold.Chemscore.Metal.Weighted>
-0.0000

> <Gold.Chemscore.Lipo.Weighted>
-5.2783

> <Gold.Chemscore.Internal_Hbond.Weighted>
0.0000

> <Gold.Chemscore.DEClash.Weighted>
2.2472

> <Gold.Chemscore.DEInternal.Weighted>
4.0408

> <Gold.Chemscore.Rot.Weighted>
3.1616

> <Gold.Chemscore.Internal.Correction.Weighted>
   9.000000E+99

> <Gold.Protein.RotatedTorsions>
[ 6907 6896 6895 6894 ] final  176.66 input  -60.11 | X-H torsion
[ 7974 7965 7964 7962 ] final  -93.13 input  175.53 | X-H torsion
[ 8008 7997 7996 7995 ] final  -68.78 input   59.86 | X-H torsion
[ 10167 10162 10161 10158 ] final  168.96 input  -65.29 | X-H torsion
[ 10718 10713 10712 10709 ] final -156.30 input   66.30 | X-H torsion
[ 10763 10752 10751 10750 ] final  171.64 input  -60.55 | X-H torsion
[ 11005 11000 10999 10996 ] final   63.04 input  -57.11 | X-H torsion

> <Gold.Protein.ActiveResidues>
 VAL166  LYS551  ARG553  GLY616  TRP617  ASP618  TYR619  PRO620  LYS621  CYS622 
 ASP623  PHE694  ASN695  SER759  ASP760  ASP761  ALA762  ILE779  LEU786  VAL792 
 PHE793  MET794  SER795  GLU796  ALA797  LYS798  CYS799  TRP800  GLU811  SER814 

> <Gold.Protein.RotatedAtoms>
  151.7165  133.3313  159.3304 H   0  0  0  0  0  0  0  0  0  0  0  0  # atno 6907 bound_to 6896
  150.7671  134.6486  159.6285 H   0  0  0  0  0  0  0  0  0  0  0  0  # atno 6908 bound_to 6896
  152.3679  134.6780  160.0238 H   0  0  0  0  0  0  0  0  0  0  0  0  # atno 6909 bound_to 6896
  145.3906  140.9528  143.2342 H   0  0  0  0  0  0  0  0  0  0  0  0  # atno 7974 bound_to 7965
  154.4892  140.0866  156.7555 H   0  0  0  0  0  0  0  0  0  0  0  0  # atno 8008 bound_to 7997
  155.4274  140.3448  155.4258 H   0  0  0  0  0  0  0  0  0  0  0  0  # atno 8009 bound_to 7997
  156.1305  140.1500  156.9061 H   0  0  0  0  0  0  0  0  0  0  0  0  # atno 8010 bound_to 7997
  139.4980  144.3758  151.9676 H   0  0  0  0  0  0  0  0  0  0  0  0  # atno 10167 bound_to 10162
  156.5246  130.8493  151.2694 H   0  0  0  0  0  0  0  0  0  0  0  0  # atno 10718 bound_to 10713
  154.4148  135.2757  155.2014 H   0  0  0  0  0  0  0  0  0  0  0  0  # atno 10763 bound_to 10752
  154.3984  135.6050  153.5887 H   0  0  0  0  0  0  0  0  0  0  0  0  # atno 10764 bound_to 10752
  152.9832  135.5920  154.4435 H   0  0  0  0  0  0  0  0  0  0  0  0  # atno 10765 bound_to 10752
  140.0051  134.6382  155.9868 H   0  0  0  0  0  0  0  0  0  0  0  0  # atno 11005 bound_to 11000
  144.8442  139.5423  143.6886 LP  0  0  0  0  0  0  0  0  0  0  0  0  # atno 17320 bound_to 7965
  146.2799  139.6850  142.9236 LP  0  0  0  0  0  0  0  0  0  0  0  0  # atno 17321 bound_to 7965
  140.3194  144.3446  150.6013 LP  0  0  0  0  0  0  0  0  0  0  0  0  # atno 17342 bound_to 10162
  140.5735  143.2178  151.7557 LP  0  0  0  0  0  0  0  0  0  0  0  0  # atno 17343 bound_to 10162
  157.7431  130.9905  150.2570 LP  0  0  0  0  0  0  0  0  0  0  0  0  # atno 17370 bound_to 10713
  156.3117  130.3773  149.7655 LP  0  0  0  0  0  0  0  0  0  0  0  0  # atno 17371 bound_to 10713
  141.1671  133.6537  156.4517 LP  0  0  0  0  0  0  0  0  0  0  0  0  # atno 17394 bound_to 11000
  140.4656  134.6801  157.5106 LP  0  0  0  0  0  0  0  0  0  0  0  0  # atno 17395 bound_to 11000

$$$$
