AV-unprocessed.smi:148|AV-procd|sdf|1211|dock8
  -GOLD-   2262018383D 1   1.00000     0.00000
 Structure written by MMmdl.
 63 67  0  0  0  0  0  0  0  0  1 V2000
  147.8972  138.4584  152.6977 O   0  0  0  0  0  0  0  0  0  0  0  0
  147.0839  139.4314  153.3195 C   0  0  0  0  0  0  0  0  0  0  0  0
  146.9338  139.1327  154.8300 C   0  0  1  0  0  0  0  0  0  0  0  0
  146.4400  137.6807  155.0477 C   0  0  0  0  0  0  0  0  0  0  0  0
  145.9036  137.4474  156.3767 N   0  0  0  0  0  0  0  0  0  0  0  0
  146.0863  138.2333  157.4923 C   0  0  0  0  0  0  0  0  0  0  0  0
  145.4954  137.8069  158.5749 N   0  0  0  0  0  0  0  0  0  0  0  0
  144.8646  136.6343  158.1766 C   0  0  0  0  0  0  0  0  0  0  0  0
  144.0558  135.6649  158.8343 C   0  0  0  0  0  0  0  0  0  0  0  0
  143.7055  135.7101  160.1391 N   0  0  0  0  0  0  0  0  0  0  0  0
  142.4023  136.3582  160.2842 C   0  0  0  0  0  0  0  0  0  0  0  0
  141.8549  136.1996  161.7078 C   0  0  0  0  0  0  0  0  0  0  0  0
  142.8698  136.7260  162.7268 C   0  0  0  0  0  0  0  0  0  0  0  0
  144.2150  136.0107  162.5436 C   0  0  0  0  0  0  0  0  0  0  0  0
  144.7477  136.1404  161.0907 C   0  0  1  0  0  0  0  0  0  0  0  0
  146.1170  135.4130  160.8629 C   0  0  2  0  0  0  0  0  0  0  0  0
  146.1007  133.9133  161.2416 C   0  0  0  0  0  0  0  0  0  0  0  0
  147.2256  133.6916  162.2631 C   0  0  0  0  0  0  0  0  0  0  0  0
  147.5617  135.0776  162.8103 C   0  0  0  0  0  0  0  0  0  0  0  0
  147.3415  135.9914  161.6065 C   0  0  2  0  0  0  0  0  0  0  0  0
  147.2494  137.3588  161.9523 O   0  0  0  0  0  0  0  0  0  0  0  0
  143.5910  134.6213  158.1047 N   0  0  0  0  0  0  0  0  0  0  0  0
  143.9072  134.5189  156.8103 C   0  0  0  0  0  0  0  0  0  0  0  0
  144.6543  135.3371  156.0655 N   0  0  0  0  0  0  0  0  0  0  0  0
  145.1136  136.3928  156.7970 C   0  0  0  0  0  0  0  0  0  0  0  0
  148.2091  139.4603  155.6563 C   0  0  2  0  0  0  0  0  0  0  0  0
  148.6393  140.9285  155.6480 C   0  0  0  0  0  0  0  0  0  0  0  0
  150.1016  140.8868  155.2081 C   0  0  0  0  0  0  0  0  0  0  0  0
  150.5306  139.5897  155.5878 O   0  0  0  0  0  0  0  0  0  0  0  0
  149.4795  138.7016  155.2459 C   0  0  0  0  0  0  0  0  0  0  0  0
  148.3051  138.8465  151.9387 H   0  0  0  0  0  0  0  0  0  0  0  0
  147.5252  140.4136  153.1520 H   0  0  0  0  0  0  0  0  0  0  0  0
  146.1214  139.4258  152.8103 H   0  0  0  0  0  0  0  0  0  0  0  0
  146.1565  139.7984  155.2093 H   0  0  0  0  0  0  0  0  0  0  0  0
  145.6592  137.4301  154.3287 H   0  0  0  0  0  0  0  0  0  0  0  0
  147.2537  136.9752  154.8754 H   0  0  0  0  0  0  0  0  0  0  0  0
  146.6695  139.1427  157.4768 H   0  0  0  0  0  0  0  0  0  0  0  0
  142.4952  137.4180  160.0419 H   0  0  0  0  0  0  0  0  0  0  0  0
  141.6924  135.9312  159.5739 H   0  0  0  0  0  0  0  0  0  0  0  0
  140.9098  136.7335  161.8072 H   0  0  0  0  0  0  0  0  0  0  0  0
  141.6436  135.1479  161.9056 H   0  0  0  0  0  0  0  0  0  0  0  0
  143.0019  137.8008  162.5970 H   0  0  0  0  0  0  0  0  0  0  0  0
  142.4985  136.5756  163.7408 H   0  0  0  0  0  0  0  0  0  0  0  0
  144.9230  136.4297  163.2561 H   0  0  0  0  0  0  0  0  0  0  0  0
  144.0928  134.9630  162.8167 H   0  0  0  0  0  0  0  0  0  0  0  0
  144.9095  137.2034  160.9112 H   0  0  0  0  0  0  0  0  0  0  0  0
  146.3661  135.4924  159.8044 H   0  0  0  0  0  0  0  0  0  0  0  0
  145.1433  133.6154  161.6676 H   0  0  0  0  0  0  0  0  0  0  0  0
  146.2503  133.2858  160.3622 H   0  0  0  0  0  0  0  0  0  0  0  0
  146.9419  132.9927  163.0504 H   0  0  0  0  0  0  0  0  0  0  0  0
  148.0995  133.2791  161.7573 H   0  0  0  0  0  0  0  0  0  0  0  0
  146.8792  135.3301  163.6217 H   0  0  0  0  0  0  0  0  0  0  0  0
  148.5779  135.1372  163.2015 H   0  0  0  0  0  0  0  0  0  0  0  0
  148.2110  135.8901  160.9546 H   0  0  0  0  0  0  0  0  0  0  0  0
  146.4190  137.5056  162.3785 H   0  0  0  0  0  0  0  0  0  0  0  0
  143.5029  133.6585  156.2975 H   0  0  0  0  0  0  0  0  0  0  0  0
  148.0164  139.2226  156.7030 H   0  0  0  0  0  0  0  0  0  0  0  0
  148.0375  141.5676  155.0024 H   0  0  0  0  0  0  0  0  0  0  0  0
  148.5665  141.3370  156.6569 H   0  0  0  0  0  0  0  0  0  0  0  0
  150.1823  140.9931  154.1249 H   0  0  0  0  0  0  0  0  0  0  0  0
  150.7054  141.6653  155.6749 H   0  0  0  0  0  0  0  0  0  0  0  0
  149.5820  137.7475  155.7632 H   0  0  0  0  0  0  0  0  0  0  0  0
  149.5213  138.5094  154.1741 H   0  0  0  0  0  0  0  0  0  0  0  0
  1  2  1  0  0  0  0
  1 31  1  0  0  0  0
  2  3  1  0  0  0  0
  2 32  1  0  0  0  0
  2 33  1  0  0  0  0
  3  4  1  0  0  0  0
  3 26  1  0  0  0  0
  3 34  1  0  0  0  0
  4  5  1  0  0  0  0
  4 35  1  0  0  0  0
  4 36  1  0  0  0  0
  5 25  1  0  0  0  0
  5  6  1  0  0  0  0
  6  7  2  0  0  0  0
  6 37  1  0  0  0  0
  7  8  1  0  0  0  0
  8 25  2  0  0  0  0
  8  9  1  0  0  0  0
  9 10  1  0  0  0  0
  9 22  2  0  0  0  0
 10 15  1  0  0  0  0
 10 11  1  0  0  0  0
 11 12  1  0  0  0  0
 11 38  1  0  0  0  0
 11 39  1  0  0  0  0
 12 13  1  0  0  0  0
 12 40  1  0  0  0  0
 12 41  1  0  0  0  0
 13 14  1  0  0  0  0
 13 42  1  0  0  0  0
 13 43  1  0  0  0  0
 14 15  1  0  0  0  0
 14 44  1  0  0  0  0
 14 45  1  0  0  0  0
 15 16  1  0  0  0  0
 15 46  1  0  0  0  0
 16 20  1  0  0  0  0
 16 17  1  0  0  0  0
 16 47  1  0  0  0  0
 17 18  1  0  0  0  0
 17 48  1  0  0  0  0
 17 49  1  0  0  0  0
 18 19  1  0  0  0  0
 18 50  1  0  0  0  0
 18 51  1  0  0  0  0
 19 20  1  0  0  0  0
 19 52  1  0  0  0  0
 19 53  1  0  0  0  0
 20 21  1  0  0  0  0
 20 54  1  0  0  0  0
 21 55  1  0  0  0  0
 22 23  1  0  0  0  0
 23 24  2  0  0  0  0
 23 56  1  0  0  0  0
 24 25  1  0  0  0  0
 26 30  1  0  0  0  0
 26 27  1  0  0  0  0
 26 57  1  0  0  0  0
 27 28  1  0  0  0  0
 27 58  1  0  0  0  0
 27 59  1  0  0  0  0
 28 29  1  0  0  0  0
 28 60  1  0  0  0  0
 28 61  1  0  0  0  0
 29 30  1  0  0  0  0
 30 62  1  0  0  0  0
 30 63  1  0  0  0  0
M  END
> <s_m_source_file>
AV-unprocessed.smi

> <i_m_source_file_index>
148

> <i_lp_mmshare_version>
43012

> <i_f3d_flags>
0

> <s_epik_input>
W0NIMl0xT1tDSDJdW0NIMl1bQ0BIXTFbQ0BIXShbQ0gyXVtPSF0pW0NIMl1uKFtjSF1uMiljKGMyMyluW2NIXW5jM040W0NIMl1bQ0gyXVtDSDJdW0NIMl1bQ0BIXTRbQ0BASF01W0NIMl1bQ0gyXVtDSDJdW0NASF01W09IXQ==

> <s_epik_cmdline>
J2VwaWtfcHl0aG9uJywgJy1waCcsICc3LjAnLCAnLXRuJywgJzgnLCAnLW1hJywgJzIwMCcsICctbWV0YWxfYmluZGluZycsICctaW1hZScsICc8aW5maWxlLm1hZT4nLCAnLW9tYWUnLCAnPG91dGZpbGUubWFlPic=

> <r_lp_tautomer_probability>
1

> <r_epik_Ionization_Penalty>
0.00556303

> <r_epik_Ionization_Penalty_Charging>
0

> <r_epik_Ionization_Penalty_Neutral>
0.00556303

> <r_epik_State_Penalty>
0.00401767

> <r_epik_Charging_Adjusted_Penalty>
0.00401767

> <i_epik_Tot_Q>
0

> <i_epik_Tot_abs_Q>
0

> <r_epik_Metal_State_Penalty>
-0

> <b_epik_Metal_Only>
0

> <s_lp_Force_Field>
OPLS_2005

> <r_lp_Energy>
71.509

> <b_lp_Chiralities_Consistent>
1

> <s_lp_Variant>
AV-unprocessed.smi:148-10

> <Gold.Version>
5.8.1

> <Gold.Id.Protein>
6NUR|6NUR_protein|mol2

> <Gold.PLP.Fitness>
39.9540

> <Gold.PLP.PLP>
-31.4931

> <Gold.PLP.part.hbond>
-4.0000

> <Gold.PLP.part.metal>
0.0000

> <Gold.PLP.part.buried>
-5.5206

> <Gold.PLP.part.nonpolar>
-22.1370

> <Gold.PLP.part.repulsive>
0.0931

> <Gold.PLP.ligand.clash>
0.0000

> <Gold.PLP.ligand.torsion>
1.1117

> <Gold.PLP.Chemscore.Hbond>
2.4240

> <Gold.PLP.Chemscore.CHOScore>
1.0000

> <Gold.PLP.Chemscore.Metal>
0.0000

> <Gold.Chemscore.Hbonds>
donor molecule, donor type, donor heavy atom, donor atom, acceptor molecule, acceptor atom, score
      L1  H     1    31       P1  7957  1.00
      P1  H  6931  6943       L1    21  0.78
      P1  H  6934  6947       L1    21  0.52
      L1  C    23    56       P1 10957  0.98

> <Gold.PLP.Chemscore.Internal.Correction>
0.4122

> <Gold.Rescore>
     Score         DG    S(hbond)    S(metal)    S(lipo)     H(rot)  DE(clash)    DE(int)     intcor
     11.48     -12.70       1.81        0.00      82.70       3.32       0.15       1.07       ----

> <Gold.Chemscore.Fitness>
11.4773

> <Gold.Chemscore.DG>
-12.6999

> <Gold.Chemscore.ZeroCoef>
-5.4800

> <Gold.Chemscore.Hbond>
1.8096

> <Gold.Chemscore.Metal>
0.0000

> <Gold.Chemscore.Lipo>
82.7000

> <Gold.Chemscore.Internal_Hbond>
0.0000

> <Gold.Chemscore.DEClash>
0.1508

> <Gold.Chemscore.DEInternal>
1.0718

> <Gold.Chemscore.Rot>
3.3203

> <Gold.Chemscore.Internal.Correction>
   9.000000E+99

> <Gold.Chemscore.Hbonds>
donor molecule, donor type, donor heavy atom, donor atom, acceptor molecule, acceptor atom, score
      L1  H     1    31       P1  7957  0.87
      P1  H  6931  6943       L1    21  0.62
      P1  H  6934  6947       L1    21  0.05

> <Gold.Chemscore.Hbond.Weighted>
-6.0440

> <Gold.Chemscore.Metal.Weighted>
-0.0000

> <Gold.Chemscore.Lipo.Weighted>
-9.6759

> <Gold.Chemscore.Internal_Hbond.Weighted>
0.0000

> <Gold.Chemscore.DEClash.Weighted>
0.1508

> <Gold.Chemscore.DEInternal.Weighted>
1.0718

> <Gold.Chemscore.Rot.Weighted>
8.5000

> <Gold.Chemscore.Internal.Correction.Weighted>
   9.000000E+99

> <Gold.Protein.RotatedTorsions>
[ 6907 6896 6895 6894 ] final -136.43 input  -60.11 | X-H torsion
[ 7974 7965 7964 7962 ] final   12.52 input  175.53 | X-H torsion
[ 8008 7997 7996 7995 ] final   40.94 input   59.86 | X-H torsion
[ 10167 10162 10161 10158 ] final  116.28 input  -65.29 | X-H torsion
[ 10718 10713 10712 10709 ] final  -53.76 input   66.30 | X-H torsion
[ 10763 10752 10751 10750 ] final   82.69 input  -60.55 | X-H torsion
[ 11005 11000 10999 10996 ] final  -94.30 input  -57.11 | X-H torsion

> <Gold.Protein.ActiveResidues>
 VAL166  LYS551  ARG553  GLY616  TRP617  ASP618  TYR619  PRO620  LYS621  CYS622 
 ASP623  PHE694  ASN695  SER759  ASP760  ASP761  ALA762  ILE779  LEU786  VAL792 
 PHE793  MET794  SER795  GLU796  ALA797  LYS798  CYS799  TRP800  GLU811  SER814 

> <Gold.Protein.RotatedAtoms>
  151.0100  133.5974  159.2683 H   0  0  0  0  0  0  0  0  0  0  0  0  # atno 6907 bound_to 6896
  151.3129  135.0798  159.9288 H   0  0  0  0  0  0  0  0  0  0  0  0  # atno 6908 bound_to 6896
  152.5297  133.9761  159.7839 H   0  0  0  0  0  0  0  0  0  0  0  0  # atno 6909 bound_to 6896
  146.2349  139.9324  142.8494 H   0  0  0  0  0  0  0  0  0  0  0  0  # atno 7974 bound_to 7965
  155.2615  140.3359  155.4273 H   0  0  0  0  0  0  0  0  0  0  0  0  # atno 8008 bound_to 7997
  156.2173  140.1794  156.7603 H   0  0  0  0  0  0  0  0  0  0  0  0  # atno 8009 bound_to 7997
  154.5772  140.0660  156.9036 H   0  0  0  0  0  0  0  0  0  0  0  0  # atno 8010 bound_to 7997
  139.6258  144.7108  151.2536 H   0  0  0  0  0  0  0  0  0  0  0  0  # atno 10167 bound_to 10162
  156.1508  130.4151  149.9949 H   0  0  0  0  0  0  0  0  0  0  0  0  # atno 10718 bound_to 10713
  153.1225  135.4719  154.9218 H   0  0  0  0  0  0  0  0  0  0  0  0  # atno 10763 bound_to 10752
  154.7589  135.3126  154.8419 H   0  0  0  0  0  0  0  0  0  0  0  0  # atno 10764 bound_to 10752
  153.8980  135.6878  153.4810 H   0  0  0  0  0  0  0  0  0  0  0  0  # atno 10765 bound_to 10752
  141.1474  133.7947  157.0279 H   0  0  0  0  0  0  0  0  0  0  0  0  # atno 11005 bound_to 11000
  145.2031  140.9863  143.4144 LP  0  0  0  0  0  0  0  0  0  0  0  0  # atno 17320 bound_to 7965
  144.9756  139.3835  143.6287 LP  0  0  0  0  0  0  0  0  0  0  0  0  # atno 17321 bound_to 7965
  140.7410  143.6570  150.8198 LP  0  0  0  0  0  0  0  0  0  0  0  0  # atno 17342 bound_to 10162
  140.0188  143.5565  152.2809 LP  0  0  0  0  0  0  0  0  0  0  0  0  # atno 17343 bound_to 10162
  156.7807  130.9220  151.3646 LP  0  0  0  0  0  0  0  0  0  0  0  0  # atno 17370 bound_to 10713
  157.6655  130.9004  149.9922 LP  0  0  0  0  0  0  0  0  0  0  0  0  # atno 17371 bound_to 10713
  140.0773  134.9668  157.1566 LP  0  0  0  0  0  0  0  0  0  0  0  0  # atno 17394 bound_to 11000
  140.3626  134.2477  155.7185 LP  0  0  0  0  0  0  0  0  0  0  0  0  # atno 17395 bound_to 11000

$$$$
