AV-unprocessed.smi:2364|AV-procd|sdf|9417|dock9
  -GOLD-   2272013 53D 1   1.00000     0.00000
 Structure written by MMmdl.
 46 47  0  0  0  0  0  0  0  0  1 V2000
  145.4329  143.8245  162.2755 C   0  0  0  0  0  0  0  0  0  0  0  0
  144.3180  143.2488  161.3850 C   0  0  0  0  0  0  0  0  0  0  0  0
  144.1541  143.9184  159.9883 C   0  0  1  0  0  0  0  0  0  0  0  0
  143.1663  143.1021  159.1222 C   0  0  0  0  0  0  0  0  0  0  0  0
  143.6301  145.3713  160.1200 C   0  0  0  0  0  0  0  0  0  0  0  0
  142.6115  145.4981  161.0922 O   0  0  0  0  0  0  0  0  0  0  0  0
  145.4453  144.0184  159.2917 N   0  0  0  0  0  0  0  0  0  0  0  0
  146.5430  143.2562  159.4396 C   0  0  0  0  0  0  0  0  0  0  0  0
  146.6249  142.3087  160.2213 O   0  0  0  0  0  0  0  0  0  0  0  0
  147.5264  143.6664  158.6189 N   0  0  0  0  0  0  0  0  0  0  0  0
  148.8569  143.1793  158.5339 C   0  0  0  0  0  0  0  0  0  0  0  0
  149.0765  141.9156  158.0726 N   0  0  0  0  0  0  0  0  0  0  0  0
  150.4014  141.8962  158.1369 C   0  0  0  0  0  0  0  0  0  0  0  0
  150.9493  143.0184  158.6209 N   0  0  0  0  0  0  0  0  0  0  0  0
  152.3558  143.4126  158.7511 C   0  0  0  0  0  0  0  0  0  0  0  0
  153.2517  142.2316  159.1922 C   0  0  0  0  0  0  0  0  0  0  0  0
  152.9560  141.7950  160.6392 C   0  0  0  0  0  0  0  0  0  0  0  0
  153.1288  142.9702  161.6161 C   0  0  0  0  0  0  0  0  0  0  0  0
  152.2834  144.1838  161.1956 C   0  0  0  0  0  0  0  0  0  0  0  0
  152.5763  144.5873  159.7376 C   0  0  0  0  0  0  0  0  0  0  0  0
  149.9384  143.8957  158.8444 N   0  0  0  0  0  0  0  0  0  0  0  0
  145.4798  143.2851  163.2216 H   0  0  0  0  0  0  0  0  0  0  0  0
  145.2602  144.8742  162.5105 H   0  0  0  0  0  0  0  0  0  0  0  0
  146.4125  143.7393  161.8052 H   0  0  0  0  0  0  0  0  0  0  0  0
  144.4996  142.1810  161.2624 H   0  0  0  0  0  0  0  0  0  0  0  0
  143.3755  143.3057  161.9305 H   0  0  0  0  0  0  0  0  0  0  0  0
  142.1753  143.0651  159.5756 H   0  0  0  0  0  0  0  0  0  0  0  0
  143.4899  142.0694  158.9928 H   0  0  0  0  0  0  0  0  0  0  0  0
  143.0550  143.5374  158.1286 H   0  0  0  0  0  0  0  0  0  0  0  0
  144.4373  146.0560  160.3814 H   0  0  0  0  0  0  0  0  0  0  0  0
  143.2319  145.7199  159.1662 H   0  0  0  0  0  0  0  0  0  0  0  0
  142.4768  144.6553  161.4979 H   0  0  0  0  0  0  0  0  0  0  0  0
  145.5074  144.7642  158.6144 H   0  0  0  0  0  0  0  0  0  0  0  0
  147.3050  144.4290  157.9961 H   0  0  0  0  0  0  0  0  0  0  0  0
  150.9799  141.0430  157.8158 H   0  0  0  0  0  0  0  0  0  0  0  0
  152.6765  143.7345  157.7596 H   0  0  0  0  0  0  0  0  0  0  0  0
  153.1448  141.3851  158.5140 H   0  0  0  0  0  0  0  0  0  0  0  0
  154.2980  142.5311  159.1196 H   0  0  0  0  0  0  0  0  0  0  0  0
  151.9409  141.4029  160.7119 H   0  0  0  0  0  0  0  0  0  0  0  0
  153.6211  140.9790  160.9226 H   0  0  0  0  0  0  0  0  0  0  0  0
  152.8578  142.6591  162.6253 H   0  0  0  0  0  0  0  0  0  0  0  0
  154.1803  143.2575  161.6539 H   0  0  0  0  0  0  0  0  0  0  0  0
  151.2248  143.9515  161.3152 H   0  0  0  0  0  0  0  0  0  0  0  0
  152.4876  145.0240  161.8599 H   0  0  0  0  0  0  0  0  0  0  0  0
  153.6124  144.9205  159.6659 H   0  0  0  0  0  0  0  0  0  0  0  0
  151.9747  145.4531  159.4580 H   0  0  0  0  0  0  0  0  0  0  0  0
  1  2  1  0  0  0  0
  1 22  1  0  0  0  0
  1 23  1  0  0  0  0
  1 24  1  0  0  0  0
  2  3  1  0  0  0  0
  2 25  1  0  0  0  0
  2 26  1  0  0  0  0
  3  4  1  0  0  0  0
  3  5  1  0  0  0  0
  3  7  1  0  0  0  0
  4 27  1  0  0  0  0
  4 28  1  0  0  0  0
  4 29  1  0  0  0  0
  5  6  1  0  0  0  0
  5 30  1  0  0  0  0
  5 31  1  0  0  0  0
  6 32  1  0  0  0  0
  7  8  1  0  0  0  0
  7 33  1  0  0  0  0
  8  9  2  0  0  0  0
  8 10  1  0  0  0  0
 10 11  1  0  0  0  0
 10 34  1  0  0  0  0
 11 21  2  0  0  0  0
 11 12  1  0  0  0  0
 12 13  2  0  0  0  0
 13 14  1  0  0  0  0
 13 35  1  0  0  0  0
 14 15  1  0  0  0  0
 14 21  1  0  0  0  0
 15 20  1  0  0  0  0
 15 16  1  0  0  0  0
 15 36  1  0  0  0  0
 16 17  1  0  0  0  0
 16 37  1  0  0  0  0
 16 38  1  0  0  0  0
 17 18  1  0  0  0  0
 17 39  1  0  0  0  0
 17 40  1  0  0  0  0
 18 19  1  0  0  0  0
 18 41  1  0  0  0  0
 18 42  1  0  0  0  0
 19 20  1  0  0  0  0
 19 43  1  0  0  0  0
 19 44  1  0  0  0  0
 20 45  1  0  0  0  0
 20 46  1  0  0  0  0
M  END
> <s_m_source_file>
AV-unprocessed.smi

> <i_m_source_file_index>
2364

> <i_lp_mmshare_version>
43012

> <i_f3d_flags>
0

> <s_epik_input>
W0NIM11bQ0gyXVtDQEBdKFtDSDNdKShbQ0gyXVtPSF0pW05IXUMoPU8pW05IXWMxbltjSF1uKG4xKVtDSF0yW0NIMl1bQ0gyXVtDSDJdW0NIMl1bQ0gyXTI=

> <s_epik_cmdline>
J2VwaWtfcHl0aG9uJywgJy1waCcsICc3LjAnLCAnLXRuJywgJzgnLCAnLW1hJywgJzIwMCcsICctbWV0YWxfYmluZGluZycsICctaW1hZScsICc8aW5maWxlLm1hZT4nLCAnLW9tYWUnLCAnPG91dGZpbGUubWFlPic=

> <r_lp_tautomer_probability>
1

> <r_epik_Ionization_Penalty>
9.31261e-05

> <r_epik_Ionization_Penalty_Charging>
0

> <r_epik_Ionization_Penalty_Neutral>
9.31261e-05

> <r_epik_State_Penalty>
-0

> <r_epik_Charging_Adjusted_Penalty>
0

> <i_epik_Tot_Q>
0

> <i_epik_Tot_abs_Q>
0

> <r_epik_Metal_State_Penalty>
-0

> <b_epik_Metal_Only>
0

> <s_lp_Force_Field>
OPLS_2005

> <r_lp_Energy>
23.546

> <b_lp_Chiralities_Consistent>
1

> <s_lp_Variant>
AV-unprocessed.smi:2364-1

> <Gold.Version>
5.8.1

> <Gold.Id.Protein>
6NUR|6NUR_protein|mol2

> <Gold.PLP.Fitness>
40.0651

> <Gold.PLP.PLP>
-37.7656

> <Gold.PLP.part.hbond>
-3.8633

> <Gold.PLP.part.metal>
0.0000

> <Gold.PLP.part.buried>
-4.8420

> <Gold.PLP.part.nonpolar>
-28.8438

> <Gold.PLP.part.repulsive>
0.3635

> <Gold.PLP.ligand.clash>
0.0210

> <Gold.PLP.ligand.torsion>
2.1036

> <Gold.PLP.Chemscore.Hbond>
2.1299

> <Gold.PLP.Chemscore.CHOScore>
0.0000

> <Gold.PLP.Chemscore.Metal>
0.0000

> <Gold.Chemscore.Hbonds>
donor molecule, donor type, donor heavy atom, donor atom, acceptor molecule, acceptor atom, score
      L1  H    10    34       P1  8029  0.93
      P1  H  6933  6944       L1     9  0.32
      P1  H  6934  6946       L1     9  1.00

> <Gold.PLP.Chemscore.Internal.Correction>
0.1379

> <Gold.Rescore>
     Score         DG    S(hbond)    S(metal)    S(lipo)     H(rot)  DE(clash)    DE(int)     intcor
     13.47     -16.98       1.93        0.00      94.23       2.34       0.16       3.35       ----

> <Gold.Chemscore.Fitness>
13.4707

> <Gold.Chemscore.DG>
-16.9773

> <Gold.Chemscore.ZeroCoef>
-5.4800

> <Gold.Chemscore.Hbond>
1.9316

> <Gold.Chemscore.Metal>
0.0000

> <Gold.Chemscore.Lipo>
94.2261

> <Gold.Chemscore.Internal_Hbond>
0.0000

> <Gold.Chemscore.DEClash>
0.1582

> <Gold.Chemscore.DEInternal>
3.3484

> <Gold.Chemscore.Rot>
2.3354

> <Gold.Chemscore.Internal.Correction>
   9.000000E+99

> <Gold.Chemscore.Hbonds>
donor molecule, donor type, donor heavy atom, donor atom, acceptor molecule, acceptor atom, score
      L1  H    10    34       P1  8029  0.36
      P1  H  6933  6944       L1     9  0.29
      P1  H  6934  6946       L1     9  0.94

> <Gold.Chemscore.Hbond.Weighted>
-6.4516

> <Gold.Chemscore.Metal.Weighted>
-0.0000

> <Gold.Chemscore.Lipo.Weighted>
-11.0245

> <Gold.Chemscore.Internal_Hbond.Weighted>
0.0000

> <Gold.Chemscore.DEClash.Weighted>
0.1582

> <Gold.Chemscore.DEInternal.Weighted>
3.3484

> <Gold.Chemscore.Rot.Weighted>
5.9787

> <Gold.Chemscore.Internal.Correction.Weighted>
   9.000000E+99

> <Gold.Protein.RotatedTorsions>
[ 6907 6896 6895 6894 ] final   62.91 input  -60.11 | X-H torsion
[ 7974 7965 7964 7962 ] final  -60.90 input  175.53 | X-H torsion
[ 8008 7997 7996 7995 ] final    6.50 input   59.86 | X-H torsion
[ 10167 10162 10161 10158 ] final   68.91 input  -65.29 | X-H torsion
[ 10718 10713 10712 10709 ] final  133.58 input   66.30 | X-H torsion
[ 10763 10752 10751 10750 ] final -158.90 input  -60.55 | X-H torsion
[ 11005 11000 10999 10996 ] final   65.54 input  -57.11 | X-H torsion

> <Gold.Protein.ActiveResidues>
 VAL166  LYS551  ARG553  GLY616  TRP617  ASP618  TYR619  PRO620  LYS621  CYS622 
 ASP623  PHE694  ASN695  SER759  ASP760  ASP761  ALA762  ILE779  LEU786  VAL792 
 PHE793  MET794  SER795  GLU796  ALA797  LYS798  CYS799  TRP800  GLU811  SER814 

> <Gold.Protein.RotatedAtoms>
  152.4210  134.5955  159.9985 H   0  0  0  0  0  0  0  0  0  0  0  0  # atno 6907 bound_to 6896
  151.6105  133.3342  159.3074 H   0  0  0  0  0  0  0  0  0  0  0  0  # atno 6908 bound_to 6896
  150.8098  134.7284  159.6743 H   0  0  0  0  0  0  0  0  0  0  0  0  # atno 6909 bound_to 6896
  145.8099  140.8605  143.0187 H   0  0  0  0  0  0  0  0  0  0  0  0  # atno 7974 bound_to 7965
  154.7419  140.2750  155.6366 H   0  0  0  0  0  0  0  0  0  0  0  0  # atno 8008 bound_to 7997
  156.2875  140.2695  156.2074 H   0  0  0  0  0  0  0  0  0  0  0  0  # atno 8009 bound_to 7997
  155.0248  140.0371  157.2441 H   0  0  0  0  0  0  0  0  0  0  0  0  # atno 8010 bound_to 7997
  140.0735  144.5132  150.7211 H   0  0  0  0  0  0  0  0  0  0  0  0  # atno 10167 bound_to 10162
  157.4758  131.1083  150.9745 H   0  0  0  0  0  0  0  0  0  0  0  0  # atno 10718 bound_to 10713
  154.7519  135.3094  154.8541 H   0  0  0  0  0  0  0  0  0  0  0  0  # atno 10763 bound_to 10752
  153.9326  135.6783  153.4749 H   0  0  0  0  0  0  0  0  0  0  0  0  # atno 10764 bound_to 10752
  153.1115  135.4864  154.8972 H   0  0  0  0  0  0  0  0  0  0  0  0  # atno 10765 bound_to 10752
  139.9888  134.6624  156.0127 H   0  0  0  0  0  0  0  0  0  0  0  0  # atno 11005 bound_to 11000
  144.6758  140.0381  143.7481 LP  0  0  0  0  0  0  0  0  0  0  0  0  # atno 17320 bound_to 7965
  145.9788  139.2925  143.1054 LP  0  0  0  0  0  0  0  0  0  0  0  0  # atno 17321 bound_to 7965
  140.7114  143.2508  151.4570 LP  0  0  0  0  0  0  0  0  0  0  0  0  # atno 17342 bound_to 10162
  139.5822  144.1685  152.1982 LP  0  0  0  0  0  0  0  0  0  0  0  0  # atno 17343 bound_to 10162
  157.0494  130.5781  149.5368 LP  0  0  0  0  0  0  0  0  0  0  0  0  # atno 17370 bound_to 10713
  156.0096  130.5186  150.7945 LP  0  0  0  0  0  0  0  0  0  0  0  0  # atno 17371 bound_to 10713
  141.1548  133.6544  156.4127 LP  0  0  0  0  0  0  0  0  0  0  0  0  # atno 17394 bound_to 11000
  140.4949  134.6541  157.5225 LP  0  0  0  0  0  0  0  0  0  0  0  0  # atno 17395 bound_to 11000

$$$$
