AV-unprocessed.smi:1330|AV-procd|sdf|5486|dock1
  -GOLD-   22720 5 63D 1   1.00000     0.00000
 Structure written by MMmdl.
 42 43  0  0  0  0  0  0  0  0  1 V2000
  147.4013  136.8875  163.0856 C   0  0  0  0  0  0  0  0  0  0  0  0
  147.8670  136.1090  161.8849 C   0  0  0  0  0  0  0  0  0  0  0  0
  148.5133  136.7681  160.9800 N   0  0  0  0  0  0  0  0  0  0  0  0
  148.9821  136.1504  159.8377 N   0  0  0  0  0  0  0  0  0  0  0  0
  149.6754  137.0560  158.9128 C   0  0  0  0  0  0  0  0  0  0  0  0
  148.6912  137.9863  158.1692 C   0  0  1  0  0  0  0  0  0  0  0  0
  147.5411  138.1332  158.9792 O   0  0  0  0  0  0  0  0  0  0  0  0
  149.2779  139.3910  157.9519 C   0  0  0  0  0  0  0  0  0  0  0  0
  150.6394  139.2658  157.5756 O   0  0  0  0  0  0  0  0  0  0  0  0
  151.1130  140.3768  156.8345 C   0  0  0  0  0  0  0  0  0  0  0  0
  151.4321  141.5443  157.7457 C   0  0  0  0  0  0  0  0  0  0  0  0
  150.7941  142.7883  157.5576 C   0  0  0  0  0  0  0  0  0  0  0  0
  151.0861  143.8692  158.4125 C   0  0  0  0  0  0  0  0  0  0  0  0
  152.0164  143.7095  159.4583 C   0  0  0  0  0  0  0  0  0  0  0  0
  152.3728  145.0334  160.5059 Cl  0  0  0  0  0  0  0  0  0  0  0  0
  152.6541  142.4679  159.6490 C   0  0  0  0  0  0  0  0  0  0  0  0
  152.3620  141.3868  158.7943 C   0  0  0  0  0  0  0  0  0  0  0  0
  148.8248  134.8265  159.5500 C   0  0  0  0  0  0  0  0  0  0  0  0
  149.2570  134.3177  158.5147 O   0  0  0  0  0  0  0  0  0  0  0  0
  148.0934  134.0850  160.5798 C   0  0  0  0  0  0  0  0  0  0  0  0
  147.9039  132.6949  160.3167 C   0  0  0  0  0  0  0  0  0  0  0  0
  147.7529  131.5635  160.1238 N   0  0  0  0  0  0  0  0  0  0  0  0
  147.6252  134.6810  161.7049 C   0  0  0  0  0  0  0  0  0  0  0  0
  146.8574  133.9574  162.8026 C   0  0  0  0  0  0  0  0  0  0  0  0
  147.8473  136.4934  163.9989 H   0  0  0  0  0  0  0  0  0  0  0  0
  146.3175  136.8319  163.1866 H   0  0  0  0  0  0  0  0  0  0  0  0
  147.6709  137.9425  163.0167 H   0  0  0  0  0  0  0  0  0  0  0  0
  150.4367  137.6407  159.4337 H   0  0  0  0  0  0  0  0  0  0  0  0
  150.2342  136.4534  158.1944 H   0  0  0  0  0  0  0  0  0  0  0  0
  148.4147  137.5578  157.2049 H   0  0  0  0  0  0  0  0  0  0  0  0
  146.8183  137.6983  158.5531 H   0  0  0  0  0  0  0  0  0  0  0  0
  148.7065  139.9507  157.2089 H   0  0  0  0  0  0  0  0  0  0  0  0
  149.2375  139.9571  158.8840 H   0  0  0  0  0  0  0  0  0  0  0  0
  152.0128  140.1012  156.2820 H   0  0  0  0  0  0  0  0  0  0  0  0
  150.3668  140.6831  156.0995 H   0  0  0  0  0  0  0  0  0  0  0  0
  150.0766  142.9162  156.7602 H   0  0  0  0  0  0  0  0  0  0  0  0
  150.5944  144.8196  158.2653 H   0  0  0  0  0  0  0  0  0  0  0  0
  153.3667  142.3426  160.4509 H   0  0  0  0  0  0  0  0  0  0  0  0
  152.8509  140.4357  158.9475 H   0  0  0  0  0  0  0  0  0  0  0  0
  146.7406  132.8945  162.5931 H   0  0  0  0  0  0  0  0  0  0  0  0
  145.8590  134.3814  162.9138 H   0  0  0  0  0  0  0  0  0  0  0  0
  147.3776  134.0467  163.7568 H   0  0  0  0  0  0  0  0  0  0  0  0
  1  2  1  0  0  0  0
  1 25  1  0  0  0  0
  1 26  1  0  0  0  0
  1 27  1  0  0  0  0
  2 23  1  0  0  0  0
  2  3  2  0  0  0  0
  3  4  1  0  0  0  0
  4  5  1  0  0  0  0
  4 18  1  0  0  0  0
  5  6  1  0  0  0  0
  5 28  1  0  0  0  0
  5 29  1  0  0  0  0
  6  7  1  0  0  0  0
  6  8  1  0  0  0  0
  6 30  1  0  0  0  0
  7 31  1  0  0  0  0
  8  9  1  0  0  0  0
  8 32  1  0  0  0  0
  8 33  1  0  0  0  0
  9 10  1  0  0  0  0
 10 11  1  0  0  0  0
 10 34  1  0  0  0  0
 10 35  1  0  0  0  0
 11 17  1  0  0  0  0
 11 12  2  0  0  0  0
 12 13  1  0  0  0  0
 12 36  1  0  0  0  0
 13 14  2  0  0  0  0
 13 37  1  0  0  0  0
 14 15  1  0  0  0  0
 14 16  1  0  0  0  0
 16 17  2  0  0  0  0
 16 38  1  0  0  0  0
 17 39  1  0  0  0  0
 18 19  2  0  0  0  0
 18 20  1  0  0  0  0
 20 21  1  0  0  0  0
 20 23  2  0  0  0  0
 21 22  3  0  0  0  0
 23 24  1  0  0  0  0
 24 40  1  0  0  0  0
 24 41  1  0  0  0  0
 24 42  1  0  0  0  0
M  END
> <s_m_source_file>
AV-unprocessed.smi

> <i_m_source_file_index>
1330

> <i_lp_mmshare_version>
43012

> <i_f3d_flags>
0

> <s_epik_input>
TiNDYyhjMVtDSDNdKWMoPU8pbihuYzFbQ0gzXSlbQ0gyXVtDQEhdKFtPSF0pW0NIMl1PW0NIMl1jMltjSF1bY0hdYyhDbClbY0hdW2NIXTI=

> <s_epik_cmdline>
J2VwaWtfcHl0aG9uJywgJy1waCcsICc3LjAnLCAnLXRuJywgJzgnLCAnLW1hJywgJzIwMCcsICctbWV0YWxfYmluZGluZycsICctaW1hZScsICc8aW5maWxlLm1hZT4nLCAnLW9tYWUnLCAnPG91dGZpbGUubWFlPic=

> <r_lp_tautomer_probability>
1

> <r_epik_Ionization_Penalty>
6.27695e-08

> <r_epik_Ionization_Penalty_Charging>
2.19172e-10

> <r_epik_Ionization_Penalty_Neutral>
6.25504e-08

> <r_epik_State_Penalty>
-0

> <r_epik_Charging_Adjusted_Penalty>
2.19172e-10

> <i_epik_Tot_Q>
0

> <i_epik_Tot_abs_Q>
0

> <r_epik_Metal_State_Penalty>
-0

> <b_epik_Metal_Only>
0

> <s_lp_Force_Field>
OPLS_2005

> <r_lp_Energy>
31.5646

> <b_lp_Chiralities_Consistent>
1

> <s_lp_Variant>
AV-unprocessed.smi:1330-2

> <Gold.Version>
5.8.1

> <Gold.Id.Protein>
6NUR|6NUR_protein|mol2

> <Gold.PLP.Fitness>
52.3963

> <Gold.PLP.PLP>
-46.2999

> <Gold.PLP.part.hbond>
-4.0000

> <Gold.PLP.part.metal>
0.0000

> <Gold.PLP.part.buried>
-3.7377

> <Gold.PLP.part.nonpolar>
-39.1743

> <Gold.PLP.part.repulsive>
0.0000

> <Gold.PLP.ligand.clash>
0.0000

> <Gold.PLP.ligand.torsion>
1.0481

> <Gold.PLP.Chemscore.Hbond>
2.6456

> <Gold.PLP.Chemscore.CHOScore>
0.0000

> <Gold.PLP.Chemscore.Metal>
0.0000

> <Gold.Chemscore.Hbonds>
donor molecule, donor type, donor heavy atom, donor atom, acceptor molecule, acceptor atom, score
      P1  H  6896  6907       L1    19  0.25
      P1  H  6931  6943       L1     3  1.00
      P1  H  6934  6947       L1     7  0.27

> <Gold.PLP.Chemscore.Internal.Correction>
0.2558

> <Gold.Rescore>
     Score         DG    S(hbond)    S(metal)    S(lipo)     H(rot)  DE(clash)    DE(int)     intcor
     14.72     -16.97       1.05        0.00     122.36       2.48       1.27       0.98       ----

> <Gold.Chemscore.Fitness>
14.7159

> <Gold.Chemscore.DG>
-16.9709

> <Gold.Chemscore.ZeroCoef>
-5.4800

> <Gold.Chemscore.Hbond>
1.0532

> <Gold.Chemscore.Metal>
0.0000

> <Gold.Chemscore.Lipo>
122.3583

> <Gold.Chemscore.Internal_Hbond>
0.0000

> <Gold.Chemscore.DEClash>
1.2717

> <Gold.Chemscore.DEInternal>
0.9832

> <Gold.Chemscore.Rot>
2.4777

> <Gold.Chemscore.Internal.Correction>
   9.000000E+99

> <Gold.Chemscore.Hbonds>
donor molecule, donor type, donor heavy atom, donor atom, acceptor molecule, acceptor atom, score
      P1  H  6931  6943       L1     3  0.34
      P1  H  6934  6947       L1     7  0.25

> <Gold.Chemscore.Hbond.Weighted>
-3.5178

> <Gold.Chemscore.Metal.Weighted>
-0.0000

> <Gold.Chemscore.Lipo.Weighted>
-14.3159

> <Gold.Chemscore.Internal_Hbond.Weighted>
0.0000

> <Gold.Chemscore.DEClash.Weighted>
1.2717

> <Gold.Chemscore.DEInternal.Weighted>
0.9832

> <Gold.Chemscore.Rot.Weighted>
6.3428

> <Gold.Chemscore.Internal.Correction.Weighted>
   9.000000E+99

> <Gold.Protein.RotatedTorsions>
[ 6907 6896 6895 6894 ] final  -99.59 input  -60.11 | X-H torsion
[ 7974 7965 7964 7962 ] final   67.34 input  175.53 | X-H torsion
[ 8008 7997 7996 7995 ] final  179.14 input   59.86 | X-H torsion
[ 10167 10162 10161 10158 ] final  140.16 input  -65.29 | X-H torsion
[ 10718 10713 10712 10709 ] final   88.00 input   66.30 | X-H torsion
[ 10763 10752 10751 10750 ] final -113.12 input  -60.55 | X-H torsion
[ 11005 11000 10999 10996 ] final  -46.91 input  -57.11 | X-H torsion

> <Gold.Protein.ActiveResidues>
 VAL166  LYS551  ARG553  GLY616  TRP617  ASP618  TYR619  PRO620  LYS621  CYS622 
 ASP623  PHE694  ASN695  SER759  ASP760  ASP761  ALA762  ILE779  LEU786  VAL792 
 PHE793  MET794  SER795  GLU796  ALA797  LYS798  CYS799  TRP800  GLU811  SER814 

> <Gold.Protein.RotatedAtoms>
  150.7085  134.1018  159.3968 H   0  0  0  0  0  0  0  0  0  0  0  0  # atno 6907 bound_to 6896
  151.9004  135.0378  160.0515 H   0  0  0  0  0  0  0  0  0  0  0  0  # atno 6908 bound_to 6896
  152.2419  133.5107  159.5311 H   0  0  0  0  0  0  0  0  0  0  0  0  # atno 6909 bound_to 6896
  145.8159  139.3058  143.1072 H   0  0  0  0  0  0  0  0  0  0  0  0  # atno 7974 bound_to 7965
  156.0468  140.1316  157.0095 H   0  0  0  0  0  0  0  0  0  0  0  0  # atno 8008 bound_to 7997
  154.4416  140.1019  156.6388 H   0  0  0  0  0  0  0  0  0  0  0  0  # atno 8009 bound_to 7997
  155.5584  140.3464  155.4487 H   0  0  0  0  0  0  0  0  0  0  0  0  # atno 8010 bound_to 7997
  139.5057  144.6251  151.5956 H   0  0  0  0  0  0  0  0  0  0  0  0  # atno 10167 bound_to 10162
  157.6945  131.0278  150.3209 H   0  0  0  0  0  0  0  0  0  0  0  0  # atno 10718 bound_to 10713
  154.8381  135.4466  154.1300 H   0  0  0  0  0  0  0  0  0  0  0  0  # atno 10763 bound_to 10752
  153.2513  135.6927  153.7683 H   0  0  0  0  0  0  0  0  0  0  0  0  # atno 10764 bound_to 10752
  153.6994  135.3374  155.3197 H   0  0  0  0  0  0  0  0  0  0  0  0  # atno 10765 bound_to 10752
  141.0608  133.6710  156.3223 H   0  0  0  0  0  0  0  0  0  0  0  0  # atno 11005 bound_to 11000
  145.9728  140.8747  143.0154 LP  0  0  0  0  0  0  0  0  0  0  0  0  # atno 17320 bound_to 7965
  144.6752  140.1969  143.7391 LP  0  0  0  0  0  0  0  0  0  0  0  0  # atno 17321 bound_to 7965
  140.5966  143.9685  150.6358 LP  0  0  0  0  0  0  0  0  0  0  0  0  # atno 17342 bound_to 10162
  140.2883  143.3341  152.1086 LP  0  0  0  0  0  0  0  0  0  0  0  0  # atno 17343 bound_to 10162
  156.3696  130.3861  149.7186 LP  0  0  0  0  0  0  0  0  0  0  0  0  # atno 17370 bound_to 10713
  156.4605  130.7949  151.2969 LP  0  0  0  0  0  0  0  0  0  0  0  0  # atno 17371 bound_to 10713
  140.5872  134.5687  157.5492 LP  0  0  0  0  0  0  0  0  0  0  0  0  # atno 17394 bound_to 11000
  139.9431  134.7751  156.0628 LP  0  0  0  0  0  0  0  0  0  0  0  0  # atno 17395 bound_to 11000

$$$$
