AV-unprocessed.smi:1570|AV-procd|sdf|6316|dock6
  -GOLD-   22720 6523D 1   1.00000     0.00000
 Structure written by MMmdl.
 51 53  0  0  0  0  0  0  0  0  1 V2000
  150.7014  141.9874  156.8047 C   0  0  0  0  0  0  0  0  0  0  0  0
  151.6971  142.8570  157.5823 C   0  0  0  0  0  0  0  0  0  0  0  0
  152.2874  142.1186  158.6959 N   0  0  0  0  0  0  0  0  0  0  0  0
  152.7388  140.8426  158.6687 C   0  0  0  0  0  0  0  0  0  0  0  0
  152.7298  140.0924  157.6924 O   0  0  0  0  0  0  0  0  0  0  0  0
  153.1929  140.5304  159.9054 N   0  0  0  0  0  0  0  0  0  0  0  0
  153.7709  139.2537  160.3222 C   0  0  0  0  0  0  0  0  0  0  0  0
  155.3102  139.3124  160.3853 C   0  0  2  0  0  0  0  0  0  0  0  0
  155.7919  139.5826  159.0839 O   0  0  0  0  0  0  0  0  0  0  0  0
  155.9045  137.9564  160.8191 C   0  0  0  0  0  0  0  0  0  0  0  0
  155.6275  137.5554  162.1999 N   0  0  0  0  0  0  0  0  0  0  0  0
  154.2654  137.0463  162.3250 C   0  0  0  0  0  0  0  0  0  0  0  0
  153.9160  136.6130  163.7624 C   0  0  1  0  0  0  0  0  0  0  0  0
  154.5886  135.2954  164.1839 C   0  0  0  0  0  0  0  0  0  0  0  0
  154.2000  137.6714  164.6784 O   0  0  0  0  0  0  0  0  0  0  0  0
  155.5202  138.2053  164.5987 C   0  0  2  0  0  0  0  0  0  0  0  0
  155.6230  139.3708  165.5880 C   0  0  0  0  0  0  0  0  0  0  0  0
  155.8109  138.6471  163.1527 C   0  0  0  0  0  0  0  0  0  0  0  0
  153.0102  141.6325  160.7529 C   0  0  0  0  0  0  0  0  0  0  0  0
  153.2975  141.8091  162.1178 C   0  0  0  0  0  0  0  0  0  0  0  0
  152.9804  143.0640  162.6886 C   0  0  0  0  0  0  0  0  0  0  0  0
  152.3944  144.0919  161.9053 C   0  0  0  0  0  0  0  0  0  0  0  0
  152.1125  143.8866  160.5344 C   0  0  0  0  0  0  0  0  0  0  0  0
  152.4400  142.6317  159.9918 C   0  0  0  0  0  0  0  0  0  0  0  0
  150.2629  142.5462  155.9780 H   0  0  0  0  0  0  0  0  0  0  0  0
  149.8875  141.6494  157.4467 H   0  0  0  0  0  0  0  0  0  0  0  0
  151.1894  141.1057  156.3881 H   0  0  0  0  0  0  0  0  0  0  0  0
  152.4834  143.2086  156.9125 H   0  0  0  0  0  0  0  0  0  0  0  0
  151.1992  143.7513  157.9578 H   0  0  0  0  0  0  0  0  0  0  0  0
  153.3741  139.0254  161.3129 H   0  0  0  0  0  0  0  0  0  0  0  0
  153.4321  138.4396  159.6803 H   0  0  0  0  0  0  0  0  0  0  0  0
  155.6208  140.1069  161.0624 H   0  0  0  0  0  0  0  0  0  0  0  0
  156.3768  138.8832  158.8339 H   0  0  0  0  0  0  0  0  0  0  0  0
  155.5427  137.1757  160.1481 H   0  0  0  0  0  0  0  0  0  0  0  0
  156.9841  137.9976  160.6649 H   0  0  0  0  0  0  0  0  0  0  0  0
  153.5617  137.8196  162.0120 H   0  0  0  0  0  0  0  0  0  0  0  0
  154.1166  136.2054  161.6465 H   0  0  0  0  0  0  0  0  0  0  0  0
  152.8393  136.4489  163.8097 H   0  0  0  0  0  0  0  0  0  0  0  0
  154.2720  134.4755  163.5388 H   0  0  0  0  0  0  0  0  0  0  0  0
  154.3210  135.0325  165.2073 H   0  0  0  0  0  0  0  0  0  0  0  0
  155.6754  135.3525  164.1266 H   0  0  0  0  0  0  0  0  0  0  0  0
  156.2382  137.4402  164.8957 H   0  0  0  0  0  0  0  0  0  0  0  0
  156.6218  139.8077  165.5772 H   0  0  0  0  0  0  0  0  0  0  0  0
  155.4176  139.0374  166.6056 H   0  0  0  0  0  0  0  0  0  0  0  0
  154.9096  140.1587  165.3452 H   0  0  0  0  0  0  0  0  0  0  0  0
  156.8320  139.0228  163.1101 H   0  0  0  0  0  0  0  0  0  0  0  0
  155.1598  139.4816  162.8873 H   0  0  0  0  0  0  0  0  0  0  0  0
  153.7380  141.0222  162.7117 H   0  0  0  0  0  0  0  0  0  0  0  0
  153.1848  143.2406  163.7344 H   0  0  0  0  0  0  0  0  0  0  0  0
  152.1588  145.0420  162.3616 H   0  0  0  0  0  0  0  0  0  0  0  0
  151.6624  144.6638  159.9348 H   0  0  0  0  0  0  0  0  0  0  0  0
  1  2  1  0  0  0  0
  1 25  1  0  0  0  0
  1 26  1  0  0  0  0
  1 27  1  0  0  0  0
  2  3  1  0  0  0  0
  2 28  1  0  0  0  0
  2 29  1  0  0  0  0
  3 24  1  0  0  0  0
  3  4  1  0  0  0  0
  4  5  2  0  0  0  0
  4  6  1  0  0  0  0
  6  7  1  0  0  0  0
  6 19  1  0  0  0  0
  7  8  1  0  0  0  0
  7 30  1  0  0  0  0
  7 31  1  0  0  0  0
  8  9  1  0  0  0  0
  8 10  1  0  0  0  0
  8 32  1  0  0  0  0
  9 33  1  0  0  0  0
 10 11  1  0  0  0  0
 10 34  1  0  0  0  0
 10 35  1  0  0  0  0
 11 18  1  0  0  0  0
 11 12  1  0  0  0  0
 12 13  1  0  0  0  0
 12 36  1  0  0  0  0
 12 37  1  0  0  0  0
 13 14  1  0  0  0  0
 13 15  1  0  0  0  0
 13 38  1  0  0  0  0
 14 39  1  0  0  0  0
 14 40  1  0  0  0  0
 14 41  1  0  0  0  0
 15 16  1  0  0  0  0
 16 17  1  0  0  0  0
 16 18  1  0  0  0  0
 16 42  1  0  0  0  0
 17 43  1  0  0  0  0
 17 44  1  0  0  0  0
 17 45  1  0  0  0  0
 18 46  1  0  0  0  0
 18 47  1  0  0  0  0
 19 24  2  0  0  0  0
 19 20  1  0  0  0  0
 20 21  2  0  0  0  0
 20 48  1  0  0  0  0
 21 22  1  0  0  0  0
 21 49  1  0  0  0  0
 22 23  2  0  0  0  0
 22 50  1  0  0  0  0
 23 24  1  0  0  0  0
 23 51  1  0  0  0  0
M  END
> <s_m_source_file>
AV-unprocessed.smi

> <i_m_source_file_index>
1570

> <i_lp_mmshare_version>
43012

> <i_f3d_flags>
0

> <s_epik_input>
W2NIXTFbY0hdW2NIXVtjSF1jKGMxMiluKFtDSDJdW0NIM10pYyg9TyluMltDSDJdW0NASF0oW09IXSlbQ0gyXU4zW0NIMl1bQ0BASF0oW0NIM10pT1tDQEBIXShbQ0gzXSlbQ0gyXTM=

> <s_epik_cmdline>
J2VwaWtfcHl0aG9uJywgJy1waCcsICc3LjAnLCAnLXRuJywgJzgnLCAnLW1hJywgJzIwMCcsICctbWV0YWxfYmluZGluZycsICctaW1hZScsICc8aW5maWxlLm1hZT4nLCAnLW9tYWUnLCAnPG91dGZpbGUubWFlPic=

> <r_epik_Ionization_Penalty>
0.214359

> <r_epik_Ionization_Penalty_Charging>
2.30976e-09

> <r_epik_Ionization_Penalty_Neutral>
0.214359

> <r_epik_State_Penalty>
0.204533

> <r_epik_Charging_Adjusted_Penalty>
0.204533

> <i_epik_Tot_Q>
0

> <i_epik_Tot_abs_Q>
0

> <r_epik_Metal_State_Penalty>
0.204533

> <b_epik_Metal_Only>
0

> <s_lp_Force_Field>
OPLS_2005

> <r_lp_Energy>
63.3527

> <b_lp_Chiralities_Consistent>
1

> <s_lp_Variant>
AV-unprocessed.smi:1570-5

> <Gold.Version>
5.8.1

> <Gold.Id.Protein>
6NUR|6NUR_protein|mol2

> <Gold.PLP.Fitness>
52.9001

> <Gold.PLP.PLP>
-51.0245

> <Gold.PLP.part.hbond>
-2.0000

> <Gold.PLP.part.metal>
0.0000

> <Gold.PLP.part.buried>
-4.8357

> <Gold.PLP.part.nonpolar>
-42.5810

> <Gold.PLP.part.repulsive>
0.0736

> <Gold.PLP.ligand.clash>
0.0000

> <Gold.PLP.ligand.torsion>
0.6276

> <Gold.PLP.Chemscore.Hbond>
1.0000

> <Gold.PLP.Chemscore.CHOScore>
0.0000

> <Gold.PLP.Chemscore.Metal>
0.0000

> <Gold.Chemscore.Hbonds>
donor molecule, donor type, donor heavy atom, donor atom, acceptor molecule, acceptor atom, score
      P1  H  7997  8009       L1     5  1.00

> <Gold.PLP.Chemscore.Internal.Correction>
0.1309

> <Gold.Rescore>
     Score         DG    S(hbond)    S(metal)    S(lipo)     H(rot)  DE(clash)    DE(int)     intcor
     16.46     -19.83       0.92        0.00     141.48       2.06       0.28       3.10       ----

> <Gold.Chemscore.Fitness>
16.4598

> <Gold.Chemscore.DG>
-19.8348

> <Gold.Chemscore.ZeroCoef>
-5.4800

> <Gold.Chemscore.Hbond>
0.9187

> <Gold.Chemscore.Metal>
0.0000

> <Gold.Chemscore.Lipo>
141.4808

> <Gold.Chemscore.Internal_Hbond>
0.0000

> <Gold.Chemscore.DEClash>
0.2772

> <Gold.Chemscore.DEInternal>
3.0979

> <Gold.Chemscore.Rot>
2.0574

> <Gold.Chemscore.Internal.Correction>
   9.000000E+99

> <Gold.Chemscore.Hbonds>
donor molecule, donor type, donor heavy atom, donor atom, acceptor molecule, acceptor atom, score
      P1  H  7997  8009       L1     5  0.72

> <Gold.Chemscore.Hbond.Weighted>
-3.0684

> <Gold.Chemscore.Metal.Weighted>
-0.0000

> <Gold.Chemscore.Lipo.Weighted>
-16.5533

> <Gold.Chemscore.Internal_Hbond.Weighted>
0.0000

> <Gold.Chemscore.DEClash.Weighted>
0.2772

> <Gold.Chemscore.DEInternal.Weighted>
3.0979

> <Gold.Chemscore.Rot.Weighted>
5.2669

> <Gold.Chemscore.Internal.Correction.Weighted>
   9.000000E+99

> <Gold.Protein.RotatedTorsions>
[ 6907 6896 6895 6894 ] final -134.80 input  -60.11 | X-H torsion
[ 7974 7965 7964 7962 ] final   -3.35 input  175.53 | X-H torsion
[ 8008 7997 7996 7995 ] final  165.16 input   59.86 | X-H torsion
[ 10167 10162 10161 10158 ] final   38.46 input  -65.29 | X-H torsion
[ 10718 10713 10712 10709 ] final  -83.24 input   66.30 | X-H torsion
[ 10763 10752 10751 10750 ] final  -51.91 input  -60.55 | X-H torsion
[ 11005 11000 10999 10996 ] final   11.20 input  -57.11 | X-H torsion

> <Gold.Protein.ActiveResidues>
 VAL166  LYS551  ARG553  GLY616  TRP617  ASP618  TYR619  PRO620  LYS621  CYS622 
 ASP623  PHE694  ASN695  SER759  ASP760  ASP761  ALA762  ILE779  LEU786  VAL792 
 PHE793  MET794  SER795  GLU796  ALA797  LYS798  CYS799  TRP800  GLU811  SER814 

> <Gold.Protein.RotatedAtoms>
  150.9902  133.6157  159.2709 H   0  0  0  0  0  0  0  0  0  0  0  0  # atno 6907 bound_to 6896
  151.3380  135.0856  159.9371 H   0  0  0  0  0  0  0  0  0  0  0  0  # atno 6908 bound_to 6896
  152.5243  133.9519  159.7730 H   0  0  0  0  0  0  0  0  0  0  0  0  # atno 6909 bound_to 6896
  146.2391  140.1707  142.8332 H   0  0  0  0  0  0  0  0  0  0  0  0  # atno 7974 bound_to 7965
  156.1822  140.1677  156.8252 H   0  0  0  0  0  0  0  0  0  0  0  0  # atno 8008 bound_to 7997
  154.5373  140.0744  156.8483 H   0  0  0  0  0  0  0  0  0  0  0  0  # atno 8009 bound_to 7997
  155.3284  140.3377  155.4242 H   0  0  0  0  0  0  0  0  0  0  0  0  # atno 8010 bound_to 7997
  140.3934  144.1821  150.6131 H   0  0  0  0  0  0  0  0  0  0  0  0  # atno 10167 bound_to 10162
  156.0021  130.4659  150.4227 H   0  0  0  0  0  0  0  0  0  0  0  0  # atno 10718 bound_to 10713
  154.1342  135.6515  153.4928 H   0  0  0  0  0  0  0  0  0  0  0  0  # atno 10763 bound_to 10752
  153.0185  135.5300  154.6970 H   0  0  0  0  0  0  0  0  0  0  0  0  # atno 10764 bound_to 10752
  154.6213  135.2965  155.0293 H   0  0  0  0  0  0  0  0  0  0  0  0  # atno 10765 bound_to 10752
  140.5059  134.0700  155.7805 H   0  0  0  0  0  0  0  0  0  0  0  0  # atno 11005 bound_to 11000
  145.0014  140.8635  143.5279 LP  0  0  0  0  0  0  0  0  0  0  0  0  # atno 17320 bound_to 7965
  145.1727  139.2395  143.5333 LP  0  0  0  0  0  0  0  0  0  0  0  0  # atno 17321 bound_to 7965
  140.4816  143.2377  151.8948 LP  0  0  0  0  0  0  0  0  0  0  0  0  # atno 17342 bound_to 10162
  139.4788  144.5263  151.8730 LP  0  0  0  0  0  0  0  0  0  0  0  0  # atno 17343 bound_to 10162
  157.2282  131.0498  151.2507 LP  0  0  0  0  0  0  0  0  0  0  0  0  # atno 17370 bound_to 10713
  157.3736  130.7194  149.6582 LP  0  0  0  0  0  0  0  0  0  0  0  0  # atno 17371 bound_to 10713
  141.1411  133.9136  157.2323 LP  0  0  0  0  0  0  0  0  0  0  0  0  # atno 17394 bound_to 11000
  139.9687  135.0134  156.9454 LP  0  0  0  0  0  0  0  0  0  0  0  0  # atno 17395 bound_to 11000

$$$$
