AV-unprocessed.smi:3161|AV-procd|sdf|12055|dock10
  -GOLD-   2272017483D 1   1.00000     0.00000
 Structure written by MMmdl.
 41 42  0  0  0  0  0  0  0  0  2 V2000
  150.2662  135.5638  155.3610 C   0  0  0  0  0  0  0  0  0  0  0  0
  150.8283  136.9541  155.2850 C   0  0  0  0  0  0  0  0  0  0  0  0
  151.5710  137.5375  154.2195 C   0  0  0  0  0  0  0  0  0  0  0  0
  151.9250  138.7887  154.4648 N   0  0  0  0  0  0  0  0  0  0  0  0
  151.4198  139.0486  155.6897 N   0  0  0  0  0  0  0  0  0  0  0  0
  151.6210  140.3544  156.2936 C   0  0  0  0  0  0  0  0  0  0  0  0
  150.3609  141.2385  156.2166 C   0  0  2  0  0  0  0  0  0  0  0  0
  149.9467  141.4691  154.7537 C   0  0  0  0  0  0  0  0  0  0  0  0
  150.5968  142.5269  156.9075 N   0  3  0  0  0  0  0  0  0  0  0  0
  150.2176  142.5599  158.3352 C   0  0  0  0  0  0  0  0  0  0  0  0
  151.4629  142.6207  159.2304 C   0  0  2  0  0  0  0  0  0  0  0  0
  152.2745  141.3117  159.1747 C   0  0  0  0  0  0  0  0  0  0  0  0
  153.4570  141.3674  160.1486 C   0  0  0  0  0  0  0  0  0  0  0  0
  152.9561  141.7354  161.5492 C   0  0  0  0  0  0  0  0  0  0  0  0
  152.1041  143.0132  161.4927 C   0  0  0  0  0  0  0  0  0  0  0  0
  151.0307  142.8406  160.5719 O   0  0  0  0  0  0  0  0  0  0  0  0
  150.7544  137.9582  156.2086 C   0  0  0  0  0  0  0  0  0  0  0  0
  149.9967  135.1833  154.3755 H   0  0  0  0  0  0  0  0  0  0  0  0
  149.3668  135.5234  155.9758 H   0  0  0  0  0  0  0  0  0  0  0  0
  150.9826  134.8642  155.7916 H   0  0  0  0  0  0  0  0  0  0  0  0
  151.8627  137.0901  153.2807 H   0  0  0  0  0  0  0  0  0  0  0  0
  151.9406  140.2227  157.3290 H   0  0  0  0  0  0  0  0  0  0  0  0
  152.4493  140.8373  155.7732 H   0  0  0  0  0  0  0  0  0  0  0  0
  149.5518  140.7133  156.7271 H   0  0  0  0  0  0  0  0  0  0  0  0
  149.7900  140.5209  154.2388 H   0  0  0  0  0  0  0  0  0  0  0  0
  150.7135  142.0187  154.2065 H   0  0  0  0  0  0  0  0  0  0  0  0
  149.0160  142.0311  154.6792 H   0  0  0  0  0  0  0  0  0  0  0  0
  151.5879  142.7186  156.8549 H   0  0  0  0  0  0  0  0  0  0  0  0
  149.5704  143.4137  158.5362 H   0  0  0  0  0  0  0  0  0  0  0  0
  149.6460  141.6600  158.5656 H   0  0  0  0  0  0  0  0  0  0  0  0
  152.0936  143.4521  158.9091 H   0  0  0  0  0  0  0  0  0  0  0  0
  151.6316  140.4685  159.4315 H   0  0  0  0  0  0  0  0  0  0  0  0
  152.6361  141.1318  158.1618 H   0  0  0  0  0  0  0  0  0  0  0  0
  153.9786  140.4102  160.1701 H   0  0  0  0  0  0  0  0  0  0  0  0
  154.1787  142.1113  159.8087 H   0  0  0  0  0  0  0  0  0  0  0  0
  152.3590  140.9167  161.9528 H   0  0  0  0  0  0  0  0  0  0  0  0
  153.7987  141.8725  162.2276 H   0  0  0  0  0  0  0  0  0  0  0  0
  151.6914  143.2314  162.4777 H   0  0  0  0  0  0  0  0  0  0  0  0
  152.7105  143.8732  161.2042 H   0  0  0  0  0  0  0  0  0  0  0  0
  150.2874  137.9858  157.1824 H   0  0  0  0  0  0  0  0  0  0  0  0
  150.1066  143.2603  156.4152 H   0  0  0  0  0  0  0  0  0  0  0  0
  1  2  1  0  0  0  0
  1 18  1  0  0  0  0
  1 19  1  0  0  0  0
  1 20  1  0  0  0  0
  2 17  2  0  0  0  0
  2  3  1  0  0  0  0
  3  4  2  0  0  0  0
  3 21  1  0  0  0  0
  4  5  1  0  0  0  0
  5  6  1  0  0  0  0
  5 17  1  0  0  0  0
  6  7  1  0  0  0  0
  6 22  1  0  0  0  0
  6 23  1  0  0  0  0
  7  8  1  0  0  0  0
  7  9  1  0  0  0  0
  7 24  1  0  0  0  0
  8 25  1  0  0  0  0
  8 26  1  0  0  0  0
  8 27  1  0  0  0  0
  9 10  1  0  0  0  0
  9 28  1  0  0  0  0
  9 41  1  0  0  0  0
 10 11  1  0  0  0  0
 10 29  1  0  0  0  0
 10 30  1  0  0  0  0
 11 16  1  0  0  0  0
 11 12  1  0  0  0  0
 11 31  1  0  0  0  0
 12 13  1  0  0  0  0
 12 32  1  0  0  0  0
 12 33  1  0  0  0  0
 13 14  1  0  0  0  0
 13 34  1  0  0  0  0
 13 35  1  0  0  0  0
 14 15  1  0  0  0  0
 14 36  1  0  0  0  0
 14 37  1  0  0  0  0
 15 16  1  0  0  0  0
 15 38  1  0  0  0  0
 15 39  1  0  0  0  0
 17 40  1  0  0  0  0
M  CHG  1   9   1
M  END
> <s_m_source_file>
AV-unprocessed.smi

> <i_m_source_file_index>
3161

> <i_lp_mmshare_version>
43012

> <i_f3d_flags>
0

> <s_epik_input>
W0NIM11jMVtjSF1ubihbY0hdMSlbQ0gyXVtDQEhdKFtDSDNdKVtOSF1bQ0gyXVtDQEBIXTJbQ0gyXVtDSDJdW0NIMl1bQ0gyXU8y

> <s_epik_cmdline>
J2VwaWtfcHl0aG9uJywgJy1waCcsICc3LjAnLCAnLXRuJywgJzgnLCAnLW1hJywgJzIwMCcsICctbWV0YWxfYmluZGluZycsICctaW1hZScsICc8aW5maWxlLm1hZT4nLCAnLW9tYWUnLCAnPG91dGZpbGUubWFlPic=

> <r_lp_tautomer_probability>
1

> <r_epik_Ionization_Penalty>
0.00849661

> <r_epik_Ionization_Penalty_Charging>
0.00848754

> <r_epik_Ionization_Penalty_Neutral>
9.06711e-06

> <r_epik_State_Penalty>
0.00639836

> <r_epik_Charging_Adjusted_Penalty>
0.0148859

> <i_epik_Tot_Q>
1

> <i_epik_Tot_abs_Q>
1

> <r_epik_Metal_State_Penalty>
0.00639921

> <b_epik_Metal_Only>
0

> <s_lp_Force_Field>
OPLS_2005

> <r_lp_Energy>
12.4461

> <b_lp_Chiralities_Consistent>
1

> <s_lp_Variant>
AV-unprocessed.smi:3161-1

> <Gold.Version>
5.8.1

> <Gold.Id.Protein>
6NUR|6NUR_protein|mol2

> <Gold.PLP.Fitness>
47.0263

> <Gold.PLP.PLP>
-37.0915

> <Gold.PLP.part.hbond>
-3.0000

> <Gold.PLP.part.metal>
0.0000

> <Gold.PLP.part.buried>
-3.7679

> <Gold.PLP.part.nonpolar>
-30.6664

> <Gold.PLP.part.repulsive>
0.2239

> <Gold.PLP.ligand.clash>
0.0000

> <Gold.PLP.ligand.torsion>
1.0488

> <Gold.PLP.Chemscore.Hbond>
2.9920

> <Gold.PLP.Chemscore.CHOScore>
1.0000

> <Gold.PLP.Chemscore.Metal>
0.0000

> <Gold.Chemscore.Hbonds>
donor molecule, donor type, donor heavy atom, donor atom, acceptor molecule, acceptor atom, score
      L1  H     9    41       P1  8028  1.95
      P1  H  7989  7998       L1     4  0.31
      L1  C     3    21       P1  7949  1.00

> <Gold.PLP.Chemscore.Internal.Correction>
0.0564

> <Gold.Rescore>
     Score         DG    S(hbond)    S(metal)    S(lipo)     H(rot)  DE(clash)    DE(int)     intcor
     16.50     -17.74       1.28        0.00     102.66       1.57       0.11       1.13       ----

> <Gold.Chemscore.Fitness>
16.4990

> <Gold.Chemscore.DG>
-17.7408

> <Gold.Chemscore.ZeroCoef>
-5.4800

> <Gold.Chemscore.Hbond>
1.2792

> <Gold.Chemscore.Metal>
0.0000

> <Gold.Chemscore.Lipo>
102.6578

> <Gold.Chemscore.Internal_Hbond>
0.0000

> <Gold.Chemscore.DEClash>
0.1118

> <Gold.Chemscore.DEInternal>
1.1299

> <Gold.Chemscore.Rot>
1.5714

> <Gold.Chemscore.Internal.Correction>
   9.000000E+99

> <Gold.Chemscore.Hbonds>
donor molecule, donor type, donor heavy atom, donor atom, acceptor molecule, acceptor atom, score
      L1  H     9    41       P1  8028  0.91
      P1  H  7989  7998       L1     4  0.08

> <Gold.Chemscore.Hbond.Weighted>
-4.2726

> <Gold.Chemscore.Metal.Weighted>
-0.0000

> <Gold.Chemscore.Lipo.Weighted>
-12.0110

> <Gold.Chemscore.Internal_Hbond.Weighted>
0.0000

> <Gold.Chemscore.DEClash.Weighted>
0.1118

> <Gold.Chemscore.DEInternal.Weighted>
1.1299

> <Gold.Chemscore.Rot.Weighted>
4.0228

> <Gold.Chemscore.Internal.Correction.Weighted>
   9.000000E+99

> <Gold.Protein.RotatedTorsions>
[ 6907 6896 6895 6894 ] final   34.24 input  -60.11 | X-H torsion
[ 7974 7965 7964 7962 ] final  -85.16 input  175.53 | X-H torsion
[ 8008 7997 7996 7995 ] final -160.54 input   59.86 | X-H torsion
[ 10167 10162 10161 10158 ] final  -10.30 input  -65.29 | X-H torsion
[ 10718 10713 10712 10709 ] final  -19.69 input   66.30 | X-H torsion
[ 10763 10752 10751 10750 ] final  -53.99 input  -60.55 | X-H torsion
[ 11005 11000 10999 10996 ] final   32.48 input  -57.11 | X-H torsion

> <Gold.Protein.ActiveResidues>
 VAL166  LYS551  ARG553  GLY616  TRP617  ASP618  TYR619  PRO620  LYS621  CYS622 
 ASP623  PHE694  ASN695  SER759  ASP760  ASP761  ALA762  ILE779  LEU786  VAL792 
 PHE793  MET794  SER795  GLU796  ALA797  LYS798  CYS799  TRP800  GLU811  SER814 

> <Gold.Protein.RotatedAtoms>
  152.0996  134.9351  160.0569 H   0  0  0  0  0  0  0  0  0  0  0  0  # atno 6907 bound_to 6896
  152.0570  133.4040  159.4410 H   0  0  0  0  0  0  0  0  0  0  0  0  # atno 6908 bound_to 6896
  150.6839  134.3163  159.4811 H   0  0  0  0  0  0  0  0  0  0  0  0  # atno 6909 bound_to 6896
  145.4970  140.9549  143.1780 H   0  0  0  0  0  0  0  0  0  0  0  0  # atno 7974 bound_to 7965
  155.7790  140.0862  157.2069 H   0  0  0  0  0  0  0  0  0  0  0  0  # atno 8008 bound_to 7997
  154.3991  140.1511  156.3087 H   0  0  0  0  0  0  0  0  0  0  0  0  # atno 8009 bound_to 7997
  155.8673  140.3427  155.5799 H   0  0  0  0  0  0  0  0  0  0  0  0  # atno 8010 bound_to 7997
  140.7110  143.5763  150.9039 H   0  0  0  0  0  0  0  0  0  0  0  0  # atno 10167 bound_to 10162
  156.5422  130.4681  149.6493 H   0  0  0  0  0  0  0  0  0  0  0  0  # atno 10718 bound_to 10713
  154.1677  135.6464  153.5001 H   0  0  0  0  0  0  0  0  0  0  0  0  # atno 10763 bound_to 10752
  153.0093  135.5376  154.6645 H   0  0  0  0  0  0  0  0  0  0  0  0  # atno 10764 bound_to 10752
  154.5976  135.2940  155.0541 H   0  0  0  0  0  0  0  0  0  0  0  0  # atno 10765 bound_to 10752
  140.2730  134.3060  155.7822 H   0  0  0  0  0  0  0  0  0  0  0  0  # atno 11005 bound_to 11000
  144.7801  139.6544  143.7158 LP  0  0  0  0  0  0  0  0  0  0  0  0  # atno 17320 bound_to 7965
  146.2249  139.5704  142.9594 LP  0  0  0  0  0  0  0  0  0  0  0  0  # atno 17321 bound_to 7965
  139.9489  143.6295  152.3034 LP  0  0  0  0  0  0  0  0  0  0  0  0  # atno 17342 bound_to 10162
  139.6807  144.7655  151.1614 LP  0  0  0  0  0  0  0  0  0  0  0  0  # atno 17343 bound_to 10162
  156.2961  130.7151  151.2012 LP  0  0  0  0  0  0  0  0  0  0  0  0  # atno 17370 bound_to 10713
  157.7403  131.0518  150.5174 LP  0  0  0  0  0  0  0  0  0  0  0  0  # atno 17371 bound_to 10713
  141.2174  133.7478  156.9364 LP  0  0  0  0  0  0  0  0  0  0  0  0  # atno 17394 bound_to 11000
  140.1355  134.9328  157.2396 LP  0  0  0  0  0  0  0  0  0  0  0  0  # atno 17395 bound_to 11000

$$$$
