AV-unprocessed.smi:686|AV-procd|sdf|3340|dock4
  -GOLD-   22720 0313D 1   1.00000     0.00000
 Structure written by MMmdl.
 41 42  0  0  0  0  0  0  0  0  2 V2000
  148.2695  140.4018  154.0733 C   0  0  0  0  0  0  0  0  0  0  0  0
  147.2878  139.2193  154.0289 C   0  0  1  0  0  0  0  0  0  0  0  0
  146.8064  138.8224  152.6255 C   0  0  0  0  0  0  0  0  0  0  0  0
  146.6203  137.3486  152.6270 N   0  3  2  0  0  0  0  0  0  0  0  0
  145.3774  136.8611  151.9652 C   0  0  0  0  0  0  0  0  0  0  0  0
  144.1174  137.2296  152.7722 C   0  0  0  0  0  0  0  0  0  0  0  0
  145.4233  135.3351  151.7583 C   0  0  0  0  0  0  0  0  0  0  0  0
  146.8361  136.8801  154.0158 C   0  0  0  0  0  0  0  0  0  0  0  0
  147.7672  137.9088  154.6608 C   0  0  1  0  0  0  0  0  0  0  0  0
  149.1667  137.6216  154.3260 N   0  0  0  0  0  0  0  0  0  0  0  0
  150.0924  136.5913  155.3540 S   0  0  0  0  0  0  0  0  0  0  0  0
  151.4490  136.5285  154.7899 O   0  0  0  0  0  0  0  0  0  0  0  0
  149.8912  137.0474  156.7378 O   0  0  0  0  0  0  0  0  0  0  0  0
  149.2680  134.9586  155.1161 C   0  0  0  0  0  0  0  0  0  0  0  0
  149.9874  133.9039  155.9096 C   0  0  0  0  0  0  0  0  0  0  0  0
  150.5724  132.6933  155.4460 C   0  0  0  0  0  0  0  0  0  0  0  0
  151.0896  132.1346  156.5791 C   0  0  0  0  0  0  0  0  0  0  0  0
  150.8469  132.9275  157.6536 O   0  0  0  0  0  0  0  0  0  0  0  0
  150.1396  134.0532  157.2171 N   0  0  0  0  0  0  0  0  0  0  0  0
  149.1688  140.2056  153.4888 H   0  0  0  0  0  0  0  0  0  0  0  0
  148.5759  140.6157  155.0976 H   0  0  0  0  0  0  0  0  0  0  0  0
  147.8077  141.3036  153.6705 H   0  0  0  0  0  0  0  0  0  0  0  0
  146.4016  139.5209  154.5901 H   0  0  0  0  0  0  0  0  0  0  0  0
  145.8871  139.3579  152.3844 H   0  0  0  0  0  0  0  0  0  0  0  0
  147.5453  139.0743  151.8638 H   0  0  0  0  0  0  0  0  0  0  0  0
  145.3035  137.3397  150.9873 H   0  0  0  0  0  0  0  0  0  0  0  0
  143.2214  136.8203  152.3046 H   0  0  0  0  0  0  0  0  0  0  0  0
  143.9717  138.3080  152.8361 H   0  0  0  0  0  0  0  0  0  0  0  0
  144.1676  136.8369  153.7885 H   0  0  0  0  0  0  0  0  0  0  0  0
  144.5042  134.9769  151.2934 H   0  0  0  0  0  0  0  0  0  0  0  0
  145.5371  134.8108  152.7078 H   0  0  0  0  0  0  0  0  0  0  0  0
  146.2443  135.0301  151.1100 H   0  0  0  0  0  0  0  0  0  0  0  0
  145.8835  136.8808  154.5487 H   0  0  0  0  0  0  0  0  0  0  0  0
  147.2285  135.8638  154.0416 H   0  0  0  0  0  0  0  0  0  0  0  0
  147.6596  137.9301  155.7461 H   0  0  0  0  0  0  0  0  0  0  0  0
  149.2964  137.3881  153.3418 H   0  0  0  0  0  0  0  0  0  0  0  0
  148.2200  135.0449  155.4045 H   0  0  0  0  0  0  0  0  0  0  0  0
  149.2987  134.7209  154.0528 H   0  0  0  0  0  0  0  0  0  0  0  0
  150.6100  132.2987  154.4413 H   0  0  0  0  0  0  0  0  0  0  0  0
  151.6325  131.2218  156.7754 H   0  0  0  0  0  0  0  0  0  0  0  0
  147.3945  136.9768  152.0953 H   0  0  0  0  0  0  0  0  0  0  0  0
  1  2  1  0  0  0  0
  1 20  1  0  0  0  0
  1 21  1  0  0  0  0
  1 22  1  0  0  0  0
  2  9  1  0  0  0  0
  2  3  1  0  0  0  0
  2 23  1  0  0  0  0
  3  4  1  0  0  0  0
  3 24  1  0  0  0  0
  3 25  1  0  0  0  0
  4  5  1  0  0  0  0
  4  8  1  0  0  0  0
  4 41  1  0  0  0  0
  5  6  1  0  0  0  0
  5  7  1  0  0  0  0
  5 26  1  0  0  0  0
  6 27  1  0  0  0  0
  6 28  1  0  0  0  0
  6 29  1  0  0  0  0
  7 30  1  0  0  0  0
  7 31  1  0  0  0  0
  7 32  1  0  0  0  0
  8  9  1  0  0  0  0
  8 33  1  0  0  0  0
  8 34  1  0  0  0  0
  9 10  1  0  0  0  0
  9 35  1  0  0  0  0
 10 11  1  0  0  0  0
 10 36  1  0  0  0  0
 11 12  2  0  0  0  0
 11 13  2  0  0  0  0
 11 14  1  0  0  0  0
 14 15  1  0  0  0  0
 14 37  1  0  0  0  0
 14 38  1  0  0  0  0
 15 19  2  0  0  0  0
 15 16  1  0  0  0  0
 16 17  2  0  0  0  0
 16 39  1  0  0  0  0
 17 18  1  0  0  0  0
 17 40  1  0  0  0  0
 18 19  1  0  0  0  0
M  CHG  1   4   1
M  END
> <s_m_source_file>
AV-unprocessed.smi

> <i_m_source_file_index>
686

> <i_lp_mmshare_version>
43012

> <i_f3d_flags>
0

> <s_epik_input>
W0NIM11bQ0BASF0xW0NIMl1OKFtDSF0oW0NIM10pW0NIM10pW0NIMl1bQ0BIXTFbTkhdUyg9TykoPU8pW0NIMl1jMltjSF1bY0hdb24y

> <s_epik_cmdline>
J2VwaWtfcHl0aG9uJywgJy1waCcsICc3LjAnLCAnLXRuJywgJzgnLCAnLW1hJywgJzIwMCcsICctbWV0YWxfYmluZGluZycsICctaW1hZScsICc8aW5maWxlLm1hZT4nLCAnLW9tYWUnLCAnPG91dGZpbGUubWFlPic=

> <r_epik_Ionization_Penalty>
0.00200818

> <r_epik_Ionization_Penalty_Charging>
0.000701289

> <r_epik_Ionization_Penalty_Neutral>
0.00130689

> <r_epik_State_Penalty>
0.00131314

> <r_epik_Charging_Adjusted_Penalty>
0.00201443

> <i_epik_Tot_Q>
1

> <i_epik_Tot_abs_Q>
1

> <r_epik_Metal_State_Penalty>
0.310831

> <b_epik_Metal_Only>
0

> <s_lp_Force_Field>
OPLS_2005

> <r_lp_Energy>
21.9273

> <b_lp_Chiralities_Consistent>
1

> <s_lp_Variant>
AV-unprocessed.smi:686-4

> <Gold.Version>
5.8.1

> <Gold.Id.Protein>
6NUR|6NUR_protein|mol2

> <Gold.PLP.Fitness>
40.2721

> <Gold.PLP.PLP>
-26.0665

> <Gold.PLP.part.hbond>
-4.9693

> <Gold.PLP.part.metal>
0.0000

> <Gold.PLP.part.buried>
-2.3906

> <Gold.PLP.part.nonpolar>
-18.6161

> <Gold.PLP.part.repulsive>
0.1967

> <Gold.PLP.ligand.clash>
0.0000

> <Gold.PLP.ligand.torsion>
0.5310

> <Gold.PLP.Chemscore.Hbond>
5.0000

> <Gold.PLP.Chemscore.CHOScore>
0.0000

> <Gold.PLP.Chemscore.Metal>
0.0000

> <Gold.Chemscore.Hbonds>
donor molecule, donor type, donor heavy atom, donor atom, acceptor molecule, acceptor atom, score
      L1  H     4    41       P1  7948  2.00
      L1  H    10    36       P1  7948  1.00
      P1  H  6896  6908       L1    18  0.98
      P1  H 10752 10764       L1    12  1.00

> <Gold.PLP.Chemscore.Internal.Correction>
0.2676

> <Gold.Rescore>
     Score         DG    S(hbond)    S(metal)    S(lipo)     H(rot)  DE(clash)    DE(int)     intcor
     18.04     -19.28       3.69        0.00      54.27       1.91       0.01       1.23       ----

> <Gold.Chemscore.Fitness>
18.0436

> <Gold.Chemscore.DG>
-19.2765

> <Gold.Chemscore.ZeroCoef>
-5.4800

> <Gold.Chemscore.Hbond>
3.6947

> <Gold.Chemscore.Metal>
0.0000

> <Gold.Chemscore.Lipo>
54.2707

> <Gold.Chemscore.Internal_Hbond>
0.0000

> <Gold.Chemscore.DEClash>
0.0060

> <Gold.Chemscore.DEInternal>
1.2269

> <Gold.Chemscore.Rot>
1.9115

> <Gold.Chemscore.Internal.Correction>
   9.000000E+99

> <Gold.Chemscore.Hbonds>
donor molecule, donor type, donor heavy atom, donor atom, acceptor molecule, acceptor atom, score
      L1  H     4    41       P1  7948  0.99
      L1  H    10    36       P1  7948  0.93
      P1  H  6896  6908       L1    18  0.42
      P1  H 10752 10764       L1    12  1.00

> <Gold.Chemscore.Hbond.Weighted>
-12.3403

> <Gold.Chemscore.Metal.Weighted>
-0.0000

> <Gold.Chemscore.Lipo.Weighted>
-6.3497

> <Gold.Chemscore.Internal_Hbond.Weighted>
0.0000

> <Gold.Chemscore.DEClash.Weighted>
0.0060

> <Gold.Chemscore.DEInternal.Weighted>
1.2269

> <Gold.Chemscore.Rot.Weighted>
4.8935

> <Gold.Chemscore.Internal.Correction.Weighted>
   9.000000E+99

> <Gold.Protein.RotatedTorsions>
[ 6907 6896 6895 6894 ] final   76.43 input  -60.11 | X-H torsion
[ 7974 7965 7964 7962 ] final -168.33 input  175.53 | X-H torsion
[ 8008 7997 7996 7995 ] final  109.41 input   59.86 | X-H torsion
[ 10167 10162 10161 10158 ] final   51.34 input  -65.29 | X-H torsion
[ 10718 10713 10712 10709 ] final   73.01 input   66.30 | X-H torsion
[ 10763 10752 10751 10750 ] final  -62.44 input  -60.55 | X-H torsion
[ 11005 11000 10999 10996 ] final  -62.36 input  -57.11 | X-H torsion

> <Gold.Protein.ActiveResidues>
 VAL166  LYS551  ARG553  GLY616  TRP617  ASP618  TYR619  PRO620  LYS621  CYS622 
 ASP623  PHE694  ASN695  SER759  ASP760  ASP761  ALA762  ILE779  LEU786  VAL792 
 PHE793  MET794  SER795  GLU796  ALA797  LYS798  CYS799  TRP800  GLU811  SER814 

> <Gold.Protein.RotatedAtoms>
  152.5073  134.3970  159.9403 H   0  0  0  0  0  0  0  0  0  0  0  0  # atno 6907 bound_to 6896
  151.3932  133.3775  159.2731 H   0  0  0  0  0  0  0  0  0  0  0  0  # atno 6908 bound_to 6896
  150.9417  134.8846  159.7675 H   0  0  0  0  0  0  0  0  0  0  0  0  # atno 6909 bound_to 6896
  144.7205  140.2386  143.6294 H   0  0  0  0  0  0  0  0  0  0  0  0  # atno 7974 bound_to 7965
  156.1977  140.3058  155.9461 H   0  0  0  0  0  0  0  0  0  0  0  0  # atno 8008 bound_to 7997
  155.3027  140.0447  157.3047 H   0  0  0  0  0  0  0  0  0  0  0  0  # atno 8009 bound_to 7997
  154.5530  140.2297  155.8463 H   0  0  0  0  0  0  0  0  0  0  0  0  # atno 8010 bound_to 7997
  140.2630  144.3352  150.6312 H   0  0  0  0  0  0  0  0  0  0  0  0  # atno 10167 bound_to 10162
  157.6528  130.9607  150.1010 H   0  0  0  0  0  0  0  0  0  0  0  0  # atno 10718 bound_to 10713
  154.2999  135.6237  153.5420 H   0  0  0  0  0  0  0  0  0  0  0  0  # atno 10763 bound_to 10752
  152.9842  135.5676  154.5296 H   0  0  0  0  0  0  0  0  0  0  0  0  # atno 10764 bound_to 10752
  154.4924  135.2868  155.1462 H   0  0  0  0  0  0  0  0  0  0  0  0  # atno 10765 bound_to 10752
  141.1357  133.6639  156.5515 H   0  0  0  0  0  0  0  0  0  0  0  0  # atno 11005 bound_to 11000
  145.8341  139.2099  143.1865 LP  0  0  0  0  0  0  0  0  0  0  0  0  # atno 17320 bound_to 7965
  146.0404  140.8170  142.9831 LP  0  0  0  0  0  0  0  0  0  0  0  0  # atno 17321 bound_to 7965
  140.5951  143.2167  151.7180 LP  0  0  0  0  0  0  0  0  0  0  0  0  # atno 17342 bound_to 10162
  139.5011  144.3880  152.0309 LP  0  0  0  0  0  0  0  0  0  0  0  0  # atno 17343 bound_to 10162
  156.1932  130.3656  149.8882 LP  0  0  0  0  0  0  0  0  0  0  0  0  # atno 17370 bound_to 10713
  156.6805  130.8856  151.3575 LP  0  0  0  0  0  0  0  0  0  0  0  0  # atno 17371 bound_to 10713
  140.4060  134.7315  157.4808 LP  0  0  0  0  0  0  0  0  0  0  0  0  # atno 17394 bound_to 11000
  140.0462  134.6197  155.8919 LP  0  0  0  0  0  0  0  0  0  0  0  0  # atno 17395 bound_to 11000

$$$$
