AV-unprocessed.smi:874|AV-procd|sdf|4017|dock3
  -GOLD-   22720 1503D 1   1.00000     0.00000
 Structure written by MMmdl.
 39 41  0  0  0  0  0  0  0  0  1 V2000
  153.5296  140.7163  160.5257 C   0  0  0  0  0  0  0  0  0  0  0  0
  152.7826  141.5301  159.5742 N   0  0  0  0  0  0  0  0  0  0  0  0
  152.4192  141.1871  158.3166 C   0  0  0  0  0  0  0  0  0  0  0  0
  152.6685  140.1188  157.7583 O   0  0  0  0  0  0  0  0  0  0  0  0
  151.7346  142.2256  157.7774 N   0  0  0  0  0  0  0  0  0  0  0  0
  151.1654  142.2957  156.4283 C   0  0  0  0  0  0  0  0  0  0  0  0
  149.9010  141.4182  156.2136 C   0  0  0  0  0  0  0  0  0  0  0  0
  148.8394  142.0417  156.9128 O   0  0  0  0  0  0  0  0  0  0  0  0
  149.5193  141.4334  154.7129 C   0  0  0  0  0  0  0  0  0  0  0  0
  148.3108  140.5392  154.3828 C   0  0  0  0  0  0  0  0  0  0  0  0
  148.5362  139.1005  154.8659 C   0  0  0  0  0  0  0  0  0  0  0  0
  148.8421  139.0716  156.3693 C   0  0  0  0  0  0  0  0  0  0  0  0
  150.0510  139.9590  156.7162 C   0  0  0  0  0  0  0  0  0  0  0  0
  151.6862  143.2728  158.7107 C   0  0  0  0  0  0  0  0  0  0  0  0
  151.1247  144.5596  158.6340 C   0  0  0  0  0  0  0  0  0  0  0  0
  151.2507  145.3906  159.7718 C   0  0  0  0  0  0  0  0  0  0  0  0
  151.9218  144.9329  160.9356 C   0  0  0  0  0  0  0  0  0  0  0  0
  152.4822  143.6351  160.9853 C   0  0  0  0  0  0  0  0  0  0  0  0
  152.3413  142.8315  159.8411 C   0  0  0  0  0  0  0  0  0  0  0  0
  153.7000  139.7044  160.1557 H   0  0  0  0  0  0  0  0  0  0  0  0
  152.9845  140.6407  161.4670 H   0  0  0  0  0  0  0  0  0  0  0  0
  154.5000  141.1703  160.7278 H   0  0  0  0  0  0  0  0  0  0  0  0
  150.9582  143.3358  156.1722 H   0  0  0  0  0  0  0  0  0  0  0  0
  151.9400  141.9827  155.7263 H   0  0  0  0  0  0  0  0  0  0  0  0
  148.7354  142.9188  156.5766 H   0  0  0  0  0  0  0  0  0  0  0  0
  149.3203  142.4545  154.3839 H   0  0  0  0  0  0  0  0  0  0  0  0
  150.3702  141.0898  154.1228 H   0  0  0  0  0  0  0  0  0  0  0  0
  147.4102  140.9450  154.8452 H   0  0  0  0  0  0  0  0  0  0  0  0
  148.1308  140.5443  153.3076 H   0  0  0  0  0  0  0  0  0  0  0  0
  147.6558  138.4937  154.6526 H   0  0  0  0  0  0  0  0  0  0  0  0
  149.3635  138.6523  154.3139 H   0  0  0  0  0  0  0  0  0  0  0  0
  147.9664  139.4051  156.9274 H   0  0  0  0  0  0  0  0  0  0  0  0
  149.0347  138.0467  156.6874 H   0  0  0  0  0  0  0  0  0  0  0  0
  150.9441  139.5178  156.2720 H   0  0  0  0  0  0  0  0  0  0  0  0
  150.2036  139.9382  157.7957 H   0  0  0  0  0  0  0  0  0  0  0  0
  150.6166  144.9053  157.7461 H   0  0  0  0  0  0  0  0  0  0  0  0
  150.8314  146.3858  159.7540 H   0  0  0  0  0  0  0  0  0  0  0  0
  152.0077  145.5844  161.7929 H   0  0  0  0  0  0  0  0  0  0  0  0
  152.9980  143.2805  161.8655 H   0  0  0  0  0  0  0  0  0  0  0  0
  1  2  1  0  0  0  0
  1 20  1  0  0  0  0
  1 21  1  0  0  0  0
  1 22  1  0  0  0  0
  2 19  1  0  0  0  0
  2  3  1  0  0  0  0
  3  4  2  0  0  0  0
  3  5  1  0  0  0  0
  5  6  1  0  0  0  0
  5 14  1  0  0  0  0
  6  7  1  0  0  0  0
  6 23  1  0  0  0  0
  6 24  1  0  0  0  0
  7 13  1  0  0  0  0
  7  8  1  0  0  0  0
  7  9  1  0  0  0  0
  8 25  1  0  0  0  0
  9 10  1  0  0  0  0
  9 26  1  0  0  0  0
  9 27  1  0  0  0  0
 10 11  1  0  0  0  0
 10 28  1  0  0  0  0
 10 29  1  0  0  0  0
 11 12  1  0  0  0  0
 11 30  1  0  0  0  0
 11 31  1  0  0  0  0
 12 13  1  0  0  0  0
 12 32  1  0  0  0  0
 12 33  1  0  0  0  0
 13 34  1  0  0  0  0
 13 35  1  0  0  0  0
 14 19  2  0  0  0  0
 14 15  1  0  0  0  0
 15 16  2  0  0  0  0
 15 36  1  0  0  0  0
 16 17  1  0  0  0  0
 16 37  1  0  0  0  0
 17 18  2  0  0  0  0
 17 38  1  0  0  0  0
 18 19  1  0  0  0  0
 18 39  1  0  0  0  0
M  END
> <s_m_source_file>
AV-unprocessed.smi

> <i_m_source_file_index>
874

> <i_lp_mmshare_version>
43012

> <i_f3d_flags>
0

> <s_epik_input>
W2NIXTFbY0hdW2NIXVtjSF1jKGMxMiluKFtDSDNdKWMoPU8pbjJbQ0gyXUMzKFtPSF0pW0NIMl1bQ0gyXVtDSDJdW0NIMl1bQ0gyXTM=

> <s_epik_cmdline>
J2VwaWtfcHl0aG9uJywgJy1waCcsICc3LjAnLCAnLXRuJywgJzgnLCAnLW1hJywgJzIwMCcsICctbWV0YWxfYmluZGluZycsICctaW1hZScsICc8aW5maWxlLm1hZT4nLCAnLW9tYWUnLCAnPG91dGZpbGUubWFlPic=

> <r_lp_tautomer_probability>
1

> <r_epik_Ionization_Penalty>
4.84563e-08

> <r_epik_Ionization_Penalty_Charging>
4.2068e-09

> <r_epik_Ionization_Penalty_Neutral>
4.42495e-08

> <r_epik_State_Penalty>
-0

> <r_epik_Charging_Adjusted_Penalty>
4.2068e-09

> <i_epik_Tot_Q>
0

> <i_epik_Tot_abs_Q>
0

> <r_epik_Metal_State_Penalty>
-0

> <b_epik_Metal_Only>
0

> <s_lp_Force_Field>
OPLS_2005

> <r_lp_Energy>
48.1274

> <b_lp_Chiralities_Consistent>
1

> <s_lp_Variant>
AV-unprocessed.smi:874-1

> <Gold.Version>
5.8.1

> <Gold.Id.Protein>
6NUR|6NUR_protein|mol2

> <Gold.PLP.Fitness>
46.3807

> <Gold.PLP.PLP>
-40.7602

> <Gold.PLP.part.hbond>
-2.0000

> <Gold.PLP.part.metal>
0.0000

> <Gold.PLP.part.buried>
-4.3060

> <Gold.PLP.part.nonpolar>
-34.3263

> <Gold.PLP.part.repulsive>
0.0000

> <Gold.PLP.ligand.clash>
0.0000

> <Gold.PLP.ligand.torsion>
0.2098

> <Gold.PLP.Chemscore.Hbond>
2.0000

> <Gold.PLP.Chemscore.CHOScore>
0.0000

> <Gold.PLP.Chemscore.Metal>
0.0000

> <Gold.Chemscore.Hbonds>
donor molecule, donor type, donor heavy atom, donor atom, acceptor molecule, acceptor atom, score
      L1  H     8    25       P1  8028  1.00
      P1  H  7997  8009       L1     4  1.00

> <Gold.PLP.Chemscore.Internal.Correction>
0.0401

> <Gold.Rescore>
     Score         DG    S(hbond)    S(metal)    S(lipo)     H(rot)  DE(clash)    DE(int)     intcor
     19.03     -21.35       1.82        0.00     118.11       1.58       0.79       1.52       ----

> <Gold.Chemscore.Fitness>
19.0322

> <Gold.Chemscore.DG>
-21.3497

> <Gold.Chemscore.ZeroCoef>
-5.4800

> <Gold.Chemscore.Hbond>
1.8216

> <Gold.Chemscore.Metal>
0.0000

> <Gold.Chemscore.Lipo>
118.1136

> <Gold.Chemscore.Internal_Hbond>
0.0000

> <Gold.Chemscore.DEClash>
0.7946

> <Gold.Chemscore.DEInternal>
1.5230

> <Gold.Chemscore.Rot>
1.5757

> <Gold.Chemscore.Internal.Correction>
   9.000000E+99

> <Gold.Chemscore.Hbonds>
donor molecule, donor type, donor heavy atom, donor atom, acceptor molecule, acceptor atom, score
      L1  H     8    25       P1  8028  0.89
      P1  H  7997  8009       L1     4  0.77

> <Gold.Chemscore.Hbond.Weighted>
-6.0843

> <Gold.Chemscore.Metal.Weighted>
-0.0000

> <Gold.Chemscore.Lipo.Weighted>
-13.8193

> <Gold.Chemscore.Internal_Hbond.Weighted>
0.0000

> <Gold.Chemscore.DEClash.Weighted>
0.7946

> <Gold.Chemscore.DEInternal.Weighted>
1.5230

> <Gold.Chemscore.Rot.Weighted>
4.0338

> <Gold.Chemscore.Internal.Correction.Weighted>
   9.000000E+99

> <Gold.Protein.RotatedTorsions>
[ 6907 6896 6895 6894 ] final   60.27 input  -60.11 | X-H torsion
[ 7974 7965 7964 7962 ] final  163.16 input  175.53 | X-H torsion
[ 8008 7997 7996 7995 ] final  162.80 input   59.86 | X-H torsion
[ 10167 10162 10161 10158 ] final  -54.70 input  -65.29 | X-H torsion
[ 10718 10713 10712 10709 ] final -128.11 input   66.30 | X-H torsion
[ 10763 10752 10751 10750 ] final   15.02 input  -60.55 | X-H torsion
[ 11005 11000 10999 10996 ] final  106.27 input  -57.11 | X-H torsion

> <Gold.Protein.ActiveResidues>
 VAL166  LYS551  ARG553  GLY616  TRP617  ASP618  TYR619  PRO620  LYS621  CYS622 
 ASP623  PHE694  ASN695  SER759  ASP760  ASP761  ALA762  ILE779  LEU786  VAL792 
 PHE793  MET794  SER795  GLU796  ALA797  LYS798  CYS799  TRP800  GLU811  SER814 

> <Gold.Protein.RotatedAtoms>
  152.3988  134.6321  160.0077 H   0  0  0  0  0  0  0  0  0  0  0  0  # atno 6907 bound_to 6896
  151.6532  133.3314  159.3165 H   0  0  0  0  0  0  0  0  0  0  0  0  # atno 6908 bound_to 6896
  150.7891  134.6944  159.6559 H   0  0  0  0  0  0  0  0  0  0  0  0  # atno 6909 bound_to 6896
  144.7602  139.8143  143.6335 H   0  0  0  0  0  0  0  0  0  0  0  0  # atno 7974 bound_to 7965
  156.2005  140.1740  156.7910 H   0  0  0  0  0  0  0  0  0  0  0  0  # atno 8008 bound_to 7997
  154.5585  140.0704  156.8812 H   0  0  0  0  0  0  0  0  0  0  0  0  # atno 8009 bound_to 7997
  155.2893  140.3354  155.4256 H   0  0  0  0  0  0  0  0  0  0  0  0  # atno 8010 bound_to 7997
  140.6416  143.2511  151.4974 H   0  0  0  0  0  0  0  0  0  0  0  0  # atno 10167 bound_to 10162
  156.1920  130.6801  151.0435 H   0  0  0  0  0  0  0  0  0  0  0  0  # atno 10718 bound_to 10713
  153.1565  135.6788  153.8805 H   0  0  0  0  0  0  0  0  0  0  0  0  # atno 10763 bound_to 10752
  153.8214  135.3129  155.3412 H   0  0  0  0  0  0  0  0  0  0  0  0  # atno 10764 bound_to 10752
  154.7901  135.4839  154.0121 H   0  0  0  0  0  0  0  0  0  0  0  0  # atno 10765 bound_to 10752
  139.8812  134.9363  156.5641 H   0  0  0  0  0  0  0  0  0  0  0  0  # atno 11005 bound_to 11000
  146.1657  139.4788  142.9959 LP  0  0  0  0  0  0  0  0  0  0  0  0  # atno 17320 bound_to 7965
  145.6643  141.0232  143.1692 LP  0  0  0  0  0  0  0  0  0  0  0  0  # atno 17321 bound_to 7965
  139.5625  144.2121  152.1714 LP  0  0  0  0  0  0  0  0  0  0  0  0  # atno 17342 bound_to 10162
  140.1393  144.5216  150.6754 LP  0  0  0  0  0  0  0  0  0  0  0  0  # atno 17343 bound_to 10162
  157.6934  131.0802  150.7039 LP  0  0  0  0  0  0  0  0  0  0  0  0  # atno 17370 bound_to 10713
  156.7096  130.4648  149.5551 LP  0  0  0  0  0  0  0  0  0  0  0  0  # atno 17371 bound_to 10713
  140.8147  133.8401  155.8842 LP  0  0  0  0  0  0  0  0  0  0  0  0  # atno 17394 bound_to 11000
  140.9473  134.1823  157.4754 LP  0  0  0  0  0  0  0  0  0  0  0  0  # atno 17395 bound_to 11000

$$$$
