AV-unprocessed.smi:3228|AV-procd|sdf|12319|dock9
  -GOLD-   2272018163D 1   1.00000     0.00000
 Structure written by MMmdl.
 31 32  0  0  0  0  0  0  0  0  1 V2000
  150.6533  140.8612  156.0458 O   0  0  0  0  0  0  0  0  0  0  0  0
  150.0345  141.9226  155.9614 C   0  0  0  0  0  0  0  0  0  0  0  0
  150.4263  143.0562  156.5605 N   0  0  0  0  0  0  0  0  0  0  0  0
  151.6214  143.1979  157.3858 C   0  0  0  0  0  0  0  0  0  0  0  0
  151.3100  143.8299  158.7575 C   0  0  2  0  0  0  0  0  0  0  0  0
  151.0163  145.3375  158.7028 C   0  0  0  0  0  0  0  0  0  0  0  0
  151.4479  145.9135  160.0612 C   0  0  0  0  0  0  0  0  0  0  0  0
  152.1132  144.7641  160.8280 C   0  0  0  0  0  0  0  0  0  0  0  0
  152.4623  143.7254  159.7613 C   0  0  1  0  0  0  0  0  0  0  0  0
  152.5751  142.4313  160.3159 O   0  0  0  0  0  0  0  0  0  0  0  0
  148.8942  142.1058  155.2728 N   0  0  0  0  0  0  0  0  0  0  0  0
  148.1664  141.1551  154.5101 C   0  0  0  0  0  0  0  0  0  0  0  0
  148.6055  139.9249  154.2185 N   0  0  0  0  0  0  0  0  0  0  0  0
  147.6830  139.2065  153.4535 C   0  0  0  0  0  0  0  0  0  0  0  0
  146.5390  139.9101  153.1698 C   0  0  0  0  0  0  0  0  0  0  0  0
  146.5744  141.5122  153.8569 S   0  0  0  0  0  0  0  0  0  0  0  0
  149.8581  143.8816  156.4383 H   0  0  0  0  0  0  0  0  0  0  0  0
  152.0976  142.2248  157.5164 H   0  0  0  0  0  0  0  0  0  0  0  0
  152.3349  143.8173  156.8417 H   0  0  0  0  0  0  0  0  0  0  0  0
  150.4378  143.3368  159.1910 H   0  0  0  0  0  0  0  0  0  0  0  0
  151.6010  145.8085  157.9115 H   0  0  0  0  0  0  0  0  0  0  0  0
  149.9653  145.5349  158.4894 H   0  0  0  0  0  0  0  0  0  0  0  0
  152.1529  146.7320  159.9112 H   0  0  0  0  0  0  0  0  0  0  0  0
  150.5990  146.3130  160.6172 H   0  0  0  0  0  0  0  0  0  0  0  0
  152.9851  145.0887  161.3969 H   0  0  0  0  0  0  0  0  0  0  0  0
  151.3954  144.3460  161.5357 H   0  0  0  0  0  0  0  0  0  0  0  0
  153.4042  143.9964  159.2820 H   0  0  0  0  0  0  0  0  0  0  0  0
  152.6515  142.5119  161.2545 H   0  0  0  0  0  0  0  0  0  0  0  0
  148.5005  143.0349  155.2960 H   0  0  0  0  0  0  0  0  0  0  0  0
  147.9223  138.1968  153.1535 H   0  0  0  0  0  0  0  0  0  0  0  0
  145.6810  139.5841  152.6008 H   0  0  0  0  0  0  0  0  0  0  0  0
  1  2  2  0  0  0  0
  2  3  1  0  0  0  0
  2 11  1  0  0  0  0
  3  4  1  0  0  0  0
  3 17  1  0  0  0  0
  4  5  1  0  0  0  0
  4 18  1  0  0  0  0
  4 19  1  0  0  0  0
  5  9  1  0  0  0  0
  5  6  1  0  0  0  0
  5 20  1  0  0  0  0
  6  7  1  0  0  0  0
  6 21  1  0  0  0  0
  6 22  1  0  0  0  0
  7  8  1  0  0  0  0
  7 23  1  0  0  0  0
  7 24  1  0  0  0  0
  8  9  1  0  0  0  0
  8 25  1  0  0  0  0
  8 26  1  0  0  0  0
  9 10  1  0  0  0  0
  9 27  1  0  0  0  0
 10 28  1  0  0  0  0
 11 12  1  0  0  0  0
 11 29  1  0  0  0  0
 12 16  1  0  0  0  0
 12 13  2  0  0  0  0
 13 14  1  0  0  0  0
 14 15  2  0  0  0  0
 14 30  1  0  0  0  0
 15 16  1  0  0  0  0
 15 31  1  0  0  0  0
M  END
> <s_m_source_file>
AV-unprocessed.smi

> <i_m_source_file_index>
3228

> <i_lp_mmshare_version>
43012

> <i_f3d_flags>
0

> <s_epik_input>
czFbY0hdW2NIXW5jMVtOSF1DKD1PKVtOSF1bQ0gyXVtDQEBIXTJbQ0gyXVtDSDJdW0NIMl1bQ0BIXTJbT0hd

> <s_epik_cmdline>
J2VwaWtfcHl0aG9uJywgJy1waCcsICc3LjAnLCAnLXRuJywgJzgnLCAnLW1hJywgJzIwMCcsICctbWV0YWxfYmluZGluZycsICctaW1hZScsICc8aW5maWxlLm1hZT4nLCAnLW9tYWUnLCAnPG91dGZpbGUubWFlPic=

> <r_lp_tautomer_probability>
0.999

> <r_epik_Ionization_Penalty>
0.000399498

> <r_epik_Ionization_Penalty_Charging>
0

> <r_epik_Ionization_Penalty_Neutral>
0.000399498

> <r_epik_State_Penalty>
0.000177984

> <r_epik_Charging_Adjusted_Penalty>
0.000177984

> <i_epik_Tot_Q>
0

> <i_epik_Tot_abs_Q>
0

> <r_epik_Metal_State_Penalty>
0.0060793

> <b_epik_Metal_Only>
0

> <s_lp_Force_Field>
OPLS_2005

> <r_lp_Energy>
20.7116

> <b_lp_Chiralities_Consistent>
1

> <s_lp_Variant>
AV-unprocessed.smi:3228-1

> <Gold.Version>
5.8.1

> <Gold.Id.Protein>
6NUR|6NUR_protein|mol2

> <Gold.PLP.Fitness>
47.0612

> <Gold.PLP.PLP>
-35.3415

> <Gold.PLP.part.hbond>
-2.0000

> <Gold.PLP.part.metal>
0.0000

> <Gold.PLP.part.buried>
-5.2648

> <Gold.PLP.part.nonpolar>
-28.2459

> <Gold.PLP.part.repulsive>
0.3933

> <Gold.PLP.ligand.clash>
0.0000

> <Gold.PLP.ligand.torsion>
0.1346

> <Gold.PLP.Chemscore.Hbond>
2.0000

> <Gold.PLP.Chemscore.CHOScore>
1.9958

> <Gold.PLP.Chemscore.Metal>
0.0000

> <Gold.Chemscore.Hbonds>
donor molecule, donor type, donor heavy atom, donor atom, acceptor molecule, acceptor atom, score
      L1  H     3    17       P1  8028  0.91
      L1  H    11    29       P1  8028  0.88
      L1  C    14    30       P1  7948  0.94
      L1  C    15    31       P1 10175  0.99

> <Gold.PLP.Chemscore.Internal.Correction>
0.0015

> <Gold.Rescore>
     Score         DG    S(hbond)    S(metal)    S(lipo)     H(rot)  DE(clash)    DE(int)     intcor
     15.92     -17.48       1.96        0.00      87.71       1.88       0.27       1.30       ----

> <Gold.Chemscore.Fitness>
15.9199

> <Gold.Chemscore.DG>
-17.4838

> <Gold.Chemscore.ZeroCoef>
-5.4800

> <Gold.Chemscore.Hbond>
1.9614

> <Gold.Chemscore.Metal>
0.0000

> <Gold.Chemscore.Lipo>
87.7074

> <Gold.Chemscore.Internal_Hbond>
0.0000

> <Gold.Chemscore.DEClash>
0.2678

> <Gold.Chemscore.DEInternal>
1.2961

> <Gold.Chemscore.Rot>
1.8786

> <Gold.Chemscore.Internal.Correction>
   9.000000E+99

> <Gold.Chemscore.Hbonds>
donor molecule, donor type, donor heavy atom, donor atom, acceptor molecule, acceptor atom, score
      L1  H     3    17       P1  8028  0.84
      L1  H    11    29       P1  8028  0.86

> <Gold.Chemscore.Hbond.Weighted>
-6.5512

> <Gold.Chemscore.Metal.Weighted>
-0.0000

> <Gold.Chemscore.Lipo.Weighted>
-10.2618

> <Gold.Chemscore.Internal_Hbond.Weighted>
0.0000

> <Gold.Chemscore.DEClash.Weighted>
0.2678

> <Gold.Chemscore.DEInternal.Weighted>
1.2961

> <Gold.Chemscore.Rot.Weighted>
4.8091

> <Gold.Chemscore.Internal.Correction.Weighted>
   9.000000E+99

> <Gold.Protein.RotatedTorsions>
[ 6907 6896 6895 6894 ] final  -59.49 input  -60.11 | X-H torsion
[ 7974 7965 7964 7962 ] final  -27.61 input  175.53 | X-H torsion
[ 8008 7997 7996 7995 ] final  130.94 input   59.86 | X-H torsion
[ 10167 10162 10161 10158 ] final  -63.70 input  -65.29 | X-H torsion
[ 10718 10713 10712 10709 ] final  169.08 input   66.30 | X-H torsion
[ 10763 10752 10751 10750 ] final  -66.58 input  -60.55 | X-H torsion
[ 11005 11000 10999 10996 ] final   99.88 input  -57.11 | X-H torsion

> <Gold.Protein.ActiveResidues>
 VAL166  LYS551  ARG553  GLY616  TRP617  ASP618  TYR619  PRO620  LYS621  CYS622 
 ASP623  PHE694  ASN695  SER759  ASP760  ASP761  ALA762  ILE779  LEU786  VAL792 
 PHE793  MET794  SER795  GLU796  ALA797  LYS798  CYS799  TRP800  GLU811  SER814 

> <Gold.Protein.RotatedAtoms>
  150.7926  134.6962  159.6523 H   0  0  0  0  0  0  0  0  0  0  0  0  # atno 6907 bound_to 6896
  152.4034  134.6244  160.0069 H   0  0  0  0  0  0  0  0  0  0  0  0  # atno 6908 bound_to 6896
  151.6509  133.3284  159.3188 H   0  0  0  0  0  0  0  0  0  0  0  0  # atno 6909 bound_to 6896
  146.1345  140.5175  142.8678 H   0  0  0  0  0  0  0  0  0  0  0  0  # atno 7974 bound_to 7965
  156.2962  140.2583  156.2843 H   0  0  0  0  0  0  0  0  0  0  0  0  # atno 8008 bound_to 7997
  154.9571  140.0393  157.2191 H   0  0  0  0  0  0  0  0  0  0  0  0  # atno 8009 bound_to 7997
  154.7981  140.2823  155.5946 H   0  0  0  0  0  0  0  0  0  0  0  0  # atno 8010 bound_to 7997
  140.5853  143.2333  151.6257 H   0  0  0  0  0  0  0  0  0  0  0  0  # atno 10167 bound_to 10162
  157.0278  131.0250  151.2754 H   0  0  0  0  0  0  0  0  0  0  0  0  # atno 10718 bound_to 10713
  154.3618  135.6114  153.5695 H   0  0  0  0  0  0  0  0  0  0  0  0  # atno 10763 bound_to 10752
  152.9793  135.5817  154.4623 H   0  0  0  0  0  0  0  0  0  0  0  0  # atno 10764 bound_to 10752
  154.4362  135.2849  155.1856 H   0  0  0  0  0  0  0  0  0  0  0  0  # atno 10765 bound_to 10752
  139.8770  134.9115  156.4673 H   0  0  0  0  0  0  0  0  0  0  0  0  # atno 11005 bound_to 11000
  144.7726  140.5670  143.6660 LP  0  0  0  0  0  0  0  0  0  0  0  0  # atno 17320 bound_to 7965
  145.5186  139.1477  143.3565 LP  0  0  0  0  0  0  0  0  0  0  0  0  # atno 17321 bound_to 7965
  139.5194  144.3256  152.0872 LP  0  0  0  0  0  0  0  0  0  0  0  0  # atno 17342 bound_to 10162
  140.2412  144.4267  150.6259 LP  0  0  0  0  0  0  0  0  0  0  0  0  # atno 17343 bound_to 10162
  157.5201  130.7992  149.7799 LP  0  0  0  0  0  0  0  0  0  0  0  0  # atno 17370 bound_to 10713
  156.0080  130.3846  150.2364 LP  0  0  0  0  0  0  0  0  0  0  0  0  # atno 17371 bound_to 10713
  140.8821  133.7910  155.9478 LP  0  0  0  0  0  0  0  0  0  0  0  0  # atno 17394 bound_to 11000
  140.8843  134.2573  157.5128 LP  0  0  0  0  0  0  0  0  0  0  0  0  # atno 17395 bound_to 11000

$$$$
