AV-unprocessed.smi:610|AV-procd|sdf|3059|dock5
  -GOLD-   2262023583D 1   1.00000     0.00000
 Structure written by MMmdl.
 37 38  0  0  0  0  0  0  0  0  1 V2000
  147.2572  139.6820  153.2661 C   0  0  0  0  0  0  0  0  0  0  0  0
  146.8437  138.2980  153.7889 C   0  0  2  0  0  0  0  0  0  0  0  0
  147.9278  137.6884  154.6976 C   0  0  0  0  0  0  0  0  0  0  0  0
  149.0719  138.5678  154.8535 N   0  0  0  0  0  0  0  0  0  0  0  0
  149.3893  139.3447  155.9603 C   0  0  0  0  0  0  0  0  0  0  0  0
  150.5526  140.0125  155.6508 C   0  0  0  0  0  0  0  0  0  0  0  0
  150.9667  139.6630  154.3676 N   0  0  0  0  0  0  0  0  0  0  0  0
  150.0415  138.8043  153.9592 C   0  0  0  0  0  0  0  0  0  0  0  0
  146.5756  137.4030  152.6657 N   0  0  0  0  0  0  0  0  0  0  0  0
  145.3773  136.8941  152.3311 C   0  0  0  0  0  0  0  0  0  0  0  0
  144.3491  137.1731  152.9496 O   0  0  0  0  0  0  0  0  0  0  0  0
  145.3071  135.9299  151.1188 C   0  0  0  0  0  0  0  0  0  0  0  0
  145.6552  136.5966  149.8696 N   0  0  0  0  0  0  0  0  0  0  0  0
  146.2434  134.7046  151.3083 C   0  0  0  0  0  0  0  0  0  0  0  0
  145.3546  133.4545  151.3108 C   0  0  0  0  0  0  0  0  0  0  0  0
  143.9562  133.9564  151.6542 C   0  0  0  0  0  0  0  0  0  0  0  0
  143.8881  135.3288  150.9862 C   0  0  0  0  0  0  0  0  0  0  0  0
  147.4477  140.3702  154.0899 H   0  0  0  0  0  0  0  0  0  0  0  0
  146.4738  140.1212  152.6475 H   0  0  0  0  0  0  0  0  0  0  0  0
  148.1646  139.6244  152.6640 H   0  0  0  0  0  0  0  0  0  0  0  0
  145.9352  138.4181  154.3825 H   0  0  0  0  0  0  0  0  0  0  0  0
  147.5222  137.4601  155.6845 H   0  0  0  0  0  0  0  0  0  0  0  0
  148.2829  136.7454  154.2796 H   0  0  0  0  0  0  0  0  0  0  0  0
  148.7770  139.3598  156.8500 H   0  0  0  0  0  0  0  0  0  0  0  0
  151.1187  140.7123  156.2480 H   0  0  0  0  0  0  0  0  0  0  0  0
  150.0673  138.3385  152.9848 H   0  0  0  0  0  0  0  0  0  0  0  0
  147.3666  137.1330  152.0986 H   0  0  0  0  0  0  0  0  0  0  0  0
  145.5390  135.9467  149.1054 H   0  0  0  0  0  0  0  0  0  0  0  0
  145.0010  137.3475  149.7022 H   0  0  0  0  0  0  0  0  0  0  0  0
  147.0048  134.6259  150.5304 H   0  0  0  0  0  0  0  0  0  0  0  0
  146.7893  134.7571  152.2518 H   0  0  0  0  0  0  0  0  0  0  0  0
  145.3451  133.0130  150.3136 H   0  0  0  0  0  0  0  0  0  0  0  0
  145.7069  132.6919  152.0061 H   0  0  0  0  0  0  0  0  0  0  0  0
  143.1712  133.2824  151.3108 H   0  0  0  0  0  0  0  0  0  0  0  0
  143.8554  134.0624  152.7352 H   0  0  0  0  0  0  0  0  0  0  0  0
  143.1109  135.9521  151.4319 H   0  0  0  0  0  0  0  0  0  0  0  0
  143.6170  135.1954  149.9373 H   0  0  0  0  0  0  0  0  0  0  0  0
  1  2  1  0  0  0  0
  1 18  1  0  0  0  0
  1 19  1  0  0  0  0
  1 20  1  0  0  0  0
  2  3  1  0  0  0  0
  2  9  1  0  0  0  0
  2 21  1  0  0  0  0
  3  4  1  0  0  0  0
  3 22  1  0  0  0  0
  3 23  1  0  0  0  0
  4  8  1  0  0  0  0
  4  5  1  0  0  0  0
  5  6  2  0  0  0  0
  5 24  1  0  0  0  0
  6  7  1  0  0  0  0
  6 25  1  0  0  0  0
  7  8  2  0  0  0  0
  8 26  1  0  0  0  0
  9 10  1  0  0  0  0
  9 27  1  0  0  0  0
 10 11  2  0  0  0  0
 10 12  1  0  0  0  0
 12 17  1  0  0  0  0
 12 13  1  0  0  0  0
 12 14  1  0  0  0  0
 13 28  1  0  0  0  0
 13 29  1  0  0  0  0
 14 15  1  0  0  0  0
 14 30  1  0  0  0  0
 14 31  1  0  0  0  0
 15 16  1  0  0  0  0
 15 32  1  0  0  0  0
 15 33  1  0  0  0  0
 16 17  1  0  0  0  0
 16 34  1  0  0  0  0
 16 35  1  0  0  0  0
 17 36  1  0  0  0  0
 17 37  1  0  0  0  0
M  END
> <s_m_source_file>
AV-unprocessed.smi

> <i_m_source_file_index>
610

> <i_lp_mmshare_version>
43012

> <i_f3d_flags>
0

> <s_epik_input>
W2NIXTFuW2NIXVtjSF1uMVtDSDJdW0NAQEhdKFtDSDNdKVtOSF1DKD1PKUMyKFtOSDJdKVtDSDJdW0NIMl1bQ0gyXVtDSDJdMg==

> <s_epik_cmdline>
J2VwaWtfcHl0aG9uJywgJy1waCcsICc3LjAnLCAnLXRuJywgJzgnLCAnLW1hJywgJzIwMCcsICctbWV0YWxfYmluZGluZycsICctaW1hZScsICc8aW5maWxlLm1hZT4nLCAnLW9tYWUnLCAnPG91dGZpbGUubWFlPic=

> <r_lp_tautomer_probability>
1

> <r_epik_Ionization_Penalty>
1.91974

> <r_epik_Ionization_Penalty_Charging>
0.644069

> <r_epik_Ionization_Penalty_Neutral>
1.27567

> <r_epik_State_Penalty>
1.9806

> <r_epik_Charging_Adjusted_Penalty>
2.62467

> <i_epik_Tot_Q>
0

> <i_epik_Tot_abs_Q>
0

> <r_epik_Metal_State_Penalty>
1.61835

> <b_epik_Metal_Only>
0

> <s_lp_Force_Field>
OPLS_2005

> <r_lp_Energy>
21.9363

> <b_lp_Chiralities_Consistent>
1

> <s_lp_Variant>
AV-unprocessed.smi:610-7

> <Gold.Version>
5.8.1

> <Gold.Id.Protein>
6NUR|6NUR_protein|mol2

> <Gold.PLP.Fitness>
41.0790

> <Gold.PLP.PLP>
-26.3920

> <Gold.PLP.part.hbond>
-4.0000

> <Gold.PLP.part.metal>
0.0000

> <Gold.PLP.part.buried>
-2.5106

> <Gold.PLP.part.nonpolar>
-20.0792

> <Gold.PLP.part.repulsive>
0.3402

> <Gold.PLP.ligand.clash>
0.0000

> <Gold.PLP.ligand.torsion>
1.0566

> <Gold.PLP.Chemscore.Hbond>
4.0000

> <Gold.PLP.Chemscore.CHOScore>
1.5894

> <Gold.PLP.Chemscore.Metal>
0.0000

> <Gold.Chemscore.Hbonds>
donor molecule, donor type, donor heavy atom, donor atom, acceptor molecule, acceptor atom, score
      L1  H     9    27       P1  7948  1.00
      L1  H    13    28       P1  7921  1.00
      L1  H    13    29       P1 10171  1.00
      P1  H  7989  7998       L1     7  1.00
      L1  C     8    26       P1  7948  0.87
      L1  C     8    26       P1  7957  0.64

> <Gold.PLP.Chemscore.Internal.Correction>
0.0321

> <Gold.Rescore>
     Score         DG    S(hbond)    S(metal)    S(lipo)     H(rot)  DE(clash)    DE(int)     intcor
     18.30     -19.51       3.95        0.00      49.91       1.95       0.05       1.16       ----

> <Gold.Chemscore.Fitness>
18.2971

> <Gold.Chemscore.DG>
-19.5086

> <Gold.Chemscore.ZeroCoef>
-5.4800

> <Gold.Chemscore.Hbond>
3.9450

> <Gold.Chemscore.Metal>
0.0000

> <Gold.Chemscore.Lipo>
49.9061

> <Gold.Chemscore.Internal_Hbond>
0.0000

> <Gold.Chemscore.DEClash>
0.0495

> <Gold.Chemscore.DEInternal>
1.1620

> <Gold.Chemscore.Rot>
1.9480

> <Gold.Chemscore.Internal.Correction>
   9.000000E+99

> <Gold.Chemscore.Hbonds>
donor molecule, donor type, donor heavy atom, donor atom, acceptor molecule, acceptor atom, score
      L1  H     9    27       P1  7948  0.97
      L1  H    13    28       P1  7921  0.97
      L1  H    13    29       P1 10171  1.00
      P1  H  7989  7998       L1     7  0.92

> <Gold.Chemscore.Hbond.Weighted>
-13.1764

> <Gold.Chemscore.Metal.Weighted>
-0.0000

> <Gold.Chemscore.Lipo.Weighted>
-5.8390

> <Gold.Chemscore.Internal_Hbond.Weighted>
0.0000

> <Gold.Chemscore.DEClash.Weighted>
0.0495

> <Gold.Chemscore.DEInternal.Weighted>
1.1620

> <Gold.Chemscore.Rot.Weighted>
4.9869

> <Gold.Chemscore.Internal.Correction.Weighted>
   9.000000E+99

> <Gold.Protein.RotatedTorsions>
[ 6907 6896 6895 6894 ] final   -1.09 input  -60.11 | X-H torsion
[ 7974 7965 7964 7962 ] final -111.29 input  175.53 | X-H torsion
[ 8008 7997 7996 7995 ] final -153.88 input   59.86 | X-H torsion
[ 10167 10162 10161 10158 ] final  146.27 input  -65.29 | X-H torsion
[ 10718 10713 10712 10709 ] final  150.80 input   66.30 | X-H torsion
[ 10763 10752 10751 10750 ] final  151.77 input  -60.55 | X-H torsion
[ 11005 11000 10999 10996 ] final    4.01 input  -57.11 | X-H torsion

> <Gold.Protein.ActiveResidues>
 VAL166  LYS551  ARG553  GLY616  TRP617  ASP618  TYR619  PRO620  LYS621  CYS622 
 ASP623  PHE694  ASN695  SER759  ASP760  ASP761  ALA762  ILE779  LEU786  VAL792 
 PHE793  MET794  SER795  GLU796  ALA797  LYS798  CYS799  TRP800  GLU811  SER814 

> <Gold.Protein.RotatedAtoms>
  151.5517  135.1067  159.9951 H   0  0  0  0  0  0  0  0  0  0  0  0  # atno 6907 bound_to 6896
  152.4488  133.7585  159.6744 H   0  0  0  0  0  0  0  0  0  0  0  0  # atno 6908 bound_to 6896
  150.8411  133.7868  159.3085 H   0  0  0  0  0  0  0  0  0  0  0  0  # atno 6909 bound_to 6896
  145.1578  140.8863  143.3608 H   0  0  0  0  0  0  0  0  0  0  0  0  # atno 7974 bound_to 7965
  155.6776  140.0740  157.2496 H   0  0  0  0  0  0  0  0  0  0  0  0  # atno 8008 bound_to 7997
  154.4111  140.1687  156.1999 H   0  0  0  0  0  0  0  0  0  0  0  0  # atno 8009 bound_to 7997
  155.9562  140.3373  155.6454 H   0  0  0  0  0  0  0  0  0  0  0  0  # atno 8010 bound_to 7997
  139.4910  144.5841  151.6812 H   0  0  0  0  0  0  0  0  0  0  0  0  # atno 10167 bound_to 10162
  157.2789  131.0831  151.1546 H   0  0  0  0  0  0  0  0  0  0  0  0  # atno 10718 bound_to 10713
  154.1092  135.2840  155.3234 H   0  0  0  0  0  0  0  0  0  0  0  0  # atno 10763 bound_to 10752
  154.6502  135.5372  153.7895 H   0  0  0  0  0  0  0  0  0  0  0  0  # atno 10764 bound_to 10752
  153.0351  135.6508  154.1251 H   0  0  0  0  0  0  0  0  0  0  0  0  # atno 10765 bound_to 10752
  140.5867  133.9962  155.8071 H   0  0  0  0  0  0  0  0  0  0  0  0  # atno 11005 bound_to 11000
  145.0363  139.3298  143.5999 LP  0  0  0  0  0  0  0  0  0  0  0  0  # atno 17320 bound_to 7965
  146.3486  139.9719  142.8705 LP  0  0  0  0  0  0  0  0  0  0  0  0  # atno 17321 bound_to 7965
  140.5454  144.0512  150.6105 LP  0  0  0  0  0  0  0  0  0  0  0  0  # atno 17342 bound_to 10162
  140.3548  143.2942  152.0448 LP  0  0  0  0  0  0  0  0  0  0  0  0  # atno 17343 bound_to 10162
  157.2988  130.6832  149.6153 LP  0  0  0  0  0  0  0  0  0  0  0  0  # atno 17370 bound_to 10713
  155.9664  130.4398  150.5274 LP  0  0  0  0  0  0  0  0  0  0  0  0  # atno 17371 bound_to 10713
  141.0961  133.9841  157.3157 LP  0  0  0  0  0  0  0  0  0  0  0  0  # atno 17394 bound_to 11000
  139.9292  135.0200  156.8342 LP  0  0  0  0  0  0  0  0  0  0  0  0  # atno 17395 bound_to 11000

$$$$
