AV-unprocessed.smi:1632|AV-procd|sdf|6531|dock5
  -GOLD-   22720 7213D 1   1.00000     0.00000
 Structure written by MMmdl.
 43 45  0  0  0  0  0  0  0  0  2 V2000
  151.0274  135.2326  155.3160 O   0  0  0  0  0  0  0  0  0  0  0  0
  150.8543  136.1886  156.3391 C   0  0  0  0  0  0  0  0  0  0  0  0
  151.7906  137.3791  156.0983 C   0  0  0  0  0  0  0  0  0  0  0  0
  151.7364  137.8831  154.6479 C   0  0  0  0  0  0  0  0  0  0  0  0
  150.5758  138.7995  154.4120 C   0  0  0  0  0  0  0  0  0  0  0  0
  149.5003  138.5329  153.6167 N   0  3  0  0  0  0  0  0  0  0  0  0
  148.6131  139.6088  153.6395 C   0  0  0  0  0  0  0  0  0  0  0  0
  147.3988  139.8036  152.9882 C   0  0  0  0  0  0  0  0  0  0  0  0
  146.7393  141.0262  153.2323 C   0  0  0  0  0  0  0  0  0  0  0  0
  147.2883  141.9973  154.0946 C   0  0  0  0  0  0  0  0  0  0  0  0
  148.5202  141.7879  154.7491 C   0  0  0  0  0  0  0  0  0  0  0  0
  149.1658  140.5766  154.5017 C   0  0  0  0  0  0  0  0  0  0  0  0
  150.3720  140.0344  154.9598 N   0  0  0  0  0  0  0  0  0  0  0  0
  151.1946  140.8226  155.8920 C   0  0  0  0  0  0  0  0  0  0  0  0
  150.3793  141.3892  157.0720 C   0  0  1  0  0  0  0  0  0  0  0  0
  149.7404  140.3082  157.7192 O   0  0  0  0  0  0  0  0  0  0  0  0
  151.2354  142.2131  158.0276 C   0  0  0  0  0  0  0  0  0  0  0  0
  151.0725  143.6148  158.1023 C   0  0  0  0  0  0  0  0  0  0  0  0
  151.8481  144.3758  158.9978 C   0  0  0  0  0  0  0  0  0  0  0  0
  152.7945  143.7414  159.8240 C   0  0  0  0  0  0  0  0  0  0  0  0
  152.9627  142.3455  159.7555 C   0  0  0  0  0  0  0  0  0  0  0  0
  152.1841  141.5815  158.8641 C   0  0  0  0  0  0  0  0  0  0  0  0
  152.3463  140.2367  158.8264 F   0  0  0  0  0  0  0  0  0  0  0  0
  150.3302  134.5969  155.3757 H   0  0  0  0  0  0  0  0  0  0  0  0
  149.8133  136.5124  156.3530 H   0  0  0  0  0  0  0  0  0  0  0  0
  151.0659  135.7200  157.3008 H   0  0  0  0  0  0  0  0  0  0  0  0
  151.5146  138.1896  156.7733 H   0  0  0  0  0  0  0  0  0  0  0  0
  152.8133  137.0980  156.3541 H   0  0  0  0  0  0  0  0  0  0  0  0
  152.6570  138.4108  154.3973 H   0  0  0  0  0  0  0  0  0  0  0  0
  151.6720  137.0314  153.9723 H   0  0  0  0  0  0  0  0  0  0  0  0
  146.9763  139.0611  152.3272 H   0  0  0  0  0  0  0  0  0  0  0  0
  145.7934  141.2229  152.7486 H   0  0  0  0  0  0  0  0  0  0  0  0
  146.7546  142.9225  154.2577 H   0  0  0  0  0  0  0  0  0  0  0  0
  148.9335  142.5386  155.4061 H   0  0  0  0  0  0  0  0  0  0  0  0
  152.0013  140.1825  156.2519 H   0  0  0  0  0  0  0  0  0  0  0  0
  151.6778  141.6238  155.3329 H   0  0  0  0  0  0  0  0  0  0  0  0
  149.5776  142.0178  156.6839 H   0  0  0  0  0  0  0  0  0  0  0  0
  150.0694  139.5018  157.3518 H   0  0  0  0  0  0  0  0  0  0  0  0
  150.3446  144.1118  157.4779 H   0  0  0  0  0  0  0  0  0  0  0  0
  151.7150  145.4463  159.0521 H   0  0  0  0  0  0  0  0  0  0  0  0
  153.3885  144.3242  160.5125 H   0  0  0  0  0  0  0  0  0  0  0  0
  153.6852  141.8586  160.3937 H   0  0  0  0  0  0  0  0  0  0  0  0
  149.3883  137.6759  153.0902 H   0  0  0  0  0  0  0  0  0  0  0  0
  1  2  1  0  0  0  0
  1 24  1  0  0  0  0
  2  3  1  0  0  0  0
  2 25  1  0  0  0  0
  2 26  1  0  0  0  0
  3  4  1  0  0  0  0
  3 27  1  0  0  0  0
  3 28  1  0  0  0  0
  4  5  1  0  0  0  0
  4 29  1  0  0  0  0
  4 30  1  0  0  0  0
  5 13  1  0  0  0  0
  5  6  2  0  0  0  0
  6  7  1  0  0  0  0
  6 43  1  0  0  0  0
  7 12  2  0  0  0  0
  7  8  1  0  0  0  0
  8  9  2  0  0  0  0
  8 31  1  0  0  0  0
  9 10  1  0  0  0  0
  9 32  1  0  0  0  0
 10 11  2  0  0  0  0
 10 33  1  0  0  0  0
 11 12  1  0  0  0  0
 11 34  1  0  0  0  0
 12 13  1  0  0  0  0
 13 14  1  0  0  0  0
 14 15  1  0  0  0  0
 14 35  1  0  0  0  0
 14 36  1  0  0  0  0
 15 16  1  0  0  0  0
 15 17  1  0  0  0  0
 15 37  1  0  0  0  0
 16 38  1  0  0  0  0
 17 22  1  0  0  0  0
 17 18  2  0  0  0  0
 18 19  1  0  0  0  0
 18 39  1  0  0  0  0
 19 20  2  0  0  0  0
 19 40  1  0  0  0  0
 20 21  1  0  0  0  0
 20 41  1  0  0  0  0
 21 22  2  0  0  0  0
 21 42  1  0  0  0  0
 22 23  1  0  0  0  0
M  CHG  1   6   1
M  END
> <s_m_source_file>
AV-unprocessed.smi

> <i_m_source_file_index>
1632

> <i_lp_mmshare_version>
43012

> <i_f3d_flags>
0

> <s_epik_input>
W09IXVtDSDJdW0NIMl1bQ0gyXWMobjEpbihjKGMxMilbY0hdW2NIXVtjSF1bY0hdMilbQ0gyXVtDQEhdKFtPSF0pYzNbY0hdW2NIXVtjSF1bY0hdYzNG

> <s_epik_cmdline>
J2VwaWtfcHl0aG9uJywgJy1waCcsICc3LjAnLCAnLXRuJywgJzgnLCAnLW1hJywgJzIwMCcsICctbWV0YWxfYmluZGluZycsICctaW1hZScsICc8aW5maWxlLm1hZT4nLCAnLW9tYWUnLCAnPG91dGZpbGUubWFlPic=

> <r_epik_Ionization_Penalty>
0.786441

> <r_epik_Ionization_Penalty_Charging>
0.786439

> <r_epik_Ionization_Penalty_Neutral>
1.50852e-06

> <r_epik_State_Penalty>
0.816472

> <r_epik_Charging_Adjusted_Penalty>
1.60291

> <i_epik_Tot_Q>
1

> <i_epik_Tot_abs_Q>
1

> <r_epik_Metal_State_Penalty>
4.73733

> <b_epik_Metal_Only>
0

> <s_lp_Force_Field>
OPLS_2005

> <r_lp_Energy>
15.9798

> <b_lp_Chiralities_Consistent>
1

> <s_lp_Variant>
AV-unprocessed.smi:1632-4

> <Gold.Version>
5.8.1

> <Gold.Id.Protein>
6NUR|6NUR_protein|mol2

> <Gold.PLP.Fitness>
58.4382

> <Gold.PLP.PLP>
-50.3687

> <Gold.PLP.part.hbond>
-3.0000

> <Gold.PLP.part.metal>
0.0000

> <Gold.PLP.part.buried>
2.3647

> <Gold.PLP.part.nonpolar>
-49.7177

> <Gold.PLP.part.repulsive>
0.0706

> <Gold.PLP.ligand.clash>
0.0000

> <Gold.PLP.ligand.torsion>
0.4910

> <Gold.PLP.Chemscore.Hbond>
3.0000

> <Gold.PLP.Chemscore.CHOScore>
0.0000

> <Gold.PLP.Chemscore.Metal>
0.0000

> <Gold.Chemscore.Hbonds>
donor molecule, donor type, donor heavy atom, donor atom, acceptor molecule, acceptor atom, score
      L1  H     6    43       P1  7948  2.00
      P1  H 10752 10763       L1     1  0.99

> <Gold.PLP.Chemscore.Internal.Correction>
0.0515

> <Gold.Rescore>
     Score         DG    S(hbond)    S(metal)    S(lipo)     H(rot)  DE(clash)    DE(int)     intcor
     17.09     -18.90       1.78        0.00     133.15       3.16       0.10       1.71       ----

> <Gold.Chemscore.Fitness>
17.0858

> <Gold.Chemscore.DG>
-18.8995

> <Gold.Chemscore.ZeroCoef>
-5.4800

> <Gold.Chemscore.Hbond>
1.7758

> <Gold.Chemscore.Metal>
0.0000

> <Gold.Chemscore.Lipo>
133.1525

> <Gold.Chemscore.Internal_Hbond>
0.0000

> <Gold.Chemscore.DEClash>
0.1042

> <Gold.Chemscore.DEInternal>
1.7095

> <Gold.Chemscore.Rot>
3.1604

> <Gold.Chemscore.Internal.Correction>
   9.000000E+99

> <Gold.Chemscore.Hbonds>
donor molecule, donor type, donor heavy atom, donor atom, acceptor molecule, acceptor atom, score
      L1  H     6    43       P1  7948  0.94
      P1  H 10752 10763       L1     1  0.35

> <Gold.Chemscore.Hbond.Weighted>
-5.9313

> <Gold.Chemscore.Metal.Weighted>
-0.0000

> <Gold.Chemscore.Lipo.Weighted>
-15.5788

> <Gold.Chemscore.Internal_Hbond.Weighted>
0.0000

> <Gold.Chemscore.DEClash.Weighted>
0.1042

> <Gold.Chemscore.DEInternal.Weighted>
1.7095

> <Gold.Chemscore.Rot.Weighted>
8.0907

> <Gold.Chemscore.Internal.Correction.Weighted>
   9.000000E+99

> <Gold.Protein.RotatedTorsions>
[ 6907 6896 6895 6894 ] final   21.65 input  -60.11 | X-H torsion
[ 7974 7965 7964 7962 ] final -174.41 input  175.53 | X-H torsion
[ 8008 7997 7996 7995 ] final   36.88 input   59.86 | X-H torsion
[ 10167 10162 10161 10158 ] final  147.30 input  -65.29 | X-H torsion
[ 10718 10713 10712 10709 ] final  -11.50 input   66.30 | X-H torsion
[ 10763 10752 10751 10750 ] final   68.70 input  -60.55 | X-H torsion
[ 11005 11000 10999 10996 ] final   25.45 input  -57.11 | X-H torsion

> <Gold.Protein.ActiveResidues>
 VAL166  LYS551  ARG553  GLY616  TRP617  ASP618  TYR619  PRO620  LYS621  CYS622 
 ASP623  PHE694  ASN695  SER759  ASP760  ASP761  ALA762  ILE779  LEU786  VAL792 
 PHE793  MET794  SER795  GLU796  ALA797  LYS798  CYS799  TRP800  GLU811  SER814 

> <Gold.Protein.RotatedAtoms>
  151.9151  135.0322  160.0517 H   0  0  0  0  0  0  0  0  0  0  0  0  # atno 6907 bound_to 6896
  152.2247  133.5006  159.5190 H   0  0  0  0  0  0  0  0  0  0  0  0  # atno 6908 bound_to 6896
  150.7009  134.1212  159.4078 H   0  0  0  0  0  0  0  0  0  0  0  0  # atno 6909 bound_to 6896
  144.7132  140.1476  143.6387 H   0  0  0  0  0  0  0  0  0  0  0  0  # atno 7974 bound_to 7965
  155.1946  140.3311  155.4353 H   0  0  0  0  0  0  0  0  0  0  0  0  # atno 8008 bound_to 7997
  156.2429  140.1904  156.6987 H   0  0  0  0  0  0  0  0  0  0  0  0  # atno 8009 bound_to 7997
  154.6182  140.0599  156.9567 H   0  0  0  0  0  0  0  0  0  0  0  0  # atno 8010 bound_to 7997
  139.4892  144.5766  151.6954 H   0  0  0  0  0  0  0  0  0  0  0  0  # atno 10167 bound_to 10162
  156.6582  130.4974  149.6039 H   0  0  0  0  0  0  0  0  0  0  0  0  # atno 10718 bound_to 10713
  153.0248  135.5238  154.7174 H   0  0  0  0  0  0  0  0  0  0  0  0  # atno 10763 bound_to 10752
  154.6239  135.2892  155.0296 H   0  0  0  0  0  0  0  0  0  0  0  0  # atno 10764 bound_to 10752
  154.1273  135.6598  153.4967 H   0  0  0  0  0  0  0  0  0  0  0  0  # atno 10765 bound_to 10752
  140.3477  134.2263  155.7683 H   0  0  0  0  0  0  0  0  0  0  0  0  # atno 11005 bound_to 11000
  145.9145  139.2507  143.1418 LP  0  0  0  0  0  0  0  0  0  0  0  0  # atno 17320 bound_to 7965
  145.9682  140.8781  143.0176 LP  0  0  0  0  0  0  0  0  0  0  0  0  # atno 17321 bound_to 7965
  140.5363  144.0650  150.6072 LP  0  0  0  0  0  0  0  0  0  0  0  0  # atno 17342 bound_to 10162
  140.3657  143.2882  152.0334 LP  0  0  0  0  0  0  0  0  0  0  0  0  # atno 17343 bound_to 10162
  156.2032  130.6632  151.1189 LP  0  0  0  0  0  0  0  0  0  0  0  0  # atno 17370 bound_to 10713
  157.7118  131.0730  150.6471 LP  0  0  0  0  0  0  0  0  0  0  0  0  # atno 17371 bound_to 10713
  141.2021  133.7946  157.0409 LP  0  0  0  0  0  0  0  0  0  0  0  0  # atno 17394 bound_to 11000
  140.0728  134.9692  157.1496 LP  0  0  0  0  0  0  0  0  0  0  0  0  # atno 17395 bound_to 11000

$$$$
