AV-unprocessed.smi:1626|AV-procd|sdf|6514|dock6
  -GOLD-   22720 7183D 1   1.00000     0.00000
 Structure written by MMmdl.
 47 49  0  0  0  0  0  0  0  0  1 V2000
  151.9213  145.3001  159.4345 C   0  0  0  0  0  0  0  0  0  0  0  0
  152.3201  143.8493  159.6408 C   0  0  0  0  0  0  0  0  0  0  0  0
  153.0576  143.4968  160.7940 C   0  0  0  0  0  0  0  0  0  0  0  0
  153.4434  142.1583  161.0262 C   0  0  0  0  0  0  0  0  0  0  0  0
  154.1547  141.5940  162.0718 N   0  0  0  0  0  0  0  0  0  0  0  0
  154.1818  140.3122  161.7169 C   0  0  0  0  0  0  0  0  0  0  0  0
  153.5718  139.9800  160.5629 N   0  0  0  0  0  0  0  0  0  0  0  0
  153.4567  138.6603  159.9713 C   0  0  0  0  0  0  0  0  0  0  0  0
  154.8356  138.0288  159.6953 C   0  0  2  0  0  0  0  0  0  0  0  0
  155.2328  138.3443  158.3761 O   0  0  0  0  0  0  0  0  0  0  0  0
  154.8313  136.4936  159.8368 C   0  0  0  0  0  0  0  0  0  0  0  0
  154.9882  135.9829  161.2004 N   0  0  0  0  0  0  0  0  0  0  0  0
  154.8667  134.5224  161.2705 C   0  0  0  0  0  0  0  0  0  0  0  0
  155.0769  133.9777  162.6939 C   0  0  0  0  0  0  0  0  0  0  0  0
  154.0881  134.6339  163.6700 C   0  0  0  0  0  0  0  0  0  0  0  0
  154.3687  134.2245  164.9921 O   0  0  0  0  0  0  0  0  0  0  0  0
  154.1851  136.1637  163.5606 C   0  0  0  0  0  0  0  0  0  0  0  0
  154.0118  136.6044  162.0972 C   0  0  0  0  0  0  0  0  0  0  0  0
  153.0682  141.1755  160.0647 C   0  0  0  0  0  0  0  0  0  0  0  0
  152.3389  141.5134  158.9115 C   0  0  0  0  0  0  0  0  0  0  0  0
  151.9625  142.8553  158.6945 C   0  0  0  0  0  0  0  0  0  0  0  0
  151.1754  143.2093  157.4453 C   0  0  0  0  0  0  0  0  0  0  0  0
  152.1911  145.9131  160.2950 H   0  0  0  0  0  0  0  0  0  0  0  0
  150.8439  145.3860  159.2903 H   0  0  0  0  0  0  0  0  0  0  0  0
  152.4228  145.7111  158.5580 H   0  0  0  0  0  0  0  0  0  0  0  0
  153.3326  144.2540  161.5133 H   0  0  0  0  0  0  0  0  0  0  0  0
  154.6681  139.5705  162.3337 H   0  0  0  0  0  0  0  0  0  0  0  0
  152.8839  138.0370  160.6591 H   0  0  0  0  0  0  0  0  0  0  0  0
  152.8703  138.7311  159.0541 H   0  0  0  0  0  0  0  0  0  0  0  0
  155.5817  138.4672  160.3573 H   0  0  0  0  0  0  0  0  0  0  0  0
  154.6804  137.8691  157.7747 H   0  0  0  0  0  0  0  0  0  0  0  0
  153.8906  136.1243  159.4256 H   0  0  0  0  0  0  0  0  0  0  0  0
  155.6158  136.0724  159.2059 H   0  0  0  0  0  0  0  0  0  0  0  0
  153.8868  134.2138  160.9028 H   0  0  0  0  0  0  0  0  0  0  0  0
  155.6029  134.0495  160.6226 H   0  0  0  0  0  0  0  0  0  0  0  0
  154.9531  132.8944  162.7013 H   0  0  0  0  0  0  0  0  0  0  0  0
  156.1026  134.1772  163.0083 H   0  0  0  0  0  0  0  0  0  0  0  0
  153.0734  134.3173  163.4246 H   0  0  0  0  0  0  0  0  0  0  0  0
  155.3002  134.2937  165.1363 H   0  0  0  0  0  0  0  0  0  0  0  0
  153.4269  136.6368  164.1859 H   0  0  0  0  0  0  0  0  0  0  0  0
  155.1537  136.5055  163.9288 H   0  0  0  0  0  0  0  0  0  0  0  0
  154.1069  137.6898  162.0466 H   0  0  0  0  0  0  0  0  0  0  0  0
  152.9999  136.3681  161.7636 H   0  0  0  0  0  0  0  0  0  0  0  0
  152.0713  140.7447  158.2015 H   0  0  0  0  0  0  0  0  0  0  0  0
  151.0680  142.3476  156.7858 H   0  0  0  0  0  0  0  0  0  0  0  0
  151.6790  143.9969  156.8842 H   0  0  0  0  0  0  0  0  0  0  0  0
  150.1765  143.5561  157.7107 H   0  0  0  0  0  0  0  0  0  0  0  0
  1  2  1  0  0  0  0
  1 23  1  0  0  0  0
  1 24  1  0  0  0  0
  1 25  1  0  0  0  0
  2 21  1  0  0  0  0
  2  3  2  0  0  0  0
  3  4  1  0  0  0  0
  3 26  1  0  0  0  0
  4 19  2  0  0  0  0
  4  5  1  0  0  0  0
  5  6  2  0  0  0  0
  6  7  1  0  0  0  0
  6 27  1  0  0  0  0
  7  8  1  0  0  0  0
  7 19  1  0  0  0  0
  8  9  1  0  0  0  0
  8 28  1  0  0  0  0
  8 29  1  0  0  0  0
  9 10  1  0  0  0  0
  9 11  1  0  0  0  0
  9 30  1  0  0  0  0
 10 31  1  0  0  0  0
 11 12  1  0  0  0  0
 11 32  1  0  0  0  0
 11 33  1  0  0  0  0
 12 18  1  0  0  0  0
 12 13  1  0  0  0  0
 13 14  1  0  0  0  0
 13 34  1  0  0  0  0
 13 35  1  0  0  0  0
 14 15  1  0  0  0  0
 14 36  1  0  0  0  0
 14 37  1  0  0  0  0
 15 16  1  0  0  0  0
 15 17  1  0  0  0  0
 15 38  1  0  0  0  0
 16 39  1  0  0  0  0
 17 18  1  0  0  0  0
 17 40  1  0  0  0  0
 17 41  1  0  0  0  0
 18 42  1  0  0  0  0
 18 43  1  0  0  0  0
 19 20  1  0  0  0  0
 20 21  2  0  0  0  0
 20 44  1  0  0  0  0
 21 22  1  0  0  0  0
 22 45  1  0  0  0  0
 22 46  1  0  0  0  0
 22 47  1  0  0  0  0
M  END
> <s_m_source_file>
AV-unprocessed.smi

> <i_m_source_file_index>
1626

> <i_lp_mmshare_version>
43012

> <i_f3d_flags>
0

> <s_epik_input>
W0NIM11jKFtjSF0xKWMoW0NIM10pW2NIXWMoYzEyKW4oW2NIXW4yKVtDSDJdW0NASF0oW09IXSlbQ0gyXU4zW0NIMl1bQ0gyXVtDSF0oW09IXSlbQ0gyXVtDSDJdMw==

> <s_epik_cmdline>
J2VwaWtfcHl0aG9uJywgJy1waCcsICc3LjAnLCAnLXRuJywgJzgnLCAnLW1hJywgJzIwMCcsICctbWV0YWxfYmluZGluZycsICctaW1hZScsICc8aW5maWxlLm1hZT4nLCAnLW9tYWUnLCAnPG91dGZpbGUubWFlPic=

> <r_epik_Ionization_Penalty>
2.14395

> <r_epik_Ionization_Penalty_Charging>
0

> <r_epik_Ionization_Penalty_Neutral>
2.14395

> <r_epik_State_Penalty>
2.24477

> <r_epik_Charging_Adjusted_Penalty>
2.24477

> <i_epik_Tot_Q>
0

> <i_epik_Tot_abs_Q>
0

> <r_epik_Metal_State_Penalty>
2.17429

> <b_epik_Metal_Only>
0

> <s_lp_Force_Field>
OPLS_2005

> <r_lp_Energy>
28.7152

> <b_lp_Chiralities_Consistent>
1

> <s_lp_Variant>
AV-unprocessed.smi:1626-9

> <Gold.Version>
5.8.1

> <Gold.Id.Protein>
6NUR|6NUR_protein|mol2

> <Gold.PLP.Fitness>
48.3480

> <Gold.PLP.PLP>
-46.7977

> <Gold.PLP.part.hbond>
-3.0000

> <Gold.PLP.part.metal>
0.0000

> <Gold.PLP.part.buried>
-4.1929

> <Gold.PLP.part.nonpolar>
-38.9636

> <Gold.PLP.part.repulsive>
0.0000

> <Gold.PLP.ligand.clash>
0.0000

> <Gold.PLP.ligand.torsion>
0.6933

> <Gold.PLP.Chemscore.Hbond>
0.9760

> <Gold.PLP.Chemscore.CHOScore>
0.0000

> <Gold.PLP.Chemscore.Metal>
0.0000

> <Gold.Chemscore.Hbonds>
donor molecule, donor type, donor heavy atom, donor atom, acceptor molecule, acceptor atom, score
      P1  H  7997  8008       L1    10  0.80

> <Gold.PLP.Chemscore.Internal.Correction>
0.0089

> <Gold.Rescore>
     Score         DG    S(hbond)    S(metal)    S(lipo)     H(rot)  DE(clash)    DE(int)     intcor
     15.68     -16.76       0.71        0.00     132.99       2.59       0.13       0.95       ----

> <Gold.Chemscore.Fitness>
15.6814

> <Gold.Chemscore.DG>
-16.7578

> <Gold.Chemscore.ZeroCoef>
-5.4800

> <Gold.Chemscore.Hbond>
0.7068

> <Gold.Chemscore.Metal>
0.0000

> <Gold.Chemscore.Lipo>
132.9862

> <Gold.Chemscore.Internal_Hbond>
0.0000

> <Gold.Chemscore.DEClash>
0.1252

> <Gold.Chemscore.DEInternal>
0.9512

> <Gold.Chemscore.Rot>
2.5947

> <Gold.Chemscore.Internal.Correction>
   9.000000E+99

> <Gold.Chemscore.Hbonds>
donor molecule, donor type, donor heavy atom, donor atom, acceptor molecule, acceptor atom, score
      P1  H  7997  8008       L1    10  0.11

> <Gold.Chemscore.Hbond.Weighted>
-2.3608

> <Gold.Chemscore.Metal.Weighted>
-0.0000

> <Gold.Chemscore.Lipo.Weighted>
-15.5594

> <Gold.Chemscore.Internal_Hbond.Weighted>
0.0000

> <Gold.Chemscore.DEClash.Weighted>
0.1252

> <Gold.Chemscore.DEInternal.Weighted>
0.9512

> <Gold.Chemscore.Rot.Weighted>
6.6424

> <Gold.Chemscore.Internal.Correction.Weighted>
   9.000000E+99

> <Gold.Protein.RotatedTorsions>
[ 6907 6896 6895 6894 ] final  -51.54 input  -60.11 | X-H torsion
[ 7974 7965 7964 7962 ] final  118.46 input  175.53 | X-H torsion
[ 8008 7997 7996 7995 ] final -130.27 input   59.86 | X-H torsion
[ 10167 10162 10161 10158 ] final -141.09 input  -65.29 | X-H torsion
[ 10718 10713 10712 10709 ] final -153.70 input   66.30 | X-H torsion
[ 10763 10752 10751 10750 ] final -134.16 input  -60.55 | X-H torsion
[ 11005 11000 10999 10996 ] final -135.15 input  -57.11 | X-H torsion

> <Gold.Protein.ActiveResidues>
 VAL166  LYS551  ARG553  GLY616  TRP617  ASP618  TYR619  PRO620  LYS621  CYS622 
 ASP623  PHE694  ASN695  SER759  ASP760  ASP761  ALA762  ILE779  LEU786  VAL792 
 PHE793  MET794  SER795  GLU796  ALA797  LYS798  CYS799  TRP800  GLU811  SER814 

> <Gold.Protein.RotatedAtoms>
  150.8602  134.7952  159.7076 H   0  0  0  0  0  0  0  0  0  0  0  0  # atno 6907 bound_to 6896
  152.4641  134.5112  159.9764 H   0  0  0  0  0  0  0  0  0  0  0  0  # atno 6908 bound_to 6896
  151.5217  133.3427  159.2938 H   0  0  0  0  0  0  0  0  0  0  0  0  # atno 6909 bound_to 6896
  145.1549  139.3189  143.4547 H   0  0  0  0  0  0  0  0  0  0  0  0  # atno 7974 bound_to 7965
  155.2929  140.0449  157.3024 H   0  0  0  0  0  0  0  0  0  0  0  0  # atno 8008 bound_to 7997
  154.5531  140.2323  155.8421 H   0  0  0  0  0  0  0  0  0  0  0  0  # atno 8009 bound_to 7997
  156.1984  140.3032  155.9481 H   0  0  0  0  0  0  0  0  0  0  0  0  # atno 8010 bound_to 7997
  139.8219  143.7563  152.2666 H   0  0  0  0  0  0  0  0  0  0  0  0  # atno 10167 bound_to 10162
  156.4894  130.8340  151.2564 H   0  0  0  0  0  0  0  0  0  0  0  0  # atno 10718 bound_to 10713
  154.8723  135.3743  154.4690 H   0  0  0  0  0  0  0  0  0  0  0  0  # atno 10763 bound_to 10752
  153.5352  135.7027  153.5668 H   0  0  0  0  0  0  0  0  0  0  0  0  # atno 10764 bound_to 10752
  153.3855  135.3985  155.1852 H   0  0  0  0  0  0  0  0  0  0  0  0  # atno 10765 bound_to 10752
  140.8925  134.1794  157.4518 H   0  0  0  0  0  0  0  0  0  0  0  0  # atno 11005 bound_to 11000
  146.3490  140.1637  142.8590 LP  0  0  0  0  0  0  0  0  0  0  0  0  # atno 17320 bound_to 7965
  145.0392  140.8932  143.5063 LP  0  0  0  0  0  0  0  0  0  0  0  0  # atno 17321 bound_to 7965
  139.7743  144.7466  151.0179 LP  0  0  0  0  0  0  0  0  0  0  0  0  # atno 17342 bound_to 10162
  140.7813  143.4610  151.0278 LP  0  0  0  0  0  0  0  0  0  0  0  0  # atno 17343 bound_to 10162
  157.7475  131.0018  150.2978 LP  0  0  0  0  0  0  0  0  0  0  0  0  # atno 17370 bound_to 10713
  156.3442  130.3820  149.7383 LP  0  0  0  0  0  0  0  0  0  0  0  0  # atno 17371 bound_to 10713
  139.8731  134.9864  156.5324 LP  0  0  0  0  0  0  0  0  0  0  0  0  # atno 17394 bound_to 11000
  140.8330  133.8264  155.9002 LP  0  0  0  0  0  0  0  0  0  0  0  0  # atno 17395 bound_to 11000

$$$$
