AV-unprocessed.smi:1337|AV-procd|sdf|5498|dock2
  -GOLD-   22720 5 83D 1   1.00000     0.00000
 Structure written by MMmdl.
 38 39  0  0  0  0  0  0  0  0  1 V2000
  150.0596  136.7610  159.6412 O   0  0  0  0  0  0  0  0  0  0  0  0
  149.1237  137.3938  159.1501 C   0  0  0  0  0  0  0  0  0  0  0  0
  147.6929  136.8386  159.1916 C   0  0  0  0  0  0  0  0  0  0  0  0
  147.4968  135.8205  160.2365 N   0  0  0  0  0  0  0  0  0  0  0  0
  147.6640  134.4741  159.8715 C   0  0  0  0  0  0  0  0  0  0  0  0
  147.5091  133.4926  160.7716 C   0  0  0  0  0  0  0  0  0  0  0  0
  147.1603  133.9076  162.1365 C   0  0  0  0  0  0  0  0  0  0  0  0
  147.0101  135.1341  162.4732 N   0  0  0  0  0  0  0  0  0  0  0  0
  147.1768  136.1631  161.5270 C   0  0  0  0  0  0  0  0  0  0  0  0
  147.0400  137.3445  161.8453 O   0  0  0  0  0  0  0  0  0  0  0  0
  149.2793  138.5770  158.5372 N   0  0  0  0  0  0  0  0  0  0  0  0
  150.5480  139.2794  158.3861 C   0  0  0  0  0  0  0  0  0  0  0  0
  150.3631  140.6316  157.6760 C   0  0  0  0  0  0  0  0  0  0  0  0
  151.1919  141.7420  158.3003 C   0  0  0  0  0  0  0  0  0  0  0  0
  151.2075  142.9901  157.7927 C   0  0  0  0  0  0  0  0  0  0  0  0
  152.0280  144.1337  158.3628 C   0  0  0  0  0  0  0  0  0  0  0  0
  153.0993  143.6482  159.3533 C   0  0  0  0  0  0  0  0  0  0  0  0
  152.5323  142.5869  160.3044 C   0  0  0  0  0  0  0  0  0  0  0  0
  152.0074  141.3633  159.5319 C   0  0  0  0  0  0  0  0  0  0  0  0
  146.9853  137.6582  159.3314 H   0  0  0  0  0  0  0  0  0  0  0  0
  147.4618  136.4252  158.2089 H   0  0  0  0  0  0  0  0  0  0  0  0
  147.9268  134.2992  158.8384 H   0  0  0  0  0  0  0  0  0  0  0  0
  147.6261  132.4402  160.5588 H   0  0  0  0  0  0  0  0  0  0  0  0
  147.0360  133.0937  162.8552 H   0  0  0  0  0  0  0  0  0  0  0  0
  148.4595  139.0255  158.1546 H   0  0  0  0  0  0  0  0  0  0  0  0
  150.9666  139.4294  159.3814 H   0  0  0  0  0  0  0  0  0  0  0  0
  151.2591  138.6558  157.8414 H   0  0  0  0  0  0  0  0  0  0  0  0
  150.6353  140.5341  156.6240 H   0  0  0  0  0  0  0  0  0  0  0  0
  149.3129  140.9248  157.6941 H   0  0  0  0  0  0  0  0  0  0  0  0
  150.6025  143.2269  156.9296 H   0  0  0  0  0  0  0  0  0  0  0  0
  152.4991  144.6811  157.5458 H   0  0  0  0  0  0  0  0  0  0  0  0
  151.3445  144.8256  158.8558 H   0  0  0  0  0  0  0  0  0  0  0  0
  153.9390  143.2225  158.8021 H   0  0  0  0  0  0  0  0  0  0  0  0
  153.4961  144.4927  159.9173 H   0  0  0  0  0  0  0  0  0  0  0  0
  153.2926  142.2757  161.0214 H   0  0  0  0  0  0  0  0  0  0  0  0
  151.7207  143.0254  160.8864 H   0  0  0  0  0  0  0  0  0  0  0  0
  151.4020  140.7458  160.1961 H   0  0  0  0  0  0  0  0  0  0  0  0
  152.8472  140.7483  159.2075 H   0  0  0  0  0  0  0  0  0  0  0  0
  1  2  2  0  0  0  0
  2  3  1  0  0  0  0
  2 11  1  0  0  0  0
  3  4  1  0  0  0  0
  3 20  1  0  0  0  0
  3 21  1  0  0  0  0
  4  9  1  0  0  0  0
  4  5  1  0  0  0  0
  5  6  2  0  0  0  0
  5 22  1  0  0  0  0
  6  7  1  0  0  0  0
  6 23  1  0  0  0  0
  7  8  2  0  0  0  0
  7 24  1  0  0  0  0
  8  9  1  0  0  0  0
  9 10  2  0  0  0  0
 11 12  1  0  0  0  0
 11 25  1  0  0  0  0
 12 13  1  0  0  0  0
 12 26  1  0  0  0  0
 12 27  1  0  0  0  0
 13 14  1  0  0  0  0
 13 28  1  0  0  0  0
 13 29  1  0  0  0  0
 14 19  1  0  0  0  0
 14 15  2  0  0  0  0
 15 16  1  0  0  0  0
 15 30  1  0  0  0  0
 16 17  1  0  0  0  0
 16 31  1  0  0  0  0
 16 32  1  0  0  0  0
 17 18  1  0  0  0  0
 17 33  1  0  0  0  0
 17 34  1  0  0  0  0
 18 19  1  0  0  0  0
 18 35  1  0  0  0  0
 18 36  1  0  0  0  0
 19 37  1  0  0  0  0
 19 38  1  0  0  0  0
M  END
> <s_m_source_file>
AV-unprocessed.smi

> <i_m_source_file_index>
1337

> <i_lp_mmshare_version>
43012

> <i_f3d_flags>
0

> <s_epik_input>
Tz1jMW5bY0hdW2NIXVtjSF1uMVtDSDJdQyg9TylbTkhdW0NIMl1bQ0gyXUMyPVtDSF1bQ0gyXVtDSDJdW0NIMl1bQ0gyXTI=

> <s_epik_cmdline>
J2VwaWtfcHl0aG9uJywgJy1waCcsICc3LjAnLCAnLXRuJywgJzgnLCAnLW1hJywgJzIwMCcsICctbWV0YWxfYmluZGluZycsICctaW1hZScsICc8aW5maWxlLm1hZT4nLCAnLW9tYWUnLCAnPG91dGZpbGUubWFlPic=

> <r_lp_tautomer_probability>
1

> <r_epik_Ionization_Penalty>
7.10509e-06

> <r_epik_Ionization_Penalty_Charging>
1.70435e-08

> <r_epik_Ionization_Penalty_Neutral>
7.08805e-06

> <r_epik_State_Penalty>
-0

> <r_epik_Charging_Adjusted_Penalty>
1.70435e-08

> <i_epik_Tot_Q>
0

> <i_epik_Tot_abs_Q>
0

> <r_epik_Metal_State_Penalty>
-0

> <b_epik_Metal_Only>
0

> <s_lp_Force_Field>
OPLS_2005

> <r_lp_Energy>
9.56824

> <b_lp_Chiralities_Consistent>
1

> <s_lp_Variant>
AV-unprocessed.smi:1337-1

> <Gold.Version>
5.8.1

> <Gold.Id.Protein>
6NUR|6NUR_protein|mol2

> <Gold.PLP.Fitness>
46.9069

> <Gold.PLP.PLP>
-41.3881

> <Gold.PLP.part.hbond>
-3.0485

> <Gold.PLP.part.metal>
0.0000

> <Gold.PLP.part.buried>
-5.0355

> <Gold.PLP.part.nonpolar>
-33.2099

> <Gold.PLP.part.repulsive>
0.1936

> <Gold.PLP.ligand.clash>
0.0000

> <Gold.PLP.ligand.torsion>
0.9503

> <Gold.PLP.Chemscore.Hbond>
2.4560

> <Gold.PLP.Chemscore.CHOScore>
0.0000

> <Gold.PLP.Chemscore.Metal>
0.0000

> <Gold.Chemscore.Hbonds>
donor molecule, donor type, donor heavy atom, donor atom, acceptor molecule, acceptor atom, score
      P1  H  6896  6909       L1     1  1.00
      P1  H  6931  6943       L1    10  0.48
      P1  H  6934  6947       L1    10  0.85

> <Gold.PLP.Chemscore.Internal.Correction>
0.0515

> <Gold.Rescore>
     Score         DG    S(hbond)    S(metal)    S(lipo)     H(rot)  DE(clash)    DE(int)     intcor
     19.60     -20.49       2.67        0.00      93.45       1.89       0.01       0.87       ----

> <Gold.Chemscore.Fitness>
19.5984

> <Gold.Chemscore.DG>
-20.4867

> <Gold.Chemscore.ZeroCoef>
-5.4800

> <Gold.Chemscore.Hbond>
2.6693

> <Gold.Chemscore.Metal>
0.0000

> <Gold.Chemscore.Lipo>
93.4498

> <Gold.Chemscore.Internal_Hbond>
0.0000

> <Gold.Chemscore.DEClash>
0.0147

> <Gold.Chemscore.DEInternal>
0.8736

> <Gold.Chemscore.Rot>
1.8916

> <Gold.Chemscore.Internal.Correction>
   9.000000E+99

> <Gold.Chemscore.Hbonds>
donor molecule, donor type, donor heavy atom, donor atom, acceptor molecule, acceptor atom, score
      P1  H  6896  6909       L1     1  0.95
      P1  H  6931  6943       L1    10  0.30
      P1  H  6934  6947       L1    10  0.83

> <Gold.Chemscore.Hbond.Weighted>
-8.9155

> <Gold.Chemscore.Metal.Weighted>
-0.0000

> <Gold.Chemscore.Lipo.Weighted>
-10.9336

> <Gold.Chemscore.Internal_Hbond.Weighted>
0.0000

> <Gold.Chemscore.DEClash.Weighted>
0.0147

> <Gold.Chemscore.DEInternal.Weighted>
0.8736

> <Gold.Chemscore.Rot.Weighted>
4.8425

> <Gold.Chemscore.Internal.Correction.Weighted>
   9.000000E+99

> <Gold.Protein.RotatedTorsions>
[ 6907 6896 6895 6894 ] final   76.61 input  -60.11 | X-H torsion
[ 7974 7965 7964 7962 ] final  165.39 input  175.53 | X-H torsion
[ 8008 7997 7996 7995 ] final -109.37 input   59.86 | X-H torsion
[ 10167 10162 10161 10158 ] final -133.20 input  -65.29 | X-H torsion
[ 10718 10713 10712 10709 ] final   96.05 input   66.30 | X-H torsion
[ 10763 10752 10751 10750 ] final -129.95 input  -60.55 | X-H torsion
[ 11005 11000 10999 10996 ] final  111.20 input  -57.11 | X-H torsion

> <Gold.Protein.ActiveResidues>
 VAL166  LYS551  ARG553  GLY616  TRP617  ASP618  TYR619  PRO620  LYS621  CYS622 
 ASP623  PHE694  ASN695  SER759  ASP760  ASP761  ALA762  ILE779  LEU786  VAL792 
 PHE793  MET794  SER795  GLU796  ALA797  LYS798  CYS799  TRP800  GLU811  SER814 

> <Gold.Protein.RotatedAtoms>
  152.5081  134.3943  159.9394 H   0  0  0  0  0  0  0  0  0  0  0  0  # atno 6907 bound_to 6896
  151.3904  133.3784  159.2728 H   0  0  0  0  0  0  0  0  0  0  0  0  # atno 6908 bound_to 6896
  150.9437  134.8864  159.7687 H   0  0  0  0  0  0  0  0  0  0  0  0  # atno 6909 bound_to 6896
  144.7505  139.8463  143.6368 H   0  0  0  0  0  0  0  0  0  0  0  0  # atno 7974 bound_to 7965
  154.9583  140.0399  157.2178 H   0  0  0  0  0  0  0  0  0  0  0  0  # atno 8008 bound_to 7997
  154.7913  140.2836  155.5967 H   0  0  0  0  0  0  0  0  0  0  0  0  # atno 8009 bound_to 7997
  156.2950  140.2573  156.2761 H   0  0  0  0  0  0  0  0  0  0  0  0  # atno 8010 bound_to 7997
  139.9007  143.6611  152.2595 H   0  0  0  0  0  0  0  0  0  0  0  0  # atno 10167 bound_to 10162
  157.6931  131.0565  150.4433 H   0  0  0  0  0  0  0  0  0  0  0  0  # atno 10718 bound_to 10713
  154.8756  135.3878  154.4004 H   0  0  0  0  0  0  0  0  0  0  0  0  # atno 10763 bound_to 10752
  153.4729  135.7030  153.5988 H   0  0  0  0  0  0  0  0  0  0  0  0  # atno 10764 bound_to 10752
  153.4437  135.3850  155.2211 H   0  0  0  0  0  0  0  0  0  0  0  0  # atno 10765 bound_to 10752
  139.8898  134.9502  156.6395 H   0  0  0  0  0  0  0  0  0  0  0  0  # atno 11005 bound_to 11000
  146.1447  139.4513  143.0086 LP  0  0  0  0  0  0  0  0  0  0  0  0  # atno 17320 bound_to 7965
  145.6963  141.0149  143.1528 LP  0  0  0  0  0  0  0  0  0  0  0  0  # atno 17321 bound_to 7965
  139.7028  144.7632  151.1245 LP  0  0  0  0  0  0  0  0  0  0  0  0  # atno 17342 bound_to 10162
  140.7707  143.5435  150.9285 LP  0  0  0  0  0  0  0  0  0  0  0  0  # atno 17343 bound_to 10162
  156.4790  130.4069  149.6473 LP  0  0  0  0  0  0  0  0  0  0  0  0  # atno 17370 bound_to 10713
  156.3525  130.7439  151.2401 LP  0  0  0  0  0  0  0  0  0  0  0  0  # atno 17371 bound_to 10713
  140.7604  133.8822  155.8414 LP  0  0  0  0  0  0  0  0  0  0  0  0  # atno 17394 bound_to 11000
  140.9926  134.1257  157.4393 LP  0  0  0  0  0  0  0  0  0  0  0  0  # atno 17395 bound_to 11000

$$$$
