AV-unprocessed.smi:3187|AV-procd|sdf|12181|dock10
  -GOLD-   2272018 23D 1   1.00000     0.00000
 Structure written by MMmdl.
 42 43  0  0  0  0  0  0  0  0  3 V2000
  153.1155  140.6633  158.9602 C   0  0  0  0  0  0  0  0  0  0  0  0
  152.6122  141.8418  159.7774 C   0  0  0  0  0  0  0  0  0  0  0  0
  152.9435  141.9422  161.0790 C   0  0  0  0  0  0  0  0  0  0  0  0
  152.5645  143.1039  161.9680 C   0  0  0  0  0  0  0  0  0  0  0  0
  152.2224  144.3425  161.1367 C   0  0  0  0  0  0  0  0  0  0  0  0
  151.2206  144.0092  160.0191 C   0  0  1  0  0  0  0  0  0  0  0  0
  150.8373  145.3024  159.2738 C   0  0  0  0  0  0  0  0  0  0  0  0
  151.7499  142.8998  159.0580 C   0  0  2  0  0  0  0  0  0  0  0  0
  150.5709  142.2754  158.2652 C   0  0  0  0  0  0  0  0  0  0  0  0
  150.6282  142.5682  156.8177 N   0  3  0  0  0  0  0  0  0  0  0  0
  150.3364  141.4052  155.9567 C   0  0  0  0  0  0  0  0  0  0  0  0
  151.5604  140.4867  155.8332 C   0  0  0  0  0  0  0  0  0  0  0  0
  151.2159  139.1994  155.2244 N   0  0  0  0  0  0  0  0  0  0  0  0
  151.5529  137.9492  155.6769 C   0  0  0  0  0  0  0  0  0  0  0  0
  151.0164  137.0539  154.7875 C   0  0  0  0  0  0  0  0  0  0  0  0
  150.3749  137.7942  153.8311 N   0  3  0  0  0  0  0  0  0  0  0  0
  150.4974  139.0986  154.0982 C   0  0  0  0  0  0  0  0  0  0  0  0
  153.5961  141.0099  158.0452 H   0  0  0  0  0  0  0  0  0  0  0  0
  152.2985  139.9904  158.7011 H   0  0  0  0  0  0  0  0  0  0  0  0
  153.8499  140.0804  159.5171 H   0  0  0  0  0  0  0  0  0  0  0  0
  153.5308  141.1659  161.5478 H   0  0  0  0  0  0  0  0  0  0  0  0
  151.7196  142.8073  162.5902 H   0  0  0  0  0  0  0  0  0  0  0  0
  153.3945  143.3282  162.6385 H   0  0  0  0  0  0  0  0  0  0  0  0
  151.8216  145.1168  161.7919 H   0  0  0  0  0  0  0  0  0  0  0  0
  153.1347  144.7514  160.6995 H   0  0  0  0  0  0  0  0  0  0  0  0
  150.3210  143.6311  160.5081 H   0  0  0  0  0  0  0  0  0  0  0  0
  151.6955  145.7265  158.7515 H   0  0  0  0  0  0  0  0  0  0  0  0
  150.4720  146.0586  159.9696 H   0  0  0  0  0  0  0  0  0  0  0  0
  150.0489  145.1439  158.5398 H   0  0  0  0  0  0  0  0  0  0  0  0
  152.4210  143.3846  158.3473 H   0  0  0  0  0  0  0  0  0  0  0  0
  150.5541  141.1955  158.4210 H   0  0  0  0  0  0  0  0  0  0  0  0
  149.6141  142.6497  158.6250 H   0  0  0  0  0  0  0  0  0  0  0  0
  149.9636  143.3009  156.6131 H   0  0  0  0  0  0  0  0  0  0  0  0
  149.4956  140.8514  156.3771 H   0  0  0  0  0  0  0  0  0  0  0  0
  150.0315  141.7568  154.9700 H   0  0  0  0  0  0  0  0  0  0  0  0
  152.3311  140.9509  155.2159 H   0  0  0  0  0  0  0  0  0  0  0  0
  152.0037  140.2957  156.8118 H   0  0  0  0  0  0  0  0  0  0  0  0
  152.1337  137.7913  156.5743 H   0  0  0  0  0  0  0  0  0  0  0  0
  151.0419  135.9738  154.7643 H   0  0  0  0  0  0  0  0  0  0  0  0
  150.0933  139.9085  153.5171 H   0  0  0  0  0  0  0  0  0  0  0  0
  151.5557  142.9047  156.6007 H   0  0  0  0  0  0  0  0  0  0  0  0
  149.8771  137.4119  153.0364 H   0  0  0  0  0  0  0  0  0  0  0  0
  1  2  1  0  0  0  0
  1 18  1  0  0  0  0
  1 19  1  0  0  0  0
  1 20  1  0  0  0  0
  2  8  1  0  0  0  0
  2  3  2  0  0  0  0
  3  4  1  0  0  0  0
  3 21  1  0  0  0  0
  4  5  1  0  0  0  0
  4 22  1  0  0  0  0
  4 23  1  0  0  0  0
  5  6  1  0  0  0  0
  5 24  1  0  0  0  0
  5 25  1  0  0  0  0
  6  7  1  0  0  0  0
  6  8  1  0  0  0  0
  6 26  1  0  0  0  0
  7 27  1  0  0  0  0
  7 28  1  0  0  0  0
  7 29  1  0  0  0  0
  8  9  1  0  0  0  0
  8 30  1  0  0  0  0
  9 10  1  0  0  0  0
  9 31  1  0  0  0  0
  9 32  1  0  0  0  0
 10 11  1  0  0  0  0
 10 33  1  0  0  0  0
 10 41  1  0  0  0  0
 11 12  1  0  0  0  0
 11 34  1  0  0  0  0
 11 35  1  0  0  0  0
 12 13  1  0  0  0  0
 12 36  1  0  0  0  0
 12 37  1  0  0  0  0
 13 17  1  0  0  0  0
 13 14  1  0  0  0  0
 14 15  2  0  0  0  0
 14 38  1  0  0  0  0
 15 16  1  0  0  0  0
 15 39  1  0  0  0  0
 16 17  2  0  0  0  0
 16 42  1  0  0  0  0
 17 40  1  0  0  0  0
M  CHG  1  10   1
M  CHG  1  16   1
M  END
> <s_m_source_file>
AV-unprocessed.smi

> <i_m_source_file_index>
3187

> <i_lp_mmshare_version>
43012

> <i_f3d_flags>
0

> <s_epik_input>
W0NIM11DMT1bQ0hdW0NIMl1bQ0gyXVtDQEBIXShbQ0gzXSlbQ0BIXTFbQ0gyXVtOSF1bQ0gyXVtDSDJdbjJbY0hdW2NIXW5bY0hdMg==

> <s_epik_cmdline>
J2VwaWtfcHl0aG9uJywgJy1waCcsICc3LjAnLCAnLXRuJywgJzgnLCAnLW1hJywgJzIwMCcsICctbWV0YWxfYmluZGluZycsICctaW1hZScsICc8aW5maWxlLm1hZT4nLCAnLW9tYWUnLCAnPG91dGZpbGUubWFlPic=

> <r_lp_tautomer_probability>
1

> <r_epik_Ionization_Penalty>
1.51066

> <r_epik_Ionization_Penalty_Charging>
0.0026721

> <r_epik_Ionization_Penalty_Neutral>
1.50798

> <r_epik_State_Penalty>
1.12593

> <r_epik_Charging_Adjusted_Penalty>
1.12861

> <i_epik_Tot_Q>
2

> <i_epik_Tot_abs_Q>
2

> <r_epik_Metal_State_Penalty>
5.12155

> <b_epik_Metal_Only>
0

> <s_lp_Force_Field>
OPLS_2005

> <r_lp_Energy>
24.2978

> <b_lp_Chiralities_Consistent>
1

> <s_lp_Variant>
AV-unprocessed.smi:3187-7

> <Gold.Version>
5.8.1

> <Gold.Id.Protein>
6NUR|6NUR_protein|mol2

> <Gold.PLP.Fitness>
56.5554

> <Gold.PLP.PLP>
-44.1059

> <Gold.PLP.part.hbond>
-2.9098

> <Gold.PLP.part.metal>
0.0000

> <Gold.PLP.part.buried>
-4.1704

> <Gold.PLP.part.nonpolar>
-36.9357

> <Gold.PLP.part.repulsive>
0.1143

> <Gold.PLP.ligand.clash>
0.0000

> <Gold.PLP.ligand.torsion>
1.2968

> <Gold.PLP.Chemscore.Hbond>
4.0000

> <Gold.PLP.Chemscore.CHOScore>
0.9979

> <Gold.PLP.Chemscore.Metal>
0.0000

> <Gold.Chemscore.Hbonds>
donor molecule, donor type, donor heavy atom, donor atom, acceptor molecule, acceptor atom, score
      L1  H    10    33       P1  8028  2.00
      L1  H    16    42       P1  7948  2.00
      L1  C    17    40       P1  7957  1.00

> <Gold.PLP.Chemscore.Internal.Correction>
0.0494

> <Gold.Rescore>
     Score         DG    S(hbond)    S(metal)    S(lipo)     H(rot)  DE(clash)    DE(int)     intcor
     19.19     -20.50       1.93        0.00     116.36       1.97       0.06       1.26       ----

> <Gold.Chemscore.Fitness>
19.1903

> <Gold.Chemscore.DG>
-20.5011

> <Gold.Chemscore.ZeroCoef>
-5.4800

> <Gold.Chemscore.Hbond>
1.9337

> <Gold.Chemscore.Metal>
0.0000

> <Gold.Chemscore.Lipo>
116.3578

> <Gold.Chemscore.Internal_Hbond>
0.0000

> <Gold.Chemscore.DEClash>
0.0552

> <Gold.Chemscore.DEInternal>
1.2556

> <Gold.Chemscore.Rot>
1.9732

> <Gold.Chemscore.Internal.Correction>
   9.000000E+99

> <Gold.Chemscore.Hbonds>
donor molecule, donor type, donor heavy atom, donor atom, acceptor molecule, acceptor atom, score
      L1  H    10    33       P1  8028  0.94
      L1  H    16    42       P1  7948  0.35

> <Gold.Chemscore.Hbond.Weighted>
-6.4586

> <Gold.Chemscore.Metal.Weighted>
-0.0000

> <Gold.Chemscore.Lipo.Weighted>
-13.6139

> <Gold.Chemscore.Internal_Hbond.Weighted>
0.0000

> <Gold.Chemscore.DEClash.Weighted>
0.0552

> <Gold.Chemscore.DEInternal.Weighted>
1.2556

> <Gold.Chemscore.Rot.Weighted>
5.0514

> <Gold.Chemscore.Internal.Correction.Weighted>
   9.000000E+99

> <Gold.Protein.RotatedTorsions>
[ 6907 6896 6895 6894 ] final   75.82 input  -60.11 | X-H torsion
[ 7974 7965 7964 7962 ] final  -38.78 input  175.53 | X-H torsion
[ 8008 7997 7996 7995 ] final   -6.85 input   59.86 | X-H torsion
[ 10167 10162 10161 10158 ] final    5.01 input  -65.29 | X-H torsion
[ 10718 10713 10712 10709 ] final  178.13 input   66.30 | X-H torsion
[ 10763 10752 10751 10750 ] final -121.44 input  -60.55 | X-H torsion
[ 11005 11000 10999 10996 ] final  -20.95 input  -57.11 | X-H torsion

> <Gold.Protein.ActiveResidues>
 VAL166  LYS551  ARG553  GLY616  TRP617  ASP618  TYR619  PRO620  LYS621  CYS622 
 ASP623  PHE694  ASN695  SER759  ASP760  ASP761  ALA762  ILE779  LEU786  VAL792 
 PHE793  MET794  SER795  GLU796  ALA797  LYS798  CYS799  TRP800  GLU811  SER814 

> <Gold.Protein.RotatedAtoms>
  152.5044  134.4063  159.9433 H   0  0  0  0  0  0  0  0  0  0  0  0  # atno 6907 bound_to 6896
  151.4029  133.3745  159.2742 H   0  0  0  0  0  0  0  0  0  0  0  0  # atno 6908 bound_to 6896
  150.9348  134.8782  159.7634 H   0  0  0  0  0  0  0  0  0  0  0  0  # atno 6909 bound_to 6896
  146.0456  140.6551  142.9066 H   0  0  0  0  0  0  0  0  0  0  0  0  # atno 7974 bound_to 7965
  154.5897  140.2422  155.7938 H   0  0  0  0  0  0  0  0  0  0  0  0  # atno 8008 bound_to 7997
  156.2238  140.2989  155.9971 H   0  0  0  0  0  0  0  0  0  0  0  0  # atno 8009 bound_to 7997
  155.2396  140.0406  157.2963 H   0  0  0  0  0  0  0  0  0  0  0  0  # atno 8010 bound_to 7997
  140.6505  143.7557  150.7567 H   0  0  0  0  0  0  0  0  0  0  0  0  # atno 10167 bound_to 10162
  156.8952  130.9860  151.3044 H   0  0  0  0  0  0  0  0  0  0  0  0  # atno 10718 bound_to 10713
  154.8668  135.4168  154.2620 H   0  0  0  0  0  0  0  0  0  0  0  0  # atno 10763 bound_to 10752
  153.3546  135.7000  153.6766 H   0  0  0  0  0  0  0  0  0  0  0  0  # atno 10764 bound_to 10752
  153.5692  135.3594  155.2803 H   0  0  0  0  0  0  0  0  0  0  0  0  # atno 10765 bound_to 10752
  140.8514  133.7854  155.9970 H   0  0  0  0  0  0  0  0  0  0  0  0  # atno 11005 bound_to 11000
  144.7096  140.3987  143.7091 LP  0  0  0  0  0  0  0  0  0  0  0  0  # atno 17320 bound_to 7965
  145.6812  139.1619  143.2700 LP  0  0  0  0  0  0  0  0  0  0  0  0  # atno 17321 bound_to 7965
  140.1207  143.4615  152.2315 LP  0  0  0  0  0  0  0  0  0  0  0  0  # atno 17342 bound_to 10162
  139.5719  144.7467  151.3867 LP  0  0  0  0  0  0  0  0  0  0  0  0  # atno 17343 bound_to 10162
  157.6060  130.8547  149.8875 LP  0  0  0  0  0  0  0  0  0  0  0  0  # atno 17370 bound_to 10713
  156.0609  130.3700  150.0984 LP  0  0  0  0  0  0  0  0  0  0  0  0  # atno 17371 bound_to 10713
  140.8786  134.2639  157.5155 LP  0  0  0  0  0  0  0  0  0  0  0  0  # atno 17394 bound_to 11000
  139.8704  134.9603  156.4361 LP  0  0  0  0  0  0  0  0  0  0  0  0  # atno 17395 bound_to 11000

$$$$
