AV-unprocessed.smi:1244|AV-procd|sdf|5226|dock10
  -GOLD-   22720 4323D 1   1.00000     0.00000
 Structure written by MMmdl.
 55 57  0  0  0  0  0  0  0  0  2 V2000
  153.4386  137.9337  155.8796 C   0  0  0  0  0  0  0  0  0  0  0  0
  152.0562  138.5598  155.6674 C   0  0  2  0  0  0  0  0  0  0  0  0
  151.6422  138.5597  154.1817 C   0  0  0  0  0  0  0  0  0  0  0  0
  150.3395  139.2409  153.9854 N   0  3  1  0  0  0  0  0  0  0  0  0
  149.1693  138.4130  154.3798 C   0  0  0  0  0  0  0  0  0  0  0  0
  147.8446  138.9753  153.8309 C   0  0  0  0  0  0  0  0  0  0  0  0
  147.0184  137.9212  153.2543 N   0  0  0  0  0  0  0  0  0  0  0  0
  145.7738  137.6227  153.6529 C   0  0  0  0  0  0  0  0  0  0  0  0
  145.1936  138.2177  154.5614 O   0  0  0  0  0  0  0  0  0  0  0  0
  145.2596  136.6151  152.9283 N   0  0  0  0  0  0  0  0  0  0  0  0
  143.9546  136.0493  153.0011 C   0  0  0  0  0  0  0  0  0  0  0  0
  142.9133  136.6645  153.7390 C   0  0  0  0  0  0  0  0  0  0  0  0
  141.6631  136.0290  153.8301 C   0  0  0  0  0  0  0  0  0  0  0  0
  141.5003  134.7880  153.1923 C   0  0  0  0  0  0  0  0  0  0  0  0
  142.4847  134.1815  152.4998 N   0  0  0  0  0  0  0  0  0  0  0  0
  143.6917  134.7892  152.3909 C   0  0  0  0  0  0  0  0  0  0  0  0
  144.6810  134.1158  151.6386 N   0  0  0  0  0  0  0  0  0  0  0  0
  145.3560  132.9432  152.1848 C   0  0  0  0  0  0  0  0  0  0  0  0
  146.0286  132.2821  150.9852 C   0  0  0  0  0  0  0  0  0  0  0  0
  145.0209  132.5351  149.8680 C   0  0  0  0  0  0  0  0  0  0  0  0
  144.4289  133.9054  150.2159 C   0  0  0  0  0  0  0  0  0  0  0  0
  150.3705  140.5983  154.5882 C   0  0  0  0  0  0  0  0  0  0  0  0
  150.8421  140.5606  156.0585 C   0  0  2  0  0  0  0  0  0  0  0  0
  151.0034  141.9668  156.6461 C   0  0  0  0  0  0  0  0  0  0  0  0
  152.1039  139.9050  156.1304 O   0  0  0  0  0  0  0  0  0  0  0  0
  153.4540  136.8951  155.5485 H   0  0  0  0  0  0  0  0  0  0  0  0
  153.7158  137.9498  156.9340 H   0  0  0  0  0  0  0  0  0  0  0  0
  154.2067  138.4737  155.3253 H   0  0  0  0  0  0  0  0  0  0  0  0
  151.3312  137.9991  156.2597 H   0  0  0  0  0  0  0  0  0  0  0  0
  152.3945  139.0886  153.5947 H   0  0  0  0  0  0  0  0  0  0  0  0
  151.6067  137.5440  153.7857 H   0  0  0  0  0  0  0  0  0  0  0  0
  149.2937  137.4054  153.9807 H   0  0  0  0  0  0  0  0  0  0  0  0
  149.1279  138.3046  155.4635 H   0  0  0  0  0  0  0  0  0  0  0  0
  147.2758  139.4922  154.6043 H   0  0  0  0  0  0  0  0  0  0  0  0
  148.0477  139.7116  153.0529 H   0  0  0  0  0  0  0  0  0  0  0  0
  147.4186  137.3867  152.4967 H   0  0  0  0  0  0  0  0  0  0  0  0
  145.8277  136.2834  152.1623 H   0  0  0  0  0  0  0  0  0  0  0  0
  143.0570  137.6010  154.2558 H   0  0  0  0  0  0  0  0  0  0  0  0
  140.8526  136.4766  154.3858 H   0  0  0  0  0  0  0  0  0  0  0  0
  140.5571  134.2647  153.2447 H   0  0  0  0  0  0  0  0  0  0  0  0
  146.0786  133.2227  152.9523 H   0  0  0  0  0  0  0  0  0  0  0  0
  144.6377  132.2501  152.6244 H   0  0  0  0  0  0  0  0  0  0  0  0
  146.9697  132.7855  150.7591 H   0  0  0  0  0  0  0  0  0  0  0  0
  146.2369  131.2237  151.1441 H   0  0  0  0  0  0  0  0  0  0  0  0
  145.4688  132.5064  148.8743 H   0  0  0  0  0  0  0  0  0  0  0  0
  144.2372  131.7773  149.9050 H   0  0  0  0  0  0  0  0  0  0  0  0
  143.3659  133.9528  149.9746 H   0  0  0  0  0  0  0  0  0  0  0  0
  144.9394  134.6843  149.6491 H   0  0  0  0  0  0  0  0  0  0  0  0
  151.0621  141.2071  154.0038 H   0  0  0  0  0  0  0  0  0  0  0  0
  149.3994  141.0856  154.5092 H   0  0  0  0  0  0  0  0  0  0  0  0
  150.1227  140.0190  156.6740 H   0  0  0  0  0  0  0  0  0  0  0  0
  150.0596  142.5124  156.6227 H   0  0  0  0  0  0  0  0  0  0  0  0
  151.7397  142.5470  156.0888 H   0  0  0  0  0  0  0  0  0  0  0  0
  151.3333  141.9196  157.6842 H   0  0  0  0  0  0  0  0  0  0  0  0
  150.2454  139.3694  152.9878 H   0  0  0  0  0  0  0  0  0  0  0  0
  1  2  1  0  0  0  0
  1 26  1  0  0  0  0
  1 27  1  0  0  0  0
  1 28  1  0  0  0  0
  2 25  1  0  0  0  0
  2  3  1  0  0  0  0
  2 29  1  0  0  0  0
  3  4  1  0  0  0  0
  3 30  1  0  0  0  0
  3 31  1  0  0  0  0
  4  5  1  0  0  0  0
  4 22  1  0  0  0  0
  4 55  1  0  0  0  0
  5  6  1  0  0  0  0
  5 32  1  0  0  0  0
  5 33  1  0  0  0  0
  6  7  1  0  0  0  0
  6 34  1  0  0  0  0
  6 35  1  0  0  0  0
  7  8  1  0  0  0  0
  7 36  1  0  0  0  0
  8  9  2  0  0  0  0
  8 10  1  0  0  0  0
 10 11  1  0  0  0  0
 10 37  1  0  0  0  0
 11 16  1  0  0  0  0
 11 12  2  0  0  0  0
 12 13  1  0  0  0  0
 12 38  1  0  0  0  0
 13 14  2  0  0  0  0
 13 39  1  0  0  0  0
 14 15  1  0  0  0  0
 14 40  1  0  0  0  0
 15 16  2  0  0  0  0
 16 17  1  0  0  0  0
 17 21  1  0  0  0  0
 17 18  1  0  0  0  0
 18 19  1  0  0  0  0
 18 41  1  0  0  0  0
 18 42  1  0  0  0  0
 19 20  1  0  0  0  0
 19 43  1  0  0  0  0
 19 44  1  0  0  0  0
 20 21  1  0  0  0  0
 20 45  1  0  0  0  0
 20 46  1  0  0  0  0
 21 47  1  0  0  0  0
 21 48  1  0  0  0  0
 22 23  1  0  0  0  0
 22 49  1  0  0  0  0
 22 50  1  0  0  0  0
 23 24  1  0  0  0  0
 23 25  1  0  0  0  0
 23 51  1  0  0  0  0
 24 52  1  0  0  0  0
 24 53  1  0  0  0  0
 24 54  1  0  0  0  0
M  CHG  1   4   1
M  END
> <s_m_source_file>
AV-unprocessed.smi

> <i_m_source_file_index>
1244

> <i_lp_mmshare_version>
43012

> <i_f3d_flags>
0

> <s_epik_input>
W0NIM11bQ0BASF0xW0NIMl1OKFtDSDJdW0NASF0oTzEpW0NIM10pW0NIMl1bQ0gyXVtOSF1DKD1PKVtOSF1jMltjSF1bY0hdW2NIXW5jMk4zW0NIMl1bQ0gyXVtDSDJdW0NIMl0z

> <s_epik_cmdline>
J2VwaWtfcHl0aG9uJywgJy1waCcsICc3LjAnLCAnLXRuJywgJzgnLCAnLW1hJywgJzIwMCcsICctbWV0YWxfYmluZGluZycsICctaW1hZScsICc8aW5maWxlLm1hZT4nLCAnLW9tYWUnLCAnPG91dGZpbGUubWFlPic=

> <r_lp_tautomer_probability>
1

> <r_epik_Ionization_Penalty>
0.684913

> <r_epik_Ionization_Penalty_Charging>
0.602531

> <r_epik_Ionization_Penalty_Neutral>
0.0823829

> <r_epik_State_Penalty>
0.678827

> <r_epik_Charging_Adjusted_Penalty>
1.28136

> <i_epik_Tot_Q>
1

> <i_epik_Tot_abs_Q>
1

> <r_epik_Metal_State_Penalty>
0.67806

> <b_epik_Metal_Only>
0

> <s_lp_Force_Field>
OPLS_2005

> <r_lp_Energy>
44.826

> <b_lp_Chiralities_Consistent>
1

> <s_lp_Variant>
AV-unprocessed.smi:1244-6

> <Gold.Version>
5.8.1

> <Gold.Id.Protein>
6NUR|6NUR_protein|mol2

> <Gold.PLP.Fitness>
42.2840

> <Gold.PLP.PLP>
-36.0371

> <Gold.PLP.part.hbond>
-2.3303

> <Gold.PLP.part.metal>
0.0000

> <Gold.PLP.part.buried>
-1.8335

> <Gold.PLP.part.nonpolar>
-31.5352

> <Gold.PLP.part.repulsive>
1.0551

> <Gold.PLP.ligand.clash>
0.0000

> <Gold.PLP.ligand.torsion>
0.6192

> <Gold.PLP.Chemscore.Hbond>
2.3768

> <Gold.PLP.Chemscore.CHOScore>
0.0000

> <Gold.PLP.Chemscore.Metal>
0.0000

> <Gold.Chemscore.Hbonds>
donor molecule, donor type, donor heavy atom, donor atom, acceptor molecule, acceptor atom, score
      L1  H     4    55       P1  7957  0.99
      L1  H     7    36       P1  7948  0.96
      P1  H  7997  8008       L1    25  0.43

> <Gold.PLP.Chemscore.Internal.Correction>
0.3550

> <Gold.Rescore>
     Score         DG    S(hbond)    S(metal)    S(lipo)     H(rot)  DE(clash)    DE(int)     intcor
     15.92     -19.67       1.73        0.00     106.92       1.60       1.83       1.93       ----

> <Gold.Chemscore.Fitness>
15.9161

> <Gold.Chemscore.DG>
-19.6748

> <Gold.Chemscore.ZeroCoef>
-5.4800

> <Gold.Chemscore.Hbond>
1.7292

> <Gold.Chemscore.Metal>
0.0000

> <Gold.Chemscore.Lipo>
106.9216

> <Gold.Chemscore.Internal_Hbond>
0.0000

> <Gold.Chemscore.DEClash>
1.8320

> <Gold.Chemscore.DEInternal>
1.9268

> <Gold.Chemscore.Rot>
1.5978

> <Gold.Chemscore.Internal.Correction>
   9.000000E+99

> <Gold.Chemscore.Hbonds>
donor molecule, donor type, donor heavy atom, donor atom, acceptor molecule, acceptor atom, score
      L1  H     4    55       P1  7957  0.84
      L1  H     7    36       P1  7948  0.88
      P1  H  7997  8008       L1    25  0.10

> <Gold.Chemscore.Hbond.Weighted>
-5.7755

> <Gold.Chemscore.Metal.Weighted>
-0.0000

> <Gold.Chemscore.Lipo.Weighted>
-12.5098

> <Gold.Chemscore.Internal_Hbond.Weighted>
0.0000

> <Gold.Chemscore.DEClash.Weighted>
1.8320

> <Gold.Chemscore.DEInternal.Weighted>
1.9268

> <Gold.Chemscore.Rot.Weighted>
4.0905

> <Gold.Chemscore.Internal.Correction.Weighted>
   9.000000E+99

> <Gold.Protein.RotatedTorsions>
[ 6907 6896 6895 6894 ] final  -58.70 input  -60.11 | X-H torsion
[ 7974 7965 7964 7962 ] final   94.73 input  175.53 | X-H torsion
[ 8008 7997 7996 7995 ] final  -39.77 input   59.86 | X-H torsion
[ 10167 10162 10161 10158 ] final  145.04 input  -65.29 | X-H torsion
[ 10718 10713 10712 10709 ] final   43.80 input   66.30 | X-H torsion
[ 10763 10752 10751 10750 ] final -144.68 input  -60.55 | X-H torsion
[ 11005 11000 10999 10996 ] final -109.53 input  -57.11 | X-H torsion

> <Gold.Protein.ActiveResidues>
 VAL166  LYS551  ARG553  GLY616  TRP617  ASP618  TYR619  PRO620  LYS621  CYS622 
 ASP623  PHE694  ASN695  SER759  ASP760  ASP761  ALA762  ILE779  LEU786  VAL792 
 PHE793  MET794  SER795  GLU796  ALA797  LYS798  CYS799  TRP800  GLU811  SER814 

> <Gold.Protein.RotatedAtoms>
  150.7987  134.7065  159.6579 H   0  0  0  0  0  0  0  0  0  0  0  0  # atno 6907 bound_to 6896
  152.4102  134.6135  160.0041 H   0  0  0  0  0  0  0  0  0  0  0  0  # atno 6908 bound_to 6896
  151.6380  133.3291  159.3160 H   0  0  0  0  0  0  0  0  0  0  0  0  # atno 6909 bound_to 6896
  145.4617  139.2286  143.2984 H   0  0  0  0  0  0  0  0  0  0  0  0  # atno 7974 bound_to 7965
  154.4019  140.1543  156.2918 H   0  0  0  0  0  0  0  0  0  0  0  0  # atno 8008 bound_to 7997
  155.8778  140.3445  155.5845 H   0  0  0  0  0  0  0  0  0  0  0  0  # atno 8009 bound_to 7997
  155.7701  140.0829  157.2103 H   0  0  0  0  0  0  0  0  0  0  0  0  # atno 8010 bound_to 7997
  139.4934  144.5930  151.6642 H   0  0  0  0  0  0  0  0  0  0  0  0  # atno 10167 bound_to 10162
  157.4198  130.7963  149.7505 H   0  0  0  0  0  0  0  0  0  0  0  0  # atno 10718 bound_to 10713
  154.8417  135.3433  154.6385 H   0  0  0  0  0  0  0  0  0  0  0  0  # atno 10763 bound_to 10752
  153.6995  135.6970  153.5071 H   0  0  0  0  0  0  0  0  0  0  0  0  # atno 10764 bound_to 10752
  153.2533  135.4346  155.0775 H   0  0  0  0  0  0  0  0  0  0  0  0  # atno 10765 bound_to 10752
  141.0842  133.9167  157.2221 H   0  0  0  0  0  0  0  0  0  0  0  0  # atno 11005 bound_to 11000
  146.2447  140.5386  142.8919 LP  0  0  0  0  0  0  0  0  0  0  0  0  # atno 17320 bound_to 7965
  144.7999  140.6193  143.6485 LP  0  0  0  0  0  0  0  0  0  0  0  0  # atno 17321 bound_to 7965
  140.5561  144.0345  150.6148 LP  0  0  0  0  0  0  0  0  0  0  0  0  # atno 17342 bound_to 10162
  140.3416  143.3016  152.0582 LP  0  0  0  0  0  0  0  0  0  0  0  0  # atno 17343 bound_to 10162
  155.9877  130.3965  150.3153 LP  0  0  0  0  0  0  0  0  0  0  0  0  # atno 17370 bound_to 10713
  157.1299  131.0269  151.2973 LP  0  0  0  0  0  0  0  0  0  0  0  0  # atno 17371 bound_to 10713
  139.9659  135.0142  156.9385 LP  0  0  0  0  0  0  0  0  0  0  0  0  # atno 17394 bound_to 11000
  140.5399  134.0730  155.7338 LP  0  0  0  0  0  0  0  0  0  0  0  0  # atno 17395 bound_to 11000

$$$$
