AV-unprocessed.smi:746|AV-procd|sdf|3578|dock4
  -GOLD-   22720 0573D 1   1.00000     0.00000
 Structure written by MMmdl.
 48 50  0  0  0  0  0  0  0  0  1 V2000
  144.3204  135.8936  151.6837 C   0  0  0  0  0  0  0  0  0  0  0  0
  145.5954  135.8580  152.3005 O   0  0  0  0  0  0  0  0  0  0  0  0
  145.9776  137.1171  152.8286 C   0  0  0  0  0  0  0  0  0  0  0  0
  146.4152  138.0343  151.6831 C   0  0  0  0  0  0  0  0  0  0  0  0
  146.4617  139.3763  152.1594 O   0  0  0  0  0  0  0  0  0  0  0  0
  147.3692  139.6922  153.1496 C   0  0  0  0  0  0  0  0  0  0  0  0
  147.4195  141.0198  153.6186 C   0  0  0  0  0  0  0  0  0  0  0  0
  148.3336  141.3444  154.6384 C   0  0  0  0  0  0  0  0  0  0  0  0
  149.1620  140.3338  155.1658 C   0  0  0  0  0  0  0  0  0  0  0  0
  150.0834  140.6891  156.1869 N   0  0  0  0  0  0  0  0  0  0  0  0
  149.9234  141.5710  157.1952 C   0  0  0  0  0  0  0  0  0  0  0  0
  148.9046  142.2512  157.3276 O   0  0  0  0  0  0  0  0  0  0  0  0
  151.0092  141.7060  158.0080 N   0  0  0  0  0  0  0  0  0  0  0  0
  152.1408  140.7465  158.0120 C   0  0  0  0  0  0  0  0  0  0  0  0
  152.8568  140.6224  159.3623 C   0  0  0  0  0  0  0  0  0  0  0  0
  153.2733  141.9906  159.8815 C   0  0  0  0  0  0  0  0  0  0  0  0
  152.0234  142.8466  160.0971 C   0  0  1  0  0  0  0  0  0  0  0  0
  152.3731  144.3128  160.4159 C   0  0  0  0  0  0  0  0  0  0  0  0
  152.0187  145.1403  159.1691 C   0  0  0  0  0  0  0  0  0  0  0  0
  151.6592  144.1321  158.0762 C   0  0  0  0  0  0  0  0  0  0  0  0
  151.1236  142.9241  158.8491 C   0  0  1  0  0  0  0  0  0  0  0  0
  149.0511  139.0347  154.6138 C   0  0  0  0  0  0  0  0  0  0  0  0
  148.1775  138.7175  153.6347 N   0  0  0  0  0  0  0  0  0  0  0  0
  144.0726  134.9052  151.2971 H   0  0  0  0  0  0  0  0  0  0  0  0
  144.3067  136.5945  150.8480 H   0  0  0  0  0  0  0  0  0  0  0  0
  143.5450  136.1813  152.3949 H   0  0  0  0  0  0  0  0  0  0  0  0
  145.1596  137.5718  153.3898 H   0  0  0  0  0  0  0  0  0  0  0  0
  146.8104  136.9772  153.5193 H   0  0  0  0  0  0  0  0  0  0  0  0
  147.4090  137.7323  151.3485 H   0  0  0  0  0  0  0  0  0  0  0  0
  145.7320  137.9378  150.8376 H   0  0  0  0  0  0  0  0  0  0  0  0
  146.7666  141.7746  153.2056 H   0  0  0  0  0  0  0  0  0  0  0  0
  148.3891  142.3555  155.0147 H   0  0  0  0  0  0  0  0  0  0  0  0
  151.0003  140.2738  156.1087 H   0  0  0  0  0  0  0  0  0  0  0  0
  151.8271  139.7378  157.7395 H   0  0  0  0  0  0  0  0  0  0  0  0
  152.8528  141.0660  157.2498 H   0  0  0  0  0  0  0  0  0  0  0  0
  152.2033  140.1339  160.0863 H   0  0  0  0  0  0  0  0  0  0  0  0
  153.7340  139.9836  159.2560 H   0  0  0  0  0  0  0  0  0  0  0  0
  153.8239  141.8869  160.8169 H   0  0  0  0  0  0  0  0  0  0  0  0
  153.9480  142.4662  159.1686 H   0  0  0  0  0  0  0  0  0  0  0  0
  151.4568  142.4144  160.9234 H   0  0  0  0  0  0  0  0  0  0  0  0
  151.7967  144.6664  161.2717 H   0  0  0  0  0  0  0  0  0  0  0  0
  153.4262  144.4270  160.6766 H   0  0  0  0  0  0  0  0  0  0  0  0
  151.1545  145.7702  159.3840 H   0  0  0  0  0  0  0  0  0  0  0  0
  152.8333  145.7972  158.8635 H   0  0  0  0  0  0  0  0  0  0  0  0
  150.9357  144.5335  157.3659 H   0  0  0  0  0  0  0  0  0  0  0  0
  152.5550  143.8551  157.5185 H   0  0  0  0  0  0  0  0  0  0  0  0
  150.1345  143.1905  159.2290 H   0  0  0  0  0  0  0  0  0  0  0  0
  149.6814  138.2213  154.9381 H   0  0  0  0  0  0  0  0  0  0  0  0
  1  2  1  0  0  0  0
  1 24  1  0  0  0  0
  1 25  1  0  0  0  0
  1 26  1  0  0  0  0
  2  3  1  0  0  0  0
  3  4  1  0  0  0  0
  3 27  1  0  0  0  0
  3 28  1  0  0  0  0
  4  5  1  0  0  0  0
  4 29  1  0  0  0  0
  4 30  1  0  0  0  0
  5  6  1  0  0  0  0
  6 23  1  0  0  0  0
  6  7  2  0  0  0  0
  7  8  1  0  0  0  0
  7 31  1  0  0  0  0
  8  9  2  0  0  0  0
  8 32  1  0  0  0  0
  9 10  1  0  0  0  0
  9 22  1  0  0  0  0
 10 11  1  0  0  0  0
 10 33  1  0  0  0  0
 11 12  2  0  0  0  0
 11 13  1  0  0  0  0
 13 21  1  0  0  0  0
 13 14  1  0  0  0  0
 14 15  1  0  0  0  0
 14 34  1  0  0  0  0
 14 35  1  0  0  0  0
 15 16  1  0  0  0  0
 15 36  1  0  0  0  0
 15 37  1  0  0  0  0
 16 17  1  0  0  0  0
 16 38  1  0  0  0  0
 16 39  1  0  0  0  0
 17 21  1  0  0  0  0
 17 18  1  0  0  0  0
 17 40  1  0  0  0  0
 18 19  1  0  0  0  0
 18 41  1  0  0  0  0
 18 42  1  0  0  0  0
 19 20  1  0  0  0  0
 19 43  1  0  0  0  0
 19 44  1  0  0  0  0
 20 21  1  0  0  0  0
 20 45  1  0  0  0  0
 20 46  1  0  0  0  0
 21 47  1  0  0  0  0
 22 23  2  0  0  0  0
 22 48  1  0  0  0  0
M  END
> <s_m_source_file>
AV-unprocessed.smi

> <i_m_source_file_index>
746

> <i_lp_mmshare_version>
43012

> <i_f3d_flags>
0

> <s_epik_input>
W0NIM11PW0NIMl1bQ0gyXU9jMVtjSF1bY0hdYyhbY0hdbjEpW05IXUMoPU8pTihbQ0gyXVtDSDJdW0NIMl0yKVtDQEhdKFtDQEBIXTIzKVtDSDJdW0NIMl1bQ0gyXTM=

> <s_epik_cmdline>
J2VwaWtfcHl0aG9uJywgJy1waCcsICc3LjAnLCAnLXRuJywgJzgnLCAnLW1hJywgJzIwMCcsICctbWV0YWxfYmluZGluZycsICctaW1hZScsICc8aW5maWxlLm1hZT4nLCAnLW9tYWUnLCAnPG91dGZpbGUubWFlPic=

> <r_lp_tautomer_probability>
1

> <r_epik_Ionization_Penalty>
8.29966e-05

> <r_epik_Ionization_Penalty_Charging>
0

> <r_epik_Ionization_Penalty_Neutral>
8.29966e-05

> <r_epik_State_Penalty>
-0

> <r_epik_Charging_Adjusted_Penalty>
0

> <i_epik_Tot_Q>
0

> <i_epik_Tot_abs_Q>
0

> <r_epik_Metal_State_Penalty>
-0

> <b_epik_Metal_Only>
0

> <s_lp_Force_Field>
OPLS_2005

> <r_lp_Energy>
59.487

> <b_lp_Chiralities_Consistent>
1

> <s_lp_Variant>
AV-unprocessed.smi:746-3

> <Gold.Version>
5.8.1

> <Gold.Id.Protein>
6NUR|6NUR_protein|mol2

> <Gold.PLP.Fitness>
42.8771

> <Gold.PLP.PLP>
-43.6382

> <Gold.PLP.part.hbond>
0.0000

> <Gold.PLP.part.metal>
0.0000

> <Gold.PLP.part.buried>
-3.7923

> <Gold.PLP.part.nonpolar>
-43.2116

> <Gold.PLP.part.repulsive>
3.3991

> <Gold.PLP.ligand.clash>
0.0000

> <Gold.PLP.ligand.torsion>
0.4859

> <Gold.PLP.Chemscore.Hbond>
0.0000

> <Gold.PLP.Chemscore.CHOScore>
0.0000

> <Gold.PLP.Chemscore.Metal>
0.0000

> <Gold.PLP.Chemscore.Internal.Correction>
0.2107

> <Gold.Rescore>
     Score         DG    S(hbond)    S(metal)    S(lipo)     H(rot)  DE(clash)    DE(int)     intcor
     13.18     -16.57       0.00        0.00     128.02       1.52       1.62       1.78       ----

> <Gold.Chemscore.Fitness>
13.1823

> <Gold.Chemscore.DG>
-16.5748

> <Gold.Chemscore.ZeroCoef>
-5.4800

> <Gold.Chemscore.Hbond>
0.0000

> <Gold.Chemscore.Metal>
0.0000

> <Gold.Chemscore.Lipo>
128.0248

> <Gold.Chemscore.Internal_Hbond>
0.0000

> <Gold.Chemscore.DEClash>
1.6152

> <Gold.Chemscore.DEInternal>
1.7773

> <Gold.Chemscore.Rot>
1.5172

> <Gold.Chemscore.Internal.Correction>
   9.000000E+99

> <Gold.Chemscore.Hbond.Weighted>
-0.0000

> <Gold.Chemscore.Metal.Weighted>
-0.0000

> <Gold.Chemscore.Lipo.Weighted>
-14.9789

> <Gold.Chemscore.Internal_Hbond.Weighted>
0.0000

> <Gold.Chemscore.DEClash.Weighted>
1.6152

> <Gold.Chemscore.DEInternal.Weighted>
1.7773

> <Gold.Chemscore.Rot.Weighted>
3.8841

> <Gold.Chemscore.Internal.Correction.Weighted>
   9.000000E+99

> <Gold.Protein.RotatedTorsions>
[ 6907 6896 6895 6894 ] final   70.51 input  -60.11 | X-H torsion
[ 7974 7965 7964 7962 ] final   52.73 input  175.53 | X-H torsion
[ 8008 7997 7996 7995 ] final   54.05 input   59.86 | X-H torsion
[ 10167 10162 10161 10158 ] final -116.60 input  -65.29 | X-H torsion
[ 10718 10713 10712 10709 ] final   -9.50 input   66.30 | X-H torsion
[ 10763 10752 10751 10750 ] final  179.55 input  -60.55 | X-H torsion
[ 11005 11000 10999 10996 ] final  -73.49 input  -57.11 | X-H torsion

> <Gold.Protein.ActiveResidues>
 VAL166  LYS551  ARG553  GLY616  TRP617  ASP618  TYR619  PRO620  LYS621  CYS622 
 ASP623  PHE694  ASN695  SER759  ASP760  ASP761  ALA762  ILE779  LEU786  VAL792 
 PHE793  MET794  SER795  GLU796  ALA797  LYS798  CYS799  TRP800  GLU811  SER814 

> <Gold.Protein.RotatedAtoms>
  152.4754  134.4857  159.9679 H   0  0  0  0  0  0  0  0  0  0  0  0  # atno 6907 bound_to 6896
  151.4874  133.3526  159.2856 H   0  0  0  0  0  0  0  0  0  0  0  0  # atno 6908 bound_to 6896
  150.8789  134.8204  159.7272 H   0  0  0  0  0  0  0  0  0  0  0  0  # atno 6909 bound_to 6896
  145.9784  139.4218  143.0147 H   0  0  0  0  0  0  0  0  0  0  0  0  # atno 7974 bound_to 7965
  155.4783  140.3467  155.4336 H   0  0  0  0  0  0  0  0  0  0  0  0  # atno 8008 bound_to 7997
  156.1056  140.1447  156.9438 H   0  0  0  0  0  0  0  0  0  0  0  0  # atno 8009 bound_to 7997
  154.4722  140.0897  156.7151 H   0  0  0  0  0  0  0  0  0  0  0  0  # atno 8010 bound_to 7997
  140.0775  143.4819  152.1945 H   0  0  0  0  0  0  0  0  0  0  0  0  # atno 10167 bound_to 10162
  156.6872  130.5054  149.5954 H   0  0  0  0  0  0  0  0  0  0  0  0  # atno 10718 bound_to 10713
  154.5221  135.2794  155.1253 H   0  0  0  0  0  0  0  0  0  0  0  0  # atno 10763 bound_to 10752
  154.2806  135.6286  153.5349 H   0  0  0  0  0  0  0  0  0  0  0  0  # atno 10764 bound_to 10752
  152.9939  135.5650  154.5713 H   0  0  0  0  0  0  0  0  0  0  0  0  # atno 10765 bound_to 10752
  141.1623  133.6880  156.7220 H   0  0  0  0  0  0  0  0  0  0  0  0  # atno 11005 bound_to 11000
  145.7805  140.9858  143.1101 LP  0  0  0  0  0  0  0  0  0  0  0  0  # atno 17320 bound_to 7965
  144.6855  139.9559  143.7479 LP  0  0  0  0  0  0  0  0  0  0  0  0  # atno 17321 bound_to 7965
  139.5799  144.7505  151.3667 LP  0  0  0  0  0  0  0  0  0  0  0  0  # atno 17342 bound_to 10162
  140.7095  143.7428  150.7540 LP  0  0  0  0  0  0  0  0  0  0  0  0  # atno 17343 bound_to 10162
  156.1824  130.6507  151.0967 LP  0  0  0  0  0  0  0  0  0  0  0  0  # atno 17370 bound_to 10713
  157.7022  131.0771  150.6783 LP  0  0  0  0  0  0  0  0  0  0  0  0  # atno 17371 bound_to 10713
  140.2809  134.8317  157.3932 LP  0  0  0  0  0  0  0  0  0  0  0  0  # atno 17394 bound_to 11000
  140.1434  134.4942  155.8014 LP  0  0  0  0  0  0  0  0  0  0  0  0  # atno 17395 bound_to 11000

$$$$
