AV-unprocessed.smi:2785|AV-procd|sdf|10746|dock7
  -GOLD-   2272015183D 1   1.00000     0.00000
 Structure written by MMmdl.
 37 38  0  0  0  0  0  0  0  0  1 V2000
  142.6282  144.5052  155.9397 C   0  0  0  0  0  0  0  0  0  0  0  0
  143.9580  144.9550  155.3145 C   0  0  0  0  0  0  0  0  0  0  0  0
  143.7612  145.5167  153.8948 C   0  0  0  0  0  0  0  0  0  0  0  0
  144.9378  143.8606  155.3620 N   0  0  0  0  0  0  0  0  0  0  0  0
  145.4910  143.2555  154.1612 C   0  0  0  0  0  0  0  0  0  0  0  0
  146.2516  142.0209  154.6549 C   0  0  0  0  0  0  0  0  0  0  0  0
  146.4157  142.1793  156.1754 C   0  0  1  0  0  0  0  0  0  0  0  0
  147.7825  142.5905  156.4890 N   0  0  0  0  0  0  0  0  0  0  0  0
  148.6096  141.9493  157.3279 C   0  0  0  0  0  0  0  0  0  0  0  0
  148.3075  140.9118  157.9181 O   0  0  0  0  0  0  0  0  0  0  0  0
  149.7884  142.5881  157.4305 N   0  0  0  0  0  0  0  0  0  0  0  0
  150.9106  142.2375  158.2276 C   0  0  0  0  0  0  0  0  0  0  0  0
  151.7923  143.3025  158.5211 C   0  0  0  0  0  0  0  0  0  0  0  0
  152.9358  143.0596  159.3068 C   0  0  0  0  0  0  0  0  0  0  0  0
  153.1666  141.7553  159.7788 C   0  0  0  0  0  0  0  0  0  0  0  0
  154.2520  141.4735  160.5378 F   0  0  0  0  0  0  0  0  0  0  0  0
  152.2405  140.7510  159.4418 C   0  0  0  0  0  0  0  0  0  0  0  0
  151.1443  140.9828  158.6884 N   0  0  0  0  0  0  0  0  0  0  0  0
  145.4436  143.3182  156.4784 C   0  0  0  0  0  0  0  0  0  0  0  0
  145.1646  143.6564  157.6285 O   0  0  0  0  0  0  0  0  0  0  0  0
  141.9067  145.3224  155.9547 H   0  0  0  0  0  0  0  0  0  0  0  0
  142.7663  144.1717  156.9688 H   0  0  0  0  0  0  0  0  0  0  0  0
  142.1858  143.6809  155.3791 H   0  0  0  0  0  0  0  0  0  0  0  0
  144.3454  145.7764  155.9200 H   0  0  0  0  0  0  0  0  0  0  0  0
  143.0996  146.3832  153.9108 H   0  0  0  0  0  0  0  0  0  0  0  0
  143.3161  144.7813  153.2241 H   0  0  0  0  0  0  0  0  0  0  0  0
  144.7087  145.8395  153.4628 H   0  0  0  0  0  0  0  0  0  0  0  0
  144.7098  142.9873  153.4488 H   0  0  0  0  0  0  0  0  0  0  0  0
  146.1733  143.9567  153.6788 H   0  0  0  0  0  0  0  0  0  0  0  0
  145.6558  141.1296  154.4528 H   0  0  0  0  0  0  0  0  0  0  0  0
  147.1995  141.8900  154.1307 H   0  0  0  0  0  0  0  0  0  0  0  0
  146.1338  141.2663  156.7029 H   0  0  0  0  0  0  0  0  0  0  0  0
  148.1131  143.4362  156.0485 H   0  0  0  0  0  0  0  0  0  0  0  0
  149.8927  143.4277  156.8805 H   0  0  0  0  0  0  0  0  0  0  0  0
  151.5983  144.2987  158.1502 H   0  0  0  0  0  0  0  0  0  0  0  0
  153.6221  143.8596  159.5425 H   0  0  0  0  0  0  0  0  0  0  0  0
  152.3819  139.7368  159.7845 H   0  0  0  0  0  0  0  0  0  0  0  0
  1  2  1  0  0  0  0
  1 21  1  0  0  0  0
  1 22  1  0  0  0  0
  1 23  1  0  0  0  0
  2  3  1  0  0  0  0
  2  4  1  0  0  0  0
  2 24  1  0  0  0  0
  3 25  1  0  0  0  0
  3 26  1  0  0  0  0
  3 27  1  0  0  0  0
  4 19  1  0  0  0  0
  4  5  1  0  0  0  0
  5  6  1  0  0  0  0
  5 28  1  0  0  0  0
  5 29  1  0  0  0  0
  6  7  1  0  0  0  0
  6 30  1  0  0  0  0
  6 31  1  0  0  0  0
  7  8  1  0  0  0  0
  7 19  1  0  0  0  0
  7 32  1  0  0  0  0
  8  9  1  0  0  0  0
  8 33  1  0  0  0  0
  9 10  2  0  0  0  0
  9 11  1  0  0  0  0
 11 12  1  0  0  0  0
 11 34  1  0  0  0  0
 12 18  1  0  0  0  0
 12 13  2  0  0  0  0
 13 14  1  0  0  0  0
 13 35  1  0  0  0  0
 14 15  2  0  0  0  0
 14 36  1  0  0  0  0
 15 16  1  0  0  0  0
 15 17  1  0  0  0  0
 17 18  2  0  0  0  0
 17 37  1  0  0  0  0
 19 20  2  0  0  0  0
M  END
> <s_m_source_file>
AV-unprocessed.smi

> <i_m_source_file_index>
2785

> <i_lp_mmshare_version>
43012

> <i_f3d_flags>
0

> <s_epik_input>
W0NIM11bQ0hdKFtDSDNdKU4xW0NIMl1bQ0gyXVtDQEhdKEMxPU8pW05IXUMoPU8pW05IXWMyW2NIXVtjSF1jKEYpW2NIXW4y

> <s_epik_cmdline>
J2VwaWtfcHl0aG9uJywgJy1waCcsICc3LjAnLCAnLXRuJywgJzgnLCAnLW1hJywgJzIwMCcsICctbWV0YWxfYmluZGluZycsICctaW1hZScsICc8aW5maWxlLm1hZT4nLCAnLW9tYWUnLCAnPG91dGZpbGUubWFlPic=

> <r_lp_tautomer_probability>
1

> <r_epik_Ionization_Penalty>
3.20266e-05

> <r_epik_Ionization_Penalty_Charging>
0

> <r_epik_Ionization_Penalty_Neutral>
3.20266e-05

> <r_epik_State_Penalty>
-0

> <r_epik_Charging_Adjusted_Penalty>
0

> <i_epik_Tot_Q>
0

> <i_epik_Tot_abs_Q>
0

> <r_epik_Metal_State_Penalty>
-0

> <b_epik_Metal_Only>
0

> <s_lp_Force_Field>
OPLS_2005

> <r_lp_Energy>
23.6271

> <b_lp_Chiralities_Consistent>
1

> <s_lp_Variant>
AV-unprocessed.smi:2785-1

> <Gold.Version>
5.8.1

> <Gold.Id.Protein>
6NUR|6NUR_protein|mol2

> <Gold.PLP.Fitness>
41.8903

> <Gold.PLP.PLP>
-36.6730

> <Gold.PLP.part.hbond>
-2.0116

> <Gold.PLP.part.metal>
0.0000

> <Gold.PLP.part.buried>
-4.0029

> <Gold.PLP.part.nonpolar>
-30.6935

> <Gold.PLP.part.repulsive>
0.1839

> <Gold.PLP.ligand.clash>
0.0000

> <Gold.PLP.ligand.torsion>
0.2230

> <Gold.PLP.Chemscore.Hbond>
1.8636

> <Gold.PLP.Chemscore.CHOScore>
0.0000

> <Gold.PLP.Chemscore.Metal>
0.0000

> <Gold.Chemscore.Hbonds>
donor molecule, donor type, donor heavy atom, donor atom, acceptor molecule, acceptor atom, score
      L1  H     8    33       P1  8028  0.99
      L1  H    11    34       P1  8028  0.87

> <Gold.PLP.Chemscore.Internal.Correction>
0.0726

> <Gold.Rescore>
     Score         DG    S(hbond)    S(metal)    S(lipo)     H(rot)  DE(clash)    DE(int)     intcor
     13.75     -15.17       1.36        0.00      72.13       1.29       0.01       1.42       ----

> <Gold.Chemscore.Fitness>
13.7485

> <Gold.Chemscore.DG>
-15.1725

> <Gold.Chemscore.ZeroCoef>
-5.4800

> <Gold.Chemscore.Hbond>
1.3620

> <Gold.Chemscore.Metal>
0.0000

> <Gold.Chemscore.Lipo>
72.1320

> <Gold.Chemscore.Internal_Hbond>
0.0000

> <Gold.Chemscore.DEClash>
0.0075

> <Gold.Chemscore.DEInternal>
1.4165

> <Gold.Chemscore.Rot>
1.2875

> <Gold.Chemscore.Internal.Correction>
   9.000000E+99

> <Gold.Chemscore.Hbonds>
donor molecule, donor type, donor heavy atom, donor atom, acceptor molecule, acceptor atom, score
      L1  H     8    33       P1  8028  0.32
      L1  H    11    34       P1  8028  0.80

> <Gold.Chemscore.Hbond.Weighted>
-4.5489

> <Gold.Chemscore.Metal.Weighted>
-0.0000

> <Gold.Chemscore.Lipo.Weighted>
-8.4394

> <Gold.Chemscore.Internal_Hbond.Weighted>
0.0000

> <Gold.Chemscore.DEClash.Weighted>
0.0075

> <Gold.Chemscore.DEInternal.Weighted>
1.4165

> <Gold.Chemscore.Rot.Weighted>
3.2959

> <Gold.Chemscore.Internal.Correction.Weighted>
   9.000000E+99

> <Gold.Protein.RotatedTorsions>
[ 6907 6896 6895 6894 ] final   58.09 input  -60.11 | X-H torsion
[ 7974 7965 7964 7962 ] final -104.41 input  175.53 | X-H torsion
[ 8008 7997 7996 7995 ] final -171.11 input   59.86 | X-H torsion
[ 10167 10162 10161 10158 ] final   97.87 input  -65.29 | X-H torsion
[ 10718 10713 10712 10709 ] final  -37.84 input   66.30 | X-H torsion
[ 10763 10752 10751 10750 ] final -141.39 input  -60.55 | X-H torsion
[ 11005 11000 10999 10996 ] final  -58.60 input  -57.11 | X-H torsion

> <Gold.Protein.ActiveResidues>
 VAL166  LYS551  ARG553  GLY616  TRP617  ASP618  TYR619  PRO620  LYS621  CYS622 
 ASP623  PHE694  ASN695  SER759  ASP760  ASP761  ALA762  ILE779  LEU786  VAL792 
 PHE793  MET794  SER795  GLU796  ALA797  LYS798  CYS799  TRP800  GLU811  SER814 

> <Gold.Protein.RotatedAtoms>
  152.3792  134.6616  160.0148 H   0  0  0  0  0  0  0  0  0  0  0  0  # atno 6907 bound_to 6896
  151.6885  133.3306  159.3245 H   0  0  0  0  0  0  0  0  0  0  0  0  # atno 6908 bound_to 6896
  150.7734  134.6655  159.6407 H   0  0  0  0  0  0  0  0  0  0  0  0  # atno 6909 bound_to 6896
  145.2434  140.9213  143.3136 H   0  0  0  0  0  0  0  0  0  0  0  0  # atno 7974 bound_to 7965
  155.9273  140.1085  157.1160 H   0  0  0  0  0  0  0  0  0  0  0  0  # atno 8008 bound_to 7997
  154.4064  140.1244  156.4822 H   0  0  0  0  0  0  0  0  0  0  0  0  # atno 8009 bound_to 7997
  155.7123  140.3471  155.4981 H   0  0  0  0  0  0  0  0  0  0  0  0  # atno 8010 bound_to 7997
  139.7761  144.6905  151.0088 H   0  0  0  0  0  0  0  0  0  0  0  0  # atno 10167 bound_to 10162
  156.3106  130.4252  149.8054 H   0  0  0  0  0  0  0  0  0  0  0  0  # atno 10718 bound_to 10713
  154.8547  135.3526  154.5860 H   0  0  0  0  0  0  0  0  0  0  0  0  # atno 10763 bound_to 10752
  153.6470  135.6996  153.5226 H   0  0  0  0  0  0  0  0  0  0  0  0  # atno 10764 bound_to 10752
  153.2925  135.4230  155.1138 H   0  0  0  0  0  0  0  0  0  0  0  0  # atno 10765 bound_to 10752
  141.1214  133.6613  156.4945 H   0  0  0  0  0  0  0  0  0  0  0  0  # atno 11005 bound_to 11000
  144.9568  139.4023  143.6375 LP  0  0  0  0  0  0  0  0  0  0  0  0  # atno 17320 bound_to 7965
  146.3322  139.8602  142.8857 LP  0  0  0  0  0  0  0  0  0  0  0  0  # atno 17321 bound_to 7965
  140.7816  143.4534  151.0380 LP  0  0  0  0  0  0  0  0  0  0  0  0  # atno 17342 bound_to 10162
  139.8217  143.7812  152.3177 LP  0  0  0  0  0  0  0  0  0  0  0  0  # atno 17343 bound_to 10162
  156.5399  130.8295  151.3265 LP  0  0  0  0  0  0  0  0  0  0  0  0  # atno 17370 bound_to 10713
  157.7390  130.9823  150.2286 LP  0  0  0  0  0  0  0  0  0  0  0  0  # atno 17371 bound_to 10713
  140.4496  134.6941  157.5033 LP  0  0  0  0  0  0  0  0  0  0  0  0  # atno 17394 bound_to 11000
  140.0175  134.6598  155.9289 LP  0  0  0  0  0  0  0  0  0  0  0  0  # atno 17395 bound_to 11000

$$$$
