AV-unprocessed.smi:2627|AV-procd|sdf|10241|dock6
  -GOLD-   2272014253D 1   1.00000     0.00000
 Structure written by MMmdl.
 40 42  0  0  0  0  0  0  0  0  2 V2000
  152.8652  138.0690  154.6140 C   0  0  0  0  0  0  0  0  0  0  0  0
  151.4690  137.4903  154.8761 C   0  0  2  0  0  0  0  0  0  0  0  0
  151.3070  136.3257  154.0932 O   0  0  0  0  0  0  0  0  0  0  0  0
  150.4080  138.5101  154.5992 C   0  0  0  0  0  0  0  0  0  0  0  0
  149.4627  138.4383  153.6187 N   0  3  0  0  0  0  0  0  0  0  0  0
  148.6485  139.5705  153.6611 C   0  0  0  0  0  0  0  0  0  0  0  0
  147.5598  139.9402  152.8776 C   0  0  0  0  0  0  0  0  0  0  0  0
  146.9437  141.1698  153.1900 C   0  0  0  0  0  0  0  0  0  0  0  0
  147.4123  141.9782  154.2464 C   0  0  0  0  0  0  0  0  0  0  0  0
  148.5179  141.5932  155.0334 C   0  0  0  0  0  0  0  0  0  0  0  0
  149.1233  140.3778  154.7150 C   0  0  0  0  0  0  0  0  0  0  0  0
  150.2161  139.6909  155.2554 N   0  0  0  0  0  0  0  0  0  0  0  0
  150.9528  140.2811  156.3802 C   0  0  0  0  0  0  0  0  0  0  0  0
  150.1020  140.3297  157.6546 C   0  0  0  0  0  0  0  0  0  0  0  0
  150.0105  141.6812  158.0806 O   0  0  0  0  0  0  0  0  0  0  0  0
  150.9446  142.1454  158.9813 C   0  0  0  0  0  0  0  0  0  0  0  0
  150.9868  143.5385  159.1971 C   0  0  0  0  0  0  0  0  0  0  0  0
  151.9110  144.1012  160.0982 C   0  0  0  0  0  0  0  0  0  0  0  0
  152.8059  143.2709  160.7976 C   0  0  0  0  0  0  0  0  0  0  0  0
  152.7740  141.8788  160.5935 C   0  0  0  0  0  0  0  0  0  0  0  0
  151.8501  141.3162  159.6913 C   0  0  0  0  0  0  0  0  0  0  0  0
  153.0500  138.9442  155.2378 H   0  0  0  0  0  0  0  0  0  0  0  0
  152.9820  138.3717  153.5728 H   0  0  0  0  0  0  0  0  0  0  0  0
  153.6421  137.3370  154.8375 H   0  0  0  0  0  0  0  0  0  0  0  0
  151.3991  137.1871  155.9210 H   0  0  0  0  0  0  0  0  0  0  0  0
  151.2872  136.5762  153.1819 H   0  0  0  0  0  0  0  0  0  0  0  0
  147.1980  139.3220  152.0687 H   0  0  0  0  0  0  0  0  0  0  0  0
  146.0946  141.4994  152.6088 H   0  0  0  0  0  0  0  0  0  0  0  0
  146.9138  142.9134  154.4574 H   0  0  0  0  0  0  0  0  0  0  0  0
  148.8670  142.2196  155.8410 H   0  0  0  0  0  0  0  0  0  0  0  0
  151.8445  139.6763  156.5464 H   0  0  0  0  0  0  0  0  0  0  0  0
  151.3041  141.2744  156.1000 H   0  0  0  0  0  0  0  0  0  0  0  0
  149.1078  139.9262  157.4565 H   0  0  0  0  0  0  0  0  0  0  0  0
  150.5701  139.7216  158.4304 H   0  0  0  0  0  0  0  0  0  0  0  0
  150.3037  144.1831  158.6635 H   0  0  0  0  0  0  0  0  0  0  0  0
  151.9328  145.1699  160.2518 H   0  0  0  0  0  0  0  0  0  0  0  0
  153.5150  143.7005  161.4897 H   0  0  0  0  0  0  0  0  0  0  0  0
  153.4599  141.2402  161.1303 H   0  0  0  0  0  0  0  0  0  0  0  0
  151.8557  140.2447  159.5628 H   0  0  0  0  0  0  0  0  0  0  0  0
  149.3837  137.6641  152.9717 H   0  0  0  0  0  0  0  0  0  0  0  0
  1  2  1  0  0  0  0
  1 22  1  0  0  0  0
  1 23  1  0  0  0  0
  1 24  1  0  0  0  0
  2  3  1  0  0  0  0
  2  4  1  0  0  0  0
  2 25  1  0  0  0  0
  3 26  1  0  0  0  0
  4 12  1  0  0  0  0
  4  5  2  0  0  0  0
  5  6  1  0  0  0  0
  5 40  1  0  0  0  0
  6 11  2  0  0  0  0
  6  7  1  0  0  0  0
  7  8  2  0  0  0  0
  7 27  1  0  0  0  0
  8  9  1  0  0  0  0
  8 28  1  0  0  0  0
  9 10  2  0  0  0  0
  9 29  1  0  0  0  0
 10 11  1  0  0  0  0
 10 30  1  0  0  0  0
 11 12  1  0  0  0  0
 12 13  1  0  0  0  0
 13 14  1  0  0  0  0
 13 31  1  0  0  0  0
 13 32  1  0  0  0  0
 14 15  1  0  0  0  0
 14 33  1  0  0  0  0
 14 34  1  0  0  0  0
 15 16  1  0  0  0  0
 16 21  1  0  0  0  0
 16 17  2  0  0  0  0
 17 18  1  0  0  0  0
 17 35  1  0  0  0  0
 18 19  2  0  0  0  0
 18 36  1  0  0  0  0
 19 20  1  0  0  0  0
 19 37  1  0  0  0  0
 20 21  2  0  0  0  0
 20 38  1  0  0  0  0
 21 39  1  0  0  0  0
M  CHG  1   5   1
M  END
> <s_m_source_file>
AV-unprocessed.smi

> <i_m_source_file_index>
2627

> <i_lp_mmshare_version>
43012

> <i_f3d_flags>
0

> <s_epik_input>
W2NIXTFbY0hdW2NIXVtjSF1jKGMxMiluKGMobjIpW0NASF0oW0NIM10pW09IXSlbQ0gyXVtDSDJdT2MzW2NIXVtjSF1bY0hdW2NIXVtjSF0z

> <s_epik_cmdline>
J2VwaWtfcHl0aG9uJywgJy1waCcsICc3LjAnLCAnLXRuJywgJzgnLCAnLW1hJywgJzIwMCcsICctbWV0YWxfYmluZGluZycsICctaW1hZScsICc8aW5maWxlLm1hZT4nLCAnLW9tYWUnLCAnPG91dGZpbGUubWFlPic=

> <r_lp_tautomer_probability>
1

> <r_epik_Ionization_Penalty>
1.52183

> <r_epik_Ionization_Penalty_Charging>
1.5218

> <r_epik_Ionization_Penalty_Neutral>
2.92192e-05

> <r_epik_State_Penalty>
1.61369

> <r_epik_Charging_Adjusted_Penalty>
3.13549

> <i_epik_Tot_Q>
1

> <i_epik_Tot_abs_Q>
1

> <r_epik_Metal_State_Penalty>
5.66625

> <b_epik_Metal_Only>
0

> <s_lp_Force_Field>
OPLS_2005

> <r_lp_Energy>
19.9406

> <b_lp_Chiralities_Consistent>
1

> <s_lp_Variant>
AV-unprocessed.smi:2627-3

> <Gold.Version>
5.8.1

> <Gold.Id.Protein>
6NUR|6NUR_protein|mol2

> <Gold.PLP.Fitness>
57.5220

> <Gold.PLP.PLP>
-47.5281

> <Gold.PLP.part.hbond>
-4.2020

> <Gold.PLP.part.metal>
0.0000

> <Gold.PLP.part.buried>
0.4179

> <Gold.PLP.part.nonpolar>
-43.6554

> <Gold.PLP.part.repulsive>
0.1786

> <Gold.PLP.ligand.clash>
0.0000

> <Gold.PLP.ligand.torsion>
0.8167

> <Gold.PLP.Chemscore.Hbond>
3.8640

> <Gold.PLP.Chemscore.CHOScore>
0.0000

> <Gold.PLP.Chemscore.Metal>
0.0000

> <Gold.Chemscore.Hbonds>
donor molecule, donor type, donor heavy atom, donor atom, acceptor molecule, acceptor atom, score
      L1  H     3    26       P1  7949  0.90
      L1  H     5    40       P1  7948  2.00
      P1  H 10752 10764       L1     3  0.90

> <Gold.PLP.Chemscore.Internal.Correction>
0.0352

> <Gold.Rescore>
     Score         DG    S(hbond)    S(metal)    S(lipo)     H(rot)  DE(clash)    DE(int)     intcor
     19.72     -22.97       2.37        0.00     128.31       2.13       2.30       0.94       ----

> <Gold.Chemscore.Fitness>
19.7212

> <Gold.Chemscore.DG>
-22.9690

> <Gold.Chemscore.ZeroCoef>
-5.4800

> <Gold.Chemscore.Hbond>
2.3739

> <Gold.Chemscore.Metal>
0.0000

> <Gold.Chemscore.Lipo>
128.3140

> <Gold.Chemscore.Internal_Hbond>
0.0000

> <Gold.Chemscore.DEClash>
2.3044

> <Gold.Chemscore.DEInternal>
0.9434

> <Gold.Chemscore.Rot>
2.1299

> <Gold.Chemscore.Internal.Correction>
   9.000000E+99

> <Gold.Chemscore.Hbonds>
donor molecule, donor type, donor heavy atom, donor atom, acceptor molecule, acceptor atom, score
      L1  H     3    26       P1  7949  0.58
      L1  H     5    40       P1  7948  0.93
      P1  H 10752 10764       L1     3  0.10

> <Gold.Chemscore.Hbond.Weighted>
-7.9288

> <Gold.Chemscore.Metal.Weighted>
-0.0000

> <Gold.Chemscore.Lipo.Weighted>
-15.0127

> <Gold.Chemscore.Internal_Hbond.Weighted>
0.0000

> <Gold.Chemscore.DEClash.Weighted>
2.3044

> <Gold.Chemscore.DEInternal.Weighted>
0.9434

> <Gold.Chemscore.Rot.Weighted>
5.4526

> <Gold.Chemscore.Internal.Correction.Weighted>
   9.000000E+99

> <Gold.Protein.RotatedTorsions>
[ 6907 6896 6895 6894 ] final -166.65 input  -60.11 | X-H torsion
[ 7974 7965 7964 7962 ] final -151.73 input  175.53 | X-H torsion
[ 8008 7997 7996 7995 ] final  111.75 input   59.86 | X-H torsion
[ 10167 10162 10161 10158 ] final   27.05 input  -65.29 | X-H torsion
[ 10718 10713 10712 10709 ] final   87.01 input   66.30 | X-H torsion
[ 10763 10752 10751 10750 ] final  -72.30 input  -60.55 | X-H torsion
[ 11005 11000 10999 10996 ] final    0.33 input  -57.11 | X-H torsion

> <Gold.Protein.ActiveResidues>
 VAL166  LYS551  ARG553  GLY616  TRP617  ASP618  TYR619  PRO620  LYS621  CYS622 
 ASP623  PHE694  ASN695  SER759  ASP760  ASP761  ALA762  ILE779  LEU786  VAL792 
 PHE793  MET794  SER795  GLU796  ALA797  LYS798  CYS799  TRP800  GLU811  SER814 

> <Gold.Protein.RotatedAtoms>
  151.4470  133.3628  159.2789 H   0  0  0  0  0  0  0  0  0  0  0  0  # atno 6907 bound_to 6896
  150.9117  134.8536  159.7441 H   0  0  0  0  0  0  0  0  0  0  0  0  # atno 6908 bound_to 6896
  152.4936  134.4400  159.9592 H   0  0  0  0  0  0  0  0  0  0  0  0  # atno 6909 bound_to 6896
  144.7833  140.4758  143.5824 H   0  0  0  0  0  0  0  0  0  0  0  0  # atno 7974 bound_to 7965
  156.2145  140.3013  155.9809 H   0  0  0  0  0  0  0  0  0  0  0  0  # atno 8008 bound_to 7997
  155.2639  140.0431  157.3017 H   0  0  0  0  0  0  0  0  0  0  0  0  # atno 8009 bound_to 7997
  154.5748  140.2358  155.8147 H   0  0  0  0  0  0  0  0  0  0  0  0  # atno 8010 bound_to 7997
  140.4971  144.0375  150.6318 H   0  0  0  0  0  0  0  0  0  0  0  0  # atno 10167 bound_to 10162
  157.6935  131.0238  150.3059 H   0  0  0  0  0  0  0  0  0  0  0  0  # atno 10718 bound_to 10713
  154.4438  135.5934  153.6146 H   0  0  0  0  0  0  0  0  0  0  0  0  # atno 10763 bound_to 10752
  152.9807  135.6004  154.3690 H   0  0  0  0  0  0  0  0  0  0  0  0  # atno 10764 bound_to 10752
  154.3543  135.2841  155.2334 H   0  0  0  0  0  0  0  0  0  0  0  0  # atno 10765 bound_to 10752
  140.6278  133.9603  155.8258 H   0  0  0  0  0  0  0  0  0  0  0  0  # atno 11005 bound_to 11000
  145.5990  139.1502  143.3140 LP  0  0  0  0  0  0  0  0  0  0  0  0  # atno 17320 bound_to 7965
  146.2053  140.6112  142.9084 LP  0  0  0  0  0  0  0  0  0  0  0  0  # atno 17321 bound_to 7965
  140.3660  143.2881  152.0331 LP  0  0  0  0  0  0  0  0  0  0  0  0  # atno 17342 bound_to 10162
  139.4863  144.6266  151.7152 LP  0  0  0  0  0  0  0  0  0  0  0  0  # atno 17343 bound_to 10162
  156.3567  130.3840  149.7284 LP  0  0  0  0  0  0  0  0  0  0  0  0  # atno 17370 bound_to 10713
  156.4744  130.8011  151.3028 LP  0  0  0  0  0  0  0  0  0  0  0  0  # atno 17371 bound_to 10713
  141.0697  134.0224  157.3544 LP  0  0  0  0  0  0  0  0  0  0  0  0  # atno 17394 bound_to 11000
  139.9128  135.0193  156.7760 LP  0  0  0  0  0  0  0  0  0  0  0  0  # atno 17395 bound_to 11000

$$$$
