AV-unprocessed.smi:1495|AV-procd|sdf|6054|dock8
  -GOLD-   22720 6173D 1   1.00000     0.00000
 Structure written by MMmdl.
 40 41  0  0  0  0  0  0  0  0  1 V2000
  151.7741  145.6013  160.1135 C   0  0  0  0  0  0  0  0  0  0  0  0
  152.2127  144.4046  160.9661 C   0  0  0  0  0  0  0  0  0  0  0  0
  152.5994  143.1785  160.1247 C   0  0  1  0  0  0  0  0  0  0  0  0
  153.0683  142.0027  161.0027 C   0  0  0  0  0  0  0  0  0  0  0  0
  153.3852  140.8654  160.1274 N   0  0  0  0  0  0  0  0  0  0  0  0
  154.5815  140.2386  160.0213 C   0  0  0  0  0  0  0  0  0  0  0  0
  154.8669  139.4782  159.0956 O   0  0  0  0  0  0  0  0  0  0  0  0
  155.4614  140.5711  160.9793 N   0  0  0  0  0  0  0  0  0  0  0  0
  156.7945  140.0062  161.1622 C   0  0  0  0  0  0  0  0  0  0  0  0
  156.8348  139.0478  162.3660 C   0  0  0  0  0  0  0  0  0  0  0  0
  156.3834  139.6923  163.6455 C   0  0  0  0  0  0  0  0  0  0  0  0
  156.3487  139.1154  164.8908 C   0  0  0  0  0  0  0  0  0  0  0  0
  155.7134  140.2033  166.0935 S   0  0  0  0  0  0  0  0  0  0  0  0
  155.5248  141.4263  164.8426 C   0  0  0  0  0  0  0  0  0  0  0  0
  154.9769  142.7874  165.1024 C   0  0  0  0  0  0  0  0  0  0  0  0
  155.9139  141.0095  163.6352 N   0  0  0  0  0  0  0  0  0  0  0  0
  152.1965  140.4428  159.3846 C   0  0  0  0  0  0  0  0  0  0  0  0
  151.7107  141.6332  158.5378 C   0  0  0  0  0  0  0  0  0  0  0  0
  151.4576  142.7570  159.3783 O   0  0  0  0  0  0  0  0  0  0  0  0
  151.5187  146.4532  160.7438 H   0  0  0  0  0  0  0  0  0  0  0  0
  150.8977  145.3596  159.5115 H   0  0  0  0  0  0  0  0  0  0  0  0
  152.5698  145.9147  159.4373 H   0  0  0  0  0  0  0  0  0  0  0  0
  153.0643  144.7064  161.5770 H   0  0  0  0  0  0  0  0  0  0  0  0
  151.4156  144.1387  161.6612 H   0  0  0  0  0  0  0  0  0  0  0  0
  153.3989  143.4580  159.4357 H   0  0  0  0  0  0  0  0  0  0  0  0
  153.8993  142.3152  161.6356 H   0  0  0  0  0  0  0  0  0  0  0  0
  152.2741  141.7084  161.6907 H   0  0  0  0  0  0  0  0  0  0  0  0
  155.1585  141.2352  161.6771 H   0  0  0  0  0  0  0  0  0  0  0  0
  157.1494  139.4990  160.2640 H   0  0  0  0  0  0  0  0  0  0  0  0
  157.4795  140.8367  161.3348 H   0  0  0  0  0  0  0  0  0  0  0  0
  156.2069  138.1825  162.1500 H   0  0  0  0  0  0  0  0  0  0  0  0
  157.8464  138.6566  162.4800 H   0  0  0  0  0  0  0  0  0  0  0  0
  156.6464  138.1153  165.1698 H   0  0  0  0  0  0  0  0  0  0  0  0
  155.5512  143.5368  164.5567 H   0  0  0  0  0  0  0  0  0  0  0  0
  155.0258  143.0183  166.1668 H   0  0  0  0  0  0  0  0  0  0  0  0
  153.9366  142.8380  164.7803 H   0  0  0  0  0  0  0  0  0  0  0  0
  152.3871  139.5896  158.7322 H   0  0  0  0  0  0  0  0  0  0  0  0
  151.4203  140.1296  160.0842 H   0  0  0  0  0  0  0  0  0  0  0  0
  152.4497  141.8967  157.7794 H   0  0  0  0  0  0  0  0  0  0  0  0
  150.7922  141.3726  158.0118 H   0  0  0  0  0  0  0  0  0  0  0  0
  1  2  1  0  0  0  0
  1 20  1  0  0  0  0
  1 21  1  0  0  0  0
  1 22  1  0  0  0  0
  2  3  1  0  0  0  0
  2 23  1  0  0  0  0
  2 24  1  0  0  0  0
  3 19  1  0  0  0  0
  3  4  1  0  0  0  0
  3 25  1  0  0  0  0
  4  5  1  0  0  0  0
  4 26  1  0  0  0  0
  4 27  1  0  0  0  0
  5  6  1  0  0  0  0
  5 17  1  0  0  0  0
  6  7  2  0  0  0  0
  6  8  1  0  0  0  0
  8  9  1  0  0  0  0
  8 28  1  0  0  0  0
  9 10  1  0  0  0  0
  9 29  1  0  0  0  0
  9 30  1  0  0  0  0
 10 11  1  0  0  0  0
 10 31  1  0  0  0  0
 10 32  1  0  0  0  0
 11 16  1  0  0  0  0
 11 12  2  0  0  0  0
 12 13  1  0  0  0  0
 12 33  1  0  0  0  0
 13 14  1  0  0  0  0
 14 15  1  0  0  0  0
 14 16  2  0  0  0  0
 15 34  1  0  0  0  0
 15 35  1  0  0  0  0
 15 36  1  0  0  0  0
 17 18  1  0  0  0  0
 17 37  1  0  0  0  0
 17 38  1  0  0  0  0
 18 19  1  0  0  0  0
 18 39  1  0  0  0  0
 18 40  1  0  0  0  0
M  END
> <s_m_source_file>
AV-unprocessed.smi

> <i_m_source_file_index>
1495

> <i_lp_mmshare_version>
43012

> <i_f3d_flags>
0

> <s_epik_input>
W0NIM11bQ0gyXVtDQEBIXTFbQ0gyXU4oW0NIMl1bQ0gyXU8xKUMoPU8pW05IXVtDSDJdW0NIMl1jMltjSF1zYyhuMilbQ0gzXQ==

> <s_epik_cmdline>
J2VwaWtfcHl0aG9uJywgJy1waCcsICc3LjAnLCAnLXRuJywgJzgnLCAnLW1hJywgJzIwMCcsICctbWV0YWxfYmluZGluZycsICctaW1hZScsICc8aW5maWxlLm1hZT4nLCAnLW9tYWUnLCAnPG91dGZpbGUubWFlPic=

> <r_epik_Ionization_Penalty>
0.00206013

> <r_epik_Ionization_Penalty_Charging>
0

> <r_epik_Ionization_Penalty_Neutral>
0.00206013

> <r_epik_State_Penalty>
0.00138662

> <r_epik_Charging_Adjusted_Penalty>
0.00138662

> <i_epik_Tot_Q>
0

> <i_epik_Tot_abs_Q>
0

> <r_epik_Metal_State_Penalty>
-0

> <b_epik_Metal_Only>
0

> <s_lp_Force_Field>
OPLS_2005

> <r_lp_Energy>
24.1464

> <b_lp_Chiralities_Consistent>
1

> <s_lp_Variant>
AV-unprocessed.smi:1495-2

> <Gold.Version>
5.8.1

> <Gold.Id.Protein>
6NUR|6NUR_protein|mol2

> <Gold.PLP.Fitness>
42.8689

> <Gold.PLP.PLP>
-40.2316

> <Gold.PLP.part.hbond>
-3.0000

> <Gold.PLP.part.metal>
0.0000

> <Gold.PLP.part.buried>
-4.7606

> <Gold.PLP.part.nonpolar>
-32.2028

> <Gold.PLP.part.repulsive>
0.0256

> <Gold.PLP.ligand.clash>
0.0000

> <Gold.PLP.ligand.torsion>
0.1934

> <Gold.PLP.Chemscore.Hbond>
1.0000

> <Gold.PLP.Chemscore.CHOScore>
0.0000

> <Gold.PLP.Chemscore.Metal>
0.0000

> <Gold.Chemscore.Hbonds>
donor molecule, donor type, donor heavy atom, donor atom, acceptor molecule, acceptor atom, score
      P1  H  7997  8008       L1     7  1.00

> <Gold.PLP.Chemscore.Internal.Correction>
0.0241

> <Gold.Rescore>
     Score         DG    S(hbond)    S(metal)    S(lipo)     H(rot)  DE(clash)    DE(int)     intcor
     13.82     -16.88       0.98        0.00     100.50       1.42       1.38       1.68       ----

> <Gold.Chemscore.Fitness>
13.8185

> <Gold.Chemscore.DG>
-16.8761

> <Gold.Chemscore.ZeroCoef>
-5.4800

> <Gold.Chemscore.Hbond>
0.9810

> <Gold.Chemscore.Metal>
0.0000

> <Gold.Chemscore.Lipo>
100.4997

> <Gold.Chemscore.Internal_Hbond>
0.0000

> <Gold.Chemscore.DEClash>
1.3811

> <Gold.Chemscore.DEInternal>
1.6765

> <Gold.Chemscore.Rot>
1.4214

> <Gold.Chemscore.Internal.Correction>
   9.000000E+99

> <Gold.Chemscore.Hbonds>
donor molecule, donor type, donor heavy atom, donor atom, acceptor molecule, acceptor atom, score
      P1  H  7997  8008       L1     7  0.97

> <Gold.Chemscore.Hbond.Weighted>
-3.2764

> <Gold.Chemscore.Metal.Weighted>
-0.0000

> <Gold.Chemscore.Lipo.Weighted>
-11.7585

> <Gold.Chemscore.Internal_Hbond.Weighted>
0.0000

> <Gold.Chemscore.DEClash.Weighted>
1.3811

> <Gold.Chemscore.DEInternal.Weighted>
1.6765

> <Gold.Chemscore.Rot.Weighted>
3.6388

> <Gold.Chemscore.Internal.Correction.Weighted>
   9.000000E+99

> <Gold.Protein.RotatedTorsions>
[ 6907 6896 6895 6894 ] final -103.86 input  -60.11 | X-H torsion
[ 7974 7965 7964 7962 ] final  -91.97 input  175.53 | X-H torsion
[ 8008 7997 7996 7995 ] final -139.40 input   59.86 | X-H torsion
[ 10167 10162 10161 10158 ] final  -57.43 input  -65.29 | X-H torsion
[ 10718 10713 10712 10709 ] final -115.90 input   66.30 | X-H torsion
[ 10763 10752 10751 10750 ] final   82.10 input  -60.55 | X-H torsion
[ 11005 11000 10999 10996 ] final  166.41 input  -57.11 | X-H torsion

> <Gold.Protein.ActiveResidues>
 VAL166  LYS551  ARG553  GLY616  TRP617  ASP618  TYR619  PRO620  LYS621  CYS622 
 ASP623  PHE694  ASN695  SER759  ASP760  ASP761  ALA762  ILE779  LEU786  VAL792 
 PHE793  MET794  SER795  GLU796  ALA797  LYS798  CYS799  TRP800  GLU811  SER814 

> <Gold.Protein.RotatedAtoms>
  150.7260  134.0365  159.3750 H   0  0  0  0  0  0  0  0  0  0  0  0  # atno 6907 bound_to 6896
  151.8336  135.0611  160.0449 H   0  0  0  0  0  0  0  0  0  0  0  0  # atno 6908 bound_to 6896
  152.2915  133.5530  159.5597 H   0  0  0  0  0  0  0  0  0  0  0  0  # atno 6909 bound_to 6896
  145.4060  140.9541  143.2260 H   0  0  0  0  0  0  0  0  0  0  0  0  # atno 7974 bound_to 7965
  155.4442  140.0534  157.3007 H   0  0  0  0  0  0  0  0  0  0  0  0  # atno 8008 bound_to 7997
  154.4805  140.2079  155.9732 H   0  0  0  0  0  0  0  0  0  0  0  0  # atno 8009 bound_to 7997
  156.1198  140.3190  155.8196 H   0  0  0  0  0  0  0  0  0  0  0  0  # atno 8010 bound_to 7997
  140.6258  143.2438  151.5366 H   0  0  0  0  0  0  0  0  0  0  0  0  # atno 10167 bound_to 10162
  156.0927  130.6106  150.8966 H   0  0  0  0  0  0  0  0  0  0  0  0  # atno 10718 bound_to 10713
  153.1173  135.4741  154.9137 H   0  0  0  0  0  0  0  0  0  0  0  0  # atno 10763 bound_to 10752
  154.7541  135.3114  154.8505 H   0  0  0  0  0  0  0  0  0  0  0  0  # atno 10764 bound_to 10752
  153.9078  135.6868  153.4806 H   0  0  0  0  0  0  0  0  0  0  0  0  # atno 10765 bound_to 10752
  140.2661  134.7864  157.3633 H   0  0  0  0  0  0  0  0  0  0  0  0  # atno 11005 bound_to 11000
  144.8341  139.5579  143.6930 LP  0  0  0  0  0  0  0  0  0  0  0  0  # atno 17320 bound_to 7965
  146.2728  139.6678  142.9284 LP  0  0  0  0  0  0  0  0  0  0  0  0  # atno 17321 bound_to 7965
  139.5479  144.2473  152.1476 LP  0  0  0  0  0  0  0  0  0  0  0  0  # atno 17342 bound_to 10162
  140.1704  144.4941  150.6582 LP  0  0  0  0  0  0  0  0  0  0  0  0  # atno 17343 bound_to 10162
  157.6080  131.0938  150.8845 LP  0  0  0  0  0  0  0  0  0  0  0  0  # atno 17370 bound_to 10713
  156.8990  130.5240  149.5283 LP  0  0  0  0  0  0  0  0  0  0  0  0  # atno 17371 bound_to 10713
  140.1418  134.4962  155.8026 LP  0  0  0  0  0  0  0  0  0  0  0  0  # atno 17394 bound_to 11000
  141.2184  133.6828  156.7223 LP  0  0  0  0  0  0  0  0  0  0  0  0  # atno 17395 bound_to 11000

$$$$
