AV-unprocessed.smi:52|AV-procd|sdf|511|dock7
  -GOLD-   2262016383D 1   1.00000     0.00000
 Structure written by MMmdl.
 26 27  0  0  0  0  0  0  0  0  2 V2000
  150.5363  136.3548  158.1956 O   0  0  0  0  0  0  0  0  0  0  0  0
  151.5918  136.6807  157.6083 C   0  0  0  0  0  0  0  0  0  0  0  0
  152.0068  136.0596  156.6051 O   0  5  0  0  0  0  0  0  0  0  0  0
  152.3731  137.8378  158.1174 C   0  0  0  0  0  0  0  0  0  0  0  0
  153.6930  138.1128  157.8631 C   0  0  0  0  0  0  0  0  0  0  0  0
  154.0457  139.2663  158.5100 O   0  0  0  0  0  0  0  0  0  0  0  0
  152.9071  139.6548  159.1457 C   0  0  0  0  0  0  0  0  0  0  0  0
  152.9269  140.8962  159.9754 C   0  0  0  0  0  0  0  0  0  0  0  0
  152.7966  142.1150  159.1840 N   0  0  0  0  0  0  0  0  0  0  0  0
  153.1146  143.3290  159.9184 C   0  0  0  0  0  0  0  0  0  0  0  0
  152.4598  144.4869  159.1520 C   0  0  0  0  0  0  0  0  0  0  0  0
  151.4476  143.7948  158.2244 C   0  0  2  0  0  0  0  0  0  0  0  0
  150.1604  144.3714  158.2893 O   0  0  0  0  0  0  0  0  0  0  0  0
  151.4480  142.3449  158.7102 C   0  0  0  0  0  0  0  0  0  0  0  0
  151.8762  138.8372  158.9451 N   0  0  0  0  0  0  0  0  0  0  0  0
  151.8069  143.8353  157.1953 H   0  0  0  0  0  0  0  0  0  0  0  0
  154.4616  137.6219  157.2848 H   0  0  0  0  0  0  0  0  0  0  0  0
  152.1043  140.8334  160.6884 H   0  0  0  0  0  0  0  0  0  0  0  0
  153.8477  140.9171  160.5600 H   0  0  0  0  0  0  0  0  0  0  0  0
  152.6864  143.2802  160.9211 H   0  0  0  0  0  0  0  0  0  0  0  0
  154.1917  143.4603  160.0268 H   0  0  0  0  0  0  0  0  0  0  0  0
  151.9871  145.1852  159.8439 H   0  0  0  0  0  0  0  0  0  0  0  0
  153.1960  145.0410  158.5687 H   0  0  0  0  0  0  0  0  0  0  0  0
  149.8141  144.4302  157.4120 H   0  0  0  0  0  0  0  0  0  0  0  0
  151.1692  141.6420  157.9245 H   0  0  0  0  0  0  0  0  0  0  0  0
  150.7404  142.2273  159.5334 H   0  0  0  0  0  0  0  0  0  0  0  0
  1  2  2  0  0  0  0
  2  3  1  0  0  0  0
  2  4  1  0  0  0  0
  4 15  1  0  0  0  0
  4  5  2  0  0  0  0
  5  6  1  0  0  0  0
  5 17  1  0  0  0  0
  6  7  1  0  0  0  0
  7  8  1  0  0  0  0
  7 15  2  0  0  0  0
  8  9  1  0  0  0  0
  8 18  1  0  0  0  0
  8 19  1  0  0  0  0
  9 14  1  0  0  0  0
  9 10  1  0  0  0  0
 10 11  1  0  0  0  0
 10 20  1  0  0  0  0
 10 21  1  0  0  0  0
 11 12  1  0  0  0  0
 11 22  1  0  0  0  0
 11 23  1  0  0  0  0
 12 16  1  0  0  0  0
 12 13  1  0  0  0  0
 12 14  1  0  0  0  0
 13 24  1  0  0  0  0
 14 25  1  0  0  0  0
 14 26  1  0  0  0  0
M  CHG  1   3  -1
M  END
> <s_m_source_file>
AV-unprocessed.smi

> <i_m_source_file_index>
52

> <i_lp_mmshare_version>
43012

> <i_f3d_flags>
0

> <s_epik_input>
Tz1DKFtPSF0pYzFbY0hdb2MobjEpW0NIMl1OMltDSDJdW0NIMl1bQ0BIXShbT0hdKVtDSDJdMg==

> <s_epik_cmdline>
J2VwaWtfcHl0aG9uJywgJy1waCcsICc3LjAnLCAnLXRuJywgJzgnLCAnLW1hJywgJzIwMCcsICctbWV0YWxfYmluZGluZycsICctaW1hZScsICc8aW5maWxlLm1hZT4nLCAnLW9tYWUnLCAnPG91dGZpbGUubWFlPic=

> <r_epik_Ionization_Penalty>
1.6537

> <r_epik_Ionization_Penalty_Charging>
0.000221913

> <r_epik_Ionization_Penalty_Neutral>
1.65348

> <r_epik_State_Penalty>
1.75577

> <r_epik_Charging_Adjusted_Penalty>
1.75599

> <i_epik_Tot_Q>
-1

> <i_epik_Tot_abs_Q>
1

> <r_epik_Metal_State_Penalty>
1.75577

> <b_epik_Metal_Only>
0

> <s_lp_Force_Field>
OPLS_2005

> <r_lp_Energy>
35.4981

> <b_lp_Chiralities_Consistent>
1

> <s_lp_Variant>
AV-unprocessed.smi:52-5

> <Gold.Version>
5.8.1

> <Gold.Id.Protein>
6NUR|6NUR_protein|mol2

> <Gold.PLP.Fitness>
40.9463

> <Gold.PLP.PLP>
-25.1579

> <Gold.PLP.part.hbond>
-5.0000

> <Gold.PLP.part.metal>
0.0000

> <Gold.PLP.part.buried>
-3.1968

> <Gold.PLP.part.nonpolar>
-17.8736

> <Gold.PLP.part.repulsive>
0.0000

> <Gold.PLP.ligand.clash>
0.0000

> <Gold.PLP.ligand.torsion>
0.5544

> <Gold.PLP.Chemscore.Hbond>
5.6320

> <Gold.PLP.Chemscore.CHOScore>
0.0000

> <Gold.PLP.Chemscore.Metal>
0.0000

> <Gold.Chemscore.Hbonds>
donor molecule, donor type, donor heavy atom, donor atom, acceptor molecule, acceptor atom, score
      L1  H    13    24       P1  8028  0.95
      P1  H  6896  6907       L1     1  1.27
      P1  H  7997  8008       L1     6  1.00
      P1  H 10752 10763       L1     3  2.00

> <Gold.PLP.Chemscore.Internal.Correction>
0.0012

> <Gold.Rescore>
     Score         DG    S(hbond)    S(metal)    S(lipo)     H(rot)  DE(clash)    DE(int)     intcor
     18.71     -19.23       3.36        0.00      64.23       1.95       0.02       0.50       ----

> <Gold.Chemscore.Fitness>
18.7085

> <Gold.Chemscore.DG>
-19.2294

> <Gold.Chemscore.ZeroCoef>
-5.4800

> <Gold.Chemscore.Hbond>
3.3609

> <Gold.Chemscore.Metal>
0.0000

> <Gold.Chemscore.Lipo>
64.2313

> <Gold.Chemscore.Internal_Hbond>
0.0000

> <Gold.Chemscore.DEClash>
0.0162

> <Gold.Chemscore.DEInternal>
0.5047

> <Gold.Chemscore.Rot>
1.9497

> <Gold.Chemscore.Internal.Correction>
   9.000000E+99

> <Gold.Chemscore.Hbonds>
donor molecule, donor type, donor heavy atom, donor atom, acceptor molecule, acceptor atom, score
      L1  H    13    24       P1  8028  0.21
      P1  H  6896  6907       L1     1  0.46
      P1  H  7997  8008       L1     6  0.33
      P1  H 10752 10763       L1     3  0.95

> <Gold.Chemscore.Hbond.Weighted>
-11.2256

> <Gold.Chemscore.Metal.Weighted>
-0.0000

> <Gold.Chemscore.Lipo.Weighted>
-7.5151

> <Gold.Chemscore.Internal_Hbond.Weighted>
0.0000

> <Gold.Chemscore.DEClash.Weighted>
0.0162

> <Gold.Chemscore.DEInternal.Weighted>
0.5047

> <Gold.Chemscore.Rot.Weighted>
4.9912

> <Gold.Chemscore.Internal.Correction.Weighted>
   9.000000E+99

> <Gold.Protein.RotatedTorsions>
[ 6907 6896 6895 6894 ] final  -40.73 input  -60.11 | X-H torsion
[ 7974 7965 7964 7962 ] final  -45.31 input  175.53 | X-H torsion
[ 8008 7997 7996 7995 ] final -123.44 input   59.86 | X-H torsion
[ 10167 10162 10161 10158 ] final  -48.43 input  -65.29 | X-H torsion
[ 10718 10713 10712 10709 ] final  109.89 input   66.30 | X-H torsion
[ 10763 10752 10751 10750 ] final  104.22 input  -60.55 | X-H torsion
[ 11005 11000 10999 10996 ] final  -13.61 input  -57.11 | X-H torsion

> <Gold.Protein.ActiveResidues>
 VAL166  LYS551  ARG553  GLY616  TRP617  ASP618  TYR619  PRO620  LYS621  CYS622 
 ASP623  PHE694  ASN695  SER759  ASP760  ASP761  ALA762  ILE779  LEU786  VAL792 
 PHE793  MET794  SER795  GLU796  ALA797  LYS798  CYS799  TRP800  GLU811  SER814 

> <Gold.Protein.RotatedAtoms>
  150.9750  134.9116  159.7810 H   0  0  0  0  0  0  0  0  0  0  0  0  # atno 6907 bound_to 6896
  152.5203  134.3489  159.9254 H   0  0  0  0  0  0  0  0  0  0  0  0  # atno 6908 bound_to 6896
  151.3497  133.3889  159.2713 H   0  0  0  0  0  0  0  0  0  0  0  0  # atno 6909 bound_to 6896
  145.9833  140.7260  142.9353 H   0  0  0  0  0  0  0  0  0  0  0  0  # atno 7974 bound_to 7965
  155.1806  140.0410  157.2881 H   0  0  0  0  0  0  0  0  0  0  0  0  # atno 8008 bound_to 7997
  154.6206  140.2500  155.7526 H   0  0  0  0  0  0  0  0  0  0  0  0  # atno 8009 bound_to 7997
  156.2431  140.2895  156.0512 H   0  0  0  0  0  0  0  0  0  0  0  0  # atno 8010 bound_to 7997
  140.6731  143.2740  151.4069 H   0  0  0  0  0  0  0  0  0  0  0  0  # atno 10167 bound_to 10162
  157.6520  131.0922  150.6521 H   0  0  0  0  0  0  0  0  0  0  0  0  # atno 10718 bound_to 10713
  153.3630  135.3950  155.1732 H   0  0  0  0  0  0  0  0  0  0  0  0  # atno 10763 bound_to 10752
  154.8682  135.3684  154.5075 H   0  0  0  0  0  0  0  0  0  0  0  0  # atno 10764 bound_to 10752
  153.5536  135.7082  153.5640 H   0  0  0  0  0  0  0  0  0  0  0  0  # atno 10765 bound_to 10752
  140.7779  133.8386  155.9265 H   0  0  0  0  0  0  0  0  0  0  0  0  # atno 11005 bound_to 11000
  144.6867  140.2946  143.7273 LP  0  0  0  0  0  0  0  0  0  0  0  0  # atno 17320 bound_to 7965
  145.7737  139.1866  143.2197 LP  0  0  0  0  0  0  0  0  0  0  0  0  # atno 17321 bound_to 7965
  139.6009  144.1297  152.2197 LP  0  0  0  0  0  0  0  0  0  0  0  0  # atno 17342 bound_to 10162
  140.0681  144.5802  150.7212 LP  0  0  0  0  0  0  0  0  0  0  0  0  # atno 17343 bound_to 10162
  156.6831  130.4573  149.5622 LP  0  0  0  0  0  0  0  0  0  0  0  0  # atno 17370 bound_to 10713
  156.1915  130.6562  151.1066 LP  0  0  0  0  0  0  0  0  0  0  0  0  # atno 17371 bound_to 10713
  140.9511  134.1778  157.4727 LP  0  0  0  0  0  0  0  0  0  0  0  0  # atno 17394 bound_to 11000
  139.8746  134.9909  156.5525 LP  0  0  0  0  0  0  0  0  0  0  0  0  # atno 17395 bound_to 11000

$$$$
