AV-unprocessed.smi:629|AV-procd|sdf|3115|dock1
  -GOLD-   22720 0 33D 1   1.00000     0.00000
 Structure written by MMmdl.
 31 32  0  0  0  0  0  0  0  0  1 V2000
  149.6012  134.9677  155.0476 C   0  0  0  0  0  0  0  0  0  0  0  0
  150.2307  136.2016  154.6035 N   0  0  0  0  0  0  0  0  0  0  0  0
  151.2004  136.8392  155.2761 C   0  0  0  0  0  0  0  0  0  0  0  0
  151.6649  136.4309  156.3404 O   0  0  0  0  0  0  0  0  0  0  0  0
  151.7363  138.1296  154.6519 C   0  0  0  0  0  0  0  0  0  0  0  0
  151.3915  139.3133  155.4989 C   0  0  0  0  0  0  0  0  0  0  0  0
  150.8106  140.3884  154.9780 N   0  0  0  0  0  0  0  0  0  0  0  0
  150.6656  141.2446  156.0788 O   0  0  0  0  0  0  0  0  0  0  0  0
  151.1715  140.5712  157.1399 C   0  0  0  0  0  0  0  0  0  0  0  0
  151.2059  141.2437  158.4724 C   0  0  0  0  0  0  0  0  0  0  0  0
  152.2273  142.3940  158.5365 C   0  0  2  0  0  0  0  0  0  0  0  0
  152.3457  142.9953  159.9141 C   0  0  0  0  0  0  0  0  0  0  0  0
  152.1928  144.3176  159.9165 C   0  0  0  0  0  0  0  0  0  0  0  0
  151.9379  144.8680  158.5415 C   0  0  0  0  0  0  0  0  0  0  0  0
  151.8324  143.6076  157.6547 C   0  0  0  0  0  0  0  0  0  0  0  0
  151.6580  139.3713  156.8335 N   0  0  0  0  0  0  0  0  0  0  0  0
  148.8386  134.6611  154.3318 H   0  0  0  0  0  0  0  0  0  0  0  0
  149.1227  135.1033  156.0184 H   0  0  0  0  0  0  0  0  0  0  0  0
  150.3349  134.1649  155.1296 H   0  0  0  0  0  0  0  0  0  0  0  0
  149.9017  136.6024  153.7368 H   0  0  0  0  0  0  0  0  0  0  0  0
  152.8195  138.0643  154.5413 H   0  0  0  0  0  0  0  0  0  0  0  0
  151.3234  138.2546  153.6498 H   0  0  0  0  0  0  0  0  0  0  0  0
  150.2048  141.6324  158.6636 H   0  0  0  0  0  0  0  0  0  0  0  0
  151.4012  140.5038  159.2498 H   0  0  0  0  0  0  0  0  0  0  0  0
  153.2114  142.0395  158.2260 H   0  0  0  0  0  0  0  0  0  0  0  0
  152.5510  142.3934  160.7874 H   0  0  0  0  0  0  0  0  0  0  0  0
  152.2539  144.9510  160.7893 H   0  0  0  0  0  0  0  0  0  0  0  0
  151.0199  145.4562  158.5231 H   0  0  0  0  0  0  0  0  0  0  0  0
  152.7689  145.5059  158.2390 H   0  0  0  0  0  0  0  0  0  0  0  0
  152.4707  143.6847  156.7737 H   0  0  0  0  0  0  0  0  0  0  0  0
  150.8070  143.5069  157.2959 H   0  0  0  0  0  0  0  0  0  0  0  0
  1  2  1  0  0  0  0
  1 17  1  0  0  0  0
  1 18  1  0  0  0  0
  1 19  1  0  0  0  0
  2  3  1  0  0  0  0
  2 20  1  0  0  0  0
  3  4  2  0  0  0  0
  3  5  1  0  0  0  0
  5  6  1  0  0  0  0
  5 21  1  0  0  0  0
  5 22  1  0  0  0  0
  6 16  1  0  0  0  0
  6  7  2  0  0  0  0
  7  8  1  0  0  0  0
  8  9  1  0  0  0  0
  9 10  1  0  0  0  0
  9 16  2  0  0  0  0
 10 11  1  0  0  0  0
 10 23  1  0  0  0  0
 10 24  1  0  0  0  0
 11 15  1  0  0  0  0
 11 12  1  0  0  0  0
 11 25  1  0  0  0  0
 12 13  2  0  0  0  0
 12 26  1  0  0  0  0
 13 14  1  0  0  0  0
 13 27  1  0  0  0  0
 14 15  1  0  0  0  0
 14 28  1  0  0  0  0
 14 29  1  0  0  0  0
 15 30  1  0  0  0  0
 15 31  1  0  0  0  0
M  END
> <s_m_source_file>
AV-unprocessed.smi

> <i_m_source_file_index>
629

> <i_lp_mmshare_version>
43012

> <i_f3d_flags>
0

> <s_epik_input>
W0NIM11bTkhdQyg9TylbQ0gyXWMxbm9jKG4xKVtDSDJdW0NAQEhdMltDSF09W0NIXVtDSDJdW0NIMl0y

> <s_epik_cmdline>
J2VwaWtfcHl0aG9uJywgJy1waCcsICc3LjAnLCAnLXRuJywgJzgnLCAnLW1hJywgJzIwMCcsICctbWV0YWxfYmluZGluZycsICctaW1hZScsICc8aW5maWxlLm1hZT4nLCAnLW9tYWUnLCAnPG91dGZpbGUubWFlPic=

> <r_lp_tautomer_probability>
1

> <r_epik_Ionization_Penalty>
1.02915e-07

> <r_epik_Ionization_Penalty_Charging>
0

> <r_epik_Ionization_Penalty_Neutral>
1.02915e-07

> <r_epik_State_Penalty>
-0

> <r_epik_Charging_Adjusted_Penalty>
0

> <i_epik_Tot_Q>
0

> <i_epik_Tot_abs_Q>
0

> <r_epik_Metal_State_Penalty>
-0

> <b_epik_Metal_Only>
0

> <s_lp_Force_Field>
OPLS_2005

> <r_lp_Energy>
15.6926

> <b_lp_Chiralities_Consistent>
1

> <s_lp_Variant>
AV-unprocessed.smi:629-1

> <Gold.Version>
5.8.1

> <Gold.Id.Protein>
6NUR|6NUR_protein|mol2

> <Gold.PLP.Fitness>
44.3244

> <Gold.PLP.PLP>
-36.4360

> <Gold.PLP.part.hbond>
-4.0000

> <Gold.PLP.part.metal>
0.0000

> <Gold.PLP.part.buried>
-3.7570

> <Gold.PLP.part.nonpolar>
-29.4124

> <Gold.PLP.part.repulsive>
0.2140

> <Gold.PLP.ligand.clash>
0.0000

> <Gold.PLP.ligand.torsion>
0.2662

> <Gold.PLP.Chemscore.Hbond>
2.8000

> <Gold.PLP.Chemscore.CHOScore>
0.0000

> <Gold.PLP.Chemscore.Metal>
0.0000

> <Gold.Chemscore.Hbonds>
donor molecule, donor type, donor heavy atom, donor atom, acceptor molecule, acceptor atom, score
      L1  H     2    20       P1  7948  0.78
      P1  H  7989  7998       L1     7  1.00
      P1  H 10752 10765       L1     4  0.23

> <Gold.PLP.Chemscore.Internal.Correction>
0.0209

> <Gold.Rescore>
     Score         DG    S(hbond)    S(metal)    S(lipo)     H(rot)  DE(clash)    DE(int)     intcor
     15.22     -15.72       1.76        0.00      78.67       1.89       0.07       0.43       ----

> <Gold.Chemscore.Fitness>
15.2213

> <Gold.Chemscore.DG>
-15.7199

> <Gold.Chemscore.ZeroCoef>
-5.4800

> <Gold.Chemscore.Hbond>
1.7571

> <Gold.Chemscore.Metal>
0.0000

> <Gold.Chemscore.Lipo>
78.6653

> <Gold.Chemscore.Internal_Hbond>
0.0000

> <Gold.Chemscore.DEClash>
0.0658

> <Gold.Chemscore.DEInternal>
0.4328

> <Gold.Chemscore.Rot>
1.8877

> <Gold.Chemscore.Internal.Correction>
   9.000000E+99

> <Gold.Chemscore.Hbonds>
donor molecule, donor type, donor heavy atom, donor atom, acceptor molecule, acceptor atom, score
      L1  H     2    20       P1  7948  0.26
      P1  H  7989  7998       L1     7  0.76
      P1  H 10752 10765       L1     4  0.01

> <Gold.Chemscore.Hbond.Weighted>
-5.8686

> <Gold.Chemscore.Metal.Weighted>
-0.0000

> <Gold.Chemscore.Lipo.Weighted>
-9.2038

> <Gold.Chemscore.Internal_Hbond.Weighted>
0.0000

> <Gold.Chemscore.DEClash.Weighted>
0.0658

> <Gold.Chemscore.DEInternal.Weighted>
0.4328

> <Gold.Chemscore.Rot.Weighted>
4.8325

> <Gold.Chemscore.Internal.Correction.Weighted>
   9.000000E+99

> <Gold.Protein.RotatedTorsions>
[ 6907 6896 6895 6894 ] final  173.25 input  -60.11 | X-H torsion
[ 7974 7965 7964 7962 ] final   -8.81 input  175.53 | X-H torsion
[ 8008 7997 7996 7995 ] final  -49.26 input   59.86 | X-H torsion
[ 10167 10162 10161 10158 ] final    3.65 input  -65.29 | X-H torsion
[ 10718 10713 10712 10709 ] final  -17.92 input   66.30 | X-H torsion
[ 10763 10752 10751 10750 ] final -137.00 input  -60.55 | X-H torsion
[ 11005 11000 10999 10996 ] final  -44.37 input  -57.11 | X-H torsion

> <Gold.Protein.ActiveResidues>
 VAL166  LYS551  ARG553  GLY616  TRP617  ASP618  TYR619  PRO620  LYS621  CYS622 
 ASP623  PHE694  ASN695  SER759  ASP760  ASP761  ALA762  ILE779  LEU786  VAL792 
 PHE793  MET794  SER795  GLU796  ALA797  LYS798  CYS799  TRP800  GLU811  SER814 

> <Gold.Protein.RotatedAtoms>
  151.7712  133.3341  159.3444 H   0  0  0  0  0  0  0  0  0  0  0  0  # atno 6907 bound_to 6896
  150.7461  134.6016  159.6049 H   0  0  0  0  0  0  0  0  0  0  0  0  # atno 6908 bound_to 6896
  152.3339  134.7224  160.0333 H   0  0  0  0  0  0  0  0  0  0  0  0  # atno 6909 bound_to 6896
  146.2270  140.2523  142.8348 H   0  0  0  0  0  0  0  0  0  0  0  0  # atno 7974 bound_to 7965
  154.4041  140.1301  156.4474 H   0  0  0  0  0  0  0  0  0  0  0  0  # atno 8008 bound_to 7997
  155.7399  140.3490  155.5079 H   0  0  0  0  0  0  0  0  0  0  0  0  # atno 8009 bound_to 7997
  155.9048  140.1025  157.1313 H   0  0  0  0  0  0  0  0  0  0  0  0  # atno 8010 bound_to 7997
  140.6575  143.7390  150.7679 H   0  0  0  0  0  0  0  0  0  0  0  0  # atno 10167 bound_to 10162
  156.5668  130.4739  149.6381 H   0  0  0  0  0  0  0  0  0  0  0  0  # atno 10718 bound_to 10713
  154.8671  135.3655  154.5152 H   0  0  0  0  0  0  0  0  0  0  0  0  # atno 10763 bound_to 10752
  153.5785  135.7019  153.5478 H   0  0  0  0  0  0  0  0  0  0  0  0  # atno 10764 bound_to 10752
  153.3478  135.4080  155.1585 H   0  0  0  0  0  0  0  0  0  0  0  0  # atno 10765 bound_to 10752
  141.0446  133.6766  156.2862 H   0  0  0  0  0  0  0  0  0  0  0  0  # atno 11005 bound_to 11000
  144.9402  140.8070  143.5635 LP  0  0  0  0  0  0  0  0  0  0  0  0  # atno 17320 bound_to 7965
  145.2474  139.2046  143.4960 LP  0  0  0  0  0  0  0  0  0  0  0  0  # atno 17321 bound_to 7965
  140.1052  143.4750  152.2402 LP  0  0  0  0  0  0  0  0  0  0  0  0  # atno 17342 bound_to 10162
  139.5801  144.7506  151.3663 LP  0  0  0  0  0  0  0  0  0  0  0  0  # atno 17343 bound_to 10162
  156.2750  130.7038  151.1847 LP  0  0  0  0  0  0  0  0  0  0  0  0  # atno 17370 bound_to 10713
  157.7357  131.0570  150.5456 LP  0  0  0  0  0  0  0  0  0  0  0  0  # atno 17371 bound_to 10713
  140.6171  134.5399  157.5542 LP  0  0  0  0  0  0  0  0  0  0  0  0  # atno 17394 bound_to 11000
  139.9301  134.7979  156.0954 LP  0  0  0  0  0  0  0  0  0  0  0  0  # atno 17395 bound_to 11000

$$$$
