AV-unprocessed.smi:199|AV-procd|sdf|1572|dock3
  -GOLD-   2262019453D 1   1.00000     0.00000
 Structure written by MMmdl.
 51 55  0  0  0  0  0  0  0  0  1 V2000
  146.7778  133.4274  162.1306 C   0  0  0  0  0  0  0  0  0  0  0  0
  146.5209  134.8686  162.5981 C   0  0  2  0  0  0  0  0  0  0  0  0
  145.1129  135.0352  162.7429 O   0  0  0  0  0  0  0  0  0  0  0  0
  144.7900  136.3939  162.5088 C   0  0  0  0  0  0  0  0  0  0  0  0
  145.6806  136.7386  161.3250 C   0  0  0  0  0  0  0  0  0  0  0  0
  146.9834  136.0099  161.6476 C   0  0  1  0  0  0  0  0  0  0  0  0
  147.7972  136.8922  162.4018 O   0  0  0  0  0  0  0  0  0  0  0  0
  147.7813  135.5801  160.3881 C   0  0  0  0  0  0  0  0  0  0  0  0
  148.0827  136.6837  159.4881 N   0  0  0  0  0  0  0  0  0  0  0  0
  147.1754  137.4377  158.7795 C   0  0  0  0  0  0  0  0  0  0  0  0
  147.6927  138.3798  158.0405 N   0  0  0  0  0  0  0  0  0  0  0  0
  149.0631  138.2596  158.2396 C   0  0  0  0  0  0  0  0  0  0  0  0
  150.2060  138.9542  157.7484 C   0  0  0  0  0  0  0  0  0  0  0  0
  150.1333  139.9940  156.8752 N   0  0  0  0  0  0  0  0  0  0  0  0
  151.3156  140.7367  156.4682 C   0  0  2  0  0  0  0  0  0  0  0  0
  150.7018  141.9215  155.7017 C   0  0  0  0  0  0  0  0  0  0  0  0
  149.4803  141.2556  155.0448 C   0  0  0  0  0  0  0  0  0  0  0  0
  149.6358  139.7999  155.5210 C   0  0  1  0  0  0  0  0  0  0  0  0
  150.8132  139.1550  154.7464 C   0  0  2  0  0  0  0  0  0  0  0  0
  150.8133  137.6142  154.7675 C   0  0  0  0  0  0  0  0  0  0  0  0
  151.7047  137.1155  153.7931 O   0  0  0  0  0  0  0  0  0  0  0  0
  152.0171  139.7963  155.4668 C   0  0  0  0  0  0  0  0  0  0  0  0
  151.4217  138.5547  158.2072 N   0  0  0  0  0  0  0  0  0  0  0  0
  151.5217  137.5322  159.0609 C   0  0  0  0  0  0  0  0  0  0  0  0
  150.5484  136.7876  159.5873 N   0  0  0  0  0  0  0  0  0  0  0  0
  149.3234  137.1952  159.1497 C   0  0  0  0  0  0  0  0  0  0  0  0
  147.8428  133.2334  162.0042 H   0  0  0  0  0  0  0  0  0  0  0  0
  146.2764  133.2161  161.1861 H   0  0  0  0  0  0  0  0  0  0  0  0
  146.4020  132.7139  162.8642 H   0  0  0  0  0  0  0  0  0  0  0  0
  146.9682  134.9931  163.5865 H   0  0  0  0  0  0  0  0  0  0  0  0
  143.7296  136.5259  162.2932 H   0  0  0  0  0  0  0  0  0  0  0  0
  145.0455  136.9932  163.3841 H   0  0  0  0  0  0  0  0  0  0  0  0
  145.2331  136.3244  160.4206 H   0  0  0  0  0  0  0  0  0  0  0  0
  145.7994  137.8126  161.1749 H   0  0  0  0  0  0  0  0  0  0  0  0
  147.4458  136.9508  163.2771 H   0  0  0  0  0  0  0  0  0  0  0  0
  148.7198  135.1027  160.6728 H   0  0  0  0  0  0  0  0  0  0  0  0
  147.2198  134.8407  159.8166 H   0  0  0  0  0  0  0  0  0  0  0  0
  146.1094  137.2712  158.8330 H   0  0  0  0  0  0  0  0  0  0  0  0
  151.9600  141.0575  157.2875 H   0  0  0  0  0  0  0  0  0  0  0  0
  150.3861  142.7093  156.3868 H   0  0  0  0  0  0  0  0  0  0  0  0
  151.3910  142.3556  154.9769 H   0  0  0  0  0  0  0  0  0  0  0  0
  148.5564  141.6904  155.4286 H   0  0  0  0  0  0  0  0  0  0  0  0
  149.4721  141.3533  153.9587 H   0  0  0  0  0  0  0  0  0  0  0  0
  148.7038  139.2441  155.4328 H   0  0  0  0  0  0  0  0  0  0  0  0
  150.7799  139.4756  153.7038 H   0  0  0  0  0  0  0  0  0  0  0  0
  151.1030  137.2217  155.7416 H   0  0  0  0  0  0  0  0  0  0  0  0
  149.8154  137.2325  154.5508 H   0  0  0  0  0  0  0  0  0  0  0  0
  151.2270  136.9794  152.9891 H   0  0  0  0  0  0  0  0  0  0  0  0
  152.6808  140.3290  154.7851 H   0  0  0  0  0  0  0  0  0  0  0  0
  152.6136  139.0482  155.9905 H   0  0  0  0  0  0  0  0  0  0  0  0
  152.5251  137.2747  159.3661 H   0  0  0  0  0  0  0  0  0  0  0  0
  1  2  1  0  0  0  0
  1 27  1  0  0  0  0
  1 28  1  0  0  0  0
  1 29  1  0  0  0  0
  2  6  1  0  0  0  0
  2  3  1  0  0  0  0
  2 30  1  0  0  0  0
  3  4  1  0  0  0  0
  4  5  1  0  0  0  0
  4 31  1  0  0  0  0
  4 32  1  0  0  0  0
  5  6  1  0  0  0  0
  5 33  1  0  0  0  0
  5 34  1  0  0  0  0
  6  7  1  0  0  0  0
  6  8  1  0  0  0  0
  7 35  1  0  0  0  0
  8  9  1  0  0  0  0
  8 36  1  0  0  0  0
  8 37  1  0  0  0  0
  9 26  1  0  0  0  0
  9 10  1  0  0  0  0
 10 11  2  0  0  0  0
 10 38  1  0  0  0  0
 11 12  1  0  0  0  0
 12 26  2  0  0  0  0
 12 13  1  0  0  0  0
 13 14  1  0  0  0  0
 13 23  2  0  0  0  0
 14 18  1  0  0  0  0
 14 15  1  0  0  0  0
 15 22  1  0  0  0  0
 15 16  1  0  0  0  0
 15 39  1  0  0  0  0
 16 17  1  0  0  0  0
 16 40  1  0  0  0  0
 16 41  1  0  0  0  0
 17 18  1  0  0  0  0
 17 42  1  0  0  0  0
 17 43  1  0  0  0  0
 18 19  1  0  0  0  0
 18 44  1  0  0  0  0
 19 20  1  0  0  0  0
 19 22  1  0  0  0  0
 19 45  1  0  0  0  0
 20 21  1  0  0  0  0
 20 46  1  0  0  0  0
 20 47  1  0  0  0  0
 21 48  1  0  0  0  0
 22 49  1  0  0  0  0
 22 50  1  0  0  0  0
 23 24  1  0  0  0  0
 24 25  2  0  0  0  0
 24 51  1  0  0  0  0
 25 26  1  0  0  0  0
M  END
> <s_m_source_file>
AV-unprocessed.smi

> <i_m_source_file_index>
199

> <i_lp_mmshare_version>
43012

> <i_f3d_flags>
0

> <s_epik_input>
W0NIMl0xW0NIMl1PW0NAQEhdKFtDSDNdKVtDQEBdMShbT0hdKVtDSDJdbihbY0hdbjIpYyhjMjMpbltjSF1uYzNOKFtDQEBIXTQ1KVtDQEhdKFtDSDJdW0NIMl00KVtDQEhdKFtDSDJdNSlbQ0gyXVtPSF0=

> <s_epik_cmdline>
J2VwaWtfcHl0aG9uJywgJy1waCcsICc3LjAnLCAnLXRuJywgJzgnLCAnLW1hJywgJzIwMCcsICctbWV0YWxfYmluZGluZycsICctaW1hZScsICc8aW5maWxlLm1hZT4nLCAnLW9tYWUnLCAnPG91dGZpbGUubWFlPic=

> <r_lp_tautomer_probability>
1

> <r_epik_Ionization_Penalty>
0.00583903

> <r_epik_Ionization_Penalty_Charging>
0

> <r_epik_Ionization_Penalty_Neutral>
0.00583903

> <r_epik_State_Penalty>
-0

> <r_epik_Charging_Adjusted_Penalty>
0

> <i_epik_Tot_Q>
0

> <i_epik_Tot_abs_Q>
0

> <r_epik_Metal_State_Penalty>
-0

> <b_epik_Metal_Only>
0

> <s_lp_Force_Field>
OPLS_2005

> <r_lp_Energy>
83.4582

> <b_lp_Chiralities_Consistent>
1

> <s_lp_Variant>
AV-unprocessed.smi:199-13

> <Gold.Version>
5.8.1

> <Gold.Id.Protein>
6NUR|6NUR_protein|mol2

> <Gold.PLP.Fitness>
56.3251

> <Gold.PLP.PLP>
-44.7290

> <Gold.PLP.part.hbond>
-4.0091

> <Gold.PLP.part.metal>
0.0000

> <Gold.PLP.part.buried>
-6.5282

> <Gold.PLP.part.nonpolar>
-34.6309

> <Gold.PLP.part.repulsive>
0.0111

> <Gold.PLP.ligand.clash>
0.0000

> <Gold.PLP.ligand.torsion>
0.2072

> <Gold.PLP.Chemscore.Hbond>
4.0000

> <Gold.PLP.Chemscore.CHOScore>
0.0000

> <Gold.PLP.Chemscore.Metal>
0.0000

> <Gold.Chemscore.Hbonds>
donor molecule, donor type, donor heavy atom, donor atom, acceptor molecule, acceptor atom, score
      L1  H    21    48       P1  7949  0.88
      P1  H  6896  6909       L1    25  1.00
      P1  H  6931  6943       L1     7  1.00
      P1  H 10752 10765       L1    21  1.00

> <Gold.PLP.Chemscore.Internal.Correction>
0.0105

> <Gold.Rescore>
     Score         DG    S(hbond)    S(metal)    S(lipo)     H(rot)  DE(clash)    DE(int)     intcor
     16.71     -18.58       2.99        0.00      93.96       3.07       0.11       1.76       ----

> <Gold.Chemscore.Fitness>
16.7110

> <Gold.Chemscore.DG>
-18.5801

> <Gold.Chemscore.ZeroCoef>
-5.4800

> <Gold.Chemscore.Hbond>
2.9861

> <Gold.Chemscore.Metal>
0.0000

> <Gold.Chemscore.Lipo>
93.9585

> <Gold.Chemscore.Internal_Hbond>
0.0000

> <Gold.Chemscore.DEClash>
0.1116

> <Gold.Chemscore.DEInternal>
1.7576

> <Gold.Chemscore.Rot>
3.0729

> <Gold.Chemscore.Internal.Correction>
   9.000000E+99

> <Gold.Chemscore.Hbonds>
donor molecule, donor type, donor heavy atom, donor atom, acceptor molecule, acceptor atom, score
      L1  H    21    48       P1  7949  0.52
      P1  H  6896  6909       L1    25  0.78
      P1  H  6931  6943       L1     7  0.87
      P1  H 10752 10765       L1    21  0.74

> <Gold.Chemscore.Hbond.Weighted>
-9.9736

> <Gold.Chemscore.Metal.Weighted>
-0.0000

> <Gold.Chemscore.Lipo.Weighted>
-10.9932

> <Gold.Chemscore.Internal_Hbond.Weighted>
0.0000

> <Gold.Chemscore.DEClash.Weighted>
0.1116

> <Gold.Chemscore.DEInternal.Weighted>
1.7576

> <Gold.Chemscore.Rot.Weighted>
7.8667

> <Gold.Chemscore.Internal.Correction.Weighted>
   9.000000E+99

> <Gold.Protein.RotatedTorsions>
[ 6907 6896 6895 6894 ] final   92.14 input  -60.11 | X-H torsion
[ 7974 7965 7964 7962 ] final  -98.90 input  175.53 | X-H torsion
[ 8008 7997 7996 7995 ] final   79.44 input   59.86 | X-H torsion
[ 10167 10162 10161 10158 ] final  131.46 input  -65.29 | X-H torsion
[ 10718 10713 10712 10709 ] final  -87.62 input   66.30 | X-H torsion
[ 10763 10752 10751 10750 ] final  146.49 input  -60.55 | X-H torsion
[ 11005 11000 10999 10996 ] final  161.32 input  -57.11 | X-H torsion

> <Gold.Protein.ActiveResidues>
 VAL166  LYS551  ARG553  GLY616  TRP617  ASP618  TYR619  PRO620  LYS621  CYS622 
 ASP623  PHE694  ASN695  SER759  ASP760  ASP761  ALA762  ILE779  LEU786  VAL792 
 PHE793  MET794  SER795  GLU796  ALA797  LYS798  CYS799  TRP800  GLU811  SER814 

> <Gold.Protein.RotatedAtoms>
  152.5452  134.1548  159.8532 H   0  0  0  0  0  0  0  0  0  0  0  0  # atno 6907 bound_to 6896
  151.1571  133.4862  159.2602 H   0  0  0  0  0  0  0  0  0  0  0  0  # atno 6908 bound_to 6896
  151.1411  135.0191  159.8681 H   0  0  0  0  0  0  0  0  0  0  0  0  # atno 6909 bound_to 6896
  145.3146  140.9408  143.2750 H   0  0  0  0  0  0  0  0  0  0  0  0  # atno 7974 bound_to 7965
  155.8696  140.3449  155.5812 H   0  0  0  0  0  0  0  0  0  0  0  0  # atno 8008 bound_to 7997
  155.7842  140.0862  157.2062 H   0  0  0  0  0  0  0  0  0  0  0  0  # atno 8009 bound_to 7997
  154.4016  140.1495  156.3074 H   0  0  0  0  0  0  0  0  0  0  0  0  # atno 8010 bound_to 7997
  139.5383  144.6705  151.4711 H   0  0  0  0  0  0  0  0  0  0  0  0  # atno 10167 bound_to 10162
  155.9985  130.4806  150.4895 H   0  0  0  0  0  0  0  0  0  0  0  0  # atno 10718 bound_to 10713
  154.0228  135.2904  155.3379 H   0  0  0  0  0  0  0  0  0  0  0  0  # atno 10763 bound_to 10752
  154.7035  135.5178  153.8565 H   0  0  0  0  0  0  0  0  0  0  0  0  # atno 10764 bound_to 10752
  153.0673  135.6635  154.0448 H   0  0  0  0  0  0  0  0  0  0  0  0  # atno 10765 bound_to 10752
  140.2147  134.8241  157.3157 H   0  0  0  0  0  0  0  0  0  0  0  0  # atno 11005 bound_to 11000
  144.8988  139.4677  143.6642 LP  0  0  0  0  0  0  0  0  0  0  0  0  # atno 17320 bound_to 7965
  146.3105  139.7730  142.9023 LP  0  0  0  0  0  0  0  0  0  0  0  0  # atno 17321 bound_to 7965
  140.6601  143.8517  150.6878 LP  0  0  0  0  0  0  0  0  0  0  0  0  # atno 17342 bound_to 10162
  140.1909  143.4037  152.1864 LP  0  0  0  0  0  0  0  0  0  0  0  0  # atno 17343 bound_to 10162
  157.2892  131.0623  151.2145 LP  0  0  0  0  0  0  0  0  0  0  0  0  # atno 17370 bound_to 10713
  157.3164  130.6915  149.6244 LP  0  0  0  0  0  0  0  0  0  0  0  0  # atno 17371 bound_to 10713
  140.1913  134.4368  155.7714 LP  0  0  0  0  0  0  0  0  0  0  0  0  # atno 17394 bound_to 11000
  141.2225  133.7028  156.8032 LP  0  0  0  0  0  0  0  0  0  0  0  0  # atno 17395 bound_to 11000

$$$$
