AV-unprocessed.smi:2880|AV-procd|sdf|11052|dock1
  -GOLD-   2272015523D 1   1.00000     0.00000
 Structure written by MMmdl.
 47 48  0  0  0  0  0  0  0  0  1 V2000
  152.1530  140.2060  156.5256 C   0  0  0  0  0  0  0  0  0  0  0  0
  150.7557  140.8020  156.7896 C   0  0  0  0  0  0  0  0  0  0  0  0
  150.2929  140.3462  158.1942 C   0  0  0  0  0  0  0  0  0  0  0  0
  150.8366  142.3399  156.7687 C   0  0  0  0  0  0  0  0  0  0  0  0
  149.8337  140.3619  155.7333 N   0  0  0  0  0  0  0  0  0  0  0  0
  149.0333  141.1462  154.9188 C   0  0  0  0  0  0  0  0  0  0  0  0
  148.3132  140.3179  154.1056 C   0  0  0  0  0  0  0  0  0  0  0  0
  148.7318  139.0227  154.5100 C   0  0  0  0  0  0  0  0  0  0  0  0
  148.1984  137.8620  153.8938 N   0  0  0  0  0  0  0  0  0  0  0  0
  147.1387  137.1367  154.2908 C   0  0  0  0  0  0  0  0  0  0  0  0
  146.4545  137.3685  155.2882 O   0  0  0  0  0  0  0  0  0  0  0  0
  146.9178  136.1074  153.4595 N   0  0  0  0  0  0  0  0  0  0  0  0
  145.8412  135.1200  153.5729 C   0  0  1  0  0  0  0  0  0  0  0  0
  144.4826  135.8426  153.6734 C   0  0  0  0  0  0  0  0  0  0  0  0
  144.0816  136.5154  152.3491 C   0  0  0  0  0  0  0  0  0  0  0  0
  144.0927  135.5092  151.1893 C   0  0  0  0  0  0  0  0  0  0  0  0
  145.4530  134.8032  151.0721 C   0  0  0  0  0  0  0  0  0  0  0  0
  145.8501  134.1096  152.3952 C   0  0  1  0  0  0  0  0  0  0  0  0
  147.1860  133.3469  152.2761 C   0  0  0  0  0  0  0  0  0  0  0  0
  147.0525  132.2313  151.4201 O   0  0  0  0  0  0  0  0  0  0  0  0
  149.6269  139.0459  155.4858 N   0  0  0  0  0  0  0  0  0  0  0  0
  152.8602  140.4969  157.3031 H   0  0  0  0  0  0  0  0  0  0  0  0
  152.5663  140.5418  155.5742 H   0  0  0  0  0  0  0  0  0  0  0  0
  152.1195  139.1160  156.5044 H   0  0  0  0  0  0  0  0  0  0  0  0
  150.2074  139.2604  158.2554 H   0  0  0  0  0  0  0  0  0  0  0  0
  149.3247  140.7728  158.4603 H   0  0  0  0  0  0  0  0  0  0  0  0
  151.0004  140.6582  158.9631 H   0  0  0  0  0  0  0  0  0  0  0  0
  151.5075  142.7121  157.5435 H   0  0  0  0  0  0  0  0  0  0  0  0
  149.8575  142.7894  156.9376 H   0  0  0  0  0  0  0  0  0  0  0  0
  151.2073  142.7093  155.8119 H   0  0  0  0  0  0  0  0  0  0  0  0
  149.0398  142.2241  154.9836 H   0  0  0  0  0  0  0  0  0  0  0  0
  147.5973  140.5971  153.3468 H   0  0  0  0  0  0  0  0  0  0  0  0
  148.6746  137.5513  153.0600 H   0  0  0  0  0  0  0  0  0  0  0  0
  147.5385  136.0002  152.6709 H   0  0  0  0  0  0  0  0  0  0  0  0
  145.9704  134.5581  154.4996 H   0  0  0  0  0  0  0  0  0  0  0  0
  143.7139  135.1204  153.9522 H   0  0  0  0  0  0  0  0  0  0  0  0
  144.5062  136.5816  154.4753 H   0  0  0  0  0  0  0  0  0  0  0  0
  143.0907  136.9601  152.4445 H   0  0  0  0  0  0  0  0  0  0  0  0
  144.7650  137.3360  152.1278 H   0  0  0  0  0  0  0  0  0  0  0  0
  143.3094  134.7662  151.3438 H   0  0  0  0  0  0  0  0  0  0  0  0
  143.8558  136.0177  150.2544 H   0  0  0  0  0  0  0  0  0  0  0  0
  145.4058  134.0734  150.2634 H   0  0  0  0  0  0  0  0  0  0  0  0
  146.2172  135.5266  150.7852 H   0  0  0  0  0  0  0  0  0  0  0  0
  145.0805  133.3683  152.6179 H   0  0  0  0  0  0  0  0  0  0  0  0
  147.9780  133.9942  151.8982 H   0  0  0  0  0  0  0  0  0  0  0  0
  147.5044  132.9856  153.2545 H   0  0  0  0  0  0  0  0  0  0  0  0
  147.9122  131.9796  151.1190 H   0  0  0  0  0  0  0  0  0  0  0  0
  1  2  1  0  0  0  0
  1 22  1  0  0  0  0
  1 23  1  0  0  0  0
  1 24  1  0  0  0  0
  2  3  1  0  0  0  0
  2  4  1  0  0  0  0
  2  5  1  0  0  0  0
  3 25  1  0  0  0  0
  3 26  1  0  0  0  0
  3 27  1  0  0  0  0
  4 28  1  0  0  0  0
  4 29  1  0  0  0  0
  4 30  1  0  0  0  0
  5 21  1  0  0  0  0
  5  6  1  0  0  0  0
  6  7  2  0  0  0  0
  6 31  1  0  0  0  0
  7  8  1  0  0  0  0
  7 32  1  0  0  0  0
  8  9  1  0  0  0  0
  8 21  2  0  0  0  0
  9 10  1  0  0  0  0
  9 33  1  0  0  0  0
 10 11  2  0  0  0  0
 10 12  1  0  0  0  0
 12 13  1  0  0  0  0
 12 34  1  0  0  0  0
 13 18  1  0  0  0  0
 13 14  1  0  0  0  0
 13 35  1  0  0  0  0
 14 15  1  0  0  0  0
 14 36  1  0  0  0  0
 14 37  1  0  0  0  0
 15 16  1  0  0  0  0
 15 38  1  0  0  0  0
 15 39  1  0  0  0  0
 16 17  1  0  0  0  0
 16 40  1  0  0  0  0
 16 41  1  0  0  0  0
 17 18  1  0  0  0  0
 17 42  1  0  0  0  0
 17 43  1  0  0  0  0
 18 19  1  0  0  0  0
 18 44  1  0  0  0  0
 19 20  1  0  0  0  0
 19 45  1  0  0  0  0
 19 46  1  0  0  0  0
 20 47  1  0  0  0  0
M  END
> <s_m_source_file>
AV-unprocessed.smi

> <i_m_source_file_index>
2880

> <i_lp_mmshare_version>
43012

> <i_f3d_flags>
0

> <s_epik_input>
W0NIM11DKFtDSDNdKShbQ0gzXSluMVtjSF1bY0hdYyhuMSlbTkhdQyg9TylbTkhdW0NAQEhdMltDSDJdW0NIMl1bQ0gyXVtDSDJdW0NASF0yW0NIMl1bT0hd

> <s_epik_cmdline>
J2VwaWtfcHl0aG9uJywgJy1waCcsICc3LjAnLCAnLXRuJywgJzgnLCAnLW1hJywgJzIwMCcsICctbWV0YWxfYmluZGluZycsICctaW1hZScsICc8aW5maWxlLm1hZT4nLCAnLW9tYWUnLCAnPG91dGZpbGUubWFlPic=

> <r_lp_tautomer_probability>
1

> <r_epik_Ionization_Penalty>
3.89283e-05

> <r_epik_Ionization_Penalty_Charging>
0

> <r_epik_Ionization_Penalty_Neutral>
3.89283e-05

> <r_epik_State_Penalty>
-0

> <r_epik_Charging_Adjusted_Penalty>
0

> <i_epik_Tot_Q>
0

> <i_epik_Tot_abs_Q>
0

> <r_epik_Metal_State_Penalty>
-0

> <b_epik_Metal_Only>
0

> <s_lp_Force_Field>
OPLS_2005

> <r_lp_Energy>
20.5246

> <b_lp_Chiralities_Consistent>
1

> <s_lp_Variant>
AV-unprocessed.smi:2880-2

> <Gold.Version>
5.8.1

> <Gold.Id.Protein>
6NUR|6NUR_protein|mol2

> <Gold.PLP.Fitness>
39.1933

> <Gold.PLP.PLP>
-29.4541

> <Gold.PLP.part.hbond>
-3.0000

> <Gold.PLP.part.metal>
0.0000

> <Gold.PLP.part.buried>
-2.9517

> <Gold.PLP.part.nonpolar>
-23.8907

> <Gold.PLP.part.repulsive>
0.0794

> <Gold.PLP.ligand.clash>
0.0000

> <Gold.PLP.ligand.torsion>
0.9106

> <Gold.PLP.Chemscore.Hbond>
2.9920

> <Gold.PLP.Chemscore.CHOScore>
0.8482

> <Gold.PLP.Chemscore.Metal>
0.0000

> <Gold.Chemscore.Hbonds>
donor molecule, donor type, donor heavy atom, donor atom, acceptor molecule, acceptor atom, score
      L1  H     9    33       P1  7948  0.99
      L1  H    12    34       P1  7948  1.00
      L1  H    20    47       P1 10747  1.00
      L1  C     6    31       P1  8028  0.88

> <Gold.PLP.Chemscore.Internal.Correction>
0.0397

> <Gold.Rescore>
     Score         DG    S(hbond)    S(metal)    S(lipo)     H(rot)  DE(clash)    DE(int)     intcor
     16.18     -17.29       2.82        0.00      63.47       1.97       0.04       1.06       ----

> <Gold.Chemscore.Fitness>
16.1821

> <Gold.Chemscore.DG>
-17.2856

> <Gold.Chemscore.ZeroCoef>
-5.4800

> <Gold.Chemscore.Hbond>
2.8189

> <Gold.Chemscore.Metal>
0.0000

> <Gold.Chemscore.Lipo>
63.4744

> <Gold.Chemscore.Internal_Hbond>
0.0000

> <Gold.Chemscore.DEClash>
0.0402

> <Gold.Chemscore.DEInternal>
1.0633

> <Gold.Chemscore.Rot>
1.9672

> <Gold.Chemscore.Internal.Correction>
   9.000000E+99

> <Gold.Chemscore.Hbonds>
donor molecule, donor type, donor heavy atom, donor atom, acceptor molecule, acceptor atom, score
      L1  H     9    33       P1  7948  0.93
      L1  H    12    34       P1  7948  0.98
      L1  H    20    47       P1 10747  0.95

> <Gold.Chemscore.Hbond.Weighted>
-9.4151

> <Gold.Chemscore.Metal.Weighted>
-0.0000

> <Gold.Chemscore.Lipo.Weighted>
-7.4265

> <Gold.Chemscore.Internal_Hbond.Weighted>
0.0000

> <Gold.Chemscore.DEClash.Weighted>
0.0402

> <Gold.Chemscore.DEInternal.Weighted>
1.0633

> <Gold.Chemscore.Rot.Weighted>
5.0360

> <Gold.Chemscore.Internal.Correction.Weighted>
   9.000000E+99

> <Gold.Protein.RotatedTorsions>
[ 6907 6896 6895 6894 ] final  101.63 input  -60.11 | X-H torsion
[ 7974 7965 7964 7962 ] final   17.71 input  175.53 | X-H torsion
[ 8008 7997 7996 7995 ] final  -36.01 input   59.86 | X-H torsion
[ 10167 10162 10161 10158 ] final  126.51 input  -65.29 | X-H torsion
[ 10718 10713 10712 10709 ] final  -16.65 input   66.30 | X-H torsion
[ 10763 10752 10751 10750 ] final   31.28 input  -60.55 | X-H torsion
[ 11005 11000 10999 10996 ] final -148.74 input  -57.11 | X-H torsion

> <Gold.Protein.ActiveResidues>
 VAL166  LYS551  ARG553  GLY616  TRP617  ASP618  TYR619  PRO620  LYS621  CYS622 
 ASP623  PHE694  ASN695  SER759  ASP760  ASP761  ALA762  ILE779  LEU786  VAL792 
 PHE793  MET794  SER795  GLU796  ALA797  LYS798  CYS799  TRP800  GLU811  SER814 

> <Gold.Protein.RotatedAtoms>
  152.5344  134.0097  159.7932 H   0  0  0  0  0  0  0  0  0  0  0  0  # atno 6907 bound_to 6896
  151.0301  133.5790  159.2669 H   0  0  0  0  0  0  0  0  0  0  0  0  # atno 6908 bound_to 6896
  151.2798  135.0717  159.9218 H   0  0  0  0  0  0  0  0  0  0  0  0  # atno 6909 bound_to 6896
  146.2209  139.8563  142.8613 H   0  0  0  0  0  0  0  0  0  0  0  0  # atno 7974 bound_to 7965
  154.4082  140.1642  156.2305 H   0  0  0  0  0  0  0  0  0  0  0  0  # atno 8008 bound_to 7997
  155.9287  140.3416  155.6208 H   0  0  0  0  0  0  0  0  0  0  0  0  # atno 8009 bound_to 7997
  155.7133  140.0759  157.2352 H   0  0  0  0  0  0  0  0  0  0  0  0  # atno 8010 bound_to 7997
  139.5627  144.6892  151.3997 H   0  0  0  0  0  0  0  0  0  0  0  0  # atno 10167 bound_to 10162
  156.5847  130.4783  149.6305 H   0  0  0  0  0  0  0  0  0  0  0  0  # atno 10718 bound_to 10713
  153.0324  135.6443  154.1176 H   0  0  0  0  0  0  0  0  0  0  0  0  # atno 10763 bound_to 10752
  154.0896  135.2867  155.3276 H   0  0  0  0  0  0  0  0  0  0  0  0  # atno 10764 bound_to 10752
  154.6474  135.5438  153.7924 H   0  0  0  0  0  0  0  0  0  0  0  0  # atno 10765 bound_to 10752
  140.7581  134.3330  157.5109 H   0  0  0  0  0  0  0  0  0  0  0  0  # atno 11005 bound_to 11000
  145.2750  141.0121  143.3750 LP  0  0  0  0  0  0  0  0  0  0  0  0  # atno 17320 bound_to 7965
  144.9194  139.4430  143.6548 LP  0  0  0  0  0  0  0  0  0  0  0  0  # atno 17321 bound_to 7965
  140.6908  143.7865  150.7253 LP  0  0  0  0  0  0  0  0  0  0  0  0  # atno 17342 bound_to 10162
  140.1347  143.4494  152.2232 LP  0  0  0  0  0  0  0  0  0  0  0  0  # atno 17343 bound_to 10162
  156.2601  130.6957  151.1723 LP  0  0  0  0  0  0  0  0  0  0  0  0  # atno 17370 bound_to 10713
  157.7318  131.0605  150.5659 LP  0  0  0  0  0  0  0  0  0  0  0  0  # atno 17371 bound_to 10713
  139.8775  134.9184  156.3203 LP  0  0  0  0  0  0  0  0  0  0  0  0  # atno 17394 bound_to 11000
  140.9689  133.7340  156.0506 LP  0  0  0  0  0  0  0  0  0  0  0  0  # atno 17395 bound_to 11000

$$$$
