AV-unprocessed.smi:21|AV-procd|sdf|142|dock3
  -GOLD-   2262015343D 1   1.00000     0.00000
 Structure written by MMmdl.
 62 65  0  0  0  0  0  0  0  0  2 V2000
  150.8629  145.4485  159.7539 C   0  0  0  0  0  0  0  0  0  0  0  0
  151.6137  144.4460  160.4210 O   0  0  0  0  0  0  0  0  0  0  0  0
  152.6958  143.9331  159.6544 C   0  0  2  0  0  0  0  0  0  0  0  0
  152.1551  143.4069  158.3317 C   0  0  0  0  0  0  0  0  0  0  0  0
  151.6129  142.0159  158.6821 C   0  0  1  0  0  0  0  0  0  0  0  0
  151.4803  141.0627  157.4689 C   0  0  0  0  0  0  0  0  0  0  0  0
  150.1952  140.3611  157.4452 N   0  0  0  0  0  0  0  0  0  0  0  0
  149.2703  140.6509  156.3568 C   0  0  0  0  0  0  0  0  0  0  0  0
  150.0270  139.2350  158.1929 C   0  0  0  0  0  0  0  0  0  0  0  0
  151.1105  138.7311  158.8413 N   0  0  0  0  0  0  0  0  0  0  0  0
  151.0083  137.6308  159.5909 C   0  0  0  0  0  0  0  0  0  0  0  0
  149.9324  136.8800  159.8245 N   0  0  0  0  0  0  0  0  0  0  0  0
  148.8385  137.3690  159.1751 C   0  0  0  0  0  0  0  0  0  0  0  0
  148.7943  138.5289  158.3472 C   0  0  0  0  0  0  0  0  0  0  0  0
  147.5045  138.6919  157.8508 N   0  0  0  0  0  0  0  0  0  0  0  0
  146.8290  137.6997  158.3608 C   0  0  0  0  0  0  0  0  0  0  0  0
  147.5513  136.8606  159.1757 N   0  0  0  0  0  0  0  0  0  0  0  0
  147.0481  135.6865  159.8682 C   0  0  0  0  0  0  0  0  0  0  0  0
  147.3733  135.6856  161.3821 C   0  0  1  0  0  0  0  0  0  0  0  0
  146.8058  136.9557  162.0579 C   0  0  0  0  0  0  0  0  0  0  0  0
  147.6920  137.4265  163.0521 O   0  0  0  0  0  0  0  0  0  0  0  0
  146.9467  134.3644  162.0820 C   0  0  2  0  0  0  0  0  0  0  0  0
  147.3917  133.0732  161.4063 C   0  0  0  0  0  0  0  0  0  0  0  0
  146.3471  132.0823  161.8985 C   0  0  0  0  0  0  0  0  0  0  0  0
  145.1488  132.8387  161.8418 O   0  0  0  0  0  0  0  0  0  0  0  0
  145.4315  134.1679  162.2678 C   0  0  0  0  0  0  0  0  0  0  0  0
  152.4652  141.5273  159.8047 N   0  3  1  0  0  0  0  0  0  0  0  0
  153.2687  140.3034  159.5725 C   0  0  0  0  0  0  0  0  0  0  0  0
  153.2773  142.6674  160.2945 C   0  0  0  0  0  0  0  0  0  0  0  0
  153.4508  144.7035  159.4880 H   0  0  0  0  0  0  0  0  0  0  0  0
  150.6224  142.1493  159.1197 H   0  0  0  0  0  0  0  0  0  0  0  0
  150.0518  145.7845  160.3996 H   0  0  0  0  0  0  0  0  0  0  0  0
  150.4190  145.0621  158.8356 H   0  0  0  0  0  0  0  0  0  0  0  0
  151.4733  146.3170  159.5071 H   0  0  0  0  0  0  0  0  0  0  0  0
  151.4010  144.0611  157.8925 H   0  0  0  0  0  0  0  0  0  0  0  0
  152.9742  143.3173  157.6167 H   0  0  0  0  0  0  0  0  0  0  0  0
  151.6586  141.5993  156.5374 H   0  0  0  0  0  0  0  0  0  0  0  0
  152.2561  140.2986  157.5200 H   0  0  0  0  0  0  0  0  0  0  0  0
  148.2373  140.4955  156.6699 H   0  0  0  0  0  0  0  0  0  0  0  0
  149.4777  140.0161  155.4950 H   0  0  0  0  0  0  0  0  0  0  0  0
  149.3641  141.6893  156.0386 H   0  0  0  0  0  0  0  0  0  0  0  0
  151.9185  137.3061  160.0733 H   0  0  0  0  0  0  0  0  0  0  0  0
  145.7778  137.5524  158.1584 H   0  0  0  0  0  0  0  0  0  0  0  0
  145.9698  135.6500  159.7093 H   0  0  0  0  0  0  0  0  0  0  0  0
  147.4569  134.7939  159.3938 H   0  0  0  0  0  0  0  0  0  0  0  0
  148.4596  135.7337  161.4774 H   0  0  0  0  0  0  0  0  0  0  0  0
  146.6438  137.7506  161.3298 H   0  0  0  0  0  0  0  0  0  0  0  0
  145.8468  136.7633  162.5367 H   0  0  0  0  0  0  0  0  0  0  0  0
  148.0258  136.6847  163.5333 H   0  0  0  0  0  0  0  0  0  0  0  0
  147.3632  134.3538  163.0898 H   0  0  0  0  0  0  0  0  0  0  0  0
  147.3319  133.1445  160.3210 H   0  0  0  0  0  0  0  0  0  0  0  0
  148.4077  132.7803  161.6704 H   0  0  0  0  0  0  0  0  0  0  0  0
  146.2889  131.1861  161.2805 H   0  0  0  0  0  0  0  0  0  0  0  0
  146.5457  131.7828  162.9290 H   0  0  0  0  0  0  0  0  0  0  0  0
  145.1589  134.2787  163.3181 H   0  0  0  0  0  0  0  0  0  0  0  0
  144.8260  134.8739  161.7005 H   0  0  0  0  0  0  0  0  0  0  0  0
  153.9705  140.4380  158.7484 H   0  0  0  0  0  0  0  0  0  0  0  0
  152.6317  139.4459  159.3567 H   0  0  0  0  0  0  0  0  0  0  0  0
  153.8438  140.0590  160.4663 H   0  0  0  0  0  0  0  0  0  0  0  0
  154.3080  142.5517  159.9550 H   0  0  0  0  0  0  0  0  0  0  0  0
  153.2980  142.6982  161.3834 H   0  0  0  0  0  0  0  0  0  0  0  0
  151.8203  141.2991  160.5480 H   0  0  0  0  0  0  0  0  0  0  0  0
  1  2  1  0  0  0  0
  1 32  1  0  0  0  0
  1 33  1  0  0  0  0
  1 34  1  0  0  0  0
  2  3  1  0  0  0  0
  3 30  1  0  0  0  0
  3 29  1  0  0  0  0
  3  4  1  0  0  0  0
  4  5  1  0  0  0  0
  4 35  1  0  0  0  0
  4 36  1  0  0  0  0
  5 31  1  0  0  0  0
  5  6  1  0  0  0  0
  5 27  1  0  0  0  0
  6  7  1  0  0  0  0
  6 37  1  0  0  0  0
  6 38  1  0  0  0  0
  7  8  1  0  0  0  0
  7  9  1  0  0  0  0
  8 39  1  0  0  0  0
  8 40  1  0  0  0  0
  8 41  1  0  0  0  0
  9 14  1  0  0  0  0
  9 10  2  0  0  0  0
 10 11  1  0  0  0  0
 11 12  2  0  0  0  0
 11 42  1  0  0  0  0
 12 13  1  0  0  0  0
 13 17  1  0  0  0  0
 13 14  2  0  0  0  0
 14 15  1  0  0  0  0
 15 16  2  0  0  0  0
 16 17  1  0  0  0  0
 16 43  1  0  0  0  0
 17 18  1  0  0  0  0
 18 19  1  0  0  0  0
 18 44  1  0  0  0  0
 18 45  1  0  0  0  0
 19 20  1  0  0  0  0
 19 22  1  0  0  0  0
 19 46  1  0  0  0  0
 20 21  1  0  0  0  0
 20 47  1  0  0  0  0
 20 48  1  0  0  0  0
 21 49  1  0  0  0  0
 22 26  1  0  0  0  0
 22 23  1  0  0  0  0
 22 50  1  0  0  0  0
 23 24  1  0  0  0  0
 23 51  1  0  0  0  0
 23 52  1  0  0  0  0
 24 25  1  0  0  0  0
 24 53  1  0  0  0  0
 24 54  1  0  0  0  0
 25 26  1  0  0  0  0
 26 55  1  0  0  0  0
 26 56  1  0  0  0  0
 27 28  1  0  0  0  0
 27 29  1  0  0  0  0
 27 62  1  0  0  0  0
 28 57  1  0  0  0  0
 28 58  1  0  0  0  0
 28 59  1  0  0  0  0
 29 60  1  0  0  0  0
 29 61  1  0  0  0  0
M  CHG  1  27   1
M  END
> <s_m_source_file>
AV-unprocessed.smi

> <i_m_source_file_index>
21

> <i_lp_mmshare_version>
43012

> <i_f3d_flags>
0

> <s_epik_input>
W0NIM11PW0NASF0xW0NIMl1bQ0BIXShOKFtDSDNdKVtDSDJdMSlbQ0gyXU4oW0NIM10pYyhuW2NIXW4yKWMoYzIzKW5bY0hdbjNbQ0gyXVtDQEhdKFtDSDJdW09IXSlbQ0BASF00W0NIMl1bQ0gyXU9bQ0gyXTQ=

> <s_epik_cmdline>
J2VwaWtfcHl0aG9uJywgJy1waCcsICc3LjAnLCAnLXRuJywgJzgnLCAnLW1hJywgJzIwMCcsICctbWV0YWxfYmluZGluZycsICctaW1hZScsICc8aW5maWxlLm1hZT4nLCAnLW9tYWUnLCAnPG91dGZpbGUubWFlPic=

> <r_lp_tautomer_probability>
1

> <r_epik_Ionization_Penalty>
0.0157465

> <r_epik_Ionization_Penalty_Charging>
0.015354

> <r_epik_Ionization_Penalty_Neutral>
0.000392529

> <r_epik_State_Penalty>
0.0120612

> <r_epik_Charging_Adjusted_Penalty>
0.0274152

> <i_epik_Tot_Q>
1

> <i_epik_Tot_abs_Q>
1

> <r_epik_Metal_State_Penalty>
0.0121253

> <b_epik_Metal_Only>
0

> <s_lp_Force_Field>
OPLS_2005

> <r_lp_Energy>
62.7223

> <b_lp_Chiralities_Consistent>
1

> <s_lp_Variant>
AV-unprocessed.smi:21-22

> <Gold.Version>
5.8.1

> <Gold.Id.Protein>
6NUR|6NUR_protein|mol2

> <Gold.PLP.Fitness>
53.0032

> <Gold.PLP.PLP>
-50.2482

> <Gold.PLP.part.hbond>
-2.0000

> <Gold.PLP.part.metal>
0.0000

> <Gold.PLP.part.buried>
-9.9174

> <Gold.PLP.part.nonpolar>
-39.4646

> <Gold.PLP.part.repulsive>
0.2876

> <Gold.PLP.ligand.clash>
0.0000

> <Gold.PLP.ligand.torsion>
1.5672

> <Gold.PLP.Chemscore.Hbond>
1.7520

> <Gold.PLP.Chemscore.CHOScore>
0.0000

> <Gold.PLP.Chemscore.Metal>
0.0000

> <Gold.Chemscore.Hbonds>
donor molecule, donor type, donor heavy atom, donor atom, acceptor molecule, acceptor atom, score
      P1  H  6896  6908       L1    12  0.48
      P1  H  6931  6943       L1    21  0.56

> <Gold.PLP.Chemscore.Internal.Correction>
0.6335

> <Gold.Rescore>
     Score         DG    S(hbond)    S(metal)    S(lipo)     H(rot)  DE(clash)    DE(int)     intcor
     13.15     -17.08       1.75        0.00     116.39       3.08       0.01       3.92       ----

> <Gold.Chemscore.Fitness>
13.1547

> <Gold.Chemscore.DG>
-17.0824

> <Gold.Chemscore.ZeroCoef>
-5.4800

> <Gold.Chemscore.Hbond>
1.7543

> <Gold.Chemscore.Metal>
0.0000

> <Gold.Chemscore.Lipo>
116.3870

> <Gold.Chemscore.Internal_Hbond>
0.0000

> <Gold.Chemscore.DEClash>
0.0073

> <Gold.Chemscore.DEInternal>
3.9204

> <Gold.Chemscore.Rot>
3.0758

> <Gold.Chemscore.Internal.Correction>
   9.000000E+99

> <Gold.Chemscore.Hbonds>
donor molecule, donor type, donor heavy atom, donor atom, acceptor molecule, acceptor atom, score
      P1  H  6896  6908       L1    12  0.14
      P1  H  6931  6943       L1    21  0.14

> <Gold.Chemscore.Hbond.Weighted>
-5.8593

> <Gold.Chemscore.Metal.Weighted>
-0.0000

> <Gold.Chemscore.Lipo.Weighted>
-13.6173

> <Gold.Chemscore.Internal_Hbond.Weighted>
0.0000

> <Gold.Chemscore.DEClash.Weighted>
0.0073

> <Gold.Chemscore.DEInternal.Weighted>
3.9204

> <Gold.Chemscore.Rot.Weighted>
7.8741

> <Gold.Chemscore.Internal.Correction.Weighted>
   9.000000E+99

> <Gold.Protein.RotatedTorsions>
[ 6907 6896 6895 6894 ] final -174.30 input  -60.11 | X-H torsion
[ 7974 7965 7964 7962 ] final -151.33 input  175.53 | X-H torsion
[ 8008 7997 7996 7995 ] final  -69.82 input   59.86 | X-H torsion
[ 10167 10162 10161 10158 ] final -116.14 input  -65.29 | X-H torsion
[ 10718 10713 10712 10709 ] final   23.32 input   66.30 | X-H torsion
[ 10763 10752 10751 10750 ] final   79.58 input  -60.55 | X-H torsion
[ 11005 11000 10999 10996 ] final  108.50 input  -57.11 | X-H torsion

> <Gold.Protein.ActiveResidues>
 VAL166  LYS551  ARG553  GLY616  TRP617  ASP618  TYR619  PRO620  LYS621  CYS622 
 ASP623  PHE694  ASN695  SER759  ASP760  ASP761  ALA762  ILE779  LEU786  VAL792 
 PHE793  MET794  SER795  GLU796  ALA797  LYS798  CYS799  TRP800  GLU811  SER814 

> <Gold.Protein.RotatedAtoms>
  151.5702  133.3391  159.2987 H   0  0  0  0  0  0  0  0  0  0  0  0  # atno 6907 bound_to 6896
  150.8372  134.7653  159.6914 H   0  0  0  0  0  0  0  0  0  0  0  0  # atno 6908 bound_to 6896
  152.4446  134.5528  159.9923 H   0  0  0  0  0  0  0  0  0  0  0  0  # atno 6909 bound_to 6896
  144.7856  140.4812  143.5808 H   0  0  0  0  0  0  0  0  0  0  0  0  # atno 7974 bound_to 7965
  154.4966  140.0846  156.7710 H   0  0  0  0  0  0  0  0  0  0  0  0  # atno 8008 bound_to 7997
  155.4101  140.3441  155.4245 H   0  0  0  0  0  0  0  0  0  0  0  0  # atno 8009 bound_to 7997
  156.1402  140.1527  156.8920 H   0  0  0  0  0  0  0  0  0  0  0  0  # atno 8010 bound_to 7997
  140.0824  143.4775  152.1918 H   0  0  0  0  0  0  0  0  0  0  0  0  # atno 10167 bound_to 10162
  157.1644  130.6731  149.6055 H   0  0  0  0  0  0  0  0  0  0  0  0  # atno 10718 bound_to 10713
  153.0964  135.4834  154.8786 H   0  0  0  0  0  0  0  0  0  0  0  0  # atno 10763 bound_to 10752
  154.7329  135.3064  154.8863 H   0  0  0  0  0  0  0  0  0  0  0  0  # atno 10764 bound_to 10752
  153.9493  135.6825  153.4797 H   0  0  0  0  0  0  0  0  0  0  0  0  # atno 10765 bound_to 10752
  139.8845  134.9432  156.5983 H   0  0  0  0  0  0  0  0  0  0  0  0  # atno 11005 bound_to 11000
  145.5931  139.1497  143.3171 LP  0  0  0  0  0  0  0  0  0  0  0  0  # atno 17320 bound_to 7965
  146.2086  140.6056  142.9070 LP  0  0  0  0  0  0  0  0  0  0  0  0  # atno 17321 bound_to 7965
  139.5772  144.7493  151.3735 LP  0  0  0  0  0  0  0  0  0  0  0  0  # atno 17342 bound_to 10162
  140.7071  143.7486  150.7501 LP  0  0  0  0  0  0  0  0  0  0  0  0  # atno 17343 bound_to 10162
  155.9748  130.4700  150.6416 LP  0  0  0  0  0  0  0  0  0  0  0  0  # atno 17370 bound_to 10713
  157.4102  131.0822  151.1228 LP  0  0  0  0  0  0  0  0  0  0  0  0  # atno 17371 bound_to 10713
  140.7903  133.8587  155.8641 LP  0  0  0  0  0  0  0  0  0  0  0  0  # atno 17394 bound_to 11000
  140.9683  134.1565  157.4598 LP  0  0  0  0  0  0  0  0  0  0  0  0  # atno 17395 bound_to 11000

$$$$
