AV-unprocessed.smi:1120|AV-procd|sdf|4822|dock3
  -GOLD-   22720 3383D 1   1.00000     0.00000
 Structure written by MMmdl.
 47 48  0  0  0  0  0  0  0  0  2 V2000
  152.2583  144.5330  159.7187 C   0  0  0  0  0  0  0  0  0  0  0  0
  151.5666  143.2356  159.2779 C   0  0  2  0  0  0  0  0  0  0  0  0
  152.1732  141.9938  159.9712 C   0  0  0  0  0  0  0  0  0  0  0  0
  151.5217  140.6676  159.5053 C   0  0  0  0  0  0  0  0  0  0  0  0
  151.5832  140.4576  157.9729 C   0  0  1  0  0  0  0  0  0  0  0  0
  150.8462  139.2522  157.6163 N   0  5  0  0  0  0  0  0  0  0  0  0
  151.5346  138.1180  156.6817 S   0  0  0  0  0  0  0  0  0  0  0  0
  152.6361  138.6570  155.8667 O   0  0  0  0  0  0  0  0  0  0  0  0
  151.7935  136.8615  157.4037 O   0  0  0  0  0  0  0  0  0  0  0  0
  150.1480  137.7587  155.5117 C   0  0  0  0  0  0  0  0  0  0  0  0
  149.3922  136.4930  155.9203 C   0  0  0  0  0  0  0  0  0  0  0  0
  149.3241  136.1703  157.1063 O   0  0  0  0  0  0  0  0  0  0  0  0
  148.8063  135.7993  154.9353 N   0  0  0  0  0  0  0  0  0  0  0  0
  148.0362  134.5749  155.1089 C   0  0  0  0  0  0  0  0  0  0  0  0
  147.3268  134.1754  153.8036 C   0  0  0  0  0  0  0  0  0  0  0  0
  146.7203  132.7829  153.8503 C   0  0  0  0  0  0  0  0  0  0  0  0
  147.0817  131.8733  154.8675 C   0  0  0  0  0  0  0  0  0  0  0  0
  146.5127  130.5857  154.8503 C   0  0  0  0  0  0  0  0  0  0  0  0
  145.6050  130.2595  153.8242 C   0  0  0  0  0  0  0  0  0  0  0  0
  145.3073  131.2398  152.8565 C   0  0  0  0  0  0  0  0  0  0  0  0
  145.8498  132.4766  152.8618 N   0  0  0  0  0  0  0  0  0  0  0  0
  150.9858  141.7090  157.2796 C   0  0  0  0  0  0  0  0  0  0  0  0
  151.6347  143.0366  157.7461 C   0  0  0  0  0  0  0  0  0  0  0  0
  153.3181  144.5241  159.4626 H   0  0  0  0  0  0  0  0  0  0  0  0
  152.1771  144.6733  160.7968 H   0  0  0  0  0  0  0  0  0  0  0  0
  151.8062  145.4009  159.2378 H   0  0  0  0  0  0  0  0  0  0  0  0
  150.5157  143.3039  159.5638 H   0  0  0  0  0  0  0  0  0  0  0  0
  153.2504  141.9625  159.7939 H   0  0  0  0  0  0  0  0  0  0  0  0
  152.0541  142.0878  161.0510 H   0  0  0  0  0  0  0  0  0  0  0  0
  152.0061  139.8316  160.0111 H   0  0  0  0  0  0  0  0  0  0  0  0
  150.4809  140.6583  159.8338 H   0  0  0  0  0  0  0  0  0  0  0  0
  152.6336  140.3776  157.6905 H   0  0  0  0  0  0  0  0  0  0  0  0
  149.4718  138.6135  155.5112 H   0  0  0  0  0  0  0  0  0  0  0  0
  150.5566  137.6504  154.5074 H   0  0  0  0  0  0  0  0  0  0  0  0
  148.9182  136.1377  153.9896 H   0  0  0  0  0  0  0  0  0  0  0  0
  148.6878  133.7639  155.4373 H   0  0  0  0  0  0  0  0  0  0  0  0
  147.3011  134.7359  155.8984 H   0  0  0  0  0  0  0  0  0  0  0  0
  146.5387  134.8965  153.5822 H   0  0  0  0  0  0  0  0  0  0  0  0
  148.0289  134.2317  152.9708 H   0  0  0  0  0  0  0  0  0  0  0  0
  147.7885  132.1502  155.6366 H   0  0  0  0  0  0  0  0  0  0  0  0
  146.7702  129.8611  155.6085 H   0  0  0  0  0  0  0  0  0  0  0  0
  145.1498  129.2814  153.7788 H   0  0  0  0  0  0  0  0  0  0  0  0
  144.6165  131.0237  152.0549 H   0  0  0  0  0  0  0  0  0  0  0  0
  151.0996  141.6279  156.1987 H   0  0  0  0  0  0  0  0  0  0  0  0
  149.9125  141.7555  157.4703 H   0  0  0  0  0  0  0  0  0  0  0  0
  151.1353  143.8693  157.2496 H   0  0  0  0  0  0  0  0  0  0  0  0
  152.6750  143.0775  157.4166 H   0  0  0  0  0  0  0  0  0  0  0  0
  1  2  1  0  0  0  0
  1 24  1  0  0  0  0
  1 25  1  0  0  0  0
  1 26  1  0  0  0  0
  2 23  1  0  0  0  0
  2  3  1  0  0  0  0
  2 27  1  0  0  0  0
  3  4  1  0  0  0  0
  3 28  1  0  0  0  0
  3 29  1  0  0  0  0
  4  5  1  0  0  0  0
  4 30  1  0  0  0  0
  4 31  1  0  0  0  0
  5  6  1  0  0  0  0
  5 22  1  0  0  0  0
  5 32  1  0  0  0  0
  6  7  1  0  0  0  0
  7  8  2  0  0  0  0
  7  9  2  0  0  0  0
  7 10  1  0  0  0  0
 10 11  1  0  0  0  0
 10 33  1  0  0  0  0
 10 34  1  0  0  0  0
 11 12  2  0  0  0  0
 11 13  1  0  0  0  0
 13 14  1  0  0  0  0
 13 35  1  0  0  0  0
 14 15  1  0  0  0  0
 14 36  1  0  0  0  0
 14 37  1  0  0  0  0
 15 16  1  0  0  0  0
 15 38  1  0  0  0  0
 15 39  1  0  0  0  0
 16 21  1  0  0  0  0
 16 17  2  0  0  0  0
 17 18  1  0  0  0  0
 17 40  1  0  0  0  0
 18 19  2  0  0  0  0
 18 41  1  0  0  0  0
 19 20  1  0  0  0  0
 19 42  1  0  0  0  0
 20 21  2  0  0  0  0
 20 43  1  0  0  0  0
 22 23  1  0  0  0  0
 22 44  1  0  0  0  0
 22 45  1  0  0  0  0
 23 46  1  0  0  0  0
 23 47  1  0  0  0  0
M  CHG  1   6  -1
M  END
> <s_m_source_file>
AV-unprocessed.smi

> <i_m_source_file_index>
1120

> <i_lp_mmshare_version>
43012

> <i_f3d_flags>
0

> <s_epik_input>
W0NIM11bQ0BASF0xW0NIMl1bQ0gyXVtDQEhdKFtDSDJdW0NIMl0xKVtOSF1TKD1PKSg9TylbQ0gyXUMoPU8pW05IXVtDSDJdW0NIMl1jMltjSF1bY0hdW2NIXVtjSF1uMg==

> <s_epik_cmdline>
J2VwaWtfcHl0aG9uJywgJy1waCcsICc3LjAnLCAnLXRuJywgJzgnLCAnLW1hJywgJzIwMCcsICctbWV0YWxfYmluZGluZycsICctaW1hZScsICc8aW5maWxlLm1hZT4nLCAnLW9tYWUnLCAnPG91dGZpbGUubWFlPic=

> <r_epik_Ionization_Penalty>
5.68623

> <r_epik_Ionization_Penalty_Charging>
5.66033

> <r_epik_Ionization_Penalty_Neutral>
0.0259005

> <r_epik_State_Penalty>
5.67764

> <r_epik_Charging_Adjusted_Penalty>
11.338

> <i_epik_Tot_Q>
-1

> <i_epik_Tot_abs_Q>
1

> <r_epik_Metal_State_Penalty>
1.68319

> <b_epik_Metal_Only>
1

> <s_lp_Force_Field>
OPLS_2005

> <r_lp_Energy>
8.54043

> <b_lp_Chiralities_Consistent>
1

> <s_lp_Variant>
AV-unprocessed.smi:1120-5

> <Gold.Version>
5.8.1

> <Gold.Id.Protein>
6NUR|6NUR_protein|mol2

> <Gold.PLP.Fitness>
49.7873

> <Gold.PLP.PLP>
-44.5919

> <Gold.PLP.part.hbond>
-3.9587

> <Gold.PLP.part.metal>
0.0000

> <Gold.PLP.part.buried>
-4.8464

> <Gold.PLP.part.nonpolar>
-36.5458

> <Gold.PLP.part.repulsive>
0.2165

> <Gold.PLP.ligand.clash>
0.0000

> <Gold.PLP.ligand.torsion>
1.6904

> <Gold.PLP.Chemscore.Hbond>
2.4788

> <Gold.PLP.Chemscore.CHOScore>
0.0000

> <Gold.PLP.Chemscore.Metal>
0.0000

> <Gold.Chemscore.Hbonds>
donor molecule, donor type, donor heavy atom, donor atom, acceptor molecule, acceptor atom, score
      L1  H    13    35       P1  7948  0.80
      P1  H  7997  8009       L1     8  0.03

> <Gold.PLP.Chemscore.Internal.Correction>
1.1397

> <Gold.Rescore>
     Score         DG    S(hbond)    S(metal)    S(lipo)     H(rot)  DE(clash)    DE(int)     intcor
     17.20     -20.37       2.28        0.00     102.85       1.86       0.05       3.12       ----

> <Gold.Chemscore.Fitness>
17.2015

> <Gold.Chemscore.DG>
-20.3711

> <Gold.Chemscore.ZeroCoef>
-5.4800

> <Gold.Chemscore.Hbond>
2.2815

> <Gold.Chemscore.Metal>
0.0000

> <Gold.Chemscore.Lipo>
102.8464

> <Gold.Chemscore.Internal_Hbond>
0.0000

> <Gold.Chemscore.DEClash>
0.0489

> <Gold.Chemscore.DEInternal>
3.1207

> <Gold.Chemscore.Rot>
1.8602

> <Gold.Chemscore.Internal.Correction>
   9.000000E+99

> <Gold.Chemscore.Hbonds>
donor molecule, donor type, donor heavy atom, donor atom, acceptor molecule, acceptor atom, score
      L1  H    13    35       P1  7948  0.78
      P1  H  7997  8009       L1     8  0.07

> <Gold.Chemscore.Hbond.Weighted>
-7.6202

> <Gold.Chemscore.Metal.Weighted>
-0.0000

> <Gold.Chemscore.Lipo.Weighted>
-12.0330

> <Gold.Chemscore.Internal_Hbond.Weighted>
0.0000

> <Gold.Chemscore.DEClash.Weighted>
0.0489

> <Gold.Chemscore.DEInternal.Weighted>
3.1207

> <Gold.Chemscore.Rot.Weighted>
4.7622

> <Gold.Chemscore.Internal.Correction.Weighted>
   9.000000E+99

> <Gold.Protein.RotatedTorsions>
[ 6907 6896 6895 6894 ] final   79.39 input  -60.11 | X-H torsion
[ 7974 7965 7964 7962 ] final  -22.29 input  175.53 | X-H torsion
[ 8008 7997 7996 7995 ] final -129.72 input   59.86 | X-H torsion
[ 10167 10162 10161 10158 ] final  -24.40 input  -65.29 | X-H torsion
[ 10718 10713 10712 10709 ] final  -53.69 input   66.30 | X-H torsion
[ 10763 10752 10751 10750 ] final -129.90 input  -60.55 | X-H torsion
[ 11005 11000 10999 10996 ] final  112.13 input  -57.11 | X-H torsion

> <Gold.Protein.ActiveResidues>
 VAL166  LYS551  ARG553  GLY616  TRP617  ASP618  TYR619  PRO620  LYS621  CYS622 
 ASP623  PHE694  ASN695  SER759  ASP760  ASP761  ALA762  ILE779  LEU786  VAL792 
 PHE793  MET794  SER795  GLU796  ALA797  LYS798  CYS799  TRP800  GLU811  SER814 

> <Gold.Protein.RotatedAtoms>
  152.5197  134.3518  159.9253 H   0  0  0  0  0  0  0  0  0  0  0  0  # atno 6907 bound_to 6896
  151.3469  133.3934  159.2684 H   0  0  0  0  0  0  0  0  0  0  0  0  # atno 6908 bound_to 6896
  150.9758  134.9141  159.7873 H   0  0  0  0  0  0  0  0  0  0  0  0  # atno 6909 bound_to 6896
  146.1684  140.4458  142.8542 H   0  0  0  0  0  0  0  0  0  0  0  0  # atno 7974 bound_to 7965
  155.2839  140.0445  157.3018 H   0  0  0  0  0  0  0  0  0  0  0  0  # atno 8008 bound_to 7997
  154.5581  140.2337  155.8347 H   0  0  0  0  0  0  0  0  0  0  0  0  # atno 8009 bound_to 7997
  156.2024  140.3022  155.9562 H   0  0  0  0  0  0  0  0  0  0  0  0  # atno 8010 bound_to 7997
  140.7288  143.4357  151.0734 H   0  0  0  0  0  0  0  0  0  0  0  0  # atno 10167 bound_to 10162
  156.1513  130.4151  149.9940 H   0  0  0  0  0  0  0  0  0  0  0  0  # atno 10718 bound_to 10713
  154.8757  135.3880  154.3995 H   0  0  0  0  0  0  0  0  0  0  0  0  # atno 10763 bound_to 10752
  153.4722  135.7030  153.5992 H   0  0  0  0  0  0  0  0  0  0  0  0  # atno 10764 bound_to 10752
  153.4444  135.3848  155.2215 H   0  0  0  0  0  0  0  0  0  0  0  0  # atno 10765 bound_to 10752
  139.8920  134.9523  156.6538 H   0  0  0  0  0  0  0  0  0  0  0  0  # atno 11005 bound_to 11000
  144.8127  140.6413  143.6405 LP  0  0  0  0  0  0  0  0  0  0  0  0  # atno 17320 bound_to 7965
  145.4405  139.1536  143.3973 LP  0  0  0  0  0  0  0  0  0  0  0  0  # atno 17321 bound_to 7965
  139.8018  143.8073  152.3163 LP  0  0  0  0  0  0  0  0  0  0  0  0  # atno 17342 bound_to 10162
  139.8092  144.7343  150.9720 LP  0  0  0  0  0  0  0  0  0  0  0  0  # atno 17343 bound_to 10162
  156.7797  130.9216  151.3646 LP  0  0  0  0  0  0  0  0  0  0  0  0  # atno 17370 bound_to 10713
  157.6659  130.9007  149.9931 LP  0  0  0  0  0  0  0  0  0  0  0  0  # atno 17371 bound_to 10713
  140.7500  133.8905  155.8340 LP  0  0  0  0  0  0  0  0  0  0  0  0  # atno 17394 bound_to 11000
  141.0008  134.1152  157.4318 LP  0  0  0  0  0  0  0  0  0  0  0  0  # atno 17395 bound_to 11000

$$$$
