AV-unprocessed.smi:2224|AV-procd|sdf|8997|dock5
  -GOLD-   2272012203D 1   1.00000     0.00000
 Structure written by MMmdl.
 44 46  0  0  0  0  0  0  0  0  1 V2000
  144.8886  132.3667  150.6462 C   0  0  0  0  0  0  0  0  0  0  0  0
  144.6663  133.5527  151.5610 C   0  0  0  0  0  0  0  0  0  0  0  0
  143.3788  133.8672  152.0364 C   0  0  0  0  0  0  0  0  0  0  0  0
  143.2376  134.9832  152.8842 C   0  0  0  0  0  0  0  0  0  0  0  0
  141.8827  135.3766  153.4342 C   0  0  0  0  0  0  0  0  0  0  0  0
  144.2769  135.7589  153.2600 N   0  0  0  0  0  0  0  0  0  0  0  0
  145.5216  135.4659  152.8082 C   0  0  0  0  0  0  0  0  0  0  0  0
  146.6794  136.2168  153.1455 N   0  0  0  0  0  0  0  0  0  0  0  0
  146.8486  137.0631  154.1768 C   0  0  0  0  0  0  0  0  0  0  0  0
  145.9921  137.3487  155.0140 O   0  0  0  0  0  0  0  0  0  0  0  0
  148.0901  137.5677  154.1930 N   0  0  0  0  0  0  0  0  0  0  0  0
  148.5875  138.5132  155.1983 C   0  0  2  0  0  0  0  0  0  0  0  0
  147.9999  139.9173  155.0321 C   0  0  2  0  0  0  0  0  0  0  0  0
  146.8306  140.5069  154.3295 C   0  0  0  0  0  0  0  0  0  0  0  0
  147.5509  141.7689  153.7812 C   0  0  0  0  0  0  0  0  0  0  0  0
  148.9657  141.5611  154.0273 O   0  0  0  0  0  0  0  0  0  0  0  0
  149.1076  140.1544  154.0268 C   0  0  1  0  0  0  0  0  0  0  0  0
  149.9764  139.1928  154.8680 C   0  0  0  0  0  0  0  0  0  0  0  0
  150.7605  139.8019  156.0446 C   0  0  0  0  0  0  0  0  0  0  0  0
  150.9932  138.3649  154.0742 C   0  0  0  0  0  0  0  0  0  0  0  0
  145.7499  134.3646  151.9526 C   0  0  0  0  0  0  0  0  0  0  0  0
  143.9692  131.7983  150.5034 H   0  0  0  0  0  0  0  0  0  0  0  0
  145.6395  131.6989  151.0688 H   0  0  0  0  0  0  0  0  0  0  0  0
  145.2373  132.7037  149.6698 H   0  0  0  0  0  0  0  0  0  0  0  0
  142.5227  133.2693  151.7591 H   0  0  0  0  0  0  0  0  0  0  0  0
  141.0811  134.8276  152.9392 H   0  0  0  0  0  0  0  0  0  0  0  0
  141.7043  136.4422  153.2866 H   0  0  0  0  0  0  0  0  0  0  0  0
  141.8334  135.1644  154.5024 H   0  0  0  0  0  0  0  0  0  0  0  0
  147.4737  136.0854  152.5373 H   0  0  0  0  0  0  0  0  0  0  0  0
  148.7351  137.2843  153.4702 H   0  0  0  0  0  0  0  0  0  0  0  0
  148.5183  138.1456  156.2235 H   0  0  0  0  0  0  0  0  0  0  0  0
  148.1533  140.4643  155.9656 H   0  0  0  0  0  0  0  0  0  0  0  0
  146.4616  139.8651  153.5286 H   0  0  0  0  0  0  0  0  0  0  0  0
  146.0087  140.7512  155.0027 H   0  0  0  0  0  0  0  0  0  0  0  0
  147.3638  141.8899  152.7135 H   0  0  0  0  0  0  0  0  0  0  0  0
  147.2231  142.6775  154.2869 H   0  0  0  0  0  0  0  0  0  0  0  0
  148.8995  139.7523  153.0299 H   0  0  0  0  0  0  0  0  0  0  0  0
  151.5013  140.5209  155.6937 H   0  0  0  0  0  0  0  0  0  0  0  0
  151.2943  139.0334  156.6045 H   0  0  0  0  0  0  0  0  0  0  0  0
  150.1315  140.3240  156.7636 H   0  0  0  0  0  0  0  0  0  0  0  0
  151.8719  138.9543  153.8108 H   0  0  0  0  0  0  0  0  0  0  0  0
  150.5759  137.9905  153.1393 H   0  0  0  0  0  0  0  0  0  0  0  0
  151.3348  137.5002  154.6443 H   0  0  0  0  0  0  0  0  0  0  0  0
  146.7464  134.1413  151.5990 H   0  0  0  0  0  0  0  0  0  0  0  0
  1  2  1  0  0  0  0
  1 22  1  0  0  0  0
  1 23  1  0  0  0  0
  1 24  1  0  0  0  0
  2 21  1  0  0  0  0
  2  3  2  0  0  0  0
  3  4  1  0  0  0  0
  3 25  1  0  0  0  0
  4  5  1  0  0  0  0
  4  6  2  0  0  0  0
  5 26  1  0  0  0  0
  5 27  1  0  0  0  0
  5 28  1  0  0  0  0
  6  7  1  0  0  0  0
  7  8  1  0  0  0  0
  7 21  2  0  0  0  0
  8  9  1  0  0  0  0
  8 29  1  0  0  0  0
  9 10  2  0  0  0  0
  9 11  1  0  0  0  0
 11 12  1  0  0  0  0
 11 30  1  0  0  0  0
 12 18  1  0  0  0  0
 12 13  1  0  0  0  0
 12 31  1  0  0  0  0
 13 17  1  0  0  0  0
 13 14  1  0  0  0  0
 13 32  1  0  0  0  0
 14 15  1  0  0  0  0
 14 33  1  0  0  0  0
 14 34  1  0  0  0  0
 15 16  1  0  0  0  0
 15 35  1  0  0  0  0
 15 36  1  0  0  0  0
 16 17  1  0  0  0  0
 17 18  1  0  0  0  0
 17 37  1  0  0  0  0
 18 19  1  0  0  0  0
 18 20  1  0  0  0  0
 19 38  1  0  0  0  0
 19 39  1  0  0  0  0
 19 40  1  0  0  0  0
 20 41  1  0  0  0  0
 20 42  1  0  0  0  0
 20 43  1  0  0  0  0
 21 44  1  0  0  0  0
M  END
> <s_m_source_file>
AV-unprocessed.smi

> <i_m_source_file_index>
2224

> <i_lp_mmshare_version>
43012

> <i_f3d_flags>
0

> <s_epik_input>
W0NIM11jMVtjSF1jKFtDSDNdKW5jKFtjSF0xKVtOSF1DKD1PKVtOSF1bQ0BIXTJDKFtDSDNdKShbQ0gzXSlbQ0BIXShbQ0BASF0yMylPW0NIMl1bQ0gyXTM=

> <s_epik_cmdline>
J2VwaWtfcHl0aG9uJywgJy1waCcsICc3LjAnLCAnLXRuJywgJzgnLCAnLW1hJywgJzIwMCcsICctbWV0YWxfYmluZGluZycsICctaW1hZScsICc8aW5maWxlLm1hZT4nLCAnLW9tYWUnLCAnPG91dGZpbGUubWFlPic=

> <r_lp_tautomer_probability>
1

> <r_epik_Ionization_Penalty>
0.000276544

> <r_epik_Ionization_Penalty_Charging>
0

> <r_epik_Ionization_Penalty_Neutral>
0.000276544

> <r_epik_State_Penalty>
-0

> <r_epik_Charging_Adjusted_Penalty>
0

> <i_epik_Tot_Q>
0

> <i_epik_Tot_abs_Q>
0

> <r_epik_Metal_State_Penalty>
-0

> <b_epik_Metal_Only>
0

> <s_lp_Force_Field>
OPLS_2005

> <r_lp_Energy>
64.3879

> <b_lp_Chiralities_Consistent>
1

> <s_lp_Variant>
AV-unprocessed.smi:2224-7

> <Gold.Version>
5.8.1

> <Gold.Id.Protein>
6NUR|6NUR_protein|mol2

> <Gold.PLP.Fitness>
39.3212

> <Gold.PLP.PLP>
-31.8455

> <Gold.PLP.part.hbond>
-3.2930

> <Gold.PLP.part.metal>
0.0000

> <Gold.PLP.part.buried>
-4.6975

> <Gold.PLP.part.nonpolar>
-23.6664

> <Gold.PLP.part.repulsive>
0.2916

> <Gold.PLP.ligand.clash>
0.0000

> <Gold.PLP.ligand.torsion>
0.2110

> <Gold.PLP.Chemscore.Hbond>
2.5463

> <Gold.PLP.Chemscore.CHOScore>
0.0000

> <Gold.PLP.Chemscore.Metal>
0.0000

> <Gold.Chemscore.Hbonds>
donor molecule, donor type, donor heavy atom, donor atom, acceptor molecule, acceptor atom, score
      L1  H     8    29       P1  7948  1.00
      L1  H    11    30       P1  7948  0.93
      P1  H  8011  8017       L1    16  0.58

> <Gold.PLP.Chemscore.Internal.Correction>
0.2589

> <Gold.Rescore>
     Score         DG    S(hbond)    S(metal)    S(lipo)     H(rot)  DE(clash)    DE(int)     intcor
     16.79     -18.31       1.97        0.00      75.31       1.00       0.08       1.44       ----

> <Gold.Chemscore.Fitness>
16.7947

> <Gold.Chemscore.DG>
-18.3091

> <Gold.Chemscore.ZeroCoef>
-5.4800

> <Gold.Chemscore.Hbond>
1.9695

> <Gold.Chemscore.Metal>
0.0000

> <Gold.Chemscore.Lipo>
75.3064

> <Gold.Chemscore.Internal_Hbond>
0.0000

> <Gold.Chemscore.DEClash>
0.0764

> <Gold.Chemscore.DEInternal>
1.4380

> <Gold.Chemscore.Rot>
1.0000

> <Gold.Chemscore.Internal.Correction>
   9.000000E+99

> <Gold.Chemscore.Hbonds>
donor molecule, donor type, donor heavy atom, donor atom, acceptor molecule, acceptor atom, score
      L1  H     8    29       P1  7948  0.99
      L1  H    11    30       P1  7948  0.89
      P1  H  8011  8017       L1    16  0.14

> <Gold.Chemscore.Hbond.Weighted>
-6.5782

> <Gold.Chemscore.Metal.Weighted>
-0.0000

> <Gold.Chemscore.Lipo.Weighted>
-8.8108

> <Gold.Chemscore.Internal_Hbond.Weighted>
0.0000

> <Gold.Chemscore.DEClash.Weighted>
0.0764

> <Gold.Chemscore.DEInternal.Weighted>
1.4380

> <Gold.Chemscore.Rot.Weighted>
2.5600

> <Gold.Chemscore.Internal.Correction.Weighted>
   9.000000E+99

> <Gold.Protein.RotatedTorsions>
[ 6907 6896 6895 6894 ] final   99.50 input  -60.11 | X-H torsion
[ 7974 7965 7964 7962 ] final -154.38 input  175.53 | X-H torsion
[ 8008 7997 7996 7995 ] final    7.90 input   59.86 | X-H torsion
[ 10167 10162 10161 10158 ] final   70.94 input  -65.29 | X-H torsion
[ 10718 10713 10712 10709 ] final   40.47 input   66.30 | X-H torsion
[ 10763 10752 10751 10750 ] final    4.70 input  -60.55 | X-H torsion
[ 11005 11000 10999 10996 ] final -146.17 input  -57.11 | X-H torsion

> <Gold.Protein.ActiveResidues>
 VAL166  LYS551  ARG553  GLY616  TRP617  ASP618  TYR619  PRO620  LYS621  CYS622 
 ASP623  PHE694  ASN695  SER759  ASP760  ASP761  ALA762  ILE779  LEU786  VAL792 
 PHE793  MET794  SER795  GLU796  ALA797  LYS798  CYS799  TRP800  GLU811  SER814 

> <Gold.Protein.RotatedAtoms>
  152.5390  134.0418  159.8070 H   0  0  0  0  0  0  0  0  0  0  0  0  # atno 6907 bound_to 6896
  151.0573  133.5566  159.2644 H   0  0  0  0  0  0  0  0  0  0  0  0  # atno 6908 bound_to 6896
  151.2478  135.0619  159.9104 H   0  0  0  0  0  0  0  0  0  0  0  0  # atno 6909 bound_to 6896
  144.7692  140.4396  143.5919 H   0  0  0  0  0  0  0  0  0  0  0  0  # atno 7974 bound_to 7965
  154.7598  140.2782  155.6223 H   0  0  0  0  0  0  0  0  0  0  0  0  # atno 8008 bound_to 7997
  156.2913  140.2662  156.2301 H   0  0  0  0  0  0  0  0  0  0  0  0  # atno 8009 bound_to 7997
  155.0031  140.0372  157.2358 H   0  0  0  0  0  0  0  0  0  0  0  0  # atno 8010 bound_to 7997
  140.0514  144.5308  150.7360 H   0  0  0  0  0  0  0  0  0  0  0  0  # atno 10167 bound_to 10162
  157.3825  130.7761  149.7204 H   0  0  0  0  0  0  0  0  0  0  0  0  # atno 10718 bound_to 10713
  153.2682  135.6929  153.7508 H   0  0  0  0  0  0  0  0  0  0  0  0  # atno 10763 bound_to 10752
  153.6541  135.3371  155.3109 H   0  0  0  0  0  0  0  0  0  0  0  0  # atno 10764 bound_to 10752
  154.8454  135.4461  154.1695 H   0  0  0  0  0  0  0  0  0  0  0  0  # atno 10765 bound_to 10752
  140.7847  134.3038  157.5034 H   0  0  0  0  0  0  0  0  0  0  0  0  # atno 11005 bound_to 11000
  145.6375  139.1545  143.2934 LP  0  0  0  0  0  0  0  0  0  0  0  0  # atno 17320 bound_to 7965
  146.1825  140.6474  142.9182 LP  0  0  0  0  0  0  0  0  0  0  0  0  # atno 17321 bound_to 7965
  140.7215  143.2593  151.4264 LP  0  0  0  0  0  0  0  0  0  0  0  0  # atno 17342 bound_to 10162
  139.5950  144.1416  152.2133 LP  0  0  0  0  0  0  0  0  0  0  0  0  # atno 17343 bound_to 10162
  155.9779  130.4057  150.3683 LP  0  0  0  0  0  0  0  0  0  0  0  0  # atno 17370 bound_to 10713
  157.1788  131.0387  151.2758 LP  0  0  0  0  0  0  0  0  0  0  0  0  # atno 17371 bound_to 10713
  139.8738  134.9339  156.3594 LP  0  0  0  0  0  0  0  0  0  0  0  0  # atno 17394 bound_to 11000
  140.9448  133.7490  156.0194 LP  0  0  0  0  0  0  0  0  0  0  0  0  # atno 17395 bound_to 11000

$$$$
