AV-unprocessed.smi:2538|AV-procd|sdf|9984|dock7
  -GOLD-   2272014 33D 1   1.00000     0.00000
 Structure written by MMmdl.
 49 50  0  0  0  0  0  0  0  0  2 V2000
  152.1947  145.0059  160.6758 C   0  0  0  0  0  0  0  0  0  0  0  0
  151.9888  143.8360  159.7291 C   0  0  0  0  0  0  0  0  0  0  0  0
  151.2438  144.0482  158.5468 C   0  0  0  0  0  0  0  0  0  0  0  0
  151.0722  142.9590  157.7010 C   0  0  0  0  0  0  0  0  0  0  0  0
  150.4005  142.8418  156.4818 N   0  3  0  0  0  0  0  0  0  0  0  0
  150.5065  141.5629  156.0255 C   0  0  0  0  0  0  0  0  0  0  0  0
  151.2361  140.8627  156.9359 N   0  0  0  0  0  0  0  0  0  0  0  0
  151.6387  139.4502  156.9439 C   0  0  0  0  0  0  0  0  0  0  0  0
  151.1882  138.6970  155.6762 C   0  0  1  0  0  0  0  0  0  0  0  0
  151.8219  139.2960  154.5630 O   0  0  0  0  0  0  0  0  0  0  0  0
  151.5717  137.2021  155.7266 C   0  0  0  0  0  0  0  0  0  0  0  0
  150.4354  136.3198  156.0546 N   0  0  0  0  0  0  0  0  0  0  0  0
  150.0802  135.3194  155.0388 C   0  0  0  0  0  0  0  0  0  0  0  0
  150.0160  136.0079  157.7118 S   0  0  0  0  0  0  0  0  0  0  0  0
  149.6518  134.5860  157.8161 O   0  0  0  0  0  0  0  0  0  0  0  0
  151.1116  136.5413  158.5364 O   0  0  0  0  0  0  0  0  0  0  0  0
  148.5018  137.0516  157.9882 C   0  0  0  0  0  0  0  0  0  0  0  0
  148.0245  136.9439  159.4436 C   0  0  0  0  0  0  0  0  0  0  0  0
  147.3910  136.6633  157.0016 C   0  0  0  0  0  0  0  0  0  0  0  0
  151.6122  141.6928  157.9967 C   0  0  0  0  0  0  0  0  0  0  0  0
  152.3495  141.4657  159.1561 C   0  0  0  0  0  0  0  0  0  0  0  0
  152.5344  142.5609  160.0297 C   0  0  0  0  0  0  0  0  0  0  0  0
  153.3324  142.3435  161.3042 C   0  0  0  0  0  0  0  0  0  0  0  0
  151.7031  145.9076  160.3093 H   0  0  0  0  0  0  0  0  0  0  0  0
  153.2566  145.2269  160.7858 H   0  0  0  0  0  0  0  0  0  0  0  0
  151.7837  144.7798  161.6597 H   0  0  0  0  0  0  0  0  0  0  0  0
  150.8252  145.0160  158.3117 H   0  0  0  0  0  0  0  0  0  0  0  0
  150.0836  141.1738  155.1103 H   0  0  0  0  0  0  0  0  0  0  0  0
  152.7245  139.4152  157.0453 H   0  0  0  0  0  0  0  0  0  0  0  0
  151.2277  138.9858  157.8414 H   0  0  0  0  0  0  0  0  0  0  0  0
  150.1116  138.8193  155.5692 H   0  0  0  0  0  0  0  0  0  0  0  0
  152.6780  138.9092  154.4602 H   0  0  0  0  0  0  0  0  0  0  0  0
  152.0476  136.8795  154.7999 H   0  0  0  0  0  0  0  0  0  0  0  0
  152.3291  137.0487  156.4964 H   0  0  0  0  0  0  0  0  0  0  0  0
  150.2221  135.7168  154.0334 H   0  0  0  0  0  0  0  0  0  0  0  0
  149.0340  135.0318  155.1419 H   0  0  0  0  0  0  0  0  0  0  0  0
  150.6927  134.4249  155.1507 H   0  0  0  0  0  0  0  0  0  0  0  0
  148.7734  138.0870  157.7967 H   0  0  0  0  0  0  0  0  0  0  0  0
  147.1634  137.5883  159.6222 H   0  0  0  0  0  0  0  0  0  0  0  0
  148.8100  137.2455  160.1372 H   0  0  0  0  0  0  0  0  0  0  0  0
  147.7317  135.9231  159.6912 H   0  0  0  0  0  0  0  0  0  0  0  0
  146.5006  137.2739  157.1536 H   0  0  0  0  0  0  0  0  0  0  0  0
  147.1037  135.6184  157.1229 H   0  0  0  0  0  0  0  0  0  0  0  0
  147.7101  136.8040  155.9688 H   0  0  0  0  0  0  0  0  0  0  0  0
  152.7630  140.4943  159.3839 H   0  0  0  0  0  0  0  0  0  0  0  0
  153.6946  141.3176  161.3783 H   0  0  0  0  0  0  0  0  0  0  0  0
  152.7151  142.5430  162.1803 H   0  0  0  0  0  0  0  0  0  0  0  0
  154.1987  143.0046  161.3320 H   0  0  0  0  0  0  0  0  0  0  0  0
  149.9040  143.5778  155.9959 H   0  0  0  0  0  0  0  0  0  0  0  0
  1  2  1  0  0  0  0
  1 24  1  0  0  0  0
  1 25  1  0  0  0  0
  1 26  1  0  0  0  0
  2 22  1  0  0  0  0
  2  3  2  0  0  0  0
  3  4  1  0  0  0  0
  3 27  1  0  0  0  0
  4 20  2  0  0  0  0
  4  5  1  0  0  0  0
  5  6  2  0  0  0  0
  5 49  1  0  0  0  0
  6  7  1  0  0  0  0
  6 28  1  0  0  0  0
  7  8  1  0  0  0  0
  7 20  1  0  0  0  0
  8  9  1  0  0  0  0
  8 29  1  0  0  0  0
  8 30  1  0  0  0  0
  9 10  1  0  0  0  0
  9 11  1  0  0  0  0
  9 31  1  0  0  0  0
 10 32  1  0  0  0  0
 11 12  1  0  0  0  0
 11 33  1  0  0  0  0
 11 34  1  0  0  0  0
 12 13  1  0  0  0  0
 12 14  1  0  0  0  0
 13 35  1  0  0  0  0
 13 36  1  0  0  0  0
 13 37  1  0  0  0  0
 14 15  2  0  0  0  0
 14 16  2  0  0  0  0
 14 17  1  0  0  0  0
 17 18  1  0  0  0  0
 17 19  1  0  0  0  0
 17 38  1  0  0  0  0
 18 39  1  0  0  0  0
 18 40  1  0  0  0  0
 18 41  1  0  0  0  0
 19 42  1  0  0  0  0
 19 43  1  0  0  0  0
 19 44  1  0  0  0  0
 20 21  1  0  0  0  0
 21 22  2  0  0  0  0
 21 45  1  0  0  0  0
 22 23  1  0  0  0  0
 23 46  1  0  0  0  0
 23 47  1  0  0  0  0
 23 48  1  0  0  0  0
M  CHG  1   5   1
M  END
> <s_m_source_file>
AV-unprocessed.smi

> <i_m_source_file_index>
2538

> <i_lp_mmshare_version>
43012

> <i_f3d_flags>
0

> <s_epik_input>
W0NIM11jKFtjSF0xKWMoW0NIM10pW2NIXWMoYzEyKW4oW2NIXW4yKVtDSDJdW0NASF0oW09IXSlbQ0gyXU4oW0NIM10pUyg9TykoPU8pW0NIXShbQ0gzXSlbQ0gzXQ==

> <s_epik_cmdline>
J2VwaWtfcHl0aG9uJywgJy1waCcsICc3LjAnLCAnLXRuJywgJzgnLCAnLW1hJywgJzIwMCcsICctbWV0YWxfYmluZGluZycsICctaW1hZScsICc8aW5maWxlLm1hZT4nLCAnLW9tYWUnLCAnPG91dGZpbGUubWFlPic=

> <r_epik_Ionization_Penalty>
1.07686

> <r_epik_Ionization_Penalty_Charging>
1.07685

> <r_epik_Ionization_Penalty_Neutral>
1.40866e-06

> <r_epik_State_Penalty>
1.13193

> <r_epik_Charging_Adjusted_Penalty>
2.20879

> <i_epik_Tot_Q>
1

> <i_epik_Tot_abs_Q>
1

> <r_epik_Metal_State_Penalty>
5.12988

> <b_epik_Metal_Only>
0

> <s_lp_Force_Field>
OPLS_2005

> <r_lp_Energy>
10.053

> <b_lp_Chiralities_Consistent>
1

> <s_lp_Variant>
AV-unprocessed.smi:2538-4

> <Gold.Version>
5.8.1

> <Gold.Id.Protein>
6NUR|6NUR_protein|mol2

> <Gold.PLP.Fitness>
54.9732

> <Gold.PLP.PLP>
-43.0461

> <Gold.PLP.part.hbond>
-4.0000

> <Gold.PLP.part.metal>
0.0000

> <Gold.PLP.part.buried>
-6.3664

> <Gold.PLP.part.nonpolar>
-34.0607

> <Gold.PLP.part.repulsive>
0.0788

> <Gold.PLP.ligand.clash>
0.0000

> <Gold.PLP.ligand.torsion>
1.9066

> <Gold.PLP.Chemscore.Hbond>
4.3909

> <Gold.PLP.Chemscore.CHOScore>
0.0000

> <Gold.PLP.Chemscore.Metal>
0.0000

> <Gold.Chemscore.Hbonds>
donor molecule, donor type, donor heavy atom, donor atom, acceptor molecule, acceptor atom, score
      L1  H     5    49       P1  8028  2.00
      P1  H  6896  6908       L1    15  0.80
      P1  H  6896  6909       L1    16  0.60
      P1  H  7989  7998       L1    10  0.99

> <Gold.PLP.Chemscore.Internal.Correction>
2.5674

> <Gold.Rescore>
     Score         DG    S(hbond)    S(metal)    S(lipo)     H(rot)  DE(clash)    DE(int)     intcor
     19.07     -21.10       2.62        0.00     110.25       2.36       0.08       1.96       ----

> <Gold.Chemscore.Fitness>
19.0674

> <Gold.Chemscore.DG>
-21.1039

> <Gold.Chemscore.ZeroCoef>
-5.4800

> <Gold.Chemscore.Hbond>
2.6243

> <Gold.Chemscore.Metal>
0.0000

> <Gold.Chemscore.Lipo>
110.2471

> <Gold.Chemscore.Internal_Hbond>
0.0000

> <Gold.Chemscore.DEClash>
0.0786

> <Gold.Chemscore.DEInternal>
1.9580

> <Gold.Chemscore.Rot>
2.3595

> <Gold.Chemscore.Internal.Correction>
   9.000000E+99

> <Gold.Chemscore.Hbonds>
donor molecule, donor type, donor heavy atom, donor atom, acceptor molecule, acceptor atom, score
      L1  H     5    49       P1  8028  0.96
      P1  H  6896  6908       L1    15  0.43
      P1  H  6896  6909       L1    16  0.36
      P1  H  7989  7998       L1    10  0.70

> <Gold.Chemscore.Hbond.Weighted>
-8.7653

> <Gold.Chemscore.Metal.Weighted>
-0.0000

> <Gold.Chemscore.Lipo.Weighted>
-12.8989

> <Gold.Chemscore.Internal_Hbond.Weighted>
0.0000

> <Gold.Chemscore.DEClash.Weighted>
0.0786

> <Gold.Chemscore.DEInternal.Weighted>
1.9580

> <Gold.Chemscore.Rot.Weighted>
6.0403

> <Gold.Chemscore.Internal.Correction.Weighted>
   9.000000E+99

> <Gold.Protein.RotatedTorsions>
[ 6907 6896 6895 6894 ] final  120.25 input  -60.11 | X-H torsion
[ 7974 7965 7964 7962 ] final   68.96 input  175.53 | X-H torsion
[ 8008 7997 7996 7995 ] final  154.27 input   59.86 | X-H torsion
[ 10167 10162 10161 10158 ] final   48.43 input  -65.29 | X-H torsion
[ 10718 10713 10712 10709 ] final   32.65 input   66.30 | X-H torsion
[ 10763 10752 10751 10750 ] final  -19.87 input  -60.55 | X-H torsion
[ 11005 11000 10999 10996 ] final  -80.80 input  -57.11 | X-H torsion

> <Gold.Protein.ActiveResidues>
 VAL166  LYS551  ARG553  GLY616  TRP617  ASP618  TYR619  PRO620  LYS621  CYS622 
 ASP623  PHE694  ASN695  SER759  ASP760  ASP761  ALA762  ILE779  LEU786  VAL792 
 PHE793  MET794  SER795  GLU796  ALA797  LYS798  CYS799  TRP800  GLU811  SER814 

> <Gold.Protein.RotatedAtoms>
  152.4412  133.7452  159.6662 H   0  0  0  0  0  0  0  0  0  0  0  0  # atno 6907 bound_to 6896
  150.8303  133.8091  159.3107 H   0  0  0  0  0  0  0  0  0  0  0  0  # atno 6908 bound_to 6896
  151.5747  135.1063  160.0055 H   0  0  0  0  0  0  0  0  0  0  0  0  # atno 6909 bound_to 6896
  145.7963  139.2959  143.1181 H   0  0  0  0  0  0  0  0  0  0  0  0  # atno 7974 bound_to 7965
  156.2540  140.1971  156.6619 H   0  0  0  0  0  0  0  0  0  0  0  0  # atno 8008 bound_to 7997
  154.6458  140.0578  156.9924 H   0  0  0  0  0  0  0  0  0  0  0  0  # atno 8009 bound_to 7997
  155.1493  140.3250  155.4437 H   0  0  0  0  0  0  0  0  0  0  0  0  # atno 8010 bound_to 7997
  140.2934  144.3020  150.6235 H   0  0  0  0  0  0  0  0  0  0  0  0  # atno 10167 bound_to 10162
  157.2879  130.7287  149.6593 H   0  0  0  0  0  0  0  0  0  0  0  0  # atno 10718 bound_to 10713
  153.6115  135.6996  153.5345 H   0  0  0  0  0  0  0  0  0  0  0  0  # atno 10763 bound_to 10752
  153.3013  135.4128  155.1254 H   0  0  0  0  0  0  0  0  0  0  0  0  # atno 10764 bound_to 10752
  154.8562  135.3649  154.5654 H   0  0  0  0  0  0  0  0  0  0  0  0  # atno 10765 bound_to 10752
  141.1667  133.7167  156.8328 H   0  0  0  0  0  0  0  0  0  0  0  0  # atno 11005 bound_to 11000
  145.9925  140.8591  143.0059 LP  0  0  0  0  0  0  0  0  0  0  0  0  # atno 17320 bound_to 7965
  144.6775  140.2235  143.7363 LP  0  0  0  0  0  0  0  0  0  0  0  0  # atno 17321 bound_to 7965
  140.5713  143.2180  151.7594 LP  0  0  0  0  0  0  0  0  0  0  0  0  # atno 17342 bound_to 10162
  139.4932  144.4212  151.9975 LP  0  0  0  0  0  0  0  0  0  0  0  0  # atno 17343 bound_to 10162
  155.9666  130.4318  150.4935 LP  0  0  0  0  0  0  0  0  0  0  0  0  # atno 17370 bound_to 10713
  157.2892  131.0623  151.2145 LP  0  0  0  0  0  0  0  0  0  0  0  0  # atno 17371 bound_to 10713
  140.2039  134.8877  157.3200 LP  0  0  0  0  0  0  0  0  0  0  0  0  # atno 17394 bound_to 11000
  140.2158  134.4083  155.7590 LP  0  0  0  0  0  0  0  0  0  0  0  0  # atno 17395 bound_to 11000

$$$$
