AV-unprocessed.smi:2750|AV-procd|sdf|10594|dock5
  -GOLD-   2272015 43D 1   1.00000     0.00000
 Structure written by MMmdl.
 24 25  0  0  0  0  0  0  0  0  3 V2000
  152.7541  139.0234  156.6902 O   0  0  0  0  0  0  0  0  0  0  0  0
  152.7673  138.8056  155.4585 C   0  0  0  0  0  0  0  0  0  0  0  0
  153.7392  139.0035  154.6964 O   0  5  0  0  0  0  0  0  0  0  0  0
  151.5008  138.2172  154.8328 C   0  0  0  0  0  0  0  0  0  0  0  0
  150.6347  137.5757  155.8067 N   0  0  0  0  0  0  0  0  0  0  0  0
  149.8365  138.1647  156.7662 C   0  0  0  0  0  0  0  0  0  0  0  0
  149.2309  137.1014  157.3731 C   0  0  0  0  0  0  0  0  0  0  0  0
  148.2277  137.0873  158.4888 C   0  0  0  0  0  0  0  0  0  0  0  0
  148.6461  136.1858  159.6707 C   0  0  1  0  0  0  0  0  0  0  0  0
  147.8073  136.4036  160.8380 N   0  5  0  0  0  0  0  0  0  0  0  0
  147.2193  135.2304  161.1700 C   0  0  0  0  0  0  0  0  0  0  0  0
  146.4502  135.0117  162.1034 O   0  0  0  0  0  0  0  0  0  0  0  0
  147.5788  134.2637  160.3195 N   0  0  0  0  0  0  0  0  0  0  0  0
  148.4071  134.7160  159.3836 C   0  0  0  0  0  0  0  0  0  0  0  0
  148.9001  134.0808  158.4524 O   0  0  0  0  0  0  0  0  0  0  0  0
  149.6845  135.9265  156.7733 N   0  0  0  0  0  0  0  0  0  0  0  0
  150.5280  136.2250  155.8353 N   0  0  0  0  0  0  0  0  0  0  0  0
  150.9336  139.0015  154.3296 H   0  0  0  0  0  0  0  0  0  0  0  0
  151.7816  137.4907  154.0690 H   0  0  0  0  0  0  0  0  0  0  0  0
  149.7716  139.2309  156.9237 H   0  0  0  0  0  0  0  0  0  0  0  0
  148.0477  138.1049  158.8395 H   0  0  0  0  0  0  0  0  0  0  0  0
  147.2699  136.7452  158.0943 H   0  0  0  0  0  0  0  0  0  0  0  0
  149.7074  136.3192  159.8851 H   0  0  0  0  0  0  0  0  0  0  0  0
  147.2523  133.3108  160.3756 H   0  0  0  0  0  0  0  0  0  0  0  0
  1  2  2  0  0  0  0
  2  3  1  0  0  0  0
  2  4  1  0  0  0  0
  4  5  1  0  0  0  0
  4 18  1  0  0  0  0
  4 19  1  0  0  0  0
  5 17  1  0  0  0  0
  5  6  1  0  0  0  0
  6  7  2  0  0  0  0
  6 20  1  0  0  0  0
  7  8  1  0  0  0  0
  7 16  1  0  0  0  0
  8  9  1  0  0  0  0
  8 21  1  0  0  0  0
  8 22  1  0  0  0  0
  9 14  1  0  0  0  0
  9 10  1  0  0  0  0
  9 23  1  0  0  0  0
 10 11  1  0  0  0  0
 11 12  2  0  0  0  0
 11 13  1  0  0  0  0
 13 14  1  0  0  0  0
 13 24  1  0  0  0  0
 14 15  2  0  0  0  0
 16 17  2  0  0  0  0
M  CHG  1   3  -1
M  CHG  1  10  -1
M  END
> <s_m_source_file>
AV-unprocessed.smi

> <i_m_source_file_index>
2750

> <i_lp_mmshare_version>
43012

> <i_f3d_flags>
0

> <s_epik_input>
Tz1DKFtPSF0pW0NIMl1uMVtjSF1jKG5uMSlbQ0gyXVtDQEBIXTJbTkhdQyg9TylbTkhdQzI9Tw==

> <s_epik_cmdline>
J2VwaWtfcHl0aG9uJywgJy1waCcsICc3LjAnLCAnLXRuJywgJzgnLCAnLW1hJywgJzIwMCcsICctbWV0YWxfYmluZGluZycsICctaW1hZScsICc8aW5maWxlLm1hZT4nLCAnLW9tYWUnLCAnPG91dGZpbGUubWFlPic=

> <r_lp_tautomer_probability>
1

> <r_epik_Ionization_Penalty>
5.10791

> <r_epik_Ionization_Penalty_Charging>
5.10788

> <r_epik_Ionization_Penalty_Neutral>
2.55687e-05

> <r_epik_State_Penalty>
5.12334

> <r_epik_Charging_Adjusted_Penalty>
10.2312

> <i_epik_Tot_Q>
-2

> <i_epik_Tot_abs_Q>
2

> <r_epik_Metal_State_Penalty>
1.50935

> <b_epik_Metal_Only>
1

> <s_lp_Force_Field>
OPLS_2005

> <r_lp_Energy>
16.7857

> <b_lp_Chiralities_Consistent>
1

> <s_lp_Variant>
AV-unprocessed.smi:2750-6

> <Gold.Version>
5.8.1

> <Gold.Id.Protein>
6NUR|6NUR_protein|mol2

> <Gold.PLP.Fitness>
38.6503

> <Gold.PLP.PLP>
-20.4177

> <Gold.PLP.part.hbond>
-5.0000

> <Gold.PLP.part.metal>
0.0000

> <Gold.PLP.part.buried>
-2.9102

> <Gold.PLP.part.nonpolar>
-12.2153

> <Gold.PLP.part.repulsive>
0.1336

> <Gold.PLP.ligand.clash>
0.0000

> <Gold.PLP.ligand.torsion>
0.5848

> <Gold.PLP.Chemscore.Hbond>
6.4560

> <Gold.PLP.Chemscore.CHOScore>
0.0000

> <Gold.PLP.Chemscore.Metal>
0.0000

> <Gold.Chemscore.Hbonds>
donor molecule, donor type, donor heavy atom, donor atom, acceptor molecule, acceptor atom, score
      P1  H  6896  6907       L1    15  0.50
      P1  H  7997  8010       L1     1  0.90

> <Gold.PLP.Chemscore.Internal.Correction>
0.0342

> <Gold.Rescore>
     Score         DG    S(hbond)    S(metal)    S(lipo)     H(rot)  DE(clash)    DE(int)     intcor
      6.74      -9.73       2.78        0.00      18.08       2.80       0.02       2.97       ----

> <Gold.Chemscore.Fitness>
6.7395

> <Gold.Chemscore.DG>
-9.7295

> <Gold.Chemscore.ZeroCoef>
-5.4800

> <Gold.Chemscore.Hbond>
2.7829

> <Gold.Chemscore.Metal>
0.0000

> <Gold.Chemscore.Lipo>
18.0831

> <Gold.Chemscore.Internal_Hbond>
0.0000

> <Gold.Chemscore.DEClash>
0.0178

> <Gold.Chemscore.DEInternal>
2.9722

> <Gold.Chemscore.Rot>
2.7973

> <Gold.Chemscore.Internal.Correction>
   9.000000E+99

> <Gold.Chemscore.Hbonds>
donor molecule, donor type, donor heavy atom, donor atom, acceptor molecule, acceptor atom, score
      P1  H  6896  6907       L1    15  0.02
      P1  H  6931  6943       L1    10  0.01
      P1  H  7997  8010       L1     1  0.02

> <Gold.Chemscore.Hbond.Weighted>
-9.2949

> <Gold.Chemscore.Metal.Weighted>
-0.0000

> <Gold.Chemscore.Lipo.Weighted>
-2.1157

> <Gold.Chemscore.Internal_Hbond.Weighted>
0.0000

> <Gold.Chemscore.DEClash.Weighted>
0.0178

> <Gold.Chemscore.DEInternal.Weighted>
2.9722

> <Gold.Chemscore.Rot.Weighted>
7.1611

> <Gold.Chemscore.Internal.Correction.Weighted>
   9.000000E+99

> <Gold.Protein.RotatedTorsions>
[ 6907 6896 6895 6894 ] final  -98.55 input  -60.11 | X-H torsion
[ 7974 7965 7964 7962 ] final -143.82 input  175.53 | X-H torsion
[ 8008 7997 7996 7995 ] final   69.33 input   59.86 | X-H torsion
[ 10167 10162 10161 10158 ] final    3.96 input  -65.29 | X-H torsion
[ 10718 10713 10712 10709 ] final -163.09 input   66.30 | X-H torsion
[ 10763 10752 10751 10750 ] final  -57.27 input  -60.55 | X-H torsion
[ 11005 11000 10999 10996 ] final    5.65 input  -57.11 | X-H torsion

> <Gold.Protein.ActiveResidues>
 VAL166  LYS551  ARG553  GLY616  TRP617  ASP618  TYR619  PRO620  LYS621  CYS622 
 ASP623  PHE694  ASN695  SER759  ASP760  ASP761  ALA762  ILE779  LEU786  VAL792 
 PHE793  MET794  SER795  GLU796  ALA797  LYS798  CYS799  TRP800  GLU811  SER814 

> <Gold.Protein.RotatedAtoms>
  150.7050  134.1178  159.4023 H   0  0  0  0  0  0  0  0  0  0  0  0  # atno 6907 bound_to 6896
  151.9164  135.0315  160.0528 H   0  0  0  0  0  0  0  0  0  0  0  0  # atno 6908 bound_to 6896
  152.2293  133.5010  159.5243 H   0  0  0  0  0  0  0  0  0  0  0  0  # atno 6909 bound_to 6896
  144.8342  140.5787  143.5495 H   0  0  0  0  0  0  0  0  0  0  0  0  # atno 7974 bound_to 7965
  155.7219  140.3493  155.5020 H   0  0  0  0  0  0  0  0  0  0  0  0  # atno 8008 bound_to 7997
  155.9261  140.1076  157.1190 H   0  0  0  0  0  0  0  0  0  0  0  0  # atno 8009 bound_to 7997
  154.4077  140.1240  156.4729 H   0  0  0  0  0  0  0  0  0  0  0  0  # atno 8010 bound_to 7997
  140.6559  143.7428  150.7653 H   0  0  0  0  0  0  0  0  0  0  0  0  # atno 10167 bound_to 10162
  156.6197  130.8885  151.2955 H   0  0  0  0  0  0  0  0  0  0  0  0  # atno 10718 bound_to 10713
  154.2198  135.6380  153.5141 H   0  0  0  0  0  0  0  0  0  0  0  0  # atno 10763 bound_to 10752
  152.9971  135.5494  154.6126 H   0  0  0  0  0  0  0  0  0  0  0  0  # atno 10764 bound_to 10752
  154.5583  135.2907  155.0917 H   0  0  0  0  0  0  0  0  0  0  0  0  # atno 10765 bound_to 10752
  140.5683  134.0126  155.7999 H   0  0  0  0  0  0  0  0  0  0  0  0  # atno 11005 bound_to 11000
  145.4831  139.1494  143.3751 LP  0  0  0  0  0  0  0  0  0  0  0  0  # atno 17320 bound_to 7965
  146.2642  140.4967  142.8841 LP  0  0  0  0  0  0  0  0  0  0  0  0  # atno 17321 bound_to 7965
  140.1087  143.4719  152.2382 LP  0  0  0  0  0  0  0  0  0  0  0  0  # atno 17342 bound_to 10162
  139.5782  144.7498  151.3709 LP  0  0  0  0  0  0  0  0  0  0  0  0  # atno 17343 bound_to 10162
  157.7231  130.9585  150.1520 LP  0  0  0  0  0  0  0  0  0  0  0  0  # atno 17370 bound_to 10713
  156.2321  130.3683  149.8433 LP  0  0  0  0  0  0  0  0  0  0  0  0  # atno 17371 bound_to 10713
  141.1072  133.9675  157.2976 LP  0  0  0  0  0  0  0  0  0  0  0  0  # atno 17394 bound_to 11000
  139.9374  135.0195  156.8599 LP  0  0  0  0  0  0  0  0  0  0  0  0  # atno 17395 bound_to 11000

$$$$
