AV-unprocessed.smi:72|AV-procd|sdf|707|dock3
  -GOLD-   2262017 23D 1   1.00000     0.00000
 Structure written by MMmdl.
 30 31  0  0  0  0  0  0  0  0  2 V2000
  147.8016  133.6270  158.0129 N   0  0  0  0  0  0  0  0  0  0  0  0
  148.6641  134.6182  157.5933 C   0  0  0  0  0  0  0  0  0  0  0  0
  148.1242  135.8574  157.2986 N   0  3  0  0  0  0  0  0  0  0  0  0
  148.8240  136.9203  156.8804 C   0  0  0  0  0  0  0  0  0  0  0  0
  150.1257  136.8105  156.7260 N   0  0  0  0  0  0  0  0  0  0  0  0
  150.9236  137.9960  156.2528 C   0  0  2  0  0  0  0  0  0  0  0  0
  150.0937  139.1126  156.3201 O   0  0  0  0  0  0  0  0  0  0  0  0
  150.4118  139.9754  155.2364 C   0  0  2  0  0  0  0  0  0  0  0  0
  149.3150  141.0327  155.0167 C   0  0  0  0  0  0  0  0  0  0  0  0
  149.1659  141.2981  153.6384 O   0  0  0  0  0  0  0  0  0  0  0  0
  150.6920  139.0027  154.0808 C   0  0  2  0  0  0  0  0  0  0  0  0
  149.4892  138.6012  153.4463 O   0  0  0  0  0  0  0  0  0  0  0  0
  151.3975  137.8471  154.7915 C   0  0  2  0  0  0  0  0  0  0  0  0
  151.1506  136.5831  154.1964 O   0  0  0  0  0  0  0  0  0  0  0  0
  150.7720  135.5780  157.0011 C   0  0  0  0  0  0  0  0  0  0  0  0
  151.9865  135.4551  156.8486 O   0  0  0  0  0  0  0  0  0  0  0  0
  149.9560  134.5241  157.4384 N   0  0  0  0  0  0  0  0  0  0  0  0
  151.7511  138.1445  156.9471 H   0  0  0  0  0  0  0  0  0  0  0  0
  151.3421  140.4831  155.4997 H   0  0  0  0  0  0  0  0  0  0  0  0
  151.3327  139.4567  153.3240 H   0  0  0  0  0  0  0  0  0  0  0  0
  152.4739  138.0251  154.7846 H   0  0  0  0  0  0  0  0  0  0  0  0
  148.1066  132.6933  158.2497 H   0  0  0  0  0  0  0  0  0  0  0  0
  146.8044  133.7505  158.1135 H   0  0  0  0  0  0  0  0  0  0  0  0
  148.3188  137.8549  156.6741 H   0  0  0  0  0  0  0  0  0  0  0  0
  148.3595  140.7214  155.4391 H   0  0  0  0  0  0  0  0  0  0  0  0
  149.5920  141.9624  155.5144 H   0  0  0  0  0  0  0  0  0  0  0  0
  149.3700  140.5115  153.1555 H   0  0  0  0  0  0  0  0  0  0  0  0
  149.4949  138.9222  152.5586 H   0  0  0  0  0  0  0  0  0  0  0  0
  150.9686  136.7158  153.2779 H   0  0  0  0  0  0  0  0  0  0  0  0
  147.1259  135.9646  157.4084 H   0  0  0  0  0  0  0  0  0  0  0  0
  1  2  1  0  0  0  0
  1 22  1  0  0  0  0
  1 23  1  0  0  0  0
  2 17  2  0  0  0  0
  2  3  1  0  0  0  0
  3  4  2  0  0  0  0
  3 30  1  0  0  0  0
  4  5  1  0  0  0  0
  4 24  1  0  0  0  0
  5  6  1  0  0  0  0
  5 15  1  0  0  0  0
  6 18  1  0  0  0  0
  6 13  1  0  0  0  0
  6  7  1  0  0  0  0
  7  8  1  0  0  0  0
  8 19  1  0  0  0  0
  8  9  1  0  0  0  0
  8 11  1  0  0  0  0
  9 10  1  0  0  0  0
  9 25  1  0  0  0  0
  9 26  1  0  0  0  0
 10 27  1  0  0  0  0
 11 20  1  0  0  0  0
 11 12  1  0  0  0  0
 11 13  1  0  0  0  0
 12 28  1  0  0  0  0
 13 21  1  0  0  0  0
 13 14  1  0  0  0  0
 14 29  1  0  0  0  0
 15 16  2  0  0  0  0
 15 17  1  0  0  0  0
M  CHG  1   3   1
M  END
> <s_m_source_file>
AV-unprocessed.smi

> <i_m_source_file_index>
72

> <i_lp_mmshare_version>
43012

> <i_f3d_flags>
0

> <s_epik_input>
W05IMl1jMW5bY0hdbihjKD1PKW4xKVtDQEBIXTJPW0NASF0oW0NIMl1bT0hdKVtDQEBIXShbT0hdKVtDQEhdMltPSF0=

> <s_epik_cmdline>
J2VwaWtfcHl0aG9uJywgJy1waCcsICc3LjAnLCAnLXRuJywgJzgnLCAnLW1hJywgJzIwMCcsICctbWV0YWxfYmluZGluZycsICctaW1hZScsICc8aW5maWxlLm1hZT4nLCAnLW9tYWUnLCAnPG91dGZpbGUubWFlPic=

> <r_lp_tautomer_probability>
4.77166e-05

> <r_epik_Ionization_Penalty>
0.104979

> <r_epik_Ionization_Penalty_Charging>
0.0999619

> <r_epik_Ionization_Penalty_Neutral>
0.00501745

> <r_epik_State_Penalty>
2.51541

> <r_epik_Charging_Adjusted_Penalty>
2.61537

> <i_epik_Tot_Q>
1

> <i_epik_Tot_abs_Q>
1

> <r_epik_Metal_State_Penalty>
3.53763

> <b_epik_Metal_Only>
0

> <s_epik_Chemistry_Notes>
This compound contains an acetal/aminal-like group ( X-CH(R)-Y where X, Y are N, S, or O) that may be acid/base labile, releasing an aldehyde.

> <s_lp_Force_Field>
OPLS_2005

> <r_lp_Energy>
39.1051

> <b_lp_Chiralities_Consistent>
1

> <s_lp_Variant>
AV-unprocessed.smi:72-45

> <Gold.Version>
5.8.1

> <Gold.Id.Protein>
6NUR|6NUR_protein|mol2

> <Gold.PLP.Fitness>
37.6578

> <Gold.PLP.PLP>
-22.4625

> <Gold.PLP.part.hbond>
-8.9611

> <Gold.PLP.part.metal>
0.0000

> <Gold.PLP.part.buried>
-2.9329

> <Gold.PLP.part.nonpolar>
-10.7589

> <Gold.PLP.part.repulsive>
0.0577

> <Gold.PLP.ligand.clash>
0.0000

> <Gold.PLP.ligand.torsion>
0.7485

> <Gold.PLP.Chemscore.Hbond>
5.5120

> <Gold.PLP.Chemscore.CHOScore>
0.0000

> <Gold.PLP.Chemscore.Metal>
0.0000

> <Gold.Chemscore.Hbonds>
donor molecule, donor type, donor heavy atom, donor atom, acceptor molecule, acceptor atom, score
      L1  H    10    27       P1  7957  0.64
      L1  H    12    28       P1  7957  1.00
      L1  H    14    29       P1  7949  0.87
      P1  H  6896  6908       L1    17  0.79
      P1  H  8011  8017       L1    10  0.63
      P1  H 10752 10765       L1    14  1.00

> <Gold.PLP.Chemscore.Internal.Correction>
0.1563

> <Gold.Rescore>
     Score         DG    S(hbond)    S(metal)    S(lipo)     H(rot)  DE(clash)    DE(int)     intcor
      7.16      -8.61       3.03        0.00      29.48       4.08       0.38       1.07       ----

> <Gold.Chemscore.Fitness>
7.1646

> <Gold.Chemscore.DG>
-8.6124

> <Gold.Chemscore.ZeroCoef>
-5.4800

> <Gold.Chemscore.Hbond>
3.0311

> <Gold.Chemscore.Metal>
0.0000

> <Gold.Chemscore.Lipo>
29.4796

> <Gold.Chemscore.Internal_Hbond>
0.0000

> <Gold.Chemscore.DEClash>
0.3782

> <Gold.Chemscore.DEInternal>
1.0696

> <Gold.Chemscore.Rot>
4.0783

> <Gold.Chemscore.Internal.Correction>
   9.000000E+99

> <Gold.Chemscore.Hbonds>
donor molecule, donor type, donor heavy atom, donor atom, acceptor molecule, acceptor atom, score
      L1  H    10    27       P1  7957  0.62
      L1  H    12    28       P1  7957  0.88
      L1  H    14    29       P1  7949  0.19
      P1  H  6896  6908       L1    17  0.15
      P1  H  8011  8017       L1    10  0.06
      P1  H 10752 10765       L1    14  0.21

> <Gold.Chemscore.Hbond.Weighted>
-10.1237

> <Gold.Chemscore.Metal.Weighted>
-0.0000

> <Gold.Chemscore.Lipo.Weighted>
-3.4491

> <Gold.Chemscore.Internal_Hbond.Weighted>
0.0000

> <Gold.Chemscore.DEClash.Weighted>
0.3782

> <Gold.Chemscore.DEInternal.Weighted>
1.0696

> <Gold.Chemscore.Rot.Weighted>
10.4404

> <Gold.Chemscore.Internal.Correction.Weighted>
   9.000000E+99

> <Gold.Protein.RotatedTorsions>
[ 6907 6896 6895 6894 ] final  140.76 input  -60.11 | X-H torsion
[ 7974 7965 7964 7962 ] final   87.98 input  175.53 | X-H torsion
[ 8008 7997 7996 7995 ] final  133.18 input   59.86 | X-H torsion
[ 10167 10162 10161 10158 ] final  -88.17 input  -65.29 | X-H torsion
[ 10718 10713 10712 10709 ] final   68.44 input   66.30 | X-H torsion
[ 10763 10752 10751 10750 ] final  158.79 input  -60.55 | X-H torsion
[ 11005 11000 10999 10996 ] final  -93.15 input  -57.11 | X-H torsion

> <Gold.Protein.ActiveResidues>
 VAL166  LYS551  ARG553  GLY616  TRP617  ASP618  TYR619  PRO620  LYS621  CYS622 
 ASP623  PHE694  ASN695  SER759  ASP760  ASP761  ALA762  ILE779  LEU786  VAL792 
 PHE793  MET794  SER795  GLU796  ALA797  LYS798  CYS799  TRP800  GLU811  SER814 

> <Gold.Protein.RotatedAtoms>
  152.2391  133.5121  159.5259 H   0  0  0  0  0  0  0  0  0  0  0  0  # atno 6907 bound_to 6896
  150.7059  134.1113  159.4010 H   0  0  0  0  0  0  0  0  0  0  0  0  # atno 6908 bound_to 6896
  151.9034  135.0369  160.0559 H   0  0  0  0  0  0  0  0  0  0  0  0  # atno 6909 bound_to 6896
  145.5518  139.2296  143.2508 H   0  0  0  0  0  0  0  0  0  0  0  0  # atno 7974 bound_to 7965
  156.2990  140.2528  156.3211 H   0  0  0  0  0  0  0  0  0  0  0  0  # atno 8008 bound_to 7997
  154.9234  140.0400  157.2029 H   0  0  0  0  0  0  0  0  0  0  0  0  # atno 8009 bound_to 7997
  154.8289  140.2872  155.5740 H   0  0  0  0  0  0  0  0  0  0  0  0  # atno 8010 bound_to 7997
  140.3773  143.2765  151.9427 H   0  0  0  0  0  0  0  0  0  0  0  0  # atno 10167 bound_to 10162
  157.6289  130.9373  150.0377 H   0  0  0  0  0  0  0  0  0  0  0  0  # atno 10718 bound_to 10713
  154.2216  135.2782  155.2922 H   0  0  0  0  0  0  0  0  0  0  0  0  # atno 10763 bound_to 10752
  154.5697  135.5622  153.7087 H   0  0  0  0  0  0  0  0  0  0  0  0  # atno 10764 bound_to 10752
  153.0040  135.6318  154.2356 H   0  0  0  0  0  0  0  0  0  0  0  0  # atno 10765 bound_to 10752
  141.1504  133.7869  157.0120 H   0  0  0  0  0  0  0  0  0  0  0  0  # atno 11005 bound_to 11000
  146.1912  140.6341  142.9145 LP  0  0  0  0  0  0  0  0  0  0  0  0  # atno 17320 bound_to 7965
  144.7526  140.5228  143.6791 LP  0  0  0  0  0  0  0  0  0  0  0  0  # atno 17321 bound_to 7965
  139.4798  144.5851  151.7867 LP  0  0  0  0  0  0  0  0  0  0  0  0  # atno 17342 bound_to 10162
  140.4973  144.1222  150.5963 LP  0  0  0  0  0  0  0  0  0  0  0  0  # atno 17343 bound_to 10162
  156.1479  130.3642  149.9482 LP  0  0  0  0  0  0  0  0  0  0  0  0  # atno 17370 bound_to 10713
  156.7509  130.9115  151.3637 LP  0  0  0  0  0  0  0  0  0  0  0  0  # atno 17371 bound_to 10713
  140.0871  134.9614  157.1718 LP  0  0  0  0  0  0  0  0  0  0  0  0  # atno 17394 bound_to 11000
  140.3496  134.2613  155.7200 LP  0  0  0  0  0  0  0  0  0  0  0  0  # atno 17395 bound_to 11000

$$$$
