AV-unprocessed.smi:630|AV-procd|sdf|3118|dock2
  -GOLD-   22720 0 43D 1   1.00000     0.00000
 Structure written by MMmdl.
 37 38  0  0  0  0  0  0  0  0  1 V2000
  147.8450  137.8407  153.4918 N   0  0  0  0  0  0  0  0  0  0  0  0
  148.4225  137.9777  154.6884 C   0  0  0  0  0  0  0  0  0  0  0  0
  147.8924  138.6157  155.5969 O   0  0  0  0  0  0  0  0  0  0  0  0
  149.7997  137.3141  154.8862 C   0  0  1  0  0  0  0  0  0  0  0  0
  150.8885  138.3840  155.1522 C   0  0  0  0  0  0  0  0  0  0  0  0
  152.3054  137.8973  154.8004 C   0  0  0  0  0  0  0  0  0  0  0  0
  153.0496  137.1343  155.9111 C   0  0  0  0  0  0  0  0  0  0  0  0
  152.2100  136.2104  156.8113 C   0  0  0  0  0  0  0  0  0  0  0  0
  151.0879  135.4236  156.1049 C   0  0  0  0  0  0  0  0  0  0  0  0
  149.7499  136.1880  155.9539 C   0  0  1  0  0  0  0  0  0  0  0  0
  149.2659  136.6782  157.2487 N   0  0  0  0  0  0  0  0  0  0  0  0
  148.8882  135.9151  158.2841 C   0  0  0  0  0  0  0  0  0  0  0  0
  148.9219  134.6842  158.2705 O   0  0  0  0  0  0  0  0  0  0  0  0
  148.4761  136.6715  159.3161 N   0  0  0  0  0  0  0  0  0  0  0  0
  147.9963  136.2450  160.5817 C   0  0  0  0  0  0  0  0  0  0  0  0
  147.8947  137.0355  161.6567 N   0  0  0  0  0  0  0  0  0  0  0  0
  147.3945  136.3490  162.7661 C   0  0  0  0  0  0  0  0  0  0  0  0
  147.1174  135.0280  162.5156 C   0  0  0  0  0  0  0  0  0  0  0  0
  147.4765  134.5904  160.8668 S   0  0  0  0  0  0  0  0  0  0  0  0
  146.9403  138.2559  153.3231 H   0  0  0  0  0  0  0  0  0  0  0  0
  148.3100  137.3198  152.7625 H   0  0  0  0  0  0  0  0  0  0  0  0
  150.0400  136.8402  153.9327 H   0  0  0  0  0  0  0  0  0  0  0  0
  150.6847  139.2549  154.5267 H   0  0  0  0  0  0  0  0  0  0  0  0
  150.8503  138.7477  156.1798 H   0  0  0  0  0  0  0  0  0  0  0  0
  152.2679  137.2833  153.9000 H   0  0  0  0  0  0  0  0  0  0  0  0
  152.9151  138.7592  154.5263 H   0  0  0  0  0  0  0  0  0  0  0  0
  153.8426  136.5493  155.4436 H   0  0  0  0  0  0  0  0  0  0  0  0
  153.5610  137.8525  156.5529 H   0  0  0  0  0  0  0  0  0  0  0  0
  152.8919  135.4978  157.2762 H   0  0  0  0  0  0  0  0  0  0  0  0
  151.8065  136.7872  157.6431 H   0  0  0  0  0  0  0  0  0  0  0  0
  151.4332  135.0629  155.1354 H   0  0  0  0  0  0  0  0  0  0  0  0
  150.8930  134.5244  156.6907 H   0  0  0  0  0  0  0  0  0  0  0  0
  149.0192  135.4621  155.5908 H   0  0  0  0  0  0  0  0  0  0  0  0
  149.1963  137.6802  157.3514 H   0  0  0  0  0  0  0  0  0  0  0  0
  148.5063  137.6709  159.1792 H   0  0  0  0  0  0  0  0  0  0  0  0
  147.2662  136.8796  163.6979 H   0  0  0  0  0  0  0  0  0  0  0  0
  146.7253  134.2894  163.1988 H   0  0  0  0  0  0  0  0  0  0  0  0
  1  2  1  0  0  0  0
  1 20  1  0  0  0  0
  1 21  1  0  0  0  0
  2  3  2  0  0  0  0
  2  4  1  0  0  0  0
  4 10  1  0  0  0  0
  4  5  1  0  0  0  0
  4 22  1  0  0  0  0
  5  6  1  0  0  0  0
  5 23  1  0  0  0  0
  5 24  1  0  0  0  0
  6  7  1  0  0  0  0
  6 25  1  0  0  0  0
  6 26  1  0  0  0  0
  7  8  1  0  0  0  0
  7 27  1  0  0  0  0
  7 28  1  0  0  0  0
  8  9  1  0  0  0  0
  8 29  1  0  0  0  0
  8 30  1  0  0  0  0
  9 10  1  0  0  0  0
  9 31  1  0  0  0  0
  9 32  1  0  0  0  0
 10 11  1  0  0  0  0
 10 33  1  0  0  0  0
 11 12  1  0  0  0  0
 11 34  1  0  0  0  0
 12 13  2  0  0  0  0
 12 14  1  0  0  0  0
 14 15  1  0  0  0  0
 14 35  1  0  0  0  0
 15 19  1  0  0  0  0
 15 16  2  0  0  0  0
 16 17  1  0  0  0  0
 17 18  2  0  0  0  0
 17 36  1  0  0  0  0
 18 19  1  0  0  0  0
 18 37  1  0  0  0  0
M  END
> <s_m_source_file>
AV-unprocessed.smi

> <i_m_source_file_index>
630

> <i_lp_mmshare_version>
43012

> <i_f3d_flags>
0

> <s_epik_input>
W05IMl1DKD1PKVtDQEBIXTFbQ0gyXVtDSDJdW0NIMl1bQ0gyXVtDSDJdW0NASF0xW05IXUMoPU8pW05IXWMybltjSF1bY0hdczI=

> <s_epik_cmdline>
J2VwaWtfcHl0aG9uJywgJy1waCcsICc3LjAnLCAnLXRuJywgJzgnLCAnLW1hJywgJzIwMCcsICctbWV0YWxfYmluZGluZycsICctaW1hZScsICc8aW5maWxlLm1hZT4nLCAnLW9tYWUnLCAnPG91dGZpbGUubWFlPic=

> <r_lp_tautomer_probability>
0.999

> <r_epik_Ionization_Penalty>
0.000342689

> <r_epik_Ionization_Penalty_Charging>
0

> <r_epik_Ionization_Penalty_Neutral>
0.000342689

> <r_epik_State_Penalty>
0.000177984

> <r_epik_Charging_Adjusted_Penalty>
0.000177984

> <i_epik_Tot_Q>
0

> <i_epik_Tot_abs_Q>
0

> <r_epik_Metal_State_Penalty>
0.00743087

> <b_epik_Metal_Only>
0

> <s_lp_Force_Field>
OPLS_2005

> <r_lp_Energy>
14.0273

> <b_lp_Chiralities_Consistent>
1

> <s_lp_Variant>
AV-unprocessed.smi:630-2

> <Gold.Version>
5.8.1

> <Gold.Id.Protein>
6NUR|6NUR_protein|mol2

> <Gold.PLP.Fitness>
40.6706

> <Gold.PLP.PLP>
-29.7563

> <Gold.PLP.part.hbond>
-4.0000

> <Gold.PLP.part.metal>
0.0000

> <Gold.PLP.part.buried>
-4.4933

> <Gold.PLP.part.nonpolar>
-22.1752

> <Gold.PLP.part.repulsive>
0.2379

> <Gold.PLP.ligand.clash>
0.0000

> <Gold.PLP.ligand.torsion>
0.1740

> <Gold.PLP.Chemscore.Hbond>
3.7200

> <Gold.PLP.Chemscore.CHOScore>
0.0000

> <Gold.PLP.Chemscore.Metal>
0.0000

> <Gold.Chemscore.Hbonds>
donor molecule, donor type, donor heavy atom, donor atom, acceptor molecule, acceptor atom, score
      L1  H     1    21       P1  7948  1.00
      P1  H  6896  6907       L1    13  0.81
      P1  H  6931  6943       L1    16  1.00
      P1  H  6934  6947       L1    16  0.36

> <Gold.PLP.Chemscore.Internal.Correction>
0.1023

> <Gold.Rescore>
     Score         DG    S(hbond)    S(metal)    S(lipo)     H(rot)  DE(clash)    DE(int)     intcor
     18.82     -19.14       3.01        0.00      64.17       1.52       0.01       0.31       ----

> <Gold.Chemscore.Fitness>
18.8184

> <Gold.Chemscore.DG>
-19.1400

> <Gold.Chemscore.ZeroCoef>
-5.4800

> <Gold.Chemscore.Hbond>
3.0058

> <Gold.Chemscore.Metal>
0.0000

> <Gold.Chemscore.Lipo>
64.1698

> <Gold.Chemscore.Internal_Hbond>
0.0000

> <Gold.Chemscore.DEClash>
0.0073

> <Gold.Chemscore.DEInternal>
0.3143

> <Gold.Chemscore.Rot>
1.5184

> <Gold.Chemscore.Internal.Correction>
   9.000000E+99

> <Gold.Chemscore.Hbonds>
donor molecule, donor type, donor heavy atom, donor atom, acceptor molecule, acceptor atom, score
      L1  H     1    21       P1  7948  0.94
      P1  H  6896  6907       L1    13  0.21
      P1  H  6931  6943       L1    16  0.93
      P1  H  6934  6947       L1    16  0.21

> <Gold.Chemscore.Hbond.Weighted>
-10.0393

> <Gold.Chemscore.Metal.Weighted>
-0.0000

> <Gold.Chemscore.Lipo.Weighted>
-7.5079

> <Gold.Chemscore.Internal_Hbond.Weighted>
0.0000

> <Gold.Chemscore.DEClash.Weighted>
0.0073

> <Gold.Chemscore.DEInternal.Weighted>
0.3143

> <Gold.Chemscore.Rot.Weighted>
3.8872

> <Gold.Chemscore.Internal.Correction.Weighted>
   9.000000E+99

> <Gold.Protein.RotatedTorsions>
[ 6907 6896 6895 6894 ] final  -83.27 input  -60.11 | X-H torsion
[ 7974 7965 7964 7962 ] final  -87.48 input  175.53 | X-H torsion
[ 8008 7997 7996 7995 ] final -105.04 input   59.86 | X-H torsion
[ 10167 10162 10161 10158 ] final   69.81 input  -65.29 | X-H torsion
[ 10718 10713 10712 10709 ] final -128.87 input   66.30 | X-H torsion
[ 10763 10752 10751 10750 ] final   71.56 input  -60.55 | X-H torsion
[ 11005 11000 10999 10996 ] final  -97.99 input  -57.11 | X-H torsion

> <Gold.Protein.ActiveResidues>
 VAL166  LYS551  ARG553  GLY616  TRP617  ASP618  TYR619  PRO620  LYS621  CYS622 
 ASP623  PHE694  ASN695  SER759  ASP760  ASP761  ALA762  ILE779  LEU786  VAL792 
 PHE793  MET794  SER795  GLU796  ALA797  LYS798  CYS799  TRP800  GLU811  SER814 

> <Gold.Protein.RotatedAtoms>
  150.6887  134.3537  159.4919 H   0  0  0  0  0  0  0  0  0  0  0  0  # atno 6907 bound_to 6896
  152.1375  134.9085  160.0565 H   0  0  0  0  0  0  0  0  0  0  0  0  # atno 6908 bound_to 6896
  152.0231  133.3872  159.4303 H   0  0  0  0  0  0  0  0  0  0  0  0  # atno 6909 bound_to 6896
  145.4660  140.9560  143.1943 H   0  0  0  0  0  0  0  0  0  0  0  0  # atno 7974 bound_to 7965
  154.8941  140.0415  157.1855 H   0  0  0  0  0  0  0  0  0  0  0  0  # atno 8008 bound_to 7997
  154.8511  140.2929  155.5577 H   0  0  0  0  0  0  0  0  0  0  0  0  # atno 8009 bound_to 7997
  156.2996  140.2464  156.3469 H   0  0  0  0  0  0  0  0  0  0  0  0  # atno 8010 bound_to 7997
  140.0637  144.5211  150.7276 H   0  0  0  0  0  0  0  0  0  0  0  0  # atno 10167 bound_to 10162
  156.1992  130.6846  151.0519 H   0  0  0  0  0  0  0  0  0  0  0  0  # atno 10718 bound_to 10713
  153.0406  135.5132  154.7612 H   0  0  0  0  0  0  0  0  0  0  0  0  # atno 10763 bound_to 10752
  154.6552  135.2931  154.9938 H   0  0  0  0  0  0  0  0  0  0  0  0  # atno 10764 bound_to 10752
  154.0808  135.6664  153.4890 H   0  0  0  0  0  0  0  0  0  0  0  0  # atno 10765 bound_to 10752
  141.1360  133.8212  157.0779 H   0  0  0  0  0  0  0  0  0  0  0  0  # atno 11005 bound_to 11000
  144.7974  139.6208  143.7087 LP  0  0  0  0  0  0  0  0  0  0  0  0  # atno 17320 bound_to 7965
  146.2424  139.6028  142.9482 LP  0  0  0  0  0  0  0  0  0  0  0  0  # atno 17321 bound_to 7965
  140.7159  143.2544  151.4434 LP  0  0  0  0  0  0  0  0  0  0  0  0  # atno 17342 bound_to 10162
  139.5878  144.1566  152.2051 LP  0  0  0  0  0  0  0  0  0  0  0  0  # atno 17343 bound_to 10162
  157.6976  131.0788  150.6922 LP  0  0  0  0  0  0  0  0  0  0  0  0  # atno 17370 bound_to 10713
  156.6979  130.4614  149.5581 LP  0  0  0  0  0  0  0  0  0  0  0  0  # atno 17371 bound_to 10713
  140.0470  134.9825  157.1066 LP  0  0  0  0  0  0  0  0  0  0  0  0  # atno 17394 bound_to 11000
  140.4048  134.2044  155.7163 LP  0  0  0  0  0  0  0  0  0  0  0  0  # atno 17395 bound_to 11000

$$$$
