AV-unprocessed.smi:402|AV-procd|sdf|2495|dock6
  -GOLD-   2262022443D 1   1.00000     0.00000
 Structure written by MMmdl.
 38 39  0  0  0  0  0  0  0  0  1 V2000
  152.7958  138.9966  156.2193 O   0  0  0  0  0  0  0  0  0  0  0  0
  151.6651  139.4046  155.9565 C   0  0  0  0  0  0  0  0  0  0  0  0
  151.1134  139.2153  154.5322 C   0  0  0  0  0  0  0  0  0  0  0  0
  149.7565  139.7498  154.3127 N   0  0  0  0  0  0  0  0  0  0  0  0
  148.7478  138.8190  153.9936 C   0  0  0  0  0  0  0  0  0  0  0  0
  147.4771  139.1944  153.7786 C   0  0  0  0  0  0  0  0  0  0  0  0
  147.1534  140.5976  153.8810 C   0  0  0  0  0  0  0  0  0  0  0  0
  148.1096  141.4962  154.1891 C   0  0  0  0  0  0  0  0  0  0  0  0
  149.4992  141.0898  154.4287 C   0  0  0  0  0  0  0  0  0  0  0  0
  150.3758  141.9020  154.7241 O   0  0  0  0  0  0  0  0  0  0  0  0
  150.8861  140.0162  156.8627 N   0  0  0  0  0  0  0  0  0  0  0  0
  151.2706  140.3166  158.2348 C   0  0  0  0  0  0  0  0  0  0  0  0
  151.9883  141.6768  158.3262 C   0  0  0  0  0  0  0  0  0  0  0  0
  152.2985  142.0824  159.7854 C   0  0  0  0  0  0  0  0  0  0  0  0
  152.9953  143.4506  159.8606 C   0  0  0  0  0  0  0  0  0  0  0  0
  152.1680  144.5378  159.1584 C   0  0  0  0  0  0  0  0  0  0  0  0
  151.8646  144.1468  157.7044 C   0  0  0  0  0  0  0  0  0  0  0  0
  151.1651  142.7798  157.6305 C   0  0  0  0  0  0  0  0  0  0  0  0
  151.8139  139.6693  153.8290 H   0  0  0  0  0  0  0  0  0  0  0  0
  151.1384  138.1494  154.3013 H   0  0  0  0  0  0  0  0  0  0  0  0
  149.0715  137.7895  153.9420 H   0  0  0  0  0  0  0  0  0  0  0  0
  146.7169  138.4661  153.5376 H   0  0  0  0  0  0  0  0  0  0  0  0
  146.1394  140.9285  153.7100 H   0  0  0  0  0  0  0  0  0  0  0  0
  147.8485  142.5417  154.2622 H   0  0  0  0  0  0  0  0  0  0  0  0
  149.9684  140.3196  156.5709 H   0  0  0  0  0  0  0  0  0  0  0  0
  150.3721  140.3212  158.8535 H   0  0  0  0  0  0  0  0  0  0  0  0
  151.9200  139.5288  158.6210 H   0  0  0  0  0  0  0  0  0  0  0  0
  152.9371  141.5877  157.7942 H   0  0  0  0  0  0  0  0  0  0  0  0
  151.3728  142.1143  160.3619 H   0  0  0  0  0  0  0  0  0  0  0  0
  152.9326  141.3359  160.2651 H   0  0  0  0  0  0  0  0  0  0  0  0
  153.1615  143.7257  160.9026 H   0  0  0  0  0  0  0  0  0  0  0  0
  153.9805  143.3843  159.3976 H   0  0  0  0  0  0  0  0  0  0  0  0
  151.2330  144.6922  159.6984 H   0  0  0  0  0  0  0  0  0  0  0  0
  152.7021  145.4879  159.1853 H   0  0  0  0  0  0  0  0  0  0  0  0
  151.2406  144.9094  157.2376 H   0  0  0  0  0  0  0  0  0  0  0  0
  152.7929  144.1146  157.1327 H   0  0  0  0  0  0  0  0  0  0  0  0
  150.9948  142.5155  156.5862 H   0  0  0  0  0  0  0  0  0  0  0  0
  150.1799  142.8518  158.0937 H   0  0  0  0  0  0  0  0  0  0  0  0
  1  2  2  0  0  0  0
  2  3  1  0  0  0  0
  2 11  1  0  0  0  0
  3  4  1  0  0  0  0
  3 19  1  0  0  0  0
  3 20  1  0  0  0  0
  4  9  1  0  0  0  0
  4  5  1  0  0  0  0
  5  6  2  0  0  0  0
  5 21  1  0  0  0  0
  6  7  1  0  0  0  0
  6 22  1  0  0  0  0
  7  8  2  0  0  0  0
  7 23  1  0  0  0  0
  8  9  1  0  0  0  0
  8 24  1  0  0  0  0
  9 10  2  0  0  0  0
 11 12  1  0  0  0  0
 11 25  1  0  0  0  0
 12 13  1  0  0  0  0
 12 26  1  0  0  0  0
 12 27  1  0  0  0  0
 13 18  1  0  0  0  0
 13 14  1  0  0  0  0
 13 28  1  0  0  0  0
 14 15  1  0  0  0  0
 14 29  1  0  0  0  0
 14 30  1  0  0  0  0
 15 16  1  0  0  0  0
 15 31  1  0  0  0  0
 15 32  1  0  0  0  0
 16 17  1  0  0  0  0
 16 33  1  0  0  0  0
 16 34  1  0  0  0  0
 17 18  1  0  0  0  0
 17 35  1  0  0  0  0
 17 36  1  0  0  0  0
 18 37  1  0  0  0  0
 18 38  1  0  0  0  0
M  END
> <s_m_source_file>
AV-unprocessed.smi

> <i_m_source_file_index>
402

> <i_lp_mmshare_version>
43012

> <i_f3d_flags>
0

> <s_epik_input>
W0NIMl0xW0NIMl1bQ0gyXVtDSDJdW0NIMl1bQ0hdMVtDSDJdW05IXUMoPU8pW0NIMl1uMltjSF1bY0hdW2NIXVtjSF1jMj1P

> <s_epik_cmdline>
J2VwaWtfcHl0aG9uJywgJy1waCcsICc3LjAnLCAnLXRuJywgJzgnLCAnLW1hJywgJzIwMCcsICctbWV0YWxfYmluZGluZycsICctaW1hZScsICc8aW5maWxlLm1hZT4nLCAnLW9tYWUnLCAnPG91dGZpbGUubWFlPic=

> <r_lp_tautomer_probability>
1

> <r_epik_Ionization_Penalty>
3.79717e-07

> <r_epik_Ionization_Penalty_Charging>
3.5992e-07

> <r_epik_Ionization_Penalty_Neutral>
1.97978e-08

> <r_epik_State_Penalty>
-0

> <r_epik_Charging_Adjusted_Penalty>
3.5992e-07

> <i_epik_Tot_Q>
0

> <i_epik_Tot_abs_Q>
0

> <r_epik_Metal_State_Penalty>
-0

> <b_epik_Metal_Only>
0

> <s_lp_Force_Field>
OPLS_2005

> <r_lp_Energy>
19.8269

> <b_lp_Chiralities_Consistent>
1

> <s_lp_Variant>
AV-unprocessed.smi:402-1

> <Gold.Version>
5.8.1

> <Gold.Id.Protein>
6NUR|6NUR_protein|mol2

> <Gold.PLP.Fitness>
44.9435

> <Gold.PLP.PLP>
-39.6296

> <Gold.PLP.part.hbond>
-2.8009

> <Gold.PLP.part.metal>
0.0000

> <Gold.PLP.part.buried>
1.4368

> <Gold.PLP.part.nonpolar>
-38.0689

> <Gold.PLP.part.repulsive>
0.2404

> <Gold.PLP.ligand.clash>
0.0000

> <Gold.PLP.ligand.torsion>
0.2231

> <Gold.PLP.Chemscore.Hbond>
1.1170

> <Gold.PLP.Chemscore.CHOScore>
0.7984

> <Gold.PLP.Chemscore.Metal>
0.0000

> <Gold.Chemscore.Hbonds>
donor molecule, donor type, donor heavy atom, donor atom, acceptor molecule, acceptor atom, score
      P1  H  7989  7998       L1    10  0.08
      P1  H  7997  8008       L1     1  1.00
      L1  C     5    21       P1  7948  0.81

> <Gold.PLP.Chemscore.Internal.Correction>
0.0138

> <Gold.Rescore>
     Score         DG    S(hbond)    S(metal)    S(lipo)     H(rot)  DE(clash)    DE(int)     intcor
     15.87     -17.76       1.40        0.00      99.34       1.57       1.60       0.30       ----

> <Gold.Chemscore.Fitness>
15.8657

> <Gold.Chemscore.DG>
-17.7637

> <Gold.Chemscore.ZeroCoef>
-5.4800

> <Gold.Chemscore.Hbond>
1.4024

> <Gold.Chemscore.Metal>
0.0000

> <Gold.Chemscore.Lipo>
99.3393

> <Gold.Chemscore.Internal_Hbond>
0.0000

> <Gold.Chemscore.DEClash>
1.5951

> <Gold.Chemscore.DEInternal>
0.3029

> <Gold.Chemscore.Rot>
1.5715

> <Gold.Chemscore.Internal.Correction>
   9.000000E+99

> <Gold.Chemscore.Hbonds>
donor molecule, donor type, donor heavy atom, donor atom, acceptor molecule, acceptor atom, score
      P1  H  7997  8008       L1     1  0.98

> <Gold.Chemscore.Hbond.Weighted>
-4.6840

> <Gold.Chemscore.Metal.Weighted>
-0.0000

> <Gold.Chemscore.Lipo.Weighted>
-11.6227

> <Gold.Chemscore.Internal_Hbond.Weighted>
0.0000

> <Gold.Chemscore.DEClash.Weighted>
1.5951

> <Gold.Chemscore.DEInternal.Weighted>
0.3029

> <Gold.Chemscore.Rot.Weighted>
4.0231

> <Gold.Chemscore.Internal.Correction.Weighted>
   9.000000E+99

> <Gold.Protein.RotatedTorsions>
[ 6907 6896 6895 6894 ] final  -30.54 input  -60.11 | X-H torsion
[ 7974 7965 7964 7962 ] final  147.16 input  175.53 | X-H torsion
[ 8008 7997 7996 7995 ] final  -58.65 input   59.86 | X-H torsion
[ 10167 10162 10161 10158 ] final  -54.63 input  -65.29 | X-H torsion
[ 10718 10713 10712 10709 ] final  -47.48 input   66.30 | X-H torsion
[ 10763 10752 10751 10750 ] final  175.89 input  -60.55 | X-H torsion
[ 11005 11000 10999 10996 ] final -125.24 input  -57.11 | X-H torsion

> <Gold.Protein.ActiveResidues>
 VAL166  LYS551  ARG553  GLY616  TRP617  ASP618  TYR619  PRO620  LYS621  CYS622 
 ASP623  PHE694  ASN695  SER759  ASP760  ASP761  ALA762  ILE779  LEU786  VAL792 
 PHE793  MET794  SER795  GLU796  ALA797  LYS798  CYS799  TRP800  GLU811  SER814 

> <Gold.Protein.RotatedAtoms>
  151.1042  134.9990  159.8462 H   0  0  0  0  0  0  0  0  0  0  0  0  # atno 6907 bound_to 6896
  152.5439  134.1914  159.8685 H   0  0  0  0  0  0  0  0  0  0  0  0  # atno 6908 bound_to 6896
  151.1959  133.4595  159.2629 H   0  0  0  0  0  0  0  0  0  0  0  0  # atno 6909 bound_to 6896
  144.8614  139.5994  143.5929 H   0  0  0  0  0  0  0  0  0  0  0  0  # atno 7974 bound_to 7965
  154.4318  140.1079  156.5991 H   0  0  0  0  0  0  0  0  0  0  0  0  # atno 8008 bound_to 7997
  155.5930  140.3492  155.4553 H   0  0  0  0  0  0  0  0  0  0  0  0  # atno 8009 bound_to 7997
  156.0232  140.1244  157.0325 H   0  0  0  0  0  0  0  0  0  0  0  0  # atno 8010 bound_to 7997
  140.6420  143.2513  151.4964 H   0  0  0  0  0  0  0  0  0  0  0  0  # atno 10167 bound_to 10162
  156.2080  130.4159  149.9152 H   0  0  0  0  0  0  0  0  0  0  0  0  # atno 10718 bound_to 10713
  154.4737  135.2772  155.1623 H   0  0  0  0  0  0  0  0  0  0  0  0  # atno 10763 bound_to 10752
  154.3361  135.6180  153.5578 H   0  0  0  0  0  0  0  0  0  0  0  0  # atno 10764 bound_to 10752
  152.9867  135.5777  154.5124 H   0  0  0  0  0  0  0  0  0  0  0  0  # atno 10765 bound_to 10752
  140.9778  134.0716  157.3799 H   0  0  0  0  0  0  0  0  0  0  0  0  # atno 11005 bound_to 11000
  146.2863  139.7013  142.9193 LP  0  0  0  0  0  0  0  0  0  0  0  0  # atno 17320 bound_to 7965
  145.4306  141.0415  143.2913 LP  0  0  0  0  0  0  0  0  0  0  0  0  # atno 17321 bound_to 7965
  139.5629  144.2113  152.1719 LP  0  0  0  0  0  0  0  0  0  0  0  0  # atno 17342 bound_to 10162
  140.1386  144.5223  150.6758 LP  0  0  0  0  0  0  0  0  0  0  0  0  # atno 17343 bound_to 10162
  156.6839  130.8869  151.3579 LP  0  0  0  0  0  0  0  0  0  0  0  0  # atno 17370 bound_to 10713
  157.7023  130.9346  150.0823 LP  0  0  0  0  0  0  0  0  0  0  0  0  # atno 17371 bound_to 10713
  139.8937  135.0132  156.6915 LP  0  0  0  0  0  0  0  0  0  0  0  0  # atno 17394 bound_to 11000
  140.7233  133.9122  155.8161 LP  0  0  0  0  0  0  0  0  0  0  0  0  # atno 17395 bound_to 11000

$$$$
