AV-unprocessed.smi:1966|AV-procd|sdf|7953|dock1
  -GOLD-   2272010123D 1   1.00000     0.00000
 Structure written by MMmdl.
 53 54  0  0  0  0  0  0  0  0  1 V2000
  145.9286  135.3213  153.7919 C   0  0  0  0  0  0  0  0  0  0  0  0
  147.1075  135.2716  154.7572 C   0  0  0  0  0  0  0  0  0  0  0  0
  146.9142  135.1373  155.9652 O   0  0  0  0  0  0  0  0  0  0  0  0
  148.3272  135.3826  154.2080 N   0  0  0  0  0  0  0  0  0  0  0  0
  149.5966  135.3460  154.9382 C   0  0  1  0  0  0  0  0  0  0  0  0
  149.6403  136.5298  155.9251 C   0  0  0  0  0  0  0  0  0  0  0  0
  148.8474  136.5738  156.8664 O   0  0  0  0  0  0  0  0  0  0  0  0
  150.5803  137.4595  155.6713 N   0  0  0  0  0  0  0  0  0  0  0  0
  150.8861  138.6459  156.3919 C   0  0  0  0  0  0  0  0  0  0  0  0
  151.3668  139.8410  155.8078 C   0  0  0  0  0  0  0  0  0  0  0  0
  151.6114  140.9541  156.6349 C   0  0  0  0  0  0  0  0  0  0  0  0
  151.3635  140.8534  158.0237 C   0  0  0  0  0  0  0  0  0  0  0  0
  151.5990  141.9609  158.8659 N   0  0  0  0  0  0  0  0  0  0  0  0
  152.3820  141.7490  160.0797 C   0  0  0  0  0  0  0  0  0  0  0  0
  152.2351  142.9529  161.0271 C   0  0  1  0  0  0  0  0  0  0  0  0
  153.1416  142.8273  162.2560 C   0  0  0  0  0  0  0  0  0  0  0  0
  152.5888  144.1503  160.3358 O   0  0  0  0  0  0  0  0  0  0  0  0
  151.8248  144.4080  159.1551 C   0  0  2  0  0  0  0  0  0  0  0  0
  150.3779  144.8219  159.4774 C   0  0  0  0  0  0  0  0  0  0  0  0
  151.9180  143.2129  158.1857 C   0  0  0  0  0  0  0  0  0  0  0  0
  150.8877  139.7118  158.5780 N   0  0  0  0  0  0  0  0  0  0  0  0
  150.6577  138.6468  157.7822 C   0  0  0  0  0  0  0  0  0  0  0  0
  149.6906  133.9976  155.7121 C   0  0  0  0  0  0  0  0  0  0  0  0
  150.9928  133.8525  156.5272 C   0  0  0  0  0  0  0  0  0  0  0  0
  149.5514  132.7867  154.7682 C   0  0  0  0  0  0  0  0  0  0  0  0
  146.0199  134.5394  153.0375 H   0  0  0  0  0  0  0  0  0  0  0  0
  145.8920  136.2871  153.2872 H   0  0  0  0  0  0  0  0  0  0  0  0
  144.9864  135.1763  154.3218 H   0  0  0  0  0  0  0  0  0  0  0  0
  148.3863  135.4839  153.2053 H   0  0  0  0  0  0  0  0  0  0  0  0
  150.4272  135.4169  154.2324 H   0  0  0  0  0  0  0  0  0  0  0  0
  151.1127  137.3221  154.8243 H   0  0  0  0  0  0  0  0  0  0  0  0
  151.5368  139.9375  154.7474 H   0  0  0  0  0  0  0  0  0  0  0  0
  151.9653  141.8744  156.1944 H   0  0  0  0  0  0  0  0  0  0  0  0
  152.0478  140.8451  160.5907 H   0  0  0  0  0  0  0  0  0  0  0  0
  153.4295  141.6044  159.8107 H   0  0  0  0  0  0  0  0  0  0  0  0
  151.2043  143.0210  161.3751 H   0  0  0  0  0  0  0  0  0  0  0  0
  152.9046  141.9300  162.8282 H   0  0  0  0  0  0  0  0  0  0  0  0
  153.0211  143.6847  162.9183 H   0  0  0  0  0  0  0  0  0  0  0  0
  154.1920  142.7737  161.9682 H   0  0  0  0  0  0  0  0  0  0  0  0
  152.2964  145.2638  158.6714 H   0  0  0  0  0  0  0  0  0  0  0  0
  149.8620  145.1530  158.5759 H   0  0  0  0  0  0  0  0  0  0  0  0
  150.3587  145.6470  160.1897 H   0  0  0  0  0  0  0  0  0  0  0  0
  149.7970  144.0014  159.8981 H   0  0  0  0  0  0  0  0  0  0  0  0
  152.9346  143.1376  157.7975 H   0  0  0  0  0  0  0  0  0  0  0  0
  151.2702  143.3892  157.3278 H   0  0  0  0  0  0  0  0  0  0  0  0
  150.2782  137.7637  158.2757 H   0  0  0  0  0  0  0  0  0  0  0  0
  148.8610  133.9479  156.4199 H   0  0  0  0  0  0  0  0  0  0  0  0
  151.8714  133.9507  155.8890 H   0  0  0  0  0  0  0  0  0  0  0  0
  151.0445  132.8771  157.0117 H   0  0  0  0  0  0  0  0  0  0  0  0
  151.0690  134.5982  157.3185 H   0  0  0  0  0  0  0  0  0  0  0  0
  150.3338  132.7875  154.0089 H   0  0  0  0  0  0  0  0  0  0  0  0
  148.5899  132.7762  154.2546 H   0  0  0  0  0  0  0  0  0  0  0  0
  149.6258  131.8485  155.3188 H   0  0  0  0  0  0  0  0  0  0  0  0
  1  2  1  0  0  0  0
  1 26  1  0  0  0  0
  1 27  1  0  0  0  0
  1 28  1  0  0  0  0
  2  3  2  0  0  0  0
  2  4  1  0  0  0  0
  4  5  1  0  0  0  0
  4 29  1  0  0  0  0
  5  6  1  0  0  0  0
  5 23  1  0  0  0  0
  5 30  1  0  0  0  0
  6  7  2  0  0  0  0
  6  8  1  0  0  0  0
  8  9  1  0  0  0  0
  8 31  1  0  0  0  0
  9 22  1  0  0  0  0
  9 10  2  0  0  0  0
 10 11  1  0  0  0  0
 10 32  1  0  0  0  0
 11 12  2  0  0  0  0
 11 33  1  0  0  0  0
 12 13  1  0  0  0  0
 12 21  1  0  0  0  0
 13 20  1  0  0  0  0
 13 14  1  0  0  0  0
 14 15  1  0  0  0  0
 14 34  1  0  0  0  0
 14 35  1  0  0  0  0
 15 16  1  0  0  0  0
 15 17  1  0  0  0  0
 15 36  1  0  0  0  0
 16 37  1  0  0  0  0
 16 38  1  0  0  0  0
 16 39  1  0  0  0  0
 17 18  1  0  0  0  0
 18 19  1  0  0  0  0
 18 20  1  0  0  0  0
 18 40  1  0  0  0  0
 19 41  1  0  0  0  0
 19 42  1  0  0  0  0
 19 43  1  0  0  0  0
 20 44  1  0  0  0  0
 20 45  1  0  0  0  0
 21 22  2  0  0  0  0
 22 46  1  0  0  0  0
 23 24  1  0  0  0  0
 23 25  1  0  0  0  0
 23 47  1  0  0  0  0
 24 48  1  0  0  0  0
 24 49  1  0  0  0  0
 24 50  1  0  0  0  0
 25 51  1  0  0  0  0
 25 52  1  0  0  0  0
 25 53  1  0  0  0  0
M  END
> <s_m_source_file>
AV-unprocessed.smi

> <i_m_source_file_index>
1966

> <i_lp_mmshare_version>
43012

> <i_f3d_flags>
0

> <s_epik_input>
W0NIM11DKD1PKVtOSF1bQ0BASF0oW0NIXShbQ0gzXSlbQ0gzXSlDKD1PKVtOSF1jMVtjSF1bY0hdYyhuW2NIXTEpTjJbQ0gyXVtDQEBIXShbQ0gzXSlPW0NAQEhdKFtDSDNdKVtDSDJdMg==

> <s_epik_cmdline>
J2VwaWtfcHl0aG9uJywgJy1waCcsICc3LjAnLCAnLXRuJywgJzgnLCAnLW1hJywgJzIwMCcsICctbWV0YWxfYmluZGluZycsICctaW1hZScsICc8aW5maWxlLm1hZT4nLCAnLW9tYWUnLCAnPG91dGZpbGUubWFlPic=

> <r_lp_tautomer_probability>
1

> <r_epik_Ionization_Penalty>
0.000679699

> <r_epik_Ionization_Penalty_Charging>
0

> <r_epik_Ionization_Penalty_Neutral>
0.000679699

> <r_epik_State_Penalty>
0.000430485

> <r_epik_Charging_Adjusted_Penalty>
0.000430485

> <i_epik_Tot_Q>
0

> <i_epik_Tot_abs_Q>
0

> <r_epik_Metal_State_Penalty>
-0

> <b_epik_Metal_Only>
0

> <s_lp_Force_Field>
OPLS_2005

> <r_lp_Energy>
28.3815

> <b_lp_Chiralities_Consistent>
1

> <s_lp_Variant>
AV-unprocessed.smi:1966-6

> <Gold.Version>
5.8.1

> <Gold.Id.Protein>
6NUR|6NUR_protein|mol2

> <Gold.PLP.Fitness>
42.0093

> <Gold.PLP.PLP>
-39.4943

> <Gold.PLP.part.hbond>
-0.8298

> <Gold.PLP.part.metal>
0.0000

> <Gold.PLP.part.buried>
-5.7165

> <Gold.PLP.part.nonpolar>
-32.3749

> <Gold.PLP.part.repulsive>
0.1214

> <Gold.PLP.ligand.clash>
0.0000

> <Gold.PLP.ligand.torsion>
0.4527

> <Gold.PLP.Chemscore.Hbond>
1.0000

> <Gold.PLP.Chemscore.CHOScore>
0.0000

> <Gold.PLP.Chemscore.Metal>
0.0000

> <Gold.Chemscore.Hbonds>
donor molecule, donor type, donor heavy atom, donor atom, acceptor molecule, acceptor atom, score
      L1  H     4    29       P1  7948  1.00

> <Gold.PLP.Chemscore.Internal.Correction>
0.4204

> <Gold.Rescore>
     Score         DG    S(hbond)    S(metal)    S(lipo)     H(rot)  DE(clash)    DE(int)     intcor
     12.68     -17.36       0.96        0.00     110.86       1.68       0.14       4.54       ----

> <Gold.Chemscore.Fitness>
12.6771

> <Gold.Chemscore.DG>
-17.3572

> <Gold.Chemscore.ZeroCoef>
-5.4800

> <Gold.Chemscore.Hbond>
0.9572

> <Gold.Chemscore.Metal>
0.0000

> <Gold.Chemscore.Lipo>
110.8589

> <Gold.Chemscore.Internal_Hbond>
0.0000

> <Gold.Chemscore.DEClash>
0.1373

> <Gold.Chemscore.DEInternal>
4.5428

> <Gold.Chemscore.Rot>
1.6759

> <Gold.Chemscore.Internal.Correction>
   9.000000E+99

> <Gold.Chemscore.Hbonds>
donor molecule, donor type, donor heavy atom, donor atom, acceptor molecule, acceptor atom, score
      L1  H     4    29       P1  7948  0.95

> <Gold.Chemscore.Hbond.Weighted>
-3.1969

> <Gold.Chemscore.Metal.Weighted>
-0.0000

> <Gold.Chemscore.Lipo.Weighted>
-12.9705

> <Gold.Chemscore.Internal_Hbond.Weighted>
0.0000

> <Gold.Chemscore.DEClash.Weighted>
0.1373

> <Gold.Chemscore.DEInternal.Weighted>
4.5428

> <Gold.Chemscore.Rot.Weighted>
4.2902

> <Gold.Chemscore.Internal.Correction.Weighted>
   9.000000E+99

> <Gold.Protein.RotatedTorsions>
[ 6907 6896 6895 6894 ] final   75.60 input  -60.11 | X-H torsion
[ 7974 7965 7964 7962 ] final -135.69 input  175.53 | X-H torsion
[ 8008 7997 7996 7995 ] final  132.39 input   59.86 | X-H torsion
[ 10167 10162 10161 10158 ] final   53.51 input  -65.29 | X-H torsion
[ 10718 10713 10712 10709 ] final -148.99 input   66.30 | X-H torsion
[ 10763 10752 10751 10750 ] final  171.09 input  -60.55 | X-H torsion
[ 11005 11000 10999 10996 ] final -144.74 input  -57.11 | X-H torsion

> <Gold.Protein.ActiveResidues>
 VAL166  LYS551  ARG553  GLY616  TRP617  ASP618  TYR619  PRO620  LYS621  CYS622 
 ASP623  PHE694  ASN695  SER759  ASP760  ASP761  ALA762  ILE779  LEU786  VAL792 
 PHE793  MET794  SER795  GLU796  ALA797  LYS798  CYS799  TRP800  GLU811  SER814 

> <Gold.Protein.RotatedAtoms>
  152.5033  134.4096  159.9443 H   0  0  0  0  0  0  0  0  0  0  0  0  # atno 6907 bound_to 6896
  151.4064  133.3735  159.2746 H   0  0  0  0  0  0  0  0  0  0  0  0  # atno 6908 bound_to 6896
  150.9324  134.8760  159.7619 H   0  0  0  0  0  0  0  0  0  0  0  0  # atno 6909 bound_to 6896
  144.8992  140.6748  143.5096 H   0  0  0  0  0  0  0  0  0  0  0  0  # atno 7974 bound_to 7965
  156.2982  140.2547  156.3081 H   0  0  0  0  0  0  0  0  0  0  0  0  # atno 8008 bound_to 7997
  154.9353  140.0397  157.2088 H   0  0  0  0  0  0  0  0  0  0  0  0  # atno 8009 bound_to 7997
  154.8179  140.2855  155.5812 H   0  0  0  0  0  0  0  0  0  0  0  0  # atno 8010 bound_to 7997
  140.2400  144.3594  150.6384 H   0  0  0  0  0  0  0  0  0  0  0  0  # atno 10167 bound_to 10162
  156.4273  130.8058  151.2284 H   0  0  0  0  0  0  0  0  0  0  0  0  # atno 10718 bound_to 10713
  154.4069  135.2755  155.2061 H   0  0  0  0  0  0  0  0  0  0  0  0  # atno 10763 bound_to 10752
  154.4064  135.6032  153.5930 H   0  0  0  0  0  0  0  0  0  0  0  0  # atno 10764 bound_to 10752
  152.9831  135.5939  154.4345 H   0  0  0  0  0  0  0  0  0  0  0  0  # atno 10765 bound_to 10752
  140.7993  134.2875  157.4984 H   0  0  0  0  0  0  0  0  0  0  0  0  # atno 11005 bound_to 11000
  145.3647  139.1673  143.4364 LP  0  0  0  0  0  0  0  0  0  0  0  0  # atno 17320 bound_to 7965
  146.3098  140.3712  142.8674 LP  0  0  0  0  0  0  0  0  0  0  0  0  # atno 17321 bound_to 7965
  140.6121  143.2170  151.6865 LP  0  0  0  0  0  0  0  0  0  0  0  0  # atno 17342 bound_to 10162
  139.5081  144.3624  152.0549 LP  0  0  0  0  0  0  0  0  0  0  0  0  # atno 17343 bound_to 10162
  157.7508  131.0209  150.3729 LP  0  0  0  0  0  0  0  0  0  0  0  0  # atno 17370 bound_to 10713
  156.4058  130.3924  149.6926 LP  0  0  0  0  0  0  0  0  0  0  0  0  # atno 17371 bound_to 10713
  139.8723  134.9420  156.3814 LP  0  0  0  0  0  0  0  0  0  0  0  0  # atno 17394 bound_to 11000
  140.9310  133.7579  156.0025 LP  0  0  0  0  0  0  0  0  0  0  0  0  # atno 17395 bound_to 11000

$$$$
