AV-unprocessed.smi:332|AV-procd|sdf|2354|dock5
  -GOLD-   2262022263D 1   1.00000     0.00000
 Structure written by MMmdl.
 42 44  0  0  0  0  0  0  0  0  1 V2000
  150.2954  135.4661  155.1924 C   0  0  0  0  0  0  0  0  0  0  0  0
  149.8140  136.5030  156.2190 C   0  0  2  0  0  0  0  0  0  0  0  0
  148.7129  135.9225  156.9864 N   0  0  0  0  0  0  0  0  0  0  0  0
  148.6664  135.7752  158.3199 C   0  0  0  0  0  0  0  0  0  0  0  0
  149.5685  136.1395  159.0754 O   0  0  0  0  0  0  0  0  0  0  0  0
  147.3852  135.1367  158.8751 C   0  0  0  0  0  0  0  0  0  0  0  0
  147.3544  135.0696  160.3456 N   0  0  0  0  0  0  0  0  0  0  0  0
  147.0665  133.8173  160.9244 C   0  0  0  0  0  0  0  0  0  0  0  0
  147.0121  133.6456  162.2547 C   0  0  0  0  0  0  0  0  0  0  0  0
  147.2584  134.7888  163.1012 C   0  0  0  0  0  0  0  0  0  0  0  0
  147.5308  135.9921  162.5579 C   0  0  0  0  0  0  0  0  0  0  0  0
  147.5896  136.1847  161.1042 C   0  0  0  0  0  0  0  0  0  0  0  0
  147.8364  137.2806  160.5997 O   0  0  0  0  0  0  0  0  0  0  0  0
  149.3509  137.8228  155.5549 C   0  0  1  0  0  0  0  0  0  0  0  0
  149.1734  139.0169  156.5222 C   0  0  0  0  0  0  0  0  0  0  0  0
  149.9411  140.1515  155.8194 C   0  0  1  0  0  0  0  0  0  0  0  0
  151.4528  139.8985  155.9654 C   0  0  0  0  0  0  0  0  0  0  0  0
  151.6905  138.7177  155.0069 C   0  0  0  0  0  0  0  0  0  0  0  0
  150.2756  138.4237  154.4664 C   0  0  2  0  0  0  0  0  0  0  0  0
  149.7091  139.8352  154.3467 C   0  0  0  0  0  0  0  0  0  0  0  0
  151.1633  135.8266  154.6403 H   0  0  0  0  0  0  0  0  0  0  0  0
  149.5145  135.2295  154.4689 H   0  0  0  0  0  0  0  0  0  0  0  0
  150.5880  134.5370  155.6827 H   0  0  0  0  0  0  0  0  0  0  0  0
  150.6480  136.7125  156.8891 H   0  0  0  0  0  0  0  0  0  0  0  0
  147.9178  135.5997  156.4540 H   0  0  0  0  0  0  0  0  0  0  0  0
  146.5335  135.7062  158.5008 H   0  0  0  0  0  0  0  0  0  0  0  0
  147.2671  134.1371  158.4524 H   0  0  0  0  0  0  0  0  0  0  0  0
  146.8877  133.0154  160.2226 H   0  0  0  0  0  0  0  0  0  0  0  0
  146.7864  132.6786  162.6801 H   0  0  0  0  0  0  0  0  0  0  0  0
  147.2226  134.6793  164.1750 H   0  0  0  0  0  0  0  0  0  0  0  0
  147.7106  136.8365  163.2069 H   0  0  0  0  0  0  0  0  0  0  0  0
  148.3846  137.6301  155.0842 H   0  0  0  0  0  0  0  0  0  0  0  0
  148.1171  139.2653  156.6318 H   0  0  0  0  0  0  0  0  0  0  0  0
  149.5715  138.8254  157.5193 H   0  0  0  0  0  0  0  0  0  0  0  0
  149.6326  141.1491  156.1331 H   0  0  0  0  0  0  0  0  0  0  0  0
  152.0274  140.7704  155.6500 H   0  0  0  0  0  0  0  0  0  0  0  0
  151.7365  139.6643  156.9923 H   0  0  0  0  0  0  0  0  0  0  0  0
  152.3502  139.0220  154.1932 H   0  0  0  0  0  0  0  0  0  0  0  0
  152.1573  137.8630  155.4946 H   0  0  0  0  0  0  0  0  0  0  0  0
  150.2741  137.8603  153.5329 H   0  0  0  0  0  0  0  0  0  0  0  0
  148.6562  139.8600  154.0593 H   0  0  0  0  0  0  0  0  0  0  0  0
  150.2785  140.4767  153.6714 H   0  0  0  0  0  0  0  0  0  0  0  0
  1  2  1  0  0  0  0
  1 21  1  0  0  0  0
  1 22  1  0  0  0  0
  1 23  1  0  0  0  0
  2  3  1  0  0  0  0
  2 14  1  0  0  0  0
  2 24  1  0  0  0  0
  3  4  1  0  0  0  0
  3 25  1  0  0  0  0
  4  5  2  0  0  0  0
  4  6  1  0  0  0  0
  6  7  1  0  0  0  0
  6 26  1  0  0  0  0
  6 27  1  0  0  0  0
  7 12  1  0  0  0  0
  7  8  1  0  0  0  0
  8  9  2  0  0  0  0
  8 28  1  0  0  0  0
  9 10  1  0  0  0  0
  9 29  1  0  0  0  0
 10 11  2  0  0  0  0
 10 30  1  0  0  0  0
 11 12  1  0  0  0  0
 11 31  1  0  0  0  0
 12 13  2  0  0  0  0
 14 19  1  0  0  0  0
 14 15  1  0  0  0  0
 14 32  1  0  0  0  0
 15 16  1  0  0  0  0
 15 33  1  0  0  0  0
 15 34  1  0  0  0  0
 16 20  1  0  0  0  0
 16 17  1  0  0  0  0
 16 35  1  0  0  0  0
 17 18  1  0  0  0  0
 17 36  1  0  0  0  0
 17 37  1  0  0  0  0
 18 19  1  0  0  0  0
 18 38  1  0  0  0  0
 18 39  1  0  0  0  0
 19 20  1  0  0  0  0
 19 40  1  0  0  0  0
 20 41  1  0  0  0  0
 20 42  1  0  0  0  0
M  END
> <s_m_source_file>
AV-unprocessed.smi

> <i_m_source_file_index>
332

> <i_lp_mmshare_version>
43012

> <i_f3d_flags>
0

> <s_epik_input>
W0NIMl0xW0NIMl1bQ0BIXShbQ0gyXTIpW0NAQEhdKFtDSDJdW0NAQEhdMTIpW0NASF0oW0NIM10pW05IXUMoPU8pW0NIMl1uM1tjSF1bY0hdW2NIXVtjSF1jMz1P

> <s_epik_cmdline>
J2VwaWtfcHl0aG9uJywgJy1waCcsICc3LjAnLCAnLXRuJywgJzgnLCAnLW1hJywgJzIwMCcsICctbWV0YWxfYmluZGluZycsICctaW1hZScsICc8aW5maWxlLm1hZT4nLCAnLW9tYWUnLCAnPG91dGZpbGUubWFlPic=

> <r_lp_tautomer_probability>
1

> <r_epik_Ionization_Penalty>
4.05802e-07

> <r_epik_Ionization_Penalty_Charging>
3.84175e-07

> <r_epik_Ionization_Penalty_Neutral>
2.16269e-08

> <r_epik_State_Penalty>
-0

> <r_epik_Charging_Adjusted_Penalty>
3.84175e-07

> <i_epik_Tot_Q>
0

> <i_epik_Tot_abs_Q>
0

> <r_epik_Metal_State_Penalty>
-0

> <b_epik_Metal_Only>
0

> <s_lp_Force_Field>
OPLS_2005

> <r_lp_Energy>
60.6012

> <b_lp_Chiralities_Consistent>
1

> <s_lp_Variant>
AV-unprocessed.smi:332-3

> <Gold.Version>
5.8.1

> <Gold.Id.Protein>
6NUR|6NUR_protein|mol2

> <Gold.PLP.Fitness>
44.8855

> <Gold.PLP.PLP>
-37.7975

> <Gold.PLP.part.hbond>
-3.0000

> <Gold.PLP.part.metal>
0.0000

> <Gold.PLP.part.buried>
-3.0723

> <Gold.PLP.part.nonpolar>
-32.7414

> <Gold.PLP.part.repulsive>
0.0284

> <Gold.PLP.ligand.clash>
0.0000

> <Gold.PLP.ligand.torsion>
0.2673

> <Gold.PLP.Chemscore.Hbond>
2.5360

> <Gold.PLP.Chemscore.CHOScore>
0.0000

> <Gold.PLP.Chemscore.Metal>
0.0000

> <Gold.Chemscore.Hbonds>
donor molecule, donor type, donor heavy atom, donor atom, acceptor molecule, acceptor atom, score
      P1  H  6896  6907       L1     5  1.00
      P1  H  6931  6943       L1    13  0.75
      P1  H  6934  6947       L1    13  0.83

> <Gold.PLP.Chemscore.Internal.Correction>
0.0146

> <Gold.Rescore>
     Score         DG    S(hbond)    S(metal)    S(lipo)     H(rot)  DE(clash)    DE(int)     intcor
     19.27     -19.57       2.66        0.00      78.14       1.54       0.14       0.16       ----

> <Gold.Chemscore.Fitness>
19.2737

> <Gold.Chemscore.DG>
-19.5684

> <Gold.Chemscore.ZeroCoef>
-5.4800

> <Gold.Chemscore.Hbond>
2.6612

> <Gold.Chemscore.Metal>
0.0000

> <Gold.Chemscore.Lipo>
78.1360

> <Gold.Chemscore.Internal_Hbond>
0.0000

> <Gold.Chemscore.DEClash>
0.1372

> <Gold.Chemscore.DEInternal>
0.1575

> <Gold.Chemscore.Rot>
1.5398

> <Gold.Chemscore.Internal.Correction>
   9.000000E+99

> <Gold.Chemscore.Hbonds>
donor molecule, donor type, donor heavy atom, donor atom, acceptor molecule, acceptor atom, score
      P1  H  6896  6907       L1     5  0.97
      P1  H  6931  6943       L1    13  0.42
      P1  H  6934  6947       L1    13  0.83

> <Gold.Chemscore.Hbond.Weighted>
-8.8884

> <Gold.Chemscore.Metal.Weighted>
-0.0000

> <Gold.Chemscore.Lipo.Weighted>
-9.1419

> <Gold.Chemscore.Internal_Hbond.Weighted>
0.0000

> <Gold.Chemscore.DEClash.Weighted>
0.1372

> <Gold.Chemscore.DEInternal.Weighted>
0.1575

> <Gold.Chemscore.Rot.Weighted>
3.9419

> <Gold.Chemscore.Internal.Correction.Weighted>
   9.000000E+99

> <Gold.Protein.RotatedTorsions>
[ 6907 6896 6895 6894 ] final  -50.50 input  -60.11 | X-H torsion
[ 7974 7965 7964 7962 ] final  -65.91 input  175.53 | X-H torsion
[ 8008 7997 7996 7995 ] final  117.24 input   59.86 | X-H torsion
[ 10167 10162 10161 10158 ] final  -19.19 input  -65.29 | X-H torsion
[ 10718 10713 10712 10709 ] final  -34.98 input   66.30 | X-H torsion
[ 10763 10752 10751 10750 ] final -116.85 input  -60.55 | X-H torsion
[ 11005 11000 10999 10996 ] final  -73.24 input  -57.11 | X-H torsion

> <Gold.Protein.ActiveResidues>
 VAL166  LYS551  ARG553  GLY616  TRP617  ASP618  TYR619  PRO620  LYS621  CYS622 
 ASP623  PHE694  ASN695  SER759  ASP760  ASP761  ALA762  ILE779  LEU786  VAL792 
 PHE793  MET794  SER795  GLU796  ALA797  LYS798  CYS799  TRP800  GLU811  SER814 

> <Gold.Protein.RotatedAtoms>
  150.8701  134.8073  159.7147 H   0  0  0  0  0  0  0  0  0  0  0  0  # atno 6907 bound_to 6896
  152.4708  134.4960  159.9720 H   0  0  0  0  0  0  0  0  0  0  0  0  # atno 6908 bound_to 6896
  151.5050  133.3458  159.2911 H   0  0  0  0  0  0  0  0  0  0  0  0  # atno 6909 bound_to 6896
  145.7484  140.8920  143.0493 H   0  0  0  0  0  0  0  0  0  0  0  0  # atno 7974 bound_to 7965
  156.2483  140.2900  156.0648 H   0  0  0  0  0  0  0  0  0  0  0  0  # atno 8008 bound_to 7997
  155.1736  140.0402  157.2885 H   0  0  0  0  0  0  0  0  0  0  0  0  # atno 8009 bound_to 7997
  154.6309  140.2499  155.7442 H   0  0  0  0  0  0  0  0  0  0  0  0  # atno 8010 bound_to 7997
  140.7266  143.4843  151.0076 H   0  0  0  0  0  0  0  0  0  0  0  0  # atno 10167 bound_to 10162
  156.3441  130.4298  149.7761 H   0  0  0  0  0  0  0  0  0  0  0  0  # atno 10718 bound_to 10713
  154.8534  135.4331  154.1886 H   0  0  0  0  0  0  0  0  0  0  0  0  # atno 10763 bound_to 10752
  153.2960  135.6965  153.7254 H   0  0  0  0  0  0  0  0  0  0  0  0  # atno 10764 bound_to 10752
  153.6402  135.3469  155.3043 H   0  0  0  0  0  0  0  0  0  0  0  0  # atno 10765 bound_to 10752
  141.1620  133.6872  156.7181 H   0  0  0  0  0  0  0  0  0  0  0  0  # atno 11005 bound_to 11000
  144.6855  139.9557  143.7479 LP  0  0  0  0  0  0  0  0  0  0  0  0  # atno 17320 bound_to 7965
  146.0381  139.3396  143.0714 LP  0  0  0  0  0  0  0  0  0  0  0  0  # atno 17321 bound_to 7965
  139.8544  143.7396  152.3176 LP  0  0  0  0  0  0  0  0  0  0  0  0  # atno 17342 bound_to 10162
  139.7590  144.7512  151.0393 LP  0  0  0  0  0  0  0  0  0  0  0  0  # atno 17343 bound_to 10162
  156.4986  130.8118  151.3123 LP  0  0  0  0  0  0  0  0  0  0  0  0  # atno 17370 bound_to 10713
  157.7451  130.9952  150.2735 LP  0  0  0  0  0  0  0  0  0  0  0  0  # atno 17371 bound_to 10713
  140.2836  134.8297  157.3955 LP  0  0  0  0  0  0  0  0  0  0  0  0  # atno 17394 bound_to 11000
  140.1410  134.4972  155.8031 LP  0  0  0  0  0  0  0  0  0  0  0  0  # atno 17395 bound_to 11000

$$$$
