AV-unprocessed.smi:1847|AV-procd|sdf|7517|dock8
  -GOLD-   22720 9223D 1   1.00000     0.00000
 Structure written by MMmdl.
 24 25  0  0  0  0  0  0  0  0  2 V2000
  150.8825  141.8318  158.1643 O   0  0  0  0  0  0  0  0  0  0  0  0
  151.8225  141.0738  157.9076 C   0  0  0  0  0  0  0  0  0  0  0  0
  152.9443  140.9692  158.6661 N   0  5  0  0  0  0  0  0  0  0  0  0
  153.1173  141.7459  159.7471 C   0  0  0  0  0  0  0  0  0  0  0  0
  152.7553  143.1114  159.7402 C   0  0  0  0  0  0  0  0  0  0  0  0
  152.9470  143.8837  160.9035 C   0  0  0  0  0  0  0  0  0  0  0  0
  153.4612  143.3875  162.0480 N   0  0  0  0  0  0  0  0  0  0  0  0
  153.8016  142.0819  162.0615 C   0  0  0  0  0  0  0  0  0  0  0  0
  153.6479  141.2290  160.9502 C   0  0  0  0  0  0  0  0  0  0  0  0
  151.7781  140.2137  156.7276 C   0  0  0  0  0  0  0  0  0  0  0  0
  151.0145  140.5589  155.6634 C   0  0  0  0  0  0  0  0  0  0  0  0
  150.8879  139.7906  154.5328 O   0  0  0  0  0  0  0  0  0  0  0  0
  151.4154  138.4746  154.6482 C   0  0  0  0  0  0  0  0  0  0  0  0
  152.7454  138.4983  155.4145 C   0  0  0  0  0  0  0  0  0  0  0  0
  152.5591  139.0788  156.7002 O   0  0  0  0  0  0  0  0  0  0  0  0
  152.3373  143.5642  158.8531 H   0  0  0  0  0  0  0  0  0  0  0  0
  152.6780  144.9295  160.9136 H   0  0  0  0  0  0  0  0  0  0  0  0
  154.2089  141.7034  162.9872 H   0  0  0  0  0  0  0  0  0  0  0  0
  153.9367  140.1903  161.0214 H   0  0  0  0  0  0  0  0  0  0  0  0
  150.3999  141.4458  155.6065 H   0  0  0  0  0  0  0  0  0  0  0  0
  150.6915  137.8409  155.1624 H   0  0  0  0  0  0  0  0  0  0  0  0
  151.5565  138.0577  153.6510 H   0  0  0  0  0  0  0  0  0  0  0  0
  153.1366  137.4879  155.5325 H   0  0  0  0  0  0  0  0  0  0  0  0
  153.4940  139.0715  154.8657 H   0  0  0  0  0  0  0  0  0  0  0  0
  1  2  2  0  0  0  0
  2  3  1  0  0  0  0
  2 10  1  0  0  0  0
  3  4  1  0  0  0  0
  4  9  1  0  0  0  0
  4  5  2  0  0  0  0
  5  6  1  0  0  0  0
  5 16  1  0  0  0  0
  6  7  2  0  0  0  0
  6 17  1  0  0  0  0
  7  8  1  0  0  0  0
  8  9  2  0  0  0  0
  8 18  1  0  0  0  0
  9 19  1  0  0  0  0
 10 15  1  0  0  0  0
 10 11  2  0  0  0  0
 11 12  1  0  0  0  0
 11 20  1  0  0  0  0
 12 13  1  0  0  0  0
 13 14  1  0  0  0  0
 13 21  1  0  0  0  0
 13 22  1  0  0  0  0
 14 15  1  0  0  0  0
 14 23  1  0  0  0  0
 14 24  1  0  0  0  0
M  CHG  1   3  -1
M  END
> <s_m_source_file>
AV-unprocessed.smi

> <i_m_source_file_index>
1847

> <i_lp_mmshare_version>
43012

> <i_f3d_flags>
0

> <s_epik_input>
TzFbQ0gyXVtDSDJdT1tDSF09QzFDKD1PKVtOSF1jMltjSF1bY0hdbltjSF1bY0hdMg==

> <s_epik_cmdline>
J2VwaWtfcHl0aG9uJywgJy1waCcsICc3LjAnLCAnLXRuJywgJzgnLCAnLW1hJywgJzIwMCcsICctbWV0YWxfYmluZGluZycsICctaW1hZScsICc8aW5maWxlLm1hZT4nLCAnLW9tYWUnLCAnPG91dGZpbGUubWFlPic=

> <r_epik_Ionization_Penalty>
6.68616

> <r_epik_Ionization_Penalty_Charging>
5.33655

> <r_epik_Ionization_Penalty_Neutral>
1.34962

> <r_epik_State_Penalty>
5.36971

> <r_epik_Charging_Adjusted_Penalty>
10.7063

> <i_epik_Tot_Q>
-1

> <i_epik_Tot_abs_Q>
1

> <r_epik_Metal_State_Penalty>
1.43726

> <b_epik_Metal_Only>
1

> <s_lp_Force_Field>
OPLS_2005

> <r_lp_Energy>
5.87976

> <b_lp_Chiralities_Consistent>
1

> <s_lp_Variant>
AV-unprocessed.smi:1847-3

> <Gold.Version>
5.8.1

> <Gold.Id.Protein>
6NUR|6NUR_protein|mol2

> <Gold.PLP.Fitness>
39.5526

> <Gold.PLP.PLP>
-34.3327

> <Gold.PLP.part.hbond>
-2.2116

> <Gold.PLP.part.metal>
0.0000

> <Gold.PLP.part.buried>
-3.6834

> <Gold.PLP.part.nonpolar>
-28.3276

> <Gold.PLP.part.repulsive>
0.2205

> <Gold.PLP.ligand.clash>
0.0000

> <Gold.PLP.ligand.torsion>
0.5709

> <Gold.PLP.Chemscore.Hbond>
1.9500

> <Gold.PLP.Chemscore.CHOScore>
0.0000

> <Gold.PLP.Chemscore.Metal>
0.0000

> <Gold.Chemscore.Hbonds>
donor molecule, donor type, donor heavy atom, donor atom, acceptor molecule, acceptor atom, score
      P1  H  7989  7998       L1    12  0.85
      P1  H  7997  8010       L1    15  0.53

> <Gold.PLP.Chemscore.Internal.Correction>
0.5117

> <Gold.Rescore>
     Score         DG    S(hbond)    S(metal)    S(lipo)     H(rot)  DE(clash)    DE(int)     intcor
     15.10     -17.55       0.75        0.00      81.80       0.00       0.09       2.36       ----

> <Gold.Chemscore.Fitness>
15.1029

> <Gold.Chemscore.DG>
-17.5546

> <Gold.Chemscore.ZeroCoef>
-5.4800

> <Gold.Chemscore.Hbond>
0.7498

> <Gold.Chemscore.Metal>
0.0000

> <Gold.Chemscore.Lipo>
81.7986

> <Gold.Chemscore.Internal_Hbond>
0.0000

> <Gold.Chemscore.DEClash>
0.0930

> <Gold.Chemscore.DEInternal>
2.3588

> <Gold.Chemscore.Rot>
0.0000

> <Gold.Chemscore.Internal.Correction>
   9.000000E+99

> <Gold.Chemscore.Hbonds>
donor molecule, donor type, donor heavy atom, donor atom, acceptor molecule, acceptor atom, score
      P1  H  7989  7998       L1    12  0.14
      P1  H  7997  8010       L1    15  0.01

> <Gold.Chemscore.Hbond.Weighted>
-2.5042

> <Gold.Chemscore.Metal.Weighted>
-0.0000

> <Gold.Chemscore.Lipo.Weighted>
-9.5704

> <Gold.Chemscore.Internal_Hbond.Weighted>
0.0000

> <Gold.Chemscore.DEClash.Weighted>
0.0930

> <Gold.Chemscore.DEInternal.Weighted>
2.3588

> <Gold.Chemscore.Rot.Weighted>
0.0000

> <Gold.Chemscore.Internal.Correction.Weighted>
   9.000000E+99

> <Gold.Protein.RotatedTorsions>
[ 6907 6896 6895 6894 ] final   46.36 input  -60.11 | X-H torsion
[ 7974 7965 7964 7962 ] final   73.26 input  175.53 | X-H torsion
[ 8008 7997 7996 7995 ] final   53.10 input   59.86 | X-H torsion
[ 10167 10162 10161 10158 ] final -106.28 input  -65.29 | X-H torsion
[ 10718 10713 10712 10709 ] final  132.57 input   66.30 | X-H torsion
[ 10763 10752 10751 10750 ] final -133.56 input  -60.55 | X-H torsion
[ 11005 11000 10999 10996 ] final   84.27 input  -57.11 | X-H torsion

> <Gold.Protein.ActiveResidues>
 VAL166  LYS551  ARG553  GLY616  TRP617  ASP618  TYR619  PRO620  LYS621  CYS622 
 ASP623  PHE694  ASN695  SER759  ASP760  ASP761  ALA762  ILE779  LEU786  VAL792 
 PHE793  MET794  SER795  GLU796  ALA797  LYS798  CYS799  TRP800  GLU811  SER814 

> <Gold.Protein.RotatedAtoms>
  152.2555  134.8089  160.0438 H   0  0  0  0  0  0  0  0  0  0  0  0  # atno 6907 bound_to 6896
  151.8754  133.3479  159.3756 H   0  0  0  0  0  0  0  0  0  0  0  0  # atno 6908 bound_to 6896
  150.7098  134.4999  159.5600 H   0  0  0  0  0  0  0  0  0  0  0  0  # atno 6909 bound_to 6896
  145.7431  139.2729  143.1475 H   0  0  0  0  0  0  0  0  0  0  0  0  # atno 7974 bound_to 7965
  155.4627  140.3462  155.4315 H   0  0  0  0  0  0  0  0  0  0  0  0  # atno 8008 bound_to 7997
  156.1150  140.1471  156.9314 H   0  0  0  0  0  0  0  0  0  0  0  0  # atno 8009 bound_to 7997
  154.4783  140.0878  156.7295 H   0  0  0  0  0  0  0  0  0  0  0  0  # atno 8010 bound_to 7997
  140.1895  143.3903  152.1218 H   0  0  0  0  0  0  0  0  0  0  0  0  # atno 10167 bound_to 10162
  157.4858  131.1088  150.9622 H   0  0  0  0  0  0  0  0  0  0  0  0  # atno 10718 bound_to 10713
  154.8731  135.3762  154.4592 H   0  0  0  0  0  0  0  0  0  0  0  0  # atno 10763 bound_to 10752
  153.5262  135.7028  153.5711 H   0  0  0  0  0  0  0  0  0  0  0  0  # atno 10764 bound_to 10752
  153.3937  135.3966  155.1906 H   0  0  0  0  0  0  0  0  0  0  0  0  # atno 10765 bound_to 10752
  139.9005  134.8204  156.2422 H   0  0  0  0  0  0  0  0  0  0  0  0  # atno 11005 bound_to 11000
  146.0429  140.8147  142.9820 LP  0  0  0  0  0  0  0  0  0  0  0  0  # atno 17320 bound_to 7965
  144.6866  140.2936  143.7274 LP  0  0  0  0  0  0  0  0  0  0  0  0  # atno 17321 bound_to 7965
  139.5262  144.7105  151.5222 LP  0  0  0  0  0  0  0  0  0  0  0  0  # atno 17342 bound_to 10162
  140.6465  143.8783  150.6743 LP  0  0  0  0  0  0  0  0  0  0  0  0  # atno 17343 bound_to 10162
  157.0340  130.5722  149.5347 LP  0  0  0  0  0  0  0  0  0  0  0  0  # atno 17370 bound_to 10713
  156.0146  130.5239  150.8095 LP  0  0  0  0  0  0  0  0  0  0  0  0  # atno 17371 bound_to 10713
  141.0277  133.7006  156.1376 LP  0  0  0  0  0  0  0  0  0  0  0  0  # atno 17394 bound_to 11000
  140.7142  134.4429  157.5579 LP  0  0  0  0  0  0  0  0  0  0  0  0  # atno 17395 bound_to 11000

$$$$
