AV-unprocessed.smi:209|AV-procd|sdf|1608|dock8
  -GOLD-   2262019523D 1   1.00000     0.00000
 Structure written by MMmdl.
 48 52  0  0  0  0  0  0  0  0  1 V2000
  151.1622  145.6369  160.2208 O   0  0  0  0  0  0  0  0  0  0  0  0
  150.9689  144.6023  159.5863 C   0  0  0  0  0  0  0  0  0  0  0  0
  150.1299  144.4395  158.5562 N   0  0  0  0  0  0  0  0  0  0  0  0
  150.2117  143.1035  157.9736 C   0  0  0  0  0  0  0  0  0  0  0  0
  151.5663  142.6127  158.5079 C   0  0  1  0  0  0  0  0  0  0  0  0
  151.6427  143.2738  159.8762 C   0  0  1  0  0  0  0  0  0  0  0  0
  153.0829  143.2150  160.3881 C   0  0  0  0  0  0  0  0  0  0  0  0
  153.4555  141.7160  160.4801 C   0  0  0  0  0  0  0  0  0  0  0  0
  153.1667  140.9397  159.1660 C   0  0  0  0  0  0  0  0  0  0  0  0
  151.8096  141.1816  158.6519 N   0  0  0  0  0  0  0  0  0  0  0  0
  151.5104  140.4645  157.5463 C   0  0  0  0  0  0  0  0  0  0  0  0
  152.4990  140.0358  156.7178 N   0  0  0  0  0  0  0  0  0  0  0  0
  152.1919  139.3392  155.6190 C   0  0  0  0  0  0  0  0  0  0  0  0
  150.9882  138.9743  155.1704 N   0  0  0  0  0  0  0  0  0  0  0  0
  149.9963  139.4094  156.0001 C   0  0  0  0  0  0  0  0  0  0  0  0
  150.1702  140.1557  157.1984 C   0  0  0  0  0  0  0  0  0  0  0  0
  148.9377  140.4249  157.7777 N   0  0  0  0  0  0  0  0  0  0  0  0
  148.0804  139.8635  156.9691 C   0  0  0  0  0  0  0  0  0  0  0  0
  148.6284  139.2382  155.8707 N   0  0  0  0  0  0  0  0  0  0  0  0
  147.9107  138.5362  154.8175 C   0  0  0  0  0  0  0  0  0  0  0  0
  147.0736  139.4584  153.9116 C   0  0  0  0  0  0  0  0  0  0  0  0
  146.6176  138.6538  152.6772 C   0  0  0  0  0  0  0  0  0  0  0  0
  147.6407  138.5190  151.7108 O   0  0  0  0  0  0  0  0  0  0  0  0
  145.9865  140.2637  154.6382 C   0  0  0  0  0  0  0  0  0  0  0  0
  146.4713  141.5152  154.1040 O   0  0  0  0  0  0  0  0  0  0  0  0
  147.6624  140.8486  153.6303 C   0  0  0  0  0  0  0  0  0  0  0  0
  152.3501  143.0263  157.8684 H   0  0  0  0  0  0  0  0  0  0  0  0
  150.9926  142.7517  160.5816 H   0  0  0  0  0  0  0  0  0  0  0  0
  149.5566  145.1739  158.1666 H   0  0  0  0  0  0  0  0  0  0  0  0
  149.3837  142.4956  158.3418 H   0  0  0  0  0  0  0  0  0  0  0  0
  150.1769  143.1274  156.8841 H   0  0  0  0  0  0  0  0  0  0  0  0
  153.7575  143.7386  159.7094 H   0  0  0  0  0  0  0  0  0  0  0  0
  153.1698  143.6923  161.3645 H   0  0  0  0  0  0  0  0  0  0  0  0
  154.5052  141.6077  160.7531 H   0  0  0  0  0  0  0  0  0  0  0  0
  152.8829  141.2598  161.2887 H   0  0  0  0  0  0  0  0  0  0  0  0
  153.8983  141.2373  158.4134 H   0  0  0  0  0  0  0  0  0  0  0  0
  153.3069  139.8710  159.3331 H   0  0  0  0  0  0  0  0  0  0  0  0
  153.0307  139.0308  155.0124 H   0  0  0  0  0  0  0  0  0  0  0  0
  147.0171  139.8913  157.1556 H   0  0  0  0  0  0  0  0  0  0  0  0
  148.6312  137.9710  154.2250 H   0  0  0  0  0  0  0  0  0  0  0  0
  147.2746  137.7899  155.2954 H   0  0  0  0  0  0  0  0  0  0  0  0
  146.3052  137.6475  152.9566 H   0  0  0  0  0  0  0  0  0  0  0  0
  145.7613  139.1298  152.1985 H   0  0  0  0  0  0  0  0  0  0  0  0
  148.2434  139.2402  151.8078 H   0  0  0  0  0  0  0  0  0  0  0  0
  144.9681  140.0377  154.3206 H   0  0  0  0  0  0  0  0  0  0  0  0
  146.0647  140.2335  155.7260 H   0  0  0  0  0  0  0  0  0  0  0  0
  148.5291  141.0995  154.2429 H   0  0  0  0  0  0  0  0  0  0  0  0
  147.8629  141.0454  152.5765 H   0  0  0  0  0  0  0  0  0  0  0  0
  1  2  2  0  0  0  0
  2  6  1  0  0  0  0
  2  3  1  0  0  0  0
  3  4  1  0  0  0  0
  3 29  1  0  0  0  0
  4  5  1  0  0  0  0
  4 30  1  0  0  0  0
  4 31  1  0  0  0  0
  5 27  1  0  0  0  0
  5 10  1  0  0  0  0
  5  6  1  0  0  0  0
  6 28  1  0  0  0  0
  6  7  1  0  0  0  0
  7  8  1  0  0  0  0
  7 32  1  0  0  0  0
  7 33  1  0  0  0  0
  8  9  1  0  0  0  0
  8 34  1  0  0  0  0
  8 35  1  0  0  0  0
  9 10  1  0  0  0  0
  9 36  1  0  0  0  0
  9 37  1  0  0  0  0
 10 11  1  0  0  0  0
 11 16  1  0  0  0  0
 11 12  2  0  0  0  0
 12 13  1  0  0  0  0
 13 14  2  0  0  0  0
 13 38  1  0  0  0  0
 14 15  1  0  0  0  0
 15 19  1  0  0  0  0
 15 16  2  0  0  0  0
 16 17  1  0  0  0  0
 17 18  2  0  0  0  0
 18 19  1  0  0  0  0
 18 39  1  0  0  0  0
 19 20  1  0  0  0  0
 20 21  1  0  0  0  0
 20 40  1  0  0  0  0
 20 41  1  0  0  0  0
 21 26  1  0  0  0  0
 21 22  1  0  0  0  0
 21 24  1  0  0  0  0
 22 23  1  0  0  0  0
 22 42  1  0  0  0  0
 22 43  1  0  0  0  0
 23 44  1  0  0  0  0
 24 25  1  0  0  0  0
 24 45  1  0  0  0  0
 24 46  1  0  0  0  0
 25 26  1  0  0  0  0
 26 47  1  0  0  0  0
 26 48  1  0  0  0  0
M  END
> <s_m_source_file>
AV-unprocessed.smi

> <i_m_source_file_index>
209

> <i_lp_mmshare_version>
43012

> <i_f3d_flags>
0

> <s_epik_input>
W0NIMl0xW05IXUMoPU8pW0NAQEhdKFtDQEBIXTEyKVtDSDJdW0NIMl1bQ0gyXU4yYyhuW2NIXW4zKWMoYzM0KW5bY0hdbjRbQ0gyXUM1KFtDSDJdW09IXSlbQ0gyXU9bQ0gyXTU=

> <s_epik_cmdline>
J2VwaWtfcHl0aG9uJywgJy1waCcsICc3LjAnLCAnLXRuJywgJzgnLCAnLW1hJywgJzIwMCcsICctbWV0YWxfYmluZGluZycsICctaW1hZScsICc8aW5maWxlLm1hZT4nLCAnLW9tYWUnLCAnPG91dGZpbGUubWFlPic=

> <r_lp_tautomer_probability>
1

> <r_epik_Ionization_Penalty>
0.00113306

> <r_epik_Ionization_Penalty_Charging>
0

> <r_epik_Ionization_Penalty_Neutral>
0.00113306

> <r_epik_State_Penalty>
0.000624042

> <r_epik_Charging_Adjusted_Penalty>
0.000624042

> <i_epik_Tot_Q>
0

> <i_epik_Tot_abs_Q>
0

> <r_epik_Metal_State_Penalty>
-0

> <b_epik_Metal_Only>
0

> <s_lp_Force_Field>
OPLS_2005

> <r_lp_Energy>
56.9818

> <b_lp_Chiralities_Consistent>
1

> <s_lp_Variant>
AV-unprocessed.smi:209-2

> <Gold.Version>
5.8.1

> <Gold.Id.Protein>
6NUR|6NUR_protein|mol2

> <Gold.PLP.Fitness>
49.0947

> <Gold.PLP.PLP>
-39.2953

> <Gold.PLP.part.hbond>
-5.9734

> <Gold.PLP.part.metal>
0.0000

> <Gold.PLP.part.buried>
-4.5801

> <Gold.PLP.part.nonpolar>
-30.1453

> <Gold.PLP.part.repulsive>
0.5992

> <Gold.PLP.ligand.clash>
0.0000

> <Gold.PLP.ligand.torsion>
1.1035

> <Gold.PLP.Chemscore.Hbond>
3.8720

> <Gold.PLP.Chemscore.CHOScore>
0.0000

> <Gold.PLP.Chemscore.Metal>
0.0000

> <Gold.Chemscore.Hbonds>
donor molecule, donor type, donor heavy atom, donor atom, acceptor molecule, acceptor atom, score
      L1  H     3    29       P1  8029  1.00
      L1  H    23    44       P1  7957  0.88
      P1  H  7954  7966       L1    23  0.94
      P1  H  7997  8008       L1    12  1.00

> <Gold.PLP.Chemscore.Internal.Correction>
0.3904

> <Gold.Rescore>
     Score         DG    S(hbond)    S(metal)    S(lipo)     H(rot)  DE(clash)    DE(int)     intcor
     13.96     -15.43       1.86        0.00      90.18       2.66       0.21       1.26       ----

> <Gold.Chemscore.Fitness>
13.9627

> <Gold.Chemscore.DG>
-15.4304

> <Gold.Chemscore.ZeroCoef>
-5.4800

> <Gold.Chemscore.Hbond>
1.8606

> <Gold.Chemscore.Metal>
0.0000

> <Gold.Chemscore.Lipo>
90.1771

> <Gold.Chemscore.Internal_Hbond>
0.0000

> <Gold.Chemscore.DEClash>
0.2081

> <Gold.Chemscore.DEInternal>
1.2597

> <Gold.Chemscore.Rot>
2.6620

> <Gold.Chemscore.Internal.Correction>
   9.000000E+99

> <Gold.Chemscore.Hbonds>
donor molecule, donor type, donor heavy atom, donor atom, acceptor molecule, acceptor atom, score
      L1  H     3    29       P1  8029  0.32
      L1  H    23    44       P1  7957  0.86
      P1  H  7954  7966       L1    23  0.20
      P1  H  7997  8008       L1    12  0.38

> <Gold.Chemscore.Hbond.Weighted>
-6.2145

> <Gold.Chemscore.Metal.Weighted>
-0.0000

> <Gold.Chemscore.Lipo.Weighted>
-10.5507

> <Gold.Chemscore.Internal_Hbond.Weighted>
0.0000

> <Gold.Chemscore.DEClash.Weighted>
0.2081

> <Gold.Chemscore.DEInternal.Weighted>
1.2597

> <Gold.Chemscore.Rot.Weighted>
6.8148

> <Gold.Chemscore.Internal.Correction.Weighted>
   9.000000E+99

> <Gold.Protein.RotatedTorsions>
[ 6907 6896 6895 6894 ] final   17.32 input  -60.11 | X-H torsion
[ 7974 7965 7964 7962 ] final -107.95 input  175.53 | X-H torsion
[ 8008 7997 7996 7995 ] final  -62.97 input   59.86 | X-H torsion
[ 10167 10162 10161 10158 ] final -123.80 input  -65.29 | X-H torsion
[ 10718 10713 10712 10709 ] final -164.99 input   66.30 | X-H torsion
[ 10763 10752 10751 10750 ] final  -69.80 input  -60.55 | X-H torsion
[ 11005 11000 10999 10996 ] final  177.05 input  -57.11 | X-H torsion

> <Gold.Protein.ActiveResidues>
 VAL166  LYS551  ARG553  GLY616  TRP617  ASP618  TYR619  PRO620  LYS621  CYS622 
 ASP623  PHE694  ASN695  SER759  ASP760  ASP761  ALA762  ILE779  LEU786  VAL792 
 PHE793  MET794  SER795  GLU796  ALA797  LYS798  CYS799  TRP800  GLU811  SER814 

> <Gold.Protein.RotatedAtoms>
  151.8478  135.0568  160.0455 H   0  0  0  0  0  0  0  0  0  0  0  0  # atno 6907 bound_to 6896
  152.2760  133.5421  159.5476 H   0  0  0  0  0  0  0  0  0  0  0  0  # atno 6908 bound_to 6896
  150.7170  134.0547  159.3853 H   0  0  0  0  0  0  0  0  0  0  0  0  # atno 6909 bound_to 6896
  145.1989  140.9048  143.3381 H   0  0  0  0  0  0  0  0  0  0  0  0  # atno 7974 bound_to 7965
  154.4528  140.0985  156.6669 H   0  0  0  0  0  0  0  0  0  0  0  0  # atno 8008 bound_to 7997
  155.5231  140.3479  155.4392 H   0  0  0  0  0  0  0  0  0  0  0  0  # atno 8009 bound_to 7997
  156.0717  140.1351  156.9810 H   0  0  0  0  0  0  0  0  0  0  0  0  # atno 8010 bound_to 7997
  139.9996  143.5554  152.2309 H   0  0  0  0  0  0  0  0  0  0  0  0  # atno 10167 bound_to 10162
  156.6470  130.8992  151.3006 H   0  0  0  0  0  0  0  0  0  0  0  0  # atno 10718 bound_to 10713
  154.4086  135.6014  153.5939 H   0  0  0  0  0  0  0  0  0  0  0  0  # atno 10763 bound_to 10752
  152.9789  135.5924  154.4098 H   0  0  0  0  0  0  0  0  0  0  0  0  # atno 10764 bound_to 10752
  154.3907  135.2842  155.2135 H   0  0  0  0  0  0  0  0  0  0  0  0  # atno 10765 bound_to 10752
  140.3799  134.6956  157.4444 H   0  0  0  0  0  0  0  0  0  0  0  0  # atno 11005 bound_to 11000
  144.9967  139.3637  143.6188 LP  0  0  0  0  0  0  0  0  0  0  0  0  # atno 17320 bound_to 7965
  146.3421  139.9173  142.8771 LP  0  0  0  0  0  0  0  0  0  0  0  0  # atno 17321 bound_to 7965
  139.6281  144.7640  151.2595 LP  0  0  0  0  0  0  0  0  0  0  0  0  # atno 17342 bound_to 10162
  140.7424  143.6528  150.8233 LP  0  0  0  0  0  0  0  0  0  0  0  0  # atno 17343 bound_to 10162
  157.7153  130.9490  150.1233 LP  0  0  0  0  0  0  0  0  0  0  0  0  # atno 17370 bound_to 10713
  156.2114  130.3667  149.8665 LP  0  0  0  0  0  0  0  0  0  0  0  0  # atno 17371 bound_to 10713
  140.0487  134.6162  155.8889 LP  0  0  0  0  0  0  0  0  0  0  0  0  # atno 17394 bound_to 11000
  141.1927  133.6576  156.5513 LP  0  0  0  0  0  0  0  0  0  0  0  0  # atno 17395 bound_to 11000

$$$$
