AV-unprocessed.smi:753|AV-procd|sdf|3600|dock10
  -GOLD-   22720 0593D 1   1.00000     0.00000
 Structure written by MMmdl.
 43 45  0  0  0  0  0  0  0  0  1 V2000
  148.3167  121.1450  148.9504 C   0  0  0  0  0  0  0  0  0  0  0  0
  148.4551  122.5996  149.3482 C   0  0  0  0  0  0  0  0  0  0  0  0
  147.7992  123.1034  150.4913 C   0  0  0  0  0  0  0  0  0  0  0  0
  147.9618  124.4648  150.8121 C   0  0  0  0  0  0  0  0  0  0  0  0
  148.7724  125.2664  149.9826 C   0  0  0  0  0  0  0  0  0  0  0  0
  148.9759  126.7381  150.2823 C   0  0  0  0  0  0  0  0  0  0  0  0
  148.1778  127.1918  151.5144 C   0  0  0  0  0  0  0  0  0  0  0  0
  147.7235  128.5692  151.3762 N   0  0  0  0  0  0  0  0  0  0  0  0
  146.5529  129.0455  151.8321 C   0  0  0  0  0  0  0  0  0  0  0  0
  145.7195  128.3536  152.4139 O   0  0  0  0  0  0  0  0  0  0  0  0
  146.3553  130.3562  151.6073 N   0  0  0  0  0  0  0  0  0  0  0  0
  145.1914  131.1657  151.9781 C   0  0  1  0  0  0  0  0  0  0  0  0
  145.6194  132.4615  152.7021 C   0  0  0  0  0  0  0  0  0  0  0  0
  145.0059  133.5702  151.8271 C   0  0  1  0  0  0  0  0  0  0  0  0
  145.7808  133.6672  150.4993 C   0  0  0  0  0  0  0  0  0  0  0  0
  145.3250  132.4037  149.7455 C   0  0  0  0  0  0  0  0  0  0  0  0
  144.3934  131.7183  150.7684 C   0  0  2  0  0  0  0  0  0  0  0  0
  143.6981  132.9281  151.3840 C   0  0  0  0  0  0  0  0  0  0  0  0
  149.3839  124.6647  148.8627 C   0  0  0  0  0  0  0  0  0  0  0  0
  149.2322  123.3606  148.5462 N   0  0  0  0  0  0  0  0  0  0  0  0
  147.7088  120.5945  149.6689 H   0  0  0  0  0  0  0  0  0  0  0  0
  149.2968  120.6700  148.9004 H   0  0  0  0  0  0  0  0  0  0  0  0
  147.8441  121.0632  147.9713 H   0  0  0  0  0  0  0  0  0  0  0  0
  147.1846  122.4650  151.1090 H   0  0  0  0  0  0  0  0  0  0  0  0
  147.4714  124.8841  151.6785 H   0  0  0  0  0  0  0  0  0  0  0  0
  150.0404  126.9249  150.4305 H   0  0  0  0  0  0  0  0  0  0  0  0
  148.6801  127.3207  149.4086 H   0  0  0  0  0  0  0  0  0  0  0  0
  147.2998  126.5581  151.6433 H   0  0  0  0  0  0  0  0  0  0  0  0
  148.7765  127.0830  152.4205 H   0  0  0  0  0  0  0  0  0  0  0  0
  148.3472  129.2115  150.9094 H   0  0  0  0  0  0  0  0  0  0  0  0
  147.0908  130.8442  151.1169 H   0  0  0  0  0  0  0  0  0  0  0  0
  144.5339  130.5940  152.6358 H   0  0  0  0  0  0  0  0  0  0  0  0
  145.2003  132.4892  153.7089 H   0  0  0  0  0  0  0  0  0  0  0  0
  146.7012  132.5695  152.7949 H   0  0  0  0  0  0  0  0  0  0  0  0
  144.8996  134.5249  152.3429 H   0  0  0  0  0  0  0  0  0  0  0  0
  145.5000  134.5649  149.9474 H   0  0  0  0  0  0  0  0  0  0  0  0
  146.8602  133.6923  150.6534 H   0  0  0  0  0  0  0  0  0  0  0  0
  144.7669  132.6798  148.8499 H   0  0  0  0  0  0  0  0  0  0  0  0
  146.1595  131.7798  149.4257 H   0  0  0  0  0  0  0  0  0  0  0  0
  143.7195  130.9886  150.3187 H   0  0  0  0  0  0  0  0  0  0  0  0
  143.0379  132.6719  152.2147 H   0  0  0  0  0  0  0  0  0  0  0  0
  143.1444  133.5277  150.6592 H   0  0  0  0  0  0  0  0  0  0  0  0
  150.0091  125.2452  148.2001 H   0  0  0  0  0  0  0  0  0  0  0  0
  1  2  1  0  0  0  0
  1 21  1  0  0  0  0
  1 22  1  0  0  0  0
  1 23  1  0  0  0  0
  2 20  1  0  0  0  0
  2  3  2  0  0  0  0
  3  4  1  0  0  0  0
  3 24  1  0  0  0  0
  4  5  2  0  0  0  0
  4 25  1  0  0  0  0
  5  6  1  0  0  0  0
  5 19  1  0  0  0  0
  6  7  1  0  0  0  0
  6 26  1  0  0  0  0
  6 27  1  0  0  0  0
  7  8  1  0  0  0  0
  7 28  1  0  0  0  0
  7 29  1  0  0  0  0
  8  9  1  0  0  0  0
  8 30  1  0  0  0  0
  9 10  2  0  0  0  0
  9 11  1  0  0  0  0
 11 12  1  0  0  0  0
 11 31  1  0  0  0  0
 12 17  1  0  0  0  0
 12 13  1  0  0  0  0
 12 32  1  0  0  0  0
 13 14  1  0  0  0  0
 13 33  1  0  0  0  0
 13 34  1  0  0  0  0
 14 18  1  0  0  0  0
 14 15  1  0  0  0  0
 14 35  1  0  0  0  0
 15 16  1  0  0  0  0
 15 36  1  0  0  0  0
 15 37  1  0  0  0  0
 16 17  1  0  0  0  0
 16 38  1  0  0  0  0
 16 39  1  0  0  0  0
 17 18  1  0  0  0  0
 17 40  1  0  0  0  0
 18 41  1  0  0  0  0
 18 42  1  0  0  0  0
 19 20  2  0  0  0  0
 19 43  1  0  0  0  0
M  END
> <s_m_source_file>
AV-unprocessed.smi

> <i_m_source_file_index>
753

> <i_lp_mmshare_version>
43012

> <i_f3d_flags>
0

> <s_epik_input>
W0NIM11jMVtjSF1bY0hdYyhbY0hdbjEpW0NIMl1bQ0gyXVtOSF1DKD1PKVtOSF1bQ0BIXShbQ0gyXVtDQEBIXTIzKVtDQEBIXShbQ0gyXTMpW0NIMl1bQ0gyXTI=

> <s_epik_cmdline>
J2VwaWtfcHl0aG9uJywgJy1waCcsICc3LjAnLCAnLXRuJywgJzgnLCAnLW1hJywgJzIwMCcsICctbWV0YWxfYmluZGluZycsICctaW1hZScsICc8aW5maWxlLm1hZT4nLCAnLW9tYWUnLCAnPG91dGZpbGUubWFlPic=

> <r_epik_Ionization_Penalty>
0.0569047

> <r_epik_Ionization_Penalty_Charging>
0

> <r_epik_Ionization_Penalty_Neutral>
0.0569047

> <r_epik_State_Penalty>
0.0490541

> <r_epik_Charging_Adjusted_Penalty>
0.0490541

> <i_epik_Tot_Q>
0

> <i_epik_Tot_abs_Q>
0

> <r_epik_Metal_State_Penalty>
0.0447357

> <b_epik_Metal_Only>
0

> <s_lp_Force_Field>
OPLS_2005

> <r_lp_Energy>
50.4095

> <b_lp_Chiralities_Consistent>
1

> <s_lp_Variant>
AV-unprocessed.smi:753-2

> <Gold.Version>
5.8.1

> <Gold.Id.Protein>
6NUR|6NUR_protein|mol2

> <Gold.PLP.Fitness>
46.1239

> <Gold.PLP.PLP>
-38.8737

> <Gold.PLP.part.hbond>
-2.0000

> <Gold.PLP.part.metal>
0.0000

> <Gold.PLP.part.buried>
-4.9823

> <Gold.PLP.part.nonpolar>
-32.0349

> <Gold.PLP.part.repulsive>
0.2666

> <Gold.PLP.ligand.clash>
0.0000

> <Gold.PLP.ligand.torsion>
0.4597

> <Gold.PLP.Chemscore.Hbond>
1.7175

> <Gold.PLP.Chemscore.CHOScore>
1.0000

> <Gold.PLP.Chemscore.Metal>
0.0000

> <Gold.Chemscore.Hbonds>
donor molecule, donor type, donor heavy atom, donor atom, acceptor molecule, acceptor atom, score
      L1  H     8    30       P1 10747  0.75
      L1  H    11    31       P1 10747  0.92
      L1  C    19    43       P1 10769  1.00

> <Gold.PLP.Chemscore.Internal.Correction>
0.0172

> <Gold.Rescore>
     Score         DG    S(hbond)    S(metal)    S(lipo)     H(rot)  DE(clash)    DE(int)     intcor
     16.57     -17.04       0.99        0.00     101.76       1.43       0.01       0.45       ----

> <Gold.Chemscore.Fitness>
16.5739

> <Gold.Chemscore.DG>
-17.0367

> <Gold.Chemscore.ZeroCoef>
-5.4800

> <Gold.Chemscore.Hbond>
0.9908

> <Gold.Chemscore.Metal>
0.0000

> <Gold.Chemscore.Lipo>
101.7597

> <Gold.Chemscore.Internal_Hbond>
0.0000

> <Gold.Chemscore.DEClash>
0.0142

> <Gold.Chemscore.DEInternal>
0.4486

> <Gold.Chemscore.Rot>
1.4291

> <Gold.Chemscore.Internal.Correction>
   9.000000E+99

> <Gold.Chemscore.Hbonds>
donor molecule, donor type, donor heavy atom, donor atom, acceptor molecule, acceptor atom, score
      L1  H     8    30       P1 10747  0.09
      L1  H    11    31       P1 10747  0.83

> <Gold.Chemscore.Hbond.Weighted>
-3.3093

> <Gold.Chemscore.Metal.Weighted>
-0.0000

> <Gold.Chemscore.Lipo.Weighted>
-11.9059

> <Gold.Chemscore.Internal_Hbond.Weighted>
0.0000

> <Gold.Chemscore.DEClash.Weighted>
0.0142

> <Gold.Chemscore.DEInternal.Weighted>
0.4486

> <Gold.Chemscore.Rot.Weighted>
3.6585

> <Gold.Chemscore.Internal.Correction.Weighted>
   9.000000E+99

> <Gold.Protein.RotatedTorsions>
[ 6907 6896 6895 6894 ] final  167.59 input  -60.11 | X-H torsion
[ 7974 7965 7964 7962 ] final  -45.87 input  175.53 | X-H torsion
[ 8008 7997 7996 7995 ] final -143.48 input   59.86 | X-H torsion
[ 10167 10162 10161 10158 ] final -156.88 input  -65.29 | X-H torsion
[ 10718 10713 10712 10709 ] final   98.59 input   66.30 | X-H torsion
[ 10763 10752 10751 10750 ] final  -39.82 input  -60.55 | X-H torsion
[ 11005 11000 10999 10996 ] final -150.85 input  -57.11 | X-H torsion

> <Gold.Protein.ActiveResidues>
 VAL166  LYS551  ARG553  GLY616  TRP617  ASP618  TYR619  PRO620  LYS621  CYS622 
 ASP623  PHE694  ASN695  SER759  ASP760  ASP761  ALA762  ILE779  LEU786  VAL792 
 PHE793  MET794  SER795  GLU796  ALA797  LYS798  CYS799  TRP800  GLU811  SER814 

> <Gold.Protein.RotatedAtoms>
  151.8609  133.3457  159.3703 H   0  0  0  0  0  0  0  0  0  0  0  0  # atno 6907 bound_to 6896
  150.7179  134.5207  159.5662 H   0  0  0  0  0  0  0  0  0  0  0  0  # atno 6908 bound_to 6896
  152.2720  134.7922  160.0463 H   0  0  0  0  0  0  0  0  0  0  0  0  # atno 6909 bound_to 6896
  145.9777  140.7317  142.9379 H   0  0  0  0  0  0  0  0  0  0  0  0  # atno 7974 bound_to 7965
  155.5113  140.0583  157.2923 H   0  0  0  0  0  0  0  0  0  0  0  0  # atno 8008 bound_to 7997
  154.4551  140.1968  156.0353 H   0  0  0  0  0  0  0  0  0  0  0  0  # atno 8009 bound_to 7997
  156.0782  140.3250  155.7664 H   0  0  0  0  0  0  0  0  0  0  0  0  # atno 8010 bound_to 7997
  139.6814  143.9574  152.2339 H   0  0  0  0  0  0  0  0  0  0  0  0  # atno 10167 bound_to 10162
  157.6893  131.0644  150.4819 H   0  0  0  0  0  0  0  0  0  0  0  0  # atno 10718 bound_to 10713
  153.9357  135.6767  153.4745 H   0  0  0  0  0  0  0  0  0  0  0  0  # atno 10763 bound_to 10752
  153.0957  135.4852  154.8771 H   0  0  0  0  0  0  0  0  0  0  0  0  # atno 10764 bound_to 10752
  154.7404  135.3159  154.8695 H   0  0  0  0  0  0  0  0  0  0  0  0  # atno 10765 bound_to 10752
  140.7358  134.3570  157.5157 H   0  0  0  0  0  0  0  0  0  0  0  0  # atno 11005 bound_to 11000
  144.6853  140.2855  143.7286 LP  0  0  0  0  0  0  0  0  0  0  0  0  # atno 17320 bound_to 7965
  145.7815  139.1893  143.2155 LP  0  0  0  0  0  0  0  0  0  0  0  0  # atno 17321 bound_to 7965
  139.9365  144.6708  150.8309 LP  0  0  0  0  0  0  0  0  0  0  0  0  # atno 17342 bound_to 10162
  140.7653  143.3273  151.2488 LP  0  0  0  0  0  0  0  0  0  0  0  0  # atno 17343 bound_to 10162
  156.5150  130.4148  149.6280 LP  0  0  0  0  0  0  0  0  0  0  0  0  # atno 17370 bound_to 10713
  156.3206  130.7278  151.2189 LP  0  0  0  0  0  0  0  0  0  0  0  0  # atno 17371 bound_to 10713
  139.8816  134.9048  156.2886 LP  0  0  0  0  0  0  0  0  0  0  0  0  # atno 17394 bound_to 11000
  140.9880  133.7226  156.0771 LP  0  0  0  0  0  0  0  0  0  0  0  0  # atno 17395 bound_to 11000

$$$$
