AV-unprocessed.smi:1307|AV-procd|sdf|5436|dock8
  -GOLD-   22720 5 03D 1   1.00000     0.00000
 Structure written by MMmdl.
 41 41  0  0  0  0  0  0  0  0  1 V2000
  152.8068  144.8798  157.9518 C   0  0  0  0  0  0  0  0  0  0  0  0
  151.5701  144.5230  158.7967 C   0  0  0  0  0  0  0  0  0  0  0  0
  151.5527  145.3915  160.0704 C   0  0  0  0  0  0  0  0  0  0  0  0
  151.4915  143.0038  159.1103 C   0  0  2  0  0  0  0  0  0  0  0  0
  152.5076  142.5468  160.1710 C   0  0  0  0  0  0  0  0  0  0  0  0
  151.7197  142.2132  157.9003 N   0  0  0  0  0  0  0  0  0  0  0  0
  150.7786  141.5956  157.1695 C   0  0  0  0  0  0  0  0  0  0  0  0
  149.5775  141.6293  157.4410 O   0  0  0  0  0  0  0  0  0  0  0  0
  151.2877  140.8451  155.9277 C   0  0  0  0  0  0  0  0  0  0  0  0
  150.2352  140.0755  155.2173 N   0  0  0  0  0  0  0  0  0  0  0  0
  150.2407  138.6460  155.2638 C   0  0  0  0  0  0  0  0  0  0  0  0
  151.3698  137.9182  156.0083 C   0  0  0  0  0  0  0  0  0  0  0  0
  151.2318  136.5946  155.9175 F   0  0  0  0  0  0  0  0  0  0  0  0
  152.5701  138.2085  155.5068 F   0  0  0  0  0  0  0  0  0  0  0  0
  151.3522  138.2203  157.3069 F   0  0  0  0  0  0  0  0  0  0  0  0
  149.2790  137.9527  154.6271 C   0  0  0  0  0  0  0  0  0  0  0  0
  148.2436  138.6435  153.9094 C   0  0  0  0  0  0  0  0  0  0  0  0
  148.2275  139.9944  153.8505 C   0  0  0  0  0  0  0  0  0  0  0  0
  147.1821  140.7505  153.1239 C   0  0  0  0  0  0  0  0  0  0  0  0
  146.8569  140.2325  151.9326 N   0  0  0  0  0  0  0  0  0  0  0  0
  146.6106  141.7737  153.5005 O   0  0  0  0  0  0  0  0  0  0  0  0
  149.2782  140.7925  154.5333 C   0  0  0  0  0  0  0  0  0  0  0  0
  149.3287  142.0262  154.5102 O   0  0  0  0  0  0  0  0  0  0  0  0
  153.7279  144.5765  158.4504 H   0  0  0  0  0  0  0  0  0  0  0  0
  152.8650  145.9542  157.7752 H   0  0  0  0  0  0  0  0  0  0  0  0
  152.7821  144.4021  156.9731 H   0  0  0  0  0  0  0  0  0  0  0  0
  150.6891  144.7939  158.2132 H   0  0  0  0  0  0  0  0  0  0  0  0
  152.3741  145.1302  160.7383 H   0  0  0  0  0  0  0  0  0  0  0  0
  150.6223  145.2791  160.6270 H   0  0  0  0  0  0  0  0  0  0  0  0
  151.6476  146.4500  159.8264 H   0  0  0  0  0  0  0  0  0  0  0  0
  150.4958  142.7929  159.5042 H   0  0  0  0  0  0  0  0  0  0  0  0
  152.3153  143.0047  161.1407 H   0  0  0  0  0  0  0  0  0  0  0  0
  153.5281  142.7956  159.8780 H   0  0  0  0  0  0  0  0  0  0  0  0
  152.4591  141.4670  160.3175 H   0  0  0  0  0  0  0  0  0  0  0  0
  152.6775  142.1313  157.5918 H   0  0  0  0  0  0  0  0  0  0  0  0
  151.7980  141.5554  155.2840 H   0  0  0  0  0  0  0  0  0  0  0  0
  152.0981  140.1830  156.2384 H   0  0  0  0  0  0  0  0  0  0  0  0
  149.2701  136.8730  154.6395 H   0  0  0  0  0  0  0  0  0  0  0  0
  147.4903  138.0379  153.4277 H   0  0  0  0  0  0  0  0  0  0  0  0
  146.1491  140.6746  151.3645 H   0  0  0  0  0  0  0  0  0  0  0  0
  147.3196  139.3952  151.6098 H   0  0  0  0  0  0  0  0  0  0  0  0
  1  2  1  0  0  0  0
  1 24  1  0  0  0  0
  1 25  1  0  0  0  0
  1 26  1  0  0  0  0
  2  3  1  0  0  0  0
  2  4  1  0  0  0  0
  2 27  1  0  0  0  0
  3 28  1  0  0  0  0
  3 29  1  0  0  0  0
  3 30  1  0  0  0  0
  4  5  1  0  0  0  0
  4  6  1  0  0  0  0
  4 31  1  0  0  0  0
  5 32  1  0  0  0  0
  5 33  1  0  0  0  0
  5 34  1  0  0  0  0
  6  7  1  0  0  0  0
  6 35  1  0  0  0  0
  7  8  2  0  0  0  0
  7  9  1  0  0  0  0
  9 10  1  0  0  0  0
  9 36  1  0  0  0  0
  9 37  1  0  0  0  0
 10 22  1  0  0  0  0
 10 11  1  0  0  0  0
 11 12  1  0  0  0  0
 11 16  2  0  0  0  0
 12 13  1  0  0  0  0
 12 14  1  0  0  0  0
 12 15  1  0  0  0  0
 16 17  1  0  0  0  0
 16 38  1  0  0  0  0
 17 18  2  0  0  0  0
 17 39  1  0  0  0  0
 18 19  1  0  0  0  0
 18 22  1  0  0  0  0
 19 20  1  0  0  0  0
 19 21  2  0  0  0  0
 20 40  1  0  0  0  0
 20 41  1  0  0  0  0
 22 23  2  0  0  0  0
M  END
> <s_m_source_file>
AV-unprocessed.smi

> <i_m_source_file_index>
1307

> <i_lp_mmshare_version>
43012

> <i_f3d_flags>
0

> <s_epik_input>
W0NIM11bQ0hdKFtDSDNdKVtDQEhdKFtDSDNdKVtOSF1DKD1PKVtDSDJdbjFjKEMoRikoRilGKVtjSF1bY0hdYyhjMT1PKUMoPU8pW05IMl0=

> <s_epik_cmdline>
J2VwaWtfcHl0aG9uJywgJy1waCcsICc3LjAnLCAnLXRuJywgJzgnLCAnLW1hJywgJzIwMCcsICctbWV0YWxfYmluZGluZycsICctaW1hZScsICc8aW5maWxlLm1hZT4nLCAnLW9tYWUnLCAnPG91dGZpbGUubWFlPic=

> <r_lp_tautomer_probability>
1

> <r_epik_Ionization_Penalty>
2.05992e-06

> <r_epik_Ionization_Penalty_Charging>
8.21357e-10

> <r_epik_Ionization_Penalty_Neutral>
2.0591e-06

> <r_epik_State_Penalty>
-0

> <r_epik_Charging_Adjusted_Penalty>
8.21357e-10

> <i_epik_Tot_Q>
0

> <i_epik_Tot_abs_Q>
0

> <r_epik_Metal_State_Penalty>
-0

> <b_epik_Metal_Only>
0

> <s_lp_Force_Field>
OPLS_2005

> <r_lp_Energy>
26.4012

> <b_lp_Chiralities_Consistent>
1

> <s_lp_Variant>
AV-unprocessed.smi:1307-1

> <Gold.Version>
5.8.1

> <Gold.Id.Protein>
6NUR|6NUR_protein|mol2

> <Gold.PLP.Fitness>
43.2082

> <Gold.PLP.PLP>
-45.0747

> <Gold.PLP.part.hbond>
-2.9312

> <Gold.PLP.part.metal>
0.0000

> <Gold.PLP.part.buried>
-3.2883

> <Gold.PLP.part.nonpolar>
-39.2598

> <Gold.PLP.part.repulsive>
1.7849

> <Gold.PLP.ligand.clash>
3.9721

> <Gold.PLP.ligand.torsion>
1.1467

> <Gold.PLP.Chemscore.Hbond>
0.1201

> <Gold.PLP.Chemscore.CHOScore>
0.0000

> <Gold.PLP.Chemscore.Metal>
0.0000

> <Gold.Chemscore.Hbonds>
donor molecule, donor type, donor heavy atom, donor atom, acceptor molecule, acceptor atom, score
      L1  H    20    41       P1  7957  0.02
      P1  H  8011  8017       L1    23  0.15

> <Gold.PLP.Chemscore.Internal.Correction>
4.0386

> <Gold.Rescore>
     Score         DG    S(hbond)    S(metal)    S(lipo)     H(rot)  DE(clash)    DE(int)     intcor
      7.41     -12.30       0.32        0.00      92.22       1.97       0.34       4.54       ----

> <Gold.Chemscore.Fitness>
7.4101

> <Gold.Chemscore.DG>
-12.2956

> <Gold.Chemscore.ZeroCoef>
-5.4800

> <Gold.Chemscore.Hbond>
0.3220

> <Gold.Chemscore.Metal>
0.0000

> <Gold.Chemscore.Lipo>
92.2159

> <Gold.Chemscore.Internal_Hbond>
0.0000

> <Gold.Chemscore.DEClash>
0.3441

> <Gold.Chemscore.DEInternal>
4.5414

> <Gold.Chemscore.Rot>
1.9723

> <Gold.Chemscore.Internal.Correction>
   9.000000E+99

> <Gold.Chemscore.Hbonds>
donor molecule, donor type, donor heavy atom, donor atom, acceptor molecule, acceptor atom, score
      L1  H    20    41       P1  7957  0.02
      P1  H  8011  8017       L1    23  0.05

> <Gold.Chemscore.Hbond.Weighted>
-1.0753

> <Gold.Chemscore.Metal.Weighted>
-0.0000

> <Gold.Chemscore.Lipo.Weighted>
-10.7893

> <Gold.Chemscore.Internal_Hbond.Weighted>
0.0000

> <Gold.Chemscore.DEClash.Weighted>
0.3441

> <Gold.Chemscore.DEInternal.Weighted>
4.5414

> <Gold.Chemscore.Rot.Weighted>
5.0490

> <Gold.Chemscore.Internal.Correction.Weighted>
   9.000000E+99

> <Gold.Protein.RotatedTorsions>
[ 6907 6896 6895 6894 ] final  -19.38 input  -60.11 | X-H torsion
[ 7974 7965 7964 7962 ] final   22.16 input  175.53 | X-H torsion
[ 8008 7997 7996 7995 ] final   71.93 input   59.86 | X-H torsion
[ 10167 10162 10161 10158 ] final  103.86 input  -65.29 | X-H torsion
[ 10718 10713 10712 10709 ] final  -90.16 input   66.30 | X-H torsion
[ 10763 10752 10751 10750 ] final   41.17 input  -60.55 | X-H torsion
[ 11005 11000 10999 10996 ] final   24.28 input  -57.11 | X-H torsion

> <Gold.Protein.ActiveResidues>
 VAL166  LYS551  ARG553  GLY616  TRP617  ASP618  TYR619  PRO620  LYS621  CYS622 
 ASP623  PHE694  ASN695  SER759  ASP760  ASP761  ALA762  ILE779  LEU786  VAL792 
 PHE793  MET794  SER795  GLU796  ALA797  LYS798  CYS799  TRP800  GLU811  SER814 

> <Gold.Protein.RotatedAtoms>
  151.2640  135.0663  159.9108 H   0  0  0  0  0  0  0  0  0  0  0  0  # atno 6907 bound_to 6896
  152.5361  134.0201  159.7988 H   0  0  0  0  0  0  0  0  0  0  0  0  # atno 6908 bound_to 6896
  151.0428  133.5641  159.2680 H   0  0  0  0  0  0  0  0  0  0  0  0  # atno 6909 bound_to 6896
  146.2041  139.7925  142.8739 H   0  0  0  0  0  0  0  0  0  0  0  0  # atno 7974 bound_to 7965
  155.7612  140.3486  155.5199 H   0  0  0  0  0  0  0  0  0  0  0  0  # atno 8008 bound_to 7997
  155.8911  140.1018  157.1438 H   0  0  0  0  0  0  0  0  0  0  0  0  # atno 8009 bound_to 7997
  154.4033  140.1304  156.4305 H   0  0  0  0  0  0  0  0  0  0  0  0  # atno 8010 bound_to 7997
  139.7226  144.7054  151.0848 H   0  0  0  0  0  0  0  0  0  0  0  0  # atno 10167 bound_to 10162
  155.9986  130.4899  150.5281 H   0  0  0  0  0  0  0  0  0  0  0  0  # atno 10718 bound_to 10713
  152.9915  135.6169  154.2745 H   0  0  0  0  0  0  0  0  0  0  0  0  # atno 10763 bound_to 10752
  154.2476  135.2786  155.2831 H   0  0  0  0  0  0  0  0  0  0  0  0  # atno 10764 bound_to 10752
  154.5315  135.5786  153.6821 H   0  0  0  0  0  0  0  0  0  0  0  0  # atno 10765 bound_to 10752
  140.3604  134.2131  155.7672 H   0  0  0  0  0  0  0  0  0  0  0  0  # atno 11005 bound_to 11000
  145.3382  141.0282  143.3407 LP  0  0  0  0  0  0  0  0  0  0  0  0  # atno 17320 bound_to 7965
  144.8750  139.4983  143.6749 LP  0  0  0  0  0  0  0  0  0  0  0  0  # atno 17321 bound_to 7965
  140.7756  143.5146  150.9610 LP  0  0  0  0  0  0  0  0  0  0  0  0  # atno 17342 bound_to 10162
  139.8833  143.7044  152.3154 LP  0  0  0  0  0  0  0  0  0  0  0  0  # atno 17343 bound_to 10162
  157.3234  131.0686  151.1915 LP  0  0  0  0  0  0  0  0  0  0  0  0  # atno 17370 bound_to 10713
  157.2820  130.6755  149.6071 LP  0  0  0  0  0  0  0  0  0  0  0  0  # atno 17371 bound_to 10713
  141.1985  133.8032  157.0577 LP  0  0  0  0  0  0  0  0  0  0  0  0  # atno 17394 bound_to 11000
  140.0631  134.9744  157.1339 LP  0  0  0  0  0  0  0  0  0  0  0  0  # atno 17395 bound_to 11000

$$$$
