AV-unprocessed.smi:644|AV-procd|sdf|3155|dock3
  -GOLD-   22720 0 73D 1   1.00000     0.00000
 Structure written by MMmdl.
 37 39  0  0  0  0  0  0  0  0  1 V2000
  151.6606  145.4995  160.0982 C   0  0  0  0  0  0  0  0  0  0  0  0
  151.7570  144.0756  159.5795 C   0  0  0  0  0  0  0  0  0  0  0  0
  151.3039  143.7887  158.2721 C   0  0  0  0  0  0  0  0  0  0  0  0
  151.3783  142.4785  157.7510 C   0  0  0  0  0  0  0  0  0  0  0  0
  151.0020  141.9793  156.5158 N   0  0  0  0  0  0  0  0  0  0  0  0
  151.3226  140.6944  156.6366 C   0  0  0  0  0  0  0  0  0  0  0  0
  151.8665  140.3019  157.8046 N   0  0  0  0  0  0  0  0  0  0  0  0
  152.2958  138.9624  158.1662 C   0  0  0  0  0  0  0  0  0  0  0  0
  151.1111  138.0324  158.4900 C   0  0  2  0  0  0  0  0  0  0  0  0
  151.4710  137.1580  159.5430 O   0  0  0  0  0  0  0  0  0  0  0  0
  150.6794  137.2014  157.2715 C   0  0  0  0  0  0  0  0  0  0  0  0
  149.2112  136.1907  157.6200 S   0  0  0  0  0  0  0  0  0  0  0  0
  149.7345  134.7328  156.7948 C   0  0  0  0  0  0  0  0  0  0  0  0
  150.0362  133.5901  157.4232 N   0  0  0  0  0  0  0  0  0  0  0  0
  150.4212  132.5920  156.5369 N   0  0  0  0  0  0  0  0  0  0  0  0
  150.3971  133.0235  155.2728 C   0  0  0  0  0  0  0  0  0  0  0  0
  149.8988  134.6897  155.0435 S   0  0  0  0  0  0  0  0  0  0  0  0
  151.9215  141.4544  158.5808 C   0  0  0  0  0  0  0  0  0  0  0  0
  152.3740  141.7268  159.8838 C   0  0  0  0  0  0  0  0  0  0  0  0
  152.2944  143.0419  160.3882 C   0  0  0  0  0  0  0  0  0  0  0  0
  152.7892  143.3271  161.7954 C   0  0  0  0  0  0  0  0  0  0  0  0
  151.2049  146.1613  159.3612 H   0  0  0  0  0  0  0  0  0  0  0  0
  152.6520  145.8893  160.3300 H   0  0  0  0  0  0  0  0  0  0  0  0
  151.0524  145.5374  161.0022 H   0  0  0  0  0  0  0  0  0  0  0  0
  150.8952  144.5758  157.6555 H   0  0  0  0  0  0  0  0  0  0  0  0
  151.1570  139.9979  155.8277 H   0  0  0  0  0  0  0  0  0  0  0  0
  152.8786  138.5578  157.3378 H   0  0  0  0  0  0  0  0  0  0  0  0
  152.9723  139.0298  159.0197 H   0  0  0  0  0  0  0  0  0  0  0  0
  150.2666  138.6355  158.8257 H   0  0  0  0  0  0  0  0  0  0  0  0
  151.3186  137.5997  160.3644 H   0  0  0  0  0  0  0  0  0  0  0  0
  150.4406  137.8610  156.4363 H   0  0  0  0  0  0  0  0  0  0  0  0
  151.4952  136.5563  156.9427 H   0  0  0  0  0  0  0  0  0  0  0  0
  150.6749  132.3562  154.4706 H   0  0  0  0  0  0  0  0  0  0  0  0
  152.7808  140.9297  160.4885 H   0  0  0  0  0  0  0  0  0  0  0  0
  153.1940  142.4301  162.2649 H   0  0  0  0  0  0  0  0  0  0  0  0
  151.9736  143.6927  162.4196 H   0  0  0  0  0  0  0  0  0  0  0  0
  153.5778  144.0797  161.7789 H   0  0  0  0  0  0  0  0  0  0  0  0
  1  2  1  0  0  0  0
  1 22  1  0  0  0  0
  1 23  1  0  0  0  0
  1 24  1  0  0  0  0
  2 20  1  0  0  0  0
  2  3  2  0  0  0  0
  3  4  1  0  0  0  0
  3 25  1  0  0  0  0
  4 18  2  0  0  0  0
  4  5  1  0  0  0  0
  5  6  2  0  0  0  0
  6  7  1  0  0  0  0
  6 26  1  0  0  0  0
  7  8  1  0  0  0  0
  7 18  1  0  0  0  0
  8  9  1  0  0  0  0
  8 27  1  0  0  0  0
  8 28  1  0  0  0  0
  9 10  1  0  0  0  0
  9 11  1  0  0  0  0
  9 29  1  0  0  0  0
 10 30  1  0  0  0  0
 11 12  1  0  0  0  0
 11 31  1  0  0  0  0
 11 32  1  0  0  0  0
 12 13  1  0  0  0  0
 13 17  1  0  0  0  0
 13 14  2  0  0  0  0
 14 15  1  0  0  0  0
 15 16  2  0  0  0  0
 16 17  1  0  0  0  0
 16 33  1  0  0  0  0
 18 19  1  0  0  0  0
 19 20  2  0  0  0  0
 19 34  1  0  0  0  0
 20 21  1  0  0  0  0
 21 35  1  0  0  0  0
 21 36  1  0  0  0  0
 21 37  1  0  0  0  0
M  END
> <s_m_source_file>
AV-unprocessed.smi

> <i_m_source_file_index>
644

> <i_lp_mmshare_version>
43012

> <i_f3d_flags>
0

> <s_epik_input>
W0NIM11jKFtjSF0xKWMoW0NIM10pW2NIXWMoYzEyKW4oW2NIXW4yKVtDSDJdW0NASF0oW09IXSlbQ0gyXVNjM25uW2NIXXMz

> <s_epik_cmdline>
J2VwaWtfcHl0aG9uJywgJy1waCcsICc3LjAnLCAnLXRuJywgJzgnLCAnLW1hJywgJzIwMCcsICctbWV0YWxfYmluZGluZycsICctaW1hZScsICc8aW5maWxlLm1hZT4nLCAnLW9tYWUnLCAnPG91dGZpbGUubWFlPic=

> <r_lp_tautomer_probability>
1

> <r_epik_Ionization_Penalty>
0.105397

> <r_epik_Ionization_Penalty_Charging>
0

> <r_epik_Ionization_Penalty_Neutral>
0.105397

> <r_epik_State_Penalty>
0.0952713

> <r_epik_Charging_Adjusted_Penalty>
0.0952713

> <i_epik_Tot_Q>
0

> <i_epik_Tot_abs_Q>
0

> <r_epik_Metal_State_Penalty>
0.0807681

> <b_epik_Metal_Only>
0

> <s_lp_Force_Field>
OPLS_2005

> <r_lp_Energy>
9.27729

> <b_lp_Chiralities_Consistent>
1

> <s_lp_Variant>
AV-unprocessed.smi:644-1

> <Gold.Version>
5.8.1

> <Gold.Id.Protein>
6NUR|6NUR_protein|mol2

> <Gold.PLP.Fitness>
45.8985

> <Gold.PLP.PLP>
-41.9234

> <Gold.PLP.part.hbond>
-2.0000

> <Gold.PLP.part.metal>
0.0000

> <Gold.PLP.part.buried>
-6.8114

> <Gold.PLP.part.nonpolar>
-33.2882

> <Gold.PLP.part.repulsive>
0.0759

> <Gold.PLP.ligand.clash>
0.0000

> <Gold.PLP.ligand.torsion>
1.0449

> <Gold.PLP.Chemscore.Hbond>
2.0000

> <Gold.PLP.Chemscore.CHOScore>
0.0000

> <Gold.PLP.Chemscore.Metal>
0.0000

> <Gold.Chemscore.Hbonds>
donor molecule, donor type, donor heavy atom, donor atom, acceptor molecule, acceptor atom, score
      P1  H  6896  6907       L1    10  1.00
      P1  H  6896  6909       L1    14  1.00

> <Gold.PLP.Chemscore.Internal.Correction>
0.0649

> <Gold.Rescore>
     Score         DG    S(hbond)    S(metal)    S(lipo)     H(rot)  DE(clash)    DE(int)     intcor
     16.96     -18.10       1.68        0.00     113.81       2.46       0.02       1.11       ----

> <Gold.Chemscore.Fitness>
16.9599

> <Gold.Chemscore.DG>
-18.0990

> <Gold.Chemscore.ZeroCoef>
-5.4800

> <Gold.Chemscore.Hbond>
1.6761

> <Gold.Chemscore.Metal>
0.0000

> <Gold.Chemscore.Lipo>
113.8081

> <Gold.Chemscore.Internal_Hbond>
0.0000

> <Gold.Chemscore.DEClash>
0.0243

> <Gold.Chemscore.DEInternal>
1.1147

> <Gold.Chemscore.Rot>
2.4588

> <Gold.Chemscore.Internal.Correction>
   9.000000E+99

> <Gold.Chemscore.Hbonds>
donor molecule, donor type, donor heavy atom, donor atom, acceptor molecule, acceptor atom, score
      P1  H  6896  6907       L1    10  0.52
      P1  H  6896  6909       L1    14  0.88

> <Gold.Chemscore.Hbond.Weighted>
-5.5980

> <Gold.Chemscore.Metal.Weighted>
-0.0000

> <Gold.Chemscore.Lipo.Weighted>
-13.3156

> <Gold.Chemscore.Internal_Hbond.Weighted>
0.0000

> <Gold.Chemscore.DEClash.Weighted>
0.0243

> <Gold.Chemscore.DEInternal.Weighted>
1.1147

> <Gold.Chemscore.Rot.Weighted>
6.2946

> <Gold.Chemscore.Internal.Correction.Weighted>
   9.000000E+99

> <Gold.Protein.RotatedTorsions>
[ 6907 6896 6895 6894 ] final   -4.65 input  -60.11 | X-H torsion
[ 7974 7965 7964 7962 ] final -150.66 input  175.53 | X-H torsion
[ 8008 7997 7996 7995 ] final   10.69 input   59.86 | X-H torsion
[ 10167 10162 10161 10158 ] final  129.40 input  -65.29 | X-H torsion
[ 10718 10713 10712 10709 ] final  161.81 input   66.30 | X-H torsion
[ 10763 10752 10751 10750 ] final -173.16 input  -60.55 | X-H torsion
[ 11005 11000 10999 10996 ] final -116.77 input  -57.11 | X-H torsion

> <Gold.Protein.ActiveResidues>
 VAL166  LYS551  ARG553  GLY616  TRP617  ASP618  TYR619  PRO620  LYS621  CYS622 
 ASP623  PHE694  ASN695  SER759  ASP760  ASP761  ALA762  ILE779  LEU786  VAL792 
 PHE793  MET794  SER795  GLU796  ALA797  LYS798  CYS799  TRP800  GLU811  SER814 

> <Gold.Protein.RotatedAtoms>
  151.4943  135.1059  159.9811 H   0  0  0  0  0  0  0  0  0  0  0  0  # atno 6907 bound_to 6896
  152.4728  133.8065  159.6991 H   0  0  0  0  0  0  0  0  0  0  0  0  # atno 6908 bound_to 6896
  150.8747  133.7393  159.2976 H   0  0  0  0  0  0  0  0  0  0  0  0  # atno 6909 bound_to 6896
  144.7895  140.4902  143.5783 H   0  0  0  0  0  0  0  0  0  0  0  0  # atno 7974 bound_to 7965
  154.7968  140.2845  155.5950 H   0  0  0  0  0  0  0  0  0  0  0  0  # atno 8008 bound_to 7997
  156.2972  140.2594  156.2757 H   0  0  0  0  0  0  0  0  0  0  0  0  # atno 8009 bound_to 7997
  154.9605  140.0377  157.2177 H   0  0  0  0  0  0  0  0  0  0  0  0  # atno 8010 bound_to 7997
  139.5479  144.6789  151.4414 H   0  0  0  0  0  0  0  0  0  0  0  0  # atno 10167 bound_to 10162
  157.1313  131.0517  151.2370 H   0  0  0  0  0  0  0  0  0  0  0  0  # atno 10718 bound_to 10713
  154.6111  135.2864  155.0431 H   0  0  0  0  0  0  0  0  0  0  0  0  # atno 10763 bound_to 10752
  154.1661  135.6480  153.5001 H   0  0  0  0  0  0  0  0  0  0  0  0  # atno 10764 bound_to 10752
  153.0195  135.5390  154.6865 H   0  0  0  0  0  0  0  0  0  0  0  0  # atno 10765 bound_to 10752
  141.0399  133.9851  157.3010 H   0  0  0  0  0  0  0  0  0  0  0  0  # atno 11005 bound_to 11000
  145.5833  139.1490  143.3223 LP  0  0  0  0  0  0  0  0  0  0  0  0  # atno 17320 bound_to 7965
  146.2141  140.5962  142.9046 LP  0  0  0  0  0  0  0  0  0  0  0  0  # atno 17321 bound_to 7965
  140.6733  143.8245  150.7027 LP  0  0  0  0  0  0  0  0  0  0  0  0  # atno 17342 bound_to 10162
  140.1676  143.4222  152.2023 LP  0  0  0  0  0  0  0  0  0  0  0  0  # atno 17343 bound_to 10162
  157.4390  130.7533  149.7053 LP  0  0  0  0  0  0  0  0  0  0  0  0  # atno 17370 bound_to 10713
  155.9807  130.4026  150.3511 LP  0  0  0  0  0  0  0  0  0  0  0  0  # atno 17371 bound_to 10713
  139.9268  135.0201  156.8263 LP  0  0  0  0  0  0  0  0  0  0  0  0  # atno 17394 bound_to 11000
  140.6253  133.9956  155.7637 LP  0  0  0  0  0  0  0  0  0  0  0  0  # atno 17395 bound_to 11000

$$$$
