AV-unprocessed.smi:511|AV-procd|sdf|2767|dock4
  -GOLD-   2262023233D 1   1.00000     0.00000
 Structure written by MMmdl.
 44 46  0  0  0  0  0  0  0  0  2 V2000
  148.5930  140.9369  154.3675 C   0  0  0  0  0  0  0  0  0  0  0  0
  149.9099  140.4425  154.2086 O   0  0  0  0  0  0  0  0  0  0  0  0
  150.4062  139.8220  155.3833 C   0  0  0  0  0  0  0  0  0  0  0  0
  151.6289  140.5966  155.8932 C   0  0  0  0  0  0  0  0  0  0  0  0
  152.1440  140.0439  157.1456 N   0  0  0  0  0  0  0  0  0  0  0  0
  152.3244  140.6659  158.3443 C   0  0  0  0  0  0  0  0  0  0  0  0
  151.9856  142.0029  158.5591 N   0  0  0  0  0  0  0  0  0  0  0  0
  152.7930  143.0276  159.2170 C   0  0  0  0  0  0  0  0  0  0  0  0
  151.9629  143.7887  160.2691 C   0  0  0  0  0  0  0  0  0  0  0  0
  150.8467  144.4619  159.6055 N   0  0  0  0  0  0  0  0  0  0  0  0
  150.0481  145.1722  160.5935 C   0  0  0  0  0  0  0  0  0  0  0  0
  150.0201  143.4553  158.9390 C   0  0  0  0  0  0  0  0  0  0  0  0
  150.8696  142.6836  157.9092 C   0  0  0  0  0  0  0  0  0  0  0  0
  152.8924  139.9069  159.2836 N   0  0  0  0  0  0  0  0  0  0  0  0
  153.0648  138.6909  158.6421 C   0  0  0  0  0  0  0  0  0  0  0  0
  152.6324  138.7491  157.3543 C   0  0  0  0  0  0  0  0  0  0  0  0
  152.7231  137.6157  156.4062 C   0  0  0  0  0  0  0  0  0  0  0  0
  152.3521  137.7304  155.2397 O   0  0  0  0  0  0  0  0  0  0  0  0
  153.2535  136.4943  156.9893 N   0  5  0  0  0  0  0  0  0  0  0  0
  153.6905  136.3880  158.2921 C   0  0  0  0  0  0  0  0  0  0  0  0
  154.1498  135.3364  158.7399 O   0  0  0  0  0  0  0  0  0  0  0  0
  153.6173  137.4733  159.1252 N   0  0  0  0  0  0  0  0  0  0  0  0
  154.0832  137.3929  160.5125 C   0  0  0  0  0  0  0  0  0  0  0  0
  148.2660  141.4082  153.4407 H   0  0  0  0  0  0  0  0  0  0  0  0
  148.5454  141.6842  155.1607 H   0  0  0  0  0  0  0  0  0  0  0  0
  147.8956  140.1315  154.6010 H   0  0  0  0  0  0  0  0  0  0  0  0
  149.6325  139.8103  156.1520 H   0  0  0  0  0  0  0  0  0  0  0  0
  150.6754  138.7854  155.1752 H   0  0  0  0  0  0  0  0  0  0  0  0
  152.3980  140.5950  155.1284 H   0  0  0  0  0  0  0  0  0  0  0  0
  151.3850  141.6478  156.0376 H   0  0  0  0  0  0  0  0  0  0  0  0
  153.6788  142.5830  159.6686 H   0  0  0  0  0  0  0  0  0  0  0  0
  153.1682  143.7226  158.4644 H   0  0  0  0  0  0  0  0  0  0  0  0
  151.5966  143.1054  161.0372 H   0  0  0  0  0  0  0  0  0  0  0  0
  152.5896  144.5294  160.7669 H   0  0  0  0  0  0  0  0  0  0  0  0
  149.2092  145.6781  160.1144 H   0  0  0  0  0  0  0  0  0  0  0  0
  150.6493  145.9296  161.0975 H   0  0  0  0  0  0  0  0  0  0  0  0
  149.6513  144.4920  161.3488 H   0  0  0  0  0  0  0  0  0  0  0  0
  149.5933  142.7671  159.6699 H   0  0  0  0  0  0  0  0  0  0  0  0
  149.1868  143.9458  158.4347 H   0  0  0  0  0  0  0  0  0  0  0  0
  151.2469  143.3567  157.1378 H   0  0  0  0  0  0  0  0  0  0  0  0
  150.2434  141.9485  157.4024 H   0  0  0  0  0  0  0  0  0  0  0  0
  155.1238  137.0664  160.5511 H   0  0  0  0  0  0  0  0  0  0  0  0
  153.4802  136.6785  161.0745 H   0  0  0  0  0  0  0  0  0  0  0  0
  154.0260  138.3498  161.0313 H   0  0  0  0  0  0  0  0  0  0  0  0
  1  2  1  0  0  0  0
  1 24  1  0  0  0  0
  1 25  1  0  0  0  0
  1 26  1  0  0  0  0
  2  3  1  0  0  0  0
  3  4  1  0  0  0  0
  3 27  1  0  0  0  0
  3 28  1  0  0  0  0
  4  5  1  0  0  0  0
  4 29  1  0  0  0  0
  4 30  1  0  0  0  0
  5 16  1  0  0  0  0
  5  6  1  0  0  0  0
  6  7  1  0  0  0  0
  6 14  2  0  0  0  0
  7 13  1  0  0  0  0
  7  8  1  0  0  0  0
  8  9  1  0  0  0  0
  8 31  1  0  0  0  0
  8 32  1  0  0  0  0
  9 10  1  0  0  0  0
  9 33  1  0  0  0  0
  9 34  1  0  0  0  0
 10 11  1  0  0  0  0
 10 12  1  0  0  0  0
 11 35  1  0  0  0  0
 11 36  1  0  0  0  0
 11 37  1  0  0  0  0
 12 13  1  0  0  0  0
 12 38  1  0  0  0  0
 12 39  1  0  0  0  0
 13 40  1  0  0  0  0
 13 41  1  0  0  0  0
 14 15  1  0  0  0  0
 15 22  1  0  0  0  0
 15 16  2  0  0  0  0
 16 17  1  0  0  0  0
 17 18  2  0  0  0  0
 17 19  1  0  0  0  0
 19 20  1  0  0  0  0
 20 21  2  0  0  0  0
 20 22  1  0  0  0  0
 22 23  1  0  0  0  0
 23 42  1  0  0  0  0
 23 43  1  0  0  0  0
 23 44  1  0  0  0  0
M  CHG  1  19  -1
M  END
> <s_m_source_file>
AV-unprocessed.smi

> <i_m_source_file_index>
511

> <i_lp_mmshare_version>
43012

> <i_f3d_flags>
0

> <s_epik_input>
W0NIM11uMWMoPU8pW25IXWMoPU8pYyhjMTIpbihbQ0gyXVtDSDJdT1tDSDNdKWMobjIpTjNbQ0gyXVtDSDJdTihbQ0gzXSlbQ0gyXVtDSDJdMw==

> <s_epik_cmdline>
J2VwaWtfcHl0aG9uJywgJy1waCcsICc3LjAnLCAnLXRuJywgJzgnLCAnLW1hJywgJzIwMCcsICctbWV0YWxfYmluZGluZycsICctaW1hZScsICc8aW5maWxlLm1hZT4nLCAnLW9tYWUnLCAnPG91dGZpbGUubWFlPic=

> <r_epik_Ionization_Penalty>
7.66215

> <r_epik_Ionization_Penalty_Charging>
0.0825427

> <r_epik_Ionization_Penalty_Neutral>
7.5796

> <r_epik_State_Penalty>
7.65676

> <r_epik_Charging_Adjusted_Penalty>
7.73931

> <i_epik_Tot_Q>
-1

> <i_epik_Tot_abs_Q>
1

> <r_epik_Metal_State_Penalty>
3.6066

> <b_epik_Metal_Only>
1

> <s_lp_Force_Field>
OPLS_2005

> <r_lp_Energy>
52.5947

> <b_lp_Chiralities_Consistent>
1

> <s_lp_Variant>
AV-unprocessed.smi:511-4

> <Gold.Version>
5.8.1

> <Gold.Id.Protein>
6NUR|6NUR_protein|mol2

> <Gold.PLP.Fitness>
44.9252

> <Gold.PLP.PLP>
-35.5560

> <Gold.PLP.part.hbond>
-4.0000

> <Gold.PLP.part.metal>
0.0000

> <Gold.PLP.part.buried>
-4.9600

> <Gold.PLP.part.nonpolar>
-28.7540

> <Gold.PLP.part.repulsive>
1.2611

> <Gold.PLP.ligand.clash>
0.0196

> <Gold.PLP.ligand.torsion>
0.9610

> <Gold.PLP.Chemscore.Hbond>
3.6624

> <Gold.PLP.Chemscore.CHOScore>
0.0000

> <Gold.PLP.Chemscore.Metal>
0.0000

> <Gold.Chemscore.Hbonds>
donor molecule, donor type, donor heavy atom, donor atom, acceptor molecule, acceptor atom, score
      P1  H  6896  6907       L1    21  0.59
      P1  H  7989  7998       L1     2  0.64
      P1  H 10752 10765       L1    19  2.00

> <Gold.PLP.Chemscore.Internal.Correction>
0.3236

> <Gold.Rescore>
     Score         DG    S(hbond)    S(metal)    S(lipo)     H(rot)  DE(clash)    DE(int)     intcor
     11.67     -14.18       0.98        0.00      78.56       1.47       0.23       2.28       ----

> <Gold.Chemscore.Fitness>
11.6728

> <Gold.Chemscore.DG>
-14.1834

> <Gold.Chemscore.ZeroCoef>
-5.4800

> <Gold.Chemscore.Hbond>
0.9831

> <Gold.Chemscore.Metal>
0.0000

> <Gold.Chemscore.Lipo>
78.5635

> <Gold.Chemscore.Internal_Hbond>
0.0000

> <Gold.Chemscore.DEClash>
0.2345

> <Gold.Chemscore.DEInternal>
2.2761

> <Gold.Chemscore.Rot>
1.4735

> <Gold.Chemscore.Internal.Correction>
   9.000000E+99

> <Gold.Chemscore.Hbonds>
donor molecule, donor type, donor heavy atom, donor atom, acceptor molecule, acceptor atom, score
      P1  H  6896  6907       L1    21  0.26
      P1  H  7989  7998       L1     2  0.09
      P1  H 10752 10765       L1    19  0.36

> <Gold.Chemscore.Hbond.Weighted>
-3.2837

> <Gold.Chemscore.Metal.Weighted>
-0.0000

> <Gold.Chemscore.Lipo.Weighted>
-9.1919

> <Gold.Chemscore.Internal_Hbond.Weighted>
0.0000

> <Gold.Chemscore.DEClash.Weighted>
0.2345

> <Gold.Chemscore.DEInternal.Weighted>
2.2761

> <Gold.Chemscore.Rot.Weighted>
3.7722

> <Gold.Chemscore.Internal.Correction.Weighted>
   9.000000E+99

> <Gold.Protein.RotatedTorsions>
[ 6907 6896 6895 6894 ] final   70.07 input  -60.11 | X-H torsion
[ 7974 7965 7964 7962 ] final   40.47 input  175.53 | X-H torsion
[ 8008 7997 7996 7995 ] final  -56.12 input   59.86 | X-H torsion
[ 10167 10162 10161 10158 ] final   87.29 input  -65.29 | X-H torsion
[ 10718 10713 10712 10709 ] final  -90.71 input   66.30 | X-H torsion
[ 10763 10752 10751 10750 ] final -107.74 input  -60.55 | X-H torsion
[ 11005 11000 10999 10996 ] final  -13.78 input  -57.11 | X-H torsion

> <Gold.Protein.ActiveResidues>
 VAL166  LYS551  ARG553  GLY616  TRP617  ASP618  TYR619  PRO620  LYS621  CYS622 
 ASP623  PHE694  ASN695  SER759  ASP760  ASP761  ALA762  ILE779  LEU786  VAL792 
 PHE793  MET794  SER795  GLU796  ALA797  LYS798  CYS799  TRP800  GLU811  SER814 

> <Gold.Protein.RotatedAtoms>
  152.4726  134.4922  159.9698 H   0  0  0  0  0  0  0  0  0  0  0  0  # atno 6907 bound_to 6896
  151.4945  133.3511  159.2866 H   0  0  0  0  0  0  0  0  0  0  0  0  # atno 6908 bound_to 6896
  150.8746  134.8153  159.7241 H   0  0  0  0  0  0  0  0  0  0  0  0  # atno 6909 bound_to 6896
  146.0902  139.5529  142.9481 H   0  0  0  0  0  0  0  0  0  0  0  0  # atno 7974 bound_to 7965
  154.4219  140.1137  156.5586 H   0  0  0  0  0  0  0  0  0  0  0  0  # atno 8008 bound_to 7997
  155.6335  140.3496  155.4671 H   0  0  0  0  0  0  0  0  0  0  0  0  # atno 8009 bound_to 7997
  155.9929  140.1183  157.0611 H   0  0  0  0  0  0  0  0  0  0  0  0  # atno 8010 bound_to 7997
  139.8788  144.6451  150.8866 H   0  0  0  0  0  0  0  0  0  0  0  0  # atno 10167 bound_to 10162
  155.9989  130.4920  150.5364 H   0  0  0  0  0  0  0  0  0  0  0  0  # atno 10718 bound_to 10713
  154.8093  135.4664  154.0475 H   0  0  0  0  0  0  0  0  0  0  0  0  # atno 10763 bound_to 10752
  153.1919  135.6856  153.8349 H   0  0  0  0  0  0  0  0  0  0  0  0  # atno 10764 bound_to 10752
  153.7864  135.3249  155.3350 H   0  0  0  0  0  0  0  0  0  0  0  0  # atno 10765 bound_to 10752
  140.7796  133.8373  155.9280 H   0  0  0  0  0  0  0  0  0  0  0  0  # atno 11005 bound_to 11000
  145.6054  141.0348  143.1995 LP  0  0  0  0  0  0  0  0  0  0  0  0  # atno 17320 bound_to 7965
  144.7354  139.7600  143.7331 LP  0  0  0  0  0  0  0  0  0  0  0  0  # atno 17321 bound_to 7965
  140.7748  143.3602  151.1842 LP  0  0  0  0  0  0  0  0  0  0  0  0  # atno 17342 bound_to 10162
  139.7215  143.9216  152.2987 LP  0  0  0  0  0  0  0  0  0  0  0  0  # atno 17343 bound_to 10162
  157.3306  131.0699  151.1863 LP  0  0  0  0  0  0  0  0  0  0  0  0  # atno 17370 bound_to 10713
  157.2745  130.6720  149.6036 LP  0  0  0  0  0  0  0  0  0  0  0  0  # atno 17371 bound_to 10713
  140.9495  134.1797  157.4738 LP  0  0  0  0  0  0  0  0  0  0  0  0  # atno 17394 bound_to 11000
  139.8744  134.9903  156.5499 LP  0  0  0  0  0  0  0  0  0  0  0  0  # atno 17395 bound_to 11000

$$$$
