AV-unprocessed.smi:1064|AV-procd|sdf|4665|dock1
  -GOLD-   22720 3173D 1   1.00000     0.00000
 Structure written by MMmdl.
 36 37  0  0  0  0  0  0  0  0  2 V2000
  149.5487  141.2135  154.0434 O   0  0  0  0  0  0  0  0  0  0  0  0
  148.8546  141.4001  155.0440 C   0  0  0  0  0  0  0  0  0  0  0  0
  149.3950  141.5609  156.2644 N   0  0  0  0  0  0  0  0  0  0  0  0
  150.8224  141.5503  156.5609 C   0  0  0  0  0  0  0  0  0  0  0  0
  151.0858  141.6276  158.0759 C   0  0  0  0  0  0  0  0  0  0  0  0
  151.2308  143.0241  158.6042 C   0  0  0  0  0  0  0  0  0  0  0  0
  150.8223  144.1454  157.9964 N   0  3  0  0  0  0  0  0  0  0  0  0
  151.1314  145.2415  158.7539 C   0  0  0  0  0  0  0  0  0  0  0  0
  151.7698  144.7710  159.8709 C   0  0  0  0  0  0  0  0  0  0  0  0
  151.8276  143.4062  159.7470 N   0  0  0  0  0  0  0  0  0  0  0  0
  152.4244  142.4744  160.7095 C   0  0  0  0  0  0  0  0  0  0  0  0
  153.4994  141.8901  160.1812 F   0  0  0  0  0  0  0  0  0  0  0  0
  152.7473  143.1082  161.8371 F   0  0  0  0  0  0  0  0  0  0  0  0
  147.4981  141.4377  155.0122 N   0  0  0  0  0  0  0  0  0  0  0  0
  146.6059  141.4770  156.1830 C   0  0  0  0  0  0  0  0  0  0  0  0
  146.2005  142.9346  156.4587 C   0  0  0  0  0  0  0  0  0  0  0  0
  145.2643  143.6256  155.0592 S   0  0  0  0  0  0  0  0  0  0  0  0
  146.3753  143.1697  153.6910 C   0  0  0  0  0  0  0  0  0  0  0  0
  146.7641  141.6833  153.7650 C   0  0  0  0  0  0  0  0  0  0  0  0
  148.7671  141.7046  157.0419 H   0  0  0  0  0  0  0  0  0  0  0  0
  151.2805  140.6575  156.1317 H   0  0  0  0  0  0  0  0  0  0  0  0
  151.2750  142.4068  156.0602 H   0  0  0  0  0  0  0  0  0  0  0  0
  150.2675  141.1594  158.6229 H   0  0  0  0  0  0  0  0  0  0  0  0
  152.0041  141.1027  158.3405 H   0  0  0  0  0  0  0  0  0  0  0  0
  150.8823  146.2472  158.4484 H   0  0  0  0  0  0  0  0  0  0  0  0
  152.1810  145.2945  160.7219 H   0  0  0  0  0  0  0  0  0  0  0  0
  151.7033  141.6947  160.9569 H   0  0  0  0  0  0  0  0  0  0  0  0
  145.7164  140.8752  155.9917 H   0  0  0  0  0  0  0  0  0  0  0  0
  147.0509  141.0389  157.0765 H   0  0  0  0  0  0  0  0  0  0  0  0
  145.5827  142.9948  157.3549 H   0  0  0  0  0  0  0  0  0  0  0  0
  147.0835  143.5496  156.6364 H   0  0  0  0  0  0  0  0  0  0  0  0
  145.8746  143.3857  152.7472 H   0  0  0  0  0  0  0  0  0  0  0  0
  147.2659  143.7981  153.7311 H   0  0  0  0  0  0  0  0  0  0  0  0
  147.3493  141.4082  152.8864 H   0  0  0  0  0  0  0  0  0  0  0  0
  145.8717  141.0572  153.7236 H   0  0  0  0  0  0  0  0  0  0  0  0
  150.3493  144.1744  157.1019 H   0  0  0  0  0  0  0  0  0  0  0  0
  1  2  2  0  0  0  0
  2  3  1  0  0  0  0
  2 14  1  0  0  0  0
  3  4  1  0  0  0  0
  3 20  1  0  0  0  0
  4  5  1  0  0  0  0
  4 21  1  0  0  0  0
  4 22  1  0  0  0  0
  5  6  1  0  0  0  0
  5 23  1  0  0  0  0
  5 24  1  0  0  0  0
  6 10  1  0  0  0  0
  6  7  2  0  0  0  0
  7  8  1  0  0  0  0
  7 36  1  0  0  0  0
  8  9  2  0  0  0  0
  8 25  1  0  0  0  0
  9 10  1  0  0  0  0
  9 26  1  0  0  0  0
 10 11  1  0  0  0  0
 11 12  1  0  0  0  0
 11 13  1  0  0  0  0
 11 27  1  0  0  0  0
 14 19  1  0  0  0  0
 14 15  1  0  0  0  0
 15 16  1  0  0  0  0
 15 28  1  0  0  0  0
 15 29  1  0  0  0  0
 16 17  1  0  0  0  0
 16 30  1  0  0  0  0
 16 31  1  0  0  0  0
 17 18  1  0  0  0  0
 18 19  1  0  0  0  0
 18 32  1  0  0  0  0
 18 33  1  0  0  0  0
 19 34  1  0  0  0  0
 19 35  1  0  0  0  0
M  CHG  1   7   1
M  END
> <s_m_source_file>
AV-unprocessed.smi

> <i_m_source_file_index>
1064

> <i_lp_mmshare_version>
43012

> <i_f3d_flags>
0

> <s_epik_input>
W0NIMl0xW0NIMl1TW0NIMl1bQ0gyXU4xQyg9TylbTkhdW0NIMl1bQ0gyXWMybltjSF1bY0hdbjJbQ0hdKEYpRg==

> <s_epik_cmdline>
J2VwaWtfcHl0aG9uJywgJy1waCcsICc3LjAnLCAnLXRuJywgJzgnLCAnLW1hJywgJzIwMCcsICctbWV0YWxfYmluZGluZycsICctaW1hZScsICc8aW5maWxlLm1hZT4nLCAnLW9tYWUnLCAnPG91dGZpbGUubWFlPic=

> <r_lp_tautomer_probability>
1

> <r_epik_Ionization_Penalty>
1.10071

> <r_epik_Ionization_Penalty_Charging>
0

> <r_epik_Ionization_Penalty_Neutral>
1.10071

> <r_epik_State_Penalty>
1.15778

> <r_epik_Charging_Adjusted_Penalty>
1.15778

> <i_epik_Tot_Q>
1

> <i_epik_Tot_abs_Q>
1

> <r_epik_Metal_State_Penalty>
1.24497

> <b_epik_Metal_Only>
0

> <s_lp_Force_Field>
OPLS_2005

> <r_lp_Energy>
29.6346

> <b_lp_Chiralities_Consistent>
1

> <s_lp_Variant>
AV-unprocessed.smi:1064-2

> <Gold.Version>
5.8.1

> <Gold.Id.Protein>
6NUR|6NUR_protein|mol2

> <Gold.PLP.Fitness>
55.6590

> <Gold.PLP.PLP>
-48.3401

> <Gold.PLP.part.hbond>
-3.5148

> <Gold.PLP.part.metal>
0.0000

> <Gold.PLP.part.buried>
-6.1357

> <Gold.PLP.part.nonpolar>
-38.4104

> <Gold.PLP.part.repulsive>
0.3518

> <Gold.PLP.ligand.clash>
0.0000

> <Gold.PLP.ligand.torsion>
0.7105

> <Gold.PLP.Chemscore.Hbond>
2.8907

> <Gold.PLP.Chemscore.CHOScore>
0.0000

> <Gold.PLP.Chemscore.Metal>
0.0000

> <Gold.Chemscore.Hbonds>
donor molecule, donor type, donor heavy atom, donor atom, acceptor molecule, acceptor atom, score
      L1  H     7    36       P1  8028  1.66
      P1  H  7989  7998       L1     1  0.25
      P1  H  8011  8017       L1     1  0.64

> <Gold.PLP.Chemscore.Internal.Correction>
0.0679

> <Gold.Rescore>
     Score         DG    S(hbond)    S(metal)    S(lipo)     H(rot)  DE(clash)    DE(int)     intcor
     15.06     -15.88       1.87        0.00      71.75       1.65       0.37       0.44       ----

> <Gold.Chemscore.Fitness>
15.0643

> <Gold.Chemscore.DG>
-15.8825

> <Gold.Chemscore.ZeroCoef>
-5.4800

> <Gold.Chemscore.Hbond>
1.8676

> <Gold.Chemscore.Metal>
0.0000

> <Gold.Chemscore.Lipo>
71.7538

> <Gold.Chemscore.Internal_Hbond>
0.0000

> <Gold.Chemscore.DEClash>
0.3747

> <Gold.Chemscore.DEInternal>
0.4435

> <Gold.Chemscore.Rot>
1.6525

> <Gold.Chemscore.Internal.Correction>
   9.000000E+99

> <Gold.Chemscore.Hbonds>
donor molecule, donor type, donor heavy atom, donor atom, acceptor molecule, acceptor atom, score
      L1  H     7    36       P1  8028  0.72
      P1  H  7989  7998       L1     1  0.25
      P1  H  8011  8017       L1     1  0.62

> <Gold.Chemscore.Hbond.Weighted>
-6.2378

> <Gold.Chemscore.Metal.Weighted>
-0.0000

> <Gold.Chemscore.Lipo.Weighted>
-8.3952

> <Gold.Chemscore.Internal_Hbond.Weighted>
0.0000

> <Gold.Chemscore.DEClash.Weighted>
0.3747

> <Gold.Chemscore.DEInternal.Weighted>
0.4435

> <Gold.Chemscore.Rot.Weighted>
4.2304

> <Gold.Chemscore.Internal.Correction.Weighted>
   9.000000E+99

> <Gold.Protein.RotatedTorsions>
[ 6907 6896 6895 6894 ] final   76.43 input  -60.11 | X-H torsion
[ 7974 7965 7964 7962 ] final  -66.14 input  175.53 | X-H torsion
[ 8008 7997 7996 7995 ] final  147.55 input   59.86 | X-H torsion
[ 10167 10162 10161 10158 ] final -145.16 input  -65.29 | X-H torsion
[ 10718 10713 10712 10709 ] final   42.32 input   66.30 | X-H torsion
[ 10763 10752 10751 10750 ] final   73.84 input  -60.55 | X-H torsion
[ 11005 11000 10999 10996 ] final   90.23 input  -57.11 | X-H torsion

> <Gold.Protein.ActiveResidues>
 VAL166  LYS551  ARG553  GLY616  TRP617  ASP618  TYR619  PRO620  LYS621  CYS622 
 ASP623  PHE694  ASN695  SER759  ASP760  ASP761  ALA762  ILE779  LEU786  VAL792 
 PHE793  MET794  SER795  GLU796  ALA797  LYS798  CYS799  TRP800  GLU811  SER814 

> <Gold.Protein.RotatedAtoms>
  152.5073  134.3970  159.9403 H   0  0  0  0  0  0  0  0  0  0  0  0  # atno 6907 bound_to 6896
  151.3932  133.3776  159.2731 H   0  0  0  0  0  0  0  0  0  0  0  0  # atno 6908 bound_to 6896
  150.9417  134.8846  159.7675 H   0  0  0  0  0  0  0  0  0  0  0  0  # atno 6909 bound_to 6896
  145.7454  140.8934  143.0508 H   0  0  0  0  0  0  0  0  0  0  0  0  # atno 7974 bound_to 7965
  156.2821  140.2152  156.5556 H   0  0  0  0  0  0  0  0  0  0  0  0  # atno 8008 bound_to 7997
  154.7255  140.0500  157.0701 H   0  0  0  0  0  0  0  0  0  0  0  0  # atno 8009 bound_to 7997
  155.0422  140.3147  155.4723 H   0  0  0  0  0  0  0  0  0  0  0  0  # atno 8010 bound_to 7997
  139.7832  143.8072  152.2641 H   0  0  0  0  0  0  0  0  0  0  0  0  # atno 10167 bound_to 10162
  157.4035  130.7873  149.7369 H   0  0  0  0  0  0  0  0  0  0  0  0  # atno 10718 bound_to 10713
  153.0548  135.5048  154.7954 H   0  0  0  0  0  0  0  0  0  0  0  0  # atno 10763 bound_to 10752
  154.6788  135.2965  154.9643 H   0  0  0  0  0  0  0  0  0  0  0  0  # atno 10764 bound_to 10752
  154.0437  135.6713  153.4845 H   0  0  0  0  0  0  0  0  0  0  0  0  # atno 10765 bound_to 10752
  139.8860  134.8601  156.3255 H   0  0  0  0  0  0  0  0  0  0  0  0  # atno 11005 bound_to 11000
  144.6861  139.9518  143.7478 LP  0  0  0  0  0  0  0  0  0  0  0  0  # atno 17320 bound_to 7965
  146.0407  139.3419  143.0699 LP  0  0  0  0  0  0  0  0  0  0  0  0  # atno 17321 bound_to 7965
  139.8140  144.7324  150.9659 LP  0  0  0  0  0  0  0  0  0  0  0  0  # atno 17342 bound_to 10162
  140.7819  143.4222  151.0823 LP  0  0  0  0  0  0  0  0  0  0  0  0  # atno 17343 bound_to 10162
  155.9830  130.4004  150.3387 LP  0  0  0  0  0  0  0  0  0  0  0  0  # atno 17370 bound_to 10713
  157.1518  131.0323  151.2881 LP  0  0  0  0  0  0  0  0  0  0  0  0  # atno 17371 bound_to 10713
  140.9758  133.7298  156.0600 LP  0  0  0  0  0  0  0  0  0  0  0  0  # atno 17394 bound_to 11000
  140.7813  134.3722  157.5486 LP  0  0  0  0  0  0  0  0  0  0  0  0  # atno 17395 bound_to 11000

$$$$
