AV-unprocessed.smi:2565|AV-procd|sdf|10069|dock2
  -GOLD-   2272014103D 1   1.00000     0.00000
 Structure written by MMmdl.
 25 26  0  0  0  0  0  0  0  0  2 V2000
  150.5107  142.1525  157.3827 C   0  0  0  0  0  0  0  0  0  0  0  0
  151.3493  140.9742  157.2873 N   0  0  0  0  0  0  0  0  0  0  0  0
  152.3459  140.5897  158.0988 C   0  0  0  0  0  0  0  0  0  0  0  0
  152.9499  139.4546  157.7503 N   0  0  0  0  0  0  0  0  0  0  0  0
  152.2953  139.0505  156.6043 N   0  0  0  0  0  0  0  0  0  0  0  0
  151.3549  139.9776  156.3778 C   0  0  0  0  0  0  0  0  0  0  0  0
  150.4171  139.9478  155.2065 C   0  0  1  0  0  0  0  0  0  0  0  0
  150.5119  138.6276  154.4172 C   0  0  0  0  0  0  0  0  0  0  0  0
  149.5026  138.6082  153.3404 N   0  3  0  0  0  0  0  0  0  0  0  0
  148.1448  138.8473  153.8684 C   0  0  0  0  0  0  0  0  0  0  0  0
  148.1155  140.1515  154.6847 C   0  0  0  0  0  0  0  0  0  0  0  0
  149.0940  140.0951  155.7178 O   0  0  0  0  0  0  0  0  0  0  0  0
  150.8696  142.8043  158.1799 H   0  0  0  0  0  0  0  0  0  0  0  0
  149.4846  141.8570  157.6027 H   0  0  0  0  0  0  0  0  0  0  0  0
  150.5345  142.7013  156.4409 H   0  0  0  0  0  0  0  0  0  0  0  0
  152.6432  141.1584  158.9680 H   0  0  0  0  0  0  0  0  0  0  0  0
  150.6354  140.7941  154.5530 H   0  0  0  0  0  0  0  0  0  0  0  0
  151.5050  138.5071  153.9835 H   0  0  0  0  0  0  0  0  0  0  0  0
  150.3433  137.7755  155.0776 H   0  0  0  0  0  0  0  0  0  0  0  0
  149.7236  139.3350  152.6746 H   0  0  0  0  0  0  0  0  0  0  0  0
  147.4375  138.8965  153.0402 H   0  0  0  0  0  0  0  0  0  0  0  0
  147.8499  138.0040  154.4945 H   0  0  0  0  0  0  0  0  0  0  0  0
  148.2968  141.0162  154.0444 H   0  0  0  0  0  0  0  0  0  0  0  0
  147.1328  140.2905  155.1356 H   0  0  0  0  0  0  0  0  0  0  0  0
  149.5280  137.7135  152.8719 H   0  0  0  0  0  0  0  0  0  0  0  0
  1  2  1  0  0  0  0
  1 13  1  0  0  0  0
  1 14  1  0  0  0  0
  1 15  1  0  0  0  0
  2  6  1  0  0  0  0
  2  3  1  0  0  0  0
  3  4  2  0  0  0  0
  3 16  1  0  0  0  0
  4  5  1  0  0  0  0
  5  6  2  0  0  0  0
  6  7  1  0  0  0  0
  7 12  1  0  0  0  0
  7  8  1  0  0  0  0
  7 17  1  0  0  0  0
  8  9  1  0  0  0  0
  8 18  1  0  0  0  0
  8 19  1  0  0  0  0
  9 10  1  0  0  0  0
  9 20  1  0  0  0  0
  9 25  1  0  0  0  0
 10 11  1  0  0  0  0
 10 21  1  0  0  0  0
 10 22  1  0  0  0  0
 11 12  1  0  0  0  0
 11 23  1  0  0  0  0
 11 24  1  0  0  0  0
M  CHG  1   9   1
M  END
> <s_m_source_file>
AV-unprocessed.smi

> <i_m_source_file_index>
2565

> <i_lp_mmshare_version>
43012

> <i_f3d_flags>
0

> <s_epik_input>
W0NIM11uMVtjSF1ubmMxW0NAQEhdMltDSDJdW05IXVtDSDJdW0NIMl1PMg==

> <s_epik_cmdline>
J2VwaWtfcHl0aG9uJywgJy1waCcsICc3LjAnLCAnLXRuJywgJzgnLCAnLW1hJywgJzIwMCcsICctbWV0YWxfYmluZGluZycsICctaW1hZScsICc8aW5maWxlLm1hZT4nLCAnLW9tYWUnLCAnPG91dGZpbGUubWFlPic=

> <r_lp_tautomer_probability>
1

> <r_epik_Ionization_Penalty>
0.12571

> <r_epik_Ionization_Penalty_Charging>
0.125708

> <r_epik_Ionization_Penalty_Neutral>
1.64918e-06

> <r_epik_State_Penalty>
0.115169

> <r_epik_Charging_Adjusted_Penalty>
0.240877

> <i_epik_Tot_Q>
1

> <i_epik_Tot_abs_Q>
1

> <r_epik_Metal_State_Penalty>
0.115216

> <b_epik_Metal_Only>
0

> <s_lp_Force_Field>
OPLS_2005

> <r_lp_Energy>
13.9295

> <b_lp_Chiralities_Consistent>
1

> <s_lp_Variant>
AV-unprocessed.smi:2565-2

> <Gold.Version>
5.8.1

> <Gold.Id.Protein>
6NUR|6NUR_protein|mol2

> <Gold.PLP.Fitness>
32.2387

> <Gold.PLP.PLP>
-20.4747

> <Gold.PLP.part.hbond>
-3.1805

> <Gold.PLP.part.metal>
0.0000

> <Gold.PLP.part.buried>
-1.0492

> <Gold.PLP.part.nonpolar>
-15.5172

> <Gold.PLP.part.repulsive>
0.1501

> <Gold.PLP.ligand.clash>
0.0000

> <Gold.PLP.ligand.torsion>
0.1199

> <Gold.PLP.Chemscore.Hbond>
4.0000

> <Gold.PLP.Chemscore.CHOScore>
0.0000

> <Gold.PLP.Chemscore.Metal>
0.0000

> <Gold.Chemscore.Hbonds>
donor molecule, donor type, donor heavy atom, donor atom, acceptor molecule, acceptor atom, score
      L1  H     9    20       P1  7957  1.00
      L1  H     9    25       P1  7948  2.00
      P1  H  7997  8009       L1     4  1.00

> <Gold.PLP.Chemscore.Internal.Correction>
0.0038

> <Gold.Rescore>
     Score         DG    S(hbond)    S(metal)    S(lipo)     H(rot)  DE(clash)    DE(int)     intcor
     13.30     -15.33       2.71        0.00      28.81       1.00       0.00       2.04       ----

> <Gold.Chemscore.Fitness>
13.2953

> <Gold.Chemscore.DG>
-15.3329

> <Gold.Chemscore.ZeroCoef>
-5.4800

> <Gold.Chemscore.Hbond>
2.7072

> <Gold.Chemscore.Metal>
0.0000

> <Gold.Chemscore.Lipo>
28.8102

> <Gold.Chemscore.Internal_Hbond>
0.0000

> <Gold.Chemscore.DEClash>
0.0021

> <Gold.Chemscore.DEInternal>
2.0354

> <Gold.Chemscore.Rot>
1.0000

> <Gold.Chemscore.Internal.Correction>
   9.000000E+99

> <Gold.Chemscore.Hbonds>
donor molecule, donor type, donor heavy atom, donor atom, acceptor molecule, acceptor atom, score
      L1  H     9    20       P1  7957  0.95
      L1  H     9    25       P1  7948  0.78
      P1  H  7997  8009       L1     4  0.17

> <Gold.Chemscore.Hbond.Weighted>
-9.0421

> <Gold.Chemscore.Metal.Weighted>
-0.0000

> <Gold.Chemscore.Lipo.Weighted>
-3.3708

> <Gold.Chemscore.Internal_Hbond.Weighted>
0.0000

> <Gold.Chemscore.DEClash.Weighted>
0.0021

> <Gold.Chemscore.DEInternal.Weighted>
2.0354

> <Gold.Chemscore.Rot.Weighted>
2.5600

> <Gold.Chemscore.Internal.Correction.Weighted>
   9.000000E+99

> <Gold.Protein.RotatedTorsions>
[ 6907 6896 6895 6894 ] final -110.96 input  -60.11 | X-H torsion
[ 7974 7965 7964 7962 ] final -152.71 input  175.53 | X-H torsion
[ 8008 7997 7996 7995 ] final  148.45 input   59.86 | X-H torsion
[ 10167 10162 10161 10158 ] final -142.66 input  -65.29 | X-H torsion
[ 10718 10713 10712 10709 ] final  120.09 input   66.30 | X-H torsion
[ 10763 10752 10751 10750 ] final   -8.23 input  -60.55 | X-H torsion
[ 11005 11000 10999 10996 ] final   64.43 input  -57.11 | X-H torsion

> <Gold.Protein.ActiveResidues>
 VAL166  LYS551  ARG553  GLY616  TRP617  ASP618  TYR619  PRO620  LYS621  CYS622 
 ASP623  PHE694  ASN695  SER759  ASP760  ASP761  ALA762  ILE779  LEU786  VAL792 
 PHE793  MET794  SER795  GLU796  ALA797  LYS798  CYS799  TRP800  GLU811  SER814 

> <Gold.Protein.RotatedAtoms>
  150.7659  133.9305  159.3425 H   0  0  0  0  0  0  0  0  0  0  0  0  # atno 6907 bound_to 6896
  151.7203  135.0893  160.0292 H   0  0  0  0  0  0  0  0  0  0  0  0  # atno 6908 bound_to 6896
  152.3654  133.6312  159.6082 H   0  0  0  0  0  0  0  0  0  0  0  0  # atno 6909 bound_to 6896
  144.7780  140.4626  143.5860 H   0  0  0  0  0  0  0  0  0  0  0  0  # atno 7974 bound_to 7965
  156.2791  140.2128  156.5700 H   0  0  0  0  0  0  0  0  0  0  0  0  # atno 8008 bound_to 7997
  154.7143  140.0509  157.0603 H   0  0  0  0  0  0  0  0  0  0  0  0  # atno 8009 bound_to 7997
  155.0563  140.3161  155.4678 H   0  0  0  0  0  0  0  0  0  0  0  0  # atno 8010 bound_to 7997
  139.8067  143.7758  152.2661 H   0  0  0  0  0  0  0  0  0  0  0  0  # atno 10167 bound_to 10162
  157.5915  131.1063  150.7988 H   0  0  0  0  0  0  0  0  0  0  0  0  # atno 10718 bound_to 10713
  153.4375  135.7013  153.6190 H   0  0  0  0  0  0  0  0  0  0  0  0  # atno 10763 bound_to 10752
  153.4579  135.3743  155.2322 H   0  0  0  0  0  0  0  0  0  0  0  0  # atno 10764 bound_to 10752
  154.8727  135.4013  154.3769 H   0  0  0  0  0  0  0  0  0  0  0  0  # atno 10765 bound_to 10752
  139.9959  134.6518  156.0011 H   0  0  0  0  0  0  0  0  0  0  0  0  # atno 11005 bound_to 11000
  145.6132  139.1515  143.3064 LP  0  0  0  0  0  0  0  0  0  0  0  0  # atno 17320 bound_to 7965
  146.1971  140.6246  142.9119 LP  0  0  0  0  0  0  0  0  0  0  0  0  # atno 17321 bound_to 7965
  139.7895  144.7415  150.9975 LP  0  0  0  0  0  0  0  0  0  0  0  0  # atno 17342 bound_to 10162
  140.7819  143.4457  151.0486 LP  0  0  0  0  0  0  0  0  0  0  0  0  # atno 17343 bound_to 10162
  156.8409  130.5047  149.5321 LP  0  0  0  0  0  0  0  0  0  0  0  0  # atno 17370 bound_to 10713
  156.0971  130.5940  150.9831 LP  0  0  0  0  0  0  0  0  0  0  0  0  # atno 17371 bound_to 10713
  141.1604  133.6539  156.4300 LP  0  0  0  0  0  0  0  0  0  0  0  0  # atno 17394 bound_to 11000
  140.4819  134.6657  157.5174 LP  0  0  0  0  0  0  0  0  0  0  0  0  # atno 17395 bound_to 11000

$$$$
