AV-unprocessed.smi:880|AV-procd|sdf|4034|dock10
  -GOLD-   22720 1523D 1   1.00000     0.00000
 Structure written by MMmdl.
 32 33  0  0  0  0  0  0  0  0  1 V2000
  150.3381  145.1729  159.7789 C   0  0  0  0  0  0  0  0  0  0  0  0
  151.8121  144.8555  159.4815 C   0  0  0  0  0  0  0  0  0  0  0  0
  152.0136  144.4702  158.0086 C   0  0  0  0  0  0  0  0  0  0  0  0
  152.3550  143.7822  160.3926 C   0  0  0  0  0  0  0  0  0  0  0  0
  152.5001  143.7984  161.8111 C   0  0  0  0  0  0  0  0  0  0  0  0
  153.0152  142.5695  162.1077 C   0  0  0  0  0  0  0  0  0  0  0  0
  153.1547  141.8873  160.9185 N   0  0  0  0  0  0  0  0  0  0  0  0
  153.6418  140.5359  160.7042 C   0  0  0  0  0  0  0  0  0  0  0  0
  153.2412  140.0123  159.3233 C   0  0  0  0  0  0  0  0  0  0  0  0
  154.0956  139.5387  158.5746 O   0  0  0  0  0  0  0  0  0  0  0  0
  151.9423  140.1088  159.0020 N   0  0  0  0  0  0  0  0  0  0  0  0
  151.3522  139.6703  157.7798 C   0  0  0  0  0  0  0  0  0  0  0  0
  151.9342  140.2039  156.4888 C   0  0  0  0  0  0  0  0  0  0  0  0
  150.5938  140.6940  156.9624 C   0  0  0  0  0  0  0  0  0  0  0  0
  152.7505  142.6317  159.8667 N   0  0  0  0  0  0  0  0  0  0  0  0
  150.2043  145.4800  160.8165 H   0  0  0  0  0  0  0  0  0  0  0  0
  149.6971  144.3093  159.5991 H   0  0  0  0  0  0  0  0  0  0  0  0
  149.9791  145.9860  159.1476 H   0  0  0  0  0  0  0  0  0  0  0  0
  152.3747  145.7739  159.6561 H   0  0  0  0  0  0  0  0  0  0  0  0
  153.0687  144.3114  157.7836 H   0  0  0  0  0  0  0  0  0  0  0  0
  151.6501  145.2541  157.3435 H   0  0  0  0  0  0  0  0  0  0  0  0
  151.4799  143.5514  157.7634 H   0  0  0  0  0  0  0  0  0  0  0  0
  152.2580  144.5884  162.5066 H   0  0  0  0  0  0  0  0  0  0  0  0
  153.2852  142.1261  163.0548 H   0  0  0  0  0  0  0  0  0  0  0  0
  154.7280  140.5179  160.8076 H   0  0  0  0  0  0  0  0  0  0  0  0
  153.2338  139.8899  161.4827 H   0  0  0  0  0  0  0  0  0  0  0  0
  151.3196  140.5114  159.6878 H   0  0  0  0  0  0  0  0  0  0  0  0
  150.9667  138.6522  157.7469 H   0  0  0  0  0  0  0  0  0  0  0  0
  152.7732  140.8941  156.5552 H   0  0  0  0  0  0  0  0  0  0  0  0
  151.9500  139.5341  155.6316 H   0  0  0  0  0  0  0  0  0  0  0  0
  149.7142  140.3521  156.4204 H   0  0  0  0  0  0  0  0  0  0  0  0
  150.5371  141.7109  157.3463 H   0  0  0  0  0  0  0  0  0  0  0  0
  1  2  1  0  0  0  0
  1 16  1  0  0  0  0
  1 17  1  0  0  0  0
  1 18  1  0  0  0  0
  2  3  1  0  0  0  0
  2  4  1  0  0  0  0
  2 19  1  0  0  0  0
  3 20  1  0  0  0  0
  3 21  1  0  0  0  0
  3 22  1  0  0  0  0
  4 15  2  0  0  0  0
  4  5  1  0  0  0  0
  5  6  2  0  0  0  0
  5 23  1  0  0  0  0
  6  7  1  0  0  0  0
  6 24  1  0  0  0  0
  7  8  1  0  0  0  0
  7 15  1  0  0  0  0
  8  9  1  0  0  0  0
  8 25  1  0  0  0  0
  8 26  1  0  0  0  0
  9 10  2  0  0  0  0
  9 11  1  0  0  0  0
 11 12  1  0  0  0  0
 11 27  1  0  0  0  0
 12 14  1  0  0  0  0
 12 13  1  0  0  0  0
 12 28  1  0  0  0  0
 13 14  1  0  0  0  0
 13 29  1  0  0  0  0
 13 30  1  0  0  0  0
 14 31  1  0  0  0  0
 14 32  1  0  0  0  0
M  END
> <s_m_source_file>
AV-unprocessed.smi

> <i_m_source_file_index>
880

> <i_lp_mmshare_version>
43012

> <i_f3d_flags>
0

> <s_epik_input>
W0NIM11bQ0hdKFtDSDNdKWMxW2NIXVtjSF1uKG4xKVtDSDJdQyg9TylbTkhdW0NIXTJbQ0gyXVtDSDJdMg==

> <s_epik_cmdline>
J2VwaWtfcHl0aG9uJywgJy1waCcsICc3LjAnLCAnLXRuJywgJzgnLCAnLW1hJywgJzIwMCcsICctbWV0YWxfYmluZGluZycsICctaW1hZScsICc8aW5maWxlLm1hZT4nLCAnLW9tYWUnLCAnPG91dGZpbGUubWFlPic=

> <r_lp_tautomer_probability>
1

> <r_epik_Ionization_Penalty>
5.52855e-05

> <r_epik_Ionization_Penalty_Charging>
0

> <r_epik_Ionization_Penalty_Neutral>
5.52855e-05

> <r_epik_State_Penalty>
-0

> <r_epik_Charging_Adjusted_Penalty>
0

> <i_epik_Tot_Q>
0

> <i_epik_Tot_abs_Q>
0

> <r_epik_Metal_State_Penalty>
-0

> <b_epik_Metal_Only>
0

> <s_lp_Force_Field>
OPLS_2005

> <r_lp_Energy>
12.9381

> <b_lp_Chiralities_Consistent>
1

> <s_lp_Variant>
AV-unprocessed.smi:880-1

> <Gold.Version>
5.8.1

> <Gold.Id.Protein>
6NUR|6NUR_protein|mol2

> <Gold.PLP.Fitness>
42.9391

> <Gold.PLP.PLP>
-40.6662

> <Gold.PLP.part.hbond>
-1.0000

> <Gold.PLP.part.metal>
0.0000

> <Gold.PLP.part.buried>
-5.8959

> <Gold.PLP.part.nonpolar>
-33.9581

> <Gold.PLP.part.repulsive>
0.1456

> <Gold.PLP.ligand.clash>
0.0000

> <Gold.PLP.ligand.torsion>
0.3833

> <Gold.PLP.Chemscore.Hbond>
0.9920

> <Gold.PLP.Chemscore.CHOScore>
0.0000

> <Gold.PLP.Chemscore.Metal>
0.0000

> <Gold.Chemscore.Hbonds>
donor molecule, donor type, donor heavy atom, donor atom, acceptor molecule, acceptor atom, score
      P1  H  7997  8010       L1    10  0.99

> <Gold.PLP.Chemscore.Internal.Correction>
0.0636

> <Gold.Rescore>
     Score         DG    S(hbond)    S(metal)    S(lipo)     H(rot)  DE(clash)    DE(int)     intcor
     14.76     -16.48       0.99        0.00      98.56       1.50       0.02       1.71       ----

> <Gold.Chemscore.Fitness>
14.7567

> <Gold.Chemscore.DG>
-16.4834

> <Gold.Chemscore.ZeroCoef>
-5.4800

> <Gold.Chemscore.Hbond>
0.9937

> <Gold.Chemscore.Metal>
0.0000

> <Gold.Chemscore.Lipo>
98.5568

> <Gold.Chemscore.Internal_Hbond>
0.0000

> <Gold.Chemscore.DEClash>
0.0174

> <Gold.Chemscore.DEInternal>
1.7093

> <Gold.Chemscore.Rot>
1.5026

> <Gold.Chemscore.Internal.Correction>
   9.000000E+99

> <Gold.Chemscore.Hbonds>
donor molecule, donor type, donor heavy atom, donor atom, acceptor molecule, acceptor atom, score
      P1  H  7997  8010       L1    10  0.94

> <Gold.Chemscore.Hbond.Weighted>
-3.3190

> <Gold.Chemscore.Metal.Weighted>
-0.0000

> <Gold.Chemscore.Lipo.Weighted>
-11.5311

> <Gold.Chemscore.Internal_Hbond.Weighted>
0.0000

> <Gold.Chemscore.DEClash.Weighted>
0.0174

> <Gold.Chemscore.DEInternal.Weighted>
1.7093

> <Gold.Chemscore.Rot.Weighted>
3.8468

> <Gold.Chemscore.Internal.Correction.Weighted>
   9.000000E+99

> <Gold.Protein.RotatedTorsions>
[ 6907 6896 6895 6894 ] final  148.07 input  -60.11 | X-H torsion
[ 7974 7965 7964 7962 ] final -171.38 input  175.53 | X-H torsion
[ 8008 7997 7996 7995 ] final   -3.05 input   59.86 | X-H torsion
[ 10167 10162 10161 10158 ] final  -88.11 input  -65.29 | X-H torsion
[ 10718 10713 10712 10709 ] final  -34.79 input   66.30 | X-H torsion
[ 10763 10752 10751 10750 ] final -106.77 input  -60.55 | X-H torsion
[ 11005 11000 10999 10996 ] final  125.55 input  -57.11 | X-H torsion

> <Gold.Protein.ActiveResidues>
 VAL166  LYS551  ARG553  GLY616  TRP617  ASP618  TYR619  PRO620  LYS621  CYS622 
 ASP623  PHE694  ASN695  SER759  ASP760  ASP761  ALA762  ILE779  LEU786  VAL792 
 PHE793  MET794  SER795  GLU796  ALA797  LYS798  CYS799  TRP800  GLU811  SER814 

> <Gold.Protein.RotatedAtoms>
  152.1464  133.4495  159.4791 H   0  0  0  0  0  0  0  0  0  0  0  0  # atno 6907 bound_to 6896
  150.6891  134.2243  159.4418 H   0  0  0  0  0  0  0  0  0  0  0  0  # atno 6908 bound_to 6896
  152.0137  134.9861  160.0619 H   0  0  0  0  0  0  0  0  0  0  0  0  # atno 6909 bound_to 6896
  144.7158  140.1930  143.6346 H   0  0  0  0  0  0  0  0  0  0  0  0  # atno 7974 bound_to 7965
  154.6290  140.2519  155.7456 H   0  0  0  0  0  0  0  0  0  0  0  0  # atno 8008 bound_to 7997
  156.2469  140.2911  156.0553 H   0  0  0  0  0  0  0  0  0  0  0  0  # atno 8009 bound_to 7997
  155.1774  140.0388  157.2865 H   0  0  0  0  0  0  0  0  0  0  0  0  # atno 8010 bound_to 7997
  140.3779  143.2763  151.9420 H   0  0  0  0  0  0  0  0  0  0  0  0  # atno 10167 bound_to 10162
  156.3463  130.4301  149.7743 H   0  0  0  0  0  0  0  0  0  0  0  0  # atno 10718 bound_to 10713
  154.8033  135.4699  154.0330 H   0  0  0  0  0  0  0  0  0  0  0  0  # atno 10763 bound_to 10752
  153.1818  135.6842  153.8474 H   0  0  0  0  0  0  0  0  0  0  0  0  # atno 10764 bound_to 10752
  153.8022  135.3228  155.3369 H   0  0  0  0  0  0  0  0  0  0  0  0  # atno 10765 bound_to 10752
  139.9412  134.9635  156.8575 H   0  0  0  0  0  0  0  0  0  0  0  0  # atno 11005 bound_to 11000
  145.8751  139.2292  143.1638 LP  0  0  0  0  0  0  0  0  0  0  0  0  # atno 17320 bound_to 7965
  146.0048  140.8488  143.0000 LP  0  0  0  0  0  0  0  0  0  0  0  0  # atno 17321 bound_to 7965
  139.4798  144.5846  151.7875 LP  0  0  0  0  0  0  0  0  0  0  0  0  # atno 17342 bound_to 10162
  140.4968  144.1229  150.5962 LP  0  0  0  0  0  0  0  0  0  0  0  0  # atno 17343 bound_to 10162
  156.4960  130.8107  151.3114 LP  0  0  0  0  0  0  0  0  0  0  0  0  # atno 17370 bound_to 10713
  157.7454  130.9960  150.2763 LP  0  0  0  0  0  0  0  0  0  0  0  0  # atno 17371 bound_to 10713
  140.5947  134.0228  155.7513 LP  0  0  0  0  0  0  0  0  0  0  0  0  # atno 17394 bound_to 11000
  141.1047  133.9712  157.3018 LP  0  0  0  0  0  0  0  0  0  0  0  0  # atno 17395 bound_to 11000

$$$$
