AV-unprocessed.smi:1616|AV-procd|sdf|6483|dock10
  -GOLD-   22720 7143D 1   1.00000     0.00000
 Structure written by MMmdl.
 38 39  0  0  0  0  0  0  0  0  1 V2000
  152.4018  143.8058  161.5671 C   0  0  0  0  0  0  0  0  0  0  0  0
  152.4929  142.7664  160.4827 C   0  0  0  0  0  0  0  0  0  0  0  0
  151.7628  142.9564  159.4333 N   0  0  0  0  0  0  0  0  0  0  0  0
  151.7664  142.0598  158.3822 N   0  0  0  0  0  0  0  0  0  0  0  0
  150.8616  142.4216  157.2812 C   0  0  0  0  0  0  0  0  0  0  0  0
  149.6284  141.5114  157.1854 C   0  0  0  0  0  0  0  0  0  0  0  0
  149.6330  140.3890  157.6928 O   0  0  0  0  0  0  0  0  0  0  0  0
  148.5674  142.0256  156.5445 N   0  0  0  0  0  0  0  0  0  0  0  0
  147.2935  141.3466  156.3286 C   0  0  1  0  0  0  0  0  0  0  0  0
  146.1967  142.0194  157.1691 C   0  0  0  0  0  0  0  0  0  0  0  0
  146.9022  141.3029  154.8635 C   0  0  0  0  0  0  0  0  0  0  0  0
  147.9361  141.4664  153.7751 C   0  0  0  0  0  0  0  0  0  0  0  0
  146.9119  142.5527  154.0166 C   0  0  0  0  0  0  0  0  0  0  0  0
  152.5193  140.9229  158.3340 C   0  0  0  0  0  0  0  0  0  0  0  0
  152.4947  140.1527  157.3726 O   0  0  0  0  0  0  0  0  0  0  0  0
  153.3455  140.7152  159.5252 C   0  0  0  0  0  0  0  0  0  0  0  0
  154.1457  139.5333  159.5175 C   0  0  0  0  0  0  0  0  0  0  0  0
  154.7999  138.5786  159.4918 N   0  0  0  0  0  0  0  0  0  0  0  0
  153.3481  141.5867  160.5648 C   0  0  0  0  0  0  0  0  0  0  0  0
  154.1863  141.4162  161.8246 C   0  0  0  0  0  0  0  0  0  0  0  0
  153.3666  144.2889  161.7219 H   0  0  0  0  0  0  0  0  0  0  0  0
  152.0931  143.3550  162.5105 H   0  0  0  0  0  0  0  0  0  0  0  0
  151.6782  144.5853  161.3237 H   0  0  0  0  0  0  0  0  0  0  0  0
  150.5125  143.4487  157.4015 H   0  0  0  0  0  0  0  0  0  0  0  0
  151.4039  142.4069  156.3338 H   0  0  0  0  0  0  0  0  0  0  0  0
  148.6529  142.9572  156.1648 H   0  0  0  0  0  0  0  0  0  0  0  0
  147.3891  140.3130  156.6670 H   0  0  0  0  0  0  0  0  0  0  0  0
  145.2412  141.5083  157.0471 H   0  0  0  0  0  0  0  0  0  0  0  0
  146.0559  143.0608  156.8773 H   0  0  0  0  0  0  0  0  0  0  0  0
  146.4426  142.0012  158.2313 H   0  0  0  0  0  0  0  0  0  0  0  0
  146.1065  140.5919  154.6481 H   0  0  0  0  0  0  0  0  0  0  0  0
  148.9623  141.6691  154.0753 H   0  0  0  0  0  0  0  0  0  0  0  0
  147.8234  140.8587  152.8797 H   0  0  0  0  0  0  0  0  0  0  0  0
  146.1164  142.6678  153.2833 H   0  0  0  0  0  0  0  0  0  0  0  0
  147.2578  143.4759  154.4778 H   0  0  0  0  0  0  0  0  0  0  0  0
  154.8383  140.5448  161.7717 H   0  0  0  0  0  0  0  0  0  0  0  0
  153.5428  141.2936  162.6961 H   0  0  0  0  0  0  0  0  0  0  0  0
  154.8216  142.2876  161.9855 H   0  0  0  0  0  0  0  0  0  0  0  0
  1  2  1  0  0  0  0
  1 21  1  0  0  0  0
  1 22  1  0  0  0  0
  1 23  1  0  0  0  0
  2 19  1  0  0  0  0
  2  3  2  0  0  0  0
  3  4  1  0  0  0  0
  4  5  1  0  0  0  0
  4 14  1  0  0  0  0
  5  6  1  0  0  0  0
  5 24  1  0  0  0  0
  5 25  1  0  0  0  0
  6  7  2  0  0  0  0
  6  8  1  0  0  0  0
  8  9  1  0  0  0  0
  8 26  1  0  0  0  0
  9 10  1  0  0  0  0
  9 11  1  0  0  0  0
  9 27  1  0  0  0  0
 10 28  1  0  0  0  0
 10 29  1  0  0  0  0
 10 30  1  0  0  0  0
 11 13  1  0  0  0  0
 11 12  1  0  0  0  0
 11 31  1  0  0  0  0
 12 13  1  0  0  0  0
 12 32  1  0  0  0  0
 12 33  1  0  0  0  0
 13 34  1  0  0  0  0
 13 35  1  0  0  0  0
 14 15  2  0  0  0  0
 14 16  1  0  0  0  0
 16 17  1  0  0  0  0
 16 19  2  0  0  0  0
 17 18  3  0  0  0  0
 19 20  1  0  0  0  0
 20 36  1  0  0  0  0
 20 37  1  0  0  0  0
 20 38  1  0  0  0  0
M  END
> <s_m_source_file>
AV-unprocessed.smi

> <i_m_source_file_index>
1616

> <i_lp_mmshare_version>
43012

> <i_f3d_flags>
0

> <s_epik_input>
TiNDYyhjMVtDSDNdKWMoPU8pbihuYzFbQ0gzXSlbQ0gyXUMoPU8pW05IXVtDQEhdKFtDSDNdKVtDSF0yW0NIMl1bQ0gyXTI=

> <s_epik_cmdline>
J2VwaWtfcHl0aG9uJywgJy1waCcsICc3LjAnLCAnLXRuJywgJzgnLCAnLW1hJywgJzIwMCcsICctbWV0YWxfYmluZGluZycsICctaW1hZScsICc8aW5maWxlLm1hZT4nLCAnLW9tYWUnLCAnPG91dGZpbGUubWFlPic=

> <r_lp_tautomer_probability>
1

> <r_epik_Ionization_Penalty>
1.93246e-08

> <r_epik_Ionization_Penalty_Charging>
2.27031e-11

> <r_epik_Ionization_Penalty_Neutral>
1.93019e-08

> <r_epik_State_Penalty>
-0

> <r_epik_Charging_Adjusted_Penalty>
2.27031e-11

> <i_epik_Tot_Q>
0

> <i_epik_Tot_abs_Q>
0

> <r_epik_Metal_State_Penalty>
-0

> <b_epik_Metal_Only>
0

> <s_lp_Force_Field>
OPLS_2005

> <r_lp_Energy>
27.6916

> <b_lp_Chiralities_Consistent>
1

> <s_lp_Variant>
AV-unprocessed.smi:1616-2

> <Gold.Version>
5.8.1

> <Gold.Id.Protein>
6NUR|6NUR_protein|mol2

> <Gold.PLP.Fitness>
43.7512

> <Gold.PLP.PLP>
-38.7757

> <Gold.PLP.part.hbond>
-2.0000

> <Gold.PLP.part.metal>
0.0000

> <Gold.PLP.part.buried>
-4.2174

> <Gold.PLP.part.nonpolar>
-31.1686

> <Gold.PLP.part.repulsive>
0.0082

> <Gold.PLP.ligand.clash>
0.0000

> <Gold.PLP.ligand.torsion>
1.0496

> <Gold.PLP.Chemscore.Hbond>
2.0000

> <Gold.PLP.Chemscore.CHOScore>
0.0000

> <Gold.PLP.Chemscore.Metal>
0.0000

> <Gold.Chemscore.Hbonds>
donor molecule, donor type, donor heavy atom, donor atom, acceptor molecule, acceptor atom, score
      L1  H     8    26       P1  8028  1.00
      P1  H  7997  8009       L1    15  1.00

> <Gold.PLP.Chemscore.Internal.Correction>
1.0746

> <Gold.Rescore>
     Score         DG    S(hbond)    S(metal)    S(lipo)     H(rot)  DE(clash)    DE(int)     intcor
     15.82     -17.25       1.85        0.00      84.47       1.68       0.40       1.02       ----

> <Gold.Chemscore.Fitness>
15.8197

> <Gold.Chemscore.DG>
-17.2458

> <Gold.Chemscore.ZeroCoef>
-5.4800

> <Gold.Chemscore.Hbond>
1.8521

> <Gold.Chemscore.Metal>
0.0000

> <Gold.Chemscore.Lipo>
84.4696

> <Gold.Chemscore.Internal_Hbond>
0.0000

> <Gold.Chemscore.DEClash>
0.4022

> <Gold.Chemscore.DEInternal>
1.0239

> <Gold.Chemscore.Rot>
1.6809

> <Gold.Chemscore.Internal.Correction>
   9.000000E+99

> <Gold.Chemscore.Hbonds>
donor molecule, donor type, donor heavy atom, donor atom, acceptor molecule, acceptor atom, score
      L1  H     8    26       P1  8028  0.98
      P1  H  7997  8009       L1    15  0.51

> <Gold.Chemscore.Hbond.Weighted>
-6.1859

> <Gold.Chemscore.Metal.Weighted>
-0.0000

> <Gold.Chemscore.Lipo.Weighted>
-9.8829

> <Gold.Chemscore.Internal_Hbond.Weighted>
0.0000

> <Gold.Chemscore.DEClash.Weighted>
0.4022

> <Gold.Chemscore.DEInternal.Weighted>
1.0239

> <Gold.Chemscore.Rot.Weighted>
4.3030

> <Gold.Chemscore.Internal.Correction.Weighted>
   9.000000E+99

> <Gold.Protein.RotatedTorsions>
[ 6907 6896 6895 6894 ] final  116.02 input  -60.11 | X-H torsion
[ 7974 7965 7964 7962 ] final -166.87 input  175.53 | X-H torsion
[ 8008 7997 7996 7995 ] final  179.79 input   59.86 | X-H torsion
[ 10167 10162 10161 10158 ] final -100.25 input  -65.29 | X-H torsion
[ 10718 10713 10712 10709 ] final   80.90 input   66.30 | X-H torsion
[ 10763 10752 10751 10750 ] final -136.32 input  -60.55 | X-H torsion
[ 11005 11000 10999 10996 ] final  -30.16 input  -57.11 | X-H torsion

> <Gold.Protein.ActiveResidues>
 VAL166  LYS551  ARG553  GLY616  TRP617  ASP618  TYR619  PRO620  LYS621  CYS622 
 ASP623  PHE694  ASN695  SER759  ASP760  ASP761  ALA762  ILE779  LEU786  VAL792 
 PHE793  MET794  SER795  GLU796  ALA797  LYS798  CYS799  TRP800  GLU811  SER814 

> <Gold.Protein.RotatedAtoms>
  152.4705  133.8018  159.6956 H   0  0  0  0  0  0  0  0  0  0  0  0  # atno 6907 bound_to 6896
  150.8691  133.7522  159.2973 H   0  0  0  0  0  0  0  0  0  0  0  0  # atno 6908 bound_to 6896
  151.5062  135.1067  159.9894 H   0  0  0  0  0  0  0  0  0  0  0  0  # atno 6909 bound_to 6896
  144.7235  140.2602  143.6266 H   0  0  0  0  0  0  0  0  0  0  0  0  # atno 7974 bound_to 7965
  156.0394  140.1300  157.0172 H   0  0  0  0  0  0  0  0  0  0  0  0  # atno 8008 bound_to 7997
  154.4384  140.1033  156.6285 H   0  0  0  0  0  0  0  0  0  0  0  0  # atno 8009 bound_to 7997
  155.5690  140.3466  155.4512 H   0  0  0  0  0  0  0  0  0  0  0  0  # atno 8010 bound_to 7997
  140.2538  143.3454  152.0689 H   0  0  0  0  0  0  0  0  0  0  0  0  # atno 10167 bound_to 10162
  157.6819  130.9980  150.2147 H   0  0  0  0  0  0  0  0  0  0  0  0  # atno 10718 bound_to 10713
  154.8686  135.3676  154.5042 H   0  0  0  0  0  0  0  0  0  0  0  0  # atno 10763 bound_to 10752
  153.5681  135.7021  153.5522 H   0  0  0  0  0  0  0  0  0  0  0  0  # atno 10764 bound_to 10752
  153.3567  135.4057  155.1651 H   0  0  0  0  0  0  0  0  0  0  0  0  # atno 10765 bound_to 10752
  140.9358  133.7309  156.1003 H   0  0  0  0  0  0  0  0  0  0  0  0  # atno 11005 bound_to 11000
  145.8143  139.2016  143.1975 LP  0  0  0  0  0  0  0  0  0  0  0  0  # atno 17320 bound_to 7965
  146.0569  140.8011  142.9754 LP  0  0  0  0  0  0  0  0  0  0  0  0  # atno 17321 bound_to 7965
  139.5038  144.6762  151.6123 LP  0  0  0  0  0  0  0  0  0  0  0  0  # atno 17342 bound_to 10162
  140.6019  143.9594  150.6392 LP  0  0  0  0  0  0  0  0  0  0  0  0  # atno 17343 bound_to 10162
  156.2811  130.3733  149.7934 LP  0  0  0  0  0  0  0  0  0  0  0  0  # atno 17370 bound_to 10713
  156.5622  130.8388  151.3332 LP  0  0  0  0  0  0  0  0  0  0  0  0  # atno 17371 bound_to 10713
  140.7801  134.3735  157.5489 LP  0  0  0  0  0  0  0  0  0  0  0  0  # atno 17394 bound_to 11000
  139.8807  134.9076  156.2949 LP  0  0  0  0  0  0  0  0  0  0  0  0  # atno 17395 bound_to 11000

$$$$
