AV-unprocessed.smi:335|AV-procd|sdf|2370|dock2
  -GOLD-   2262022283D 1   1.00000     0.00000
 Structure written by MMmdl.
 42 44  0  0  0  0  0  0  0  0  1 V2000
  151.5492  143.7830  157.8165 C   0  0  0  0  0  0  0  0  0  0  0  0
  151.7352  142.6714  158.6747 O   0  0  0  0  0  0  0  0  0  0  0  0
  151.4853  141.4359  158.0241 C   0  0  0  0  0  0  0  0  0  0  0  0
  151.8152  140.2763  158.9786 C   0  0  0  0  0  0  0  0  0  0  0  0
  151.3403  138.9888  158.4590 N   0  0  0  0  0  0  0  0  0  0  0  0
  150.3568  138.3964  159.2334 N   0  0  0  0  0  0  0  0  0  0  0  0
  149.8334  137.2698  158.8709 C   0  0  0  0  0  0  0  0  0  0  0  0
  148.7717  136.6023  159.6738 C   0  0  0  0  0  0  0  0  0  0  0  0
  148.0523  137.2323  160.4510 O   0  0  0  0  0  0  0  0  0  0  0  0
  148.6618  135.2743  159.4872 N   0  0  0  0  0  0  0  0  0  0  0  0
  147.7129  134.3915  160.1568 C   0  0  0  0  0  0  0  0  0  0  0  0
  147.7151  134.5826  161.6638 C   0  0  0  0  0  0  0  0  0  0  0  0
  146.5978  134.0476  162.5281 C   0  0  0  0  0  0  0  0  0  0  0  0
  146.7581  135.5385  162.3353 C   0  0  0  0  0  0  0  0  0  0  0  0
  147.9634  132.9360  159.8081 C   0  0  0  0  0  0  0  0  0  0  0  0
  146.8889  131.8925  160.0007 C   0  0  0  0  0  0  0  0  0  0  0  0
  148.1183  131.8848  160.8816 C   0  0  0  0  0  0  0  0  0  0  0  0
  150.2679  136.6053  157.6537 C   0  0  0  0  0  0  0  0  0  0  0  0
  151.2345  137.1908  156.9132 C   0  0  0  0  0  0  0  0  0  0  0  0
  151.8423  138.4647  157.3003 C   0  0  0  0  0  0  0  0  0  0  0  0
  152.7223  139.0183  156.6415 O   0  0  0  0  0  0  0  0  0  0  0  0
  151.7560  144.7048  158.3600 H   0  0  0  0  0  0  0  0  0  0  0  0
  150.5223  143.8315  157.4520 H   0  0  0  0  0  0  0  0  0  0  0  0
  152.2236  143.7378  156.9604 H   0  0  0  0  0  0  0  0  0  0  0  0
  150.4464  141.3807  157.6953 H   0  0  0  0  0  0  0  0  0  0  0  0
  152.1094  141.3623  157.1325 H   0  0  0  0  0  0  0  0  0  0  0  0
  152.8926  140.2330  159.1456 H   0  0  0  0  0  0  0  0  0  0  0  0
  151.3791  140.4762  159.9592 H   0  0  0  0  0  0  0  0  0  0  0  0
  149.2955  134.8412  158.8307 H   0  0  0  0  0  0  0  0  0  0  0  0
  146.7097  134.6303  159.7979 H   0  0  0  0  0  0  0  0  0  0  0  0
  148.7100  134.5295  162.1025 H   0  0  0  0  0  0  0  0  0  0  0  0
  145.7526  133.5706  162.0361 H   0  0  0  0  0  0  0  0  0  0  0  0
  146.8678  133.6333  163.4972 H   0  0  0  0  0  0  0  0  0  0  0  0
  147.1375  136.1187  163.1736 H   0  0  0  0  0  0  0  0  0  0  0  0
  146.0232  136.0445  161.7124 H   0  0  0  0  0  0  0  0  0  0  0  0
  148.5933  132.8044  158.9299 H   0  0  0  0  0  0  0  0  0  0  0  0
  145.9502  132.2087  160.4517 H   0  0  0  0  0  0  0  0  0  0  0  0
  146.8045  131.1136  159.2457 H   0  0  0  0  0  0  0  0  0  0  0  0
  148.8543  131.1013  160.7138 H   0  0  0  0  0  0  0  0  0  0  0  0
  147.9895  132.1889  161.9184 H   0  0  0  0  0  0  0  0  0  0  0  0
  149.8364  135.6648  157.3433 H   0  0  0  0  0  0  0  0  0  0  0  0
  151.5689  136.7067  156.0073 H   0  0  0  0  0  0  0  0  0  0  0  0
  1  2  1  0  0  0  0
  1 22  1  0  0  0  0
  1 23  1  0  0  0  0
  1 24  1  0  0  0  0
  2  3  1  0  0  0  0
  3  4  1  0  0  0  0
  3 25  1  0  0  0  0
  3 26  1  0  0  0  0
  4  5  1  0  0  0  0
  4 27  1  0  0  0  0
  4 28  1  0  0  0  0
  5 20  1  0  0  0  0
  5  6  1  0  0  0  0
  6  7  2  0  0  0  0
  7  8  1  0  0  0  0
  7 18  1  0  0  0  0
  8  9  2  0  0  0  0
  8 10  1  0  0  0  0
 10 11  1  0  0  0  0
 10 29  1  0  0  0  0
 11 12  1  0  0  0  0
 11 15  1  0  0  0  0
 11 30  1  0  0  0  0
 12 14  1  0  0  0  0
 12 13  1  0  0  0  0
 12 31  1  0  0  0  0
 13 14  1  0  0  0  0
 13 32  1  0  0  0  0
 13 33  1  0  0  0  0
 14 34  1  0  0  0  0
 14 35  1  0  0  0  0
 15 17  1  0  0  0  0
 15 16  1  0  0  0  0
 15 36  1  0  0  0  0
 16 17  1  0  0  0  0
 16 37  1  0  0  0  0
 16 38  1  0  0  0  0
 17 39  1  0  0  0  0
 17 40  1  0  0  0  0
 18 19  2  0  0  0  0
 18 41  1  0  0  0  0
 19 20  1  0  0  0  0
 19 42  1  0  0  0  0
 20 21  2  0  0  0  0
M  END
> <s_m_source_file>
AV-unprocessed.smi

> <i_m_source_file_index>
335

> <i_lp_mmshare_version>
43012

> <i_f3d_flags>
0

> <s_epik_input>
W0NIM11PW0NIMl1bQ0gyXW4xbmMoW2NIXVtjSF1jMT1PKUMoPU8pW05IXVtDSF0oW0NIXTJbQ0gyXVtDSDJdMilbQ0hdM1tDSDJdW0NIMl0z

> <s_epik_cmdline>
J2VwaWtfcHl0aG9uJywgJy1waCcsICc3LjAnLCAnLXRuJywgJzgnLCAnLW1hJywgJzIwMCcsICctbWV0YWxfYmluZGluZycsICctaW1hZScsICc8aW5maWxlLm1hZT4nLCAnLW9tYWUnLCAnPG91dGZpbGUubWFlPic=

> <r_lp_tautomer_probability>
1

> <r_epik_Ionization_Penalty>
5.73468e-07

> <r_epik_Ionization_Penalty_Charging>
6.67133e-09

> <r_epik_Ionization_Penalty_Neutral>
5.66797e-07

> <r_epik_State_Penalty>
-0

> <r_epik_Charging_Adjusted_Penalty>
6.67133e-09

> <i_epik_Tot_Q>
0

> <i_epik_Tot_abs_Q>
0

> <r_epik_Metal_State_Penalty>
-0

> <b_epik_Metal_Only>
0

> <s_lp_Force_Field>
OPLS_2005

> <r_lp_Energy>
44.174

> <b_lp_Chiralities_Consistent>
1

> <s_lp_Variant>
AV-unprocessed.smi:335-1

> <Gold.Version>
5.8.1

> <Gold.Id.Protein>
6NUR|6NUR_protein|mol2

> <Gold.PLP.Fitness>
39.7160

> <Gold.PLP.PLP>
-33.7283

> <Gold.PLP.part.hbond>
-4.0000

> <Gold.PLP.part.metal>
0.0000

> <Gold.PLP.part.buried>
-5.0735

> <Gold.PLP.part.nonpolar>
-25.3022

> <Gold.PLP.part.repulsive>
0.2526

> <Gold.PLP.ligand.clash>
0.0000

> <Gold.PLP.ligand.torsion>
1.7804

> <Gold.PLP.Chemscore.Hbond>
2.4240

> <Gold.PLP.Chemscore.CHOScore>
0.0000

> <Gold.PLP.Chemscore.Metal>
0.0000

> <Gold.Chemscore.Hbonds>
donor molecule, donor type, donor heavy atom, donor atom, acceptor molecule, acceptor atom, score
      P1  H  6931  6943       L1     9  0.72
      P1  H  6934  6947       L1     9  0.70
      P1  H  7997  8009       L1    21  1.00

> <Gold.PLP.Chemscore.Internal.Correction>
2.2765

> <Gold.Rescore>
     Score         DG    S(hbond)    S(metal)    S(lipo)     H(rot)  DE(clash)    DE(int)     intcor
     15.63     -17.46       2.37        0.00      75.04       1.85       0.01       1.82       ----

> <Gold.Chemscore.Fitness>
15.6310

> <Gold.Chemscore.DG>
-17.4584

> <Gold.Chemscore.ZeroCoef>
-5.4800

> <Gold.Chemscore.Hbond>
2.3723

> <Gold.Chemscore.Metal>
0.0000

> <Gold.Chemscore.Lipo>
75.0443

> <Gold.Chemscore.Internal_Hbond>
0.0000

> <Gold.Chemscore.DEClash>
0.0060

> <Gold.Chemscore.DEInternal>
1.8213

> <Gold.Chemscore.Rot>
1.8458

> <Gold.Chemscore.Internal.Correction>
   9.000000E+99

> <Gold.Chemscore.Hbonds>
donor molecule, donor type, donor heavy atom, donor atom, acceptor molecule, acceptor atom, score
      P1  H  6931  6943       L1     9  0.62
      P1  H  6934  6947       L1     9  0.66
      P1  H  7997  8009       L1    21  0.98

> <Gold.Chemscore.Hbond.Weighted>
-7.9234

> <Gold.Chemscore.Metal.Weighted>
-0.0000

> <Gold.Chemscore.Lipo.Weighted>
-8.7802

> <Gold.Chemscore.Internal_Hbond.Weighted>
0.0000

> <Gold.Chemscore.DEClash.Weighted>
0.0060

> <Gold.Chemscore.DEInternal.Weighted>
1.8213

> <Gold.Chemscore.Rot.Weighted>
4.7252

> <Gold.Chemscore.Internal.Correction.Weighted>
   9.000000E+99

> <Gold.Protein.RotatedTorsions>
[ 6907 6896 6895 6894 ] final   53.04 input  -60.11 | X-H torsion
[ 7974 7965 7964 7962 ] final  155.70 input  175.53 | X-H torsion
[ 8008 7997 7996 7995 ] final -161.72 input   59.86 | X-H torsion
[ 10167 10162 10161 10158 ] final   50.29 input  -65.29 | X-H torsion
[ 10718 10713 10712 10709 ] final  -86.98 input   66.30 | X-H torsion
[ 10763 10752 10751 10750 ] final  118.14 input  -60.55 | X-H torsion
[ 11005 11000 10999 10996 ] final   33.05 input  -57.11 | X-H torsion

> <Gold.Protein.ActiveResidues>
 VAL166  LYS551  ARG553  GLY616  TRP617  ASP618  TYR619  PRO620  LYS621  CYS622 
 ASP623  PHE694  ASN695  SER759  ASP760  ASP761  ALA762  ILE779  LEU786  VAL792 
 PHE793  MET794  SER795  GLU796  ALA797  LYS798  CYS799  TRP800  GLU811  SER814 

> <Gold.Protein.RotatedAtoms>
  152.3296  134.7276  160.0292 H   0  0  0  0  0  0  0  0  0  0  0  0  # atno 6907 bound_to 6896
  151.7697  133.3335  159.3449 H   0  0  0  0  0  0  0  0  0  0  0  0  # atno 6908 bound_to 6896
  150.7415  134.5961  159.6057 H   0  0  0  0  0  0  0  0  0  0  0  0  # atno 6909 bound_to 6896
  144.8008  139.7104  143.6182 H   0  0  0  0  0  0  0  0  0  0  0  0  # atno 7974 bound_to 7965
  155.7963  140.0885  157.1981 H   0  0  0  0  0  0  0  0  0  0  0  0  # atno 8008 bound_to 7997
  154.3983  140.1480  156.3281 H   0  0  0  0  0  0  0  0  0  0  0  0  # atno 8009 bound_to 7997
  155.8508  140.3434  155.5694 H   0  0  0  0  0  0  0  0  0  0  0  0  # atno 8010 bound_to 7997
  140.2740  144.3233  150.6282 H   0  0  0  0  0  0  0  0  0  0  0  0  # atno 10167 bound_to 10162
  155.9987  130.4784  150.4797 H   0  0  0  0  0  0  0  0  0  0  0  0  # atno 10718 bound_to 10713
  153.5632  135.3517  155.2807 H   0  0  0  0  0  0  0  0  0  0  0  0  # atno 10763 bound_to 10752
  154.8692  135.4141  154.2808 H   0  0  0  0  0  0  0  0  0  0  0  0  # atno 10764 bound_to 10752
  153.3558  135.7057  153.6821 H   0  0  0  0  0  0  0  0  0  0  0  0  # atno 10765 bound_to 10752
  140.2671  134.3124  155.7839 H   0  0  0  0  0  0  0  0  0  0  0  0  # atno 11005 bound_to 11000
  146.2289  139.5776  142.9568 LP  0  0  0  0  0  0  0  0  0  0  0  0  # atno 17320 bound_to 7965
  145.5557  141.0409  143.2254 LP  0  0  0  0  0  0  0  0  0  0  0  0  # atno 17321 bound_to 7965
  140.5866  143.2169  151.7330 LP  0  0  0  0  0  0  0  0  0  0  0  0  # atno 17342 bound_to 10162
  139.4981  144.4001  152.0190 LP  0  0  0  0  0  0  0  0  0  0  0  0  # atno 17343 bound_to 10162
  157.2804  131.0605  151.2202 LP  0  0  0  0  0  0  0  0  0  0  0  0  # atno 17370 bound_to 10713
  157.3250  130.6956  149.6291 LP  0  0  0  0  0  0  0  0  0  0  0  0  # atno 17371 bound_to 10713
  141.2182  133.7444  156.9278 LP  0  0  0  0  0  0  0  0  0  0  0  0  # atno 17394 bound_to 11000
  140.1408  134.9295  157.2464 LP  0  0  0  0  0  0  0  0  0  0  0  0  # atno 17395 bound_to 11000

$$$$
