AV-unprocessed.smi:1269|AV-procd|sdf|5328|dock7
  -GOLD-   22720 4453D 1   1.00000     0.00000
 Structure written by MMmdl.
 43 44  0  0  0  0  0  0  0  0  1 V2000
  144.9753  132.4242  149.9659 C   0  0  0  0  0  0  0  0  0  0  0  0
  143.9623  133.1533  150.6504 O   0  0  0  0  0  0  0  0  0  0  0  0
  144.2661  134.4161  151.1165 C   0  0  0  0  0  0  0  0  0  0  0  0
  143.2768  135.1311  151.8201 C   0  0  0  0  0  0  0  0  0  0  0  0
  143.5822  136.4193  152.2980 C   0  0  0  0  0  0  0  0  0  0  0  0
  144.8664  136.9526  152.0682 C   0  0  0  0  0  0  0  0  0  0  0  0
  145.1388  138.2623  152.5482 N   0  0  0  0  0  0  0  0  0  0  0  0
  146.2633  138.7298  153.1173 C   0  0  0  0  0  0  0  0  0  0  0  0
  147.2726  138.0658  153.3517 O   0  0  0  0  0  0  0  0  0  0  0  0
  146.1434  140.0292  153.4271 N   0  0  0  0  0  0  0  0  0  0  0  0
  147.1740  140.8512  154.0582 C   0  0  1  0  0  0  0  0  0  0  0  0
  146.5984  142.2647  154.2375 C   0  0  0  0  0  0  0  0  0  0  0  0
  147.6401  140.1619  155.3651 C   0  0  0  0  0  0  0  0  0  0  0  0
  149.0682  139.8462  155.4637 N   0  0  0  0  0  0  0  0  0  0  0  0
  149.8461  141.0442  155.7699 C   0  0  0  0  0  0  0  0  0  0  0  0
  151.3505  140.7441  155.8862 C   0  0  0  0  0  0  0  0  0  0  0  0
  151.8131  140.1514  154.6778 O   0  0  0  0  0  0  0  0  0  0  0  0
  151.1100  138.9578  154.3509 C   0  0  0  0  0  0  0  0  0  0  0  0
  149.6056  139.2596  154.2355 C   0  0  0  0  0  0  0  0  0  0  0  0
  145.7875  136.1603  151.3399 C   0  0  0  0  0  0  0  0  0  0  0  0
  145.4999  134.9248  150.8775 N   0  0  0  0  0  0  0  0  0  0  0  0
  144.5797  131.4545  149.6635 H   0  0  0  0  0  0  0  0  0  0  0  0
  145.8391  132.2436  150.6074 H   0  0  0  0  0  0  0  0  0  0  0  0
  145.3015  132.9438  149.0638 H   0  0  0  0  0  0  0  0  0  0  0  0
  142.3015  134.6994  151.9892 H   0  0  0  0  0  0  0  0  0  0  0  0
  142.8379  136.9872  152.8372 H   0  0  0  0  0  0  0  0  0  0  0  0
  144.3662  138.9099  152.4971 H   0  0  0  0  0  0  0  0  0  0  0  0
  145.2735  140.4901  153.2042 H   0  0  0  0  0  0  0  0  0  0  0  0
  148.0226  140.9220  153.3750 H   0  0  0  0  0  0  0  0  0  0  0  0
  147.3832  142.9937  154.4325 H   0  0  0  0  0  0  0  0  0  0  0  0
  145.8756  142.3041  155.0529 H   0  0  0  0  0  0  0  0  0  0  0  0
  146.0936  142.5998  153.3305 H   0  0  0  0  0  0  0  0  0  0  0  0
  147.3201  140.7380  156.2347 H   0  0  0  0  0  0  0  0  0  0  0  0
  147.0848  139.2248  155.4296 H   0  0  0  0  0  0  0  0  0  0  0  0
  149.6865  141.7983  154.9972 H   0  0  0  0  0  0  0  0  0  0  0  0
  149.4997  141.4809  156.7075 H   0  0  0  0  0  0  0  0  0  0  0  0
  151.9081  141.6628  156.0689 H   0  0  0  0  0  0  0  0  0  0  0  0
  151.5472  140.0762  156.7262 H   0  0  0  0  0  0  0  0  0  0  0  0
  151.4914  138.5675  153.4073 H   0  0  0  0  0  0  0  0  0  0  0  0
  151.2944  138.1974  155.1112 H   0  0  0  0  0  0  0  0  0  0  0  0
  149.0907  138.3379  153.9827 H   0  0  0  0  0  0  0  0  0  0  0  0
  149.4430  139.9407  153.3987 H   0  0  0  0  0  0  0  0  0  0  0  0
  146.7760  136.5130  151.0915 H   0  0  0  0  0  0  0  0  0  0  0  0
  1  2  1  0  0  0  0
  1 22  1  0  0  0  0
  1 23  1  0  0  0  0
  1 24  1  0  0  0  0
  2  3  1  0  0  0  0
  3 21  1  0  0  0  0
  3  4  2  0  0  0  0
  4  5  1  0  0  0  0
  4 25  1  0  0  0  0
  5  6  2  0  0  0  0
  5 26  1  0  0  0  0
  6  7  1  0  0  0  0
  6 20  1  0  0  0  0
  7  8  1  0  0  0  0
  7 27  1  0  0  0  0
  8  9  2  0  0  0  0
  8 10  1  0  0  0  0
 10 11  1  0  0  0  0
 10 28  1  0  0  0  0
 11 12  1  0  0  0  0
 11 13  1  0  0  0  0
 11 29  1  0  0  0  0
 12 30  1  0  0  0  0
 12 31  1  0  0  0  0
 12 32  1  0  0  0  0
 13 14  1  0  0  0  0
 13 33  1  0  0  0  0
 13 34  1  0  0  0  0
 14 19  1  0  0  0  0
 14 15  1  0  0  0  0
 15 16  1  0  0  0  0
 15 35  1  0  0  0  0
 15 36  1  0  0  0  0
 16 17  1  0  0  0  0
 16 37  1  0  0  0  0
 16 38  1  0  0  0  0
 17 18  1  0  0  0  0
 18 19  1  0  0  0  0
 18 39  1  0  0  0  0
 18 40  1  0  0  0  0
 19 41  1  0  0  0  0
 19 42  1  0  0  0  0
 20 21  2  0  0  0  0
 20 43  1  0  0  0  0
M  END
> <s_m_source_file>
AV-unprocessed.smi

> <i_m_source_file_index>
1269

> <i_lp_mmshare_version>
43012

> <i_f3d_flags>
0

> <s_epik_input>
W0NIM11PYzFbY0hdW2NIXWMoW2NIXW4xKVtOSF1DKD1PKVtOSF1bQ0BIXShbQ0gzXSlbQ0gyXU4yW0NIMl1bQ0gyXU9bQ0gyXVtDSDJdMg==

> <s_epik_cmdline>
J2VwaWtfcHl0aG9uJywgJy1waCcsICc3LjAnLCAnLXRuJywgJzgnLCAnLW1hJywgJzIwMCcsICctbWV0YWxfYmluZGluZycsICctaW1hZScsICc8aW5maWxlLm1hZT4nLCAnLW9tYWUnLCAnPG91dGZpbGUubWFlPic=

> <r_lp_tautomer_probability>
1

> <r_epik_Ionization_Penalty>
0.266086

> <r_epik_Ionization_Penalty_Charging>
0

> <r_epik_Ionization_Penalty_Neutral>
0.266086

> <r_epik_State_Penalty>
0.257924

> <r_epik_Charging_Adjusted_Penalty>
0.257924

> <i_epik_Tot_Q>
0

> <i_epik_Tot_abs_Q>
0

> <r_epik_Metal_State_Penalty>
0.25792

> <b_epik_Metal_Only>
0

> <s_lp_Force_Field>
OPLS_2005

> <r_lp_Energy>
29.6845

> <b_lp_Chiralities_Consistent>
1

> <s_lp_Variant>
AV-unprocessed.smi:1269-2

> <Gold.Version>
5.8.1

> <Gold.Id.Protein>
6NUR|6NUR_protein|mol2

> <Gold.PLP.Fitness>
44.6288

> <Gold.PLP.PLP>
-35.0314

> <Gold.PLP.part.hbond>
-3.6738

> <Gold.PLP.part.metal>
0.0000

> <Gold.PLP.part.buried>
-6.7792

> <Gold.PLP.part.nonpolar>
-26.3313

> <Gold.PLP.part.repulsive>
1.2545

> <Gold.PLP.ligand.clash>
0.0000

> <Gold.PLP.ligand.torsion>
1.2133

> <Gold.PLP.Chemscore.Hbond>
2.9920

> <Gold.PLP.Chemscore.CHOScore>
1.0000

> <Gold.PLP.Chemscore.Metal>
0.0000

> <Gold.Chemscore.Hbonds>
donor molecule, donor type, donor heavy atom, donor atom, acceptor molecule, acceptor atom, score
      L1  H     7    27       P1 10175  1.00
      L1  H    10    28       P1 10175  1.00
      P1  H  7989  7998       L1    17  0.59
      L1  C    20    43       P1  7948  1.00

> <Gold.PLP.Chemscore.Internal.Correction>
0.0481

> <Gold.Rescore>
     Score         DG    S(hbond)    S(metal)    S(lipo)     H(rot)  DE(clash)    DE(int)     intcor
     13.63     -16.54       1.95        0.00      76.52       1.72       1.66       1.26       ----

> <Gold.Chemscore.Fitness>
13.6257

> <Gold.Chemscore.DG>
-16.5411

> <Gold.Chemscore.ZeroCoef>
-5.4800

> <Gold.Chemscore.Hbond>
1.9488

> <Gold.Chemscore.Metal>
0.0000

> <Gold.Chemscore.Lipo>
76.5181

> <Gold.Chemscore.Internal_Hbond>
0.0000

> <Gold.Chemscore.DEClash>
1.6564

> <Gold.Chemscore.DEInternal>
1.2589

> <Gold.Chemscore.Rot>
1.7189

> <Gold.Chemscore.Internal.Correction>
   9.000000E+99

> <Gold.Chemscore.Hbonds>
donor molecule, donor type, donor heavy atom, donor atom, acceptor molecule, acceptor atom, score
      L1  H     7    27       P1 10175  0.98
      L1  H    10    28       P1 10175  0.91
      P1  H  7989  7998       L1    17  0.16

> <Gold.Chemscore.Hbond.Weighted>
-6.5089

> <Gold.Chemscore.Metal.Weighted>
-0.0000

> <Gold.Chemscore.Lipo.Weighted>
-8.9526

> <Gold.Chemscore.Internal_Hbond.Weighted>
0.0000

> <Gold.Chemscore.DEClash.Weighted>
1.6564

> <Gold.Chemscore.DEInternal.Weighted>
1.2589

> <Gold.Chemscore.Rot.Weighted>
4.4004

> <Gold.Chemscore.Internal.Correction.Weighted>
   9.000000E+99

> <Gold.Protein.RotatedTorsions>
[ 6907 6896 6895 6894 ] final  121.59 input  -60.11 | X-H torsion
[ 7974 7965 7964 7962 ] final  131.48 input  175.53 | X-H torsion
[ 8008 7997 7996 7995 ] final  109.87 input   59.86 | X-H torsion
[ 10167 10162 10161 10158 ] final  123.29 input  -65.29 | X-H torsion
[ 10718 10713 10712 10709 ] final   45.25 input   66.30 | X-H torsion
[ 10763 10752 10751 10750 ] final -131.24 input  -60.55 | X-H torsion
[ 11005 11000 10999 10996 ] final -173.32 input  -57.11 | X-H torsion

> <Gold.Protein.ActiveResidues>
 VAL166  LYS551  ARG553  GLY616  TRP617  ASP618  TYR619  PRO620  LYS621  CYS622 
 ASP623  PHE694  ASN695  SER759  ASP760  ASP761  ALA762  ILE779  LEU786  VAL792 
 PHE793  MET794  SER795  GLU796  ALA797  LYS798  CYS799  TRP800  GLU811  SER814 

> <Gold.Protein.RotatedAtoms>
  152.4310  133.7277  159.6569 H   0  0  0  0  0  0  0  0  0  0  0  0  # atno 6907 bound_to 6896
  150.8189  133.8277  159.3154 H   0  0  0  0  0  0  0  0  0  0  0  0  # atno 6908 bound_to 6896
  151.5965  135.1052  160.0102 H   0  0  0  0  0  0  0  0  0  0  0  0  # atno 6909 bound_to 6896
  145.0068  139.4258  143.5264 H   0  0  0  0  0  0  0  0  0  0  0  0  # atno 7974 bound_to 7965
  156.2011  140.3049  155.9528 H   0  0  0  0  0  0  0  0  0  0  0  0  # atno 8008 bound_to 7997
  155.2951  140.0444  157.3043 H   0  0  0  0  0  0  0  0  0  0  0  0  # atno 8009 bound_to 7997
  154.5572  140.2309  155.8401 H   0  0  0  0  0  0  0  0  0  0  0  0  # atno 8010 bound_to 7997
  139.5808  144.6985  151.3533 H   0  0  0  0  0  0  0  0  0  0  0  0  # atno 10167 bound_to 10162
  157.4356  130.8050  149.7644 H   0  0  0  0  0  0  0  0  0  0  0  0  # atno 10718 bound_to 10713
  154.8752  135.3836  154.4214 H   0  0  0  0  0  0  0  0  0  0  0  0  # atno 10763 bound_to 10752
  153.4917  135.7030  153.5885 H   0  0  0  0  0  0  0  0  0  0  0  0  # atno 10764 bound_to 10752
  153.4256  135.3891  155.2105 H   0  0  0  0  0  0  0  0  0  0  0  0  # atno 10765 bound_to 10752
  140.4871  134.6020  157.4941 H   0  0  0  0  0  0  0  0  0  0  0  0  # atno 11005 bound_to 11000
  146.3462  139.9489  142.8731 LP  0  0  0  0  0  0  0  0  0  0  0  0  # atno 17320 bound_to 7965
  145.2077  140.9882  143.4119 LP  0  0  0  0  0  0  0  0  0  0  0  0  # atno 17321 bound_to 7965
  140.7086  143.7448  150.7527 LP  0  0  0  0  0  0  0  0  0  0  0  0  # atno 17342 bound_to 10162
  140.0980  143.4814  152.2441 LP  0  0  0  0  0  0  0  0  0  0  0  0  # atno 17343 bound_to 10162
  155.9929  130.3928  150.2922 LP  0  0  0  0  0  0  0  0  0  0  0  0  # atno 17370 bound_to 10713
  157.1083  131.0214  151.3058 LP  0  0  0  0  0  0  0  0  0  0  0  0  # atno 17371 bound_to 10713
  139.9792  134.7166  155.9892 LP  0  0  0  0  0  0  0  0  0  0  0  0  # atno 17394 bound_to 11000
  141.1503  133.6549  156.3992 LP  0  0  0  0  0  0  0  0  0  0  0  0  # atno 17395 bound_to 11000

$$$$
