AV-unprocessed.smi:559|AV-procd|sdf|2924|dock2
  -GOLD-   2262023413D 1   1.00000     0.00000
 Structure written by MMmdl.
 41 42  0  0  0  0  0  0  0  0  1 V2000
  151.3264  145.6874  160.4395 C   0  0  0  0  0  0  0  0  0  0  0  0
  152.0303  144.3611  160.4714 C   0  0  0  0  0  0  0  0  0  0  0  0
  152.5932  143.9524  161.5962 N   0  0  0  0  0  0  0  0  0  0  0  0
  153.1402  142.7581  161.2936 N   0  0  0  0  0  0  0  0  0  0  0  0
  153.8603  142.0249  162.3162 C   0  0  0  0  0  0  0  0  0  0  0  0
  152.9192  142.4099  159.9758 C   0  0  0  0  0  0  0  0  0  0  0  0
  153.4353  141.1339  159.3931 C   0  0  0  0  0  0  0  0  0  0  0  0
  152.2065  143.4311  159.4050 C   0  0  0  0  0  0  0  0  0  0  0  0
  151.7333  143.5694  157.9781 C   0  0  0  0  0  0  0  0  0  0  0  0
  150.9783  142.3044  157.5688 C   0  0  0  0  0  0  0  0  0  0  0  0
  150.8979  141.3563  158.3491 O   0  0  0  0  0  0  0  0  0  0  0  0
  150.4646  142.2917  156.3284 N   0  0  0  0  0  0  0  0  0  0  0  0
  149.8797  141.1315  155.6655 C   0  0  0  0  0  0  0  0  0  0  0  0
  150.9655  140.2796  154.9795 C   0  0  2  0  0  0  0  0  0  0  0  0
  150.3807  139.0659  154.2319 C   0  0  0  0  0  0  0  0  0  0  0  0
  151.5342  138.1517  153.8060 C   0  0  0  0  0  0  0  0  0  0  0  0
  152.7908  138.2915  155.1310 S   0  0  0  0  0  0  0  0  0  0  0  0
  152.6789  137.1392  156.0382 O   0  0  0  0  0  0  0  0  0  0  0  0
  154.0817  138.6609  154.5312 O   0  0  0  0  0  0  0  0  0  0  0  0
  152.0498  139.7582  155.9398 C   0  0  0  0  0  0  0  0  0  0  0  0
  151.8792  146.4055  159.8338 H   0  0  0  0  0  0  0  0  0  0  0  0
  151.2144  146.1109  161.4383 H   0  0  0  0  0  0  0  0  0  0  0  0
  150.3290  145.5891  160.0109 H   0  0  0  0  0  0  0  0  0  0  0  0
  153.4250  141.0324  162.4327 H   0  0  0  0  0  0  0  0  0  0  0  0
  153.8092  142.5459  163.2732 H   0  0  0  0  0  0  0  0  0  0  0  0
  154.9057  141.9246  162.0248 H   0  0  0  0  0  0  0  0  0  0  0  0
  153.1284  141.0208  158.3536 H   0  0  0  0  0  0  0  0  0  0  0  0
  153.0596  140.2736  159.9470 H   0  0  0  0  0  0  0  0  0  0  0  0
  154.5248  141.1083  159.4240 H   0  0  0  0  0  0  0  0  0  0  0  0
  151.0789  144.4341  157.8616 H   0  0  0  0  0  0  0  0  0  0  0  0
  152.5635  143.7219  157.2883 H   0  0  0  0  0  0  0  0  0  0  0  0
  150.5760  143.1242  155.7677 H   0  0  0  0  0  0  0  0  0  0  0  0
  149.3027  140.5255  156.3660 H   0  0  0  0  0  0  0  0  0  0  0  0
  149.1709  141.4932  154.9203 H   0  0  0  0  0  0  0  0  0  0  0  0
  151.4663  140.9013  154.2356 H   0  0  0  0  0  0  0  0  0  0  0  0
  149.7231  138.5132  154.9043 H   0  0  0  0  0  0  0  0  0  0  0  0
  149.7783  139.3700  153.3756 H   0  0  0  0  0  0  0  0  0  0  0  0
  151.2324  137.1120  153.6779 H   0  0  0  0  0  0  0  0  0  0  0  0
  151.9835  138.5031  152.8771 H   0  0  0  0  0  0  0  0  0  0  0  0
  152.8225  140.4976  156.1500 H   0  0  0  0  0  0  0  0  0  0  0  0
  151.6147  139.4325  156.8850 H   0  0  0  0  0  0  0  0  0  0  0  0
  1  2  1  0  0  0  0
  1 21  1  0  0  0  0
  1 22  1  0  0  0  0
  1 23  1  0  0  0  0
  2  8  1  0  0  0  0
  2  3  2  0  0  0  0
  3  4  1  0  0  0  0
  4  5  1  0  0  0  0
  4  6  1  0  0  0  0
  5 24  1  0  0  0  0
  5 25  1  0  0  0  0
  5 26  1  0  0  0  0
  6  7  1  0  0  0  0
  6  8  2  0  0  0  0
  7 27  1  0  0  0  0
  7 28  1  0  0  0  0
  7 29  1  0  0  0  0
  8  9  1  0  0  0  0
  9 10  1  0  0  0  0
  9 30  1  0  0  0  0
  9 31  1  0  0  0  0
 10 11  2  0  0  0  0
 10 12  1  0  0  0  0
 12 13  1  0  0  0  0
 12 32  1  0  0  0  0
 13 14  1  0  0  0  0
 13 33  1  0  0  0  0
 13 34  1  0  0  0  0
 14 20  1  0  0  0  0
 14 15  1  0  0  0  0
 14 35  1  0  0  0  0
 15 16  1  0  0  0  0
 15 36  1  0  0  0  0
 15 37  1  0  0  0  0
 16 17  1  0  0  0  0
 16 38  1  0  0  0  0
 16 39  1  0  0  0  0
 17 18  2  0  0  0  0
 17 19  2  0  0  0  0
 17 20  1  0  0  0  0
 20 40  1  0  0  0  0
 20 41  1  0  0  0  0
M  END
> <s_m_source_file>
AV-unprocessed.smi

> <i_m_source_file_index>
559

> <i_lp_mmshare_version>
43012

> <i_f3d_flags>
0

> <s_epik_input>
W0NIM11jMW5uKFtDSDNdKWMoW0NIM10pYzFbQ0gyXUMoPU8pW05IXVtDSDJdW0NAQEhdKFtDSDJdMilbQ0gyXVtDSDJdUzIoPU8pPU8=

> <s_epik_cmdline>
J2VwaWtfcHl0aG9uJywgJy1waCcsICc3LjAnLCAnLXRuJywgJzgnLCAnLW1hJywgJzIwMCcsICctbWV0YWxfYmluZGluZycsICctaW1hZScsICc8aW5maWxlLm1hZT4nLCAnLW9tYWUnLCAnPG91dGZpbGUubWFlPic=

> <r_lp_tautomer_probability>
1

> <r_epik_Ionization_Penalty>
0.00301269

> <r_epik_Ionization_Penalty_Charging>
0

> <r_epik_Ionization_Penalty_Neutral>
0.00301269

> <r_epik_State_Penalty>
0.00211587

> <r_epik_Charging_Adjusted_Penalty>
0.00211587

> <i_epik_Tot_Q>
0

> <i_epik_Tot_abs_Q>
0

> <r_epik_Metal_State_Penalty>
-0

> <b_epik_Metal_Only>
0

> <s_lp_Force_Field>
OPLS_2005

> <r_lp_Energy>
-3.01738

> <b_lp_Chiralities_Consistent>
1

> <s_lp_Variant>
AV-unprocessed.smi:559-1

> <Gold.Version>
5.8.1

> <Gold.Id.Protein>
6NUR|6NUR_protein|mol2

> <Gold.PLP.Fitness>
52.2984

> <Gold.PLP.PLP>
-47.7540

> <Gold.PLP.part.hbond>
-3.0891

> <Gold.PLP.part.metal>
0.0000

> <Gold.PLP.part.buried>
-0.2558

> <Gold.PLP.part.nonpolar>
-44.3567

> <Gold.PLP.part.repulsive>
0.2452

> <Gold.PLP.ligand.clash>
0.0000

> <Gold.PLP.ligand.torsion>
0.2602

> <Gold.PLP.Chemscore.Hbond>
1.6830

> <Gold.PLP.Chemscore.CHOScore>
0.0000

> <Gold.PLP.Chemscore.Metal>
0.0000

> <Gold.Chemscore.Hbonds>
donor molecule, donor type, donor heavy atom, donor atom, acceptor molecule, acceptor atom, score
      L1  H    12    32       P1  8028  0.12
      P1  H  7997  8010       L1    19  0.85
      P1  H 10752 10764       L1    18  0.75

> <Gold.PLP.Chemscore.Internal.Correction>
0.0158

> <Gold.Rescore>
     Score         DG    S(hbond)    S(metal)    S(lipo)     H(rot)  DE(clash)    DE(int)     intcor
     16.09     -21.17       2.31        0.00     104.08       1.64       1.12       3.96       ----

> <Gold.Chemscore.Fitness>
16.0854

> <Gold.Chemscore.DG>
-21.1653

> <Gold.Chemscore.ZeroCoef>
-5.4800

> <Gold.Chemscore.Hbond>
2.3069

> <Gold.Chemscore.Metal>
0.0000

> <Gold.Chemscore.Lipo>
104.0812

> <Gold.Chemscore.Internal_Hbond>
0.0000

> <Gold.Chemscore.DEClash>
1.1228

> <Gold.Chemscore.DEInternal>
3.9570

> <Gold.Chemscore.Rot>
1.6396

> <Gold.Chemscore.Internal.Correction>
   9.000000E+99

> <Gold.Chemscore.Hbonds>
donor molecule, donor type, donor heavy atom, donor atom, acceptor molecule, acceptor atom, score
      L1  H    12    32       P1  8028  0.13
      P1  H  7997  8010       L1    19  0.37
      P1  H 10752 10764       L1    18  0.54

> <Gold.Chemscore.Hbond.Weighted>
-7.7052

> <Gold.Chemscore.Metal.Weighted>
-0.0000

> <Gold.Chemscore.Lipo.Weighted>
-12.1775

> <Gold.Chemscore.Internal_Hbond.Weighted>
0.0000

> <Gold.Chemscore.DEClash.Weighted>
1.1228

> <Gold.Chemscore.DEInternal.Weighted>
3.9570

> <Gold.Chemscore.Rot.Weighted>
4.1974

> <Gold.Chemscore.Internal.Correction.Weighted>
   9.000000E+99

> <Gold.Protein.RotatedTorsions>
[ 6907 6896 6895 6894 ] final -119.55 input  -60.11 | X-H torsion
[ 7974 7965 7964 7962 ] final  -76.35 input  175.53 | X-H torsion
[ 8008 7997 7996 7995 ] final  123.84 input   59.86 | X-H torsion
[ 10167 10162 10161 10158 ] final  172.39 input  -65.29 | X-H torsion
[ 10718 10713 10712 10709 ] final   23.11 input   66.30 | X-H torsion
[ 10763 10752 10751 10750 ] final  -23.24 input  -60.55 | X-H torsion
[ 11005 11000 10999 10996 ] final  -23.70 input  -57.11 | X-H torsion

> <Gold.Protein.ActiveResidues>
 VAL166  LYS551  ARG553  GLY616  TRP617  ASP618  TYR619  PRO620  LYS621  CYS622 
 ASP623  PHE694  ASN695  SER759  ASP760  ASP761  ALA762  ILE779  LEU786  VAL792 
 PHE793  MET794  SER795  GLU796  ALA797  LYS798  CYS799  TRP800  GLU811  SER814 

> <Gold.Protein.RotatedAtoms>
  150.8315  133.8083  159.3096 H   0  0  0  0  0  0  0  0  0  0  0  0  # atno 6907 bound_to 6896
  151.5811  135.1056  160.0027 H   0  0  0  0  0  0  0  0  0  0  0  0  # atno 6908 bound_to 6896
  152.4394  133.7378  159.6680 H   0  0  0  0  0  0  0  0  0  0  0  0  # atno 6909 bound_to 6896
  145.6141  140.9379  143.1173 H   0  0  0  0  0  0  0  0  0  0  0  0  # atno 7974 bound_to 7965
  156.2780  140.2753  156.1693 H   0  0  0  0  0  0  0  0  0  0  0  0  # atno 8008 bound_to 7997
  155.0672  140.0387  157.2614 H   0  0  0  0  0  0  0  0  0  0  0  0  # atno 8009 bound_to 7997
  154.7069  140.2660  155.6671 H   0  0  0  0  0  0  0  0  0  0  0  0  # atno 8010 bound_to 7997
  139.5075  144.3379  152.0047 H   0  0  0  0  0  0  0  0  0  0  0  0  # atno 10167 bound_to 10162
  157.1616  130.6719  149.6046 H   0  0  0  0  0  0  0  0  0  0  0  0  # atno 10718 bound_to 10713
  153.6647  135.6974  153.5166 H   0  0  0  0  0  0  0  0  0  0  0  0  # atno 10763 bound_to 10752
  153.2604  135.4246  155.0888 H   0  0  0  0  0  0  0  0  0  0  0  0  # atno 10764 bound_to 10752
  154.8443  135.3553  154.6191 H   0  0  0  0  0  0  0  0  0  0  0  0  # atno 10765 bound_to 10752
  140.8776  133.7676  156.0262 H   0  0  0  0  0  0  0  0  0  0  0  0  # atno 11005 bound_to 11000
  144.7258  139.7881  143.7365 LP  0  0  0  0  0  0  0  0  0  0  0  0  # atno 17320 bound_to 7965
  146.1482  139.4557  143.0066 LP  0  0  0  0  0  0  0  0  0  0  0  0  # atno 17321 bound_to 7965
  140.2817  144.3852  150.6117 LP  0  0  0  0  0  0  0  0  0  0  0  0  # atno 17342 bound_to 10162
  140.6013  143.2167  151.7067 LP  0  0  0  0  0  0  0  0  0  0  0  0  # atno 17343 bound_to 10162
  155.9753  130.4710  150.6449 LP  0  0  0  0  0  0  0  0  0  0  0  0  # atno 17370 bound_to 10713
  157.4127  131.0826  151.1205 LP  0  0  0  0  0  0  0  0  0  0  0  0  # atno 17371 bound_to 10713
  140.8499  134.2966  157.5279 LP  0  0  0  0  0  0  0  0  0  0  0  0  # atno 17394 bound_to 11000
  139.8717  134.9462  156.3932 LP  0  0  0  0  0  0  0  0  0  0  0  0  # atno 17395 bound_to 11000

$$$$
