AV-unprocessed.smi:3165|AV-procd|sdf|12090|dock7
  -GOLD-   2272017523D 1   1.00000     0.00000
 Structure written by MMmdl.
 37 38  0  0  0  0  0  0  0  0  1 V2000
  148.9827  140.9973  157.5485 C   0  0  0  0  0  0  0  0  0  0  0  0
  150.3639  141.6660  157.3893 C   0  0  1  0  0  0  0  0  0  0  0  0
  150.9651  141.4526  155.9850 C   0  0  0  0  0  0  0  0  0  0  0  0
  151.2592  140.0594  155.6998 N   0  0  0  0  0  0  0  0  0  0  0  0
  151.7949  139.1105  156.5448 C   0  0  0  0  0  0  0  0  0  0  0  0
  151.8973  137.9474  155.8370 C   0  0  0  0  0  0  0  0  0  0  0  0
  151.3964  138.2899  154.5500 C   0  0  0  0  0  0  0  0  0  0  0  0
  151.0177  139.5552  154.4700 N   0  0  0  0  0  0  0  0  0  0  0  0
  150.3104  143.1033  157.6703 N   0  0  0  0  0  0  0  0  0  0  0  0
  151.6022  143.7898  157.7217 C   0  0  0  0  0  0  0  0  0  0  0  0
  152.2745  143.6369  159.0967 C   0  0  2  0  0  0  0  0  0  0  0  0
  152.6431  142.1806  159.4515 C   0  0  0  0  0  0  0  0  0  0  0  0
  153.2661  142.1116  160.8498 C   0  0  0  0  0  0  0  0  0  0  0  0
  152.3431  142.8031  161.8593 C   0  0  0  0  0  0  0  0  0  0  0  0
  152.0076  144.2285  161.3909 C   0  0  0  0  0  0  0  0  0  0  0  0
  151.4195  144.1939  160.0936 O   0  0  0  0  0  0  0  0  0  0  0  0
  149.0276  139.9312  157.3269 H   0  0  0  0  0  0  0  0  0  0  0  0
  148.2485  141.4427  156.8763 H   0  0  0  0  0  0  0  0  0  0  0  0
  148.6019  141.0825  158.5657 H   0  0  0  0  0  0  0  0  0  0  0  0
  151.0417  141.1997  158.1054 H   0  0  0  0  0  0  0  0  0  0  0  0
  150.2884  141.8386  155.2199 H   0  0  0  0  0  0  0  0  0  0  0  0
  151.8954  142.0140  155.8867 H   0  0  0  0  0  0  0  0  0  0  0  0
  152.0542  139.3400  157.5678 H   0  0  0  0  0  0  0  0  0  0  0  0
  152.2741  136.9974  156.1853 H   0  0  0  0  0  0  0  0  0  0  0  0
  151.2989  137.6615  153.6772 H   0  0  0  0  0  0  0  0  0  0  0  0
  149.7161  143.5611  156.9862 H   0  0  0  0  0  0  0  0  0  0  0  0
  152.2723  143.3967  156.9576 H   0  0  0  0  0  0  0  0  0  0  0  0
  151.4692  144.8506  157.5066 H   0  0  0  0  0  0  0  0  0  0  0  0
  153.1906  144.2298  159.0748 H   0  0  0  0  0  0  0  0  0  0  0  0
  151.7544  141.5493  159.4277 H   0  0  0  0  0  0  0  0  0  0  0  0
  153.3341  141.7741  158.7124 H   0  0  0  0  0  0  0  0  0  0  0  0
  153.4382  141.0744  161.1388 H   0  0  0  0  0  0  0  0  0  0  0  0
  154.2399  142.6024  160.8440 H   0  0  0  0  0  0  0  0  0  0  0  0
  151.4219  142.2294  161.9665 H   0  0  0  0  0  0  0  0  0  0  0  0
  152.8122  142.8291  162.8431 H   0  0  0  0  0  0  0  0  0  0  0  0
  151.3048  144.6933  162.0827 H   0  0  0  0  0  0  0  0  0  0  0  0
  152.9015  144.8538  161.3791 H   0  0  0  0  0  0  0  0  0  0  0  0
  1  2  1  0  0  0  0
  1 17  1  0  0  0  0
  1 18  1  0  0  0  0
  1 19  1  0  0  0  0
  2  3  1  0  0  0  0
  2  9  1  0  0  0  0
  2 20  1  0  0  0  0
  3  4  1  0  0  0  0
  3 21  1  0  0  0  0
  3 22  1  0  0  0  0
  4  8  1  0  0  0  0
  4  5  1  0  0  0  0
  5  6  2  0  0  0  0
  5 23  1  0  0  0  0
  6  7  1  0  0  0  0
  6 24  1  0  0  0  0
  7  8  2  0  0  0  0
  7 25  1  0  0  0  0
  9 10  1  0  0  0  0
  9 26  1  0  0  0  0
 10 11  1  0  0  0  0
 10 27  1  0  0  0  0
 10 28  1  0  0  0  0
 11 16  1  0  0  0  0
 11 12  1  0  0  0  0
 11 29  1  0  0  0  0
 12 13  1  0  0  0  0
 12 30  1  0  0  0  0
 12 31  1  0  0  0  0
 13 14  1  0  0  0  0
 13 32  1  0  0  0  0
 13 33  1  0  0  0  0
 14 15  1  0  0  0  0
 14 34  1  0  0  0  0
 14 35  1  0  0  0  0
 15 16  1  0  0  0  0
 15 36  1  0  0  0  0
 15 37  1  0  0  0  0
M  END
> <s_m_source_file>
AV-unprocessed.smi

> <i_m_source_file_index>
3165

> <i_lp_mmshare_version>
43012

> <i_f3d_flags>
0

> <s_epik_input>
bjFbY0hdW2NIXVtjSF1uMVtDSDJdW0NAQEhdKFtDSDNdKVtOSF1bQ0gyXVtDQEBIXTJbQ0gyXVtDSDJdW0NIMl1bQ0gyXU8y

> <s_epik_cmdline>
J2VwaWtfcHl0aG9uJywgJy1waCcsICc3LjAnLCAnLXRuJywgJzgnLCAnLW1hJywgJzIwMCcsICctbWV0YWxfYmluZGluZycsICctaW1hZScsICc8aW5maWxlLm1hZT4nLCAnLW9tYWUnLCAnPG91dGZpbGUubWFlPic=

> <r_lp_tautomer_probability>
1

> <r_epik_Ionization_Penalty>
2.51982

> <r_epik_Ionization_Penalty_Charging>
0

> <r_epik_Ionization_Penalty_Neutral>
2.51982

> <r_epik_State_Penalty>
2.68614

> <r_epik_Charging_Adjusted_Penalty>
2.68614

> <i_epik_Tot_Q>
0

> <i_epik_Tot_abs_Q>
0

> <r_epik_Metal_State_Penalty>
2.6861

> <b_epik_Metal_Only>
0

> <s_lp_Force_Field>
OPLS_2005

> <r_lp_Energy>
15.9673

> <b_lp_Chiralities_Consistent>
1

> <s_lp_Variant>
AV-unprocessed.smi:3165-6

> <Gold.Version>
5.8.1

> <Gold.Id.Protein>
6NUR|6NUR_protein|mol2

> <Gold.PLP.Fitness>
48.4080

> <Gold.PLP.PLP>
-41.4580

> <Gold.PLP.part.hbond>
-2.0000

> <Gold.PLP.part.metal>
0.0000

> <Gold.PLP.part.buried>
-4.8099

> <Gold.PLP.part.nonpolar>
-34.0091

> <Gold.PLP.part.repulsive>
0.1960

> <Gold.PLP.ligand.clash>
0.0000

> <Gold.PLP.ligand.torsion>
0.4525

> <Gold.PLP.Chemscore.Hbond>
1.9000

> <Gold.PLP.Chemscore.CHOScore>
0.7061

> <Gold.PLP.Chemscore.Metal>
0.0000

> <Gold.Chemscore.Hbonds>
donor molecule, donor type, donor heavy atom, donor atom, acceptor molecule, acceptor atom, score
      L1  H     9    26       P1  8028  1.00
      P1  H  7989  7998       L1     8  1.00
      L1  C     7    25       P1  7949  0.44

> <Gold.PLP.Chemscore.Internal.Correction>
0.0367

> <Gold.Rescore>
     Score         DG    S(hbond)    S(metal)    S(lipo)     H(rot)  DE(clash)    DE(int)     intcor
     18.96     -19.61       1.75        0.00     105.39       1.57       0.11       0.54       ----

> <Gold.Chemscore.Fitness>
18.9619

> <Gold.Chemscore.DG>
-19.6149

> <Gold.Chemscore.ZeroCoef>
-5.4800

> <Gold.Chemscore.Hbond>
1.7459

> <Gold.Chemscore.Metal>
0.0000

> <Gold.Chemscore.Lipo>
105.3931

> <Gold.Chemscore.Internal_Hbond>
0.0000

> <Gold.Chemscore.DEClash>
0.1144

> <Gold.Chemscore.DEInternal>
0.5386

> <Gold.Chemscore.Rot>
1.5731

> <Gold.Chemscore.Internal.Correction>
   9.000000E+99

> <Gold.Chemscore.Hbonds>
donor molecule, donor type, donor heavy atom, donor atom, acceptor molecule, acceptor atom, score
      L1  H     9    26       P1  8028  0.97
      P1  H  7989  7998       L1     8  0.26

> <Gold.Chemscore.Hbond.Weighted>
-5.8312

> <Gold.Chemscore.Metal.Weighted>
-0.0000

> <Gold.Chemscore.Lipo.Weighted>
-12.3310

> <Gold.Chemscore.Internal_Hbond.Weighted>
0.0000

> <Gold.Chemscore.DEClash.Weighted>
0.1144

> <Gold.Chemscore.DEInternal.Weighted>
0.5386

> <Gold.Chemscore.Rot.Weighted>
4.0273

> <Gold.Chemscore.Internal.Correction.Weighted>
   9.000000E+99

> <Gold.Protein.RotatedTorsions>
[ 6907 6896 6895 6894 ] final  -27.20 input  -60.11 | X-H torsion
[ 7974 7965 7964 7962 ] final -119.02 input  175.53 | X-H torsion
[ 8008 7997 7996 7995 ] final -102.68 input   59.86 | X-H torsion
[ 10167 10162 10161 10158 ] final -179.88 input  -65.29 | X-H torsion
[ 10718 10713 10712 10709 ] final -134.68 input   66.30 | X-H torsion
[ 10763 10752 10751 10750 ] final   92.19 input  -60.55 | X-H torsion
[ 11005 11000 10999 10996 ] final  121.01 input  -57.11 | X-H torsion

> <Gold.Protein.ActiveResidues>
 VAL166  LYS551  ARG553  GLY616  TRP617  ASP618  TYR619  PRO620  LYS621  CYS622 
 ASP623  PHE694  ASN695  SER759  ASP760  ASP761  ALA762  ILE779  LEU786  VAL792 
 PHE793  MET794  SER795  GLU796  ALA797  LYS798  CYS799  TRP800  GLU811  SER814 

> <Gold.Protein.RotatedAtoms>
  151.1503  135.0224  159.8664 H   0  0  0  0  0  0  0  0  0  0  0  0  # atno 6907 bound_to 6896
  152.5453  134.1397  159.8483 H   0  0  0  0  0  0  0  0  0  0  0  0  # atno 6908 bound_to 6896
  151.1481  133.4880  159.2628 H   0  0  0  0  0  0  0  0  0  0  0  0  # atno 6909 bound_to 6896
  145.0672  140.8333  143.4117 H   0  0  0  0  0  0  0  0  0  0  0  0  # atno 7974 bound_to 7965
  154.8600  140.0427  157.1659 H   0  0  0  0  0  0  0  0  0  0  0  0  # atno 8008 bound_to 7997
  154.8850  140.2978  155.5383 H   0  0  0  0  0  0  0  0  0  0  0  0  # atno 8009 bound_to 7997
  156.2998  140.2404  156.3858 H   0  0  0  0  0  0  0  0  0  0  0  0  # atno 8010 bound_to 7997
  139.5366  144.2479  152.0808 H   0  0  0  0  0  0  0  0  0  0  0  0  # atno 10167 bound_to 10162
  156.2581  130.7193  151.1117 H   0  0  0  0  0  0  0  0  0  0  0  0  # atno 10718 bound_to 10713
  153.2165  135.4370  155.0440 H   0  0  0  0  0  0  0  0  0  0  0  0  # atno 10763 bound_to 10752
  154.8228  135.3346  154.6991 H   0  0  0  0  0  0  0  0  0  0  0  0  # atno 10764 bound_to 10752
  153.7426  135.7004  153.5019 H   0  0  0  0  0  0  0  0  0  0  0  0  # atno 10765 bound_to 10752
  139.9208  134.9637  156.7894 H   0  0  0  0  0  0  0  0  0  0  0  0  # atno 11005 bound_to 11000
  145.1336  139.2616  143.5526 LP  0  0  0  0  0  0  0  0  0  0  0  0  # atno 17320 bound_to 7965
  146.3527  140.0994  142.8608 LP  0  0  0  0  0  0  0  0  0  0  0  0  # atno 17321 bound_to 7965
  140.1950  144.4714  150.6459 LP  0  0  0  0  0  0  0  0  0  0  0  0  # atno 17342 bound_to 10162
  140.6576  143.2242  151.5932 LP  0  0  0  0  0  0  0  0  0  0  0  0  # atno 17343 bound_to 10162
  157.7240  131.0662  150.6013 LP  0  0  0  0  0  0  0  0  0  0  0  0  # atno 17370 bound_to 10713
  156.6099  130.4377  149.5863 LP  0  0  0  0  0  0  0  0  0  0  0  0  # atno 17371 bound_to 10713
  140.6480  133.9758  155.7740 LP  0  0  0  0  0  0  0  0  0  0  0  0  # atno 17394 bound_to 11000
  141.0727  134.0181  157.3502 LP  0  0  0  0  0  0  0  0  0  0  0  0  # atno 17395 bound_to 11000

$$$$
