AV-unprocessed.smi:3077|AV-procd|sdf|11729|dock8
  -GOLD-   2272017123D 1   1.00000     0.00000
 Structure written by MMmdl.
 28 29  0  0  0  0  0  0  0  0  2 V2000
  152.1888  138.7820  156.5538 C   0  0  0  0  0  0  0  0  0  0  0  0
  151.9531  139.2286  155.2236 C   0  0  0  0  0  0  0  0  0  0  0  0
  151.2997  140.3786  155.1802 N   0  0  0  0  0  0  0  0  0  0  0  0
  151.1039  140.7061  156.4756 N   0  0  0  0  0  0  0  0  0  0  0  0
  150.3911  141.9257  156.8101 C   0  0  0  0  0  0  0  0  0  0  0  0
  151.2925  142.9964  157.4586 C   0  0  2  0  0  0  0  0  0  0  0  0
  152.2071  142.4280  158.5681 C   0  0  0  0  0  0  0  0  0  0  0  0
  153.0446  143.5351  159.2270 C   0  0  0  0  0  0  0  0  0  0  0  0
  152.1357  144.6627  159.7354 C   0  0  0  0  0  0  0  0  0  0  0  0
  151.2427  145.1927  158.6024 C   0  0  0  0  0  0  0  0  0  0  0  0
  150.4568  144.0945  157.9983 N   0  3  0  0  0  0  0  0  0  0  0  0
  151.6251  139.7552  157.3279 C   0  0  0  0  0  0  0  0  0  0  0  0
  152.6900  137.8853  156.8873 H   0  0  0  0  0  0  0  0  0  0  0  0
  152.2331  138.7538  154.2949 H   0  0  0  0  0  0  0  0  0  0  0  0
  149.9376  142.3140  155.8968 H   0  0  0  0  0  0  0  0  0  0  0  0
  149.5700  141.6690  157.4810 H   0  0  0  0  0  0  0  0  0  0  0  0
  151.9237  143.4276  156.6794 H   0  0  0  0  0  0  0  0  0  0  0  0
  151.6019  141.9287  159.3260 H   0  0  0  0  0  0  0  0  0  0  0  0
  152.8765  141.6698  158.1603 H   0  0  0  0  0  0  0  0  0  0  0  0
  153.6316  143.1247  160.0492 H   0  0  0  0  0  0  0  0  0  0  0  0
  153.7578  143.9353  158.5050 H   0  0  0  0  0  0  0  0  0  0  0  0
  151.5139  144.2931  160.5520 H   0  0  0  0  0  0  0  0  0  0  0  0
  152.7383  145.4729  160.1471 H   0  0  0  0  0  0  0  0  0  0  0  0
  150.5589  145.9516  158.9831 H   0  0  0  0  0  0  0  0  0  0  0  0
  151.8492  145.6680  157.8303 H   0  0  0  0  0  0  0  0  0  0  0  0
  149.8946  144.4726  157.2489 H   0  0  0  0  0  0  0  0  0  0  0  0
  151.5533  139.8482  158.4017 H   0  0  0  0  0  0  0  0  0  0  0  0
  149.8435  143.7131  158.7042 H   0  0  0  0  0  0  0  0  0  0  0  0
  1 12  2  0  0  0  0
  1  2  1  0  0  0  0
  1 13  1  0  0  0  0
  2  3  2  0  0  0  0
  2 14  1  0  0  0  0
  3  4  1  0  0  0  0
  4  5  1  0  0  0  0
  4 12  1  0  0  0  0
  5  6  1  0  0  0  0
  5 15  1  0  0  0  0
  5 16  1  0  0  0  0
  6 11  1  0  0  0  0
  6  7  1  0  0  0  0
  6 17  1  0  0  0  0
  7  8  1  0  0  0  0
  7 18  1  0  0  0  0
  7 19  1  0  0  0  0
  8  9  1  0  0  0  0
  8 20  1  0  0  0  0
  8 21  1  0  0  0  0
  9 10  1  0  0  0  0
  9 22  1  0  0  0  0
  9 23  1  0  0  0  0
 10 11  1  0  0  0  0
 10 24  1  0  0  0  0
 10 25  1  0  0  0  0
 11 26  1  0  0  0  0
 11 28  1  0  0  0  0
 12 27  1  0  0  0  0
M  CHG  1  11   1
M  END
> <s_m_source_file>
AV-unprocessed.smi

> <i_m_source_file_index>
3077

> <i_lp_mmshare_version>
43012

> <i_f3d_flags>
0

> <s_epik_input>
W2NIXTFbY0hdW2NIXW5uMVtDSDJdW0NAQEhdMltDSDJdW0NIMl1bQ0gyXVtDSDJdW05IXTI=

> <s_epik_cmdline>
J2VwaWtfcHl0aG9uJywgJy1waCcsICc3LjAnLCAnLXRuJywgJzgnLCAnLW1hJywgJzIwMCcsICctbWV0YWxfYmluZGluZycsICctaW1hZScsICc8aW5maWxlLm1hZT4nLCAnLW9tYWUnLCAnPG91dGZpbGUubWFlPic=

> <r_lp_tautomer_probability>
1

> <r_epik_Ionization_Penalty>
0.000655985

> <r_epik_Ionization_Penalty_Charging>
0.000651447

> <r_epik_Ionization_Penalty_Neutral>
4.5377e-06

> <r_epik_State_Penalty>
0.000412577

> <r_epik_Charging_Adjusted_Penalty>
0.00106402

> <i_epik_Tot_Q>
1

> <i_epik_Tot_abs_Q>
1

> <r_epik_Metal_State_Penalty>
-0

> <b_epik_Metal_Only>
0

> <s_lp_Force_Field>
OPLS_2005

> <r_lp_Energy>
13.5088

> <b_lp_Chiralities_Consistent>
1

> <s_lp_Variant>
AV-unprocessed.smi:3077-1

> <Gold.Version>
5.8.1

> <Gold.Id.Protein>
6NUR|6NUR_protein|mol2

> <Gold.PLP.Fitness>
39.3144

> <Gold.PLP.PLP>
-30.6546

> <Gold.PLP.part.hbond>
-2.3511

> <Gold.PLP.part.metal>
0.0000

> <Gold.PLP.part.buried>
-3.5766

> <Gold.PLP.part.nonpolar>
-24.8442

> <Gold.PLP.part.repulsive>
0.0811

> <Gold.PLP.ligand.clash>
0.0000

> <Gold.PLP.ligand.torsion>
0.1602

> <Gold.PLP.Chemscore.Hbond>
2.9920

> <Gold.PLP.Chemscore.CHOScore>
0.0000

> <Gold.PLP.Chemscore.Metal>
0.0000

> <Gold.Chemscore.Hbonds>
donor molecule, donor type, donor heavy atom, donor atom, acceptor molecule, acceptor atom, score
      L1  H    11    26       P1  8028  2.00
      P1  H  7989  7998       L1     3  0.99

> <Gold.PLP.Chemscore.Internal.Correction>
0.0041

> <Gold.Rescore>
     Score         DG    S(hbond)    S(metal)    S(lipo)     H(rot)  DE(clash)    DE(int)     intcor
     17.31     -18.27       1.81        0.00      83.64       1.19       0.02       0.93       ----

> <Gold.Chemscore.Fitness>
17.3108

> <Gold.Chemscore.DG>
-18.2656

> <Gold.Chemscore.ZeroCoef>
-5.4800

> <Gold.Chemscore.Hbond>
1.8098

> <Gold.Chemscore.Metal>
0.0000

> <Gold.Chemscore.Lipo>
83.6416

> <Gold.Chemscore.Internal_Hbond>
0.0000

> <Gold.Chemscore.DEClash>
0.0208

> <Gold.Chemscore.DEInternal>
0.9340

> <Gold.Chemscore.Rot>
1.1896

> <Gold.Chemscore.Internal.Correction>
   9.000000E+99

> <Gold.Chemscore.Hbonds>
donor molecule, donor type, donor heavy atom, donor atom, acceptor molecule, acceptor atom, score
      L1  H    11    26       P1  8028  0.30
      P1  H  7989  7998       L1     3  0.24

> <Gold.Chemscore.Hbond.Weighted>
-6.0449

> <Gold.Chemscore.Metal.Weighted>
-0.0000

> <Gold.Chemscore.Lipo.Weighted>
-9.7861

> <Gold.Chemscore.Internal_Hbond.Weighted>
0.0000

> <Gold.Chemscore.DEClash.Weighted>
0.0208

> <Gold.Chemscore.DEInternal.Weighted>
0.9340

> <Gold.Chemscore.Rot.Weighted>
3.0453

> <Gold.Chemscore.Internal.Correction.Weighted>
   9.000000E+99

> <Gold.Protein.RotatedTorsions>
[ 6907 6896 6895 6894 ] final  -43.70 input  -60.11 | X-H torsion
[ 7974 7965 7964 7962 ] final   84.04 input  175.53 | X-H torsion
[ 8008 7997 7996 7995 ] final  -55.67 input   59.86 | X-H torsion
[ 10167 10162 10161 10158 ] final  -82.39 input  -65.29 | X-H torsion
[ 10718 10713 10712 10709 ] final -129.00 input   66.30 | X-H torsion
[ 10763 10752 10751 10750 ] final  150.82 input  -60.55 | X-H torsion
[ 11005 11000 10999 10996 ] final   24.21 input  -57.11 | X-H torsion

> <Gold.Protein.ActiveResidues>
 VAL166  LYS551  ARG553  GLY616  TRP617  ASP618  TYR619  PRO620  LYS621  CYS622 
 ASP623  PHE694  ASN695  SER759  ASP760  ASP761  ALA762  ILE779  LEU786  VAL792 
 PHE793  MET794  SER795  GLU796  ALA797  LYS798  CYS799  TRP800  GLU811  SER814 

> <Gold.Protein.RotatedAtoms>
  150.9410  134.8819  159.7611 H   0  0  0  0  0  0  0  0  0  0  0  0  # atno 6907 bound_to 6896
  152.5080  134.3942  159.9404 H   0  0  0  0  0  0  0  0  0  0  0  0  # atno 6908 bound_to 6896
  151.3963  133.3732  159.2761 H   0  0  0  0  0  0  0  0  0  0  0  0  # atno 6909 bound_to 6896
  145.6040  139.2357  143.2230 H   0  0  0  0  0  0  0  0  0  0  0  0  # atno 7974 bound_to 7965
  154.4203  140.1147  156.5514 H   0  0  0  0  0  0  0  0  0  0  0  0  # atno 8008 bound_to 7997
  155.6406  140.3496  155.4694 H   0  0  0  0  0  0  0  0  0  0  0  0  # atno 8009 bound_to 7997
  155.9874  140.1172  157.0660 H   0  0  0  0  0  0  0  0  0  0  0  0  # atno 8010 bound_to 7997
  140.4324  143.2544  151.8741 H   0  0  0  0  0  0  0  0  0  0  0  0  # atno 10167 bound_to 10162
  156.2004  130.6854  151.0532 H   0  0  0  0  0  0  0  0  0  0  0  0  # atno 10718 bound_to 10713
  154.0937  135.2850  155.3266 H   0  0  0  0  0  0  0  0  0  0  0  0  # atno 10763 bound_to 10752
  154.6602  135.5337  153.8012 H   0  0  0  0  0  0  0  0  0  0  0  0  # atno 10764 bound_to 10752
  153.0404  135.6532  154.1105 H   0  0  0  0  0  0  0  0  0  0  0  0  # atno 10765 bound_to 10752
  140.3611  134.2124  155.7672 H   0  0  0  0  0  0  0  0  0  0  0  0  # atno 11005 bound_to 11000
  146.1555  140.6864  142.9302 LP  0  0  0  0  0  0  0  0  0  0  0  0  # atno 17320 bound_to 7965
  144.7298  140.4636  143.6946 LP  0  0  0  0  0  0  0  0  0  0  0  0  # atno 17321 bound_to 7965
  139.4785  144.5320  151.8653 LP  0  0  0  0  0  0  0  0  0  0  0  0  # atno 17342 bound_to 10162
  140.4412  144.1984  150.5891 LP  0  0  0  0  0  0  0  0  0  0  0  0  # atno 17343 bound_to 10162
  157.6982  131.0786  150.6902 LP  0  0  0  0  0  0  0  0  0  0  0  0  # atno 17370 bound_to 10713
  156.6960  130.4609  149.5586 LP  0  0  0  0  0  0  0  0  0  0  0  0  # atno 17371 bound_to 10713
  141.1983  133.8037  157.0586 LP  0  0  0  0  0  0  0  0  0  0  0  0  # atno 17394 bound_to 11000
  140.0626  134.9747  157.1330 LP  0  0  0  0  0  0  0  0  0  0  0  0  # atno 17395 bound_to 11000

$$$$
