AV-unprocessed.smi:2908|AV-procd|sdf|11169|dock10
  -GOLD-   2272016 63D 1   1.00000     0.00000
 Structure written by MMmdl.
 44 45  0  0  0  0  0  0  0  0  2 V2000
  150.0111  141.5052  153.5415 O   0  0  0  0  0  0  0  0  0  0  0  0
  149.3191  141.5162  154.5609 C   0  0  0  0  0  0  0  0  0  0  0  0
  149.8536  141.3916  155.7886 N   0  0  0  0  0  0  0  0  0  0  0  0
  151.2759  141.2520  156.0934 C   0  0  0  0  0  0  0  0  0  0  0  0
  151.5363  140.9592  157.5843 C   0  0  0  0  0  0  0  0  0  0  0  0
  151.7597  142.2054  158.4226 C   0  0  0  0  0  0  0  0  0  0  0  0
  152.1072  142.1411  159.7899 C   0  0  0  0  0  0  0  0  0  0  0  0
  152.3272  143.3387  160.5014 C   0  0  0  0  0  0  0  0  0  0  0  0
  152.1929  144.5733  159.8333 C   0  0  0  0  0  0  0  0  0  0  0  0
  151.8405  144.5791  158.4683 C   0  0  0  0  0  0  0  0  0  0  0  0
  151.6376  143.4108  157.8213 N   0  3  0  0  0  0  0  0  0  0  0  0
  147.9648  141.5901  154.5380 N   0  0  0  0  0  0  0  0  0  0  0  0
  147.0703  141.5151  155.7028 C   0  0  0  0  0  0  0  0  0  0  0  0
  146.5659  142.9319  156.0271 C   0  0  0  0  0  0  0  0  0  0  0  0
  145.8449  143.5829  154.8180 C   0  0  0  0  0  0  0  0  0  0  0  0
  145.4252  145.0453  155.1304 C   0  0  2  0  0  0  0  0  0  0  0  0
  144.7441  145.0612  156.3718 O   0  0  0  0  0  0  0  0  0  0  0  0
  144.5003  145.7165  154.0881 C   0  0  0  0  0  0  0  0  0  0  0  0
  144.0909  146.9005  154.5464 F   0  0  0  0  0  0  0  0  0  0  0  0
  145.1583  145.9447  152.9521 F   0  0  0  0  0  0  0  0  0  0  0  0
  143.4379  144.9537  153.8282 F   0  0  0  0  0  0  0  0  0  0  0  0
  146.7223  143.4533  153.5481 C   0  0  0  0  0  0  0  0  0  0  0  0
  147.2296  142.0142  153.3428 C   0  0  0  0  0  0  0  0  0  0  0  0
  149.2205  141.3953  156.5753 H   0  0  0  0  0  0  0  0  0  0  0  0
  151.7273  140.4771  155.4716 H   0  0  0  0  0  0  0  0  0  0  0  0
  151.7690  142.1841  155.8172 H   0  0  0  0  0  0  0  0  0  0  0  0
  150.6934  140.4057  157.9996 H   0  0  0  0  0  0  0  0  0  0  0  0
  152.4036  140.3052  157.6827 H   0  0  0  0  0  0  0  0  0  0  0  0
  152.2144  141.1875  160.2860 H   0  0  0  0  0  0  0  0  0  0  0  0
  152.5988  143.3106  161.5465 H   0  0  0  0  0  0  0  0  0  0  0  0
  152.3599  145.5018  160.3594 H   0  0  0  0  0  0  0  0  0  0  0  0
  151.7196  145.4757  157.8782 H   0  0  0  0  0  0  0  0  0  0  0  0
  146.2264  140.8650  155.4681 H   0  0  0  0  0  0  0  0  0  0  0  0
  147.5319  141.0783  156.5881 H   0  0  0  0  0  0  0  0  0  0  0  0
  145.8970  142.8817  156.8864 H   0  0  0  0  0  0  0  0  0  0  0  0
  147.4097  143.5527  156.3313 H   0  0  0  0  0  0  0  0  0  0  0  0
  144.9364  143.0067  154.6356 H   0  0  0  0  0  0  0  0  0  0  0  0
  146.3195  145.6591  155.2457 H   0  0  0  0  0  0  0  0  0  0  0  0
  143.9749  145.6032  156.2830 H   0  0  0  0  0  0  0  0  0  0  0  0
  146.1551  143.7436  152.6646 H   0  0  0  0  0  0  0  0  0  0  0  0
  147.5731  144.1331  153.6137 H   0  0  0  0  0  0  0  0  0  0  0  0
  147.8335  141.9561  152.4362 H   0  0  0  0  0  0  0  0  0  0  0  0
  146.3876  141.3404  153.1768 H   0  0  0  0  0  0  0  0  0  0  0  0
  151.3918  143.4391  156.8314 H   0  0  0  0  0  0  0  0  0  0  0  0
  1  2  2  0  0  0  0
  2  3  1  0  0  0  0
  2 12  1  0  0  0  0
  3  4  1  0  0  0  0
  3 24  1  0  0  0  0
  4  5  1  0  0  0  0
  4 25  1  0  0  0  0
  4 26  1  0  0  0  0
  5  6  1  0  0  0  0
  5 27  1  0  0  0  0
  5 28  1  0  0  0  0
  6 11  1  0  0  0  0
  6  7  2  0  0  0  0
  7  8  1  0  0  0  0
  7 29  1  0  0  0  0
  8  9  2  0  0  0  0
  8 30  1  0  0  0  0
  9 10  1  0  0  0  0
  9 31  1  0  0  0  0
 10 11  2  0  0  0  0
 10 32  1  0  0  0  0
 11 44  1  0  0  0  0
 12 23  1  0  0  0  0
 12 13  1  0  0  0  0
 13 14  1  0  0  0  0
 13 33  1  0  0  0  0
 13 34  1  0  0  0  0
 14 15  1  0  0  0  0
 14 35  1  0  0  0  0
 14 36  1  0  0  0  0
 15 16  1  0  0  0  0
 15 22  1  0  0  0  0
 15 37  1  0  0  0  0
 16 17  1  0  0  0  0
 16 18  1  0  0  0  0
 16 38  1  0  0  0  0
 17 39  1  0  0  0  0
 18 19  1  0  0  0  0
 18 20  1  0  0  0  0
 18 21  1  0  0  0  0
 22 23  1  0  0  0  0
 22 40  1  0  0  0  0
 22 41  1  0  0  0  0
 23 42  1  0  0  0  0
 23 43  1  0  0  0  0
M  CHG  1  11   1
M  END
> <s_m_source_file>
AV-unprocessed.smi

> <i_m_source_file_index>
2908

> <i_lp_mmshare_version>
43012

> <i_f3d_flags>
0

> <s_epik_input>
RkMoRikoRilbQ0BASF0oW09IXSlbQ0hdKFtDSDJdW0NIMl0xKVtDSDJdW0NIMl1OMUMoPU8pW05IXVtDSDJdW0NIMl1jMltjSF1bY0hdW2NIXVtjSF1uMg==

> <s_epik_cmdline>
J2VwaWtfcHl0aG9uJywgJy1waCcsICc3LjAnLCAnLXRuJywgJzgnLCAnLW1hJywgJzIwMCcsICctbWV0YWxfYmluZGluZycsICctaW1hZScsICc8aW5maWxlLm1hZT4nLCAnLW9tYWUnLCAnPG91dGZpbGUubWFlPic=

> <r_epik_Ionization_Penalty>
1.55054

> <r_epik_Ionization_Penalty_Charging>
1.55036

> <r_epik_Ionization_Penalty_Neutral>
0.00017404

> <r_epik_State_Penalty>
1.64453

> <r_epik_Charging_Adjusted_Penalty>
3.19489

> <i_epik_Tot_Q>
1

> <i_epik_Tot_abs_Q>
1

> <r_epik_Metal_State_Penalty>
1.68672

> <b_epik_Metal_Only>
0

> <s_lp_Force_Field>
OPLS_2005

> <r_lp_Energy>
42.7125

> <b_lp_Chiralities_Consistent>
1

> <s_lp_Variant>
AV-unprocessed.smi:2908-3

> <Gold.Version>
5.8.1

> <Gold.Id.Protein>
6NUR|6NUR_protein|mol2

> <Gold.PLP.Fitness>
50.1007

> <Gold.PLP.PLP>
-48.0311

> <Gold.PLP.part.hbond>
-2.0000

> <Gold.PLP.part.metal>
0.0000

> <Gold.PLP.part.buried>
-8.8968

> <Gold.PLP.part.nonpolar>
-38.7264

> <Gold.PLP.part.repulsive>
1.2339

> <Gold.PLP.ligand.clash>
0.0000

> <Gold.PLP.ligand.torsion>
0.4826

> <Gold.PLP.Chemscore.Hbond>
0.8575

> <Gold.PLP.Chemscore.CHOScore>
0.0000

> <Gold.PLP.Chemscore.Metal>
0.0000

> <Gold.Chemscore.Hbonds>
donor molecule, donor type, donor heavy atom, donor atom, acceptor molecule, acceptor atom, score
      P1  H  7989  7998       L1     1  0.02
      P1  H  8011  8017       L1     1  0.72

> <Gold.PLP.Chemscore.Internal.Correction>
0.4623

> <Gold.Rescore>
     Score         DG    S(hbond)    S(metal)    S(lipo)     H(rot)  DE(clash)    DE(int)     intcor
     12.67     -14.58       1.01        0.00     101.50       2.40       0.51       1.40       ----

> <Gold.Chemscore.Fitness>
12.6710

> <Gold.Chemscore.DG>
-14.5812

> <Gold.Chemscore.ZeroCoef>
-5.4800

> <Gold.Chemscore.Hbond>
1.0109

> <Gold.Chemscore.Metal>
0.0000

> <Gold.Chemscore.Lipo>
101.5004

> <Gold.Chemscore.Internal_Hbond>
0.0000

> <Gold.Chemscore.DEClash>
0.5112

> <Gold.Chemscore.DEInternal>
1.3990

> <Gold.Chemscore.Rot>
2.4026

> <Gold.Chemscore.Internal.Correction>
   9.000000E+99

> <Gold.Chemscore.Hbonds>
donor molecule, donor type, donor heavy atom, donor atom, acceptor molecule, acceptor atom, score
      P1  H  7989  7998       L1     1  0.07
      P1  H  8011  8017       L1     1  0.65

> <Gold.Chemscore.Hbond.Weighted>
-3.3764

> <Gold.Chemscore.Metal.Weighted>
-0.0000

> <Gold.Chemscore.Lipo.Weighted>
-11.8755

> <Gold.Chemscore.Internal_Hbond.Weighted>
0.0000

> <Gold.Chemscore.DEClash.Weighted>
0.5112

> <Gold.Chemscore.DEInternal.Weighted>
1.3990

> <Gold.Chemscore.Rot.Weighted>
6.1508

> <Gold.Chemscore.Internal.Correction.Weighted>
   9.000000E+99

> <Gold.Protein.RotatedTorsions>
[ 6907 6896 6895 6894 ] final -125.88 input  -60.11 | X-H torsion
[ 7974 7965 7964 7962 ] final -140.52 input  175.53 | X-H torsion
[ 8008 7997 7996 7995 ] final -135.65 input   59.86 | X-H torsion
[ 10167 10162 10161 10158 ] final   -2.08 input  -65.29 | X-H torsion
[ 10718 10713 10712 10709 ] final   46.62 input   66.30 | X-H torsion
[ 10763 10752 10751 10750 ] final -175.36 input  -60.55 | X-H torsion
[ 11005 11000 10999 10996 ] final -164.54 input  -57.11 | X-H torsion

> <Gold.Protein.ActiveResidues>
 VAL166  LYS551  ARG553  GLY616  TRP617  ASP618  TYR619  PRO620  LYS621  CYS622 
 ASP623  PHE694  ASN695  SER759  ASP760  ASP761  ALA762  ILE779  LEU786  VAL792 
 PHE793  MET794  SER795  GLU796  ALA797  LYS798  CYS799  TRP800  GLU811  SER814 

> <Gold.Protein.RotatedAtoms>
  150.8912  133.7240  159.2903 H   0  0  0  0  0  0  0  0  0  0  0  0  # atno 6907 bound_to 6896
  151.4790  135.1049  159.9782 H   0  0  0  0  0  0  0  0  0  0  0  0  # atno 6908 bound_to 6896
  152.4821  133.8234  159.7121 H   0  0  0  0  0  0  0  0  0  0  0  0  # atno 6909 bound_to 6896
  144.8591  140.6190  143.5340 H   0  0  0  0  0  0  0  0  0  0  0  0  # atno 7974 bound_to 7965
  155.3822  140.0495  157.3043 H   0  0  0  0  0  0  0  0  0  0  0  0  # atno 8008 bound_to 7997
  154.5077  140.2180  155.9181 H   0  0  0  0  0  0  0  0  0  0  0  0  # atno 8009 bound_to 7997
  156.1545  140.3129  155.8708 H   0  0  0  0  0  0  0  0  0  0  0  0  # atno 8010 bound_to 7997
  140.6836  143.6700  150.8193 H   0  0  0  0  0  0  0  0  0  0  0  0  # atno 10167 bound_to 10162
  157.4500  130.8133  149.7779 H   0  0  0  0  0  0  0  0  0  0  0  0  # atno 10718 bound_to 10713
  154.5853  135.2840  155.0691 H   0  0  0  0  0  0  0  0  0  0  0  0  # atno 10763 bound_to 10752
  154.2012  135.6424  153.5091 H   0  0  0  0  0  0  0  0  0  0  0  0  # atno 10764 bound_to 10752
  153.0102  135.5469  154.6520 H   0  0  0  0  0  0  0  0  0  0  0  0  # atno 10765 bound_to 10752
  140.5858  134.5095  157.5185 H   0  0  0  0  0  0  0  0  0  0  0  0  # atno 11005 bound_to 11000
  145.4348  139.1544  143.4002 LP  0  0  0  0  0  0  0  0  0  0  0  0  # atno 17320 bound_to 7965
  146.2846  140.4466  142.8763 LP  0  0  0  0  0  0  0  0  0  0  0  0  # atno 17321 bound_to 7965
  140.0404  143.5352  152.2720 LP  0  0  0  0  0  0  0  0  0  0  0  0  # atno 17342 bound_to 10162
  139.6177  144.7623  151.2809 LP  0  0  0  0  0  0  0  0  0  0  0  0  # atno 17343 bound_to 10162
  155.9983  130.3895  150.2706 LP  0  0  0  0  0  0  0  0  0  0  0  0  # atno 17370 bound_to 10713
  157.0877  131.0161  151.3133 LP  0  0  0  0  0  0  0  0  0  0  0  0  # atno 17371 bound_to 10713
  139.9296  134.7988  156.0967 LP  0  0  0  0  0  0  0  0  0  0  0  0  # atno 17394 bound_to 11000
  141.0967  133.6693  156.2661 LP  0  0  0  0  0  0  0  0  0  0  0  0  # atno 17395 bound_to 11000

$$$$
