AV-unprocessed.smi:2424|AV-procd|sdf|9566|dock4
  -GOLD-   2272013193D 1   1.00000     0.00000
 Structure written by MMmdl.
 50 51  0  0  0  0  0  0  0  0  1 V2000
  148.6641  139.0049  157.9883 C   0  0  0  0  0  0  0  0  0  0  0  0
  147.5142  138.8274  156.9815 C   0  0  0  0  0  0  0  0  0  0  0  0
  147.9249  138.2977  155.5848 C   0  0  0  0  0  0  0  0  0  0  0  0
  148.4979  136.8663  155.7545 C   0  0  0  0  0  0  0  0  0  0  0  0
  147.5128  135.8351  156.3307 C   0  0  0  0  0  0  0  0  0  0  0  0
  146.8293  138.4962  154.4960 C   0  0  2  0  0  0  0  0  0  0  0  0
  146.9066  137.5198  153.4065 N   0  0  0  0  0  0  0  0  0  0  0  0
  145.9657  136.6183  153.0988 C   0  0  0  0  0  0  0  0  0  0  0  0
  144.9009  136.5178  153.7064 O   0  0  0  0  0  0  0  0  0  0  0  0
  146.3627  135.8576  152.0628 N   0  0  0  0  0  0  0  0  0  0  0  0
  145.6929  134.8033  151.4276 C   0  0  0  0  0  0  0  0  0  0  0  0
  144.5890  135.1011  150.7206 C   0  0  0  0  0  0  0  0  0  0  0  0
  143.8600  134.1166  150.0500 N   0  0  0  0  0  0  0  0  0  0  0  0
  144.1814  132.8032  150.0462 C   0  0  0  0  0  0  0  0  0  0  0  0
  143.4923  131.9950  149.4265 O   0  0  0  0  0  0  0  0  0  0  0  0
  145.3802  132.4429  150.8206 C   0  0  0  0  0  0  0  0  0  0  0  0
  145.7868  130.9806  150.8656 C   0  0  0  0  0  0  0  0  0  0  0  0
  146.0857  133.3984  151.4697 C   0  0  0  0  0  0  0  0  0  0  0  0
  147.4838  139.8328  154.1085 C   0  0  2  0  0  0  0  0  0  0  0  0
  147.4893  140.3374  152.6667 C   0  0  0  0  0  0  0  0  0  0  0  0
  148.7747  139.3084  154.7587 C   0  0  2  0  0  0  0  0  0  0  0  0
  149.6169  138.7018  153.7849 O   0  0  0  0  0  0  0  0  0  0  0  0
  150.8358  138.2230  154.3273 C   0  0  0  0  0  0  0  0  0  0  0  0
  143.0457  134.4189  149.5354 H   0  0  0  0  0  0  0  0  0  0  0  0
  148.3089  139.5125  158.8852 H   0  0  0  0  0  0  0  0  0  0  0  0
  149.4760  139.6025  157.5751 H   0  0  0  0  0  0  0  0  0  0  0  0
  149.0766  138.0489  158.3084 H   0  0  0  0  0  0  0  0  0  0  0  0
  146.7459  138.1941  157.4237 H   0  0  0  0  0  0  0  0  0  0  0  0
  147.0297  139.7983  156.8790 H   0  0  0  0  0  0  0  0  0  0  0  0
  148.8379  136.4815  154.7934 H   0  0  0  0  0  0  0  0  0  0  0  0
  149.3985  136.8755  156.3663 H   0  0  0  0  0  0  0  0  0  0  0  0
  147.9455  134.8352  156.2980 H   0  0  0  0  0  0  0  0  0  0  0  0
  146.5817  135.8077  155.7650 H   0  0  0  0  0  0  0  0  0  0  0  0
  147.2690  136.0434  157.3719 H   0  0  0  0  0  0  0  0  0  0  0  0
  145.8297  138.6200  154.9166 H   0  0  0  0  0  0  0  0  0  0  0  0
  147.7495  137.5350  152.8510 H   0  0  0  0  0  0  0  0  0  0  0  0
  147.2786  136.0601  151.6895 H   0  0  0  0  0  0  0  0  0  0  0  0
  144.1871  136.0977  150.6078 H   0  0  0  0  0  0  0  0  0  0  0  0
  146.6786  130.8323  151.4752 H   0  0  0  0  0  0  0  0  0  0  0  0
  146.0006  130.6142  149.8610 H   0  0  0  0  0  0  0  0  0  0  0  0
  144.9852  130.3746  151.2892 H   0  0  0  0  0  0  0  0  0  0  0  0
  146.9500  133.0820  152.0296 H   0  0  0  0  0  0  0  0  0  0  0  0
  147.0685  140.6097  154.7523 H   0  0  0  0  0  0  0  0  0  0  0  0
  147.9371  139.6190  151.9803 H   0  0  0  0  0  0  0  0  0  0  0  0
  148.0540  141.2655  152.5794 H   0  0  0  0  0  0  0  0  0  0  0  0
  146.4755  140.5352  152.3181 H   0  0  0  0  0  0  0  0  0  0  0  0
  149.2777  140.0822  155.3409 H   0  0  0  0  0  0  0  0  0  0  0  0
  151.4152  137.7332  153.5450 H   0  0  0  0  0  0  0  0  0  0  0  0
  150.6660  137.4997  155.1249 H   0  0  0  0  0  0  0  0  0  0  0  0
  151.4346  139.0433  154.7245 H   0  0  0  0  0  0  0  0  0  0  0  0
  1  2  1  0  0  0  0
  1 25  1  0  0  0  0
  1 26  1  0  0  0  0
  1 27  1  0  0  0  0
  2  3  1  0  0  0  0
  2 28  1  0  0  0  0
  2 29  1  0  0  0  0
  3 21  1  0  0  0  0
  3  4  1  0  0  0  0
  3  6  1  0  0  0  0
  4  5  1  0  0  0  0
  4 30  1  0  0  0  0
  4 31  1  0  0  0  0
  5 32  1  0  0  0  0
  5 33  1  0  0  0  0
  5 34  1  0  0  0  0
  6  7  1  0  0  0  0
  6 19  1  0  0  0  0
  6 35  1  0  0  0  0
  7  8  1  0  0  0  0
  7 36  1  0  0  0  0
  8  9  2  0  0  0  0
  8 10  1  0  0  0  0
 10 11  1  0  0  0  0
 10 37  1  0  0  0  0
 11 18  1  0  0  0  0
 11 12  2  0  0  0  0
 12 13  1  0  0  0  0
 12 38  1  0  0  0  0
 13 24  1  0  0  0  0
 13 14  1  0  0  0  0
 14 15  2  0  0  0  0
 14 16  1  0  0  0  0
 16 17  1  0  0  0  0
 16 18  2  0  0  0  0
 17 39  1  0  0  0  0
 17 40  1  0  0  0  0
 17 41  1  0  0  0  0
 18 42  1  0  0  0  0
 19 20  1  0  0  0  0
 19 21  1  0  0  0  0
 19 43  1  0  0  0  0
 20 44  1  0  0  0  0
 20 45  1  0  0  0  0
 20 46  1  0  0  0  0
 21 22  1  0  0  0  0
 21 47  1  0  0  0  0
 22 23  1  0  0  0  0
 23 48  1  0  0  0  0
 23 49  1  0  0  0  0
 23 50  1  0  0  0  0
M  END
> <s_m_source_file>
AV-unprocessed.smi

> <i_m_source_file_index>
2424

> <i_lp_mmshare_version>
43012

> <i_f3d_flags>
0

> <s_epik_input>
W0NIM11PW0NAQEhdMVtDQEhdKFtDSDNdKVtDQEBIXShDMShbQ0gyXVtDSDNdKVtDSDJdW0NIM10pW05IXUMoPU8pW05IXWMyW2NIXVtuSF1jKD1PKWMoW0NIM10pW2NIXTI=

> <s_epik_cmdline>
J2VwaWtfcHl0aG9uJywgJy1waCcsICc3LjAnLCAnLXRuJywgJzgnLCAnLW1hJywgJzIwMCcsICctbWV0YWxfYmluZGluZycsICctaW1hZScsICc8aW5maWxlLm1hZT4nLCAnLW9tYWUnLCAnPG91dGZpbGUubWFlPic=

> <r_lp_tautomer_probability>
1

> <r_epik_Ionization_Penalty>
4.7326e-05

> <r_epik_Ionization_Penalty_Charging>
2.70169e-05

> <r_epik_Ionization_Penalty_Neutral>
2.0309e-05

> <r_epik_State_Penalty>
-0

> <r_epik_Charging_Adjusted_Penalty>
2.70169e-05

> <i_epik_Tot_Q>
0

> <i_epik_Tot_abs_Q>
0

> <r_epik_Metal_State_Penalty>
0.0198736

> <b_epik_Metal_Only>
0

> <s_lp_Force_Field>
OPLS_2005

> <r_lp_Energy>
37.0094

> <b_lp_Chiralities_Consistent>
1

> <s_lp_Variant>
AV-unprocessed.smi:2424-8

> <Gold.Version>
5.8.1

> <Gold.Id.Protein>
6NUR|6NUR_protein|mol2

> <Gold.PLP.Fitness>
40.3105

> <Gold.PLP.PLP>
-28.0199

> <Gold.PLP.part.hbond>
-4.0546

> <Gold.PLP.part.metal>
0.0000

> <Gold.PLP.part.buried>
-4.1052

> <Gold.PLP.part.nonpolar>
-22.5787

> <Gold.PLP.part.repulsive>
1.7551

> <Gold.PLP.ligand.clash>
0.0000

> <Gold.PLP.ligand.torsion>
1.0682

> <Gold.PLP.Chemscore.Hbond>
3.5753

> <Gold.PLP.Chemscore.CHOScore>
1.0000

> <Gold.PLP.Chemscore.Metal>
0.0000

> <Gold.Chemscore.Hbonds>
donor molecule, donor type, donor heavy atom, donor atom, acceptor molecule, acceptor atom, score
      L1  H     7    36       P1  7948  0.80
      L1  H    10    37       P1  7948  1.00
      L1  H    13    24       P1 10186  0.88
      P1  H 10785 10796       L1    15  1.00
      L1  C    12    38       P1 10171  0.78

> <Gold.PLP.Chemscore.Internal.Correction>
0.7012

> <Gold.Rescore>
     Score         DG    S(hbond)    S(metal)    S(lipo)     H(rot)  DE(clash)    DE(int)     intcor
     16.97     -21.57       3.56        0.00      69.78       1.55       2.52       2.09       ----

> <Gold.Chemscore.Fitness>
16.9660

> <Gold.Chemscore.DG>
-21.5736

> <Gold.Chemscore.ZeroCoef>
-5.4800

> <Gold.Chemscore.Hbond>
3.5622

> <Gold.Chemscore.Metal>
0.0000

> <Gold.Chemscore.Lipo>
69.7818

> <Gold.Chemscore.Internal_Hbond>
0.0000

> <Gold.Chemscore.DEClash>
2.5174

> <Gold.Chemscore.DEInternal>
2.0901

> <Gold.Chemscore.Rot>
1.5502

> <Gold.Chemscore.Internal.Correction>
   9.000000E+99

> <Gold.Chemscore.Hbonds>
donor molecule, donor type, donor heavy atom, donor atom, acceptor molecule, acceptor atom, score
      L1  H     7    36       P1  7948  0.74
      L1  H    10    37       P1  7948  0.97
      L1  H    13    24       P1 10186  0.80
      P1  H 10785 10796       L1    15  0.91

> <Gold.Chemscore.Hbond.Weighted>
-11.8976

> <Gold.Chemscore.Metal.Weighted>
-0.0000

> <Gold.Chemscore.Lipo.Weighted>
-8.1645

> <Gold.Chemscore.Internal_Hbond.Weighted>
0.0000

> <Gold.Chemscore.DEClash.Weighted>
2.5174

> <Gold.Chemscore.DEInternal.Weighted>
2.0901

> <Gold.Chemscore.Rot.Weighted>
3.9685

> <Gold.Chemscore.Internal.Correction.Weighted>
   9.000000E+99

> <Gold.Protein.RotatedTorsions>
[ 6907 6896 6895 6894 ] final  -43.54 input  -60.11 | X-H torsion
[ 7974 7965 7964 7962 ] final   11.40 input  175.53 | X-H torsion
[ 8008 7997 7996 7995 ] final  155.50 input   59.86 | X-H torsion
[ 10167 10162 10161 10158 ] final  -56.53 input  -65.29 | X-H torsion
[ 10718 10713 10712 10709 ] final -101.73 input   66.30 | X-H torsion
[ 10763 10752 10751 10750 ] final  112.60 input  -60.55 | X-H torsion
[ 11005 11000 10999 10996 ] final -163.26 input  -57.11 | X-H torsion

> <Gold.Protein.ActiveResidues>
 VAL166  LYS551  ARG553  GLY616  TRP617  ASP618  TYR619  PRO620  LYS621  CYS622 
 ASP623  PHE694  ASN695  SER759  ASP760  ASP761  ALA762  ILE779  LEU786  VAL792 
 PHE793  MET794  SER795  GLU796  ALA797  LYS798  CYS799  TRP800  GLU811  SER814 

> <Gold.Protein.RotatedAtoms>
  150.9428  134.8836  159.7622 H   0  0  0  0  0  0  0  0  0  0  0  0  # atno 6907 bound_to 6896
  152.5087  134.3917  159.9396 H   0  0  0  0  0  0  0  0  0  0  0  0  # atno 6908 bound_to 6896
  151.3937  133.3740  159.2759 H   0  0  0  0  0  0  0  0  0  0  0  0  # atno 6909 bound_to 6896
  146.2371  139.9490  142.8473 H   0  0  0  0  0  0  0  0  0  0  0  0  # atno 7974 bound_to 7965
  156.2475  140.1938  156.6810 H   0  0  0  0  0  0  0  0  0  0  0  0  # atno 8008 bound_to 7997
  154.6322  140.0594  156.9771 H   0  0  0  0  0  0  0  0  0  0  0  0  # atno 8009 bound_to 7997
  155.1693  140.3267  155.4398 H   0  0  0  0  0  0  0  0  0  0  0  0  # atno 8010 bound_to 7997
  140.6311  143.2460  151.5237 H   0  0  0  0  0  0  0  0  0  0  0  0  # atno 10167 bound_to 10162
  156.0204  130.5387  150.7006 H   0  0  0  0  0  0  0  0  0  0  0  0  # atno 10718 bound_to 10713
  153.4802  135.3681  155.2438 H   0  0  0  0  0  0  0  0  0  0  0  0  # atno 10763 bound_to 10752
  154.8755  135.3952  154.3709 H   0  0  0  0  0  0  0  0  0  0  0  0  # atno 10764 bound_to 10752
  153.4311  135.7082  153.6295 H   0  0  0  0  0  0  0  0  0  0  0  0  # atno 10765 bound_to 10752
  140.6001  134.4956  157.5204 H   0  0  0  0  0  0  0  0  0  0  0  0  # atno 11005 bound_to 11000
  145.1879  140.9798  143.4228 LP  0  0  0  0  0  0  0  0  0  0  0  0  # atno 17320 bound_to 7965
  144.9883  139.3714  143.6227 LP  0  0  0  0  0  0  0  0  0  0  0  0  # atno 17321 bound_to 7965
  139.5525  144.2358  152.1556 LP  0  0  0  0  0  0  0  0  0  0  0  0  # atno 17342 bound_to 10162
  140.1602  144.5033  150.6637 LP  0  0  0  0  0  0  0  0  0  0  0  0  # atno 17343 bound_to 10162
  157.4667  131.0889  151.0687 LP  0  0  0  0  0  0  0  0  0  0  0  0  # atno 17370 bound_to 10713
  157.1159  130.6041  149.5493 LP  0  0  0  0  0  0  0  0  0  0  0  0  # atno 17371 bound_to 10713
  139.9236  134.8099  156.1135 LP  0  0  0  0  0  0  0  0  0  0  0  0  # atno 17394 bound_to 11000
  141.0878  133.6727  156.2474 LP  0  0  0  0  0  0  0  0  0  0  0  0  # atno 17395 bound_to 11000

$$$$
