AV-unprocessed.smi:1830|AV-procd|sdf|7445|dock3
  -GOLD-   22720 9133D 1   1.00000     0.00000
 Structure written by MMmdl.
 54 57  0  0  0  0  0  0  0  0  3 V2000
  150.9232  134.8138  155.6227 O   0  0  0  0  0  0  0  0  0  0  0  0
  150.1870  135.2478  154.7371 C   0  0  0  0  0  0  0  0  0  0  0  0
  150.0953  136.5479  154.4240 N   0  0  0  0  0  0  0  0  0  0  0  0
  150.8366  137.6178  155.0838 C   0  0  0  0  0  0  0  0  0  0  0  0
  150.7152  138.9574  154.3228 C   0  0  1  0  0  0  0  0  0  0  0  0
  149.3082  139.5930  154.4391 C   0  0  0  0  0  0  0  0  0  0  0  0
  149.1546  140.1887  155.7795 N   0  3  2  0  0  0  0  0  0  0  0  0
  147.8786  140.8499  156.1037 C   0  0  0  0  0  0  0  0  0  0  0  0
  148.2244  141.8501  157.2248 C   0  0  0  0  0  0  0  0  0  0  0  0
  149.7568  141.8095  157.3626 C   0  0  0  0  0  0  0  0  0  0  0  0
  150.2047  141.1723  156.0509 C   0  0  1  0  0  0  0  0  0  0  0  0
  151.5674  140.4711  156.0199 C   0  0  0  0  0  0  0  0  0  0  0  0
  151.7338  139.8875  154.7245 O   0  0  0  0  0  0  0  0  0  0  0  0
  149.3931  134.4980  153.9549 N   0  0  0  0  0  0  0  0  0  0  0  0
  149.2488  133.0812  153.9588 C   0  0  0  0  0  0  0  0  0  0  0  0
  150.1417  132.2392  154.6701 C   0  0  0  0  0  0  0  0  0  0  0  0
  149.9349  130.8465  154.6775 C   0  0  0  0  0  0  0  0  0  0  0  0
  148.8331  130.3168  153.9831 C   0  0  0  0  0  0  0  0  0  0  0  0
  147.9933  131.1457  153.3288 N   0  3  0  0  0  0  0  0  0  0  0  0
  148.1414  132.4930  153.2879 C   0  0  0  0  0  0  0  0  0  0  0  0
  147.2133  133.2595  152.5510 N   0  0  0  0  0  0  0  0  0  0  0  0
  147.2226  132.9907  151.1151 C   0  0  0  0  0  0  0  0  0  0  0  0
  145.7705  133.0948  150.6441 C   0  0  0  0  0  0  0  0  0  0  0  0
  144.9749  132.7494  151.8968 C   0  0  0  0  0  0  0  0  0  0  0  0
  145.8276  133.3603  153.0070 C   0  0  0  0  0  0  0  0  0  0  0  0
  149.4677  136.8186  153.6808 H   0  0  0  0  0  0  0  0  0  0  0  0
  150.4739  137.7351  156.1065 H   0  0  0  0  0  0  0  0  0  0  0  0
  151.8777  137.3087  155.1720 H   0  0  0  0  0  0  0  0  0  0  0  0
  150.8877  138.7512  153.2660 H   0  0  0  0  0  0  0  0  0  0  0  0
  149.1853  140.3691  153.6822 H   0  0  0  0  0  0  0  0  0  0  0  0
  148.5283  138.8506  154.2657 H   0  0  0  0  0  0  0  0  0  0  0  0
  147.5006  141.3823  155.2293 H   0  0  0  0  0  0  0  0  0  0  0  0
  147.1275  140.1209  156.4093 H   0  0  0  0  0  0  0  0  0  0  0  0
  147.8854  142.8503  156.9524 H   0  0  0  0  0  0  0  0  0  0  0  0
  147.7416  141.5850  158.1661 H   0  0  0  0  0  0  0  0  0  0  0  0
  150.1944  142.7952  157.5245 H   0  0  0  0  0  0  0  0  0  0  0  0
  150.0357  141.1748  158.2049 H   0  0  0  0  0  0  0  0  0  0  0  0
  150.1787  141.9366  155.2710 H   0  0  0  0  0  0  0  0  0  0  0  0
  152.3689  141.1901  156.1899 H   0  0  0  0  0  0  0  0  0  0  0  0
  151.6469  139.7149  156.8011 H   0  0  0  0  0  0  0  0  0  0  0  0
  148.9144  134.9824  153.2096 H   0  0  0  0  0  0  0  0  0  0  0  0
  150.9751  132.6412  155.2261 H   0  0  0  0  0  0  0  0  0  0  0  0
  150.6097  130.1953  155.2141 H   0  0  0  0  0  0  0  0  0  0  0  0
  148.5961  129.2637  153.9347 H   0  0  0  0  0  0  0  0  0  0  0  0
  147.8608  133.6977  150.5846 H   0  0  0  0  0  0  0  0  0  0  0  0
  147.6043  131.9863  150.9238 H   0  0  0  0  0  0  0  0  0  0  0  0
  145.5516  134.1196  150.3408 H   0  0  0  0  0  0  0  0  0  0  0  0
  145.5494  132.4389  149.8016 H   0  0  0  0  0  0  0  0  0  0  0  0
  143.9568  133.1392  151.8789 H   0  0  0  0  0  0  0  0  0  0  0  0
  144.9234  131.6665  152.0183 H   0  0  0  0  0  0  0  0  0  0  0  0
  145.6282  132.8942  153.9717 H   0  0  0  0  0  0  0  0  0  0  0  0
  145.5918  134.4197  153.1146 H   0  0  0  0  0  0  0  0  0  0  0  0
  149.2726  139.4484  156.4564 H   0  0  0  0  0  0  0  0  0  0  0  0
  147.2027  130.7329  152.8334 H   0  0  0  0  0  0  0  0  0  0  0  0
  1  2  2  0  0  0  0
  2  3  1  0  0  0  0
  2 14  1  0  0  0  0
  3  4  1  0  0  0  0
  3 26  1  0  0  0  0
  4  5  1  0  0  0  0
  4 27  1  0  0  0  0
  4 28  1  0  0  0  0
  5 13  1  0  0  0  0
  5  6  1  0  0  0  0
  5 29  1  0  0  0  0
  6  7  1  0  0  0  0
  6 30  1  0  0  0  0
  6 31  1  0  0  0  0
  7 11  1  0  0  0  0
  7  8  1  0  0  0  0
  7 53  1  0  0  0  0
  8  9  1  0  0  0  0
  8 32  1  0  0  0  0
  8 33  1  0  0  0  0
  9 10  1  0  0  0  0
  9 34  1  0  0  0  0
  9 35  1  0  0  0  0
 10 11  1  0  0  0  0
 10 36  1  0  0  0  0
 10 37  1  0  0  0  0
 11 12  1  0  0  0  0
 11 38  1  0  0  0  0
 12 13  1  0  0  0  0
 12 39  1  0  0  0  0
 12 40  1  0  0  0  0
 14 15  1  0  0  0  0
 14 41  1  0  0  0  0
 15 20  1  0  0  0  0
 15 16  2  0  0  0  0
 16 17  1  0  0  0  0
 16 42  1  0  0  0  0
 17 18  2  0  0  0  0
 17 43  1  0  0  0  0
 18 19  1  0  0  0  0
 18 44  1  0  0  0  0
 19 20  2  0  0  0  0
 19 54  1  0  0  0  0
 20 21  1  0  0  0  0
 21 25  1  0  0  0  0
 21 22  1  0  0  0  0
 22 23  1  0  0  0  0
 22 45  1  0  0  0  0
 22 46  1  0  0  0  0
 23 24  1  0  0  0  0
 23 47  1  0  0  0  0
 23 48  1  0  0  0  0
 24 25  1  0  0  0  0
 24 49  1  0  0  0  0
 24 50  1  0  0  0  0
 25 51  1  0  0  0  0
 25 52  1  0  0  0  0
M  CHG  1   7   1
M  CHG  1  19   1
M  END
> <s_m_source_file>
AV-unprocessed.smi

> <i_m_source_file_index>
1830

> <i_lp_mmshare_version>
43012

> <i_f3d_flags>
0

> <s_epik_input>
W0NIMl0xW0NIMl1bQ0gyXVtDQEhdKE4xMilbQ0gyXU9bQ0BASF0oW0NIMl0yKVtDSDJdW05IXUMoPU8pW05IXWMzW2NIXVtjSF1bY0hdbmMzTjRbQ0gyXVtDSDJdW0NIMl1bQ0gyXTQ=

> <s_epik_cmdline>
J2VwaWtfcHl0aG9uJywgJy1waCcsICc3LjAnLCAnLXRuJywgJzgnLCAnLW1hJywgJzIwMCcsICctbWV0YWxfYmluZGluZycsICctaW1hZScsICc8aW5maWxlLm1hZT4nLCAnLW9tYWUnLCAnPG91dGZpbGUubWFlPic=

> <r_lp_tautomer_probability>
0.999994

> <r_epik_Ionization_Penalty>
1.29113

> <r_epik_Ionization_Penalty_Charging>
1.29111

> <r_epik_Ionization_Penalty_Neutral>
1.88144e-05

> <r_epik_State_Penalty>
1.32676

> <r_epik_Charging_Adjusted_Penalty>
2.61787

> <i_epik_Tot_Q>
2

> <i_epik_Tot_abs_Q>
2

> <r_epik_Metal_State_Penalty>
1.40425

> <b_epik_Metal_Only>
0

> <s_lp_Force_Field>
OPLS_2005

> <r_lp_Energy>
76.3722

> <b_lp_Chiralities_Consistent>
1

> <s_lp_Variant>
AV-unprocessed.smi:1830-14

> <Gold.Version>
5.8.1

> <Gold.Id.Protein>
6NUR|6NUR_protein|mol2

> <Gold.PLP.Fitness>
49.0851

> <Gold.PLP.PLP>
-40.5512

> <Gold.PLP.part.hbond>
-4.1875

> <Gold.PLP.part.metal>
0.0000

> <Gold.PLP.part.buried>
-3.2909

> <Gold.PLP.part.nonpolar>
-32.6678

> <Gold.PLP.part.repulsive>
0.3885

> <Gold.PLP.ligand.clash>
0.0000

> <Gold.PLP.ligand.torsion>
0.2713

> <Gold.PLP.Chemscore.Hbond>
2.9716

> <Gold.PLP.Chemscore.CHOScore>
0.0000

> <Gold.PLP.Chemscore.Metal>
0.0000

> <Gold.Chemscore.Hbonds>
donor molecule, donor type, donor heavy atom, donor atom, acceptor molecule, acceptor atom, score
      L1  H     3    26       P1  7948  0.77
      L1  H    14    41       P1  7948  0.96
      P1  H  7989  7998       L1    13  0.95
      P1  H 10752 10763       L1     1  0.23

> <Gold.PLP.Chemscore.Internal.Correction>
0.1616

> <Gold.Rescore>
     Score         DG    S(hbond)    S(metal)    S(lipo)     H(rot)  DE(clash)    DE(int)     intcor
     16.24     -17.91       1.96        0.00      81.60       1.43       0.03       1.64       ----

> <Gold.Chemscore.Fitness>
16.2396

> <Gold.Chemscore.DG>
-17.9079

> <Gold.Chemscore.ZeroCoef>
-5.4800

> <Gold.Chemscore.Hbond>
1.9568

> <Gold.Chemscore.Metal>
0.0000

> <Gold.Chemscore.Lipo>
81.6007

> <Gold.Chemscore.Internal_Hbond>
0.0000

> <Gold.Chemscore.DEClash>
0.0313

> <Gold.Chemscore.DEInternal>
1.6370

> <Gold.Chemscore.Rot>
1.4278

> <Gold.Chemscore.Internal.Correction>
   9.000000E+99

> <Gold.Chemscore.Hbonds>
donor molecule, donor type, donor heavy atom, donor atom, acceptor molecule, acceptor atom, score
      L1  H     3    26       P1  7948  0.66
      L1  H    14    41       P1  7948  0.24
      P1  H  7989  7998       L1    13  0.19
      P1  H 10752 10763       L1     1  0.09

> <Gold.Chemscore.Hbond.Weighted>
-6.5357

> <Gold.Chemscore.Metal.Weighted>
-0.0000

> <Gold.Chemscore.Lipo.Weighted>
-9.5473

> <Gold.Chemscore.Internal_Hbond.Weighted>
0.0000

> <Gold.Chemscore.DEClash.Weighted>
0.0313

> <Gold.Chemscore.DEInternal.Weighted>
1.6370

> <Gold.Chemscore.Rot.Weighted>
3.6551

> <Gold.Chemscore.Internal.Correction.Weighted>
   9.000000E+99

> <Gold.Protein.RotatedTorsions>
[ 6907 6896 6895 6894 ] final -173.49 input  -60.11 | X-H torsion
[ 7974 7965 7964 7962 ] final  146.58 input  175.53 | X-H torsion
[ 8008 7997 7996 7995 ] final -144.85 input   59.86 | X-H torsion
[ 10167 10162 10161 10158 ] final  -84.64 input  -65.29 | X-H torsion
[ 10718 10713 10712 10709 ] final  -71.53 input   66.30 | X-H torsion
[ 10763 10752 10751 10750 ] final   76.52 input  -60.55 | X-H torsion
[ 11005 11000 10999 10996 ] final   -2.05 input  -57.11 | X-H torsion

> <Gold.Protein.ActiveResidues>
 VAL166  LYS551  ARG553  GLY616  TRP617  ASP618  TYR619  PRO620  LYS621  CYS622 
 ASP623  PHE694  ASN695  SER759  ASP760  ASP761  ALA762  ILE779  LEU786  VAL792 
 PHE793  MET794  SER795  GLU796  ALA797  LYS798  CYS799  TRP800  GLU811  SER814 

> <Gold.Protein.RotatedAtoms>
  151.5569  133.3409  159.2963 H   0  0  0  0  0  0  0  0  0  0  0  0  # atno 6907 bound_to 6896
  150.8445  134.7752  159.6970 H   0  0  0  0  0  0  0  0  0  0  0  0  # atno 6908 bound_to 6896
  152.4506  134.5410  159.9890 H   0  0  0  0  0  0  0  0  0  0  0  0  # atno 6909 bound_to 6896
  144.8660  139.5922  143.5909 H   0  0  0  0  0  0  0  0  0  0  0  0  # atno 7974 bound_to 7965
  155.5337  140.0602  157.2884 H   0  0  0  0  0  0  0  0  0  0  0  0  # atno 8008 bound_to 7997
  154.4475  140.1931  156.0565 H   0  0  0  0  0  0  0  0  0  0  0  0  # atno 8009 bound_to 7997
  156.0634  140.3269  155.7492 H   0  0  0  0  0  0  0  0  0  0  0  0  # atno 8010 bound_to 7997
  140.4113  143.2621  151.9014 H   0  0  0  0  0  0  0  0  0  0  0  0  # atno 10167 bound_to 10162
  156.0359  130.4353  150.2457 H   0  0  0  0  0  0  0  0  0  0  0  0  # atno 10718 bound_to 10713
  153.0731  135.4948  154.8347 H   0  0  0  0  0  0  0  0  0  0  0  0  # atno 10763 bound_to 10752
  154.7050  135.3009  154.9286 H   0  0  0  0  0  0  0  0  0  0  0  0  # atno 10764 bound_to 10752
  153.9998  135.6768  153.4811 H   0  0  0  0  0  0  0  0  0  0  0  0  # atno 10765 bound_to 10752
  140.6541  133.9378  155.8397 H   0  0  0  0  0  0  0  0  0  0  0  0  # atno 11005 bound_to 11000
  146.2896  139.7101  142.9171 LP  0  0  0  0  0  0  0  0  0  0  0  0  # atno 17320 bound_to 7965
  145.4221  141.0407  143.2958 LP  0  0  0  0  0  0  0  0  0  0  0  0  # atno 17321 bound_to 7965
  139.4782  144.5534  151.8351 LP  0  0  0  0  0  0  0  0  0  0  0  0  # atno 17342 bound_to 10162
  140.4635  144.1688  150.5909 LP  0  0  0  0  0  0  0  0  0  0  0  0  # atno 17343 bound_to 10162
  157.0556  131.0075  151.3239 LP  0  0  0  0  0  0  0  0  0  0  0  0  # atno 17370 bound_to 10713
  157.5108  130.7937  149.7703 LP  0  0  0  0  0  0  0  0  0  0  0  0  # atno 17371 bound_to 10713
  141.0515  134.0478  157.3778 LP  0  0  0  0  0  0  0  0  0  0  0  0  # atno 17394 bound_to 11000
  139.9035  135.0172  156.7381 LP  0  0  0  0  0  0  0  0  0  0  0  0  # atno 17395 bound_to 11000

$$$$
