AV-unprocessed.smi:1679|AV-procd|sdf|6733|dock2
  -GOLD-   22720 7483D 1   1.00000     0.00000
 Structure written by MMmdl.
 44 45  0  0  0  0  0  0  0  0  2 V2000
  145.8355  134.6975  150.8681 C   0  0  0  0  0  0  0  0  0  0  0  0
  146.2663  133.2526  150.5691 C   0  0  2  0  0  0  0  0  0  0  0  0
  145.0943  132.4461  149.9731 C   0  0  0  0  0  0  0  0  0  0  0  0
  145.4959  130.9942  149.6697 C   0  0  0  0  0  0  0  0  0  0  0  0
  146.0424  130.3005  150.9247 C   0  0  0  0  0  0  0  0  0  0  0  0
  147.2163  131.0912  151.5174 C   0  0  0  0  0  0  0  0  0  0  0  0
  146.8275  132.5519  151.8268 C   0  0  1  0  0  0  0  0  0  0  0  0
  147.9971  133.2468  152.2360 O   0  0  0  0  0  0  0  0  0  0  0  0
  148.5775  132.7660  153.4398 C   0  0  0  0  0  0  0  0  0  0  0  0
  149.8895  133.5185  153.6798 C   0  0  0  0  0  0  0  0  0  0  0  0
  149.6007  134.9170  153.9600 N   0  0  0  0  0  0  0  0  0  0  0  0
  150.4154  135.7720  154.5959 C   0  0  0  0  0  0  0  0  0  0  0  0
  151.5219  135.4441  155.0232 O   0  0  0  0  0  0  0  0  0  0  0  0
  149.9366  137.2230  154.7791 C   0  0  0  0  0  0  0  0  0  0  0  0
  150.7132  138.0121  155.7542 N   0  0  0  0  0  0  0  0  0  0  0  0
  150.7567  137.5449  157.0799 C   0  0  0  0  0  0  0  0  0  0  0  0
  151.4484  138.1894  158.0388 C   0  0  0  0  0  0  0  0  0  0  0  0
  152.1639  139.4058  157.6743 C   0  0  0  0  0  0  0  0  0  0  0  0
  152.8051  140.0048  158.5354 O   0  0  0  0  0  0  0  0  0  0  0  0
  152.0898  139.8201  156.3756 N   0  5  0  0  0  0  0  0  0  0  0  0
  151.3912  139.1484  155.4084 C   0  0  0  0  0  0  0  0  0  0  0  0
  151.3564  139.5279  154.2379 O   0  0  0  0  0  0  0  0  0  0  0  0
  145.0490  134.7286  151.6226 H   0  0  0  0  0  0  0  0  0  0  0  0
  145.4562  135.1872  149.9709 H   0  0  0  0  0  0  0  0  0  0  0  0
  146.6721  135.2925  151.2354 H   0  0  0  0  0  0  0  0  0  0  0  0
  147.0593  133.2902  149.8203 H   0  0  0  0  0  0  0  0  0  0  0  0
  144.2533  132.4511  150.6678 H   0  0  0  0  0  0  0  0  0  0  0  0
  144.7408  132.9233  149.0582 H   0  0  0  0  0  0  0  0  0  0  0  0
  144.6386  130.4426  149.2835 H   0  0  0  0  0  0  0  0  0  0  0  0
  146.2536  130.9791  148.8849 H   0  0  0  0  0  0  0  0  0  0  0  0
  145.2507  130.2048  151.6687 H   0  0  0  0  0  0  0  0  0  0  0  0
  146.3641  129.2877  150.6794 H   0  0  0  0  0  0  0  0  0  0  0  0
  147.5796  130.5862  152.4122 H   0  0  0  0  0  0  0  0  0  0  0  0
  148.0437  131.0879  150.8081 H   0  0  0  0  0  0  0  0  0  0  0  0
  146.0702  132.5810  152.6132 H   0  0  0  0  0  0  0  0  0  0  0  0
  147.8802  132.9311  154.2617 H   0  0  0  0  0  0  0  0  0  0  0  0
  148.7767  131.6941  153.3986 H   0  0  0  0  0  0  0  0  0  0  0  0
  150.4382  133.0793  154.5139 H   0  0  0  0  0  0  0  0  0  0  0  0
  150.5240  133.4447  152.7954 H   0  0  0  0  0  0  0  0  0  0  0  0
  148.7024  135.2648  153.6549 H   0  0  0  0  0  0  0  0  0  0  0  0
  149.9344  137.7127  153.8040 H   0  0  0  0  0  0  0  0  0  0  0  0
  148.8886  137.1962  155.0809 H   0  0  0  0  0  0  0  0  0  0  0  0
  150.2048  136.6347  157.2634 H   0  0  0  0  0  0  0  0  0  0  0  0
  151.4752  137.8143  159.0513 H   0  0  0  0  0  0  0  0  0  0  0  0
  1  2  1  0  0  0  0
  1 23  1  0  0  0  0
  1 24  1  0  0  0  0
  1 25  1  0  0  0  0
  2  7  1  0  0  0  0
  2  3  1  0  0  0  0
  2 26  1  0  0  0  0
  3  4  1  0  0  0  0
  3 27  1  0  0  0  0
  3 28  1  0  0  0  0
  4  5  1  0  0  0  0
  4 29  1  0  0  0  0
  4 30  1  0  0  0  0
  5  6  1  0  0  0  0
  5 31  1  0  0  0  0
  5 32  1  0  0  0  0
  6  7  1  0  0  0  0
  6 33  1  0  0  0  0
  6 34  1  0  0  0  0
  7  8  1  0  0  0  0
  7 35  1  0  0  0  0
  8  9  1  0  0  0  0
  9 10  1  0  0  0  0
  9 36  1  0  0  0  0
  9 37  1  0  0  0  0
 10 11  1  0  0  0  0
 10 38  1  0  0  0  0
 10 39  1  0  0  0  0
 11 12  1  0  0  0  0
 11 40  1  0  0  0  0
 12 13  2  0  0  0  0
 12 14  1  0  0  0  0
 14 15  1  0  0  0  0
 14 41  1  0  0  0  0
 14 42  1  0  0  0  0
 15 21  1  0  0  0  0
 15 16  1  0  0  0  0
 16 17  2  0  0  0  0
 16 43  1  0  0  0  0
 17 18  1  0  0  0  0
 17 44  1  0  0  0  0
 18 19  2  0  0  0  0
 18 20  1  0  0  0  0
 20 21  1  0  0  0  0
 21 22  2  0  0  0  0
M  CHG  1  20  -1
M  END
> <s_m_source_file>
AV-unprocessed.smi

> <i_m_source_file_index>
1679

> <i_lp_mmshare_version>
43012

> <i_f3d_flags>
0

> <s_epik_input>
W0NIM11bQ0BASF0xW0NIMl1bQ0gyXVtDSDJdW0NIMl1bQ0BIXTFPW0NIMl1bQ0gyXVtOSF1DKD1PKVtDSDJdbjJbY0hdW2NIXWMoPU8pW25IXWMyPU8=

> <s_epik_cmdline>
J2VwaWtfcHl0aG9uJywgJy1waCcsICc3LjAnLCAnLXRuJywgJzgnLCAnLW1hJywgJzIwMCcsICctbWV0YWxfYmluZGluZycsICctaW1hZScsICc8aW5maWxlLm1hZT4nLCAnLW9tYWUnLCAnPG91dGZpbGUubWFlPic=

> <r_lp_tautomer_probability>
0.999537

> <r_epik_Ionization_Penalty>
3.07454

> <r_epik_Ionization_Penalty_Charging>
2.80088e-08

> <r_epik_Ionization_Penalty_Neutral>
3.07454

> <r_epik_State_Penalty>
3.07357

> <r_epik_Charging_Adjusted_Penalty>
3.07357

> <i_epik_Tot_Q>
-1

> <i_epik_Tot_abs_Q>
1

> <r_epik_Metal_State_Penalty>
0.45948

> <b_epik_Metal_Only>
1

> <s_lp_Force_Field>
OPLS_2005

> <r_lp_Energy>
18.3585

> <b_lp_Chiralities_Consistent>
1

> <s_lp_Variant>
AV-unprocessed.smi:1679-5

> <Gold.Version>
5.8.1

> <Gold.Id.Protein>
6NUR|6NUR_protein|mol2

> <Gold.PLP.Fitness>
46.9558

> <Gold.PLP.PLP>
-35.5381

> <Gold.PLP.part.hbond>
-4.0000

> <Gold.PLP.part.metal>
0.0000

> <Gold.PLP.part.buried>
-6.9561

> <Gold.PLP.part.nonpolar>
-25.9910

> <Gold.PLP.part.repulsive>
2.1196

> <Gold.PLP.ligand.clash>
0.0000

> <Gold.PLP.ligand.torsion>
0.3566

> <Gold.PLP.Chemscore.Hbond>
4.0156

> <Gold.PLP.Chemscore.CHOScore>
0.0000

> <Gold.PLP.Chemscore.Metal>
0.0000

> <Gold.Chemscore.Hbonds>
donor molecule, donor type, donor heavy atom, donor atom, acceptor molecule, acceptor atom, score
      L1  H    11    40       P1  7948  0.14
      P1  H  7989  7998       L1    22  1.00
      P1  H  7997  8008       L1    20  0.28
      P1  H 10752 10765       L1    13  0.86

> <Gold.PLP.Chemscore.Internal.Correction>
0.0841

> <Gold.Rescore>
     Score         DG    S(hbond)    S(metal)    S(lipo)     H(rot)  DE(clash)    DE(int)     intcor
     14.85     -16.50       2.62        0.00      72.95       2.45       0.27       1.38       ----

> <Gold.Chemscore.Fitness>
14.8492

> <Gold.Chemscore.DG>
-16.4978

> <Gold.Chemscore.ZeroCoef>
-5.4800

> <Gold.Chemscore.Hbond>
2.6202

> <Gold.Chemscore.Metal>
0.0000

> <Gold.Chemscore.Lipo>
72.9543

> <Gold.Chemscore.Internal_Hbond>
0.0000

> <Gold.Chemscore.DEClash>
0.2693

> <Gold.Chemscore.DEInternal>
1.3793

> <Gold.Chemscore.Rot>
2.4490

> <Gold.Chemscore.Internal.Correction>
   9.000000E+99

> <Gold.Chemscore.Hbonds>
donor molecule, donor type, donor heavy atom, donor atom, acceptor molecule, acceptor atom, score
      L1  H    11    40       P1  7948  0.12
      P1  H  7989  7998       L1    22  0.95
      P1  H 10752 10765       L1    13  0.81

> <Gold.Chemscore.Hbond.Weighted>
-8.7515

> <Gold.Chemscore.Metal.Weighted>
-0.0000

> <Gold.Chemscore.Lipo.Weighted>
-8.5357

> <Gold.Chemscore.Internal_Hbond.Weighted>
0.0000

> <Gold.Chemscore.DEClash.Weighted>
0.2693

> <Gold.Chemscore.DEInternal.Weighted>
1.3793

> <Gold.Chemscore.Rot.Weighted>
6.2694

> <Gold.Chemscore.Internal.Correction.Weighted>
   9.000000E+99

> <Gold.Protein.RotatedTorsions>
[ 6907 6896 6895 6894 ] final   -2.54 input  -60.11 | X-H torsion
[ 7974 7965 7964 7962 ] final  113.37 input  175.53 | X-H torsion
[ 8008 7997 7996 7995 ] final  -51.12 input   59.86 | X-H torsion
[ 10167 10162 10161 10158 ] final -149.04 input  -65.29 | X-H torsion
[ 10718 10713 10712 10709 ] final -168.99 input   66.30 | X-H torsion
[ 10763 10752 10751 10750 ] final -179.67 input  -60.55 | X-H torsion
[ 11005 11000 10999 10996 ] final   20.30 input  -57.11 | X-H torsion

> <Gold.Protein.ActiveResidues>
 VAL166  LYS551  ARG553  GLY616  TRP617  ASP618  TYR619  PRO620  LYS621  CYS622 
 ASP623  PHE694  ASN695  SER759  ASP760  ASP761  ALA762  ILE779  LEU786  VAL792 
 PHE793  MET794  SER795  GLU796  ALA797  LYS798  CYS799  TRP800  GLU811  SER814 

> <Gold.Protein.RotatedAtoms>
  151.5282  135.1068  159.9895 H   0  0  0  0  0  0  0  0  0  0  0  0  # atno 6907 bound_to 6896
  152.4590  133.7778  159.6845 H   0  0  0  0  0  0  0  0  0  0  0  0  # atno 6908 bound_to 6896
  150.8544  133.7672  159.3039 H   0  0  0  0  0  0  0  0  0  0  0  0  # atno 6909 bound_to 6896
  145.2178  139.2876  143.4234 H   0  0  0  0  0  0  0  0  0  0  0  0  # atno 7974 bound_to 7965
  154.4076  140.1255  156.4777 H   0  0  0  0  0  0  0  0  0  0  0  0  # atno 8008 bound_to 7997
  155.7116  140.3494  155.4957 H   0  0  0  0  0  0  0  0  0  0  0  0  # atno 8009 bound_to 7997
  155.9295  140.1067  157.1133 H   0  0  0  0  0  0  0  0  0  0  0  0  # atno 8010 bound_to 7997
  139.7477  143.8565  152.2579 H   0  0  0  0  0  0  0  0  0  0  0  0  # atno 10167 bound_to 10162
  156.7049  130.9211  151.3083 H   0  0  0  0  0  0  0  0  0  0  0  0  # atno 10718 bound_to 10713
  154.5321  135.2800  155.1170 H   0  0  0  0  0  0  0  0  0  0  0  0  # atno 10763 bound_to 10752
  154.2686  135.6308  153.5305 H   0  0  0  0  0  0  0  0  0  0  0  0  # atno 10764 bound_to 10752
  152.9959  135.5623  154.5838 H   0  0  0  0  0  0  0  0  0  0  0  0  # atno 10765 bound_to 10752
  140.4041  134.1687  155.7665 H   0  0  0  0  0  0  0  0  0  0  0  0  # atno 11005 bound_to 11000
  146.3383  140.2474  142.8597 LP  0  0  0  0  0  0  0  0  0  0  0  0  # atno 17320 bound_to 7965
  144.9794  140.8445  143.5406 LP  0  0  0  0  0  0  0  0  0  0  0  0  # atno 17321 bound_to 7965
  139.8534  144.7153  150.9186 LP  0  0  0  0  0  0  0  0  0  0  0  0  # atno 17342 bound_to 10162
  140.7794  143.3879  151.1361 LP  0  0  0  0  0  0  0  0  0  0  0  0  # atno 17343 bound_to 10162
  157.6958  130.9281  150.0642 LP  0  0  0  0  0  0  0  0  0  0  0  0  # atno 17370 bound_to 10713
  156.1702  130.3646  149.9176 LP  0  0  0  0  0  0  0  0  0  0  0  0  # atno 17371 bound_to 10713
  141.1846  133.8341  157.1135 LP  0  0  0  0  0  0  0  0  0  0  0  0  # atno 17394 bound_to 11000
  140.0315  134.9899  157.0789 LP  0  0  0  0  0  0  0  0  0  0  0  0  # atno 17395 bound_to 11000

$$$$
