AV-unprocessed.smi:78|AV-procd|sdf|776|dock3
  -GOLD-   2262017133D 1   1.00000     0.00000
 Structure written by MMmdl.
 56 59  0  0  0  0  0  0  0  0  1 V2000
  144.9249  126.5173  155.4980 C   0  0  0  0  0  0  0  0  0  0  0  0
  146.4558  126.6396  155.4210 C   0  0  0  0  0  0  0  0  0  0  0  0
  147.1166  125.8016  156.5255 C   0  0  0  0  0  0  0  0  0  0  0  0
  146.9386  128.1077  155.4938 C   0  0  0  0  0  0  0  0  0  0  0  0
  148.4733  128.3206  155.3568 C   0  0  1  0  0  0  0  0  0  0  0  0
  149.1081  127.5969  154.1480 C   0  0  0  0  0  0  0  0  0  0  0  0
  148.6012  126.5716  153.6967 O   0  0  0  0  0  0  0  0  0  0  0  0
  150.2350  128.1113  153.6234 N   0  0  0  0  0  0  0  0  0  0  0  0
  150.9072  129.3363  154.0657 C   0  0  0  0  0  0  0  0  0  0  0  0
  150.3368  129.9187  155.3773 C   0  0  0  0  0  0  0  0  0  0  0  0
  148.8913  129.7294  155.4525 N   0  0  0  0  0  0  0  0  0  0  0  0
  148.2122  130.6934  154.7784 C   0  0  0  0  0  0  0  0  0  0  0  0
  148.2137  131.9816  155.2128 N   0  0  0  0  0  0  0  0  0  0  0  0
  147.5280  132.9156  154.5474 C   0  0  0  0  0  0  0  0  0  0  0  0
  146.7794  132.7787  153.4508 N   0  0  0  0  0  0  0  0  0  0  0  0
  146.7666  131.4851  153.0187 C   0  0  0  0  0  0  0  0  0  0  0  0
  147.4517  130.3915  153.6174 C   0  0  0  0  0  0  0  0  0  0  0  0
  147.2214  129.2295  152.8926 N   0  0  0  0  0  0  0  0  0  0  0  0
  146.4469  129.6157  151.9154 C   0  0  0  0  0  0  0  0  0  0  0  0
  146.1006  130.9490  151.9308 N   0  0  0  0  0  0  0  0  0  0  0  0
  145.2937  131.6452  150.9721 C   0  0  0  0  0  0  0  0  0  0  0  0
  145.8671  132.8171  150.1702 C   0  0  0  0  0  0  0  0  0  0  0  0
  144.4673  133.4745  150.1538 C   0  0  0  0  0  0  0  0  0  0  0  0
  144.4005  135.0032  150.3417 C   0  0  0  0  0  0  0  0  0  0  0  0
  144.8056  135.7117  149.1872 O   0  0  0  0  0  0  0  0  0  0  0  0
  143.5892  133.1274  148.9362 C   0  0  0  0  0  0  0  0  0  0  0  0
  142.9754  131.8625  149.0810 O   0  0  0  0  0  0  0  0  0  0  0  0
  144.1844  132.6104  151.4047 C   0  0  0  0  0  0  0  0  0  0  0  0
  144.5348  126.9786  156.4057 H   0  0  0  0  0  0  0  0  0  0  0  0
  144.6150  125.4720  155.4982 H   0  0  0  0  0  0  0  0  0  0  0  0
  144.4404  126.9920  154.6450 H   0  0  0  0  0  0  0  0  0  0  0  0
  146.7731  126.2085  154.4719 H   0  0  0  0  0  0  0  0  0  0  0  0
  146.8419  126.1649  157.5163 H   0  0  0  0  0  0  0  0  0  0  0  0
  148.2038  125.8348  156.4478 H   0  0  0  0  0  0  0  0  0  0  0  0
  146.8161  124.7555  156.4592 H   0  0  0  0  0  0  0  0  0  0  0  0
  146.4301  128.6686  154.7082 H   0  0  0  0  0  0  0  0  0  0  0  0
  146.5881  128.5518  156.4255 H   0  0  0  0  0  0  0  0  0  0  0  0
  148.9280  127.8279  156.2161 H   0  0  0  0  0  0  0  0  0  0  0  0
  150.6487  127.6253  152.8409 H   0  0  0  0  0  0  0  0  0  0  0  0
  151.9771  129.1525  154.1645 H   0  0  0  0  0  0  0  0  0  0  0  0
  150.7910  130.0689  153.2663 H   0  0  0  0  0  0  0  0  0  0  0  0
  150.7842  129.4041  156.2284 H   0  0  0  0  0  0  0  0  0  0  0  0
  150.6154  130.9685  155.4838 H   0  0  0  0  0  0  0  0  0  0  0  0
  147.5851  133.9148  154.9534 H   0  0  0  0  0  0  0  0  0  0  0  0
  146.1008  128.9297  151.1563 H   0  0  0  0  0  0  0  0  0  0  0  0
  144.8980  130.8796  150.3027 H   0  0  0  0  0  0  0  0  0  0  0  0
  146.6086  133.3811  150.7381 H   0  0  0  0  0  0  0  0  0  0  0  0
  146.2604  132.5404  149.1916 H   0  0  0  0  0  0  0  0  0  0  0  0
  143.3874  135.3254  150.5838 H   0  0  0  0  0  0  0  0  0  0  0  0
  145.0375  135.3205  151.1681 H   0  0  0  0  0  0  0  0  0  0  0  0
  144.5751  136.6216  149.2973 H   0  0  0  0  0  0  0  0  0  0  0  0
  142.7992  133.8648  148.7929 H   0  0  0  0  0  0  0  0  0  0  0  0
  144.1759  133.1284  148.0171 H   0  0  0  0  0  0  0  0  0  0  0  0
  142.3548  131.9094  149.7923 H   0  0  0  0  0  0  0  0  0  0  0  0
  143.1895  132.1653  151.4385 H   0  0  0  0  0  0  0  0  0  0  0  0
  144.4146  133.1119  152.3460 H   0  0  0  0  0  0  0  0  0  0  0  0
  1  2  1  0  0  0  0
  1 29  1  0  0  0  0
  1 30  1  0  0  0  0
  1 31  1  0  0  0  0
  2  3  1  0  0  0  0
  2  4  1  0  0  0  0
  2 32  1  0  0  0  0
  3 33  1  0  0  0  0
  3 34  1  0  0  0  0
  3 35  1  0  0  0  0
  4  5  1  0  0  0  0
  4 36  1  0  0  0  0
  4 37  1  0  0  0  0
  5 11  1  0  0  0  0
  5  6  1  0  0  0  0
  5 38  1  0  0  0  0
  6  7  2  0  0  0  0
  6  8  1  0  0  0  0
  8  9  1  0  0  0  0
  8 39  1  0  0  0  0
  9 10  1  0  0  0  0
  9 40  1  0  0  0  0
  9 41  1  0  0  0  0
 10 11  1  0  0  0  0
 10 42  1  0  0  0  0
 10 43  1  0  0  0  0
 11 12  1  0  0  0  0
 12 17  1  0  0  0  0
 12 13  2  0  0  0  0
 13 14  1  0  0  0  0
 14 15  2  0  0  0  0
 14 44  1  0  0  0  0
 15 16  1  0  0  0  0
 16 20  1  0  0  0  0
 16 17  2  0  0  0  0
 17 18  1  0  0  0  0
 18 19  2  0  0  0  0
 19 20  1  0  0  0  0
 19 45  1  0  0  0  0
 20 21  1  0  0  0  0
 21 28  1  0  0  0  0
 21 22  1  0  0  0  0
 21 46  1  0  0  0  0
 22 23  1  0  0  0  0
 22 47  1  0  0  0  0
 22 48  1  0  0  0  0
 23 24  1  0  0  0  0
 23 26  1  0  0  0  0
 23 28  1  0  0  0  0
 24 25  1  0  0  0  0
 24 49  1  0  0  0  0
 24 50  1  0  0  0  0
 25 51  1  0  0  0  0
 26 27  1  0  0  0  0
 26 52  1  0  0  0  0
 26 53  1  0  0  0  0
 27 54  1  0  0  0  0
 28 55  1  0  0  0  0
 28 56  1  0  0  0  0
M  END
> <s_m_source_file>
AV-unprocessed.smi

> <i_m_source_file_index>
78

> <i_lp_mmshare_version>
43012

> <i_f3d_flags>
0

> <s_epik_input>
W0NIM11bQ0hdKFtDSDNdKVtDSDJdW0NAQEhdMUMoPU8pW05IXVtDSDJdW0NIMl1OMWMobltjSF1uMiljKGMyMyluW2NIXW4zW0NIXShbQ0gyXTQpW0NIMl1DNChbQ0gyXVtPSF0pW0NIMl1bT0hd

> <s_epik_cmdline>
J2VwaWtfcHl0aG9uJywgJy1waCcsICc3LjAnLCAnLXRuJywgJzgnLCAnLW1hJywgJzIwMCcsICctbWV0YWxfYmluZGluZycsICctaW1hZScsICc8aW5maWxlLm1hZT4nLCAnLW9tYWUnLCAnPG91dGZpbGUubWFlPic=

> <r_lp_tautomer_probability>
1

> <r_epik_Ionization_Penalty>
0.000550083

> <r_epik_Ionization_Penalty_Charging>
0

> <r_epik_Ionization_Penalty_Neutral>
0.000550083

> <r_epik_State_Penalty>
0.000250415

> <r_epik_Charging_Adjusted_Penalty>
0.000250415

> <i_epik_Tot_Q>
0

> <i_epik_Tot_abs_Q>
0

> <r_epik_Metal_State_Penalty>
-0

> <b_epik_Metal_Only>
0

> <s_lp_Force_Field>
OPLS_2005

> <r_lp_Energy>
48.678

> <b_lp_Chiralities_Consistent>
1

> <s_lp_Variant>
AV-unprocessed.smi:78-2

> <Gold.Version>
5.8.1

> <Gold.Id.Protein>
6NUR|6NUR_protein|mol2

> <Gold.PLP.Fitness>
45.0960

> <Gold.PLP.PLP>
-38.1299

> <Gold.PLP.part.hbond>
-4.5447

> <Gold.PLP.part.metal>
0.0000

> <Gold.PLP.part.buried>
-3.9015

> <Gold.PLP.part.nonpolar>
-29.4187

> <Gold.PLP.part.repulsive>
0.3151

> <Gold.PLP.ligand.clash>
0.9533

> <Gold.PLP.ligand.torsion>
1.2493

> <Gold.PLP.Chemscore.Hbond>
3.1944

> <Gold.PLP.Chemscore.CHOScore>
0.0000

> <Gold.PLP.Chemscore.Metal>
0.0000

> <Gold.Chemscore.Hbonds>
donor molecule, donor type, donor heavy atom, donor atom, acceptor molecule, acceptor atom, score
      L1  H     8    39       P1 10737  0.83
      L1  H    25    51       P1 10171  0.80
      L1  H    27    54       P1 10952  0.12
      P1  H 10785 10796       L1    27  1.00

> <Gold.PLP.Chemscore.Internal.Correction>
0.8349

> <Gold.Rescore>
     Score         DG    S(hbond)    S(metal)    S(lipo)     H(rot)  DE(clash)    DE(int)     intcor
      4.17     -13.59       2.83        0.00      69.91       3.72       0.59       8.83       ----

> <Gold.Chemscore.Fitness>
4.1685

> <Gold.Chemscore.DG>
-13.5901

> <Gold.Chemscore.ZeroCoef>
-5.4800

> <Gold.Chemscore.Hbond>
2.8334

> <Gold.Chemscore.Metal>
0.0000

> <Gold.Chemscore.Lipo>
69.9125

> <Gold.Chemscore.Internal_Hbond>
0.0000

> <Gold.Chemscore.DEClash>
0.5914

> <Gold.Chemscore.DEInternal>
8.8301

> <Gold.Chemscore.Rot>
3.7239

> <Gold.Chemscore.Internal.Correction>
   9.000000E+99

> <Gold.Chemscore.Hbonds>
donor molecule, donor type, donor heavy atom, donor atom, acceptor molecule, acceptor atom, score
      L1  H     8    39       P1 10737  0.81
      L1  H    25    51       P1 10171  0.79
      L1  H    27    54       P1 10952  0.13
      P1  H 10785 10796       L1    27  0.55

> <Gold.Chemscore.Hbond.Weighted>
-9.4636

> <Gold.Chemscore.Metal.Weighted>
-0.0000

> <Gold.Chemscore.Lipo.Weighted>
-8.1798

> <Gold.Chemscore.Internal_Hbond.Weighted>
0.0000

> <Gold.Chemscore.DEClash.Weighted>
0.5914

> <Gold.Chemscore.DEInternal.Weighted>
8.8301

> <Gold.Chemscore.Rot.Weighted>
9.5332

> <Gold.Chemscore.Internal.Correction.Weighted>
   9.000000E+99

> <Gold.Protein.RotatedTorsions>
[ 6907 6896 6895 6894 ] final   -3.37 input  -60.11 | X-H torsion
[ 7974 7965 7964 7962 ] final  -83.36 input  175.53 | X-H torsion
[ 8008 7997 7996 7995 ] final -118.41 input   59.86 | X-H torsion
[ 10167 10162 10161 10158 ] final -125.23 input  -65.29 | X-H torsion
[ 10718 10713 10712 10709 ] final -117.69 input   66.30 | X-H torsion
[ 10763 10752 10751 10750 ] final  -17.63 input  -60.55 | X-H torsion
[ 11005 11000 10999 10996 ] final   97.50 input  -57.11 | X-H torsion

> <Gold.Protein.ActiveResidues>
 VAL166  LYS551  ARG553  GLY616  TRP617  ASP618  TYR619  PRO620  LYS621  CYS622 
 ASP623  PHE694  ASN695  SER759  ASP760  ASP761  ALA762  ILE779  LEU786  VAL792 
 PHE793  MET794  SER795  GLU796  ALA797  LYS798  CYS799  TRP800  GLU811  SER814 

> <Gold.Protein.RotatedAtoms>
  151.5149  135.1066  159.9863 H   0  0  0  0  0  0  0  0  0  0  0  0  # atno 6907 bound_to 6896
  152.4646  133.7890  159.6902 H   0  0  0  0  0  0  0  0  0  0  0  0  # atno 6908 bound_to 6896
  150.8623  133.7561  159.3013 H   0  0  0  0  0  0  0  0  0  0  0  0  # atno 6909 bound_to 6896
  145.5210  140.9531  143.1655 H   0  0  0  0  0  0  0  0  0  0  0  0  # atno 7974 bound_to 7965
  155.0993  140.0396  157.2692 H   0  0  0  0  0  0  0  0  0  0  0  0  # atno 8008 bound_to 7997
  154.6771  140.2625  155.6922 H   0  0  0  0  0  0  0  0  0  0  0  0  # atno 8009 bound_to 7997
  156.2680  140.2786  156.1301 H   0  0  0  0  0  0  0  0  0  0  0  0  # atno 8010 bound_to 7997
  139.9843  143.5709  152.2366 H   0  0  0  0  0  0  0  0  0  0  0  0  # atno 10167 bound_to 10162
  156.1052  130.6204  150.9196 H   0  0  0  0  0  0  0  0  0  0  0  0  # atno 10718 bound_to 10713
  153.5768  135.7006  153.5480 H   0  0  0  0  0  0  0  0  0  0  0  0  # atno 10763 bound_to 10752
  153.3296  135.4051  155.1484 H   0  0  0  0  0  0  0  0  0  0  0  0  # atno 10764 bound_to 10752
  154.8624  135.3715  154.5293 H   0  0  0  0  0  0  0  0  0  0  0  0  # atno 10765 bound_to 10752
  139.8776  134.9004  156.4316 H   0  0  0  0  0  0  0  0  0  0  0  0  # atno 11005 bound_to 11000
  144.7676  139.6809  143.7208 LP  0  0  0  0  0  0  0  0  0  0  0  0  # atno 17320 bound_to 7965
  146.2106  139.5459  142.9684 LP  0  0  0  0  0  0  0  0  0  0  0  0  # atno 17321 bound_to 7965
  139.6387  144.7652  151.2385 LP  0  0  0  0  0  0  0  0  0  0  0  0  # atno 17342 bound_to 10162
  140.7478  143.6355  150.8383 LP  0  0  0  0  0  0  0  0  0  0  0  0  # atno 17343 bound_to 10162
  157.6228  131.0928  150.8591 LP  0  0  0  0  0  0  0  0  0  0  0  0  # atno 17370 bound_to 10713
  156.8711  130.5146  149.5296 LP  0  0  0  0  0  0  0  0  0  0  0  0  # atno 17371 bound_to 10713
  140.9062  133.7744  155.9738 LP  0  0  0  0  0  0  0  0  0  0  0  0  # atno 17394 bound_to 11000
  140.8596  134.2856  157.5240 LP  0  0  0  0  0  0  0  0  0  0  0  0  # atno 17395 bound_to 11000

$$$$
