AV-unprocessed.smi:894|AV-procd|sdf|4072|dock2
  -GOLD-   22720 1553D 1   1.00000     0.00000
 Structure written by MMmdl.
 30 31  0  0  0  0  0  0  0  0  1 V2000
  147.4204  141.4837  153.7212 C   0  0  0  0  0  0  0  0  0  0  0  0
  148.6723  140.7462  153.7932 N   0  0  0  0  0  0  0  0  0  0  0  0
  149.1817  140.2321  154.9227 C   0  0  0  0  0  0  0  0  0  0  0  0
  148.6290  140.3284  156.0183 O   0  0  0  0  0  0  0  0  0  0  0  0
  150.5137  139.4893  154.7996 C   0  0  0  0  0  0  0  0  0  0  0  0
  151.3795  139.7501  155.9909 C   0  0  0  0  0  0  0  0  0  0  0  0
  152.5555  139.1489  156.1336 N   0  0  0  0  0  0  0  0  0  0  0  0
  153.0283  139.6469  157.3560 O   0  0  0  0  0  0  0  0  0  0  0  0
  152.0770  140.5032  157.7992 C   0  0  0  0  0  0  0  0  0  0  0  0
  152.2646  141.1659  159.1234 C   0  0  0  0  0  0  0  0  0  0  0  0
  152.5417  142.6602  158.9940 C   0  0  0  0  0  0  0  0  0  0  0  0
  152.3141  143.5865  160.1998 C   0  0  0  0  0  0  0  0  0  0  0  0
  151.8638  144.6740  159.2216 C   0  0  0  0  0  0  0  0  0  0  0  0
  151.5547  143.5528  158.2262 C   0  0  0  0  0  0  0  0  0  0  0  0
  151.0174  140.5917  156.9990 N   0  0  0  0  0  0  0  0  0  0  0  0
  147.2393  141.8105  152.6974 H   0  0  0  0  0  0  0  0  0  0  0  0
  147.4529  142.3671  154.3603 H   0  0  0  0  0  0  0  0  0  0  0  0
  146.5831  140.8582  154.0337 H   0  0  0  0  0  0  0  0  0  0  0  0
  149.1882  140.6253  152.9334 H   0  0  0  0  0  0  0  0  0  0  0  0
  150.3309  138.4176  154.7101 H   0  0  0  0  0  0  0  0  0  0  0  0
  151.0298  139.7989  153.8896 H   0  0  0  0  0  0  0  0  0  0  0  0
  151.3717  140.9966  159.7258 H   0  0  0  0  0  0  0  0  0  0  0  0
  153.0839  140.6688  159.6442 H   0  0  0  0  0  0  0  0  0  0  0  0
  153.5485  142.8342  158.6076 H   0  0  0  0  0  0  0  0  0  0  0  0
  151.5073  143.2457  160.8510 H   0  0  0  0  0  0  0  0  0  0  0  0
  153.2138  143.8252  160.7678 H   0  0  0  0  0  0  0  0  0  0  0  0
  150.9974  145.2515  159.5449 H   0  0  0  0  0  0  0  0  0  0  0  0
  152.6838  145.3164  158.8962 H   0  0  0  0  0  0  0  0  0  0  0  0
  151.8391  143.7661  157.1954 H   0  0  0  0  0  0  0  0  0  0  0  0
  150.5230  143.2031  158.2942 H   0  0  0  0  0  0  0  0  0  0  0  0
  1  2  1  0  0  0  0
  1 16  1  0  0  0  0
  1 17  1  0  0  0  0
  1 18  1  0  0  0  0
  2  3  1  0  0  0  0
  2 19  1  0  0  0  0
  3  4  2  0  0  0  0
  3  5  1  0  0  0  0
  5  6  1  0  0  0  0
  5 20  1  0  0  0  0
  5 21  1  0  0  0  0
  6 15  1  0  0  0  0
  6  7  2  0  0  0  0
  7  8  1  0  0  0  0
  8  9  1  0  0  0  0
  9 10  1  0  0  0  0
  9 15  2  0  0  0  0
 10 11  1  0  0  0  0
 10 22  1  0  0  0  0
 10 23  1  0  0  0  0
 11 14  1  0  0  0  0
 11 12  1  0  0  0  0
 11 24  1  0  0  0  0
 12 13  1  0  0  0  0
 12 25  1  0  0  0  0
 12 26  1  0  0  0  0
 13 14  1  0  0  0  0
 13 27  1  0  0  0  0
 13 28  1  0  0  0  0
 14 29  1  0  0  0  0
 14 30  1  0  0  0  0
M  END
> <s_m_source_file>
AV-unprocessed.smi

> <i_m_source_file_index>
894

> <i_lp_mmshare_version>
43012

> <i_f3d_flags>
0

> <s_epik_input>
W0NIM11bTkhdQyg9TylbQ0gyXWMxbm9jKG4xKVtDSDJdW0NIXTJbQ0gyXVtDSDJdW0NIMl0y

> <s_epik_cmdline>
J2VwaWtfcHl0aG9uJywgJy1waCcsICc3LjAnLCAnLXRuJywgJzgnLCAnLW1hJywgJzIwMCcsICctbWV0YWxfYmluZGluZycsICctaW1hZScsICc8aW5maWxlLm1hZT4nLCAnLW9tYWUnLCAnPG91dGZpbGUubWFlPic=

> <r_lp_tautomer_probability>
1

> <r_epik_Ionization_Penalty>
1.02915e-07

> <r_epik_Ionization_Penalty_Charging>
0

> <r_epik_Ionization_Penalty_Neutral>
1.02915e-07

> <r_epik_State_Penalty>
-0

> <r_epik_Charging_Adjusted_Penalty>
0

> <i_epik_Tot_Q>
0

> <i_epik_Tot_abs_Q>
0

> <r_epik_Metal_State_Penalty>
-0

> <b_epik_Metal_Only>
0

> <s_lp_Force_Field>
OPLS_2005

> <r_lp_Energy>
11.0858

> <b_lp_Chiralities_Consistent>
1

> <s_lp_Variant>
AV-unprocessed.smi:894-1

> <Gold.Version>
5.8.1

> <Gold.Id.Protein>
6NUR|6NUR_protein|mol2

> <Gold.PLP.Fitness>
38.3190

> <Gold.PLP.PLP>
-33.3561

> <Gold.PLP.part.hbond>
-2.8111

> <Gold.PLP.part.metal>
0.0000

> <Gold.PLP.part.buried>
-3.4318

> <Gold.PLP.part.nonpolar>
-26.9317

> <Gold.PLP.part.repulsive>
0.2312

> <Gold.PLP.ligand.clash>
0.0000

> <Gold.PLP.ligand.torsion>
0.5587

> <Gold.PLP.Chemscore.Hbond>
2.0000

> <Gold.PLP.Chemscore.CHOScore>
0.0000

> <Gold.PLP.Chemscore.Metal>
0.0000

> <Gold.Chemscore.Hbonds>
donor molecule, donor type, donor heavy atom, donor atom, acceptor molecule, acceptor atom, score
      L1  H     2    19       P1  7957  1.00
      P1  H  7997  8009       L1     8  1.00

> <Gold.PLP.Chemscore.Internal.Correction>
0.0803

> <Gold.Rescore>
     Score         DG    S(hbond)    S(metal)    S(lipo)     H(rot)  DE(clash)    DE(int)     intcor
     13.13     -15.20       1.78        0.00      73.72       1.90       0.02       2.04       ----

> <Gold.Chemscore.Fitness>
13.1334

> <Gold.Chemscore.DG>
-15.1961

> <Gold.Chemscore.ZeroCoef>
-5.4800

> <Gold.Chemscore.Hbond>
1.7801

> <Gold.Chemscore.Metal>
0.0000

> <Gold.Chemscore.Lipo>
73.7183

> <Gold.Chemscore.Internal_Hbond>
0.0000

> <Gold.Chemscore.DEClash>
0.0246

> <Gold.Chemscore.DEInternal>
2.0381

> <Gold.Chemscore.Rot>
1.8963

> <Gold.Chemscore.Internal.Correction>
   9.000000E+99

> <Gold.Chemscore.Hbonds>
donor molecule, donor type, donor heavy atom, donor atom, acceptor molecule, acceptor atom, score
      L1  H     2    19       P1  7957  0.99
      P1  H  7997  8009       L1     8  0.29

> <Gold.Chemscore.Hbond.Weighted>
-5.9457

> <Gold.Chemscore.Metal.Weighted>
-0.0000

> <Gold.Chemscore.Lipo.Weighted>
-8.6250

> <Gold.Chemscore.Internal_Hbond.Weighted>
0.0000

> <Gold.Chemscore.DEClash.Weighted>
0.0246

> <Gold.Chemscore.DEInternal.Weighted>
2.0381

> <Gold.Chemscore.Rot.Weighted>
4.8546

> <Gold.Chemscore.Internal.Correction.Weighted>
   9.000000E+99

> <Gold.Protein.RotatedTorsions>
[ 6907 6896 6895 6894 ] final -166.89 input  -60.11 | X-H torsion
[ 7974 7965 7964 7962 ] final  -67.54 input  175.53 | X-H torsion
[ 8008 7997 7996 7995 ] final  157.23 input   59.86 | X-H torsion
[ 10167 10162 10161 10158 ] final  -29.92 input  -65.29 | X-H torsion
[ 10718 10713 10712 10709 ] final   39.10 input   66.30 | X-H torsion
[ 10763 10752 10751 10750 ] final -117.59 input  -60.55 | X-H torsion
[ 11005 11000 10999 10996 ] final -114.02 input  -57.11 | X-H torsion

> <Gold.Protein.ActiveResidues>
 VAL166  LYS551  ARG553  GLY616  TRP617  ASP618  TYR619  PRO620  LYS621  CYS622 
 ASP623  PHE694  ASN695  SER759  ASP760  ASP761  ALA762  ILE779  LEU786  VAL792 
 PHE793  MET794  SER795  GLU796  ALA797  LYS798  CYS799  TRP800  GLU811  SER814 

> <Gold.Protein.RotatedAtoms>
  151.4508  133.3618  159.2794 H   0  0  0  0  0  0  0  0  0  0  0  0  # atno 6907 bound_to 6896
  150.9093  134.8510  159.7425 H   0  0  0  0  0  0  0  0  0  0  0  0  # atno 6908 bound_to 6896
  152.4923  134.4436  159.9603 H   0  0  0  0  0  0  0  0  0  0  0  0  # atno 6909 bound_to 6896
  145.7279  140.9010  143.0596 H   0  0  0  0  0  0  0  0  0  0  0  0  # atno 7974 bound_to 7965
  156.2376  140.1891  156.7076 H   0  0  0  0  0  0  0  0  0  0  0  0  # atno 8008 bound_to 7997
  154.6136  140.0618  156.9552 H   0  0  0  0  0  0  0  0  0  0  0  0  # atno 8009 bound_to 7997
  155.1976  140.3289  155.4351 H   0  0  0  0  0  0  0  0  0  0  0  0  # atno 8010 bound_to 7997
  140.7255  143.3890  151.1464 H   0  0  0  0  0  0  0  0  0  0  0  0  # atno 10167 bound_to 10162
  157.3666  130.7678  149.7087 H   0  0  0  0  0  0  0  0  0  0  0  0  # atno 10718 bound_to 10713
  154.8560  135.4304  154.2003 H   0  0  0  0  0  0  0  0  0  0  0  0  # atno 10763 bound_to 10752
  153.3052  135.6972  153.7172 H   0  0  0  0  0  0  0  0  0  0  0  0  # atno 10764 bound_to 10752
  153.6287  135.3489  155.3009 H   0  0  0  0  0  0  0  0  0  0  0  0  # atno 10765 bound_to 10752
  141.0578  133.9584  157.2722 H   0  0  0  0  0  0  0  0  0  0  0  0  # atno 11005 bound_to 11000
  144.6900  139.9290  143.7471 LP  0  0  0  0  0  0  0  0  0  0  0  0  # atno 17320 bound_to 7965
  146.0565  139.3562  143.0607 LP  0  0  0  0  0  0  0  0  0  0  0  0  # atno 17321 bound_to 7965
  139.7492  143.8805  152.3072 LP  0  0  0  0  0  0  0  0  0  0  0  0  # atno 17342 bound_to 10162
  139.8653  144.7096  150.9051 LP  0  0  0  0  0  0  0  0  0  0  0  0  # atno 17343 bound_to 10162
  155.9747  130.4099  150.3902 LP  0  0  0  0  0  0  0  0  0  0  0  0  # atno 17370 bound_to 10713
  157.1987  131.0433  151.2662 LP  0  0  0  0  0  0  0  0  0  0  0  0  # atno 17371 bound_to 10713
  139.9406  135.0191  156.8695 LP  0  0  0  0  0  0  0  0  0  0  0  0  # atno 17394 bound_to 11000
  140.5929  134.0245  155.7506 LP  0  0  0  0  0  0  0  0  0  0  0  0  # atno 17395 bound_to 11000

$$$$
