AV-unprocessed.smi:501|AV-procd|sdf|2742|dock8
  -GOLD-   2262023203D 1   1.00000     0.00000
 Structure written by MMmdl.
 45 47  0  0  0  0  0  0  0  0  1 V2000
  152.0056  144.6012  158.5306 C   0  0  0  0  0  0  0  0  0  0  0  0
  152.4826  143.6471  159.6063 C   0  0  0  0  0  0  0  0  0  0  0  0
  151.9199  143.7040  160.8966 C   0  0  0  0  0  0  0  0  0  0  0  0
  152.3608  142.8166  161.8952 C   0  0  0  0  0  0  0  0  0  0  0  0
  153.3625  141.8711  161.6048 C   0  0  0  0  0  0  0  0  0  0  0  0
  153.9342  141.7975  160.3181 C   0  0  0  0  0  0  0  0  0  0  0  0
  154.9054  140.8394  160.1205 O   0  0  0  0  0  0  0  0  0  0  0  0
  154.8417  139.6487  160.8923 C   0  0  0  0  0  0  0  0  0  0  0  0
  154.2242  138.5413  160.0304 C   0  0  0  0  0  0  0  0  0  0  0  0
  154.6509  137.2174  160.4615 N   0  0  0  0  0  0  0  0  0  0  0  0
  155.4299  136.3102  159.8142 C   0  0  0  0  0  0  0  0  0  0  0  0
  156.0318  136.5522  158.4606 C   0  0  0  0  0  0  0  0  0  0  0  0
  156.9168  137.8093  158.4207 C   0  0  0  0  0  0  0  0  0  0  0  0
  158.1920  137.5493  157.7624 N   0  0  0  0  0  0  0  0  0  0  0  0
  158.3312  137.1294  156.4972 C   0  0  0  0  0  0  0  0  0  0  0  0
  157.3957  136.9151  155.7278 O   0  0  0  0  0  0  0  0  0  0  0  0
  155.6561  135.1714  160.4709 N   0  0  0  0  0  0  0  0  0  0  0  0
  154.9628  135.3529  161.6504 C   0  0  0  0  0  0  0  0  0  0  0  0
  154.8120  134.5006  162.7675 C   0  0  0  0  0  0  0  0  0  0  0  0
  154.0468  134.9101  163.8793 C   0  0  0  0  0  0  0  0  0  0  0  0
  153.4237  136.1747  163.8898 C   0  0  0  0  0  0  0  0  0  0  0  0
  153.5609  137.0385  162.7861 C   0  0  0  0  0  0  0  0  0  0  0  0
  154.3244  136.6244  161.6779 C   0  0  0  0  0  0  0  0  0  0  0  0
  153.4847  142.6971  159.3179 C   0  0  0  0  0  0  0  0  0  0  0  0
  151.7298  145.5640  158.9618 H   0  0  0  0  0  0  0  0  0  0  0  0
  151.1333  144.1894  158.0229 H   0  0  0  0  0  0  0  0  0  0  0  0
  152.7852  144.7754  157.7884 H   0  0  0  0  0  0  0  0  0  0  0  0
  151.1496  144.4266  161.1236 H   0  0  0  0  0  0  0  0  0  0  0  0
  151.9299  142.8597  162.8845 H   0  0  0  0  0  0  0  0  0  0  0  0
  153.6944  141.1936  162.3777 H   0  0  0  0  0  0  0  0  0  0  0  0
  155.8414  139.3572  161.2134 H   0  0  0  0  0  0  0  0  0  0  0  0
  154.2298  139.8086  161.7814 H   0  0  0  0  0  0  0  0  0  0  0  0
  153.1369  138.5887  160.0972 H   0  0  0  0  0  0  0  0  0  0  0  0
  154.4601  138.6907  158.9786 H   0  0  0  0  0  0  0  0  0  0  0  0
  156.6300  135.6780  158.2003 H   0  0  0  0  0  0  0  0  0  0  0  0
  155.2584  136.6100  157.6977 H   0  0  0  0  0  0  0  0  0  0  0  0
  156.4145  138.6056  157.8734 H   0  0  0  0  0  0  0  0  0  0  0  0
  157.0863  138.1893  159.4297 H   0  0  0  0  0  0  0  0  0  0  0  0
  159.0281  137.6947  158.3096 H   0  0  0  0  0  0  0  0  0  0  0  0
  159.3942  137.0024  156.2407 H   0  0  0  0  0  0  0  0  0  0  0  0
  155.2869  133.5306  162.7690 H   0  0  0  0  0  0  0  0  0  0  0  0
  153.9381  134.2510  164.7282 H   0  0  0  0  0  0  0  0  0  0  0  0
  152.8402  136.4815  164.7456 H   0  0  0  0  0  0  0  0  0  0  0  0
  153.0853  138.0080  162.7922 H   0  0  0  0  0  0  0  0  0  0  0  0
  153.8961  142.6762  158.3201 H   0  0  0  0  0  0  0  0  0  0  0  0
  1  2  1  0  0  0  0
  1 25  1  0  0  0  0
  1 26  1  0  0  0  0
  1 27  1  0  0  0  0
  2 24  1  0  0  0  0
  2  3  2  0  0  0  0
  3  4  1  0  0  0  0
  3 28  1  0  0  0  0
  4  5  2  0  0  0  0
  4 29  1  0  0  0  0
  5  6  1  0  0  0  0
  5 30  1  0  0  0  0
  6  7  1  0  0  0  0
  6 24  2  0  0  0  0
  7  8  1  0  0  0  0
  8  9  1  0  0  0  0
  8 31  1  0  0  0  0
  8 32  1  0  0  0  0
  9 10  1  0  0  0  0
  9 33  1  0  0  0  0
  9 34  1  0  0  0  0
 10 23  1  0  0  0  0
 10 11  1  0  0  0  0
 11 12  1  0  0  0  0
 11 17  2  0  0  0  0
 12 13  1  0  0  0  0
 12 35  1  0  0  0  0
 12 36  1  0  0  0  0
 13 14  1  0  0  0  0
 13 37  1  0  0  0  0
 13 38  1  0  0  0  0
 14 15  1  0  0  0  0
 14 39  1  0  0  0  0
 15 16  2  0  0  0  0
 15 40  1  0  0  0  0
 17 18  1  0  0  0  0
 18 23  2  0  0  0  0
 18 19  1  0  0  0  0
 19 20  2  0  0  0  0
 19 41  1  0  0  0  0
 20 21  1  0  0  0  0
 20 42  1  0  0  0  0
 21 22  2  0  0  0  0
 21 43  1  0  0  0  0
 22 23  1  0  0  0  0
 22 44  1  0  0  0  0
 24 45  1  0  0  0  0
M  END
> <s_m_source_file>
AV-unprocessed.smi

> <i_m_source_file_index>
501

> <i_lp_mmshare_version>
43012

> <i_f3d_flags>
0

> <s_epik_input>
W0NIM11jMVtjSF1bY0hdW2NIXWMoW2NIXTEpT1tDSDJdW0NIMl1uKGMobjIpW0NIMl1bQ0gyXVtOSF1bQ0hdPU8pYyhjMjMpW2NIXVtjSF1bY0hdW2NIXTM=

> <s_epik_cmdline>
J2VwaWtfcHl0aG9uJywgJy1waCcsICc3LjAnLCAnLXRuJywgJzgnLCAnLW1hJywgJzIwMCcsICctbWV0YWxfYmluZGluZycsICctaW1hZScsICc8aW5maWxlLm1hZT4nLCAnLW9tYWUnLCAnPG91dGZpbGUubWFlPic=

> <r_lp_tautomer_probability>
1

> <r_epik_Ionization_Penalty>
0.092246

> <r_epik_Ionization_Penalty_Charging>
0

> <r_epik_Ionization_Penalty_Neutral>
0.092246

> <r_epik_State_Penalty>
0.0825475

> <r_epik_Charging_Adjusted_Penalty>
0.0825475

> <i_epik_Tot_Q>
0

> <i_epik_Tot_abs_Q>
0

> <r_epik_Metal_State_Penalty>
0.0713424

> <b_epik_Metal_Only>
0

> <s_lp_Force_Field>
OPLS_2005

> <r_lp_Energy>
15.5248

> <b_lp_Chiralities_Consistent>
1

> <s_lp_Variant>
AV-unprocessed.smi:501-1

> <Gold.Version>
5.8.1

> <Gold.Id.Protein>
6NUR|6NUR_protein|mol2

> <Gold.PLP.Fitness>
55.8157

> <Gold.PLP.PLP>
-54.9718

> <Gold.PLP.part.hbond>
-1.8113

> <Gold.PLP.part.metal>
0.0000

> <Gold.PLP.part.buried>
-6.3428

> <Gold.PLP.part.nonpolar>
-46.4457

> <Gold.PLP.part.repulsive>
0.0619

> <Gold.PLP.ligand.clash>
0.0000

> <Gold.PLP.ligand.torsion>
1.1860

> <Gold.PLP.Chemscore.Hbond>
1.0000

> <Gold.PLP.Chemscore.CHOScore>
0.0000

> <Gold.PLP.Chemscore.Metal>
0.0000

> <Gold.PLP.Chemscore.Internal.Correction>
0.2160

> <Gold.Rescore>
     Score         DG    S(hbond)    S(metal)    S(lipo)     H(rot)  DE(clash)    DE(int)     intcor
     18.65     -19.77       0.98        0.00     151.43       2.61       0.04       1.08       ----

> <Gold.Chemscore.Fitness>
18.6486

> <Gold.Chemscore.DG>
-19.7679

> <Gold.Chemscore.ZeroCoef>
-5.4800

> <Gold.Chemscore.Hbond>
0.9752

> <Gold.Chemscore.Metal>
0.0000

> <Gold.Chemscore.Lipo>
151.4347

> <Gold.Chemscore.Internal_Hbond>
0.0000

> <Gold.Chemscore.DEClash>
0.0358

> <Gold.Chemscore.DEInternal>
1.0834

> <Gold.Chemscore.Rot>
2.6122

> <Gold.Chemscore.Internal.Correction>
   9.000000E+99

> <Gold.Chemscore.Hbond.Weighted>
-3.2572

> <Gold.Chemscore.Metal.Weighted>
-0.0000

> <Gold.Chemscore.Lipo.Weighted>
-17.7179

> <Gold.Chemscore.Internal_Hbond.Weighted>
0.0000

> <Gold.Chemscore.DEClash.Weighted>
0.0358

> <Gold.Chemscore.DEInternal.Weighted>
1.0834

> <Gold.Chemscore.Rot.Weighted>
6.6872

> <Gold.Chemscore.Internal.Correction.Weighted>
   9.000000E+99

> <Gold.Protein.RotatedTorsions>
[ 6907 6896 6895 6894 ] final   76.66 input  -60.11 | X-H torsion
[ 7974 7965 7964 7962 ] final   96.41 input  175.53 | X-H torsion
[ 8008 7997 7996 7995 ] final  -33.27 input   59.86 | X-H torsion
[ 10167 10162 10161 10158 ] final    7.28 input  -65.29 | X-H torsion
[ 10718 10713 10712 10709 ] final  -31.34 input   66.30 | X-H torsion
[ 10763 10752 10751 10750 ] final   84.54 input  -60.55 | X-H torsion
[ 11005 11000 10999 10996 ] final  105.28 input  -57.11 | X-H torsion

> <Gold.Protein.ActiveResidues>
 VAL166  LYS551  ARG553  GLY616  TRP617  ASP618  TYR619  PRO620  LYS621  CYS622 
 ASP623  PHE694  ASN695  SER759  ASP760  ASP761  ALA762  ILE779  LEU786  VAL792 
 PHE793  MET794  SER795  GLU796  ALA797  LYS798  CYS799  TRP800  GLU811  SER814 

> <Gold.Protein.RotatedAtoms>
  152.5083  134.3935  159.9391 H   0  0  0  0  0  0  0  0  0  0  0  0  # atno 6907 bound_to 6896
  151.3896  133.3787  159.2727 H   0  0  0  0  0  0  0  0  0  0  0  0  # atno 6908 bound_to 6896
  150.9442  134.8869  159.7690 H   0  0  0  0  0  0  0  0  0  0  0  0  # atno 6909 bound_to 6896
  145.4392  139.2303  143.3101 H   0  0  0  0  0  0  0  0  0  0  0  0  # atno 7974 bound_to 7965
  154.4154  140.1715  156.1862 H   0  0  0  0  0  0  0  0  0  0  0  0  # atno 8008 bound_to 7997
  155.9641  140.3391  155.6493 H   0  0  0  0  0  0  0  0  0  0  0  0  # atno 8009 bound_to 7997
  155.6710  140.0711  157.2510 H   0  0  0  0  0  0  0  0  0  0  0  0  # atno 8010 bound_to 7997
  140.6380  143.7840  150.7387 H   0  0  0  0  0  0  0  0  0  0  0  0  # atno 10167 bound_to 10162
  156.3885  130.4368  149.7413 H   0  0  0  0  0  0  0  0  0  0  0  0  # atno 10718 bound_to 10713
  153.1391  135.4650  154.9469 H   0  0  0  0  0  0  0  0  0  0  0  0  # atno 10763 bound_to 10752
  154.7732  135.3165  154.8149 H   0  0  0  0  0  0  0  0  0  0  0  0  # atno 10764 bound_to 10752
  153.8675  135.6906  153.4831 H   0  0  0  0  0  0  0  0  0  0  0  0  # atno 10765 bound_to 10752
  139.8800  134.9330  156.5490 H   0  0  0  0  0  0  0  0  0  0  0  0  # atno 11005 bound_to 11000
  146.2566  140.5138  142.8871 LP  0  0  0  0  0  0  0  0  0  0  0  0  # atno 17320 bound_to 7965
  144.8133  140.6423  143.6401 LP  0  0  0  0  0  0  0  0  0  0  0  0  # atno 17321 bound_to 7965
  140.1466  143.4395  152.2159 LP  0  0  0  0  0  0  0  0  0  0  0  0  # atno 17342 bound_to 10162
  139.5590  144.7393  151.4210 LP  0  0  0  0  0  0  0  0  0  0  0  0  # atno 17343 bound_to 10162
  156.4476  130.7891  151.2912 LP  0  0  0  0  0  0  0  0  0  0  0  0  # atno 17370 bound_to 10713
  157.7497  131.0105  150.3310 LP  0  0  0  0  0  0  0  0  0  0  0  0  # atno 17371 bound_to 10713
  140.8254  133.8320  155.8934 LP  0  0  0  0  0  0  0  0  0  0  0  0  # atno 17394 bound_to 11000
  140.9379  134.1939  157.4819 LP  0  0  0  0  0  0  0  0  0  0  0  0  # atno 17395 bound_to 11000

$$$$
