AV-unprocessed.smi:763|AV-procd|sdf|3636|dock9
  -GOLD-   22720 1 33D 1   1.00000     0.00000
 Structure written by MMmdl.
 44 45  0  0  0  0  0  0  0  0  1 V2000
  146.7858  142.2478  161.7197 C   0  0  0  0  0  0  0  0  0  0  0  0
  147.1597  141.9027  160.3976 O   0  0  0  0  0  0  0  0  0  0  0  0
  146.1030  142.0851  159.4703 C   0  0  0  0  0  0  0  0  0  0  0  0
  146.6879  142.1533  158.0506 C   0  0  0  0  0  0  0  0  0  0  0  0
  148.0559  141.7449  158.0252 O   0  0  0  0  0  0  0  0  0  0  0  0
  148.6377  141.3456  156.8356 C   0  0  0  0  0  0  0  0  0  0  0  0
  147.8461  141.1772  155.7464 N   0  0  0  0  0  0  0  0  0  0  0  0
  148.4192  140.7942  154.5871 C   0  0  0  0  0  0  0  0  0  0  0  0
  149.8008  140.5662  154.4496 C   0  0  0  0  0  0  0  0  0  0  0  0
  150.6230  140.7441  155.5772 C   0  0  0  0  0  0  0  0  0  0  0  0
  150.0364  141.1415  156.7994 C   0  0  0  0  0  0  0  0  0  0  0  0
  150.7922  141.3405  157.9612 N   0  0  0  0  0  0  0  0  0  0  0  0
  152.5015  141.1681  158.2116 S   0  0  0  0  0  0  0  0  0  0  0  0
  152.6185  140.3330  159.4161 O   0  0  0  0  0  0  0  0  0  0  0  0
  153.0511  140.7023  156.9287 O   0  0  0  0  0  0  0  0  0  0  0  0
  153.0393  142.9274  158.5545 C   0  0  2  0  0  0  0  0  0  0  0  0
  153.6676  143.0466  159.9586 C   0  0  0  0  0  0  0  0  0  0  0  0
  152.6133  142.9290  161.0735 C   0  0  0  0  0  0  0  0  0  0  0  0
  151.5110  143.9874  160.9062 C   0  0  0  0  0  0  0  0  0  0  0  0
  150.8547  143.9044  159.5183 C   0  0  0  0  0  0  0  0  0  0  0  0
  151.9125  143.9793  158.3983 C   0  0  2  0  0  0  0  0  0  0  0  0
  151.3011  143.8962  157.1270 O   0  0  0  0  0  0  0  0  0  0  0  0
  147.6280  142.0868  162.3924 H   0  0  0  0  0  0  0  0  0  0  0  0
  145.9547  141.6331  162.0680 H   0  0  0  0  0  0  0  0  0  0  0  0
  146.4974  143.2977  161.7868 H   0  0  0  0  0  0  0  0  0  0  0  0
  145.3672  141.2855  159.5611 H   0  0  0  0  0  0  0  0  0  0  0  0
  145.5907  143.0224  159.6925 H   0  0  0  0  0  0  0  0  0  0  0  0
  146.0882  141.5680  157.3520 H   0  0  0  0  0  0  0  0  0  0  0  0
  146.6350  143.1799  157.6879 H   0  0  0  0  0  0  0  0  0  0  0  0
  147.7569  140.6683  153.7434 H   0  0  0  0  0  0  0  0  0  0  0  0
  150.2201  140.2624  153.5020 H   0  0  0  0  0  0  0  0  0  0  0  0
  151.6853  140.5776  155.4878 H   0  0  0  0  0  0  0  0  0  0  0  0
  150.2653  141.6654  158.7595 H   0  0  0  0  0  0  0  0  0  0  0  0
  153.8208  143.1537  157.8296 H   0  0  0  0  0  0  0  0  0  0  0  0
  154.4462  142.2964  160.0962 H   0  0  0  0  0  0  0  0  0  0  0  0
  154.1682  144.0119  160.0452 H   0  0  0  0  0  0  0  0  0  0  0  0
  152.1703  141.9325  161.0679 H   0  0  0  0  0  0  0  0  0  0  0  0
  153.0911  143.0459  162.0466 H   0  0  0  0  0  0  0  0  0  0  0  0
  150.7551  143.8644  161.6823 H   0  0  0  0  0  0  0  0  0  0  0  0
  151.9382  144.9810  161.0471 H   0  0  0  0  0  0  0  0  0  0  0  0
  150.2732  142.9865  159.4496 H   0  0  0  0  0  0  0  0  0  0  0  0
  150.1394  144.7200  159.4057 H   0  0  0  0  0  0  0  0  0  0  0  0
  152.3725  144.9672  158.4470 H   0  0  0  0  0  0  0  0  0  0  0  0
  150.3885  144.1249  157.2146 H   0  0  0  0  0  0  0  0  0  0  0  0
  1  2  1  0  0  0  0
  1 23  1  0  0  0  0
  1 24  1  0  0  0  0
  1 25  1  0  0  0  0
  2  3  1  0  0  0  0
  3  4  1  0  0  0  0
  3 26  1  0  0  0  0
  3 27  1  0  0  0  0
  4  5  1  0  0  0  0
  4 28  1  0  0  0  0
  4 29  1  0  0  0  0
  5  6  1  0  0  0  0
  6 11  1  0  0  0  0
  6  7  2  0  0  0  0
  7  8  1  0  0  0  0
  8  9  2  0  0  0  0
  8 30  1  0  0  0  0
  9 10  1  0  0  0  0
  9 31  1  0  0  0  0
 10 11  2  0  0  0  0
 10 32  1  0  0  0  0
 11 12  1  0  0  0  0
 12 13  1  0  0  0  0
 12 33  1  0  0  0  0
 13 14  2  0  0  0  0
 13 15  2  0  0  0  0
 13 16  1  0  0  0  0
 16 21  1  0  0  0  0
 16 17  1  0  0  0  0
 16 34  1  0  0  0  0
 17 18  1  0  0  0  0
 17 35  1  0  0  0  0
 17 36  1  0  0  0  0
 18 19  1  0  0  0  0
 18 37  1  0  0  0  0
 18 38  1  0  0  0  0
 19 20  1  0  0  0  0
 19 39  1  0  0  0  0
 19 40  1  0  0  0  0
 20 21  1  0  0  0  0
 20 41  1  0  0  0  0
 20 42  1  0  0  0  0
 21 22  1  0  0  0  0
 21 43  1  0  0  0  0
 22 44  1  0  0  0  0
M  END
> <s_m_source_file>
AV-unprocessed.smi

> <i_m_source_file_index>
763

> <i_lp_mmshare_version>
43012

> <i_f3d_flags>
0

> <s_epik_input>
W0NIM11PW0NIMl1bQ0gyXU9jMW5bY0hdW2NIXVtjSF1jMVtOSF1TKD1PKSg9TylbQ0BASF0yW0NIMl1bQ0gyXVtDSDJdW0NIMl1bQ0BIXTJbT0hd

> <s_epik_cmdline>
J2VwaWtfcHl0aG9uJywgJy1waCcsICc3LjAnLCAnLXRuJywgJzgnLCAnLW1hJywgJzIwMCcsICctbWV0YWxfYmluZGluZycsICctaW1hZScsICc8aW5maWxlLm1hZT4nLCAnLW9tYWUnLCAnPG91dGZpbGUubWFlPic=

> <r_epik_Ionization_Penalty>
0.124685

> <r_epik_Ionization_Penalty_Charging>
0

> <r_epik_Ionization_Penalty_Neutral>
0.124685

> <r_epik_State_Penalty>
0.114154

> <r_epik_Charging_Adjusted_Penalty>
0.114154

> <i_epik_Tot_Q>
0

> <i_epik_Tot_abs_Q>
0

> <r_epik_Metal_State_Penalty>
0.443785

> <b_epik_Metal_Only>
0

> <s_lp_Force_Field>
OPLS_2005

> <r_lp_Energy>
4.78457

> <b_lp_Chiralities_Consistent>
1

> <s_lp_Variant>
AV-unprocessed.smi:763-3

> <Gold.Version>
5.8.1

> <Gold.Id.Protein>
6NUR|6NUR_protein|mol2

> <Gold.PLP.Fitness>
44.0453

> <Gold.PLP.PLP>
-37.3551

> <Gold.PLP.part.hbond>
-3.8162

> <Gold.PLP.part.metal>
0.0000

> <Gold.PLP.part.buried>
-4.5558

> <Gold.PLP.part.nonpolar>
-30.3809

> <Gold.PLP.part.repulsive>
0.3752

> <Gold.PLP.ligand.clash>
0.0000

> <Gold.PLP.ligand.torsion>
1.2803

> <Gold.PLP.Chemscore.Hbond>
2.6393

> <Gold.PLP.Chemscore.CHOScore>
0.0000

> <Gold.PLP.Chemscore.Metal>
0.0000

> <Gold.Chemscore.Hbonds>
donor molecule, donor type, donor heavy atom, donor atom, acceptor molecule, acceptor atom, score
      L1  H    22    44       P1  8028  0.33
      P1  H  7997  8008       L1    15  0.55

> <Gold.PLP.Chemscore.Internal.Correction>
1.3331

> <Gold.Rescore>
     Score         DG    S(hbond)    S(metal)    S(lipo)     H(rot)  DE(clash)    DE(int)     intcor
     12.01     -18.26       2.40        0.00      93.22       2.41       0.53       5.72       ----

> <Gold.Chemscore.Fitness>
12.0081

> <Gold.Chemscore.DG>
-18.2563

> <Gold.Chemscore.ZeroCoef>
-5.4800

> <Gold.Chemscore.Hbond>
2.4034

> <Gold.Chemscore.Metal>
0.0000

> <Gold.Chemscore.Lipo>
93.2178

> <Gold.Chemscore.Internal_Hbond>
0.0000

> <Gold.Chemscore.DEClash>
0.5275

> <Gold.Chemscore.DEInternal>
5.7208

> <Gold.Chemscore.Rot>
2.4052

> <Gold.Chemscore.Internal.Correction>
   9.000000E+99

> <Gold.Chemscore.Hbonds>
donor molecule, donor type, donor heavy atom, donor atom, acceptor molecule, acceptor atom, score
      L1  H    22    44       P1  8028  0.30
      P1  H  7997  8008       L1    15  0.54

> <Gold.Chemscore.Hbond.Weighted>
-8.0273

> <Gold.Chemscore.Metal.Weighted>
-0.0000

> <Gold.Chemscore.Lipo.Weighted>
-10.9065

> <Gold.Chemscore.Internal_Hbond.Weighted>
0.0000

> <Gold.Chemscore.DEClash.Weighted>
0.5275

> <Gold.Chemscore.DEInternal.Weighted>
5.7208

> <Gold.Chemscore.Rot.Weighted>
6.1574

> <Gold.Chemscore.Internal.Correction.Weighted>
   9.000000E+99

> <Gold.Protein.RotatedTorsions>
[ 6907 6896 6895 6894 ] final  -25.26 input  -60.11 | X-H torsion
[ 7974 7965 7964 7962 ] final   58.81 input  175.53 | X-H torsion
[ 8008 7997 7996 7995 ] final  -56.67 input   59.86 | X-H torsion
[ 10167 10162 10161 10158 ] final  -22.65 input  -65.29 | X-H torsion
[ 10718 10713 10712 10709 ] final  106.26 input   66.30 | X-H torsion
[ 10763 10752 10751 10750 ] final  -21.70 input  -60.55 | X-H torsion
[ 11005 11000 10999 10996 ] final -107.53 input  -57.11 | X-H torsion

> <Gold.Protein.ActiveResidues>
 VAL166  LYS551  ARG553  GLY616  TRP617  ASP618  TYR619  PRO620  LYS621  CYS622 
 ASP623  PHE694  ASN695  SER759  ASP760  ASP761  ALA762  ILE779  LEU786  VAL792 
 PHE793  MET794  SER795  GLU796  ALA797  LYS798  CYS799  TRP800  GLU811  SER814 

> <Gold.Protein.RotatedAtoms>
  151.1778  135.0347  159.8779 H   0  0  0  0  0  0  0  0  0  0  0  0  # atno 6907 bound_to 6896
  152.5446  134.1097  159.8363 H   0  0  0  0  0  0  0  0  0  0  0  0  # atno 6908 bound_to 6896
  151.1211  133.5057  159.2634 H   0  0  0  0  0  0  0  0  0  0  0  0  # atno 6909 bound_to 6896
  145.9141  139.3677  143.0518 H   0  0  0  0  0  0  0  0  0  0  0  0  # atno 7974 bound_to 7965
  154.4239  140.1124  156.5675 H   0  0  0  0  0  0  0  0  0  0  0  0  # atno 8008 bound_to 7997
  155.6247  140.3495  155.4644 H   0  0  0  0  0  0  0  0  0  0  0  0  # atno 8009 bound_to 7997
  155.9996  140.1196  157.0550 H   0  0  0  0  0  0  0  0  0  0  0  0  # atno 8010 bound_to 7997
  140.7286  143.4515  151.0509 H   0  0  0  0  0  0  0  0  0  0  0  0  # atno 10167 bound_to 10162
  157.6675  131.0846  150.5980 H   0  0  0  0  0  0  0  0  0  0  0  0  # atno 10718 bound_to 10713
  153.6403  135.6985  153.5244 H   0  0  0  0  0  0  0  0  0  0  0  0  # atno 10763 bound_to 10752
  153.2788  135.4192  155.1058 H   0  0  0  0  0  0  0  0  0  0  0  0  # atno 10764 bound_to 10752
  154.8501  135.3596  154.5947 H   0  0  0  0  0  0  0  0  0  0  0  0  # atno 10765 bound_to 10752
  141.0949  133.8988  157.1986 H   0  0  0  0  0  0  0  0  0  0  0  0  # atno 11005 bound_to 11000
  145.8634  140.9462  143.0688 LP  0  0  0  0  0  0  0  0  0  0  0  0  # atno 17320 bound_to 7965
  144.6746  140.0560  143.7477 LP  0  0  0  0  0  0  0  0  0  0  0  0  # atno 17321 bound_to 7965
  139.8192  143.7843  152.3176 LP  0  0  0  0  0  0  0  0  0  0  0  0  # atno 17342 bound_to 10162
  139.7920  144.7406  150.9942 LP  0  0  0  0  0  0  0  0  0  0  0  0  # atno 17343 bound_to 10162
  156.6281  130.4424  149.5797 LP  0  0  0  0  0  0  0  0  0  0  0  0  # atno 17370 bound_to 10713
  156.2303  130.6791  151.1457 LP  0  0  0  0  0  0  0  0  0  0  0  0  # atno 17371 bound_to 10713
  139.9784  135.0106  156.9688 LP  0  0  0  0  0  0  0  0  0  0  0  0  # atno 17394 bound_to 11000
  140.5163  134.0951  155.7281 LP  0  0  0  0  0  0  0  0  0  0  0  0  # atno 17395 bound_to 11000

$$$$
