AV-unprocessed.smi:3335|AV-procd|sdf|12845|dock5
  -GOLD-   2272019233D 1   1.00000     0.00000
 Structure written by MMmdl.
 46 47  0  0  0  0  0  0  0  0  1 V2000
  154.3965  142.2718  163.5992 C   0  0  0  0  0  0  0  0  0  0  0  0
  153.6588  142.6900  162.3603 C   0  0  0  0  0  0  0  0  0  0  0  0
  152.7311  143.7599  162.2136 C   0  0  0  0  0  0  0  0  0  0  0  0
  152.2526  143.8601  160.9850 N   0  0  0  0  0  0  0  0  0  0  0  0
  152.8580  142.8633  160.3012 N   0  0  0  0  0  0  0  0  0  0  0  0
  152.5614  142.6523  158.8898 C   0  0  2  0  0  0  0  0  0  0  0  0
  151.6450  143.7755  158.3658 C   0  0  0  0  0  0  0  0  0  0  0  0
  151.9873  141.2338  158.6261 C   0  0  2  0  0  0  0  0  0  0  0  0
  153.0080  140.1025  158.8497 C   0  0  0  0  0  0  0  0  0  0  0  0
  151.5505  141.1464  157.2345 N   0  0  0  0  0  0  0  0  0  0  0  0
  150.1008  141.3326  157.0511 C   0  0  2  0  0  0  0  0  0  0  0  0
  149.3026  140.5085  158.0797 C   0  0  0  0  0  0  0  0  0  0  0  0
  149.6806  140.9272  155.6241 C   0  0  0  0  0  0  0  0  0  0  0  0
  150.5133  140.3993  154.8840 O   0  0  0  0  0  0  0  0  0  0  0  0
  148.4119  141.1517  155.2164 N   0  0  0  0  0  0  0  0  0  0  0  0
  147.9296  140.8086  153.8789 C   0  0  0  0  0  0  0  0  0  0  0  0
  146.5362  141.4270  153.7650 C   0  0  0  0  0  0  0  0  0  0  0  0
  146.0531  141.5183  155.2048 C   0  0  0  0  0  0  0  0  0  0  0  0
  147.3319  141.7334  156.0142 C   0  0  0  0  0  0  0  0  0  0  0  0
  153.7116  142.1423  161.1099 C   0  0  0  0  0  0  0  0  0  0  0  0
  153.9259  142.6621  164.5018 H   0  0  0  0  0  0  0  0  0  0  0  0
  155.4262  142.6288  163.5928 H   0  0  0  0  0  0  0  0  0  0  0  0
  154.4320  141.1869  163.7005 H   0  0  0  0  0  0  0  0  0  0  0  0
  152.3919  144.4618  162.9610 H   0  0  0  0  0  0  0  0  0  0  0  0
  153.5127  142.7352  158.3612 H   0  0  0  0  0  0  0  0  0  0  0  0
  151.5321  143.7249  157.2829 H   0  0  0  0  0  0  0  0  0  0  0  0
  152.0562  144.7574  158.6012 H   0  0  0  0  0  0  0  0  0  0  0  0
  150.6485  143.7174  158.8045 H   0  0  0  0  0  0  0  0  0  0  0  0
  151.1555  141.0618  159.3109 H   0  0  0  0  0  0  0  0  0  0  0  0
  153.3213  140.0440  159.8921 H   0  0  0  0  0  0  0  0  0  0  0  0
  153.9021  140.2467  158.2419 H   0  0  0  0  0  0  0  0  0  0  0  0
  152.5822  139.1319  158.5916 H   0  0  0  0  0  0  0  0  0  0  0  0
  151.8674  140.2788  156.8258 H   0  0  0  0  0  0  0  0  0  0  0  0
  149.8826  142.3900  157.1969 H   0  0  0  0  0  0  0  0  0  0  0  0
  148.2282  140.6194  157.9285 H   0  0  0  0  0  0  0  0  0  0  0  0
  149.5139  140.8238  159.1014 H   0  0  0  0  0  0  0  0  0  0  0  0
  149.5378  139.4457  158.0084 H   0  0  0  0  0  0  0  0  0  0  0  0
  148.5923  141.1792  153.0952 H   0  0  0  0  0  0  0  0  0  0  0  0
  147.8739  139.7227  153.7898 H   0  0  0  0  0  0  0  0  0  0  0  0
  146.6136  142.4294  153.3416 H   0  0  0  0  0  0  0  0  0  0  0  0
  145.8664  140.8470  153.1296 H   0  0  0  0  0  0  0  0  0  0  0  0
  145.3179  142.3093  155.3560 H   0  0  0  0  0  0  0  0  0  0  0  0
  145.5918  140.5732  155.4943 H   0  0  0  0  0  0  0  0  0  0  0  0
  147.2502  141.2742  157.0002 H   0  0  0  0  0  0  0  0  0  0  0  0
  147.5222  142.7994  156.1464 H   0  0  0  0  0  0  0  0  0  0  0  0
  154.2786  141.3036  160.7335 H   0  0  0  0  0  0  0  0  0  0  0  0
  1  2  1  0  0  0  0
  1 21  1  0  0  0  0
  1 22  1  0  0  0  0
  1 23  1  0  0  0  0
  2 20  2  0  0  0  0
  2  3  1  0  0  0  0
  3  4  2  0  0  0  0
  3 24  1  0  0  0  0
  4  5  1  0  0  0  0
  5  6  1  0  0  0  0
  5 20  1  0  0  0  0
  6  7  1  0  0  0  0
  6  8  1  0  0  0  0
  6 25  1  0  0  0  0
  7 26  1  0  0  0  0
  7 27  1  0  0  0  0
  7 28  1  0  0  0  0
  8  9  1  0  0  0  0
  8 10  1  0  0  0  0
  8 29  1  0  0  0  0
  9 30  1  0  0  0  0
  9 31  1  0  0  0  0
  9 32  1  0  0  0  0
 10 11  1  0  0  0  0
 10 33  1  0  0  0  0
 11 12  1  0  0  0  0
 11 13  1  0  0  0  0
 11 34  1  0  0  0  0
 12 35  1  0  0  0  0
 12 36  1  0  0  0  0
 12 37  1  0  0  0  0
 13 14  2  0  0  0  0
 13 15  1  0  0  0  0
 15 19  1  0  0  0  0
 15 16  1  0  0  0  0
 16 17  1  0  0  0  0
 16 38  1  0  0  0  0
 16 39  1  0  0  0  0
 17 18  1  0  0  0  0
 17 40  1  0  0  0  0
 17 41  1  0  0  0  0
 18 19  1  0  0  0  0
 18 42  1  0  0  0  0
 18 43  1  0  0  0  0
 19 44  1  0  0  0  0
 19 45  1  0  0  0  0
 20 46  1  0  0  0  0
M  END
> <s_m_source_file>
AV-unprocessed.smi

> <i_m_source_file_index>
3335

> <i_lp_mmshare_version>
43012

> <i_f3d_flags>
0

> <s_epik_input>
W0NIM11jMVtjSF1ubihbY0hdMSlbQ0BIXShbQ0gzXSlbQ0BIXShbQ0gzXSlbTkhdW0NASF0oW0NIM10pQyg9TylOMltDSDJdW0NIMl1bQ0gyXVtDSDJdMg==

> <s_epik_cmdline>
J2VwaWtfcHl0aG9uJywgJy1waCcsICc3LjAnLCAnLXRuJywgJzgnLCAnLW1hJywgJzIwMCcsICctbWV0YWxfYmluZGluZycsICctaW1hZScsICc8aW5maWxlLm1hZT4nLCAnLW9tYWUnLCAnPG91dGZpbGUubWFlPic=

> <r_lp_tautomer_probability>
1

> <r_epik_Ionization_Penalty>
0.918803

> <r_epik_Ionization_Penalty_Charging>
0

> <r_epik_Ionization_Penalty_Neutral>
0.918803

> <r_epik_State_Penalty>
0.958258

> <r_epik_Charging_Adjusted_Penalty>
0.958258

> <i_epik_Tot_Q>
0

> <i_epik_Tot_abs_Q>
0

> <r_epik_Metal_State_Penalty>
0.956786

> <b_epik_Metal_Only>
0

> <s_lp_Force_Field>
OPLS_2005

> <r_lp_Energy>
39.0848

> <b_lp_Chiralities_Consistent>
1

> <s_lp_Variant>
AV-unprocessed.smi:3335-9

> <Gold.Version>
5.8.1

> <Gold.Id.Protein>
6NUR|6NUR_protein|mol2

> <Gold.PLP.Fitness>
46.9331

> <Gold.PLP.PLP>
-45.5177

> <Gold.PLP.part.hbond>
-1.0000

> <Gold.PLP.part.metal>
0.0000

> <Gold.PLP.part.buried>
-2.6782

> <Gold.PLP.part.nonpolar>
-41.0002

> <Gold.PLP.part.repulsive>
0.2044

> <Gold.PLP.ligand.clash>
0.0000

> <Gold.PLP.ligand.torsion>
0.8590

> <Gold.PLP.Chemscore.Hbond>
1.0000

> <Gold.PLP.Chemscore.CHOScore>
0.0000

> <Gold.PLP.Chemscore.Metal>
0.0000

> <Gold.Chemscore.Hbonds>
donor molecule, donor type, donor heavy atom, donor atom, acceptor molecule, acceptor atom, score
      P1  H  7989  7998       L1    14  1.00

> <Gold.PLP.Chemscore.Internal.Correction>
0.1333

> <Gold.Rescore>
     Score         DG    S(hbond)    S(metal)    S(lipo)     H(rot)  DE(clash)    DE(int)     intcor
     16.38     -17.77       0.99        0.00     112.28       1.62       0.25       1.14       ----

> <Gold.Chemscore.Fitness>
16.3766

> <Gold.Chemscore.DG>
-17.7684

> <Gold.Chemscore.ZeroCoef>
-5.4800

> <Gold.Chemscore.Hbond>
0.9880

> <Gold.Chemscore.Metal>
0.0000

> <Gold.Chemscore.Lipo>
112.2800

> <Gold.Chemscore.Internal_Hbond>
0.0000

> <Gold.Chemscore.DEClash>
0.2535

> <Gold.Chemscore.DEInternal>
1.1382

> <Gold.Chemscore.Rot>
1.6204

> <Gold.Chemscore.Internal.Correction>
   9.000000E+99

> <Gold.Chemscore.Hbonds>
donor molecule, donor type, donor heavy atom, donor atom, acceptor molecule, acceptor atom, score
      P1  H  7989  7998       L1    14  0.98

> <Gold.Chemscore.Hbond.Weighted>
-3.2998

> <Gold.Chemscore.Metal.Weighted>
-0.0000

> <Gold.Chemscore.Lipo.Weighted>
-13.1368

> <Gold.Chemscore.Internal_Hbond.Weighted>
0.0000

> <Gold.Chemscore.DEClash.Weighted>
0.2535

> <Gold.Chemscore.DEInternal.Weighted>
1.1382

> <Gold.Chemscore.Rot.Weighted>
4.1482

> <Gold.Chemscore.Internal.Correction.Weighted>
   9.000000E+99

> <Gold.Protein.RotatedTorsions>
[ 6907 6896 6895 6894 ] final   43.80 input  -60.11 | X-H torsion
[ 7974 7965 7964 7962 ] final  -28.09 input  175.53 | X-H torsion
[ 8008 7997 7996 7995 ] final  -14.07 input   59.86 | X-H torsion
[ 10167 10162 10161 10158 ] final  133.56 input  -65.29 | X-H torsion
[ 10718 10713 10712 10709 ] final   22.94 input   66.30 | X-H torsion
[ 10763 10752 10751 10750 ] final  -82.17 input  -60.55 | X-H torsion
[ 11005 11000 10999 10996 ] final -152.71 input  -57.11 | X-H torsion

> <Gold.Protein.ActiveResidues>
 VAL166  LYS551  ARG553  GLY616  TRP617  ASP618  TYR619  PRO620  LYS621  CYS622 
 ASP623  PHE694  ASN695  SER759  ASP760  ASP761  ALA762  ILE779  LEU786  VAL792 
 PHE793  MET794  SER795  GLU796  ALA797  LYS798  CYS799  TRP800  GLU811  SER814 

> <Gold.Protein.RotatedAtoms>
  152.2248  134.8379  160.0481 H   0  0  0  0  0  0  0  0  0  0  0  0  # atno 6907 bound_to 6896
  151.9149  133.3565  159.3885 H   0  0  0  0  0  0  0  0  0  0  0  0  # atno 6908 bound_to 6896
  150.7009  134.4619  159.5429 H   0  0  0  0  0  0  0  0  0  0  0  0  # atno 6909 bound_to 6896
  146.1312  140.5237  142.8692 H   0  0  0  0  0  0  0  0  0  0  0  0  # atno 7974 bound_to 7965
  154.5240  140.2233  155.8924 H   0  0  0  0  0  0  0  0  0  0  0  0  # atno 8008 bound_to 7997
  156.1693  140.3125  155.8910 H   0  0  0  0  0  0  0  0  0  0  0  0  # atno 8009 bound_to 7997
  155.3591  140.0460  157.3037 H   0  0  0  0  0  0  0  0  0  0  0  0  # atno 8010 bound_to 7997
  139.5292  144.6609  151.5014 H   0  0  0  0  0  0  0  0  0  0  0  0  # atno 10167 bound_to 10162
  157.1593  130.6709  149.6038 H   0  0  0  0  0  0  0  0  0  0  0  0  # atno 10718 bound_to 10713
  154.5724  135.5601  153.7108 H   0  0  0  0  0  0  0  0  0  0  0  0  # atno 10763 bound_to 10752
  153.0053  135.6300  154.2095 H   0  0  0  0  0  0  0  0  0  0  0  0  # atno 10764 bound_to 10752
  154.2035  135.2877  155.2962 H   0  0  0  0  0  0  0  0  0  0  0  0  # atno 10765 bound_to 10752
  140.7160  134.3780  157.5191 H   0  0  0  0  0  0  0  0  0  0  0  0  # atno 11005 bound_to 11000
  144.7693  140.5601  143.6681 LP  0  0  0  0  0  0  0  0  0  0  0  0  # atno 17320 bound_to 7965
  145.5255  139.1476  143.3528 LP  0  0  0  0  0  0  0  0  0  0  0  0  # atno 17321 bound_to 7965
  140.6458  143.8798  150.6735 LP  0  0  0  0  0  0  0  0  0  0  0  0  # atno 17342 bound_to 10162
  140.2147  143.3856  152.1690 LP  0  0  0  0  0  0  0  0  0  0  0  0  # atno 17343 bound_to 10162
  155.9756  130.4717  150.6475 LP  0  0  0  0  0  0  0  0  0  0  0  0  # atno 17370 bound_to 10713
  157.4148  131.0828  151.1187 LP  0  0  0  0  0  0  0  0  0  0  0  0  # atno 17371 bound_to 10713
  139.8860  134.8922  156.2612 LP  0  0  0  0  0  0  0  0  0  0  0  0  # atno 17394 bound_to 11000
  141.0044  133.7132  156.1011 LP  0  0  0  0  0  0  0  0  0  0  0  0  # atno 17395 bound_to 11000

$$$$
