AV-unprocessed.smi:809|AV-procd|sdf|3808|dock6
  -GOLD-   22720 1243D 1   1.00000     0.00000
 Structure written by MMmdl.
 39 40  0  0  0  0  0  0  0  0  3 V2000
  153.1731  142.7153  161.6169 C   0  0  0  0  0  0  0  0  0  0  0  0
  152.6471  143.4431  160.4201 C   0  0  0  0  0  0  0  0  0  0  0  0
  152.3938  144.7860  160.3155 C   0  0  0  0  0  0  0  0  0  0  0  0
  151.7849  145.2043  158.7395 S   0  0  0  0  0  0  0  0  0  0  0  0
  151.9013  143.5102  158.2577 C   0  0  0  0  0  0  0  0  0  0  0  0
  151.5622  143.0297  157.0504 N   0  5  0  0  0  0  0  0  0  0  0  0
  150.8809  141.8665  156.9542 C   0  0  0  0  0  0  0  0  0  0  0  0
  151.1220  140.8282  157.5741 O   0  0  0  0  0  0  0  0  0  0  0  0
  149.8704  141.9080  156.0732 N   0  0  0  0  0  0  0  0  0  0  0  0
  148.9975  140.7989  155.6918 C   0  0  0  0  0  0  0  0  0  0  0  0
  149.3592  140.1969  154.3061 C   0  0  1  0  0  0  0  0  0  0  0  0
  149.4708  141.2892  153.4130 O   0  0  0  0  0  0  0  0  0  0  0  0
  150.6782  139.3899  154.2545 C   0  0  0  0  0  0  0  0  0  0  0  0
  150.5558  138.0431  154.9875 C   0  0  0  0  0  0  0  0  0  0  0  0
  149.4487  137.2319  154.4248 N   0  3  1  0  0  0  0  0  0  0  0  0
  149.3784  135.8843  155.0292 C   0  0  0  0  0  0  0  0  0  0  0  0
  148.1472  137.9433  154.4788 C   0  0  0  0  0  0  0  0  0  0  0  0
  148.2218  139.3054  153.7607 C   0  0  0  0  0  0  0  0  0  0  0  0
  152.3572  142.7375  159.2499 N   0  0  0  0  0  0  0  0  0  0  0  0
  153.5798  143.4059  162.3560 H   0  0  0  0  0  0  0  0  0  0  0  0
  153.9697  142.0241  161.3402 H   0  0  0  0  0  0  0  0  0  0  0  0
  152.3857  142.1379  162.1018 H   0  0  0  0  0  0  0  0  0  0  0  0
  152.5259  145.5514  161.0651 H   0  0  0  0  0  0  0  0  0  0  0  0
  149.7149  142.7853  155.5975 H   0  0  0  0  0  0  0  0  0  0  0  0
  149.0258  140.0270  156.4598 H   0  0  0  0  0  0  0  0  0  0  0  0
  147.9676  141.1586  155.6917 H   0  0  0  0  0  0  0  0  0  0  0  0
  149.2745  140.9893  152.5389 H   0  0  0  0  0  0  0  0  0  0  0  0
  150.9388  139.1899  153.2138 H   0  0  0  0  0  0  0  0  0  0  0  0
  151.5139  139.9628  154.6565 H   0  0  0  0  0  0  0  0  0  0  0  0
  151.4934  137.4941  154.8918 H   0  0  0  0  0  0  0  0  0  0  0  0
  150.3900  138.1962  156.0535 H   0  0  0  0  0  0  0  0  0  0  0  0
  149.1547  135.9456  156.0951 H   0  0  0  0  0  0  0  0  0  0  0  0
  150.3257  135.3577  154.9080 H   0  0  0  0  0  0  0  0  0  0  0  0
  148.6021  135.2870  154.5497 H   0  0  0  0  0  0  0  0  0  0  0  0
  147.3821  137.3287  154.0032 H   0  0  0  0  0  0  0  0  0  0  0  0
  147.8406  138.0679  155.5177 H   0  0  0  0  0  0  0  0  0  0  0  0
  147.2636  139.8206  153.8403 H   0  0  0  0  0  0  0  0  0  0  0  0
  148.3787  139.1221  152.6961 H   0  0  0  0  0  0  0  0  0  0  0  0
  149.6626  137.0967  153.4471 H   0  0  0  0  0  0  0  0  0  0  0  0
  1  2  1  0  0  0  0
  1 20  1  0  0  0  0
  1 21  1  0  0  0  0
  1 22  1  0  0  0  0
  2 19  1  0  0  0  0
  2  3  2  0  0  0  0
  3  4  1  0  0  0  0
  3 23  1  0  0  0  0
  4  5  1  0  0  0  0
  5  6  1  0  0  0  0
  5 19  2  0  0  0  0
  6  7  1  0  0  0  0
  7  8  2  0  0  0  0
  7  9  1  0  0  0  0
  9 10  1  0  0  0  0
  9 24  1  0  0  0  0
 10 11  1  0  0  0  0
 10 25  1  0  0  0  0
 10 26  1  0  0  0  0
 11 18  1  0  0  0  0
 11 12  1  0  0  0  0
 11 13  1  0  0  0  0
 12 27  1  0  0  0  0
 13 14  1  0  0  0  0
 13 28  1  0  0  0  0
 13 29  1  0  0  0  0
 14 15  1  0  0  0  0
 14 30  1  0  0  0  0
 14 31  1  0  0  0  0
 15 16  1  0  0  0  0
 15 17  1  0  0  0  0
 15 39  1  0  0  0  0
 16 32  1  0  0  0  0
 16 33  1  0  0  0  0
 16 34  1  0  0  0  0
 17 18  1  0  0  0  0
 17 35  1  0  0  0  0
 17 36  1  0  0  0  0
 18 37  1  0  0  0  0
 18 38  1  0  0  0  0
M  CHG  1   6  -1
M  CHG  1  15   1
M  END
> <s_m_source_file>
AV-unprocessed.smi

> <i_m_source_file_index>
809

> <i_lp_mmshare_version>
43012

> <i_f3d_flags>
0

> <s_epik_input>
W0NIM11jMVtjSF1zYyhuMSlbTkhdQyg9TylbTkhdW0NIMl1DMihbT0hdKVtDSDJdW0NIMl1OKFtDSDNdKVtDSDJdW0NIMl0y

> <s_epik_cmdline>
J2VwaWtfcHl0aG9uJywgJy1waCcsICc3LjAnLCAnLXRuJywgJzgnLCAnLW1hJywgJzIwMCcsICctbWV0YWxfYmluZGluZycsICctaW1hZScsICc8aW5maWxlLm1hZT4nLCAnLW9tYWUnLCAnPG91dGZpbGUubWFlPic=

> <r_lp_tautomer_probability>
0.999

> <r_epik_Ionization_Penalty>
8.50704

> <r_epik_Ionization_Penalty_Charging>
6.65046

> <r_epik_Ionization_Penalty_Neutral>
1.85657

> <r_epik_State_Penalty>
6.64992

> <r_epik_Charging_Adjusted_Penalty>
13.3004

> <i_epik_Tot_Q>
0

> <i_epik_Tot_abs_Q>
2

> <r_epik_Metal_State_Penalty>
2.57297

> <b_epik_Metal_Only>
1

> <s_lp_Force_Field>
OPLS_2005

> <r_lp_Energy>
8.4344

> <b_lp_Chiralities_Consistent>
1

> <s_lp_Variant>
AV-unprocessed.smi:809-4

> <Gold.Version>
5.8.1

> <Gold.Id.Protein>
6NUR|6NUR_protein|mol2

> <Gold.PLP.Fitness>
49.0944

> <Gold.PLP.PLP>
-38.9854

> <Gold.PLP.part.hbond>
-5.0000

> <Gold.PLP.part.metal>
0.0000

> <Gold.PLP.part.buried>
-4.2598

> <Gold.PLP.part.nonpolar>
-29.3244

> <Gold.PLP.part.repulsive>
0.2187

> <Gold.PLP.ligand.clash>
0.0000

> <Gold.PLP.ligand.torsion>
0.9308

> <Gold.PLP.Chemscore.Hbond>
3.9857

> <Gold.PLP.Chemscore.CHOScore>
0.0000

> <Gold.PLP.Chemscore.Metal>
0.0000

> <Gold.Chemscore.Hbonds>
donor molecule, donor type, donor heavy atom, donor atom, acceptor molecule, acceptor atom, score
      L1  H     9    24       P1  8028  0.78
      L1  H    12    27       P1  7957  1.00
      L1  H    15    39       P1  7948  1.70
      P1  H  7989  7998       L1    12  0.02

> <Gold.PLP.Chemscore.Internal.Correction>
0.0137

> <Gold.Rescore>
     Score         DG    S(hbond)    S(metal)    S(lipo)     H(rot)  DE(clash)    DE(int)     intcor
     18.18     -20.58       2.95        0.00      84.58       1.82       0.04       2.36       ----

> <Gold.Chemscore.Fitness>
18.1846

> <Gold.Chemscore.DG>
-20.5810

> <Gold.Chemscore.ZeroCoef>
-5.4800

> <Gold.Chemscore.Hbond>
2.9523

> <Gold.Chemscore.Metal>
0.0000

> <Gold.Chemscore.Lipo>
84.5810

> <Gold.Chemscore.Internal_Hbond>
0.0000

> <Gold.Chemscore.DEClash>
0.0394

> <Gold.Chemscore.DEInternal>
2.3571

> <Gold.Chemscore.Rot>
1.8186

> <Gold.Chemscore.Internal.Correction>
   9.000000E+99

> <Gold.Chemscore.Hbonds>
donor molecule, donor type, donor heavy atom, donor atom, acceptor molecule, acceptor atom, score
      L1  H     9    24       P1  8028  0.74
      L1  H    12    27       P1  7957  0.97
      L1  H    15    39       P1  7948  0.58

> <Gold.Chemscore.Hbond.Weighted>
-9.8608

> <Gold.Chemscore.Metal.Weighted>
-0.0000

> <Gold.Chemscore.Lipo.Weighted>
-9.8960

> <Gold.Chemscore.Internal_Hbond.Weighted>
0.0000

> <Gold.Chemscore.DEClash.Weighted>
0.0394

> <Gold.Chemscore.DEInternal.Weighted>
2.3571

> <Gold.Chemscore.Rot.Weighted>
4.6557

> <Gold.Chemscore.Internal.Correction.Weighted>
   9.000000E+99

> <Gold.Protein.RotatedTorsions>
[ 6907 6896 6895 6894 ] final  141.96 input  -60.11 | X-H torsion
[ 7974 7965 7964 7962 ] final -132.16 input  175.53 | X-H torsion
[ 8008 7997 7996 7995 ] final   -7.44 input   59.86 | X-H torsion
[ 10167 10162 10161 10158 ] final  114.27 input  -65.29 | X-H torsion
[ 10718 10713 10712 10709 ] final   44.49 input   66.30 | X-H torsion
[ 10763 10752 10751 10750 ] final  106.86 input  -60.55 | X-H torsion
[ 11005 11000 10999 10996 ] final  138.97 input  -57.11 | X-H torsion

> <Gold.Protein.ActiveResidues>
 VAL166  LYS551  ARG553  GLY616  TRP617  ASP618  TYR619  PRO620  LYS621  CYS622 
 ASP623  PHE694  ASN695  SER759  ASP760  ASP761  ALA762  ILE779  LEU786  VAL792 
 PHE793  MET794  SER795  GLU796  ALA797  LYS798  CYS799  TRP800  GLU811  SER814 

> <Gold.Protein.RotatedAtoms>
  152.2246  133.5010  159.5181 H   0  0  0  0  0  0  0  0  0  0  0  0  # atno 6907 bound_to 6896
  150.7021  134.1297  159.4074 H   0  0  0  0  0  0  0  0  0  0  0  0  # atno 6908 bound_to 6896
  151.9218  135.0295  160.0573 H   0  0  0  0  0  0  0  0  0  0  0  0  # atno 6909 bound_to 6896
  144.9311  140.7129  143.4905 H   0  0  0  0  0  0  0  0  0  0  0  0  # atno 7974 bound_to 7965
  154.5838  140.2407  155.8016 H   0  0  0  0  0  0  0  0  0  0  0  0  # atno 8008 bound_to 7997
  156.2198  140.3001  155.9882 H   0  0  0  0  0  0  0  0  0  0  0  0  # atno 8009 bound_to 7997
  155.2494  140.0410  157.2975 H   0  0  0  0  0  0  0  0  0  0  0  0  # atno 8010 bound_to 7997
  139.6401  144.7123  151.2255 H   0  0  0  0  0  0  0  0  0  0  0  0  # atno 10167 bound_to 10162
  157.4273  130.8004  149.7570 H   0  0  0  0  0  0  0  0  0  0  0  0  # atno 10718 bound_to 10713
  153.3987  135.3863  155.1973 H   0  0  0  0  0  0  0  0  0  0  0  0  # atno 10763 bound_to 10752
  154.8727  135.3766  154.4645 H   0  0  0  0  0  0  0  0  0  0  0  0  # atno 10764 bound_to 10752
  153.5140  135.7087  153.5827 H   0  0  0  0  0  0  0  0  0  0  0  0  # atno 10765 bound_to 10752
  140.0221  134.9392  157.0495 H   0  0  0  0  0  0  0  0  0  0  0  0  # atno 11005 bound_to 11000
  145.3140  139.1809  143.4623 LP  0  0  0  0  0  0  0  0  0  0  0  0  # atno 17320 bound_to 7965
  146.3247  140.3149  142.8629 LP  0  0  0  0  0  0  0  0  0  0  0  0  # atno 17321 bound_to 7965
  140.7486  143.6327  150.8408 LP  0  0  0  0  0  0  0  0  0  0  0  0  # atno 17342 bound_to 10162
  139.9963  143.5792  152.2892 LP  0  0  0  0  0  0  0  0  0  0  0  0  # atno 17343 bound_to 10162
  155.9901  130.3947  150.3044 LP  0  0  0  0  0  0  0  0  0  0  0  0  # atno 17370 bound_to 10713
  157.1197  131.0243  151.3014 LP  0  0  0  0  0  0  0  0  0  0  0  0  # atno 17371 bound_to 10713
  140.4369  134.1722  155.7171 LP  0  0  0  0  0  0  0  0  0  0  0  0  # atno 17394 bound_to 11000
  141.1780  133.8473  157.1355 LP  0  0  0  0  0  0  0  0  0  0  0  0  # atno 17395 bound_to 11000

$$$$
