AV-unprocessed.smi:2322|AV-procd|sdf|9288|dock1
  -GOLD-   2272012513D 1   1.00000     0.00000
 Structure written by MMmdl.
 38 40  0  0  0  0  0  0  0  0  1 V2000
  147.3403  133.0476  152.2688 C   0  0  0  0  0  0  0  0  0  0  0  0
  148.1691  132.4464  153.2961 N   0  0  0  0  0  0  0  0  0  0  0  0
  148.1212  131.1153  153.5368 N   0  0  0  0  0  0  0  0  0  0  0  0
  149.0045  130.9638  154.5229 C   0  0  0  0  0  0  0  0  0  0  0  0
  149.6288  132.1022  154.9467 N   0  0  0  0  0  0  0  0  0  0  0  0
  149.0579  132.9883  154.1347 C   0  0  0  0  0  0  0  0  0  0  0  0
  149.3009  134.3933  154.0911 N   0  0  0  0  0  0  0  0  0  0  0  0
  149.9057  135.2190  154.9704 C   0  0  0  0  0  0  0  0  0  0  0  0
  150.3596  134.7923  156.0308 O   0  0  0  0  0  0  0  0  0  0  0  0
  149.9715  136.5142  154.6204 N   0  0  0  0  0  0  0  0  0  0  0  0
  150.5629  137.5800  155.4227 C   0  0  1  0  0  0  0  0  0  0  0  0
  151.8732  137.0903  156.0530 C   0  0  0  0  0  0  0  0  0  0  0  0
  152.5750  138.2326  156.8030 C   0  0  0  0  0  0  0  0  0  0  0  0
  152.8046  139.3355  155.9285 O   0  0  0  0  0  0  0  0  0  0  0  0
  151.6331  139.8965  155.3338 C   0  0  2  0  0  0  0  0  0  0  0  0
  150.7813  140.6436  156.3514 C   0  0  0  0  0  0  0  0  0  0  0  0
  149.8445  141.7450  155.9135 C   0  0  0  0  0  0  0  0  0  0  0  0
  151.0875  142.0802  156.7030 C   0  0  0  0  0  0  0  0  0  0  0  0
  150.8508  138.8195  154.5570 C   0  0  0  0  0  0  0  0  0  0  0  0
  147.9738  133.5135  151.5137 H   0  0  0  0  0  0  0  0  0  0  0  0
  146.6981  133.8077  152.7141 H   0  0  0  0  0  0  0  0  0  0  0  0
  146.7148  132.2937  151.7893 H   0  0  0  0  0  0  0  0  0  0  0  0
  149.2063  129.9947  154.9547 H   0  0  0  0  0  0  0  0  0  0  0  0
  148.9677  134.8474  153.2533 H   0  0  0  0  0  0  0  0  0  0  0  0
  149.5733  136.7805  153.7305 H   0  0  0  0  0  0  0  0  0  0  0  0
  149.8721  137.8456  156.2247 H   0  0  0  0  0  0  0  0  0  0  0  0
  151.6793  136.2611  156.7344 H   0  0  0  0  0  0  0  0  0  0  0  0
  152.5392  136.7084  155.2777 H   0  0  0  0  0  0  0  0  0  0  0  0
  151.9933  138.5436  157.6707 H   0  0  0  0  0  0  0  0  0  0  0  0
  153.5367  137.8888  157.1839 H   0  0  0  0  0  0  0  0  0  0  0  0
  151.9868  140.6324  154.6106 H   0  0  0  0  0  0  0  0  0  0  0  0
  150.4200  140.0291  157.1730 H   0  0  0  0  0  0  0  0  0  0  0  0
  149.8318  142.0120  154.8586 H   0  0  0  0  0  0  0  0  0  0  0  0
  148.8870  141.8211  156.4250 H   0  0  0  0  0  0  0  0  0  0  0  0
  150.9596  142.3805  157.7409 H   0  0  0  0  0  0  0  0  0  0  0  0
  151.9022  142.5695  156.1728 H   0  0  0  0  0  0  0  0  0  0  0  0
  151.4399  138.5199  153.6891 H   0  0  0  0  0  0  0  0  0  0  0  0
  149.9236  139.2398  154.1655 H   0  0  0  0  0  0  0  0  0  0  0  0
  1  2  1  0  0  0  0
  1 20  1  0  0  0  0
  1 21  1  0  0  0  0
  1 22  1  0  0  0  0
  2  6  1  0  0  0  0
  2  3  1  0  0  0  0
  3  4  2  0  0  0  0
  4  5  1  0  0  0  0
  4 23  1  0  0  0  0
  5  6  2  0  0  0  0
  6  7  1  0  0  0  0
  7  8  1  0  0  0  0
  7 24  1  0  0  0  0
  8  9  2  0  0  0  0
  8 10  1  0  0  0  0
 10 11  1  0  0  0  0
 10 25  1  0  0  0  0
 11 19  1  0  0  0  0
 11 12  1  0  0  0  0
 11 26  1  0  0  0  0
 12 13  1  0  0  0  0
 12 27  1  0  0  0  0
 12 28  1  0  0  0  0
 13 14  1  0  0  0  0
 13 29  1  0  0  0  0
 13 30  1  0  0  0  0
 14 15  1  0  0  0  0
 15 16  1  0  0  0  0
 15 19  1  0  0  0  0
 15 31  1  0  0  0  0
 16 18  1  0  0  0  0
 16 17  1  0  0  0  0
 16 32  1  0  0  0  0
 17 18  1  0  0  0  0
 17 33  1  0  0  0  0
 17 34  1  0  0  0  0
 18 35  1  0  0  0  0
 18 36  1  0  0  0  0
 19 37  1  0  0  0  0
 19 38  1  0  0  0  0
M  END
> <s_m_source_file>
AV-unprocessed.smi

> <i_m_source_file_index>
2322

> <i_lp_mmshare_version>
43012

> <i_f3d_flags>
0

> <s_epik_input>
W0NIM11uMW5bY0hdbmMxW05IXUMoPU8pW05IXVtDQEBIXTJbQ0gyXVtDSDJdT1tDQEhdKFtDSDJdMilbQ0hdM1tDSDJdW0NIMl0z

> <s_epik_cmdline>
J2VwaWtfcHl0aG9uJywgJy1waCcsICc3LjAnLCAnLXRuJywgJzgnLCAnLW1hJywgJzIwMCcsICctbWV0YWxfYmluZGluZycsICctaW1hZScsICc8aW5maWxlLm1hZT4nLCAnLW9tYWUnLCAnPG91dGZpbGUubWFlPic=

> <r_lp_tautomer_probability>
1

> <r_epik_Ionization_Penalty>
2.16399e-05

> <r_epik_Ionization_Penalty_Charging>
0

> <r_epik_Ionization_Penalty_Neutral>
2.16399e-05

> <r_epik_State_Penalty>
-0

> <r_epik_Charging_Adjusted_Penalty>
0

> <i_epik_Tot_Q>
0

> <i_epik_Tot_abs_Q>
0

> <r_epik_Metal_State_Penalty>
-0

> <b_epik_Metal_Only>
0

> <s_lp_Force_Field>
OPLS_2005

> <r_lp_Energy>
22.4811

> <b_lp_Chiralities_Consistent>
1

> <s_lp_Variant>
AV-unprocessed.smi:2322-4

> <Gold.Version>
5.8.1

> <Gold.Id.Protein>
6NUR|6NUR_protein|mol2

> <Gold.PLP.Fitness>
39.3772

> <Gold.PLP.PLP>
-31.4373

> <Gold.PLP.part.hbond>
-3.0000

> <Gold.PLP.part.metal>
0.0000

> <Gold.PLP.part.buried>
-2.4722

> <Gold.PLP.part.nonpolar>
-26.6752

> <Gold.PLP.part.repulsive>
0.1987

> <Gold.PLP.ligand.clash>
0.0000

> <Gold.PLP.ligand.torsion>
0.8337

> <Gold.PLP.Chemscore.Hbond>
2.8357

> <Gold.PLP.Chemscore.CHOScore>
0.0000

> <Gold.PLP.Chemscore.Metal>
0.0000

> <Gold.Chemscore.Hbonds>
donor molecule, donor type, donor heavy atom, donor atom, acceptor molecule, acceptor atom, score
      L1  H     7    24       P1  7948  0.90
      L1  H    10    25       P1  7948  0.96
      P1  H  7997  8009       L1    14  1.00

> <Gold.PLP.Chemscore.Internal.Correction>
1.1000

> <Gold.Rescore>
     Score         DG    S(hbond)    S(metal)    S(lipo)     H(rot)  DE(clash)    DE(int)     intcor
     13.37     -16.54       2.44        0.00      53.60       1.31       0.18       3.00       ----

> <Gold.Chemscore.Fitness>
13.3650

> <Gold.Chemscore.DG>
-16.5406

> <Gold.Chemscore.ZeroCoef>
-5.4800

> <Gold.Chemscore.Hbond>
2.4357

> <Gold.Chemscore.Metal>
0.0000

> <Gold.Chemscore.Lipo>
53.6047

> <Gold.Chemscore.Internal_Hbond>
0.0000

> <Gold.Chemscore.DEClash>
0.1800

> <Gold.Chemscore.DEInternal>
2.9956

> <Gold.Chemscore.Rot>
1.3072

> <Gold.Chemscore.Internal.Correction>
   9.000000E+99

> <Gold.Chemscore.Hbonds>
donor molecule, donor type, donor heavy atom, donor atom, acceptor molecule, acceptor atom, score
      L1  H     7    24       P1  7948  0.17
      L1  H    10    25       P1  7948  0.68
      P1  H  7997  8009       L1    14  0.78

> <Gold.Chemscore.Hbond.Weighted>
-8.1353

> <Gold.Chemscore.Metal.Weighted>
-0.0000

> <Gold.Chemscore.Lipo.Weighted>
-6.2717

> <Gold.Chemscore.Internal_Hbond.Weighted>
0.0000

> <Gold.Chemscore.DEClash.Weighted>
0.1800

> <Gold.Chemscore.DEInternal.Weighted>
2.9956

> <Gold.Chemscore.Rot.Weighted>
3.3464

> <Gold.Chemscore.Internal.Correction.Weighted>
   9.000000E+99

> <Gold.Protein.RotatedTorsions>
[ 6907 6896 6895 6894 ] final  -26.32 input  -60.11 | X-H torsion
[ 7974 7965 7964 7962 ] final  147.04 input  175.53 | X-H torsion
[ 8008 7997 7996 7995 ] final -161.53 input   59.86 | X-H torsion
[ 10167 10162 10161 10158 ] final -161.11 input  -65.29 | X-H torsion
[ 10718 10713 10712 10709 ] final  131.69 input   66.30 | X-H torsion
[ 10763 10752 10751 10750 ] final  -25.96 input  -60.55 | X-H torsion
[ 11005 11000 10999 10996 ] final -161.72 input  -57.11 | X-H torsion

> <Gold.Protein.ActiveResidues>
 VAL166  LYS551  ARG553  GLY616  TRP617  ASP618  TYR619  PRO620  LYS621  CYS622 
 ASP623  PHE694  ASN695  SER759  ASP760  ASP761  ALA762  ILE779  LEU786  VAL792 
 PHE793  MET794  SER795  GLU796  ALA797  LYS798  CYS799  TRP800  GLU811  SER814 

> <Gold.Protein.RotatedAtoms>
  151.1627  135.0281  159.8716 H   0  0  0  0  0  0  0  0  0  0  0  0  # atno 6907 bound_to 6896
  152.5451  134.1261  159.8429 H   0  0  0  0  0  0  0  0  0  0  0  0  # atno 6908 bound_to 6896
  151.1358  133.4959  159.2630 H   0  0  0  0  0  0  0  0  0  0  0  0  # atno 6909 bound_to 6896
  144.8623  139.5980  143.5925 H   0  0  0  0  0  0  0  0  0  0  0  0  # atno 7974 bound_to 7965
  155.7935  140.0881  157.1996 H   0  0  0  0  0  0  0  0  0  0  0  0  # atno 8008 bound_to 7997
  154.3984  140.1485  156.3249 H   0  0  0  0  0  0  0  0  0  0  0  0  # atno 8009 bound_to 7997
  155.8535  140.3433  155.5711 H   0  0  0  0  0  0  0  0  0  0  0  0  # atno 8010 bound_to 7997
  139.6489  144.0120  152.2147 H   0  0  0  0  0  0  0  0  0  0  0  0  # atno 10167 bound_to 10162
  157.4943  131.1092  150.9514 H   0  0  0  0  0  0  0  0  0  0  0  0  # atno 10718 bound_to 10713
  153.7083  135.6952  153.5044 H   0  0  0  0  0  0  0  0  0  0  0  0  # atno 10763 bound_to 10752
  153.2291  135.4343  155.0574 H   0  0  0  0  0  0  0  0  0  0  0  0  # atno 10764 bound_to 10752
  154.8323  135.3480  154.6621 H   0  0  0  0  0  0  0  0  0  0  0  0  # atno 10765 bound_to 10752
  140.6172  134.4788  157.5220 H   0  0  0  0  0  0  0  0  0  0  0  0  # atno 11005 bound_to 11000
  146.2869  139.7030  142.9189 LP  0  0  0  0  0  0  0  0  0  0  0  0  # atno 17320 bound_to 7965
  145.4289  141.0413  143.2922 LP  0  0  0  0  0  0  0  0  0  0  0  0  # atno 17321 bound_to 7965
  139.9829  144.6416  150.7884 LP  0  0  0  0  0  0  0  0  0  0  0  0  # atno 17342 bound_to 10162
  140.7528  143.2997  151.3112 LP  0  0  0  0  0  0  0  0  0  0  0  0  # atno 17343 bound_to 10162
  157.0205  130.5672  149.5331 LP  0  0  0  0  0  0  0  0  0  0  0  0  # atno 17370 bound_to 10713
  156.0191  130.5286  150.8224 LP  0  0  0  0  0  0  0  0  0  0  0  0  # atno 17371 bound_to 10713
  139.9168  134.8230  156.1340 LP  0  0  0  0  0  0  0  0  0  0  0  0  # atno 17394 bound_to 11000
  141.0767  133.6772  156.2252 LP  0  0  0  0  0  0  0  0  0  0  0  0  # atno 17395 bound_to 11000

$$$$
