AV-unprocessed.smi:2849|AV-procd|sdf|10962|dock3
  -GOLD-   2272015413D 1   1.00000     0.00000
 Structure written by MMmdl.
 56 59  0  0  0  0  0  0  0  0  3 V2000
  147.5205  133.1948  152.1444 C   0  0  0  0  0  0  0  0  0  0  0  0
  147.6396  132.7307  153.5473 N   0  3  2  0  0  0  0  0  0  0  0  0
  146.7410  133.4137  154.5098 C   0  0  1  0  0  0  0  0  0  0  0  0
  146.6464  132.5621  155.7977 C   0  0  0  0  0  0  0  0  0  0  0  0
  148.0153  132.1987  156.4094 C   0  0  0  0  0  0  0  0  0  0  0  0
  149.0535  131.8028  155.3392 C   0  0  0  0  0  0  0  0  0  0  0  0
  149.0244  132.6969  154.0774 C   0  0  2  0  0  0  0  0  0  0  0  0
  149.5855  134.1275  154.2791 C   0  0  0  0  0  0  0  0  0  0  0  0
  148.6648  135.0734  155.0851 C   0  0  1  0  0  0  0  0  0  0  0  0
  149.0500  136.4605  154.8264 N   0  0  0  0  0  0  0  0  0  0  0  0
  149.3824  137.3714  155.7535 C   0  0  0  0  0  0  0  0  0  0  0  0
  149.4029  137.1401  156.9621 O   0  0  0  0  0  0  0  0  0  0  0  0
  149.6622  138.5588  155.1890 N   0  0  0  0  0  0  0  0  0  0  0  0
  150.1137  139.7496  155.8197 C   0  0  0  0  0  0  0  0  0  0  0  0
  150.9856  139.6231  156.9226 C   0  0  0  0  0  0  0  0  0  0  0  0
  151.4388  140.7779  157.5924 C   0  0  0  0  0  0  0  0  0  0  0  0
  151.0009  142.0500  157.1564 C   0  0  0  0  0  0  0  0  0  0  0  0
  151.3923  143.2577  157.7514 N   0  0  0  0  0  0  0  0  0  0  0  0
  150.3328  144.0025  158.4121 C   0  0  0  0  0  0  0  0  0  0  0  0
  151.0455  145.0106  159.3165 C   0  0  0  0  0  0  0  0  0  0  0  0
  152.4389  144.4147  159.5489 C   0  0  0  0  0  0  0  0  0  0  0  0
  152.4600  143.1224  158.7275 C   0  0  0  0  0  0  0  0  0  0  0  0
  150.1604  142.1290  156.1019 N   0  3  0  0  0  0  0  0  0  0  0  0
  149.7053  141.0490  155.4306 C   0  0  0  0  0  0  0  0  0  0  0  0
  147.1707  134.8850  154.7346 C   0  0  0  0  0  0  0  0  0  0  0  0
  147.8325  134.2317  152.0234 H   0  0  0  0  0  0  0  0  0  0  0  0
  146.4887  133.1106  151.8026 H   0  0  0  0  0  0  0  0  0  0  0  0
  148.1356  132.5786  151.4879 H   0  0  0  0  0  0  0  0  0  0  0  0
  145.7397  133.4308  154.0767 H   0  0  0  0  0  0  0  0  0  0  0  0
  146.0256  133.0628  156.5415 H   0  0  0  0  0  0  0  0  0  0  0  0
  146.1268  131.6346  155.5538 H   0  0  0  0  0  0  0  0  0  0  0  0
  148.3899  133.0181  157.0170 H   0  0  0  0  0  0  0  0  0  0  0  0
  147.8898  131.3759  157.1139 H   0  0  0  0  0  0  0  0  0  0  0  0
  150.0533  131.7884  155.7747 H   0  0  0  0  0  0  0  0  0  0  0  0
  148.8492  130.7761  155.0324 H   0  0  0  0  0  0  0  0  0  0  0  0
  149.6537  132.2033  153.3354 H   0  0  0  0  0  0  0  0  0  0  0  0
  150.5674  134.0789  154.7512 H   0  0  0  0  0  0  0  0  0  0  0  0
  149.7634  134.5613  153.2944 H   0  0  0  0  0  0  0  0  0  0  0  0
  148.8028  134.8622  156.1420 H   0  0  0  0  0  0  0  0  0  0  0  0
  149.0577  136.7524  153.8598 H   0  0  0  0  0  0  0  0  0  0  0  0
  149.5066  138.6268  154.1940 H   0  0  0  0  0  0  0  0  0  0  0  0
  151.3128  138.6481  157.2536 H   0  0  0  0  0  0  0  0  0  0  0  0
  152.1156  140.6804  158.4287 H   0  0  0  0  0  0  0  0  0  0  0  0
  149.6931  144.5024  157.6840 H   0  0  0  0  0  0  0  0  0  0  0  0
  149.7063  143.3414  159.0116 H   0  0  0  0  0  0  0  0  0  0  0  0
  151.1346  145.9739  158.8129 H   0  0  0  0  0  0  0  0  0  0  0  0
  150.5010  145.1723  160.2474 H   0  0  0  0  0  0  0  0  0  0  0  0
  153.2035  145.1063  159.1930 H   0  0  0  0  0  0  0  0  0  0  0  0
  152.6341  144.2187  160.6036 H   0  0  0  0  0  0  0  0  0  0  0  0
  152.2793  142.2622  159.3738 H   0  0  0  0  0  0  0  0  0  0  0  0
  153.4224  142.9770  158.2358 H   0  0  0  0  0  0  0  0  0  0  0  0
  149.0243  141.2715  154.6230 H   0  0  0  0  0  0  0  0  0  0  0  0
  146.9485  135.4428  153.8239 H   0  0  0  0  0  0  0  0  0  0  0  0
  146.5504  135.3408  155.5074 H   0  0  0  0  0  0  0  0  0  0  0  0
  147.3330  131.7684  153.5254 H   0  0  0  0  0  0  0  0  0  0  0  0
  149.8486  143.0521  155.7990 H   0  0  0  0  0  0  0  0  0  0  0  0
  1  2  1  0  0  0  0
  1 26  1  0  0  0  0
  1 27  1  0  0  0  0
  1 28  1  0  0  0  0
  2  7  1  0  0  0  0
  2  3  1  0  0  0  0
  2 55  1  0  0  0  0
  3 25  1  0  0  0  0
  3  4  1  0  0  0  0
  3 29  1  0  0  0  0
  4  5  1  0  0  0  0
  4 30  1  0  0  0  0
  4 31  1  0  0  0  0
  5  6  1  0  0  0  0
  5 32  1  0  0  0  0
  5 33  1  0  0  0  0
  6  7  1  0  0  0  0
  6 34  1  0  0  0  0
  6 35  1  0  0  0  0
  7  8  1  0  0  0  0
  7 36  1  0  0  0  0
  8  9  1  0  0  0  0
  8 37  1  0  0  0  0
  8 38  1  0  0  0  0
  9 10  1  0  0  0  0
  9 25  1  0  0  0  0
  9 39  1  0  0  0  0
 10 11  1  0  0  0  0
 10 40  1  0  0  0  0
 11 12  2  0  0  0  0
 11 13  1  0  0  0  0
 13 14  1  0  0  0  0
 13 41  1  0  0  0  0
 14 24  1  0  0  0  0
 14 15  2  0  0  0  0
 15 16  1  0  0  0  0
 15 42  1  0  0  0  0
 16 17  2  0  0  0  0
 16 43  1  0  0  0  0
 17 18  1  0  0  0  0
 17 23  1  0  0  0  0
 18 22  1  0  0  0  0
 18 19  1  0  0  0  0
 19 20  1  0  0  0  0
 19 44  1  0  0  0  0
 19 45  1  0  0  0  0
 20 21  1  0  0  0  0
 20 46  1  0  0  0  0
 20 47  1  0  0  0  0
 21 22  1  0  0  0  0
 21 48  1  0  0  0  0
 21 49  1  0  0  0  0
 22 50  1  0  0  0  0
 22 51  1  0  0  0  0
 23 24  2  0  0  0  0
 23 56  1  0  0  0  0
 24 52  1  0  0  0  0
 25 53  1  0  0  0  0
 25 54  1  0  0  0  0
M  CHG  1   2   1
M  CHG  1  23   1
M  END
> <s_m_source_file>
AV-unprocessed.smi

> <i_m_source_file_index>
2849

> <i_lp_mmshare_version>
43012

> <i_f3d_flags>
0

> <s_epik_input>
W0NIMl0xW0NIMl1bQ0gyXVtDQEhdKE4oW0NIM10pW0NIXTEyKVtDSDJdW0NASF0oW0NIMl0yKVtOSF1DKD1PKVtOSF1jM1tjSF1bY0hdYyhuW2NIXTMpTjRbQ0gyXVtDSDJdW0NIMl1bQ0gyXTQ=

> <s_epik_cmdline>
J2VwaWtfcHl0aG9uJywgJy1waCcsICc3LjAnLCAnLXRuJywgJzgnLCAnLW1hJywgJzIwMCcsICctbWV0YWxfYmluZGluZycsICctaW1hZScsICc8aW5maWxlLm1hZT4nLCAnLW9tYWUnLCAnPG91dGZpbGUubWFlPic=

> <r_lp_tautomer_probability>
0.999994

> <r_epik_Ionization_Penalty>
1.2404

> <r_epik_Ionization_Penalty_Charging>
1.24038

> <r_epik_Ionization_Penalty_Neutral>
1.86921e-05

> <r_epik_State_Penalty>
1.30821

> <r_epik_Charging_Adjusted_Penalty>
2.54859

> <i_epik_Tot_Q>
2

> <i_epik_Tot_abs_Q>
2

> <r_epik_Metal_State_Penalty>
1.37823

> <b_epik_Metal_Only>
0

> <s_lp_Force_Field>
OPLS_2005

> <r_lp_Energy>
73.3774

> <b_lp_Chiralities_Consistent>
1

> <s_lp_Variant>
AV-unprocessed.smi:2849-6

> <Gold.Version>
5.8.1

> <Gold.Id.Protein>
6NUR|6NUR_protein|mol2

> <Gold.PLP.Fitness>
44.5281

> <Gold.PLP.PLP>
-36.4691

> <Gold.PLP.part.hbond>
-2.0000

> <Gold.PLP.part.metal>
0.0000

> <Gold.PLP.part.buried>
-4.8768

> <Gold.PLP.part.nonpolar>
-30.9412

> <Gold.PLP.part.repulsive>
0.2399

> <Gold.PLP.ligand.clash>
0.0000

> <Gold.PLP.ligand.torsion>
0.4204

> <Gold.PLP.Chemscore.Hbond>
2.9600

> <Gold.PLP.Chemscore.CHOScore>
0.0000

> <Gold.PLP.Chemscore.Metal>
0.0000

> <Gold.Chemscore.Hbonds>
donor molecule, donor type, donor heavy atom, donor atom, acceptor molecule, acceptor atom, score
      L1  H    10    40       P1  7948  0.92
      L1  H    23    56       P1  8028  2.00

> <Gold.PLP.Chemscore.Internal.Correction>
0.0197

> <Gold.Rescore>
     Score         DG    S(hbond)    S(metal)    S(lipo)     H(rot)  DE(clash)    DE(int)     intcor
     19.10     -20.85       1.93        0.00     102.31       1.19       0.15       1.59       ----

> <Gold.Chemscore.Fitness>
19.1019

> <Gold.Chemscore.DG>
-20.8485

> <Gold.Chemscore.ZeroCoef>
-5.4800

> <Gold.Chemscore.Hbond>
1.9279

> <Gold.Chemscore.Metal>
0.0000

> <Gold.Chemscore.Lipo>
102.3101

> <Gold.Chemscore.Internal_Hbond>
0.0000

> <Gold.Chemscore.DEClash>
0.1516

> <Gold.Chemscore.DEInternal>
1.5950

> <Gold.Chemscore.Rot>
1.1879

> <Gold.Chemscore.Internal.Correction>
   9.000000E+99

> <Gold.Chemscore.Hbonds>
donor molecule, donor type, donor heavy atom, donor atom, acceptor molecule, acceptor atom, score
      L1  H    10    40       P1  7948  0.83
      L1  H    23    56       P1  8028  0.99

> <Gold.Chemscore.Hbond.Weighted>
-6.4393

> <Gold.Chemscore.Metal.Weighted>
-0.0000

> <Gold.Chemscore.Lipo.Weighted>
-11.9703

> <Gold.Chemscore.Internal_Hbond.Weighted>
0.0000

> <Gold.Chemscore.DEClash.Weighted>
0.1516

> <Gold.Chemscore.DEInternal.Weighted>
1.5950

> <Gold.Chemscore.Rot.Weighted>
3.0410

> <Gold.Chemscore.Internal.Correction.Weighted>
   9.000000E+99

> <Gold.Protein.RotatedTorsions>
[ 6907 6896 6895 6894 ] final   24.27 input  -60.11 | X-H torsion
[ 7974 7965 7964 7962 ] final  -53.62 input  175.53 | X-H torsion
[ 8008 7997 7996 7995 ] final  173.60 input   59.86 | X-H torsion
[ 10167 10162 10161 10158 ] final -108.31 input  -65.29 | X-H torsion
[ 10718 10713 10712 10709 ] final  129.49 input   66.30 | X-H torsion
[ 10763 10752 10751 10750 ] final -123.38 input  -60.55 | X-H torsion
[ 11005 11000 10999 10996 ] final -147.89 input  -57.11 | X-H torsion

> <Gold.Protein.ActiveResidues>
 VAL166  LYS551  ARG553  GLY616  TRP617  ASP618  TYR619  PRO620  LYS621  CYS622 
 ASP623  PHE694  ASN695  SER759  ASP760  ASP761  ALA762  ILE779  LEU786  VAL792 
 PHE793  MET794  SER795  GLU796  ALA797  LYS798  CYS799  TRP800  GLU811  SER814 

> <Gold.Protein.RotatedAtoms>
  151.9549  135.0151  160.0543 H   0  0  0  0  0  0  0  0  0  0  0  0  # atno 6907 bound_to 6896
  152.1920  133.4775  159.5021 H   0  0  0  0  0  0  0  0  0  0  0  0  # atno 6908 bound_to 6896
  150.6937  134.1617  159.4221 H   0  0  0  0  0  0  0  0  0  0  0  0  # atno 6909 bound_to 6896
  145.8947  140.8042  142.9773 H   0  0  0  0  0  0  0  0  0  0  0  0  # atno 7974 bound_to 7965
  156.1059  140.1456  156.9404 H   0  0  0  0  0  0  0  0  0  0  0  0  # atno 8008 bound_to 7997
  154.4734  140.0902  156.7245 H   0  0  0  0  0  0  0  0  0  0  0  0  # atno 8009 bound_to 7997
  155.4680  140.3440  155.4324 H   0  0  0  0  0  0  0  0  0  0  0  0  # atno 8010 bound_to 7997
  140.1675  143.4070  152.1380 H   0  0  0  0  0  0  0  0  0  0  0  0  # atno 10167 bound_to 10162
  157.5149  131.1097  150.9239 H   0  0  0  0  0  0  0  0  0  0  0  0  # atno 10718 bound_to 10713
  154.8706  135.4100  154.2933 H   0  0  0  0  0  0  0  0  0  0  0  0  # atno 10763 bound_to 10752
  153.3805  135.7011  153.6574 H   0  0  0  0  0  0  0  0  0  0  0  0  # atno 10764 bound_to 10752
  153.5398  135.3650  155.2685 H   0  0  0  0  0  0  0  0  0  0  0  0  # atno 10765 bound_to 10752
  140.7670  134.3233  157.5086 H   0  0  0  0  0  0  0  0  0  0  0  0  # atno 11005 bound_to 11000
  144.6732  140.1584  143.7424 LP  0  0  0  0  0  0  0  0  0  0  0  0  # atno 17320 bound_to 7965
  145.8865  139.2351  143.1575 LP  0  0  0  0  0  0  0  0  0  0  0  0  # atno 17321 bound_to 7965
  139.5353  144.7203  151.4915 LP  0  0  0  0  0  0  0  0  0  0  0  0  # atno 17342 bound_to 10162
  140.6604  143.8511  150.6881 LP  0  0  0  0  0  0  0  0  0  0  0  0  # atno 17343 bound_to 10162
  156.9868  130.5548  149.5300 LP  0  0  0  0  0  0  0  0  0  0  0  0  # atno 17370 bound_to 10713
  156.0313  130.5404  150.8542 LP  0  0  0  0  0  0  0  0  0  0  0  0  # atno 17371 bound_to 10713
  139.8761  134.9237  156.3332 LP  0  0  0  0  0  0  0  0  0  0  0  0  # atno 17394 bound_to 11000
  140.9610  133.7389  156.0401 LP  0  0  0  0  0  0  0  0  0  0  0  0  # atno 17395 bound_to 11000

$$$$
