AV-unprocessed.smi:1784|AV-procd|sdf|7197|dock10
  -GOLD-   22720 8443D 1   1.00000     0.00000
 Structure written by MMmdl.
 43 45  0  0  0  0  0  0  0  0  1 V2000
  145.4915  138.3431  153.4055 O   0  0  0  0  0  0  0  0  0  0  0  0
  146.4822  137.7319  153.0047 C   0  0  0  0  0  0  0  0  0  0  0  0
  146.4265  136.5124  152.4522 N   0  0  0  0  0  0  0  0  0  0  0  0
  145.2103  135.7258  152.2834 C   0  0  0  0  0  0  0  0  0  0  0  0
  145.2959  134.8312  151.0366 C   0  0  1  0  0  0  0  0  0  0  0  0
  146.3827  133.7616  151.1119 C   0  0  0  0  0  0  0  0  0  0  0  0
  145.8790  132.6785  150.1698 C   0  0  0  0  0  0  0  0  0  0  0  0
  144.4015  133.0228  149.9573 C   0  0  0  0  0  0  0  0  0  0  0  0
  144.1191  134.0516  150.8953 O   0  0  0  0  0  0  0  0  0  0  0  0
  147.7491  138.1713  153.0818 N   0  0  0  0  0  0  0  0  0  0  0  0
  148.2263  139.3975  153.6270 C   0  0  0  0  0  0  0  0  0  0  0  0
  147.4870  140.6027  153.5474 C   0  0  0  0  0  0  0  0  0  0  0  0
  148.0295  141.7786  154.0957 C   0  0  0  0  0  0  0  0  0  0  0  0
  149.2977  141.7107  154.6979 C   0  0  0  0  0  0  0  0  0  0  0  0
  150.0216  140.5753  154.7664 N   0  0  0  0  0  0  0  0  0  0  0  0
  149.5058  139.4355  154.2440 C   0  0  0  0  0  0  0  0  0  0  0  0
  150.3016  138.2718  154.2980 N   0  0  0  0  0  0  0  0  0  0  0  0
  151.6708  138.5289  154.7386 C   0  0  0  0  0  0  0  0  0  0  0  0
  152.0498  137.3863  155.6848 C   0  0  0  0  0  0  0  0  0  0  0  0
  150.7031  136.9115  156.2162 C   0  0  0  0  0  0  0  0  0  0  0  0
  149.7917  137.0993  155.0060 C   0  0  0  0  0  0  0  0  0  0  0  0
  147.2907  136.0815  152.1582 H   0  0  0  0  0  0  0  0  0  0  0  0
  145.0319  135.1193  153.1729 H   0  0  0  0  0  0  0  0  0  0  0  0
  144.3649  136.4092  152.2001 H   0  0  0  0  0  0  0  0  0  0  0  0
  145.4367  135.4336  150.1367 H   0  0  0  0  0  0  0  0  0  0  0  0
  147.3661  134.1427  150.8356 H   0  0  0  0  0  0  0  0  0  0  0  0
  146.4488  133.3614  152.1244 H   0  0  0  0  0  0  0  0  0  0  0  0
  146.4156  132.6938  149.2206 H   0  0  0  0  0  0  0  0  0  0  0  0
  146.0049  131.6893  150.6110 H   0  0  0  0  0  0  0  0  0  0  0  0
  144.2375  133.4037  148.9482 H   0  0  0  0  0  0  0  0  0  0  0  0
  143.7453  132.1653  150.1083 H   0  0  0  0  0  0  0  0  0  0  0  0
  148.4644  137.5138  152.8079 H   0  0  0  0  0  0  0  0  0  0  0  0
  146.5233  140.6492  153.0643 H   0  0  0  0  0  0  0  0  0  0  0  0
  147.4876  142.7114  154.0508 H   0  0  0  0  0  0  0  0  0  0  0  0
  149.7479  142.5931  155.1281 H   0  0  0  0  0  0  0  0  0  0  0  0
  152.3505  138.5798  153.8879 H   0  0  0  0  0  0  0  0  0  0  0  0
  151.7278  139.4824  155.2662 H   0  0  0  0  0  0  0  0  0  0  0  0
  152.5271  136.5827  155.1225 H   0  0  0  0  0  0  0  0  0  0  0  0
  152.7341  137.6990  156.4739 H   0  0  0  0  0  0  0  0  0  0  0  0
  150.7227  135.8834  156.5787 H   0  0  0  0  0  0  0  0  0  0  0  0
  150.3759  137.5561  157.0331 H   0  0  0  0  0  0  0  0  0  0  0  0
  148.7419  137.1688  155.2921 H   0  0  0  0  0  0  0  0  0  0  0  0
  149.8805  136.2429  154.3369 H   0  0  0  0  0  0  0  0  0  0  0  0
  1  2  2  0  0  0  0
  2  3  1  0  0  0  0
  2 10  1  0  0  0  0
  3  4  1  0  0  0  0
  3 22  1  0  0  0  0
  4  5  1  0  0  0  0
  4 23  1  0  0  0  0
  4 24  1  0  0  0  0
  5  9  1  0  0  0  0
  5  6  1  0  0  0  0
  5 25  1  0  0  0  0
  6  7  1  0  0  0  0
  6 26  1  0  0  0  0
  6 27  1  0  0  0  0
  7  8  1  0  0  0  0
  7 28  1  0  0  0  0
  7 29  1  0  0  0  0
  8  9  1  0  0  0  0
  8 30  1  0  0  0  0
  8 31  1  0  0  0  0
 10 11  1  0  0  0  0
 10 32  1  0  0  0  0
 11 16  1  0  0  0  0
 11 12  2  0  0  0  0
 12 13  1  0  0  0  0
 12 33  1  0  0  0  0
 13 14  2  0  0  0  0
 13 34  1  0  0  0  0
 14 15  1  0  0  0  0
 14 35  1  0  0  0  0
 15 16  2  0  0  0  0
 16 17  1  0  0  0  0
 17 21  1  0  0  0  0
 17 18  1  0  0  0  0
 18 19  1  0  0  0  0
 18 36  1  0  0  0  0
 18 37  1  0  0  0  0
 19 20  1  0  0  0  0
 19 38  1  0  0  0  0
 19 39  1  0  0  0  0
 20 21  1  0  0  0  0
 20 40  1  0  0  0  0
 20 41  1  0  0  0  0
 21 42  1  0  0  0  0
 21 43  1  0  0  0  0
M  END
> <s_m_source_file>
AV-unprocessed.smi

> <i_m_source_file_index>
1784

> <i_lp_mmshare_version>
43012

> <i_f3d_flags>
0

> <s_epik_input>
TzFbQ0gyXVtDSDJdW0NIMl1bQ0BIXTFbQ0gyXVtOSF1DKD1PKVtOSF1jMltjSF1bY0hdW2NIXW5jMk4zW0NIMl1bQ0gyXVtDSDJdW0NIMl0z

> <s_epik_cmdline>
J2VwaWtfcHl0aG9uJywgJy1waCcsICc3LjAnLCAnLXRuJywgJzgnLCAnLW1hJywgJzIwMCcsICctbWV0YWxfYmluZGluZycsICctaW1hZScsICc8aW5maWxlLm1hZT4nLCAnLW9tYWUnLCAnPG91dGZpbGUubWFlPic=

> <r_lp_tautomer_probability>
1

> <r_epik_Ionization_Penalty>
0.0982482

> <r_epik_Ionization_Penalty_Charging>
0

> <r_epik_Ionization_Penalty_Neutral>
0.0982482

> <r_epik_State_Penalty>
0.0877864

> <r_epik_Charging_Adjusted_Penalty>
0.0877864

> <i_epik_Tot_Q>
0

> <i_epik_Tot_abs_Q>
0

> <r_epik_Metal_State_Penalty>
0.0752567

> <b_epik_Metal_Only>
0

> <s_lp_Force_Field>
OPLS_2005

> <r_lp_Energy>
44.9043

> <b_lp_Chiralities_Consistent>
1

> <s_lp_Variant>
AV-unprocessed.smi:1784-2

> <Gold.Version>
5.8.1

> <Gold.Id.Protein>
6NUR|6NUR_protein|mol2

> <Gold.PLP.Fitness>
44.1657

> <Gold.PLP.PLP>
-33.6045

> <Gold.PLP.part.hbond>
-3.2242

> <Gold.PLP.part.metal>
0.0000

> <Gold.PLP.part.buried>
-0.1542

> <Gold.PLP.part.nonpolar>
-30.9698

> <Gold.PLP.part.repulsive>
1.6109

> <Gold.PLP.ligand.clash>
0.0000

> <Gold.PLP.ligand.torsion>
0.5064

> <Gold.PLP.Chemscore.Hbond>
2.8214

> <Gold.PLP.Chemscore.CHOScore>
1.0000

> <Gold.PLP.Chemscore.Metal>
0.0000

> <Gold.Chemscore.Hbonds>
donor molecule, donor type, donor heavy atom, donor atom, acceptor molecule, acceptor atom, score
      L1  H     3    22       P1  7948  0.99
      L1  H    10    32       P1  7948  1.00
      P1  H  7989  7998       L1    15  0.82
      L1  C    14    35       P1  8028  1.00

> <Gold.PLP.Chemscore.Internal.Correction>
0.1098

> <Gold.Rescore>
     Score         DG    S(hbond)    S(metal)    S(lipo)     H(rot)  DE(clash)    DE(int)     intcor
     16.04     -18.41       1.95        0.00      85.10       1.38       0.05       2.32       ----

> <Gold.Chemscore.Fitness>
16.0354

> <Gold.Chemscore.DG>
-18.4089

> <Gold.Chemscore.ZeroCoef>
-5.4800

> <Gold.Chemscore.Hbond>
1.9473

> <Gold.Chemscore.Metal>
0.0000

> <Gold.Chemscore.Lipo>
85.0996

> <Gold.Chemscore.Internal_Hbond>
0.0000

> <Gold.Chemscore.DEClash>
0.0546

> <Gold.Chemscore.DEInternal>
2.3189

> <Gold.Chemscore.Rot>
1.3796

> <Gold.Chemscore.Internal.Correction>
   9.000000E+99

> <Gold.Chemscore.Hbonds>
donor molecule, donor type, donor heavy atom, donor atom, acceptor molecule, acceptor atom, score
      L1  H     3    22       P1  7948  0.93
      L1  H    10    32       P1  7948  0.94
      P1  H  7989  7998       L1    15  0.11

> <Gold.Chemscore.Hbond.Weighted>
-6.5039

> <Gold.Chemscore.Metal.Weighted>
-0.0000

> <Gold.Chemscore.Lipo.Weighted>
-9.9566

> <Gold.Chemscore.Internal_Hbond.Weighted>
0.0000

> <Gold.Chemscore.DEClash.Weighted>
0.0546

> <Gold.Chemscore.DEInternal.Weighted>
2.3189

> <Gold.Chemscore.Rot.Weighted>
3.5317

> <Gold.Chemscore.Internal.Correction.Weighted>
   9.000000E+99

> <Gold.Protein.RotatedTorsions>
[ 6907 6896 6895 6894 ] final  125.70 input  -60.11 | X-H torsion
[ 7974 7965 7964 7962 ] final  -28.47 input  175.53 | X-H torsion
[ 8008 7997 7996 7995 ] final -120.93 input   59.86 | X-H torsion
[ 10167 10162 10161 10158 ] final  -75.46 input  -65.29 | X-H torsion
[ 10718 10713 10712 10709 ] final  -47.24 input   66.30 | X-H torsion
[ 10763 10752 10751 10750 ] final -110.70 input  -60.55 | X-H torsion
[ 11005 11000 10999 10996 ] final  -15.58 input  -57.11 | X-H torsion

> <Gold.Protein.ActiveResidues>
 VAL166  LYS551  ARG553  GLY616  TRP617  ASP618  TYR619  PRO620  LYS621  CYS622 
 ASP623  PHE694  ASN695  SER759  ASP760  ASP761  ALA762  ILE779  LEU786  VAL792 
 PHE793  MET794  SER795  GLU796  ALA797  LYS798  CYS799  TRP800  GLU811  SER814 

> <Gold.Protein.RotatedAtoms>
  152.3969  133.6759  159.6283 H   0  0  0  0  0  0  0  0  0  0  0  0  # atno 6907 bound_to 6896
  150.7866  133.8859  159.3308 H   0  0  0  0  0  0  0  0  0  0  0  0  # atno 6908 bound_to 6896
  151.6634  135.0988  160.0235 H   0  0  0  0  0  0  0  0  0  0  0  0  # atno 6909 bound_to 6896
  146.1286  140.5287  142.8703 H   0  0  0  0  0  0  0  0  0  0  0  0  # atno 7974 bound_to 7965
  155.1398  140.0401  157.2795 H   0  0  0  0  0  0  0  0  0  0  0  0  # atno 8008 bound_to 7997
  154.6481  140.2563  155.7218 H   0  0  0  0  0  0  0  0  0  0  0  0  # atno 8009 bound_to 7997
  156.2564  140.2842  156.0904 H   0  0  0  0  0  0  0  0  0  0  0  0  # atno 8010 bound_to 7997
  140.4940  143.2374  151.7860 H   0  0  0  0  0  0  0  0  0  0  0  0  # atno 10167 bound_to 10162
  156.2103  130.4160  149.9123 H   0  0  0  0  0  0  0  0  0  0  0  0  # atno 10718 bound_to 10713
  154.8262  135.4554  154.0926 H   0  0  0  0  0  0  0  0  0  0  0  0  # atno 10763 bound_to 10752
  153.2238  135.6897  153.7975 H   0  0  0  0  0  0  0  0  0  0  0  0  # atno 10764 bound_to 10752
  153.7383  135.3316  155.3275 H   0  0  0  0  0  0  0  0  0  0  0  0  # atno 10765 bound_to 10752
  140.7980  133.8236  155.9443 H   0  0  0  0  0  0  0  0  0  0  0  0  # atno 11005 bound_to 11000
  144.7667  140.5546  143.6698 LP  0  0  0  0  0  0  0  0  0  0  0  0  # atno 17320 bound_to 7965
  145.5311  139.1475  143.3499 LP  0  0  0  0  0  0  0  0  0  0  0  0  # atno 17321 bound_to 7965
  139.4857  144.4611  151.9540 LP  0  0  0  0  0  0  0  0  0  0  0  0  # atno 17342 bound_to 10162
  140.3698  144.2869  150.5921 LP  0  0  0  0  0  0  0  0  0  0  0  0  # atno 17343 bound_to 10162
  156.6803  130.8855  151.3575 LP  0  0  0  0  0  0  0  0  0  0  0  0  # atno 17370 bound_to 10713
  157.7035  130.9359  150.0858 LP  0  0  0  0  0  0  0  0  0  0  0  0  # atno 17371 bound_to 10713
  140.9323  134.2006  157.4855 LP  0  0  0  0  0  0  0  0  0  0  0  0  # atno 17394 bound_to 11000
  139.8724  134.9838  156.5212 LP  0  0  0  0  0  0  0  0  0  0  0  0  # atno 17395 bound_to 11000

$$$$
