AV-unprocessed.smi:112|AV-procd|sdf|1083|dock2
  -GOLD-   2262018173D 1   1.00000     0.00000
 Structure written by MMmdl.
 54 57  0  0  0  0  0  0  0  0  3 V2000
  146.4317  128.4826  152.7356 C   0  0  0  0  0  0  0  0  0  0  0  0
  146.9791  129.8984  152.8287 C   0  0  0  0  0  0  0  0  0  0  0  0
  146.4711  130.9158  152.0954 C   0  0  0  0  0  0  0  0  0  0  0  0
  146.9455  132.2139  152.1586 N   0  0  0  0  0  0  0  0  0  0  0  0
  146.3331  133.3350  151.3467 C   0  0  2  0  0  0  0  0  0  0  0  0
  145.4803  134.2445  152.2433 C   0  0  0  0  0  0  0  0  0  0  0  0
  144.2278  134.4537  151.4148 C   0  0  1  0  0  0  0  0  0  0  0  0
  144.3711  135.5782  150.5674 O   0  0  0  0  0  0  0  0  0  0  0  0
  144.1406  133.1400  150.6281 C   0  0  1  0  0  0  0  0  0  0  0  0
  143.3062  133.1553  149.3359 C   0  0  0  0  0  0  0  0  0  0  0  0
  142.7658  131.8752  149.0860 O   0  0  0  0  0  0  0  0  0  0  0  0
  145.4982  132.8052  150.3572 O   0  0  0  0  0  0  0  0  0  0  0  0
  148.0045  132.5267  153.0339 C   0  0  0  0  0  0  0  0  0  0  0  0
  148.4216  133.6834  153.1302 O   0  0  0  0  0  0  0  0  0  0  0  0
  148.5646  131.4846  153.8063 N   0  0  0  0  0  0  0  0  0  0  0  0
  149.6678  131.8104  154.7381 C   0  0  0  0  0  0  0  0  0  0  0  0
  149.1967  132.1045  156.1796 C   0  0  0  0  0  0  0  0  0  0  0  0
  148.7106  131.1891  156.8450 O   0  0  0  0  0  0  0  0  0  0  0  0
  149.3426  133.3688  156.6486 N   0  0  0  0  0  0  0  0  0  0  0  0
  149.9352  134.4645  155.8616 C   0  0  0  0  0  0  0  0  0  0  0  0
  149.9028  135.7156  156.7664 C   0  0  0  0  0  0  0  0  0  0  0  0
  149.2729  135.2052  158.0286 C   0  0  0  0  0  0  0  0  0  0  0  0
  149.0035  135.9468  159.1915 C   0  0  0  0  0  0  0  0  0  0  0  0
  148.3964  135.2951  160.2939 C   0  0  0  0  0  0  0  0  0  0  0  0
  148.0953  136.0431  161.5308 N   0  3  0  0  0  0  0  0  0  0  0  0
  148.0776  137.2687  161.4795 O   0  0  0  0  0  0  0  0  0  0  0  0
  147.8771  135.4061  162.5564 O   0  5  0  0  0  0  0  0  0  0  0  0
  148.0810  133.9141  160.1911 C   0  0  0  0  0  0  0  0  0  0  0  0
  148.3595  133.1841  159.0149 C   0  0  0  0  0  0  0  0  0  0  0  0
  148.9634  133.8537  157.9286 C   0  0  0  0  0  0  0  0  0  0  0  0
  148.0876  130.1518  153.7520 C   0  0  0  0  0  0  0  0  0  0  0  0
  148.5887  129.2762  154.4603 O   0  0  0  0  0  0  0  0  0  0  0  0
  145.6250  128.4057  152.0060 H   0  0  0  0  0  0  0  0  0  0  0  0
  146.0392  128.1620  153.7012 H   0  0  0  0  0  0  0  0  0  0  0  0
  147.2173  127.7877  152.4367 H   0  0  0  0  0  0  0  0  0  0  0  0
  145.6497  130.6886  151.4334 H   0  0  0  0  0  0  0  0  0  0  0  0
  147.1594  133.8504  150.8541 H   0  0  0  0  0  0  0  0  0  0  0  0
  145.2298  133.7173  153.1655 H   0  0  0  0  0  0  0  0  0  0  0  0
  146.0114  135.1621  152.4997 H   0  0  0  0  0  0  0  0  0  0  0  0
  143.3493  134.6068  152.0422 H   0  0  0  0  0  0  0  0  0  0  0  0
  143.8235  135.4516  149.8075 H   0  0  0  0  0  0  0  0  0  0  0  0
  143.7470  132.3696  151.2933 H   0  0  0  0  0  0  0  0  0  0  0  0
  142.5037  133.8915  149.3844 H   0  0  0  0  0  0  0  0  0  0  0  0
  143.9377  133.4308  148.4912 H   0  0  0  0  0  0  0  0  0  0  0  0
  141.8629  131.8703  149.3656 H   0  0  0  0  0  0  0  0  0  0  0  0
  150.4003  131.0027  154.7629 H   0  0  0  0  0  0  0  0  0  0  0  0
  150.2298  132.6684  154.3663 H   0  0  0  0  0  0  0  0  0  0  0  0
  150.9620  134.2274  155.5799 H   0  0  0  0  0  0  0  0  0  0  0  0
  149.3620  134.6426  154.9508 H   0  0  0  0  0  0  0  0  0  0  0  0
  150.9038  136.0990  156.9666 H   0  0  0  0  0  0  0  0  0  0  0  0
  149.2987  136.5139  156.3338 H   0  0  0  0  0  0  0  0  0  0  0  0
  149.2597  136.9953  159.2290 H   0  0  0  0  0  0  0  0  0  0  0  0
  147.6185  133.3969  161.0188 H   0  0  0  0  0  0  0  0  0  0  0  0
  148.1028  132.1373  158.9785 H   0  0  0  0  0  0  0  0  0  0  0  0
  1  2  1  0  0  0  0
  1 33  1  0  0  0  0
  1 34  1  0  0  0  0
  1 35  1  0  0  0  0
  2 31  1  0  0  0  0
  2  3  2  0  0  0  0
  3  4  1  0  0  0  0
  3 36  1  0  0  0  0
  4  5  1  0  0  0  0
  4 13  1  0  0  0  0
  5 12  1  0  0  0  0
  5  6  1  0  0  0  0
  5 37  1  0  0  0  0
  6  7  1  0  0  0  0
  6 38  1  0  0  0  0
  6 39  1  0  0  0  0
  7  8  1  0  0  0  0
  7  9  1  0  0  0  0
  7 40  1  0  0  0  0
  8 41  1  0  0  0  0
  9 10  1  0  0  0  0
  9 12  1  0  0  0  0
  9 42  1  0  0  0  0
 10 11  1  0  0  0  0
 10 43  1  0  0  0  0
 10 44  1  0  0  0  0
 11 45  1  0  0  0  0
 13 14  2  0  0  0  0
 13 15  1  0  0  0  0
 15 16  1  0  0  0  0
 15 31  1  0  0  0  0
 16 17  1  0  0  0  0
 16 46  1  0  0  0  0
 16 47  1  0  0  0  0
 17 18  2  0  0  0  0
 17 19  1  0  0  0  0
 19 30  1  0  0  0  0
 19 20  1  0  0  0  0
 20 21  1  0  0  0  0
 20 48  1  0  0  0  0
 20 49  1  0  0  0  0
 21 22  1  0  0  0  0
 21 50  1  0  0  0  0
 21 51  1  0  0  0  0
 22 30  2  0  0  0  0
 22 23  1  0  0  0  0
 23 24  2  0  0  0  0
 23 52  1  0  0  0  0
 24 25  1  0  0  0  0
 24 28  1  0  0  0  0
 25 26  2  0  0  0  0
 25 27  1  0  0  0  0
 28 29  2  0  0  0  0
 28 53  1  0  0  0  0
 29 30  1  0  0  0  0
 29 54  1  0  0  0  0
 31 32  2  0  0  0  0
M  CHG  1  25   1
M  CHG  1  27  -1
M  END
> <s_m_source_file>
AV-unprocessed.smi

> <i_m_source_file_index>
112

> <i_lp_mmshare_version>
43012

> <i_f3d_flags>
0

> <s_epik_input>
W09IXVtDSDJdW0NAQEhdKE8xKVtDQEhdKFtPSF0pW0NIMl1bQ0BIXTFuKFtjSF1jMltDSDNdKWMoPU8pbihjMj1PKVtDSDJdQyg9TylOKFtDSDJdW0NIMl0zKWMoYzM0KVtjSF1bY0hdYyhbY0hdNClbTitdKD1PKVtPLV0=

> <s_epik_cmdline>
J2VwaWtfcHl0aG9uJywgJy1waCcsICc3LjAnLCAnLXRuJywgJzgnLCAnLW1hJywgJzIwMCcsICctbWV0YWxfYmluZGluZycsICctaW1hZScsICc8aW5maWxlLm1hZT4nLCAnLW9tYWUnLCAnPG91dGZpbGUubWFlPic=

> <r_lp_tautomer_probability>
1

> <r_epik_Ionization_Penalty>
2.5696e-07

> <r_epik_Ionization_Penalty_Charging>
1.04886e-08

> <r_epik_Ionization_Penalty_Neutral>
2.46472e-07

> <r_epik_State_Penalty>
-0

> <r_epik_Charging_Adjusted_Penalty>
1.04886e-08

> <i_epik_Tot_Q>
0

> <i_epik_Tot_abs_Q>
2

> <r_epik_Metal_State_Penalty>
-0

> <b_epik_Metal_Only>
0

> <s_epik_Chemistry_Notes>
This compound contains an acetal/aminal-like group ( X-CH(R)-Y where X, Y are N, S, or O) that may be acid/base labile, releasing an aldehyde.

> <s_lp_Force_Field>
OPLS_2005

> <r_lp_Energy>
59.5699

> <b_lp_Chiralities_Consistent>
1

> <s_lp_Variant>
AV-unprocessed.smi:112-1

> <Gold.Version>
5.8.1

> <Gold.Id.Protein>
6NUR|6NUR_protein|mol2

> <Gold.PLP.Fitness>
52.3141

> <Gold.PLP.PLP>
-44.3556

> <Gold.PLP.part.hbond>
-4.7145

> <Gold.PLP.part.metal>
0.0000

> <Gold.PLP.part.buried>
-3.9803

> <Gold.PLP.part.nonpolar>
-37.0638

> <Gold.PLP.part.repulsive>
1.5848

> <Gold.PLP.ligand.clash>
0.0000

> <Gold.PLP.ligand.torsion>
1.2003

> <Gold.PLP.Chemscore.Hbond>
3.4320

> <Gold.PLP.Chemscore.CHOScore>
0.0000

> <Gold.PLP.Chemscore.Metal>
0.0000

> <Gold.Chemscore.Hbonds>
donor molecule, donor type, donor heavy atom, donor atom, acceptor molecule, acceptor atom, score
      L1  H    11    45       P1 10952  0.53
      P1  H  6931  6943       L1    26  0.76
      P1  H  6934  6947       L1    26  0.59
      P1  H 10785 10796       L1    11  1.00

> <Gold.PLP.Chemscore.Internal.Correction>
0.0631

> <Gold.Rescore>
     Score         DG    S(hbond)    S(metal)    S(lipo)     H(rot)  DE(clash)    DE(int)     intcor
     11.10     -15.79       2.59        0.00      86.24       3.29       1.67       3.03       ----

> <Gold.Chemscore.Fitness>
11.0953

> <Gold.Chemscore.DG>
-15.7884

> <Gold.Chemscore.ZeroCoef>
-5.4800

> <Gold.Chemscore.Hbond>
2.5882

> <Gold.Chemscore.Metal>
0.0000

> <Gold.Chemscore.Lipo>
86.2426

> <Gold.Chemscore.Internal_Hbond>
0.0000

> <Gold.Chemscore.DEClash>
1.6673

> <Gold.Chemscore.DEInternal>
3.0259

> <Gold.Chemscore.Rot>
3.2916

> <Gold.Chemscore.Internal.Correction>
   9.000000E+99

> <Gold.Chemscore.Hbonds>
donor molecule, donor type, donor heavy atom, donor atom, acceptor molecule, acceptor atom, score
      L1  H    11    45       P1 10952  0.52
      P1  H  6931  6943       L1    26  0.74
      P1  H  6934  6947       L1    26  0.55
      P1  H 10785 10796       L1    11  0.55

> <Gold.Chemscore.Hbond.Weighted>
-8.6445

> <Gold.Chemscore.Metal.Weighted>
-0.0000

> <Gold.Chemscore.Lipo.Weighted>
-10.0904

> <Gold.Chemscore.Internal_Hbond.Weighted>
0.0000

> <Gold.Chemscore.DEClash.Weighted>
1.6673

> <Gold.Chemscore.DEInternal.Weighted>
3.0259

> <Gold.Chemscore.Rot.Weighted>
8.4265

> <Gold.Chemscore.Internal.Correction.Weighted>
   9.000000E+99

> <Gold.Protein.RotatedTorsions>
[ 6907 6896 6895 6894 ] final -112.15 input  -60.11 | X-H torsion
[ 7974 7965 7964 7962 ] final -140.04 input  175.53 | X-H torsion
[ 8008 7997 7996 7995 ] final -121.68 input   59.86 | X-H torsion
[ 10167 10162 10161 10158 ] final   64.07 input  -65.29 | X-H torsion
[ 10718 10713 10712 10709 ] final   70.43 input   66.30 | X-H torsion
[ 10763 10752 10751 10750 ] final  -24.19 input  -60.55 | X-H torsion
[ 11005 11000 10999 10996 ] final  -82.03 input  -57.11 | X-H torsion

> <Gold.Protein.ActiveResidues>
 VAL166  LYS551  ARG553  GLY616  TRP617  ASP618  TYR619  PRO620  LYS621  CYS622 
 ASP623  PHE694  ASN695  SER759  ASP760  ASP761  ALA762  ILE779  LEU786  VAL792 
 PHE793  MET794  SER795  GLU796  ALA797  LYS798  CYS799  TRP800  GLU811  SER814 

> <Gold.Protein.RotatedAtoms>
  150.7739  133.9131  159.3375 H   0  0  0  0  0  0  0  0  0  0  0  0  # atno 6907 bound_to 6896
  151.7011  135.0928  160.0260 H   0  0  0  0  0  0  0  0  0  0  0  0  # atno 6908 bound_to 6896
  152.3767  133.6453  159.6165 H   0  0  0  0  0  0  0  0  0  0  0  0  # atno 6909 bound_to 6896
  144.8629  140.6247  143.5317 H   0  0  0  0  0  0  0  0  0  0  0  0  # atno 7974 bound_to 7965
  155.1519  140.0404  157.2823 H   0  0  0  0  0  0  0  0  0  0  0  0  # atno 8008 bound_to 7997
  154.6398  140.2544  155.7309 H   0  0  0  0  0  0  0  0  0  0  0  0  # atno 8009 bound_to 7997
  156.2527  140.2858  156.0787 H   0  0  0  0  0  0  0  0  0  0  0  0  # atno 8010 bound_to 7997
  140.1262  144.4686  150.6891 H   0  0  0  0  0  0  0  0  0  0  0  0  # atno 10167 bound_to 10162
  157.6399  130.9476  150.0649 H   0  0  0  0  0  0  0  0  0  0  0  0  # atno 10718 bound_to 10713
  153.6798  135.6967  153.5121 H   0  0  0  0  0  0  0  0  0  0  0  0  # atno 10763 bound_to 10752
  153.2494  135.4280  155.0781 H   0  0  0  0  0  0  0  0  0  0  0  0  # atno 10764 bound_to 10752
  154.8403  135.3527  154.6341 H   0  0  0  0  0  0  0  0  0  0  0  0  # atno 10765 bound_to 10752
  141.1664  133.7224  156.8510 H   0  0  0  0  0  0  0  0  0  0  0  0  # atno 11005 bound_to 11000
  145.4278  139.1554  143.4039 LP  0  0  0  0  0  0  0  0  0  0  0  0  # atno 17320 bound_to 7965
  146.2874  140.4392  142.8752 LP  0  0  0  0  0  0  0  0  0  0  0  0  # atno 17321 bound_to 7965
  140.6844  143.2342  151.5300 LP  0  0  0  0  0  0  0  0  0  0  0  0  # atno 17342 bound_to 10162
  139.5543  144.2315  152.1585 LP  0  0  0  0  0  0  0  0  0  0  0  0  # atno 17343 bound_to 10162
  156.1671  130.3645  149.9218 LP  0  0  0  0  0  0  0  0  0  0  0  0  # atno 17370 bound_to 10713
  156.7202  130.9004  151.3617 LP  0  0  0  0  0  0  0  0  0  0  0  0  # atno 17371 bound_to 10713
  140.1915  134.8962  157.3066 LP  0  0  0  0  0  0  0  0  0  0  0  0  # atno 17394 bound_to 11000
  140.2285  134.3938  155.7533 LP  0  0  0  0  0  0  0  0  0  0  0  0  # atno 17395 bound_to 11000

$$$$
