AV-unprocessed.smi:3237|AV-procd|sdf|12365|dock9
  -GOLD-   2272018223D 1   1.00000     0.00000
 Structure written by MMmdl.
 37 39  0  0  0  0  0  0  0  0  2 V2000
  143.5702  143.5612  162.8131 C   0  0  0  0  0  0  0  0  0  0  0  0
  144.4765  144.0459  161.7338 C   0  0  0  0  0  0  0  0  0  0  0  0
  145.8306  143.9895  161.5615 C   0  0  0  0  0  0  0  0  0  0  0  0
  146.0204  144.6461  160.3104 C   0  0  0  0  0  0  0  0  0  0  0  0
  147.2594  144.8634  159.6540 N   0  0  0  0  0  0  0  0  0  0  0  0
  148.4906  144.5043  160.0547 C   0  0  0  0  0  0  0  0  0  0  0  0
  148.7576  143.9086  161.0980 O   0  0  0  0  0  0  0  0  0  0  0  0
  149.4205  144.8795  159.1647 N   0  0  0  0  0  0  0  0  0  0  0  0
  150.8514  144.6341  159.3086 C   0  0  2  0  0  0  0  0  0  0  0  0
  151.7125  145.2189  158.1932 C   0  0  0  0  0  0  0  0  0  0  0  0
  153.0029  144.3995  158.3068 C   0  0  0  0  0  0  0  0  0  0  0  0
  152.6230  143.0801  158.8713 N   0  3  1  0  0  0  0  0  0  0  0  0
  153.4908  142.6419  159.9860 C   0  0  0  0  0  0  0  0  0  0  0  0
  152.8873  141.5415  160.8260 C   0  0  0  0  0  0  0  0  0  0  0  0
  152.9278  142.9604  161.3505 C   0  0  0  0  0  0  0  0  0  0  0  0
  151.1884  143.1458  159.2284 C   0  0  0  0  0  0  0  0  0  0  0  0
  144.8869  145.0620  159.7766 N   0  0  0  0  0  0  0  0  0  0  0  0
  143.8906  144.6809  160.6831 O   0  0  0  0  0  0  0  0  0  0  0  0
  144.1255  143.0029  163.5670 H   0  0  0  0  0  0  0  0  0  0  0  0
  142.8004  142.9054  162.4060 H   0  0  0  0  0  0  0  0  0  0  0  0
  143.0764  144.3981  163.3070 H   0  0  0  0  0  0  0  0  0  0  0  0
  146.5512  143.5463  162.2319 H   0  0  0  0  0  0  0  0  0  0  0  0
  147.1970  145.3487  158.7712 H   0  0  0  0  0  0  0  0  0  0  0  0
  149.1169  145.3642  158.3325 H   0  0  0  0  0  0  0  0  0  0  0  0
  151.1946  145.0206  160.2707 H   0  0  0  0  0  0  0  0  0  0  0  0
  151.2451  145.0470  157.2222 H   0  0  0  0  0  0  0  0  0  0  0  0
  151.8825  146.2906  158.3023 H   0  0  0  0  0  0  0  0  0  0  0  0
  153.5018  144.2845  157.3442 H   0  0  0  0  0  0  0  0  0  0  0  0
  153.6969  144.9096  158.9771 H   0  0  0  0  0  0  0  0  0  0  0  0
  154.5645  142.6769  159.8082 H   0  0  0  0  0  0  0  0  0  0  0  0
  151.9183  141.1413  160.5325 H   0  0  0  0  0  0  0  0  0  0  0  0
  153.5686  140.8238  161.2785 H   0  0  0  0  0  0  0  0  0  0  0  0
  153.6361  143.1773  162.1475 H   0  0  0  0  0  0  0  0  0  0  0  0
  151.9854  143.5025  161.4057 H   0  0  0  0  0  0  0  0  0  0  0  0
  150.9562  142.6154  160.1533 H   0  0  0  0  0  0  0  0  0  0  0  0
  150.6222  142.6700  158.4262 H   0  0  0  0  0  0  0  0  0  0  0  0
  152.7127  142.3926  158.1367 H   0  0  0  0  0  0  0  0  0  0  0  0
  1  2  1  0  0  0  0
  1 19  1  0  0  0  0
  1 20  1  0  0  0  0
  1 21  1  0  0  0  0
  2 18  1  0  0  0  0
  2  3  2  0  0  0  0
  3  4  1  0  0  0  0
  3 22  1  0  0  0  0
  4  5  1  0  0  0  0
  4 17  2  0  0  0  0
  5  6  1  0  0  0  0
  5 23  1  0  0  0  0
  6  7  2  0  0  0  0
  6  8  1  0  0  0  0
  8  9  1  0  0  0  0
  8 24  1  0  0  0  0
  9 16  1  0  0  0  0
  9 10  1  0  0  0  0
  9 25  1  0  0  0  0
 10 11  1  0  0  0  0
 10 26  1  0  0  0  0
 10 27  1  0  0  0  0
 11 12  1  0  0  0  0
 11 28  1  0  0  0  0
 11 29  1  0  0  0  0
 12 13  1  0  0  0  0
 12 16  1  0  0  0  0
 12 37  1  0  0  0  0
 13 15  1  0  0  0  0
 13 14  1  0  0  0  0
 13 30  1  0  0  0  0
 14 15  1  0  0  0  0
 14 31  1  0  0  0  0
 14 32  1  0  0  0  0
 15 33  1  0  0  0  0
 15 34  1  0  0  0  0
 16 35  1  0  0  0  0
 16 36  1  0  0  0  0
 17 18  1  0  0  0  0
M  CHG  1  12   1
M  END
> <s_m_source_file>
AV-unprocessed.smi

> <i_m_source_file_index>
3237

> <i_lp_mmshare_version>
43012

> <i_f3d_flags>
0

> <s_epik_input>
W0NIM11jMVtjSF1jKG5vMSlbTkhdQyg9TylbTkhdW0NAQEhdMltDSDJdW0NIMl1OKFtDSDJdMilbQ0hdM1tDSDJdW0NIMl0z

> <s_epik_cmdline>
J2VwaWtfcHl0aG9uJywgJy1waCcsICc3LjAnLCAnLXRuJywgJzgnLCAnLW1hJywgJzIwMCcsICctbWV0YWxfYmluZGluZycsICctaW1hZScsICc8aW5maWxlLm1hZT4nLCAnLW9tYWUnLCAnPG91dGZpbGUubWFlPic=

> <r_epik_Ionization_Penalty>
0.000720579

> <r_epik_Ionization_Penalty_Charging>
0.000680516

> <r_epik_Ionization_Penalty_Neutral>
4.00628e-05

> <r_epik_State_Penalty>
0.000432256

> <r_epik_Charging_Adjusted_Penalty>
0.00111277

> <i_epik_Tot_Q>
1

> <i_epik_Tot_abs_Q>
1

> <r_epik_Metal_State_Penalty>
0.0255091

> <b_epik_Metal_Only>
0

> <s_lp_Force_Field>
OPLS_2005

> <r_lp_Energy>
36.5214

> <b_lp_Chiralities_Consistent>
1

> <s_lp_Variant>
AV-unprocessed.smi:3237-3

> <Gold.Version>
5.8.1

> <Gold.Id.Protein>
6NUR|6NUR_protein|mol2

> <Gold.PLP.Fitness>
46.3512

> <Gold.PLP.PLP>
-38.2108

> <Gold.PLP.part.hbond>
-2.5759

> <Gold.PLP.part.metal>
0.0000

> <Gold.PLP.part.buried>
-6.1975

> <Gold.PLP.part.nonpolar>
-30.7014

> <Gold.PLP.part.repulsive>
0.7455

> <Gold.PLP.ligand.clash>
0.0000

> <Gold.PLP.ligand.torsion>
0.6660

> <Gold.PLP.Chemscore.Hbond>
2.7360

> <Gold.PLP.Chemscore.CHOScore>
0.0000

> <Gold.PLP.Chemscore.Metal>
0.0000

> <Gold.Chemscore.Hbonds>
donor molecule, donor type, donor heavy atom, donor atom, acceptor molecule, acceptor atom, score
      L1  H     5    23       P1  8029  1.00
      L1  H     8    24       P1  8029  1.00
      P1  H  6933  6944       L1     7  0.75

> <Gold.PLP.Chemscore.Internal.Correction>
1.2644

> <Gold.Rescore>
     Score         DG    S(hbond)    S(metal)    S(lipo)     H(rot)  DE(clash)    DE(int)     intcor
     20.90     -22.90       2.55        0.00     103.72       1.26       0.21       1.80       ----

> <Gold.Chemscore.Fitness>
20.8999

> <Gold.Chemscore.DG>
-22.9043

> <Gold.Chemscore.ZeroCoef>
-5.4800

> <Gold.Chemscore.Hbond>
2.5488

> <Gold.Chemscore.Metal>
0.0000

> <Gold.Chemscore.Lipo>
103.7180

> <Gold.Chemscore.Internal_Hbond>
0.0000

> <Gold.Chemscore.DEClash>
0.2058

> <Gold.Chemscore.DEInternal>
1.7987

> <Gold.Chemscore.Rot>
1.2593

> <Gold.Chemscore.Internal.Correction>
   9.000000E+99

> <Gold.Chemscore.Hbonds>
donor molecule, donor type, donor heavy atom, donor atom, acceptor molecule, acceptor atom, score
      L1  H     5    23       P1  8029  0.98
      L1  H     8    24       P1  8029  0.85
      P1  H  6933  6944       L1     7  0.72

> <Gold.Chemscore.Hbond.Weighted>
-8.5131

> <Gold.Chemscore.Metal.Weighted>
-0.0000

> <Gold.Chemscore.Lipo.Weighted>
-12.1350

> <Gold.Chemscore.Internal_Hbond.Weighted>
0.0000

> <Gold.Chemscore.DEClash.Weighted>
0.2058

> <Gold.Chemscore.DEInternal.Weighted>
1.7987

> <Gold.Chemscore.Rot.Weighted>
3.2237

> <Gold.Chemscore.Internal.Correction.Weighted>
   9.000000E+99

> <Gold.Protein.RotatedTorsions>
[ 6907 6896 6895 6894 ] final    3.42 input  -60.11 | X-H torsion
[ 7974 7965 7964 7962 ] final  116.24 input  175.53 | X-H torsion
[ 8008 7997 7996 7995 ] final  -87.11 input   59.86 | X-H torsion
[ 10167 10162 10161 10158 ] final   71.72 input  -65.29 | X-H torsion
[ 10718 10713 10712 10709 ] final  -28.47 input   66.30 | X-H torsion
[ 10763 10752 10751 10750 ] final  108.79 input  -60.55 | X-H torsion
[ 11005 11000 10999 10996 ] final  -13.08 input  -57.11 | X-H torsion

> <Gold.Protein.ActiveResidues>
 VAL166  LYS551  ARG553  GLY616  TRP617  ASP618  TYR619  PRO620  LYS621  CYS622 
 ASP623  PHE694  ASN695  SER759  ASP760  ASP761  ALA762  ILE779  LEU786  VAL792 
 PHE793  MET794  SER795  GLU796  ALA797  LYS798  CYS799  TRP800  GLU811  SER814 

> <Gold.Protein.RotatedAtoms>
  151.6247  135.1029  160.0108 H   0  0  0  0  0  0  0  0  0  0  0  0  # atno 6907 bound_to 6896
  152.4139  133.7002  159.6430 H   0  0  0  0  0  0  0  0  0  0  0  0  # atno 6908 bound_to 6896
  150.8028  133.8493  159.3241 H   0  0  0  0  0  0  0  0  0  0  0  0  # atno 6909 bound_to 6896
  145.1821  139.3044  143.4412 H   0  0  0  0  0  0  0  0  0  0  0  0  # atno 7974 bound_to 7965
  154.6595  140.0570  157.0046 H   0  0  0  0  0  0  0  0  0  0  0  0  # atno 8008 bound_to 7997
  155.1250  140.3251  155.4469 H   0  0  0  0  0  0  0  0  0  0  0  0  # atno 8009 bound_to 7997
  156.2612  140.1991  156.6371 H   0  0  0  0  0  0  0  0  0  0  0  0  # atno 8010 bound_to 7997
  140.0431  144.5373  150.7419 H   0  0  0  0  0  0  0  0  0  0  0  0  # atno 10167 bound_to 10162
  156.4249  130.4433  149.7158 H   0  0  0  0  0  0  0  0  0  0  0  0  # atno 10718 bound_to 10713
  153.4256  135.3801  155.2138 H   0  0  0  0  0  0  0  0  0  0  0  0  # atno 10763 bound_to 10752
  154.8747  135.3827  154.4331 H   0  0  0  0  0  0  0  0  0  0  0  0  # atno 10764 bound_to 10752
  153.4856  135.7088  153.5976 H   0  0  0  0  0  0  0  0  0  0  0  0  # atno 10765 bound_to 10752
  140.7724  133.8428  155.9218 H   0  0  0  0  0  0  0  0  0  0  0  0  # atno 11005 bound_to 11000
  146.3451  140.2004  142.8589 LP  0  0  0  0  0  0  0  0  0  0  0  0  # atno 17320 bound_to 7965
  145.0125  140.8726  143.5215 LP  0  0  0  0  0  0  0  0  0  0  0  0  # atno 17321 bound_to 7965
  140.7251  143.2628  151.4147 LP  0  0  0  0  0  0  0  0  0  0  0  0  # atno 17342 bound_to 10162
  139.6001  144.1313  152.2188 LP  0  0  0  0  0  0  0  0  0  0  0  0  # atno 17343 bound_to 10162
  156.4084  130.7709  151.2721 LP  0  0  0  0  0  0  0  0  0  0  0  0  # atno 17370 bound_to 10713
  157.7508  131.0219  150.3769 LP  0  0  0  0  0  0  0  0  0  0  0  0  # atno 17371 bound_to 10713
  140.9561  134.1716  157.4690 LP  0  0  0  0  0  0  0  0  0  0  0  0  # atno 17394 bound_to 11000
  139.8754  134.9927  156.5611 LP  0  0  0  0  0  0  0  0  0  0  0  0  # atno 17395 bound_to 11000

$$$$
