AV-unprocessed.smi:2725|AV-procd|sdf|10518|dock10
  -GOLD-   2272014563D 1   1.00000     0.00000
 Structure written by MMmdl.
 45 46  0  0  0  0  0  0  0  0  2 V2000
  152.8804  139.5173  155.7179 O   0  0  0  0  0  0  0  0  0  0  0  0
  151.9425  139.4915  156.5149 C   0  0  0  0  0  0  0  0  0  0  0  0
  151.8981  140.4655  157.6961 C   0  0  0  0  0  0  0  0  0  0  0  0
  150.7294  141.4651  157.6048 C   0  0  0  0  0  0  0  0  0  0  0  0
  150.9363  142.7188  158.4728 C   0  0  0  0  0  0  0  0  0  0  0  0
  151.5090  143.9250  157.7203 C   0  0  0  0  0  0  0  0  0  0  0  0
  152.1465  144.8154  158.7946 C   0  0  0  0  0  0  0  0  0  0  0  0
  152.3417  143.9286  160.0338 C   0  0  0  0  0  0  0  0  0  0  0  0
  151.9395  142.5138  159.6095 C   0  0  0  0  0  0  0  0  0  0  0  0
  150.9140  138.6347  156.4112 N   0  0  0  0  0  0  0  0  0  0  0  0
  150.7474  137.6321  155.3603 C   0  0  1  0  0  0  0  0  0  0  0  0
  149.5549  136.7096  155.7029 C   0  0  0  0  0  0  0  0  0  0  0  0
  149.1981  135.9065  154.5976 O   0  0  0  0  0  0  0  0  0  0  0  0
  150.6128  138.3577  154.0038 C   0  0  0  0  0  0  0  0  0  0  0  0
  149.4278  139.3040  153.9240 C   0  0  0  0  0  0  0  0  0  0  0  0
  149.4431  140.5714  154.5456 C   0  0  0  0  0  0  0  0  0  0  0  0
  148.3175  141.4129  154.4245 C   0  0  0  0  0  0  0  0  0  0  0  0
  147.2015  140.9705  153.6846 C   0  0  0  0  0  0  0  0  0  0  0  0
  147.2398  139.6961  153.0832 C   0  0  0  0  0  0  0  0  0  0  0  0
  148.3364  138.9191  153.2225 N   0  3  0  0  0  0  0  0  0  0  0  0
  151.8230  139.8811  158.6134 H   0  0  0  0  0  0  0  0  0  0  0  0
  152.8408  141.0121  157.7493 H   0  0  0  0  0  0  0  0  0  0  0  0
  150.6056  141.7745  156.5658 H   0  0  0  0  0  0  0  0  0  0  0  0
  149.7961  140.9772  157.8897 H   0  0  0  0  0  0  0  0  0  0  0  0
  149.9818  143.0087  158.9155 H   0  0  0  0  0  0  0  0  0  0  0  0
  152.2798  143.5952  157.0224 H   0  0  0  0  0  0  0  0  0  0  0  0
  150.7500  144.4541  157.1432 H   0  0  0  0  0  0  0  0  0  0  0  0
  153.0917  145.2314  158.4442 H   0  0  0  0  0  0  0  0  0  0  0  0
  151.4918  145.6534  159.0363 H   0  0  0  0  0  0  0  0  0  0  0  0
  153.3648  143.9628  160.4102 H   0  0  0  0  0  0  0  0  0  0  0  0
  151.6877  144.2733  160.8357 H   0  0  0  0  0  0  0  0  0  0  0  0
  151.5246  141.9344  160.4349 H   0  0  0  0  0  0  0  0  0  0  0  0
  152.8175  141.9812  159.2407 H   0  0  0  0  0  0  0  0  0  0  0  0
  150.1885  138.6851  157.1117 H   0  0  0  0  0  0  0  0  0  0  0  0
  151.6616  137.0349  155.3318 H   0  0  0  0  0  0  0  0  0  0  0  0
  149.8165  136.0261  156.5116 H   0  0  0  0  0  0  0  0  0  0  0  0
  148.6928  137.2839  156.0428 H   0  0  0  0  0  0  0  0  0  0  0  0
  149.4490  136.3572  153.8054 H   0  0  0  0  0  0  0  0  0  0  0  0
  151.5275  138.9095  153.7817 H   0  0  0  0  0  0  0  0  0  0  0  0
  150.5050  137.6229  153.2044 H   0  0  0  0  0  0  0  0  0  0  0  0
  150.3079  140.8982  155.1048 H   0  0  0  0  0  0  0  0  0  0  0  0
  148.3113  142.3866  154.8924 H   0  0  0  0  0  0  0  0  0  0  0  0
  146.3303  141.6004  153.5788 H   0  0  0  0  0  0  0  0  0  0  0  0
  146.4337  139.2787  152.4977 H   0  0  0  0  0  0  0  0  0  0  0  0
  148.3437  138.0029  152.7739 H   0  0  0  0  0  0  0  0  0  0  0  0
  1  2  2  0  0  0  0
  2  3  1  0  0  0  0
  2 10  1  0  0  0  0
  3  4  1  0  0  0  0
  3 21  1  0  0  0  0
  3 22  1  0  0  0  0
  4  5  1  0  0  0  0
  4 23  1  0  0  0  0
  4 24  1  0  0  0  0
  5  9  1  0  0  0  0
  5  6  1  0  0  0  0
  5 25  1  0  0  0  0
  6  7  1  0  0  0  0
  6 26  1  0  0  0  0
  6 27  1  0  0  0  0
  7  8  1  0  0  0  0
  7 28  1  0  0  0  0
  7 29  1  0  0  0  0
  8  9  1  0  0  0  0
  8 30  1  0  0  0  0
  8 31  1  0  0  0  0
  9 32  1  0  0  0  0
  9 33  1  0  0  0  0
 10 11  1  0  0  0  0
 10 34  1  0  0  0  0
 11 12  1  0  0  0  0
 11 14  1  0  0  0  0
 11 35  1  0  0  0  0
 12 13  1  0  0  0  0
 12 36  1  0  0  0  0
 12 37  1  0  0  0  0
 13 38  1  0  0  0  0
 14 15  1  0  0  0  0
 14 39  1  0  0  0  0
 14 40  1  0  0  0  0
 15 20  1  0  0  0  0
 15 16  2  0  0  0  0
 16 17  1  0  0  0  0
 16 41  1  0  0  0  0
 17 18  2  0  0  0  0
 17 42  1  0  0  0  0
 18 19  1  0  0  0  0
 18 43  1  0  0  0  0
 19 20  2  0  0  0  0
 19 44  1  0  0  0  0
 20 45  1  0  0  0  0
M  CHG  1  20   1
M  END
> <s_m_source_file>
AV-unprocessed.smi

> <i_m_source_file_index>
2725

> <i_lp_mmshare_version>
43012

> <i_f3d_flags>
0

> <s_epik_input>
W0NIMl0xW0NIMl1bQ0gyXVtDSDJdW0NIXTFbQ0gyXVtDSDJdQyg9TylbTkhdW0NASF0oW0NIMl1bT0hdKVtDSDJdYzJbY0hdW2NIXVtjSF1bY0hdbjI=

> <s_epik_cmdline>
J2VwaWtfcHl0aG9uJywgJy1waCcsICc3LjAnLCAnLXRuJywgJzgnLCAnLW1hJywgJzIwMCcsICctbWV0YWxfYmluZGluZycsICctaW1hZScsICc8aW5maWxlLm1hZT4nLCAnLW9tYWUnLCAnPG91dGZpbGUubWFlPic=

> <r_epik_Ionization_Penalty>
1.87189

> <r_epik_Ionization_Penalty_Charging>
1.87189

> <r_epik_Ionization_Penalty_Neutral>
6.79411e-08

> <r_epik_State_Penalty>
1.99097

> <r_epik_Charging_Adjusted_Penalty>
3.86287

> <i_epik_Tot_Q>
1

> <i_epik_Tot_abs_Q>
1

> <r_epik_Metal_State_Penalty>
2.01578

> <b_epik_Metal_Only>
0

> <s_lp_Force_Field>
OPLS_2005

> <r_lp_Energy>
28.0453

> <b_lp_Chiralities_Consistent>
1

> <s_lp_Variant>
AV-unprocessed.smi:2725-4

> <Gold.Version>
5.8.1

> <Gold.Id.Protein>
6NUR|6NUR_protein|mol2

> <Gold.PLP.Fitness>
53.9214

> <Gold.PLP.PLP>
-44.4565

> <Gold.PLP.part.hbond>
-4.0000

> <Gold.PLP.part.metal>
0.0000

> <Gold.PLP.part.buried>
-1.6364

> <Gold.PLP.part.nonpolar>
-39.9011

> <Gold.PLP.part.repulsive>
0.0894

> <Gold.PLP.ligand.clash>
0.0000

> <Gold.PLP.ligand.torsion>
0.9712

> <Gold.PLP.Chemscore.Hbond>
3.7644

> <Gold.PLP.Chemscore.CHOScore>
0.0000

> <Gold.PLP.Chemscore.Metal>
0.0000

> <Gold.Chemscore.Hbonds>
donor molecule, donor type, donor heavy atom, donor atom, acceptor molecule, acceptor atom, score
      L1  H    13    38       P1  7948  0.72
      L1  H    20    45       P1  7948  1.82
      P1  H  7997  8010       L1     1  1.00

> <Gold.PLP.Chemscore.Internal.Correction>
0.1141

> <Gold.Rescore>
     Score         DG    S(hbond)    S(metal)    S(lipo)     H(rot)  DE(clash)    DE(int)     intcor
     19.50     -20.94       2.38        0.00     120.65       2.58       0.42       1.02       ----

> <Gold.Chemscore.Fitness>
19.4960

> <Gold.Chemscore.DG>
-20.9384

> <Gold.Chemscore.ZeroCoef>
-5.4800

> <Gold.Chemscore.Hbond>
2.3773

> <Gold.Chemscore.Metal>
0.0000

> <Gold.Chemscore.Lipo>
120.6482

> <Gold.Chemscore.Internal_Hbond>
0.0000

> <Gold.Chemscore.DEClash>
0.4241

> <Gold.Chemscore.DEInternal>
1.0182

> <Gold.Chemscore.Rot>
2.5773

> <Gold.Chemscore.Internal.Correction>
   9.000000E+99

> <Gold.Chemscore.Hbonds>
donor molecule, donor type, donor heavy atom, donor atom, acceptor molecule, acceptor atom, score
      L1  H    13    38       P1  7948  0.55
      L1  H    20    45       P1  7948  0.88
      P1  H  7997  8010       L1     1  0.83

> <Gold.Chemscore.Hbond.Weighted>
-7.9403

> <Gold.Chemscore.Metal.Weighted>
-0.0000

> <Gold.Chemscore.Lipo.Weighted>
-14.1158

> <Gold.Chemscore.Internal_Hbond.Weighted>
0.0000

> <Gold.Chemscore.DEClash.Weighted>
0.4241

> <Gold.Chemscore.DEInternal.Weighted>
1.0182

> <Gold.Chemscore.Rot.Weighted>
6.5978

> <Gold.Chemscore.Internal.Correction.Weighted>
   9.000000E+99

> <Gold.Protein.RotatedTorsions>
[ 6907 6896 6895 6894 ] final   51.18 input  -60.11 | X-H torsion
[ 7974 7965 7964 7962 ] final   15.60 input  175.53 | X-H torsion
[ 8008 7997 7996 7995 ] final   71.04 input   59.86 | X-H torsion
[ 10167 10162 10161 10158 ] final   89.46 input  -65.29 | X-H torsion
[ 10718 10713 10712 10709 ] final   87.95 input   66.30 | X-H torsion
[ 10763 10752 10751 10750 ] final   20.24 input  -60.55 | X-H torsion
[ 11005 11000 10999 10996 ] final  -90.45 input  -57.11 | X-H torsion

> <Gold.Protein.ActiveResidues>
 VAL166  LYS551  ARG553  GLY616  TRP617  ASP618  TYR619  PRO620  LYS621  CYS622 
 ASP623  PHE694  ASN695  SER759  ASP760  ASP761  ALA762  ILE779  LEU786  VAL792 
 PHE793  MET794  SER795  GLU796  ALA797  LYS798  CYS799  TRP800  GLU811  SER814 

> <Gold.Protein.RotatedAtoms>
  152.3098  134.7511  160.0338 H   0  0  0  0  0  0  0  0  0  0  0  0  # atno 6907 bound_to 6896
  151.7995  133.3363  159.3531 H   0  0  0  0  0  0  0  0  0  0  0  0  # atno 6908 bound_to 6896
  150.7314  134.5697  159.5928 H   0  0  0  0  0  0  0  0  0  0  0  0  # atno 6909 bound_to 6896
  146.2274  139.8870  142.8561 H   0  0  0  0  0  0  0  0  0  0  0  0  # atno 7974 bound_to 7965
  155.7479  140.3489  155.5136 H   0  0  0  0  0  0  0  0  0  0  0  0  # atno 8008 bound_to 7997
  155.9032  140.1037  157.1355 H   0  0  0  0  0  0  0  0  0  0  0  0  # atno 8009 bound_to 7997
  154.4046  140.1282  156.4450 H   0  0  0  0  0  0  0  0  0  0  0  0  # atno 8010 bound_to 7997
  139.8570  144.6564  150.9102 H   0  0  0  0  0  0  0  0  0  0  0  0  # atno 10167 bound_to 10162
  157.6945  131.0275  150.3200 H   0  0  0  0  0  0  0  0  0  0  0  0  # atno 10718 bound_to 10713
  153.1094  135.6693  153.9528 H   0  0  0  0  0  0  0  0  0  0  0  0  # atno 10763 bound_to 10752
  153.9076  135.3029  155.3450 H   0  0  0  0  0  0  0  0  0  0  0  0  # atno 10764 bound_to 10752
  154.7514  135.5033  153.9373 H   0  0  0  0  0  0  0  0  0  0  0  0  # atno 10765 bound_to 10752
  141.1565  133.7692  156.9739 H   0  0  0  0  0  0  0  0  0  0  0  0  # atno 11005 bound_to 11000
  145.2456  141.0025  143.3911 LP  0  0  0  0  0  0  0  0  0  0  0  0  # atno 17320 bound_to 7965
  144.9416  139.4182  143.6446 LP  0  0  0  0  0  0  0  0  0  0  0  0  # atno 17321 bound_to 7965
  140.7780  143.3777  151.1533 LP  0  0  0  0  0  0  0  0  0  0  0  0  # atno 17342 bound_to 10162
  139.7410  143.8925  152.3050 LP  0  0  0  0  0  0  0  0  0  0  0  0  # atno 17343 bound_to 10162
  156.3689  130.3860  149.7191 LP  0  0  0  0  0  0  0  0  0  0  0  0  # atno 17370 bound_to 10713
  156.4612  130.7953  151.2973 LP  0  0  0  0  0  0  0  0  0  0  0  0  # atno 17371 bound_to 10713
  140.1111  134.9476  157.2067 LP  0  0  0  0  0  0  0  0  0  0  0  0  # atno 17394 bound_to 11000
  140.3193  134.2935  155.7250 LP  0  0  0  0  0  0  0  0  0  0  0  0  # atno 17395 bound_to 11000

$$$$
