AV-unprocessed.smi:3349|AV-procd|sdf|12932|dock6
  -GOLD-   2272019363D 1   1.00000     0.00000
 Structure written by MMmdl.
 40 41  0  0  0  0  0  0  0  0  1 V2000
  151.7918  140.9929  158.3426 C   0  0  0  0  0  0  0  0  0  0  0  0
  150.6681  142.0376  158.1225 C   0  0  1  0  0  0  0  0  0  0  0  0
  149.3067  141.2909  158.0145 C   0  0  0  0  0  0  0  0  0  0  0  0
  149.2761  140.2994  156.9426 N   0  0  0  0  0  0  0  0  0  0  0  0
  149.5246  140.5571  155.6483 C   0  0  0  0  0  0  0  0  0  0  0  0
  149.8063  141.6816  155.2319 O   0  0  0  0  0  0  0  0  0  0  0  0
  149.4481  139.3586  154.6879 C   0  0  2  0  0  0  0  0  0  0  0  0
  148.2930  138.3933  155.0241 C   0  0  0  0  0  0  0  0  0  0  0  0
  150.7329  138.6723  154.6277 N   0  0  0  0  0  0  0  0  0  0  0  0
  151.0110  137.3914  154.3753 C   0  0  0  0  0  0  0  0  0  0  0  0
  152.3072  137.1146  154.3575 N   0  0  0  0  0  0  0  0  0  0  0  0
  152.8093  138.3589  154.6145 C   0  0  0  0  0  0  0  0  0  0  0  0
  151.9104  139.3294  154.7763 N   0  0  0  0  0  0  0  0  0  0  0  0
  150.6734  143.1086  159.1463 N   0  0  0  0  0  0  0  0  0  0  0  0
  151.8337  143.9984  159.0180 C   0  0  0  0  0  0  0  0  0  0  0  0
  151.8347  145.1363  160.0531 C   0  0  0  0  0  0  0  0  0  0  0  0
  150.6333  145.8860  159.9398 O   0  0  0  0  0  0  0  0  0  0  0  0
  149.4820  145.0781  160.1387 C   0  0  0  0  0  0  0  0  0  0  0  0
  149.4626  143.9376  159.1059 C   0  0  0  0  0  0  0  0  0  0  0  0
  151.7502  140.1775  157.6213 H   0  0  0  0  0  0  0  0  0  0  0  0
  151.7305  140.5524  159.3383 H   0  0  0  0  0  0  0  0  0  0  0  0
  152.7851  141.4238  158.2248 H   0  0  0  0  0  0  0  0  0  0  0  0
  150.8552  142.5050  157.1546 H   0  0  0  0  0  0  0  0  0  0  0  0
  149.0864  140.7829  158.9538 H   0  0  0  0  0  0  0  0  0  0  0  0
  148.4766  141.9719  157.8327 H   0  0  0  0  0  0  0  0  0  0  0  0
  149.0524  139.3508  157.2058 H   0  0  0  0  0  0  0  0  0  0  0  0
  149.2523  139.7598  153.6920 H   0  0  0  0  0  0  0  0  0  0  0  0
  147.3323  138.9090  155.0099 H   0  0  0  0  0  0  0  0  0  0  0  0
  148.4106  137.9411  156.0098 H   0  0  0  0  0  0  0  0  0  0  0  0
  148.2391  137.5842  154.2952 H   0  0  0  0  0  0  0  0  0  0  0  0
  150.2494  136.6463  154.1979 H   0  0  0  0  0  0  0  0  0  0  0  0
  153.8692  138.5565  154.6795 H   0  0  0  0  0  0  0  0  0  0  0  0
  152.7598  143.4434  159.1557 H   0  0  0  0  0  0  0  0  0  0  0  0
  151.8641  144.4238  158.0137 H   0  0  0  0  0  0  0  0  0  0  0  0
  151.9328  144.7394  161.0647 H   0  0  0  0  0  0  0  0  0  0  0  0
  152.6840  145.7987  159.8857 H   0  0  0  0  0  0  0  0  0  0  0  0
  149.4783  144.6795  161.1546 H   0  0  0  0  0  0  0  0  0  0  0  0
  148.5910  145.6975  160.0353 H   0  0  0  0  0  0  0  0  0  0  0  0
  149.3334  144.3559  158.1064 H   0  0  0  0  0  0  0  0  0  0  0  0
  148.5785  143.3403  159.3171 H   0  0  0  0  0  0  0  0  0  0  0  0
  1  2  1  0  0  0  0
  1 20  1  0  0  0  0
  1 21  1  0  0  0  0
  1 22  1  0  0  0  0
  2  3  1  0  0  0  0
  2 14  1  0  0  0  0
  2 23  1  0  0  0  0
  3  4  1  0  0  0  0
  3 24  1  0  0  0  0
  3 25  1  0  0  0  0
  4  5  1  0  0  0  0
  4 26  1  0  0  0  0
  5  6  2  0  0  0  0
  5  7  1  0  0  0  0
  7  8  1  0  0  0  0
  7  9  1  0  0  0  0
  7 27  1  0  0  0  0
  8 28  1  0  0  0  0
  8 29  1  0  0  0  0
  8 30  1  0  0  0  0
  9 13  1  0  0  0  0
  9 10  1  0  0  0  0
 10 11  2  0  0  0  0
 10 31  1  0  0  0  0
 11 12  1  0  0  0  0
 12 13  2  0  0  0  0
 12 32  1  0  0  0  0
 14 19  1  0  0  0  0
 14 15  1  0  0  0  0
 15 16  1  0  0  0  0
 15 33  1  0  0  0  0
 15 34  1  0  0  0  0
 16 17  1  0  0  0  0
 16 35  1  0  0  0  0
 16 36  1  0  0  0  0
 17 18  1  0  0  0  0
 18 19  1  0  0  0  0
 18 37  1  0  0  0  0
 18 38  1  0  0  0  0
 19 39  1  0  0  0  0
 19 40  1  0  0  0  0
M  END
> <s_m_source_file>
AV-unprocessed.smi

> <i_m_source_file_index>
3349

> <i_lp_mmshare_version>
43012

> <i_f3d_flags>
0

> <s_epik_input>
W0NIMl0xW0NIMl1PW0NIMl1bQ0gyXU4xW0NASF0oW0NIM10pW0NIMl1bTkhdQyg9TylbQ0BIXShbQ0gzXSluMltjSF1uW2NIXW4y

> <s_epik_cmdline>
J2VwaWtfcHl0aG9uJywgJy1waCcsICc3LjAnLCAnLXRuJywgJzgnLCAnLW1hJywgJzIwMCcsICctbWV0YWxfYmluZGluZycsICctaW1hZScsICc8aW5maWxlLm1hZT4nLCAnLW9tYWUnLCAnPG91dGZpbGUubWFlPic=

> <r_lp_tautomer_probability>
1

> <r_epik_Ionization_Penalty>
0.211373

> <r_epik_Ionization_Penalty_Charging>
0

> <r_epik_Ionization_Penalty_Neutral>
0.211373

> <r_epik_State_Penalty>
0.201459

> <r_epik_Charging_Adjusted_Penalty>
0.201459

> <i_epik_Tot_Q>
0

> <i_epik_Tot_abs_Q>
0

> <r_epik_Metal_State_Penalty>
0.201458

> <b_epik_Metal_Only>
0

> <s_lp_Force_Field>
OPLS_2005

> <r_lp_Energy>
34.2526

> <b_lp_Chiralities_Consistent>
1

> <s_lp_Variant>
AV-unprocessed.smi:3349-2

> <Gold.Version>
5.8.1

> <Gold.Id.Protein>
6NUR|6NUR_protein|mol2

> <Gold.PLP.Fitness>
39.7259

> <Gold.PLP.PLP>
-34.0539

> <Gold.PLP.part.hbond>
-3.6977

> <Gold.PLP.part.metal>
0.0000

> <Gold.PLP.part.buried>
-5.5341

> <Gold.PLP.part.nonpolar>
-27.0406

> <Gold.PLP.part.repulsive>
0.8156

> <Gold.PLP.ligand.clash>
0.0000

> <Gold.PLP.ligand.torsion>
1.5383

> <Gold.PLP.Chemscore.Hbond>
1.8560

> <Gold.PLP.Chemscore.CHOScore>
1.0118

> <Gold.PLP.Chemscore.Metal>
0.0000

> <Gold.Chemscore.Hbonds>
donor molecule, donor type, donor heavy atom, donor atom, acceptor molecule, acceptor atom, score
      P1  H  7989  7998       L1    13  0.98
      P1  H 10752 10765       L1    11  0.80
      L1  C    10    31       P1  7948  0.57

> <Gold.PLP.Chemscore.Internal.Correction>
0.1450

> <Gold.Rescore>
     Score         DG    S(hbond)    S(metal)    S(lipo)     H(rot)  DE(clash)    DE(int)     intcor
      8.34     -11.02       1.55        0.00      59.08       2.56       0.21       2.47       ----

> <Gold.Chemscore.Fitness>
8.3436

> <Gold.Chemscore.DG>
-11.0224

> <Gold.Chemscore.ZeroCoef>
-5.4800

> <Gold.Chemscore.Hbond>
1.5498

> <Gold.Chemscore.Metal>
0.0000

> <Gold.Chemscore.Lipo>
59.0774

> <Gold.Chemscore.Internal_Hbond>
0.0000

> <Gold.Chemscore.DEClash>
0.2089

> <Gold.Chemscore.DEInternal>
2.4699

> <Gold.Chemscore.Rot>
2.5570

> <Gold.Chemscore.Internal.Correction>
   9.000000E+99

> <Gold.Chemscore.Hbonds>
donor molecule, donor type, donor heavy atom, donor atom, acceptor molecule, acceptor atom, score
      P1  H  7989  7998       L1    13  0.27
      P1  H 10752 10765       L1    11  0.78

> <Gold.Chemscore.Hbond.Weighted>
-5.1762

> <Gold.Chemscore.Metal.Weighted>
-0.0000

> <Gold.Chemscore.Lipo.Weighted>
-6.9121

> <Gold.Chemscore.Internal_Hbond.Weighted>
0.0000

> <Gold.Chemscore.DEClash.Weighted>
0.2089

> <Gold.Chemscore.DEInternal.Weighted>
2.4699

> <Gold.Chemscore.Rot.Weighted>
6.5459

> <Gold.Chemscore.Internal.Correction.Weighted>
   9.000000E+99

> <Gold.Protein.RotatedTorsions>
[ 6907 6896 6895 6894 ] final  -80.70 input  -60.11 | X-H torsion
[ 7974 7965 7964 7962 ] final    3.95 input  175.53 | X-H torsion
[ 8008 7997 7996 7995 ] final -128.84 input   59.86 | X-H torsion
[ 10167 10162 10161 10158 ] final   84.75 input  -65.29 | X-H torsion
[ 10718 10713 10712 10709 ] final  -39.67 input   66.30 | X-H torsion
[ 10763 10752 10751 10750 ] final  149.62 input  -60.55 | X-H torsion
[ 11005 11000 10999 10996 ] final  140.05 input  -57.11 | X-H torsion

> <Gold.Protein.ActiveResidues>
 VAL166  LYS551  ARG553  GLY616  TRP617  ASP618  TYR619  PRO620  LYS621  CYS622 
 ASP623  PHE694  ASN695  SER759  ASP760  ASP761  ALA762  ILE779  LEU786  VAL792 
 PHE793  MET794  SER795  GLU796  ALA797  LYS798  CYS799  TRP800  GLU811  SER814 

> <Gold.Protein.RotatedAtoms>
  150.6924  134.3929  159.5084 H   0  0  0  0  0  0  0  0  0  0  0  0  # atno 6907 bound_to 6896
  152.1715  134.8828  160.0543 H   0  0  0  0  0  0  0  0  0  0  0  0  # atno 6908 bound_to 6896
  151.9852  133.3737  159.4160 H   0  0  0  0  0  0  0  0  0  0  0  0  # atno 6909 bound_to 6896
  146.2445  140.0608  142.8368 H   0  0  0  0  0  0  0  0  0  0  0  0  # atno 7974 bound_to 7965
  155.2693  140.0439  157.3005 H   0  0  0  0  0  0  0  0  0  0  0  0  # atno 8008 bound_to 7997
  154.5663  140.2361  155.8227 H   0  0  0  0  0  0  0  0  0  0  0  0  # atno 8009 bound_to 7997
  156.2088  140.3005  155.9693 H   0  0  0  0  0  0  0  0  0  0  0  0  # atno 8010 bound_to 7997
  139.9048  144.6307  150.8598 H   0  0  0  0  0  0  0  0  0  0  0  0  # atno 10167 bound_to 10162
  156.2899  130.4227  149.8249 H   0  0  0  0  0  0  0  0  0  0  0  0  # atno 10718 bound_to 10713
  154.0742  135.2864  155.3302 H   0  0  0  0  0  0  0  0  0  0  0  0  # atno 10763 bound_to 10752
  154.6726  135.5293  153.8162 H   0  0  0  0  0  0  0  0  0  0  0  0  # atno 10764 bound_to 10752
  153.0473  135.6561  154.0921 H   0  0  0  0  0  0  0  0  0  0  0  0  # atno 10765 bound_to 10752
  140.0299  134.9357  157.0642 H   0  0  0  0  0  0  0  0  0  0  0  0  # atno 11005 bound_to 11000
  145.0902  140.9279  143.4774 LP  0  0  0  0  0  0  0  0  0  0  0  0  # atno 17320 bound_to 7965
  145.0779  139.2982  143.5798 LP  0  0  0  0  0  0  0  0  0  0  0  0  # atno 17321 bound_to 7965
  140.7699  143.3409  151.2210 LP  0  0  0  0  0  0  0  0  0  0  0  0  # atno 17342 bound_to 10162
  139.6993  143.9559  152.2898 LP  0  0  0  0  0  0  0  0  0  0  0  0  # atno 17343 bound_to 10162
  156.5666  130.8406  151.3344 LP  0  0  0  0  0  0  0  0  0  0  0  0  # atno 17370 bound_to 10713
  157.7339  130.9738  150.2003 LP  0  0  0  0  0  0  0  0  0  0  0  0  # atno 17371 bound_to 10713
  140.4243  134.1848  155.7165 LP  0  0  0  0  0  0  0  0  0  0  0  0  # atno 17394 bound_to 11000
  141.1825  133.8384  157.1207 LP  0  0  0  0  0  0  0  0  0  0  0  0  # atno 17395 bound_to 11000

$$$$
