AV-unprocessed.smi:1839|AV-procd|sdf|7484|dock7
  -GOLD-   22720 9183D 1   1.00000     0.00000
 Structure written by MMmdl.
 46 47  0  0  0  0  0  0  0  0  1 V2000
  151.4925  142.0877  158.6263 C   0  0  0  0  0  0  0  0  0  0  0  0
  151.2463  141.1207  157.5565 N   0  0  0  0  0  0  0  0  0  0  0  0
  150.8908  141.7279  156.2681 C   0  0  0  0  0  0  0  0  0  0  0  0
  151.0719  139.8076  157.8486 C   0  0  0  0  0  0  0  0  0  0  0  0
  150.7610  139.4259  158.9788 O   0  0  0  0  0  0  0  0  0  0  0  0
  151.2200  138.9431  156.8168 N   0  0  0  0  0  0  0  0  0  0  0  0
  152.2682  139.0898  155.7961 C   0  0  0  0  0  0  0  0  0  0  0  0
  151.6902  138.7556  154.4095 C   0  0  0  0  0  0  0  0  0  0  0  0
  151.0605  137.3516  154.3999 C   0  0  0  0  0  0  0  0  0  0  0  0
  150.0586  137.1807  155.5627 C   0  0  1  0  0  0  0  0  0  0  0  0
  149.5016  135.7535  155.6293 C   0  0  0  0  0  0  0  0  0  0  0  0
  149.6052  135.0900  156.6613 O   0  0  0  0  0  0  0  0  0  0  0  0
  148.8861  135.3056  154.5248 N   0  0  0  0  0  0  0  0  0  0  0  0
  148.1735  134.0371  154.4158 C   0  0  0  0  0  0  0  0  0  0  0  0
  148.4087  133.3287  153.0648 C   0  0  0  0  0  0  0  0  0  0  0  0
  147.1341  132.8328  152.3989 C   0  0  0  0  0  0  0  0  0  0  0  0
  146.6191  133.4855  151.2587 C   0  0  0  0  0  0  0  0  0  0  0  0
  145.4216  133.0048  150.6941 C   0  0  0  0  0  0  0  0  0  0  0  0
  144.7865  131.8974  151.2892 C   0  0  0  0  0  0  0  0  0  0  0  0
  145.3812  131.3150  152.4260 C   0  0  0  0  0  0  0  0  0  0  0  0
  146.5297  131.7673  152.9729 N   0  0  0  0  0  0  0  0  0  0  0  0
  150.7258  137.5650  156.9014 C   0  0  0  0  0  0  0  0  0  0  0  0
  152.1764  141.6885  159.3772 H   0  0  0  0  0  0  0  0  0  0  0  0
  150.5576  142.3533  159.1212 H   0  0  0  0  0  0  0  0  0  0  0  0
  151.9428  143.0017  158.2370 H   0  0  0  0  0  0  0  0  0  0  0  0
  150.1407  141.1461  155.7303 H   0  0  0  0  0  0  0  0  0  0  0  0
  151.7717  141.8263  155.6340 H   0  0  0  0  0  0  0  0  0  0  0  0
  150.4703  142.7250  156.4052 H   0  0  0  0  0  0  0  0  0  0  0  0
  152.7084  140.0871  155.7880 H   0  0  0  0  0  0  0  0  0  0  0  0
  153.0874  138.4083  156.0303 H   0  0  0  0  0  0  0  0  0  0  0  0
  150.9373  139.4956  154.1366 H   0  0  0  0  0  0  0  0  0  0  0  0
  152.4725  138.8180  153.6525 H   0  0  0  0  0  0  0  0  0  0  0  0
  150.5672  137.1740  153.4437 H   0  0  0  0  0  0  0  0  0  0  0  0
  151.8564  136.6094  154.4799 H   0  0  0  0  0  0  0  0  0  0  0  0
  149.2259  137.8659  155.3919 H   0  0  0  0  0  0  0  0  0  0  0  0
  148.8503  135.9178  153.7227 H   0  0  0  0  0  0  0  0  0  0  0  0
  148.5278  133.3970  155.2242 H   0  0  0  0  0  0  0  0  0  0  0  0
  147.1066  134.1858  154.5872 H   0  0  0  0  0  0  0  0  0  0  0  0
  148.9252  134.0051  152.3831 H   0  0  0  0  0  0  0  0  0  0  0  0
  149.0814  132.4816  153.2087 H   0  0  0  0  0  0  0  0  0  0  0  0
  147.1256  134.3376  150.8295 H   0  0  0  0  0  0  0  0  0  0  0  0
  144.9959  133.4793  149.8222 H   0  0  0  0  0  0  0  0  0  0  0  0
  143.8659  131.5035  150.8847 H   0  0  0  0  0  0  0  0  0  0  0  0
  144.9228  130.4654  152.9102 H   0  0  0  0  0  0  0  0  0  0  0  0
  151.5547  136.8946  157.1362 H   0  0  0  0  0  0  0  0  0  0  0  0
  149.9993  137.4554  157.7089 H   0  0  0  0  0  0  0  0  0  0  0  0
  1  2  1  0  0  0  0
  1 23  1  0  0  0  0
  1 24  1  0  0  0  0
  1 25  1  0  0  0  0
  2  3  1  0  0  0  0
  2  4  1  0  0  0  0
  3 26  1  0  0  0  0
  3 27  1  0  0  0  0
  3 28  1  0  0  0  0
  4  5  2  0  0  0  0
  4  6  1  0  0  0  0
  6 22  1  0  0  0  0
  6  7  1  0  0  0  0
  7  8  1  0  0  0  0
  7 29  1  0  0  0  0
  7 30  1  0  0  0  0
  8  9  1  0  0  0  0
  8 31  1  0  0  0  0
  8 32  1  0  0  0  0
  9 10  1  0  0  0  0
  9 33  1  0  0  0  0
  9 34  1  0  0  0  0
 10 11  1  0  0  0  0
 10 22  1  0  0  0  0
 10 35  1  0  0  0  0
 11 12  2  0  0  0  0
 11 13  1  0  0  0  0
 13 14  1  0  0  0  0
 13 36  1  0  0  0  0
 14 15  1  0  0  0  0
 14 37  1  0  0  0  0
 14 38  1  0  0  0  0
 15 16  1  0  0  0  0
 15 39  1  0  0  0  0
 15 40  1  0  0  0  0
 16 21  1  0  0  0  0
 16 17  2  0  0  0  0
 17 18  1  0  0  0  0
 17 41  1  0  0  0  0
 18 19  2  0  0  0  0
 18 42  1  0  0  0  0
 19 20  1  0  0  0  0
 19 43  1  0  0  0  0
 20 21  2  0  0  0  0
 20 44  1  0  0  0  0
 22 45  1  0  0  0  0
 22 46  1  0  0  0  0
M  END
> <s_m_source_file>
AV-unprocessed.smi

> <i_m_source_file_index>
1839

> <i_lp_mmshare_version>
43012

> <i_f3d_flags>
0

> <s_epik_input>
W0NIM11OKFtDSDNdKUMoPU8pTjFbQ0gyXVtDSDJdW0NIMl1bQ0BIXShbQ0gyXTEpQyg9TylbTkhdW0NIMl1bQ0gyXWMyW2NIXVtjSF1bY0hdW2NIXW4y

> <s_epik_cmdline>
J2VwaWtfcHl0aG9uJywgJy1waCcsICc3LjAnLCAnLXRuJywgJzgnLCAnLW1hJywgJzIwMCcsICctbWV0YWxfYmluZGluZycsICctaW1hZScsICc8aW5maWxlLm1hZT4nLCAnLW9tYWUnLCAnPG91dGZpbGUubWFlPic=

> <r_epik_Ionization_Penalty>
0.0268631

> <r_epik_Ionization_Penalty_Charging>
0

> <r_epik_Ionization_Penalty_Neutral>
0.0268631

> <r_epik_State_Penalty>
0.0219025

> <r_epik_Charging_Adjusted_Penalty>
0.0219025

> <i_epik_Tot_Q>
0

> <i_epik_Tot_abs_Q>
0

> <r_epik_Metal_State_Penalty>
0.0209511

> <b_epik_Metal_Only>
0

> <s_lp_Force_Field>
OPLS_2005

> <r_lp_Energy>
49.2306

> <b_lp_Chiralities_Consistent>
1

> <s_lp_Variant>
AV-unprocessed.smi:1839-1

> <Gold.Version>
5.8.1

> <Gold.Id.Protein>
6NUR|6NUR_protein|mol2

> <Gold.PLP.Fitness>
39.0544

> <Gold.PLP.PLP>
-36.8430

> <Gold.PLP.part.hbond>
-1.2300

> <Gold.PLP.part.metal>
0.0000

> <Gold.PLP.part.buried>
-4.0790

> <Gold.PLP.part.nonpolar>
-31.5248

> <Gold.PLP.part.repulsive>
0.1390

> <Gold.PLP.ligand.clash>
0.0000

> <Gold.PLP.ligand.torsion>
1.2935

> <Gold.PLP.Chemscore.Hbond>
1.0000

> <Gold.PLP.Chemscore.CHOScore>
0.1578

> <Gold.PLP.Chemscore.Metal>
0.0000

> <Gold.Chemscore.Hbonds>
donor molecule, donor type, donor heavy atom, donor atom, acceptor molecule, acceptor atom, score
      L1  H    13    36       P1  7948  1.00
      L1  C    20    44       P1 10956  0.02

> <Gold.PLP.Chemscore.Internal.Correction>
1.3251

> <Gold.Rescore>
     Score         DG    S(hbond)    S(metal)    S(lipo)     H(rot)  DE(clash)    DE(int)     intcor
     13.66     -16.06       0.93        0.00      97.16       1.52       0.17       2.23       ----

> <Gold.Chemscore.Fitness>
13.6614

> <Gold.Chemscore.DG>
-16.0591

> <Gold.Chemscore.ZeroCoef>
-5.4800

> <Gold.Chemscore.Hbond>
0.9255

> <Gold.Chemscore.Metal>
0.0000

> <Gold.Chemscore.Lipo>
97.1586

> <Gold.Chemscore.Internal_Hbond>
0.0000

> <Gold.Chemscore.DEClash>
0.1717

> <Gold.Chemscore.DEInternal>
2.2260

> <Gold.Chemscore.Rot>
1.5155

> <Gold.Chemscore.Internal.Correction>
   9.000000E+99

> <Gold.Chemscore.Hbonds>
donor molecule, donor type, donor heavy atom, donor atom, acceptor molecule, acceptor atom, score
      L1  H    13    36       P1  7948  0.94

> <Gold.Chemscore.Hbond.Weighted>
-3.0912

> <Gold.Chemscore.Metal.Weighted>
-0.0000

> <Gold.Chemscore.Lipo.Weighted>
-11.3676

> <Gold.Chemscore.Internal_Hbond.Weighted>
0.0000

> <Gold.Chemscore.DEClash.Weighted>
0.1717

> <Gold.Chemscore.DEInternal.Weighted>
2.2260

> <Gold.Chemscore.Rot.Weighted>
3.8796

> <Gold.Chemscore.Internal.Correction.Weighted>
   9.000000E+99

> <Gold.Protein.RotatedTorsions>
[ 6907 6896 6895 6894 ] final  121.44 input  -60.11 | X-H torsion
[ 7974 7965 7964 7962 ] final  157.18 input  175.53 | X-H torsion
[ 8008 7997 7996 7995 ] final    1.87 input   59.86 | X-H torsion
[ 10167 10162 10161 10158 ] final  102.06 input  -65.29 | X-H torsion
[ 10718 10713 10712 10709 ] final   93.44 input   66.30 | X-H torsion
[ 10763 10752 10751 10750 ] final -175.65 input  -60.55 | X-H torsion
[ 11005 11000 10999 10996 ] final -175.62 input  -57.11 | X-H torsion

> <Gold.Protein.ActiveResidues>
 VAL166  LYS551  ARG553  GLY616  TRP617  ASP618  TYR619  PRO620  LYS621  CYS622 
 ASP623  PHE694  ASN695  SER759  ASP760  ASP761  ALA762  ILE779  LEU786  VAL792 
 PHE793  MET794  SER795  GLU796  ALA797  LYS798  CYS799  TRP800  GLU811  SER814 

> <Gold.Protein.RotatedAtoms>
  152.4322  133.7297  159.6579 H   0  0  0  0  0  0  0  0  0  0  0  0  # atno 6907 bound_to 6896
  150.8202  133.8256  159.3148 H   0  0  0  0  0  0  0  0  0  0  0  0  # atno 6908 bound_to 6896
  151.5940  135.1054  160.0097 H   0  0  0  0  0  0  0  0  0  0  0  0  # atno 6909 bound_to 6896
  144.7918  139.7306  143.6218 H   0  0  0  0  0  0  0  0  0  0  0  0  # atno 7974 bound_to 7965
  154.6849  140.2640  155.6871 H   0  0  0  0  0  0  0  0  0  0  0  0  # atno 8008 bound_to 7997
  156.2711  140.2803  156.1329 H   0  0  0  0  0  0  0  0  0  0  0  0  # atno 8009 bound_to 7997
  155.0979  140.0374  157.2678 H   0  0  0  0  0  0  0  0  0  0  0  0  # atno 8010 bound_to 7997
  139.7383  144.7018  151.0614 H   0  0  0  0  0  0  0  0  0  0  0  0  # atno 10167 bound_to 10162
  157.6954  131.0478  150.4035 H   0  0  0  0  0  0  0  0  0  0  0  0  # atno 10718 bound_to 10713
  154.5819  135.2837  155.0724 H   0  0  0  0  0  0  0  0  0  0  0  0  # atno 10763 bound_to 10752
  154.2057  135.6416  153.5104 H   0  0  0  0  0  0  0  0  0  0  0  0  # atno 10764 bound_to 10752
  153.0091  135.5480  154.6475 H   0  0  0  0  0  0  0  0  0  0  0  0  # atno 10765 bound_to 10752
  140.4613  134.6252  157.4844 H   0  0  0  0  0  0  0  0  0  0  0  0  # atno 11005 bound_to 11000
  146.2173  139.5572  142.9642 LP  0  0  0  0  0  0  0  0  0  0  0  0  # atno 17320 bound_to 7965
  145.5774  141.0387  143.2141 LP  0  0  0  0  0  0  0  0  0  0  0  0  # atno 17321 bound_to 7965
  140.7782  143.4956  150.9837 LP  0  0  0  0  0  0  0  0  0  0  0  0  # atno 17342 bound_to 10162
  139.8644  143.7273  152.3171 LP  0  0  0  0  0  0  0  0  0  0  0  0  # atno 17343 bound_to 10162
  156.4426  130.3994  149.6688 LP  0  0  0  0  0  0  0  0  0  0  0  0  # atno 17370 bound_to 10713
  156.3866  130.7606  151.2603 LP  0  0  0  0  0  0  0  0  0  0  0  0  # atno 17371 bound_to 10713
  139.9943  134.6935  155.9635 LP  0  0  0  0  0  0  0  0  0  0  0  0  # atno 17394 bound_to 11000
  141.1620  133.6538  156.4350 LP  0  0  0  0  0  0  0  0  0  0  0  0  # atno 17395 bound_to 11000

$$$$
