AV-unprocessed.smi:3299|AV-procd|sdf|12648|dock6
  -GOLD-   2272018583D 1   1.00000     0.00000
 Structure written by MMmdl.
 34 35  0  0  0  0  0  0  0  0  1 V2000
  152.6736  142.5254  161.9533 C   0  0  0  0  0  0  0  0  0  0  0  0
  152.1312  143.3641  160.8393 C   0  0  0  0  0  0  0  0  0  0  0  0
  152.1377  144.7352  160.7574 C   0  0  0  0  0  0  0  0  0  0  0  0
  151.3965  145.3053  159.2858 S   0  0  0  0  0  0  0  0  0  0  0  0
  151.1040  143.6337  158.8314 C   0  0  0  0  0  0  0  0  0  0  0  0
  150.4545  143.2875  157.6175 N   0  0  0  0  0  0  0  0  0  0  0  0
  150.2313  142.0601  157.1158 C   0  0  0  0  0  0  0  0  0  0  0  0
  150.6055  141.0041  157.6264 O   0  0  0  0  0  0  0  0  0  0  0  0
  149.5413  142.1248  155.9678 N   0  0  0  0  0  0  0  0  0  0  0  0
  149.1159  140.9783  155.1680 C   0  0  2  0  0  0  0  0  0  0  0  0
  150.3398  140.1041  154.8306 C   0  0  0  0  0  0  0  0  0  0  0  0
  149.9973  138.6245  154.5888 C   0  0  0  0  0  0  0  0  0  0  0  0
  149.1794  138.5045  153.4452 O   0  0  0  0  0  0  0  0  0  0  0  0
  148.3780  141.3811  153.9016 C   0  0  0  0  0  0  0  0  0  0  0  0
  147.0585  142.1145  153.9578 C   0  0  0  0  0  0  0  0  0  0  0  0
  147.1063  140.6795  153.4865 C   0  0  0  0  0  0  0  0  0  0  0  0
  151.5396  142.7468  159.7335 N   0  0  0  0  0  0  0  0  0  0  0  0
  153.1078  143.1411  162.7412 H   0  0  0  0  0  0  0  0  0  0  0  0
  153.4517  141.8509  161.5951 H   0  0  0  0  0  0  0  0  0  0  0  0
  151.8897  141.9167  162.4049 H   0  0  0  0  0  0  0  0  0  0  0  0
  152.5311  145.4426  161.4726 H   0  0  0  0  0  0  0  0  0  0  0  0
  150.1056  144.0646  157.0760 H   0  0  0  0  0  0  0  0  0  0  0  0
  149.2774  143.0367  155.6245 H   0  0  0  0  0  0  0  0  0  0  0  0
  148.4366  140.3690  155.7677 H   0  0  0  0  0  0  0  0  0  0  0  0
  150.8240  140.4999  153.9365 H   0  0  0  0  0  0  0  0  0  0  0  0
  151.0767  140.1828  155.6313 H   0  0  0  0  0  0  0  0  0  0  0  0
  150.8983  138.0300  154.4369 H   0  0  0  0  0  0  0  0  0  0  0  0
  149.4702  138.2072  155.4472 H   0  0  0  0  0  0  0  0  0  0  0  0
  149.4530  137.7419  152.9585 H   0  0  0  0  0  0  0  0  0  0  0  0
  149.0412  141.6616  153.0853 H   0  0  0  0  0  0  0  0  0  0  0  0
  146.6216  142.3049  154.9360 H   0  0  0  0  0  0  0  0  0  0  0  0
  146.8829  142.8862  153.2110 H   0  0  0  0  0  0  0  0  0  0  0  0
  146.9602  140.4932  152.4245 H   0  0  0  0  0  0  0  0  0  0  0  0
  146.7039  139.9196  154.1537 H   0  0  0  0  0  0  0  0  0  0  0  0
  1  2  1  0  0  0  0
  1 18  1  0  0  0  0
  1 19  1  0  0  0  0
  1 20  1  0  0  0  0
  2 17  1  0  0  0  0
  2  3  2  0  0  0  0
  3  4  1  0  0  0  0
  3 21  1  0  0  0  0
  4  5  1  0  0  0  0
  5  6  1  0  0  0  0
  5 17  2  0  0  0  0
  6  7  1  0  0  0  0
  6 22  1  0  0  0  0
  7  8  2  0  0  0  0
  7  9  1  0  0  0  0
  9 10  1  0  0  0  0
  9 23  1  0  0  0  0
 10 11  1  0  0  0  0
 10 14  1  0  0  0  0
 10 24  1  0  0  0  0
 11 12  1  0  0  0  0
 11 25  1  0  0  0  0
 11 26  1  0  0  0  0
 12 13  1  0  0  0  0
 12 27  1  0  0  0  0
 12 28  1  0  0  0  0
 13 29  1  0  0  0  0
 14 16  1  0  0  0  0
 14 15  1  0  0  0  0
 14 30  1  0  0  0  0
 15 16  1  0  0  0  0
 15 31  1  0  0  0  0
 15 32  1  0  0  0  0
 16 33  1  0  0  0  0
 16 34  1  0  0  0  0
M  END
> <s_m_source_file>
AV-unprocessed.smi

> <i_m_source_file_index>
3299

> <i_lp_mmshare_version>
43012

> <i_f3d_flags>
0

> <s_epik_input>
W0NIM11jMVtjSF1zYyhuMSlbTkhdQyg9TylbTkhdW0NASF0oW0NIMl1bQ0gyXVtPSF0pW0NIXTJbQ0gyXVtDSDJdMg==

> <s_epik_cmdline>
J2VwaWtfcHl0aG9uJywgJy1waCcsICc3LjAnLCAnLXRuJywgJzgnLCAnLW1hJywgJzIwMCcsICctbWV0YWxfYmluZGluZycsICctaW1hZScsICc8aW5maWxlLm1hZT4nLCAnLW9tYWUnLCAnPG91dGZpbGUubWFlPic=

> <r_lp_tautomer_probability>
0.999

> <r_epik_Ionization_Penalty>
0.000568872

> <r_epik_Ionization_Penalty_Charging>
0

> <r_epik_Ionization_Penalty_Neutral>
0.000568872

> <r_epik_State_Penalty>
0.000177984

> <r_epik_Charging_Adjusted_Penalty>
0.000177984

> <i_epik_Tot_Q>
0

> <i_epik_Tot_abs_Q>
0

> <r_epik_Metal_State_Penalty>
-0

> <b_epik_Metal_Only>
0

> <s_lp_Force_Field>
OPLS_2005

> <r_lp_Energy>
12.8181

> <b_lp_Chiralities_Consistent>
1

> <s_lp_Variant>
AV-unprocessed.smi:3299-1

> <Gold.Version>
5.8.1

> <Gold.Id.Protein>
6NUR|6NUR_protein|mol2

> <Gold.PLP.Fitness>
50.2168

> <Gold.PLP.PLP>
-41.9672

> <Gold.PLP.part.hbond>
-4.0000

> <Gold.PLP.part.metal>
0.0000

> <Gold.PLP.part.buried>
-4.5404

> <Gold.PLP.part.nonpolar>
-33.0439

> <Gold.PLP.part.repulsive>
0.1517

> <Gold.PLP.ligand.clash>
0.0000

> <Gold.PLP.ligand.torsion>
0.9146

> <Gold.PLP.Chemscore.Hbond>
2.9920

> <Gold.PLP.Chemscore.CHOScore>
0.0000

> <Gold.PLP.Chemscore.Metal>
0.0000

> <Gold.Chemscore.Hbonds>
donor molecule, donor type, donor heavy atom, donor atom, acceptor molecule, acceptor atom, score
      L1  H     6    22       P1  8028  0.99
      L1  H     9    23       P1  8028  1.00
      L1  H    13    29       P1  7948  0.99

> <Gold.PLP.Chemscore.Internal.Correction>
1.1029

> <Gold.Rescore>
     Score         DG    S(hbond)    S(metal)    S(lipo)     H(rot)  DE(clash)    DE(int)     intcor
     16.10     -19.60       2.90        0.00      90.29       2.39       0.05       3.45       ----

> <Gold.Chemscore.Fitness>
16.1011

> <Gold.Chemscore.DG>
-19.5999

> <Gold.Chemscore.ZeroCoef>
-5.4800

> <Gold.Chemscore.Hbond>
2.8979

> <Gold.Chemscore.Metal>
0.0000

> <Gold.Chemscore.Lipo>
90.2887

> <Gold.Chemscore.Internal_Hbond>
0.0000

> <Gold.Chemscore.DEClash>
0.0480

> <Gold.Chemscore.DEInternal>
3.4508

> <Gold.Chemscore.Rot>
2.3917

> <Gold.Chemscore.Internal.Correction>
   9.000000E+99

> <Gold.Chemscore.Hbonds>
donor molecule, donor type, donor heavy atom, donor atom, acceptor molecule, acceptor atom, score
      L1  H     6    22       P1  8028  0.84
      L1  H     9    23       P1  8028  0.99
      L1  H    13    29       P1  7948  0.82

> <Gold.Chemscore.Hbond.Weighted>
-9.6789

> <Gold.Chemscore.Metal.Weighted>
-0.0000

> <Gold.Chemscore.Lipo.Weighted>
-10.5638

> <Gold.Chemscore.Internal_Hbond.Weighted>
0.0000

> <Gold.Chemscore.DEClash.Weighted>
0.0480

> <Gold.Chemscore.DEInternal.Weighted>
3.4508

> <Gold.Chemscore.Rot.Weighted>
6.1228

> <Gold.Chemscore.Internal.Correction.Weighted>
   9.000000E+99

> <Gold.Protein.RotatedTorsions>
[ 6907 6896 6895 6894 ] final  -28.70 input  -60.11 | X-H torsion
[ 7974 7965 7964 7962 ] final  -52.03 input  175.53 | X-H torsion
[ 8008 7997 7996 7995 ] final    7.78 input   59.86 | X-H torsion
[ 10167 10162 10161 10158 ] final -145.53 input  -65.29 | X-H torsion
[ 10718 10713 10712 10709 ] final  -89.70 input   66.30 | X-H torsion
[ 10763 10752 10751 10750 ] final   34.73 input  -60.55 | X-H torsion
[ 11005 11000 10999 10996 ] final -151.32 input  -57.11 | X-H torsion

> <Gold.Protein.ActiveResidues>
 VAL166  LYS551  ARG553  GLY616  TRP617  ASP618  TYR619  PRO620  LYS621  CYS622 
 ASP623  PHE694  ASN695  SER759  ASP760  ASP761  ALA762  ILE779  LEU786  VAL792 
 PHE793  MET794  SER795  GLU796  ALA797  LYS798  CYS799  TRP800  GLU811  SER814 

> <Gold.Protein.RotatedAtoms>
  151.1293  135.0122  159.8574 H   0  0  0  0  0  0  0  0  0  0  0  0  # atno 6907 bound_to 6896
  152.5450  134.1629  159.8575 H   0  0  0  0  0  0  0  0  0  0  0  0  # atno 6908 bound_to 6896
  151.1694  133.4749  159.2627 H   0  0  0  0  0  0  0  0  0  0  0  0  # atno 6909 bound_to 6896
  145.9124  140.7903  142.9688 H   0  0  0  0  0  0  0  0  0  0  0  0  # atno 7974 bound_to 7965
  154.7583  140.2780  155.6235 H   0  0  0  0  0  0  0  0  0  0  0  0  # atno 8008 bound_to 7997
  156.2910  140.2665  156.2282 H   0  0  0  0  0  0  0  0  0  0  0  0  # atno 8009 bound_to 7997
  155.0050  140.0372  157.2365 H   0  0  0  0  0  0  0  0  0  0  0  0  # atno 8010 bound_to 7997
  139.7797  143.8118  152.2637 H   0  0  0  0  0  0  0  0  0  0  0  0  # atno 10167 bound_to 10162
  155.9985  130.4882  150.5211 H   0  0  0  0  0  0  0  0  0  0  0  0  # atno 10718 bound_to 10713
  153.0151  135.6352  154.1715 H   0  0  0  0  0  0  0  0  0  0  0  0  # atno 10763 bound_to 10752
  154.1455  135.2832  155.3151 H   0  0  0  0  0  0  0  0  0  0  0  0  # atno 10764 bound_to 10752
  154.6093  135.5562  153.7517 H   0  0  0  0  0  0  0  0  0  0  0  0  # atno 10765 bound_to 10752
  140.7308  134.3623  157.5167 H   0  0  0  0  0  0  0  0  0  0  0  0  # atno 11005 bound_to 11000
  144.6744  140.1847  143.7402 LP  0  0  0  0  0  0  0  0  0  0  0  0  # atno 17320 bound_to 7965
  145.8654  139.2244  143.1692 LP  0  0  0  0  0  0  0  0  0  0  0  0  # atno 17321 bound_to 7965
  139.8177  144.7309  150.9613 LP  0  0  0  0  0  0  0  0  0  0  0  0  # atno 17342 bound_to 10162
  140.7818  143.4189  151.0873 LP  0  0  0  0  0  0  0  0  0  0  0  0  # atno 17343 bound_to 10162
  157.3172  131.0675  151.1958 LP  0  0  0  0  0  0  0  0  0  0  0  0  # atno 17370 bound_to 10713
  157.2883  130.6784  149.6101 LP  0  0  0  0  0  0  0  0  0  0  0  0  # atno 17371 bound_to 10713
  139.8827  134.9017  156.2816 LP  0  0  0  0  0  0  0  0  0  0  0  0  # atno 17394 bound_to 11000
  140.9922  133.7201  156.0832 LP  0  0  0  0  0  0  0  0  0  0  0  0  # atno 17395 bound_to 11000

$$$$
