AV-unprocessed.smi:2094|AV-procd|sdf|8552|dock3
  -GOLD-   2272011273D 1   1.00000     0.00000
 Structure written by MMmdl.
 36 37  0  0  0  0  0  0  0  0  2 V2000
  150.5243  140.5625  156.4869 O   0  0  0  0  0  0  0  0  0  0  0  0
  150.0989  141.6796  156.1907 C   0  0  0  0  0  0  0  0  0  0  0  0
  149.2308  141.8943  155.1914 N   0  0  0  0  0  0  0  0  0  0  0  0
  148.6894  140.8549  154.3235 C   0  0  0  0  0  0  0  0  0  0  0  0
  147.3224  141.2599  153.7381 C   0  0  0  0  0  0  0  0  0  0  0  0
  146.5094  140.0855  153.3335 N   0  3  0  0  0  0  0  0  0  0  0  0
  146.1304  139.2397  154.4959 C   0  0  0  0  0  0  0  0  0  0  0  0
  145.1813  138.1044  154.0757 C   0  0  0  0  0  0  0  0  0  0  0  0
  145.8029  137.2516  152.9627 C   0  0  0  0  0  0  0  0  0  0  0  0
  146.2143  138.1470  151.7871 C   0  0  0  0  0  0  0  0  0  0  0  0
  147.1441  139.2788  152.2559 C   0  0  0  0  0  0  0  0  0  0  0  0
  150.4292  142.8280  156.8071 N   0  0  0  0  0  0  0  0  0  0  0  0
  151.3029  143.0105  157.9111 C   0  0  0  0  0  0  0  0  0  0  0  0
  151.8771  142.0119  158.5927 N   0  0  0  0  0  0  0  0  0  0  0  0
  152.6855  142.4828  159.6304 C   0  0  0  0  0  0  0  0  0  0  0  0
  152.7142  143.8519  159.7256 C   0  0  0  0  0  0  0  0  0  0  0  0
  151.7213  144.6091  158.5091 S   0  0  0  0  0  0  0  0  0  0  0  0
  148.9333  142.8426  155.0120 H   0  0  0  0  0  0  0  0  0  0  0  0
  149.4021  140.6828  153.5165 H   0  0  0  0  0  0  0  0  0  0  0  0
  148.6266  139.9227  154.8854 H   0  0  0  0  0  0  0  0  0  0  0  0
  146.7538  141.8693  154.4423 H   0  0  0  0  0  0  0  0  0  0  0  0
  147.5053  141.8901  152.8663 H   0  0  0  0  0  0  0  0  0  0  0  0
  147.0305  138.8280  154.9556 H   0  0  0  0  0  0  0  0  0  0  0  0
  145.6387  139.8513  155.2533 H   0  0  0  0  0  0  0  0  0  0  0  0
  144.9453  137.4782  154.9366 H   0  0  0  0  0  0  0  0  0  0  0  0
  144.2357  138.5253  153.7311 H   0  0  0  0  0  0  0  0  0  0  0  0
  146.6759  136.7218  153.3464 H   0  0  0  0  0  0  0  0  0  0  0  0
  145.0963  136.4907  152.6300 H   0  0  0  0  0  0  0  0  0  0  0  0
  146.7106  137.5508  151.0207 H   0  0  0  0  0  0  0  0  0  0  0  0
  145.3247  138.5724  151.3205 H   0  0  0  0  0  0  0  0  0  0  0  0
  147.3885  139.9079  151.4010 H   0  0  0  0  0  0  0  0  0  0  0  0
  148.0859  138.8629  152.6182 H   0  0  0  0  0  0  0  0  0  0  0  0
  150.0065  143.6707  156.4467 H   0  0  0  0  0  0  0  0  0  0  0  0
  153.2058  141.7718  160.2549 H   0  0  0  0  0  0  0  0  0  0  0  0
  153.2570  144.4583  160.4353 H   0  0  0  0  0  0  0  0  0  0  0  0
  145.6453  140.4508  152.9593 H   0  0  0  0  0  0  0  0  0  0  0  0
  1  2  2  0  0  0  0
  2  3  1  0  0  0  0
  2 12  1  0  0  0  0
  3  4  1  0  0  0  0
  3 18  1  0  0  0  0
  4  5  1  0  0  0  0
  4 19  1  0  0  0  0
  4 20  1  0  0  0  0
  5  6  1  0  0  0  0
  5 21  1  0  0  0  0
  5 22  1  0  0  0  0
  6 11  1  0  0  0  0
  6  7  1  0  0  0  0
  6 36  1  0  0  0  0
  7  8  1  0  0  0  0
  7 23  1  0  0  0  0
  7 24  1  0  0  0  0
  8  9  1  0  0  0  0
  8 25  1  0  0  0  0
  8 26  1  0  0  0  0
  9 10  1  0  0  0  0
  9 27  1  0  0  0  0
  9 28  1  0  0  0  0
 10 11  1  0  0  0  0
 10 29  1  0  0  0  0
 10 30  1  0  0  0  0
 11 31  1  0  0  0  0
 11 32  1  0  0  0  0
 12 13  1  0  0  0  0
 12 33  1  0  0  0  0
 13 17  1  0  0  0  0
 13 14  2  0  0  0  0
 14 15  1  0  0  0  0
 15 16  2  0  0  0  0
 15 34  1  0  0  0  0
 16 17  1  0  0  0  0
 16 35  1  0  0  0  0
M  CHG  1   6   1
M  END
> <s_m_source_file>
AV-unprocessed.smi

> <i_m_source_file_index>
2094

> <i_lp_mmshare_version>
43012

> <i_f3d_flags>
0

> <s_epik_input>
czFbY0hdW2NIXW5jMVtOSF1DKD1PKVtOSF1bQ0gyXVtDSDJdTjJbQ0gyXVtDSDJdW0NIMl1bQ0gyXVtDSDJdMg==

> <s_epik_cmdline>
J2VwaWtfcHl0aG9uJywgJy1waCcsICc3LjAnLCAnLXRuJywgJzgnLCAnLW1hJywgJzIwMCcsICctbWV0YWxfYmluZGluZycsICctaW1hZScsICc8aW5maWxlLm1hZT4nLCAnLW9tYWUnLCAnPG91dGZpbGUubWFlPic=

> <r_lp_tautomer_probability>
0.999

> <r_epik_Ionization_Penalty>
0.00270619

> <r_epik_Ionization_Penalty_Charging>
0.00256589

> <r_epik_Ionization_Penalty_Neutral>
0.000140299

> <r_epik_State_Penalty>
0.00178258

> <r_epik_Charging_Adjusted_Penalty>
0.00434847

> <i_epik_Tot_Q>
1

> <i_epik_Tot_abs_Q>
1

> <r_epik_Metal_State_Penalty>
0.0571422

> <b_epik_Metal_Only>
0

> <s_lp_Force_Field>
OPLS_2005

> <r_lp_Energy>
13.6526

> <b_lp_Chiralities_Consistent>
1

> <s_lp_Variant>
AV-unprocessed.smi:2094-1

> <Gold.Version>
5.8.1

> <Gold.Id.Protein>
6NUR|6NUR_protein|mol2

> <Gold.PLP.Fitness>
45.7664

> <Gold.PLP.PLP>
-34.4894

> <Gold.PLP.part.hbond>
-3.0000

> <Gold.PLP.part.metal>
0.0000

> <Gold.PLP.part.buried>
-1.9150

> <Gold.PLP.part.nonpolar>
-31.1879

> <Gold.PLP.part.repulsive>
0.2529

> <Gold.PLP.ligand.clash>
0.0000

> <Gold.PLP.ligand.torsion>
0.3148

> <Gold.PLP.Chemscore.Hbond>
3.9600

> <Gold.PLP.Chemscore.CHOScore>
0.0000

> <Gold.PLP.Chemscore.Metal>
0.0000

> <Gold.Chemscore.Hbonds>
donor molecule, donor type, donor heavy atom, donor atom, acceptor molecule, acceptor atom, score
      L1  H     3    18       P1  8028  0.96
      L1  H     6    36       P1 10175  2.00
      L1  H    12    33       P1  8028  1.00

> <Gold.PLP.Chemscore.Internal.Correction>
0.0265

> <Gold.Rescore>
     Score         DG    S(hbond)    S(metal)    S(lipo)     H(rot)  DE(clash)    DE(int)     intcor
     18.04     -19.65       2.89        0.00      73.98       1.61       0.03       1.58       ----

> <Gold.Chemscore.Fitness>
18.0421

> <Gold.Chemscore.DG>
-19.6486

> <Gold.Chemscore.ZeroCoef>
-5.4800

> <Gold.Chemscore.Hbond>
2.8873

> <Gold.Chemscore.Metal>
0.0000

> <Gold.Chemscore.Lipo>
73.9849

> <Gold.Chemscore.Internal_Hbond>
0.0000

> <Gold.Chemscore.DEClash>
0.0311

> <Gold.Chemscore.DEInternal>
1.5754

> <Gold.Chemscore.Rot>
1.6137

> <Gold.Chemscore.Internal.Correction>
   9.000000E+99

> <Gold.Chemscore.Hbonds>
donor molecule, donor type, donor heavy atom, donor atom, acceptor molecule, acceptor atom, score
      L1  H     3    18       P1  8028  0.90
      L1  H     6    36       P1 10175  0.80
      L1  H    12    33       P1  8028  1.00

> <Gold.Chemscore.Hbond.Weighted>
-9.6434

> <Gold.Chemscore.Metal.Weighted>
-0.0000

> <Gold.Chemscore.Lipo.Weighted>
-8.6562

> <Gold.Chemscore.Internal_Hbond.Weighted>
0.0000

> <Gold.Chemscore.DEClash.Weighted>
0.0311

> <Gold.Chemscore.DEInternal.Weighted>
1.5754

> <Gold.Chemscore.Rot.Weighted>
4.1310

> <Gold.Chemscore.Internal.Correction.Weighted>
   9.000000E+99

> <Gold.Protein.RotatedTorsions>
[ 6907 6896 6895 6894 ] final  164.54 input  -60.11 | X-H torsion
[ 7974 7965 7964 7962 ] final  123.14 input  175.53 | X-H torsion
[ 8008 7997 7996 7995 ] final  -26.43 input   59.86 | X-H torsion
[ 10167 10162 10161 10158 ] final  -60.24 input  -65.29 | X-H torsion
[ 10718 10713 10712 10709 ] final  -62.72 input   66.30 | X-H torsion
[ 10763 10752 10751 10750 ] final -161.33 input  -60.55 | X-H torsion
[ 11005 11000 10999 10996 ] final -129.33 input  -57.11 | X-H torsion

> <Gold.Protein.ActiveResidues>
 VAL166  LYS551  ARG553  GLY616  TRP617  ASP618  TYR619  PRO620  LYS621  CYS622 
 ASP623  PHE694  ASN695  SER759  ASP760  ASP761  ALA762  ILE779  LEU786  VAL792 
 PHE793  MET794  SER795  GLU796  ALA797  LYS798  CYS799  TRP800  GLU811  SER814 

> <Gold.Protein.RotatedAtoms>
  151.9082  133.3554  159.3854 H   0  0  0  0  0  0  0  0  0  0  0  0  # atno 6907 bound_to 6896
  150.7064  134.4759  159.5456 H   0  0  0  0  0  0  0  0  0  0  0  0  # atno 6908 bound_to 6896
  152.2360  134.8276  160.0518 H   0  0  0  0  0  0  0  0  0  0  0  0  # atno 6909 bound_to 6896
  145.0994  139.3529  143.4820 H   0  0  0  0  0  0  0  0  0  0  0  0  # atno 7974 bound_to 7965
  154.4425  140.1899  156.0775 H   0  0  0  0  0  0  0  0  0  0  0  0  # atno 8008 bound_to 7997
  156.0464  140.3313  155.7275 H   0  0  0  0  0  0  0  0  0  0  0  0  # atno 8009 bound_to 7997
  155.5622  140.0605  157.2817 H   0  0  0  0  0  0  0  0  0  0  0  0  # atno 8010 bound_to 7997
  140.6084  143.2380  151.5767 H   0  0  0  0  0  0  0  0  0  0  0  0  # atno 10167 bound_to 10162
  156.0837  130.4212  150.1175 H   0  0  0  0  0  0  0  0  0  0  0  0  # atno 10718 bound_to 10713
  154.7313  135.3047  154.8886 H   0  0  0  0  0  0  0  0  0  0  0  0  # atno 10763 bound_to 10752
  153.9728  135.6739  153.4751 H   0  0  0  0  0  0  0  0  0  0  0  0  # atno 10764 bound_to 10752
  153.0921  135.4954  154.8631 H   0  0  0  0  0  0  0  0  0  0  0  0  # atno 10765 bound_to 10752
  140.9441  134.1154  157.4123 H   0  0  0  0  0  0  0  0  0  0  0  0  # atno 11005 bound_to 11000
  146.3530  140.0864  142.8615 LP  0  0  0  0  0  0  0  0  0  0  0  0  # atno 17320 bound_to 7965
  145.0973  140.9323  143.4733 LP  0  0  0  0  0  0  0  0  0  0  0  0  # atno 17321 bound_to 7965
  139.5342  144.2828  152.1215 LP  0  0  0  0  0  0  0  0  0  0  0  0  # atno 17342 bound_to 10162
  140.2022  144.4646  150.6426 LP  0  0  0  0  0  0  0  0  0  0  0  0  # atno 17343 bound_to 10162
  156.9201  130.9680  151.3550 LP  0  0  0  0  0  0  0  0  0  0  0  0  # atno 17370 bound_to 10713
  157.5963  130.8480  149.8734 LP  0  0  0  0  0  0  0  0  0  0  0  0  # atno 17371 bound_to 10713
  139.8828  135.0046  156.6258 LP  0  0  0  0  0  0  0  0  0  0  0  0  # atno 17394 bound_to 11000
  140.7693  133.8751  155.8479 LP  0  0  0  0  0  0  0  0  0  0  0  0  # atno 17395 bound_to 11000

$$$$
