AV-unprocessed.smi:750|AV-procd|sdf|3593|dock5
  -GOLD-   22720 0583D 1   1.00000     0.00000
 Structure written by MMmdl.
 22 23  0  0  0  0  0  0  0  0  2 V2000
  150.9347  139.3084  157.5109 C   0  0  0  0  0  0  0  0  0  0  0  0
  152.2523  138.9208  158.2167 C   0  0  2  0  0  0  0  0  0  0  0  0
  152.7158  140.0142  159.1985 C   0  0  0  0  0  0  0  0  0  0  0  0
  152.0252  141.2417  159.3559 C   0  0  0  0  0  0  0  0  0  0  0  0
  152.5097  142.1955  160.2714 C   0  0  0  0  0  0  0  0  0  0  0  0
  153.6715  141.8918  161.0047 C   0  0  0  0  0  0  0  0  0  0  0  0
  154.3457  140.7316  160.8729 N   0  0  0  0  0  0  0  0  0  0  0  0
  153.8740  139.8239  159.9914 C   0  0  0  0  0  0  0  0  0  0  0  0
  153.2407  138.5730  157.2020 N   0  5  0  0  0  0  0  0  0  0  0  0
  153.6165  137.2840  157.3739 C   0  0  0  0  0  0  0  0  0  0  0  0
  154.4392  136.6461  156.7208 O   0  0  0  0  0  0  0  0  0  0  0  0
  152.9546  136.7341  158.3952 N   0  0  0  0  0  0  0  0  0  0  0  0
  152.1082  137.5935  158.9537 C   0  0  0  0  0  0  0  0  0  0  0  0
  151.3392  137.3724  159.8890 O   0  0  0  0  0  0  0  0  0  0  0  0
  150.1180  139.4593  158.2168 H   0  0  0  0  0  0  0  0  0  0  0  0
  150.6106  138.5363  156.8111 H   0  0  0  0  0  0  0  0  0  0  0  0
  151.0524  140.2325  156.9440 H   0  0  0  0  0  0  0  0  0  0  0  0
  151.1342  141.4699  158.7905 H   0  0  0  0  0  0  0  0  0  0  0  0
  152.0010  143.1382  160.4069 H   0  0  0  0  0  0  0  0  0  0  0  0
  154.0703  142.6005  161.7154 H   0  0  0  0  0  0  0  0  0  0  0  0
  154.4510  138.9145  159.9162 H   0  0  0  0  0  0  0  0  0  0  0  0
  153.0705  135.7774  158.6941 H   0  0  0  0  0  0  0  0  0  0  0  0
  1  2  1  0  0  0  0
  1 15  1  0  0  0  0
  1 16  1  0  0  0  0
  1 17  1  0  0  0  0
  2 13  1  0  0  0  0
  2  3  1  0  0  0  0
  2  9  1  0  0  0  0
  3  8  1  0  0  0  0
  3  4  2  0  0  0  0
  4  5  1  0  0  0  0
  4 18  1  0  0  0  0
  5  6  2  0  0  0  0
  5 19  1  0  0  0  0
  6  7  1  0  0  0  0
  6 20  1  0  0  0  0
  7  8  2  0  0  0  0
  8 21  1  0  0  0  0
  9 10  1  0  0  0  0
 10 11  2  0  0  0  0
 10 12  1  0  0  0  0
 12 13  1  0  0  0  0
 12 22  1  0  0  0  0
 13 14  2  0  0  0  0
M  CHG  1   9  -1
M  END
> <s_m_source_file>
AV-unprocessed.smi

> <i_m_source_file_index>
750

> <i_lp_mmshare_version>
43012

> <i_f3d_flags>
0

> <s_epik_input>
Tz1DMVtOSF1DKD1PKVtOSF1bQ0BAXTEoW0NIM10pYzJbY0hdW2NIXVtjSF1uW2NIXTI=

> <s_epik_cmdline>
J2VwaWtfcHl0aG9uJywgJy1waCcsICc3LjAnLCAnLXRuJywgJzgnLCAnLW1hJywgJzIwMCcsICctbWV0YWxfYmluZGluZycsICctaW1hZScsICc8aW5maWxlLm1hZT4nLCAnLW9tYWUnLCAnPG91dGZpbGUubWFlPic=

> <r_lp_tautomer_probability>
1

> <r_epik_Ionization_Penalty>
4.84674

> <r_epik_Ionization_Penalty_Charging>
4.8337

> <r_epik_Ionization_Penalty_Neutral>
0.0130349

> <r_epik_State_Penalty>
4.85653

> <r_epik_Charging_Adjusted_Penalty>
9.69023

> <i_epik_Tot_Q>
-1

> <i_epik_Tot_abs_Q>
1

> <r_epik_Metal_State_Penalty>
1.3191

> <b_epik_Metal_Only>
1

> <s_lp_Force_Field>
OPLS_2005

> <r_lp_Energy>
14.3278

> <b_lp_Chiralities_Consistent>
1

> <s_lp_Variant>
AV-unprocessed.smi:750-6

> <Gold.Version>
5.8.1

> <Gold.Id.Protein>
6NUR|6NUR_protein|mol2

> <Gold.PLP.Fitness>
32.9913

> <Gold.PLP.PLP>
-21.8089

> <Gold.PLP.part.hbond>
-2.9677

> <Gold.PLP.part.metal>
0.0000

> <Gold.PLP.part.buried>
-4.0924

> <Gold.PLP.part.nonpolar>
-15.1690

> <Gold.PLP.part.repulsive>
0.1382

> <Gold.PLP.ligand.clash>
0.0000

> <Gold.PLP.ligand.torsion>
0.0511

> <Gold.PLP.Chemscore.Hbond>
3.7433

> <Gold.PLP.Chemscore.CHOScore>
0.0000

> <Gold.PLP.Chemscore.Metal>
0.0000

> <Gold.Chemscore.Hbonds>
donor molecule, donor type, donor heavy atom, donor atom, acceptor molecule, acceptor atom, score
      P1  H  6896  6907       L1    14  0.48
      P1  H  7997  8009       L1     9  2.00
      P1  H 10752 10765       L1    11  0.82

> <Gold.PLP.Chemscore.Internal.Correction>
0.0547

> <Gold.Rescore>
     Score         DG    S(hbond)    S(metal)    S(lipo)     H(rot)  DE(clash)    DE(int)     intcor
     16.98     -17.02       2.52        0.00      48.58       1.00       0.00       0.03       ----

> <Gold.Chemscore.Fitness>
16.9835

> <Gold.Chemscore.DG>
-17.0170

> <Gold.Chemscore.ZeroCoef>
-5.4800

> <Gold.Chemscore.Hbond>
2.5190

> <Gold.Chemscore.Metal>
0.0000

> <Gold.Chemscore.Lipo>
48.5777

> <Gold.Chemscore.Internal_Hbond>
0.0000

> <Gold.Chemscore.DEClash>
0.0000

> <Gold.Chemscore.DEInternal>
0.0335

> <Gold.Chemscore.Rot>
1.0000

> <Gold.Chemscore.Internal.Correction>
   9.000000E+99

> <Gold.Chemscore.Hbonds>
donor molecule, donor type, donor heavy atom, donor atom, acceptor molecule, acceptor atom, score
      P1  H  6896  6907       L1    14  0.09
      P1  H  7997  8009       L1     9  0.87
      P1  H 10752 10765       L1    11  0.81

> <Gold.Chemscore.Hbond.Weighted>
-8.4134

> <Gold.Chemscore.Metal.Weighted>
-0.0000

> <Gold.Chemscore.Lipo.Weighted>
-5.6836

> <Gold.Chemscore.Internal_Hbond.Weighted>
0.0000

> <Gold.Chemscore.DEClash.Weighted>
0.0000

> <Gold.Chemscore.DEInternal.Weighted>
0.0335

> <Gold.Chemscore.Rot.Weighted>
2.5600

> <Gold.Chemscore.Internal.Correction.Weighted>
   9.000000E+99

> <Gold.Protein.RotatedTorsions>
[ 6907 6896 6895 6894 ] final    2.85 input  -60.11 | X-H torsion
[ 7974 7965 7964 7962 ] final  128.68 input  175.53 | X-H torsion
[ 8008 7997 7996 7995 ] final -178.79 input   59.86 | X-H torsion
[ 10167 10162 10161 10158 ] final  166.51 input  -65.29 | X-H torsion
[ 10718 10713 10712 10709 ] final  127.75 input   66.30 | X-H torsion
[ 10763 10752 10751 10750 ] final  -76.07 input  -60.55 | X-H torsion
[ 11005 11000 10999 10996 ] final  -42.16 input  -57.11 | X-H torsion

> <Gold.Protein.ActiveResidues>
 VAL166  LYS551  ARG553  GLY616  TRP617  ASP618  TYR619  PRO620  LYS621  CYS622 
 ASP623  PHE694  ASN695  SER759  ASP760  ASP761  ALA762  ILE779  LEU786  VAL792 
 PHE793  MET794  SER795  GLU796  ALA797  LYS798  CYS799  TRP800  GLU811  SER814 

> <Gold.Protein.RotatedAtoms>
  151.6156  135.1036  160.0090 H   0  0  0  0  0  0  0  0  0  0  0  0  # atno 6907 bound_to 6896
  152.4185  133.7073  159.6469 H   0  0  0  0  0  0  0  0  0  0  0  0  # atno 6908 bound_to 6896
  150.8073  133.8413  159.3221 H   0  0  0  0  0  0  0  0  0  0  0  0  # atno 6909 bound_to 6896
  145.0369  139.3997  143.5122 H   0  0  0  0  0  0  0  0  0  0  0  0  # atno 7974 bound_to 7965
  156.0229  140.1265  157.0338 H   0  0  0  0  0  0  0  0  0  0  0  0  # atno 8008 bound_to 7997
  154.4319  140.1065  156.6060 H   0  0  0  0  0  0  0  0  0  0  0  0  # atno 8009 bound_to 7997
  155.5918  140.3469  155.4571 H   0  0  0  0  0  0  0  0  0  0  0  0  # atno 8010 bound_to 7997
  139.4926  144.4019  151.9399 H   0  0  0  0  0  0  0  0  0  0  0  0  # atno 10167 bound_to 10162
  157.5306  131.1098  150.9015 H   0  0  0  0  0  0  0  0  0  0  0  0  # atno 10718 bound_to 10713
  154.4949  135.5810  153.6487 H   0  0  0  0  0  0  0  0  0  0  0  0  # atno 10763 bound_to 10752
  152.9868  135.6122  154.3077 H   0  0  0  0  0  0  0  0  0  0  0  0  # atno 10764 bound_to 10752
  154.2980  135.2847  155.2604 H   0  0  0  0  0  0  0  0  0  0  0  0  # atno 10765 bound_to 10752
  141.0296  133.6826  156.2557 H   0  0  0  0  0  0  0  0  0  0  0  0  # atno 11005 bound_to 11000
  146.3505  139.9948  142.8682 LP  0  0  0  0  0  0  0  0  0  0  0  0  # atno 17320 bound_to 7965
  145.1698  140.9715  143.4328 LP  0  0  0  0  0  0  0  0  0  0  0  0  # atno 17321 bound_to 7965
  140.3459  144.3148  150.5958 LP  0  0  0  0  0  0  0  0  0  0  0  0  # atno 17342 bound_to 10162
  140.5527  143.2204  151.7900 LP  0  0  0  0  0  0  0  0  0  0  0  0  # atno 17343 bound_to 10162
  156.9598  130.5451  149.5285 LP  0  0  0  0  0  0  0  0  0  0  0  0  # atno 17370 bound_to 10713
  156.0419  130.5501  150.8791 LP  0  0  0  0  0  0  0  0  0  0  0  0  # atno 17371 bound_to 10713
  140.6429  134.5147  157.5571 LP  0  0  0  0  0  0  0  0  0  0  0  0  # atno 17394 bound_to 11000
  139.9199  134.8170  156.1244 LP  0  0  0  0  0  0  0  0  0  0  0  0  # atno 17395 bound_to 11000

$$$$
