AV-unprocessed.smi:1599|AV-procd|sdf|6426|dock4
  -GOLD-   22720 7 63D 1   1.00000     0.00000
 Structure written by MMmdl.
 39 40  0  0  0  0  0  0  0  0  1 V2000
  143.9764  135.5435  152.5117 C   0  0  0  0  0  0  0  0  0  0  0  0
  144.9190  135.7793  151.3188 C   0  0  1  0  0  0  0  0  0  0  0  0
  146.1210  136.4736  151.7737 N   0  0  0  0  0  0  0  0  0  0  0  0
  146.1432  137.6717  152.3747 C   0  0  0  0  0  0  0  0  0  0  0  0
  145.1312  138.3228  152.6353 O   0  0  0  0  0  0  0  0  0  0  0  0
  147.4003  138.0566  152.6497 N   0  0  0  0  0  0  0  0  0  0  0  0
  147.8138  139.2642  153.2669 C   0  0  0  0  0  0  0  0  0  0  0  0
  147.0883  140.4831  153.2292 C   0  0  0  0  0  0  0  0  0  0  0  0
  147.7193  141.4375  153.8964 N   0  0  0  0  0  0  0  0  0  0  0  0
  148.8493  140.8513  154.3657 N   0  0  0  0  0  0  0  0  0  0  0  0
  149.7895  141.6287  155.1573 C   0  0  0  0  0  0  0  0  0  0  0  0
  149.5431  141.5091  156.6670 C   0  0  0  0  0  0  0  0  0  0  0  0
  149.1232  142.6140  157.2884 N   0  0  0  0  0  0  0  0  0  0  0  0
  149.7248  140.4524  157.2706 O   0  0  0  0  0  0  0  0  0  0  0  0
  148.9373  139.5220  154.0002 C   0  0  0  0  0  0  0  0  0  0  0  0
  145.3279  134.4650  150.6272 C   0  0  1  0  0  0  0  0  0  0  0  0
  146.0922  133.4824  151.5163 C   0  0  0  0  0  0  0  0  0  0  0  0
  145.7894  132.1247  150.9002 C   0  0  0  0  0  0  0  0  0  0  0  0
  144.6147  132.3949  149.9564 C   0  0  0  0  0  0  0  0  0  0  0  0
  144.1793  133.7082  150.2757 O   0  0  0  0  0  0  0  0  0  0  0  0
  143.0495  135.0646  152.1965 H   0  0  0  0  0  0  0  0  0  0  0  0
  143.7056  136.4838  152.9930 H   0  0  0  0  0  0  0  0  0  0  0  0
  144.4411  134.9065  153.2649 H   0  0  0  0  0  0  0  0  0  0  0  0
  144.4030  136.4017  150.5854 H   0  0  0  0  0  0  0  0  0  0  0  0
  147.0022  136.0143  151.5964 H   0  0  0  0  0  0  0  0  0  0  0  0
  148.1391  137.4219  152.3846 H   0  0  0  0  0  0  0  0  0  0  0  0
  146.1448  140.7030  152.7519 H   0  0  0  0  0  0  0  0  0  0  0  0
  150.8066  141.3065  154.9290 H   0  0  0  0  0  0  0  0  0  0  0  0
  149.7083  142.6741  154.8567 H   0  0  0  0  0  0  0  0  0  0  0  0
  148.9422  142.5977  158.2816 H   0  0  0  0  0  0  0  0  0  0  0  0
  148.9863  143.4638  156.7603 H   0  0  0  0  0  0  0  0  0  0  0  0
  149.7732  138.9029  154.2903 H   0  0  0  0  0  0  0  0  0  0  0  0
  145.9034  134.6714  149.7224 H   0  0  0  0  0  0  0  0  0  0  0  0
  147.1602  133.6975  151.5588 H   0  0  0  0  0  0  0  0  0  0  0  0
  145.7031  133.5132  152.5349 H   0  0  0  0  0  0  0  0  0  0  0  0
  146.6445  131.7337  150.3478 H   0  0  0  0  0  0  0  0  0  0  0  0
  145.5273  131.3996  151.6714 H   0  0  0  0  0  0  0  0  0  0  0  0
  144.9437  132.3694  148.9166 H   0  0  0  0  0  0  0  0  0  0  0  0
  143.8063  131.6733  150.0756 H   0  0  0  0  0  0  0  0  0  0  0  0
  1  2  1  0  0  0  0
  1 21  1  0  0  0  0
  1 22  1  0  0  0  0
  1 23  1  0  0  0  0
  2  3  1  0  0  0  0
  2 16  1  0  0  0  0
  2 24  1  0  0  0  0
  3  4  1  0  0  0  0
  3 25  1  0  0  0  0
  4  5  2  0  0  0  0
  4  6  1  0  0  0  0
  6  7  1  0  0  0  0
  6 26  1  0  0  0  0
  7 15  2  0  0  0  0
  7  8  1  0  0  0  0
  8  9  2  0  0  0  0
  8 27  1  0  0  0  0
  9 10  1  0  0  0  0
 10 11  1  0  0  0  0
 10 15  1  0  0  0  0
 11 12  1  0  0  0  0
 11 28  1  0  0  0  0
 11 29  1  0  0  0  0
 12 13  1  0  0  0  0
 12 14  2  0  0  0  0
 13 30  1  0  0  0  0
 13 31  1  0  0  0  0
 15 32  1  0  0  0  0
 16 20  1  0  0  0  0
 16 17  1  0  0  0  0
 16 33  1  0  0  0  0
 17 18  1  0  0  0  0
 17 34  1  0  0  0  0
 17 35  1  0  0  0  0
 18 19  1  0  0  0  0
 18 36  1  0  0  0  0
 18 37  1  0  0  0  0
 19 20  1  0  0  0  0
 19 38  1  0  0  0  0
 19 39  1  0  0  0  0
M  END
> <s_m_source_file>
AV-unprocessed.smi

> <i_m_source_file_index>
1599

> <i_lp_mmshare_version>
43012

> <i_f3d_flags>
0

> <s_epik_input>
TzFbQ0gyXVtDSDJdW0NIMl1bQ0BIXTFbQ0BIXShbQ0gzXSlbTkhdQyg9TylbTkhdYzJbY0hdbm4oW2NIXTIpW0NIMl1DKD1PKVtOSDJd

> <s_epik_cmdline>
J2VwaWtfcHl0aG9uJywgJy1waCcsICc3LjAnLCAnLXRuJywgJzgnLCAnLW1hJywgJzIwMCcsICctbWV0YWxfYmluZGluZycsICctaW1hZScsICc8aW5maWxlLm1hZT4nLCAnLW9tYWUnLCAnPG91dGZpbGUubWFlPic=

> <r_lp_tautomer_probability>
1

> <r_epik_Ionization_Penalty>
4.15391e-05

> <r_epik_Ionization_Penalty_Charging>
0

> <r_epik_Ionization_Penalty_Neutral>
4.15391e-05

> <r_epik_State_Penalty>
-0

> <r_epik_Charging_Adjusted_Penalty>
0

> <i_epik_Tot_Q>
0

> <i_epik_Tot_abs_Q>
0

> <r_epik_Metal_State_Penalty>
-0

> <b_epik_Metal_Only>
0

> <s_lp_Force_Field>
OPLS_2005

> <r_lp_Energy>
23.4533

> <b_lp_Chiralities_Consistent>
1

> <s_lp_Variant>
AV-unprocessed.smi:1599-4

> <Gold.Version>
5.8.1

> <Gold.Id.Protein>
6NUR|6NUR_protein|mol2

> <Gold.PLP.Fitness>
40.8809

> <Gold.PLP.PLP>
-30.2982

> <Gold.PLP.part.hbond>
-2.9579

> <Gold.PLP.part.metal>
0.0000

> <Gold.PLP.part.buried>
-3.0391

> <Gold.PLP.part.nonpolar>
-27.5560

> <Gold.PLP.part.repulsive>
3.6185

> <Gold.PLP.ligand.clash>
0.0000

> <Gold.PLP.ligand.torsion>
0.5886

> <Gold.PLP.Chemscore.Hbond>
2.8960

> <Gold.PLP.Chemscore.CHOScore>
1.0000

> <Gold.PLP.Chemscore.Metal>
0.0000

> <Gold.Chemscore.Hbonds>
donor molecule, donor type, donor heavy atom, donor atom, acceptor molecule, acceptor atom, score
      L1  H     3    25       P1  7948  0.86
      L1  H     6    26       P1  7948  0.98
      L1  H    13    31       P1  8028  1.00
      L1  C     8    27       P1 10175  1.00

> <Gold.PLP.Chemscore.Internal.Correction>
0.0719

> <Gold.Rescore>
     Score         DG    S(hbond)    S(metal)    S(lipo)     H(rot)  DE(clash)    DE(int)     intcor
     13.15     -16.92       2.78        0.00      68.20       2.28       1.88       1.88       ----

> <Gold.Chemscore.Fitness>
13.1536

> <Gold.Chemscore.DG>
-16.9155

> <Gold.Chemscore.ZeroCoef>
-5.4800

> <Gold.Chemscore.Hbond>
2.7839

> <Gold.Chemscore.Metal>
0.0000

> <Gold.Chemscore.Lipo>
68.2045

> <Gold.Chemscore.Internal_Hbond>
0.0000

> <Gold.Chemscore.DEClash>
1.8800

> <Gold.Chemscore.DEInternal>
1.8820

> <Gold.Chemscore.Rot>
2.2823

> <Gold.Chemscore.Internal.Correction>
   9.000000E+99

> <Gold.Chemscore.Hbonds>
donor molecule, donor type, donor heavy atom, donor atom, acceptor molecule, acceptor atom, score
      L1  H     3    25       P1  7948  0.84
      L1  H     6    26       P1  7948  0.91
      L1  H    13    31       P1  8028  0.82

> <Gold.Chemscore.Hbond.Weighted>
-9.2983

> <Gold.Chemscore.Metal.Weighted>
-0.0000

> <Gold.Chemscore.Lipo.Weighted>
-7.9799

> <Gold.Chemscore.Internal_Hbond.Weighted>
0.0000

> <Gold.Chemscore.DEClash.Weighted>
1.8800

> <Gold.Chemscore.DEInternal.Weighted>
1.8820

> <Gold.Chemscore.Rot.Weighted>
5.8427

> <Gold.Chemscore.Internal.Correction.Weighted>
   9.000000E+99

> <Gold.Protein.RotatedTorsions>
[ 6907 6896 6895 6894 ] final  154.29 input  -60.11 | X-H torsion
[ 7974 7965 7964 7962 ] final   58.11 input  175.53 | X-H torsion
[ 8008 7997 7996 7995 ] final -120.96 input   59.86 | X-H torsion
[ 10167 10162 10161 10158 ] final  112.66 input  -65.29 | X-H torsion
[ 10718 10713 10712 10709 ] final  -75.53 input   66.30 | X-H torsion
[ 10763 10752 10751 10750 ] final  -93.66 input  -60.55 | X-H torsion
[ 11005 11000 10999 10996 ] final   96.15 input  -57.11 | X-H torsion

> <Gold.Protein.ActiveResidues>
 VAL166  LYS551  ARG553  GLY616  TRP617  ASP618  TYR619  PRO620  LYS621  CYS622 
 ASP623  PHE694  ASN695  SER759  ASP760  ASP761  ALA762  ILE779  LEU786  VAL792 
 PHE793  MET794  SER795  GLU796  ALA797  LYS798  CYS799  TRP800  GLU811  SER814 

> <Gold.Protein.RotatedAtoms>
  152.0606  133.4060  159.4415 H   0  0  0  0  0  0  0  0  0  0  0  0  # atno 6907 bound_to 6896
  150.6866  134.3204  159.4793 H   0  0  0  0  0  0  0  0  0  0  0  0  # atno 6908 bound_to 6896
  152.1025  134.9331  160.0620 H   0  0  0  0  0  0  0  0  0  0  0  0  # atno 6909 bound_to 6896
  145.9218  139.3735  143.0474 H   0  0  0  0  0  0  0  0  0  0  0  0  # atno 7974 bound_to 7965
  155.1403  140.0402  157.2797 H   0  0  0  0  0  0  0  0  0  0  0  0  # atno 8008 bound_to 7997
  154.6478  140.2562  155.7222 H   0  0  0  0  0  0  0  0  0  0  0  0  # atno 8009 bound_to 7997
  156.2563  140.2842  156.0899 H   0  0  0  0  0  0  0  0  0  0  0  0  # atno 8010 bound_to 7997
  139.6519  144.7128  151.2032 H   0  0  0  0  0  0  0  0  0  0  0  0  # atno 10167 bound_to 10162
  156.0204  130.4443  150.3056 H   0  0  0  0  0  0  0  0  0  0  0  0  # atno 10718 bound_to 10713
  154.6981  135.5186  153.8487 H   0  0  0  0  0  0  0  0  0  0  0  0  # atno 10763 bound_to 10752
  153.0682  135.6592  154.0315 H   0  0  0  0  0  0  0  0  0  0  0  0  # atno 10764 bound_to 10752
  154.0178  135.2996  155.3364 H   0  0  0  0  0  0  0  0  0  0  0  0  # atno 10765 bound_to 10752
  139.8783  134.8936  156.4116 H   0  0  0  0  0  0  0  0  0  0  0  0  # atno 11005 bound_to 11000
  145.8540  140.9513  143.0735 LP  0  0  0  0  0  0  0  0  0  0  0  0  # atno 17320 bound_to 7965
  144.6754  140.0444  143.7480 LP  0  0  0  0  0  0  0  0  0  0  0  0  # atno 17321 bound_to 7965
  140.7541  143.6136  150.8581 LP  0  0  0  0  0  0  0  0  0  0  0  0  # atno 17342 bound_to 10162
  139.9785  143.5977  152.2950 LP  0  0  0  0  0  0  0  0  0  0  0  0  # atno 17343 bound_to 10162
  157.1159  131.0234  151.3029 LP  0  0  0  0  0  0  0  0  0  0  0  0  # atno 17370 bound_to 10713
  157.4667  130.7685  149.7286 LP  0  0  0  0  0  0  0  0  0  0  0  0  # atno 17371 bound_to 10713
  140.9196  133.7654  155.9891 LP  0  0  0  0  0  0  0  0  0  0  0  0  # atno 17394 bound_to 11000
  140.8454  134.3017  157.5297 LP  0  0  0  0  0  0  0  0  0  0  0  0  # atno 17395 bound_to 11000

$$$$
