AV-unprocessed.smi:3055|AV-procd|sdf|11643|dock2
  -GOLD-   2272017 33D 1   1.00000     0.00000
 Structure written by MMmdl.
 47 49  0  0  0  0  0  0  0  0  2 V2000
  151.5371  138.7798  158.4253 O   0  0  0  0  0  0  0  0  0  0  0  0
  151.6899  139.8454  157.8278 C   0  0  0  0  0  0  0  0  0  0  0  0
  152.1154  140.9546  158.4530 N   0  0  0  0  0  0  0  0  0  0  0  0
  152.4332  141.0334  159.8715 C   0  0  0  0  0  0  0  0  0  0  0  0
  153.3064  142.2612  160.1614 C   0  0  0  0  0  0  0  0  0  0  0  0
  152.6014  143.4928  159.8700 N   0  0  0  0  0  0  0  0  0  0  0  0
  152.1230  144.4208  160.7855 C   0  0  0  0  0  0  0  0  0  0  0  0
  151.5235  145.4212  160.0539 C   0  0  0  0  0  0  0  0  0  0  0  0
  151.6208  145.1309  158.6950 N   0  0  0  0  0  0  0  0  0  0  0  0
  152.2707  143.9745  158.6640 C   0  0  0  0  0  0  0  0  0  0  0  0
  151.4611  139.9902  156.4974 N   0  0  0  0  0  0  0  0  0  0  0  0
  151.3218  138.9043  155.5109 C   0  0  0  0  0  0  0  0  0  0  0  0
  149.8805  138.8954  154.9741 C   0  0  0  0  0  0  0  0  0  0  0  0
  149.5027  140.2707  154.3919 C   0  0  0  0  0  0  0  0  0  0  0  0
  149.7772  141.4278  155.3879 C   0  0  1  0  0  0  0  0  0  0  0  0
  148.8075  141.4397  156.5232 N   0  3  0  0  0  0  0  0  0  0  0  0
  149.1456  142.3573  157.6313 C   0  0  0  0  0  0  0  0  0  0  0  0
  147.8576  142.4842  158.4360 C   0  0  0  0  0  0  0  0  0  0  0  0
  146.7615  142.4361  157.3744 C   0  0  0  0  0  0  0  0  0  0  0  0
  147.4005  141.7411  156.1632 C   0  0  0  0  0  0  0  0  0  0  0  0
  151.2439  141.3066  155.8759 C   0  0  0  0  0  0  0  0  0  0  0  0
  152.2219  141.7989  157.9094 H   0  0  0  0  0  0  0  0  0  0  0  0
  151.5063  141.0871  160.4445 H   0  0  0  0  0  0  0  0  0  0  0  0
  152.9524  140.1242  160.1796 H   0  0  0  0  0  0  0  0  0  0  0  0
  153.6104  142.2773  161.2089 H   0  0  0  0  0  0  0  0  0  0  0  0
  154.2193  142.2317  159.5647 H   0  0  0  0  0  0  0  0  0  0  0  0
  152.2437  144.2958  161.8514 H   0  0  0  0  0  0  0  0  0  0  0  0
  151.0328  146.3196  160.3984 H   0  0  0  0  0  0  0  0  0  0  0  0
  152.5105  143.4653  157.7421 H   0  0  0  0  0  0  0  0  0  0  0  0
  152.0207  139.0792  154.6915 H   0  0  0  0  0  0  0  0  0  0  0  0
  151.5734  137.9155  155.8940 H   0  0  0  0  0  0  0  0  0  0  0  0
  149.7726  138.1262  154.2090 H   0  0  0  0  0  0  0  0  0  0  0  0
  149.1914  138.6309  155.7772 H   0  0  0  0  0  0  0  0  0  0  0  0
  150.1055  140.4381  153.4982 H   0  0  0  0  0  0  0  0  0  0  0  0
  148.4715  140.2638  154.0405 H   0  0  0  0  0  0  0  0  0  0  0  0
  149.6642  142.3711  154.8512 H   0  0  0  0  0  0  0  0  0  0  0  0
  149.9672  141.9917  158.2450 H   0  0  0  0  0  0  0  0  0  0  0  0
  149.4298  143.3315  157.2298 H   0  0  0  0  0  0  0  0  0  0  0  0
  147.7590  141.6296  159.1068 H   0  0  0  0  0  0  0  0  0  0  0  0
  147.8236  143.3908  159.0410 H   0  0  0  0  0  0  0  0  0  0  0  0
  145.8770  141.9085  157.7332 H   0  0  0  0  0  0  0  0  0  0  0  0
  146.4544  143.4468  157.1033 H   0  0  0  0  0  0  0  0  0  0  0  0
  147.3586  142.4102  155.3023 H   0  0  0  0  0  0  0  0  0  0  0  0
  146.8742  140.8229  155.9006 H   0  0  0  0  0  0  0  0  0  0  0  0
  151.5074  142.1356  156.5334 H   0  0  0  0  0  0  0  0  0  0  0  0
  151.9201  141.4061  155.0256 H   0  0  0  0  0  0  0  0  0  0  0  0
  148.8008  140.5113  156.9206 H   0  0  0  0  0  0  0  0  0  0  0  0
  1  2  2  0  0  0  0
  2  3  1  0  0  0  0
  2 11  1  0  0  0  0
  3  4  1  0  0  0  0
  3 22  1  0  0  0  0
  4  5  1  0  0  0  0
  4 23  1  0  0  0  0
  4 24  1  0  0  0  0
  5  6  1  0  0  0  0
  5 25  1  0  0  0  0
  5 26  1  0  0  0  0
  6 10  1  0  0  0  0
  6  7  1  0  0  0  0
  7  8  2  0  0  0  0
  7 27  1  0  0  0  0
  8  9  1  0  0  0  0
  8 28  1  0  0  0  0
  9 10  2  0  0  0  0
 10 29  1  0  0  0  0
 11 21  1  0  0  0  0
 11 12  1  0  0  0  0
 12 13  1  0  0  0  0
 12 30  1  0  0  0  0
 12 31  1  0  0  0  0
 13 14  1  0  0  0  0
 13 32  1  0  0  0  0
 13 33  1  0  0  0  0
 14 15  1  0  0  0  0
 14 34  1  0  0  0  0
 14 35  1  0  0  0  0
 15 16  1  0  0  0  0
 15 21  1  0  0  0  0
 15 36  1  0  0  0  0
 16 20  1  0  0  0  0
 16 17  1  0  0  0  0
 16 47  1  0  0  0  0
 17 18  1  0  0  0  0
 17 37  1  0  0  0  0
 17 38  1  0  0  0  0
 18 19  1  0  0  0  0
 18 39  1  0  0  0  0
 18 40  1  0  0  0  0
 19 20  1  0  0  0  0
 19 41  1  0  0  0  0
 19 42  1  0  0  0  0
 20 43  1  0  0  0  0
 20 44  1  0  0  0  0
 21 45  1  0  0  0  0
 21 46  1  0  0  0  0
M  CHG  1  16   1
M  END
> <s_m_source_file>
AV-unprocessed.smi

> <i_m_source_file_index>
3055

> <i_lp_mmshare_version>
43012

> <i_f3d_flags>
0

> <s_epik_input>
W2NIXTFuW2NIXVtjSF1uMVtDSDJdW0NIMl1bTkhdQyg9TylOMltDSDJdW0NIMl1bQ0gyXVtDQEhdKFtDSDJdMilOM1tDSDJdW0NIMl1bQ0gyXVtDSDJdMw==

> <s_epik_cmdline>
J2VwaWtfcHl0aG9uJywgJy1waCcsICc3LjAnLCAnLXRuJywgJzgnLCAnLW1hJywgJzIwMCcsICctbWV0YWxfYmluZGluZycsICctaW1hZScsICc8aW5maWxlLm1hZT4nLCAnLW9tYWUnLCAnPG91dGZpbGUubWFlPic=

> <r_lp_tautomer_probability>
1

> <r_epik_Ionization_Penalty>
0.618392

> <r_epik_Ionization_Penalty_Charging>
0.618355

> <r_epik_Ionization_Penalty_Neutral>
3.68592e-05

> <r_epik_State_Penalty>
0.635579

> <r_epik_Charging_Adjusted_Penalty>
1.25393

> <i_epik_Tot_Q>
1

> <i_epik_Tot_abs_Q>
1

> <r_epik_Metal_State_Penalty>
0.306847

> <b_epik_Metal_Only>
0

> <s_lp_Force_Field>
OPLS_2005

> <r_lp_Energy>
66.9505

> <b_lp_Chiralities_Consistent>
1

> <s_lp_Variant>
AV-unprocessed.smi:3055-3

> <Gold.Version>
5.8.1

> <Gold.Id.Protein>
6NUR|6NUR_protein|mol2

> <Gold.PLP.Fitness>
41.3102

> <Gold.PLP.PLP>
-42.4738

> <Gold.PLP.part.hbond>
0.0000

> <Gold.PLP.part.metal>
0.0000

> <Gold.PLP.part.buried>
-4.3470

> <Gold.PLP.part.nonpolar>
-36.6641

> <Gold.PLP.part.repulsive>
0.2034

> <Gold.PLP.ligand.clash>
0.2490

> <Gold.PLP.ligand.torsion>
0.4747

> <Gold.PLP.Chemscore.Hbond>
0.0000

> <Gold.PLP.Chemscore.CHOScore>
0.0000

> <Gold.PLP.Chemscore.Metal>
0.0000

> <Gold.PLP.Chemscore.Internal.Correction>
0.0347

> <Gold.Rescore>
     Score         DG    S(hbond)    S(metal)    S(lipo)     H(rot)  DE(clash)    DE(int)     intcor
     10.39     -11.04       0.00        0.00      87.05       1.81       0.26       0.40       ----

> <Gold.Chemscore.Fitness>
10.3880

> <Gold.Chemscore.DG>
-11.0398

> <Gold.Chemscore.ZeroCoef>
-5.4800

> <Gold.Chemscore.Hbond>
0.0000

> <Gold.Chemscore.Metal>
0.0000

> <Gold.Chemscore.Lipo>
87.0491

> <Gold.Chemscore.Internal_Hbond>
0.0000

> <Gold.Chemscore.DEClash>
0.2556

> <Gold.Chemscore.DEInternal>
0.3962

> <Gold.Chemscore.Rot>
1.8066

> <Gold.Chemscore.Internal.Correction>
   9.000000E+99

> <Gold.Chemscore.Hbond.Weighted>
-0.0000

> <Gold.Chemscore.Metal.Weighted>
-0.0000

> <Gold.Chemscore.Lipo.Weighted>
-10.1847

> <Gold.Chemscore.Internal_Hbond.Weighted>
0.0000

> <Gold.Chemscore.DEClash.Weighted>
0.2556

> <Gold.Chemscore.DEInternal.Weighted>
0.3962

> <Gold.Chemscore.Rot.Weighted>
4.6249

> <Gold.Chemscore.Internal.Correction.Weighted>
   9.000000E+99

> <Gold.Protein.RotatedTorsions>
[ 6907 6896 6895 6894 ] final -130.57 input  -60.11 | X-H torsion
[ 7974 7965 7964 7962 ] final  174.25 input  175.53 | X-H torsion
[ 8008 7997 7996 7995 ] final -128.56 input   59.86 | X-H torsion
[ 10167 10162 10161 10158 ] final  -62.29 input  -65.29 | X-H torsion
[ 10718 10713 10712 10709 ] final  -36.48 input   66.30 | X-H torsion
[ 10763 10752 10751 10750 ] final  -79.16 input  -60.55 | X-H torsion
[ 11005 11000 10999 10996 ] final  135.61 input  -57.11 | X-H torsion

> <Gold.Protein.ActiveResidues>
 VAL166  LYS551  ARG553  GLY616  TRP617  ASP618  TYR619  PRO620  LYS621  CYS622 
 ASP623  PHE694  ASN695  SER759  ASP760  ASP761  ALA762  ILE779  LEU786  VAL792 
 PHE793  MET794  SER795  GLU796  ALA797  LYS798  CYS799  TRP800  GLU811  SER814 

> <Gold.Protein.RotatedAtoms>
  150.9412  133.6654  159.2790 H   0  0  0  0  0  0  0  0  0  0  0  0  # atno 6907 bound_to 6896
  151.4043  135.0974  159.9575 H   0  0  0  0  0  0  0  0  0  0  0  0  # atno 6908 bound_to 6896
  152.5070  133.8899  159.7443 H   0  0  0  0  0  0  0  0  0  0  0  0  # atno 6909 bound_to 6896
  144.7225  139.9769  143.6438 H   0  0  0  0  0  0  0  0  0  0  0  0  # atno 7974 bound_to 7965
  155.2648  140.0437  157.3001 H   0  0  0  0  0  0  0  0  0  0  0  0  # atno 8008 bound_to 7997
  154.5689  140.2368  155.8191 H   0  0  0  0  0  0  0  0  0  0  0  0  # atno 8009 bound_to 7997
  156.2107  140.2999  155.9733 H   0  0  0  0  0  0  0  0  0  0  0  0  # atno 8010 bound_to 7997
  140.5949  143.2349  151.6059 H   0  0  0  0  0  0  0  0  0  0  0  0  # atno 10167 bound_to 10162
  156.3264  130.4273  149.7913 H   0  0  0  0  0  0  0  0  0  0  0  0  # atno 10718 bound_to 10713
  154.5351  135.5705  153.6791 H   0  0  0  0  0  0  0  0  0  0  0  0  # atno 10763 bound_to 10752
  152.9949  135.6214  154.2577 H   0  0  0  0  0  0  0  0  0  0  0  0  # atno 10764 bound_to 10752
  154.2505  135.2859  155.2798 H   0  0  0  0  0  0  0  0  0  0  0  0  # atno 10765 bound_to 10752
  139.9991  134.9485  157.0031 H   0  0  0  0  0  0  0  0  0  0  0  0  # atno 11005 bound_to 11000
  146.0518  139.3518  143.0634 LP  0  0  0  0  0  0  0  0  0  0  0  0  # atno 17320 bound_to 7965
  145.8205  140.9681  143.0901 LP  0  0  0  0  0  0  0  0  0  0  0  0  # atno 17321 bound_to 7965
  139.5251  144.3083  152.1014 LP  0  0  0  0  0  0  0  0  0  0  0  0  # atno 17342 bound_to 10162
  140.2254  144.4423  150.6323 LP  0  0  0  0  0  0  0  0  0  0  0  0  # atno 17343 bound_to 10162
  156.5201  130.8211  151.3200 LP  0  0  0  0  0  0  0  0  0  0  0  0  # atno 17370 bound_to 10713
  157.7422  130.9885  150.2499 LP  0  0  0  0  0  0  0  0  0  0  0  0  # atno 17371 bound_to 10713
  140.4762  134.1336  155.7210 LP  0  0  0  0  0  0  0  0  0  0  0  0  # atno 17394 bound_to 11000
  141.1628  133.8761  157.1801 LP  0  0  0  0  0  0  0  0  0  0  0  0  # atno 17395 bound_to 11000

$$$$
