AV-unprocessed.smi:2032|AV-procd|sdf|8244|dock5
  -GOLD-   2272010513D 1   1.00000     0.00000
 Structure written by MMmdl.
 43 44  0  0  0  0  0  0  0  0  2 V2000
  150.9845  137.7206  155.8372 C   0  0  0  0  0  0  0  0  0  0  0  0
  150.8467  138.7090  154.6645 C   0  0  1  0  0  0  0  0  0  0  0  0
  149.4267  138.7666  154.0687 C   0  0  0  0  0  0  0  0  0  0  0  0
  148.4700  139.4927  154.9516 N   0  3  2  0  0  0  0  0  0  0  0  0
  147.0684  139.5406  154.4096 C   0  0  1  0  0  0  0  0  0  0  0  0
  146.3111  140.8011  154.8974 C   0  0  0  0  0  0  0  0  0  0  0  0
  147.0379  139.4476  152.8576 C   0  0  0  0  0  0  0  0  0  0  0  0
  147.0582  138.0748  152.3563 N   0  0  0  0  0  0  0  0  0  0  0  0
  145.9886  137.2729  152.2436 C   0  0  0  0  0  0  0  0  0  0  0  0
  144.8525  137.6060  152.5822 O   0  0  0  0  0  0  0  0  0  0  0  0
  146.3277  136.0787  151.7274 N   0  0  0  0  0  0  0  0  0  0  0  0
  145.4872  134.9646  151.4670 C   0  0  0  0  0  0  0  0  0  0  0  0
  144.1504  135.0000  151.5142 N   0  0  0  0  0  0  0  0  0  0  0  0
  143.5822  133.7599  151.2118 C   0  0  0  0  0  0  0  0  0  0  0  0
  144.5080  132.7843  150.9370 C   0  0  0  0  0  0  0  0  0  0  0  0
  146.1399  133.3881  151.0460 S   0  0  0  0  0  0  0  0  0  0  0  0
  149.0332  140.8280  155.2960 C   0  0  0  0  0  0  0  0  0  0  0  0
  150.4448  140.7132  155.8992 C   0  0  2  0  0  0  0  0  0  0  0  0
  151.0671  142.0891  156.1637 C   0  0  0  0  0  0  0  0  0  0  0  0
  151.2959  140.0181  154.9981 O   0  0  0  0  0  0  0  0  0  0  0  0
  150.7783  136.7014  155.5094 H   0  0  0  0  0  0  0  0  0  0  0  0
  150.2950  137.9422  156.6512 H   0  0  0  0  0  0  0  0  0  0  0  0
  151.9970  137.7366  156.2415 H   0  0  0  0  0  0  0  0  0  0  0  0
  151.5174  138.3562  153.8804 H   0  0  0  0  0  0  0  0  0  0  0  0
  149.4577  139.2641  153.0981 H   0  0  0  0  0  0  0  0  0  0  0  0
  149.1103  137.7411  153.8901 H   0  0  0  0  0  0  0  0  0  0  0  0
  146.5390  138.6696  154.7995 H   0  0  0  0  0  0  0  0  0  0  0  0
  145.3116  140.8719  154.4714 H   0  0  0  0  0  0  0  0  0  0  0  0
  146.8463  141.7129  154.6305 H   0  0  0  0  0  0  0  0  0  0  0  0
  146.1495  140.8018  155.9739 H   0  0  0  0  0  0  0  0  0  0  0  0
  146.1834  140.0003  152.4634 H   0  0  0  0  0  0  0  0  0  0  0  0
  147.9262  139.9022  152.4231 H   0  0  0  0  0  0  0  0  0  0  0  0
  147.9529  137.7144  152.0573 H   0  0  0  0  0  0  0  0  0  0  0  0
  147.3012  135.9488  151.4945 H   0  0  0  0  0  0  0  0  0  0  0  0
  142.5068  133.6602  151.2152 H   0  0  0  0  0  0  0  0  0  0  0  0
  144.3295  131.7514  150.6778 H   0  0  0  0  0  0  0  0  0  0  0  0
  149.0495  141.4561  154.4037 H   0  0  0  0  0  0  0  0  0  0  0  0
  148.4190  141.3336  156.0384 H   0  0  0  0  0  0  0  0  0  0  0  0
  150.3959  140.1808  156.8491 H   0  0  0  0  0  0  0  0  0  0  0  0
  150.4629  142.6658  156.8643 H   0  0  0  0  0  0  0  0  0  0  0  0
  151.1551  142.6674  155.2433 H   0  0  0  0  0  0  0  0  0  0  0  0
  152.0654  141.9902  156.5908 H   0  0  0  0  0  0  0  0  0  0  0  0
  148.4244  138.9706  155.8153 H   0  0  0  0  0  0  0  0  0  0  0  0
  1  2  1  0  0  0  0
  1 21  1  0  0  0  0
  1 22  1  0  0  0  0
  1 23  1  0  0  0  0
  2 20  1  0  0  0  0
  2  3  1  0  0  0  0
  2 24  1  0  0  0  0
  3  4  1  0  0  0  0
  3 25  1  0  0  0  0
  3 26  1  0  0  0  0
  4  5  1  0  0  0  0
  4 17  1  0  0  0  0
  4 43  1  0  0  0  0
  5  6  1  0  0  0  0
  5  7  1  0  0  0  0
  5 27  1  0  0  0  0
  6 28  1  0  0  0  0
  6 29  1  0  0  0  0
  6 30  1  0  0  0  0
  7  8  1  0  0  0  0
  7 31  1  0  0  0  0
  7 32  1  0  0  0  0
  8  9  1  0  0  0  0
  8 33  1  0  0  0  0
  9 10  2  0  0  0  0
  9 11  1  0  0  0  0
 11 12  1  0  0  0  0
 11 34  1  0  0  0  0
 12 16  1  0  0  0  0
 12 13  2  0  0  0  0
 13 14  1  0  0  0  0
 14 15  2  0  0  0  0
 14 35  1  0  0  0  0
 15 16  1  0  0  0  0
 15 36  1  0  0  0  0
 17 18  1  0  0  0  0
 17 37  1  0  0  0  0
 17 38  1  0  0  0  0
 18 19  1  0  0  0  0
 18 20  1  0  0  0  0
 18 39  1  0  0  0  0
 19 40  1  0  0  0  0
 19 41  1  0  0  0  0
 19 42  1  0  0  0  0
M  CHG  1   4   1
M  END
> <s_m_source_file>
AV-unprocessed.smi

> <i_m_source_file_index>
2032

> <i_lp_mmshare_version>
43012

> <i_f3d_flags>
0

> <s_epik_input>
W0NIM11bQ0BASF0xW0NIMl1OKFtDSDJdW0NASF0oTzEpW0NIM10pW0NASF0oW0NIM10pW0NIMl1bTkhdQyg9TylbTkhdYzJuW2NIXVtjSF1zMg==

> <s_epik_cmdline>
J2VwaWtfcHl0aG9uJywgJy1waCcsICc3LjAnLCAnLXRuJywgJzgnLCAnLW1hJywgJzIwMCcsICctbWV0YWxfYmluZGluZycsICctaW1hZScsICc8aW5maWxlLm1hZT4nLCAnLW9tYWUnLCAnPG91dGZpbGUubWFlPic=

> <r_lp_tautomer_probability>
0.999

> <r_epik_Ionization_Penalty>
0.695838

> <r_epik_Ionization_Penalty_Charging>
0.695697

> <r_epik_Ionization_Penalty_Neutral>
0.000141198

> <r_epik_State_Penalty>
0.717972

> <r_epik_Charging_Adjusted_Penalty>
1.41367

> <i_epik_Tot_Q>
1

> <i_epik_Tot_abs_Q>
1

> <r_epik_Metal_State_Penalty>
0.756405

> <b_epik_Metal_Only>
0

> <s_lp_Force_Field>
OPLS_2005

> <r_lp_Energy>
22.0252

> <b_lp_Chiralities_Consistent>
1

> <s_lp_Variant>
AV-unprocessed.smi:2032-14

> <Gold.Version>
5.8.1

> <Gold.Id.Protein>
6NUR|6NUR_protein|mol2

> <Gold.PLP.Fitness>
40.2738

> <Gold.PLP.PLP>
-31.5602

> <Gold.PLP.part.hbond>
-2.8213

> <Gold.PLP.part.metal>
0.0000

> <Gold.PLP.part.buried>
-4.9379

> <Gold.PLP.part.nonpolar>
-23.9958

> <Gold.PLP.part.repulsive>
0.5990

> <Gold.PLP.ligand.clash>
0.0000

> <Gold.PLP.ligand.torsion>
1.4216

> <Gold.PLP.Chemscore.Hbond>
2.8480

> <Gold.PLP.Chemscore.CHOScore>
0.9832

> <Gold.PLP.Chemscore.Metal>
0.0000

> <Gold.Chemscore.Hbonds>
donor molecule, donor type, donor heavy atom, donor atom, acceptor molecule, acceptor atom, score
      L1  H     8    33       P1  7948  0.93
      L1  H    11    34       P1  7948  1.00
      P1  H  7989  7998       L1    20  1.00
      L1  C    14    35       P1 10186  0.95

> <Gold.PLP.Chemscore.Internal.Correction>
0.0633

> <Gold.Rescore>
     Score         DG    S(hbond)    S(metal)    S(lipo)     H(rot)  DE(clash)    DE(int)     intcor
     14.93     -18.41       2.55        0.00      73.06       1.61       0.20       3.29       ----

> <Gold.Chemscore.Fitness>
14.9262

> <Gold.Chemscore.DG>
-18.4144

> <Gold.Chemscore.ZeroCoef>
-5.4800

> <Gold.Chemscore.Hbond>
2.5479

> <Gold.Chemscore.Metal>
0.0000

> <Gold.Chemscore.Lipo>
73.0648

> <Gold.Chemscore.Internal_Hbond>
0.0000

> <Gold.Chemscore.DEClash>
0.1957

> <Gold.Chemscore.DEInternal>
3.2925

> <Gold.Chemscore.Rot>
1.6110

> <Gold.Chemscore.Internal.Correction>
   9.000000E+99

> <Gold.Chemscore.Hbonds>
donor molecule, donor type, donor heavy atom, donor atom, acceptor molecule, acceptor atom, score
      L1  H     8    33       P1  7948  0.90
      L1  H    11    34       P1  7948  0.95
      P1  H  7989  7998       L1    20  0.59

> <Gold.Chemscore.Hbond.Weighted>
-8.5100

> <Gold.Chemscore.Metal.Weighted>
-0.0000

> <Gold.Chemscore.Lipo.Weighted>
-8.5486

> <Gold.Chemscore.Internal_Hbond.Weighted>
0.0000

> <Gold.Chemscore.DEClash.Weighted>
0.1957

> <Gold.Chemscore.DEInternal.Weighted>
3.2925

> <Gold.Chemscore.Rot.Weighted>
4.1242

> <Gold.Chemscore.Internal.Correction.Weighted>
   9.000000E+99

> <Gold.Protein.RotatedTorsions>
[ 6907 6896 6895 6894 ] final  156.01 input  -60.11 | X-H torsion
[ 7974 7965 7964 7962 ] final -143.25 input  175.53 | X-H torsion
[ 8008 7997 7996 7995 ] final -132.71 input   59.86 | X-H torsion
[ 10167 10162 10161 10158 ] final   62.63 input  -65.29 | X-H torsion
[ 10718 10713 10712 10709 ] final  138.50 input   66.30 | X-H torsion
[ 10763 10752 10751 10750 ] final  114.27 input  -60.55 | X-H torsion
[ 11005 11000 10999 10996 ] final   76.01 input  -57.11 | X-H torsion

> <Gold.Protein.ActiveResidues>
 VAL166  LYS551  ARG553  GLY616  TRP617  ASP618  TYR619  PRO620  LYS621  CYS622 
 ASP623  PHE694  ASN695  SER759  ASP760  ASP761  ALA762  ILE779  LEU786  VAL792 
 PHE793  MET794  SER795  GLU796  ALA797  LYS798  CYS799  TRP800  GLU811  SER814 

> <Gold.Protein.RotatedAtoms>
  152.0358  133.3956  159.4316 H   0  0  0  0  0  0  0  0  0  0  0  0  # atno 6907 bound_to 6896
  150.6879  134.3469  159.4901 H   0  0  0  0  0  0  0  0  0  0  0  0  # atno 6908 bound_to 6896
  152.1262  134.9169  160.0611 H   0  0  0  0  0  0  0  0  0  0  0  0  # atno 6909 bound_to 6896
  144.8383  140.5858  143.5469 H   0  0  0  0  0  0  0  0  0  0  0  0  # atno 7974 bound_to 7965
  155.3334  140.0468  157.3043 H   0  0  0  0  0  0  0  0  0  0  0  0  # atno 8008 bound_to 7997
  154.5316  140.2259  155.8760 H   0  0  0  0  0  0  0  0  0  0  0  0  # atno 8009 bound_to 7997
  156.1794  140.3077  155.9126 H   0  0  0  0  0  0  0  0  0  0  0  0  # atno 8010 bound_to 7997
  140.1418  144.4546  150.6807 H   0  0  0  0  0  0  0  0  0  0  0  0  # atno 10167 bound_to 10162
  157.4246  131.1042  151.0316 H   0  0  0  0  0  0  0  0  0  0  0  0  # atno 10718 bound_to 10713
  153.5049  135.3630  155.2558 H   0  0  0  0  0  0  0  0  0  0  0  0  # atno 10763 bound_to 10752
  154.8745  135.4009  154.3436 H   0  0  0  0  0  0  0  0  0  0  0  0  # atno 10764 bound_to 10752
  153.4078  135.7077  153.6446 H   0  0  0  0  0  0  0  0  0  0  0  0  # atno 10765 bound_to 10752
  139.9318  134.7565  156.1342 H   0  0  0  0  0  0  0  0  0  0  0  0  # atno 11005 bound_to 11000
  145.4747  139.1500  143.3795 LP  0  0  0  0  0  0  0  0  0  0  0  0  # atno 17320 bound_to 7965
  146.2679  140.4882  142.8826 LP  0  0  0  0  0  0  0  0  0  0  0  0  # atno 17321 bound_to 7965
  140.6756  143.2303  151.5517 LP  0  0  0  0  0  0  0  0  0  0  0  0  # atno 17342 bound_to 10162
  139.5468  144.2500  152.1457 LP  0  0  0  0  0  0  0  0  0  0  0  0  # atno 17343 bound_to 10162
  157.1234  130.6071  149.5511 LP  0  0  0  0  0  0  0  0  0  0  0  0  # atno 17370 bound_to 10713
  155.9892  130.4939  150.7204 LP  0  0  0  0  0  0  0  0  0  0  0  0  # atno 17371 bound_to 10713
  141.0910  133.6714  156.2541 LP  0  0  0  0  0  0  0  0  0  0  0  0  # atno 17394 bound_to 11000
  140.6183  134.5388  157.5544 LP  0  0  0  0  0  0  0  0  0  0  0  0  # atno 17395 bound_to 11000

$$$$
