AV-unprocessed.smi:175|AV-procd|sdf|1432|dock10
  -GOLD-   2262019213D 1   1.00000     0.00000
 Structure written by MMmdl.
 47 50  0  0  0  0  0  0  0  0  1 V2000
  145.4775  131.2599  150.6676 C   0  0  0  0  0  0  0  0  0  0  0  0
  146.2380  132.5940  150.7294 C   0  0  1  0  0  0  0  0  0  0  0  0
  145.3811  133.6041  150.2028 O   0  0  0  0  0  0  0  0  0  0  0  0
  145.6753  134.8347  150.8395 C   0  0  0  0  0  0  0  0  0  0  0  0
  145.9003  134.4097  152.2822 C   0  0  0  0  0  0  0  0  0  0  0  0
  146.6624  133.0947  152.1393 C   0  0  2  0  0  0  0  0  0  0  0  0
  148.0459  133.4009  152.0888 O   0  0  0  0  0  0  0  0  0  0  0  0
  146.4311  132.1132  153.3184 C   0  0  0  0  0  0  0  0  0  0  0  0
  146.7946  132.6696  154.6128 N   0  0  0  0  0  0  0  0  0  0  0  0
  145.9417  132.9710  155.6517 C   0  0  0  0  0  0  0  0  0  0  0  0
  146.5114  133.4705  156.7147 N   0  0  0  0  0  0  0  0  0  0  0  0
  147.8597  133.5075  156.3849 C   0  0  0  0  0  0  0  0  0  0  0  0
  149.0291  133.9320  157.0661 C   0  0  0  0  0  0  0  0  0  0  0  0
  148.9824  134.4261  158.3225 N   0  0  0  0  0  0  0  0  0  0  0  0
  149.1270  135.8776  158.4164 C   0  0  0  0  0  0  0  0  0  0  0  0
  148.0569  136.2556  159.4212 C   0  0  0  0  0  0  0  0  0  0  0  0
  147.8512  137.4125  159.7841 O   0  0  0  0  0  0  0  0  0  0  0  0
  147.3991  135.1667  159.8234 N   0  0  0  0  0  0  0  0  0  0  0  0
  146.2864  135.1136  160.7690 C   0  0  0  0  0  0  0  0  0  0  0  0
  146.7417  134.7528  162.1943 C   0  0  0  0  0  0  0  0  0  0  0  0
  145.6775  134.7297  162.9956 F   0  0  0  0  0  0  0  0  0  0  0  0
  147.3096  133.5470  162.2084 F   0  0  0  0  0  0  0  0  0  0  0  0
  147.6064  135.6501  162.6670 F   0  0  0  0  0  0  0  0  0  0  0  0
  147.8759  133.9645  159.1618 C   0  0  0  0  0  0  0  0  0  0  0  0
  150.2215  133.8116  156.4249 N   0  0  0  0  0  0  0  0  0  0  0  0
  150.2628  133.3113  155.1860 C   0  0  0  0  0  0  0  0  0  0  0  0
  149.2538  132.8806  154.4250 N   0  0  0  0  0  0  0  0  0  0  0  0
  148.0579  133.0003  155.0709 C   0  0  0  0  0  0  0  0  0  0  0  0
  146.0829  130.4372  151.0485 H   0  0  0  0  0  0  0  0  0  0  0  0
  145.2113  131.0176  149.6385 H   0  0  0  0  0  0  0  0  0  0  0  0
  144.5521  131.2992  151.2426 H   0  0  0  0  0  0  0  0  0  0  0  0
  147.1073  132.5241  150.0728 H   0  0  0  0  0  0  0  0  0  0  0  0
  146.5795  135.2682  150.4096 H   0  0  0  0  0  0  0  0  0  0  0  0
  144.8604  135.5504  150.7315 H   0  0  0  0  0  0  0  0  0  0  0  0
  146.4219  135.1618  152.8758 H   0  0  0  0  0  0  0  0  0  0  0  0
  144.9306  134.2325  152.7488 H   0  0  0  0  0  0  0  0  0  0  0  0
  148.1559  134.3227  152.2653 H   0  0  0  0  0  0  0  0  0  0  0  0
  145.3825  131.8189  153.3709 H   0  0  0  0  0  0  0  0  0  0  0  0
  147.0026  131.1965  153.1687 H   0  0  0  0  0  0  0  0  0  0  0  0
  144.8747  132.8130  155.5947 H   0  0  0  0  0  0  0  0  0  0  0  0
  150.1161  136.1388  158.7933 H   0  0  0  0  0  0  0  0  0  0  0  0
  148.9605  136.3951  157.4699 H   0  0  0  0  0  0  0  0  0  0  0  0
  145.7663  136.0728  160.7736 H   0  0  0  0  0  0  0  0  0  0  0  0
  145.5609  134.3774  160.4202 H   0  0  0  0  0  0  0  0  0  0  0  0
  147.0675  133.4936  158.5999 H   0  0  0  0  0  0  0  0  0  0  0  0
  148.2439  133.2478  159.8964 H   0  0  0  0  0  0  0  0  0  0  0  0
  151.2446  133.2466  154.7406 H   0  0  0  0  0  0  0  0  0  0  0  0
  1  2  1  0  0  0  0
  1 29  1  0  0  0  0
  1 30  1  0  0  0  0
  1 31  1  0  0  0  0
  2  6  1  0  0  0  0
  2  3  1  0  0  0  0
  2 32  1  0  0  0  0
  3  4  1  0  0  0  0
  4  5  1  0  0  0  0
  4 33  1  0  0  0  0
  4 34  1  0  0  0  0
  5  6  1  0  0  0  0
  5 35  1  0  0  0  0
  5 36  1  0  0  0  0
  6  7  1  0  0  0  0
  6  8  1  0  0  0  0
  7 37  1  0  0  0  0
  8  9  1  0  0  0  0
  8 38  1  0  0  0  0
  8 39  1  0  0  0  0
  9 28  1  0  0  0  0
  9 10  1  0  0  0  0
 10 11  2  0  0  0  0
 10 40  1  0  0  0  0
 11 12  1  0  0  0  0
 12 28  2  0  0  0  0
 12 13  1  0  0  0  0
 13 14  1  0  0  0  0
 13 25  2  0  0  0  0
 14 24  1  0  0  0  0
 14 15  1  0  0  0  0
 15 16  1  0  0  0  0
 15 41  1  0  0  0  0
 15 42  1  0  0  0  0
 16 17  2  0  0  0  0
 16 18  1  0  0  0  0
 18 19  1  0  0  0  0
 18 24  1  0  0  0  0
 19 20  1  0  0  0  0
 19 43  1  0  0  0  0
 19 44  1  0  0  0  0
 20 21  1  0  0  0  0
 20 22  1  0  0  0  0
 20 23  1  0  0  0  0
 24 45  1  0  0  0  0
 24 46  1  0  0  0  0
 25 26  1  0  0  0  0
 26 27  2  0  0  0  0
 26 47  1  0  0  0  0
 27 28  1  0  0  0  0
M  END
> <s_m_source_file>
AV-unprocessed.smi

> <i_m_source_file_index>
175

> <i_lp_mmshare_version>
43012

> <i_f3d_flags>
0

> <s_epik_input>
W0NIMl0xW0NIMl1PW0NAQEhdKFtDSDNdKVtDQEBdMShbT0hdKVtDSDJdbihbY0hdbjIpYyhjMjMpbltjSF1uYzNONFtDSDJdQyg9TylOKFtDSDJdNClbQ0gyXUMoRikoRilG

> <s_epik_cmdline>
J2VwaWtfcHl0aG9uJywgJy1waCcsICc3LjAnLCAnLXRuJywgJzgnLCAnLW1hJywgJzIwMCcsICctbWV0YWxfYmluZGluZycsICctaW1hZScsICc8aW5maWxlLm1hZT4nLCAnLW9tYWUnLCAnPG91dGZpbGUubWFlPic=

> <r_lp_tautomer_probability>
1

> <r_epik_Ionization_Penalty>
0.000307802

> <r_epik_Ionization_Penalty_Charging>
0

> <r_epik_Ionization_Penalty_Neutral>
0.000307802

> <r_epik_State_Penalty>
-0

> <r_epik_Charging_Adjusted_Penalty>
0

> <i_epik_Tot_Q>
0

> <i_epik_Tot_abs_Q>
0

> <r_epik_Metal_State_Penalty>
-0

> <b_epik_Metal_Only>
0

> <s_epik_Chemistry_Notes>
This compound contains an acetal/aminal-like group ( X-CH(R)-Y where X, Y are N, S, or O) that may be acid/base labile, releasing an aldehyde.

> <s_lp_Force_Field>
OPLS_2005

> <r_lp_Energy>
36.4888

> <b_lp_Chiralities_Consistent>
1

> <s_lp_Variant>
AV-unprocessed.smi:175-4

> <Gold.Version>
5.8.1

> <Gold.Id.Protein>
6NUR|6NUR_protein|mol2

> <Gold.PLP.Fitness>
46.6227

> <Gold.PLP.PLP>
-37.7761

> <Gold.PLP.part.hbond>
-3.4356

> <Gold.PLP.part.metal>
0.0000

> <Gold.PLP.part.buried>
-4.3353

> <Gold.PLP.part.nonpolar>
-31.0623

> <Gold.PLP.part.repulsive>
0.7571

> <Gold.PLP.ligand.clash>
0.0000

> <Gold.PLP.ligand.torsion>
0.9708

> <Gold.PLP.Chemscore.Hbond>
2.5662

> <Gold.PLP.Chemscore.CHOScore>
0.9224

> <Gold.PLP.Chemscore.Metal>
0.0000

> <Gold.Chemscore.Hbonds>
donor molecule, donor type, donor heavy atom, donor atom, acceptor molecule, acceptor atom, score
      L1  H     7    37       P1  7948  0.71
      P1  H  6896  6908       L1    14  0.75
      P1  H  6934  6947       L1    17  0.63
      L1  C    10    40       P1 10957  0.95

> <Gold.PLP.Chemscore.Internal.Correction>
0.3223

> <Gold.Rescore>
     Score         DG    S(hbond)    S(metal)    S(lipo)     H(rot)  DE(clash)    DE(int)     intcor
      3.48      -8.89       1.48        0.00      53.59       3.05       0.50       4.91       ----

> <Gold.Chemscore.Fitness>
3.4818

> <Gold.Chemscore.DG>
-8.8881

> <Gold.Chemscore.ZeroCoef>
-5.4800

> <Gold.Chemscore.Hbond>
1.4797

> <Gold.Chemscore.Metal>
0.0000

> <Gold.Chemscore.Lipo>
53.5950

> <Gold.Chemscore.Internal_Hbond>
0.0000

> <Gold.Chemscore.DEClash>
0.4956

> <Gold.Chemscore.DEInternal>
4.9108

> <Gold.Chemscore.Rot>
3.0487

> <Gold.Chemscore.Internal.Correction>
   9.000000E+99

> <Gold.Chemscore.Hbonds>
donor molecule, donor type, donor heavy atom, donor atom, acceptor molecule, acceptor atom, score
      L1  H     7    37       P1  7948  0.08
      P1  H  6896  6908       L1    14  0.04
      P1  H  6934  6947       L1    17  0.61

> <Gold.Chemscore.Hbond.Weighted>
-4.9421

> <Gold.Chemscore.Metal.Weighted>
-0.0000

> <Gold.Chemscore.Lipo.Weighted>
-6.2706

> <Gold.Chemscore.Internal_Hbond.Weighted>
0.0000

> <Gold.Chemscore.DEClash.Weighted>
0.4956

> <Gold.Chemscore.DEInternal.Weighted>
4.9108

> <Gold.Chemscore.Rot.Weighted>
7.8046

> <Gold.Chemscore.Internal.Correction.Weighted>
   9.000000E+99

> <Gold.Protein.RotatedTorsions>
[ 6907 6896 6895 6894 ] final  133.84 input  -60.11 | X-H torsion
[ 7974 7965 7964 7962 ] final  112.89 input  175.53 | X-H torsion
[ 8008 7997 7996 7995 ] final  -69.41 input   59.86 | X-H torsion
[ 10167 10162 10161 10158 ] final -156.05 input  -65.29 | X-H torsion
[ 10718 10713 10712 10709 ] final  145.75 input   66.30 | X-H torsion
[ 10763 10752 10751 10750 ] final -172.52 input  -60.55 | X-H torsion
[ 11005 11000 10999 10996 ] final   65.80 input  -57.11 | X-H torsion

> <Gold.Protein.ActiveResidues>
 VAL166  LYS551  ARG553  GLY616  TRP617  ASP618  TYR619  PRO620  LYS621  CYS622 
 ASP623  PHE694  ASN695  SER759  ASP760  ASP761  ALA762  ILE779  LEU786  VAL792 
 PHE793  MET794  SER795  GLU796  ALA797  LYS798  CYS799  TRP800  GLU811  SER814 

> <Gold.Protein.RotatedAtoms>
  152.3177  133.5820  159.5723 H   0  0  0  0  0  0  0  0  0  0  0  0  # atno 6907 bound_to 6896
  150.7355  134.0058  159.3662 H   0  0  0  0  0  0  0  0  0  0  0  0  # atno 6908 bound_to 6896
  151.7945  135.0727  160.0443 H   0  0  0  0  0  0  0  0  0  0  0  0  # atno 6909 bound_to 6896
  145.2239  139.2850  143.4204 H   0  0  0  0  0  0  0  0  0  0  0  0  # atno 7974 bound_to 7965
  154.4937  140.0854  156.7649 H   0  0  0  0  0  0  0  0  0  0  0  0  # atno 8008 bound_to 7997
  155.4169  140.3444  155.4250 H   0  0  0  0  0  0  0  0  0  0  0  0  # atno 8009 bound_to 7997
  156.1364  140.1516  156.8975 H   0  0  0  0  0  0  0  0  0  0  0  0  # atno 8010 bound_to 7997
  139.6881  143.9466  152.2371 H   0  0  0  0  0  0  0  0  0  0  0  0  # atno 10167 bound_to 10162
  157.3415  131.0936  151.1078 H   0  0  0  0  0  0  0  0  0  0  0  0  # atno 10718 bound_to 10713
  154.6184  135.2872  155.0354 H   0  0  0  0  0  0  0  0  0  0  0  0  # atno 10763 bound_to 10752
  154.1558  135.6496  153.4978 H   0  0  0  0  0  0  0  0  0  0  0  0  # atno 10764 bound_to 10752
  153.0225  135.5366  154.6964 H   0  0  0  0  0  0  0  0  0  0  0  0  # atno 10765 bound_to 10752
  139.9871  134.6650  156.0156 H   0  0  0  0  0  0  0  0  0  0  0  0  # atno 11005 bound_to 11000
  146.3369  140.2553  142.8600 LP  0  0  0  0  0  0  0  0  0  0  0  0  # atno 17320 bound_to 7965
  144.9740  140.8396  143.5438 LP  0  0  0  0  0  0  0  0  0  0  0  0  # atno 17321 bound_to 7965
  139.9275  144.6762  150.8397 LP  0  0  0  0  0  0  0  0  0  0  0  0  # atno 17342 bound_to 10162
  140.7674  143.3332  151.2366 LP  0  0  0  0  0  0  0  0  0  0  0  0  # atno 17343 bound_to 10162
  157.2288  130.6515  149.5841 LP  0  0  0  0  0  0  0  0  0  0  0  0  # atno 17370 bound_to 10713
  155.9708  130.4605  150.6077 LP  0  0  0  0  0  0  0  0  0  0  0  0  # atno 17371 bound_to 10713
  141.1534  133.6545  156.4085 LP  0  0  0  0  0  0  0  0  0  0  0  0  # atno 17394 bound_to 11000
  140.4980  134.6512  157.5237 LP  0  0  0  0  0  0  0  0  0  0  0  0  # atno 17395 bound_to 11000

$$$$
