AV-unprocessed.smi:3211|AV-procd|sdf|12277|dock3
  -GOLD-   2272018113D 1   1.00000     0.00000
 Structure written by MMmdl.
 34 35  0  0  0  0  0  0  0  0  1 V2000
  152.0900  145.1255  159.3339 C   0  0  0  0  0  0  0  0  0  0  0  0
  151.8474  144.0847  160.4320 C   0  0  0  0  0  0  0  0  0  0  0  0
  152.3639  142.7340  160.0645 C   0  0  0  0  0  0  0  0  0  0  0  0
  151.9509  142.0537  158.9916 N   0  0  0  0  0  0  0  0  0  0  0  0
  152.6095  140.8289  158.8441 C   0  0  0  0  0  0  0  0  0  0  0  0
  152.2699  139.9285  157.6955 C   0  0  0  0  0  0  0  0  0  0  0  0
  150.7822  139.5395  157.6820 C   0  0  0  0  0  0  0  0  0  0  0  0
  150.0078  140.4052  156.7997 N   0  0  0  0  0  0  0  0  0  0  0  0
  150.2619  140.6021  155.4969 C   0  0  0  0  0  0  0  0  0  0  0  0
  151.1980  140.0601  154.9070 O   0  0  0  0  0  0  0  0  0  0  0  0
  149.3061  141.5337  154.8257 C   0  0  1  0  0  0  0  0  0  0  0  0
  148.5279  141.0033  153.6385 C   0  0  0  0  0  0  0  0  0  0  0  0
  147.8236  141.2360  154.9532 C   0  0  2  0  0  0  0  0  0  0  0  0
  146.8278  142.3646  155.1124 C   0  0  0  0  0  0  0  0  0  0  0  0
  153.5431  140.5951  159.8229 C   0  0  0  0  0  0  0  0  0  0  0  0
  153.6304  141.9077  160.9648 S   0  0  0  0  0  0  0  0  0  0  0  0
  151.7045  146.1007  159.6308 H   0  0  0  0  0  0  0  0  0  0  0  0
  151.5952  144.8398  158.4052 H   0  0  0  0  0  0  0  0  0  0  0  0
  153.1549  145.2365  159.1262 H   0  0  0  0  0  0  0  0  0  0  0  0
  152.3289  144.4021  161.3573 H   0  0  0  0  0  0  0  0  0  0  0  0
  150.7803  144.0093  160.6448 H   0  0  0  0  0  0  0  0  0  0  0  0
  152.5296  140.4195  156.7568 H   0  0  0  0  0  0  0  0  0  0  0  0
  152.8813  139.0263  157.7379 H   0  0  0  0  0  0  0  0  0  0  0  0
  150.6690  138.5127  157.3327 H   0  0  0  0  0  0  0  0  0  0  0  0
  150.3698  139.5702  158.6921 H   0  0  0  0  0  0  0  0  0  0  0  0
  149.2206  140.8878  157.2088 H   0  0  0  0  0  0  0  0  0  0  0  0
  149.5969  142.5829  154.7881 H   0  0  0  0  0  0  0  0  0  0  0  0
  148.3411  141.6989  152.8228 H   0  0  0  0  0  0  0  0  0  0  0  0
  148.6849  139.9705  153.3319 H   0  0  0  0  0  0  0  0  0  0  0  0
  147.5442  140.3394  155.5047 H   0  0  0  0  0  0  0  0  0  0  0  0
  147.1324  143.2355  154.5313 H   0  0  0  0  0  0  0  0  0  0  0  0
  146.7549  142.6537  156.1609 H   0  0  0  0  0  0  0  0  0  0  0  0
  145.8432  142.0453  154.7705 H   0  0  0  0  0  0  0  0  0  0  0  0
  154.1858  139.7347  159.9381 H   0  0  0  0  0  0  0  0  0  0  0  0
  1  2  1  0  0  0  0
  1 17  1  0  0  0  0
  1 18  1  0  0  0  0
  1 19  1  0  0  0  0
  2  3  1  0  0  0  0
  2 20  1  0  0  0  0
  2 21  1  0  0  0  0
  3 16  1  0  0  0  0
  3  4  2  0  0  0  0
  4  5  1  0  0  0  0
  5  6  1  0  0  0  0
  5 15  2  0  0  0  0
  6  7  1  0  0  0  0
  6 22  1  0  0  0  0
  6 23  1  0  0  0  0
  7  8  1  0  0  0  0
  7 24  1  0  0  0  0
  7 25  1  0  0  0  0
  8  9  1  0  0  0  0
  8 26  1  0  0  0  0
  9 10  2  0  0  0  0
  9 11  1  0  0  0  0
 11 13  1  0  0  0  0
 11 12  1  0  0  0  0
 11 27  1  0  0  0  0
 12 13  1  0  0  0  0
 12 28  1  0  0  0  0
 12 29  1  0  0  0  0
 13 14  1  0  0  0  0
 13 30  1  0  0  0  0
 14 31  1  0  0  0  0
 14 32  1  0  0  0  0
 14 33  1  0  0  0  0
 15 16  1  0  0  0  0
 15 34  1  0  0  0  0
M  END
> <s_m_source_file>
AV-unprocessed.smi

> <i_m_source_file_index>
3211

> <i_lp_mmshare_version>
43012

> <i_f3d_flags>
0

> <s_epik_input>
W0NIM11bQ0gyXWMxbmMoW2NIXXMxKVtDSDJdW0NIMl1bTkhdQyg9TylbQ0BASF0yW0NIMl1bQ0BIXTJbQ0gzXQ==

> <s_epik_cmdline>
J2VwaWtfcHl0aG9uJywgJy1waCcsICc3LjAnLCAnLXRuJywgJzgnLCAnLW1hJywgJzIwMCcsICctbWV0YWxfYmluZGluZycsICctaW1hZScsICc8aW5maWxlLm1hZT4nLCAnLW9tYWUnLCAnPG91dGZpbGUubWFlPic=

> <r_epik_Ionization_Penalty>
0.00109667

> <r_epik_Ionization_Penalty_Charging>
0

> <r_epik_Ionization_Penalty_Neutral>
0.00109667

> <r_epik_State_Penalty>
0.000719322

> <r_epik_Charging_Adjusted_Penalty>
0.000719322

> <i_epik_Tot_Q>
0

> <i_epik_Tot_abs_Q>
0

> <r_epik_Metal_State_Penalty>
-0

> <b_epik_Metal_Only>
0

> <s_lp_Force_Field>
OPLS_2005

> <r_lp_Energy>
-0.564993

> <b_lp_Chiralities_Consistent>
1

> <s_lp_Variant>
AV-unprocessed.smi:3211-4

> <Gold.Version>
5.8.1

> <Gold.Id.Protein>
6NUR|6NUR_protein|mol2

> <Gold.PLP.Fitness>
39.3603

> <Gold.PLP.PLP>
-36.8887

> <Gold.PLP.part.hbond>
-1.0000

> <Gold.PLP.part.metal>
0.0000

> <Gold.PLP.part.buried>
-2.2495

> <Gold.PLP.part.nonpolar>
-34.2695

> <Gold.PLP.part.repulsive>
0.0769

> <Gold.PLP.ligand.clash>
0.0000

> <Gold.PLP.ligand.torsion>
0.3060

> <Gold.PLP.Chemscore.Hbond>
1.0000

> <Gold.PLP.Chemscore.CHOScore>
0.0000

> <Gold.PLP.Chemscore.Metal>
0.0000

> <Gold.Chemscore.Hbonds>
donor molecule, donor type, donor heavy atom, donor atom, acceptor molecule, acceptor atom, score
      P1  H  7989  7998       L1    10  1.00

> <Gold.PLP.Chemscore.Internal.Correction>
0.0835

> <Gold.Rescore>
     Score         DG    S(hbond)    S(metal)    S(lipo)     H(rot)  DE(clash)    DE(int)     intcor
     15.33     -16.74       0.99        0.00     101.08       1.51       0.07       1.34       ----

> <Gold.Chemscore.Fitness>
15.3335

> <Gold.Chemscore.DG>
-16.7443

> <Gold.Chemscore.ZeroCoef>
-5.4800

> <Gold.Chemscore.Hbond>
0.9888

> <Gold.Chemscore.Metal>
0.0000

> <Gold.Chemscore.Lipo>
101.0800

> <Gold.Chemscore.Internal_Hbond>
0.0000

> <Gold.Chemscore.DEClash>
0.0692

> <Gold.Chemscore.DEInternal>
1.3416

> <Gold.Chemscore.Rot>
1.5096

> <Gold.Chemscore.Internal.Correction>
   9.000000E+99

> <Gold.Chemscore.Hbonds>
donor molecule, donor type, donor heavy atom, donor atom, acceptor molecule, acceptor atom, score
      P1  H  7989  7998       L1    10  0.85

> <Gold.Chemscore.Hbond.Weighted>
-3.3025

> <Gold.Chemscore.Metal.Weighted>
-0.0000

> <Gold.Chemscore.Lipo.Weighted>
-11.8264

> <Gold.Chemscore.Internal_Hbond.Weighted>
0.0000

> <Gold.Chemscore.DEClash.Weighted>
0.0692

> <Gold.Chemscore.DEInternal.Weighted>
1.3416

> <Gold.Chemscore.Rot.Weighted>
3.8646

> <Gold.Chemscore.Internal.Correction.Weighted>
   9.000000E+99

> <Gold.Protein.RotatedTorsions>
[ 6907 6896 6895 6894 ] final  145.51 input  -60.11 | X-H torsion
[ 7974 7965 7964 7962 ] final  -57.51 input  175.53 | X-H torsion
[ 8008 7997 7996 7995 ] final  113.83 input   59.86 | X-H torsion
[ 10167 10162 10161 10158 ] final -142.60 input  -65.29 | X-H torsion
[ 10718 10713 10712 10709 ] final   67.99 input   66.30 | X-H torsion
[ 10763 10752 10751 10750 ] final   94.37 input  -60.55 | X-H torsion
[ 11005 11000 10999 10996 ] final   92.30 input  -57.11 | X-H torsion

> <Gold.Protein.ActiveResidues>
 VAL166  LYS551  ARG553  GLY616  TRP617  ASP618  TYR619  PRO620  LYS621  CYS622 
 ASP623  PHE694  ASN695  SER759  ASP760  ASP761  ALA762  ILE779  LEU786  VAL792 
 PHE793  MET794  SER795  GLU796  ALA797  LYS798  CYS799  TRP800  GLU811  SER814 

> <Gold.Protein.RotatedAtoms>
  152.1799  133.4700  159.4952 H   0  0  0  0  0  0  0  0  0  0  0  0  # atno 6907 bound_to 6896
  150.6933  134.1846  159.4271 H   0  0  0  0  0  0  0  0  0  0  0  0  # atno 6908 bound_to 6896
  151.9757  135.0054  160.0605 H   0  0  0  0  0  0  0  0  0  0  0  0  # atno 6909 bound_to 6896
  145.8502  140.8357  142.9989 H   0  0  0  0  0  0  0  0  0  0  0  0  # atno 7974 bound_to 7965
  156.2283  140.2971  156.0123 H   0  0  0  0  0  0  0  0  0  0  0  0  # atno 8008 bound_to 7997
  155.2295  140.0418  157.2977 H   0  0  0  0  0  0  0  0  0  0  0  0  # atno 8009 bound_to 7997
  154.5952  140.2412  155.7874 H   0  0  0  0  0  0  0  0  0  0  0  0  # atno 8010 bound_to 7997
  139.8073  143.7751  152.2662 H   0  0  0  0  0  0  0  0  0  0  0  0  # atno 10167 bound_to 10162
  157.6263  130.9350  150.0316 H   0  0  0  0  0  0  0  0  0  0  0  0  # atno 10718 bound_to 10713
  153.2409  135.4292  155.0697 H   0  0  0  0  0  0  0  0  0  0  0  0  # atno 10763 bound_to 10752
  154.8340  135.3402  154.6651 H   0  0  0  0  0  0  0  0  0  0  0  0  # atno 10764 bound_to 10752
  153.7074  135.7025  153.5103 H   0  0  0  0  0  0  0  0  0  0  0  0  # atno 10765 bound_to 10752
  139.8825  134.8725  156.3553 H   0  0  0  0  0  0  0  0  0  0  0  0  # atno 11005 bound_to 11000
  144.6729  140.0942  143.7463 LP  0  0  0  0  0  0  0  0  0  0  0  0  # atno 17320 bound_to 7965
  145.9366  139.2641  143.1293 LP  0  0  0  0  0  0  0  0  0  0  0  0  # atno 17321 bound_to 7965
  139.7889  144.7417  150.9982 LP  0  0  0  0  0  0  0  0  0  0  0  0  # atno 17342 bound_to 10162
  140.7819  143.4462  151.0478 LP  0  0  0  0  0  0  0  0  0  0  0  0  # atno 17343 bound_to 10162
  156.1437  130.3642  149.9543 LP  0  0  0  0  0  0  0  0  0  0  0  0  # atno 17370 bound_to 10713
  156.7578  130.9139  151.3640 LP  0  0  0  0  0  0  0  0  0  0  0  0  # atno 17371 bound_to 10713
  140.9567  133.7415  156.0345 LP  0  0  0  0  0  0  0  0  0  0  0  0  # atno 17394 bound_to 11000
  140.8040  134.3476  157.5431 LP  0  0  0  0  0  0  0  0  0  0  0  0  # atno 17395 bound_to 11000

$$$$
