AV-unprocessed.smi:1681|AV-procd|sdf|6742|dock6
  -GOLD-   22720 7493D 1   1.00000     0.00000
 Structure written by MMmdl.
 40 41  0  0  0  0  0  0  0  0  1 V2000
  153.4102  142.6228  162.9900 C   0  0  0  0  0  0  0  0  0  0  0  0
  152.7722  143.0412  161.6636 C   0  0  0  0  0  0  0  0  0  0  0  0
  151.9133  143.9230  161.6879 O   0  0  0  0  0  0  0  0  0  0  0  0
  153.1643  142.4323  160.5185 N   0  0  0  0  0  0  0  0  0  0  0  0
  154.1188  141.3194  160.4317 C   0  0  0  0  0  0  0  0  0  0  0  0
  153.3484  140.0373  160.0683 C   0  0  0  0  0  0  0  0  0  0  0  0
  152.5504  140.2251  158.7636 C   0  0  0  0  0  0  0  0  0  0  0  0
  151.6816  141.5049  158.8019 C   0  0  2  0  0  0  0  0  0  0  0  0
  150.9981  141.7542  157.4508 C   0  0  0  0  0  0  0  0  0  0  0  0
  151.2027  142.8075  156.8468 O   0  0  0  0  0  0  0  0  0  0  0  0
  150.1938  140.7707  157.0092 N   0  0  0  0  0  0  0  0  0  0  0  0
  149.4506  140.7381  155.8024 C   0  0  0  0  0  0  0  0  0  0  0  0
  149.4641  141.7584  154.8163 C   0  0  0  0  0  0  0  0  0  0  0  0
  148.6666  141.4561  153.8033 N   0  0  0  0  0  0  0  0  0  0  0  0
  148.1327  140.2503  154.1225 N   0  0  0  0  0  0  0  0  0  0  0  0
  147.1842  139.6216  153.2204 C   0  0  0  0  0  0  0  0  0  0  0  0
  146.5410  138.3890  153.8599 C   0  0  0  0  0  0  0  0  0  0  0  0
  145.2062  138.3459  153.8992 N   0  0  0  0  0  0  0  0  0  0  0  0
  147.2405  137.4883  154.3181 O   0  0  0  0  0  0  0  0  0  0  0  0
  148.5944  139.7808  155.3369 C   0  0  0  0  0  0  0  0  0  0  0  0
  152.5454  142.7171  159.2178 C   0  0  0  0  0  0  0  0  0  0  0  0
  153.2539  141.5599  163.1770 H   0  0  0  0  0  0  0  0  0  0  0  0
  152.9671  143.1743  163.8201 H   0  0  0  0  0  0  0  0  0  0  0  0
  154.4807  142.8298  162.9859 H   0  0  0  0  0  0  0  0  0  0  0  0
  154.8571  141.5409  159.6595 H   0  0  0  0  0  0  0  0  0  0  0  0
  154.6929  141.1628  161.3437 H   0  0  0  0  0  0  0  0  0  0  0  0
  154.0391  139.1999  159.9655 H   0  0  0  0  0  0  0  0  0  0  0  0
  152.6672  139.7798  160.8804 H   0  0  0  0  0  0  0  0  0  0  0  0
  153.2532  140.2770  157.9304 H   0  0  0  0  0  0  0  0  0  0  0  0
  151.9261  139.3487  158.5842 H   0  0  0  0  0  0  0  0  0  0  0  0
  150.9077  141.3661  159.5599 H   0  0  0  0  0  0  0  0  0  0  0  0
  150.1059  139.9579  157.6018 H   0  0  0  0  0  0  0  0  0  0  0  0
  150.0120  142.6890  154.8019 H   0  0  0  0  0  0  0  0  0  0  0  0
  146.4159  140.3454  152.9435 H   0  0  0  0  0  0  0  0  0  0  0  0
  147.7017  139.3377  152.3030 H   0  0  0  0  0  0  0  0  0  0  0  0
  144.7375  137.5551  154.3170 H   0  0  0  0  0  0  0  0  0  0  0  0
  144.6702  139.1104  153.5148 H   0  0  0  0  0  0  0  0  0  0  0  0
  148.2709  138.8351  155.7456 H   0  0  0  0  0  0  0  0  0  0  0  0
  151.9403  143.6252  159.2339 H   0  0  0  0  0  0  0  0  0  0  0  0
  153.3313  142.9008  158.4830 H   0  0  0  0  0  0  0  0  0  0  0  0
  1  2  1  0  0  0  0
  1 22  1  0  0  0  0
  1 23  1  0  0  0  0
  1 24  1  0  0  0  0
  2  3  2  0  0  0  0
  2  4  1  0  0  0  0
  4 21  1  0  0  0  0
  4  5  1  0  0  0  0
  5  6  1  0  0  0  0
  5 25  1  0  0  0  0
  5 26  1  0  0  0  0
  6  7  1  0  0  0  0
  6 27  1  0  0  0  0
  6 28  1  0  0  0  0
  7  8  1  0  0  0  0
  7 29  1  0  0  0  0
  7 30  1  0  0  0  0
  8  9  1  0  0  0  0
  8 21  1  0  0  0  0
  8 31  1  0  0  0  0
  9 10  2  0  0  0  0
  9 11  1  0  0  0  0
 11 12  1  0  0  0  0
 11 32  1  0  0  0  0
 12 20  2  0  0  0  0
 12 13  1  0  0  0  0
 13 14  2  0  0  0  0
 13 33  1  0  0  0  0
 14 15  1  0  0  0  0
 15 16  1  0  0  0  0
 15 20  1  0  0  0  0
 16 17  1  0  0  0  0
 16 34  1  0  0  0  0
 16 35  1  0  0  0  0
 17 18  1  0  0  0  0
 17 19  2  0  0  0  0
 18 36  1  0  0  0  0
 18 37  1  0  0  0  0
 20 38  1  0  0  0  0
 21 39  1  0  0  0  0
 21 40  1  0  0  0  0
M  END
> <s_m_source_file>
AV-unprocessed.smi

> <i_m_source_file_index>
1681

> <i_lp_mmshare_version>
43012

> <i_f3d_flags>
0

> <s_epik_input>
W0NIM11DKD1PKU4xW0NIMl1bQ0gyXVtDSDJdW0NASF0oW0NIMl0xKUMoPU8pW05IXWMyW2NIXW5uKFtjSF0yKVtDSDJdQyg9TylbTkgyXQ==

> <s_epik_cmdline>
J2VwaWtfcHl0aG9uJywgJy1waCcsICc3LjAnLCAnLXRuJywgJzgnLCAnLW1hJywgJzIwMCcsICctbWV0YWxfYmluZGluZycsICctaW1hZScsICc8aW5maWxlLm1hZT4nLCAnLW9tYWUnLCAnPG91dGZpbGUubWFlPic=

> <r_lp_tautomer_probability>
1

> <r_epik_Ionization_Penalty>
6.05275e-06

> <r_epik_Ionization_Penalty_Charging>
0

> <r_epik_Ionization_Penalty_Neutral>
6.05275e-06

> <r_epik_State_Penalty>
-0

> <r_epik_Charging_Adjusted_Penalty>
0

> <i_epik_Tot_Q>
0

> <i_epik_Tot_abs_Q>
0

> <r_epik_Metal_State_Penalty>
-0

> <b_epik_Metal_Only>
0

> <s_lp_Force_Field>
OPLS_2005

> <r_lp_Energy>
29.5866

> <b_lp_Chiralities_Consistent>
1

> <s_lp_Variant>
AV-unprocessed.smi:1681-2

> <Gold.Version>
5.8.1

> <Gold.Id.Protein>
6NUR|6NUR_protein|mol2

> <Gold.PLP.Fitness>
46.1220

> <Gold.PLP.PLP>
-39.2959

> <Gold.PLP.part.hbond>
-2.0000

> <Gold.PLP.part.metal>
0.0000

> <Gold.PLP.part.buried>
-2.9285

> <Gold.PLP.part.nonpolar>
-33.9109

> <Gold.PLP.part.repulsive>
0.7994

> <Gold.PLP.ligand.clash>
0.0000

> <Gold.PLP.ligand.torsion>
0.1150

> <Gold.PLP.Chemscore.Hbond>
1.6100

> <Gold.PLP.Chemscore.CHOScore>
0.7340

> <Gold.PLP.Chemscore.Metal>
0.0000

> <Gold.Chemscore.Hbonds>
donor molecule, donor type, donor heavy atom, donor atom, acceptor molecule, acceptor atom, score
      L1  H    18    37       P1 10175  1.00
      P1  H  8011  8017       L1    14  0.50
      L1  C    13    33       P1  8028  0.77

> <Gold.PLP.Chemscore.Internal.Correction>
0.0244

> <Gold.Rescore>
     Score         DG    S(hbond)    S(metal)    S(lipo)     H(rot)  DE(clash)    DE(int)     intcor
     10.61     -13.71       1.21        0.00      78.73       1.96       0.43       2.66       ----

> <Gold.Chemscore.Fitness>
10.6135

> <Gold.Chemscore.DG>
-13.7099

> <Gold.Chemscore.ZeroCoef>
-5.4800

> <Gold.Chemscore.Hbond>
1.2098

> <Gold.Chemscore.Metal>
0.0000

> <Gold.Chemscore.Lipo>
78.7277

> <Gold.Chemscore.Internal_Hbond>
0.0000

> <Gold.Chemscore.DEClash>
0.4335

> <Gold.Chemscore.DEInternal>
2.6628

> <Gold.Chemscore.Rot>
1.9617

> <Gold.Chemscore.Internal.Correction>
   9.000000E+99

> <Gold.Chemscore.Hbonds>
donor molecule, donor type, donor heavy atom, donor atom, acceptor molecule, acceptor atom, score
      L1  H    18    37       P1 10175  0.98
      P1  H  8011  8017       L1    14  0.07

> <Gold.Chemscore.Hbond.Weighted>
-4.0408

> <Gold.Chemscore.Metal.Weighted>
-0.0000

> <Gold.Chemscore.Lipo.Weighted>
-9.2111

> <Gold.Chemscore.Internal_Hbond.Weighted>
0.0000

> <Gold.Chemscore.DEClash.Weighted>
0.4335

> <Gold.Chemscore.DEInternal.Weighted>
2.6628

> <Gold.Chemscore.Rot.Weighted>
5.0220

> <Gold.Chemscore.Internal.Correction.Weighted>
   9.000000E+99

> <Gold.Protein.RotatedTorsions>
[ 6907 6896 6895 6894 ] final  103.56 input  -60.11 | X-H torsion
[ 7974 7965 7964 7962 ] final   87.25 input  175.53 | X-H torsion
[ 8008 7997 7996 7995 ] final   98.43 input   59.86 | X-H torsion
[ 10167 10162 10161 10158 ] final  149.87 input  -65.29 | X-H torsion
[ 10718 10713 10712 10709 ] final  147.70 input   66.30 | X-H torsion
[ 10763 10752 10751 10750 ] final  -37.85 input  -60.55 | X-H torsion
[ 11005 11000 10999 10996 ] final   67.82 input  -57.11 | X-H torsion

> <Gold.Protein.ActiveResidues>
 VAL166  LYS551  ARG553  GLY616  TRP617  ASP618  TYR619  PRO620  LYS621  CYS622 
 ASP623  PHE694  ASN695  SER759  ASP760  ASP761  ALA762  ILE779  LEU786  VAL792 
 PHE793  MET794  SER795  GLU796  ALA797  LYS798  CYS799  TRP800  GLU811  SER814 

> <Gold.Protein.RotatedAtoms>
  152.5292  133.9808  159.7805 H   0  0  0  0  0  0  0  0  0  0  0  0  # atno 6907 bound_to 6896
  151.0062  133.6001  159.2695 H   0  0  0  0  0  0  0  0  0  0  0  0  # atno 6908 bound_to 6896
  151.3092  135.0796  159.9319 H   0  0  0  0  0  0  0  0  0  0  0  0  # atno 6909 bound_to 6896
  145.5614  139.2304  143.2457 H   0  0  0  0  0  0  0  0  0  0  0  0  # atno 7974 bound_to 7965
  156.1003  140.3244  155.7933 H   0  0  0  0  0  0  0  0  0  0  0  0  # atno 8008 bound_to 7997
  155.4848  140.0557  157.2979 H   0  0  0  0  0  0  0  0  0  0  0  0  # atno 8009 bound_to 7997
  154.4692  140.2003  156.0052 H   0  0  0  0  0  0  0  0  0  0  0  0  # atno 8010 bound_to 7997
  139.4856  144.5567  151.7305 H   0  0  0  0  0  0  0  0  0  0  0  0  # atno 10167 bound_to 10162
  157.3178  131.0899  151.1265 H   0  0  0  0  0  0  0  0  0  0  0  0  # atno 10718 bound_to 10713
  153.9030  135.6800  153.4754 H   0  0  0  0  0  0  0  0  0  0  0  0  # atno 10763 bound_to 10752
  153.1119  135.4779  154.9047 H   0  0  0  0  0  0  0  0  0  0  0  0  # atno 10764 bound_to 10752
  154.7565  135.3199  154.8414 H   0  0  0  0  0  0  0  0  0  0  0  0  # atno 10765 bound_to 10752
  139.9748  134.6841  156.0376 H   0  0  0  0  0  0  0  0  0  0  0  0  # atno 11005 bound_to 11000
  146.1848  140.6439  142.9172 LP  0  0  0  0  0  0  0  0  0  0  0  0  # atno 17320 bound_to 7965
  144.7481  140.5120  143.6821 LP  0  0  0  0  0  0  0  0  0  0  0  0  # atno 17321 bound_to 7965
  140.5130  144.0996  150.6000 LP  0  0  0  0  0  0  0  0  0  0  0  0  # atno 17342 bound_to 10162
  140.3928  143.2743  152.0040 LP  0  0  0  0  0  0  0  0  0  0  0  0  # atno 17343 bound_to 10162
  157.2562  130.6637  149.5953 LP  0  0  0  0  0  0  0  0  0  0  0  0  # atno 17370 bound_to 10713
  155.9683  130.4523  150.5768 LP  0  0  0  0  0  0  0  0  0  0  0  0  # atno 17371 bound_to 10713
  141.1425  133.6562  156.3772 LP  0  0  0  0  0  0  0  0  0  0  0  0  # atno 17394 bound_to 11000
  140.5218  134.6296  157.5321 LP  0  0  0  0  0  0  0  0  0  0  0  0  # atno 17395 bound_to 11000

$$$$
