AV-unprocessed.smi:1617|AV-procd|sdf|6484|dock9
  -GOLD-   22720 7143D 1   1.00000     0.00000
 Structure written by MMmdl.
 47 49  0  0  0  0  0  0  0  0  1 V2000
  149.3672  135.4674  156.3184 O   0  0  0  0  0  0  0  0  0  0  0  0
  149.3331  135.7773  155.1278 C   0  0  0  0  0  0  0  0  0  0  0  0
  149.7401  136.9520  154.6171 N   0  0  0  0  0  0  0  0  0  0  0  0
  150.2466  138.0888  155.3034 C   0  0  0  0  0  0  0  0  0  0  0  0
  150.5506  139.3244  154.6878 C   0  0  0  0  0  0  0  0  0  0  0  0
  151.0656  140.3724  155.4750 C   0  0  0  0  0  0  0  0  0  0  0  0
  151.2727  140.1646  156.8625 C   0  0  0  0  0  0  0  0  0  0  0  0
  151.7933  141.1730  157.7069 N   0  0  0  0  0  0  0  0  0  0  0  0
  151.3009  142.5400  157.5535 C   0  0  0  0  0  0  0  0  0  0  0  0
  152.2033  143.5315  158.3076 C   0  0  0  0  0  0  0  0  0  0  0  0
  152.3268  143.1333  159.6677 O   0  0  0  0  0  0  0  0  0  0  0  0
  152.9401  141.8547  159.7850 C   0  0  0  0  0  0  0  0  0  0  0  0
  152.0687  140.7927  159.0929 C   0  0  0  0  0  0  0  0  0  0  0  0
  150.9916  138.9721  157.4411 N   0  0  0  0  0  0  0  0  0  0  0  0
  150.4999  137.9702  156.6834 C   0  0  0  0  0  0  0  0  0  0  0  0
  148.8911  134.9570  154.1627 N   0  0  0  0  0  0  0  0  0  0  0  0
  148.3600  133.6078  154.3727 C   0  0  2  0  0  0  0  0  0  0  0  0
  148.8726  132.7181  153.2170 C   0  0  0  0  0  0  0  0  0  0  0  0
  148.8737  131.2147  153.5445 C   0  0  0  0  0  0  0  0  0  0  0  0
  147.4849  130.5984  153.7723 C   0  0  0  0  0  0  0  0  0  0  0  0
  146.7333  131.1941  154.9751 C   0  0  0  0  0  0  0  0  0  0  0  0
  146.1521  132.4946  154.6689 N   0  0  0  0  0  0  0  0  0  0  0  0
  146.8132  133.6197  154.3579 C   0  0  0  0  0  0  0  0  0  0  0  0
  146.1947  134.6417  154.0604 O   0  0  0  0  0  0  0  0  0  0  0  0
  149.7268  137.0263  153.6104 H   0  0  0  0  0  0  0  0  0  0  0  0
  150.4133  139.4883  153.6306 H   0  0  0  0  0  0  0  0  0  0  0  0
  151.2842  141.3130  154.9938 H   0  0  0  0  0  0  0  0  0  0  0  0
  151.2817  142.8221  156.5005 H   0  0  0  0  0  0  0  0  0  0  0  0
  150.2794  142.5987  157.9316 H   0  0  0  0  0  0  0  0  0  0  0  0
  153.1890  143.5906  157.8431 H   0  0  0  0  0  0  0  0  0  0  0  0
  151.7740  144.5327  158.2681 H   0  0  0  0  0  0  0  0  0  0  0  0
  153.9416  141.8776  159.3519 H   0  0  0  0  0  0  0  0  0  0  0  0
  153.0567  141.6125  160.8413 H   0  0  0  0  0  0  0  0  0  0  0  0
  151.1209  140.6842  159.6216 H   0  0  0  0  0  0  0  0  0  0  0  0
  152.5803  139.8324  159.1548 H   0  0  0  0  0  0  0  0  0  0  0  0
  150.2970  137.0439  157.2008 H   0  0  0  0  0  0  0  0  0  0  0  0
  148.8984  135.2962  153.2122 H   0  0  0  0  0  0  0  0  0  0  0  0
  148.7232  133.2279  155.3294 H   0  0  0  0  0  0  0  0  0  0  0  0
  148.3103  132.9045  152.3003 H   0  0  0  0  0  0  0  0  0  0  0  0
  149.9030  132.9936  152.9865 H   0  0  0  0  0  0  0  0  0  0  0  0
  149.3571  130.6820  152.7249 H   0  0  0  0  0  0  0  0  0  0  0  0
  149.4974  131.0362  154.4212 H   0  0  0  0  0  0  0  0  0  0  0  0
  146.8799  130.6872  152.8687 H   0  0  0  0  0  0  0  0  0  0  0  0
  147.6133  129.5288  153.9411 H   0  0  0  0  0  0  0  0  0  0  0  0
  145.9113  130.5319  155.2476 H   0  0  0  0  0  0  0  0  0  0  0  0
  147.3783  131.2587  155.8525 H   0  0  0  0  0  0  0  0  0  0  0  0
  145.1433  132.5400  154.6611 H   0  0  0  0  0  0  0  0  0  0  0  0
  1  2  2  0  0  0  0
  2  3  1  0  0  0  0
  2 16  1  0  0  0  0
  3  4  1  0  0  0  0
  3 25  1  0  0  0  0
  4 15  1  0  0  0  0
  4  5  2  0  0  0  0
  5  6  1  0  0  0  0
  5 26  1  0  0  0  0
  6  7  2  0  0  0  0
  6 27  1  0  0  0  0
  7  8  1  0  0  0  0
  7 14  1  0  0  0  0
  8 13  1  0  0  0  0
  8  9  1  0  0  0  0
  9 10  1  0  0  0  0
  9 28  1  0  0  0  0
  9 29  1  0  0  0  0
 10 11  1  0  0  0  0
 10 30  1  0  0  0  0
 10 31  1  0  0  0  0
 11 12  1  0  0  0  0
 12 13  1  0  0  0  0
 12 32  1  0  0  0  0
 12 33  1  0  0  0  0
 13 34  1  0  0  0  0
 13 35  1  0  0  0  0
 14 15  2  0  0  0  0
 15 36  1  0  0  0  0
 16 17  1  0  0  0  0
 16 37  1  0  0  0  0
 17 23  1  0  0  0  0
 17 18  1  0  0  0  0
 17 38  1  0  0  0  0
 18 19  1  0  0  0  0
 18 39  1  0  0  0  0
 18 40  1  0  0  0  0
 19 20  1  0  0  0  0
 19 41  1  0  0  0  0
 19 42  1  0  0  0  0
 20 21  1  0  0  0  0
 20 43  1  0  0  0  0
 20 44  1  0  0  0  0
 21 22  1  0  0  0  0
 21 45  1  0  0  0  0
 21 46  1  0  0  0  0
 22 23  1  0  0  0  0
 22 47  1  0  0  0  0
 23 24  2  0  0  0  0
M  END
> <s_m_source_file>
AV-unprocessed.smi

> <i_m_source_file_index>
1617

> <i_lp_mmshare_version>
43012

> <i_f3d_flags>
0

> <s_epik_input>
Tz1DMVtOSF1bQ0gyXVtDSDJdW0NIMl1bQ0gyXVtDQEhdMVtOSF1DKD1PKVtOSF1jMltjSF1bY0hdYyhuW2NIXTIpTjNbQ0gyXVtDSDJdT1tDSDJdW0NIMl0z

> <s_epik_cmdline>
J2VwaWtfcHl0aG9uJywgJy1waCcsICc3LjAnLCAnLXRuJywgJzgnLCAnLW1hJywgJzIwMCcsICctbWV0YWxfYmluZGluZycsICctaW1hZScsICc8aW5maWxlLm1hZT4nLCAnLW9tYWUnLCAnPG91dGZpbGUubWFlPic=

> <r_lp_tautomer_probability>
1

> <r_epik_Ionization_Penalty>
0.00171733

> <r_epik_Ionization_Penalty_Charging>
0

> <r_epik_Ionization_Penalty_Neutral>
0.00171733

> <r_epik_State_Penalty>
0.00113787

> <r_epik_Charging_Adjusted_Penalty>
0.00113787

> <i_epik_Tot_Q>
0

> <i_epik_Tot_abs_Q>
0

> <r_epik_Metal_State_Penalty>
-0

> <b_epik_Metal_Only>
0

> <s_lp_Force_Field>
OPLS_2005

> <r_lp_Energy>
27.2722

> <b_lp_Chiralities_Consistent>
1

> <s_lp_Variant>
AV-unprocessed.smi:1617-1

> <Gold.Version>
5.8.1

> <Gold.Id.Protein>
6NUR|6NUR_protein|mol2

> <Gold.PLP.Fitness>
39.0364

> <Gold.PLP.PLP>
-33.9478

> <Gold.PLP.part.hbond>
-2.0000

> <Gold.PLP.part.metal>
0.0000

> <Gold.PLP.part.buried>
-3.0809

> <Gold.PLP.part.nonpolar>
-28.2143

> <Gold.PLP.part.repulsive>
0.1265

> <Gold.PLP.ligand.clash>
0.0000

> <Gold.PLP.ligand.torsion>
0.5680

> <Gold.PLP.Chemscore.Hbond>
1.9199

> <Gold.PLP.Chemscore.CHOScore>
0.0000

> <Gold.PLP.Chemscore.Metal>
0.0000

> <Gold.Chemscore.Hbonds>
donor molecule, donor type, donor heavy atom, donor atom, acceptor molecule, acceptor atom, score
      L1  H     3    25       P1  7948  0.92
      L1  H    16    37       P1  7948  1.00

> <Gold.PLP.Chemscore.Internal.Correction>
0.4650

> <Gold.Rescore>
     Score         DG    S(hbond)    S(metal)    S(lipo)     H(rot)  DE(clash)    DE(int)     intcor
     18.67     -20.69       2.78        0.00      78.46       1.27       0.04       1.99       ----

> <Gold.Chemscore.Fitness>
18.6673

> <Gold.Chemscore.DG>
-20.6909

> <Gold.Chemscore.ZeroCoef>
-5.4800

> <Gold.Chemscore.Hbond>
2.7780

> <Gold.Chemscore.Metal>
0.0000

> <Gold.Chemscore.Lipo>
78.4567

> <Gold.Chemscore.Internal_Hbond>
0.0000

> <Gold.Chemscore.DEClash>
0.0366

> <Gold.Chemscore.DEInternal>
1.9869

> <Gold.Chemscore.Rot>
1.2684

> <Gold.Chemscore.Internal.Correction>
   9.000000E+99

> <Gold.Chemscore.Hbonds>
donor molecule, donor type, donor heavy atom, donor atom, acceptor molecule, acceptor atom, score
      L1  H     3    25       P1  7948  0.54
      L1  H    16    37       P1  7948  0.55

> <Gold.Chemscore.Hbond.Weighted>
-9.2785

> <Gold.Chemscore.Metal.Weighted>
-0.0000

> <Gold.Chemscore.Lipo.Weighted>
-9.1794

> <Gold.Chemscore.Internal_Hbond.Weighted>
0.0000

> <Gold.Chemscore.DEClash.Weighted>
0.0366

> <Gold.Chemscore.DEInternal.Weighted>
1.9869

> <Gold.Chemscore.Rot.Weighted>
3.2471

> <Gold.Chemscore.Internal.Correction.Weighted>
   9.000000E+99

> <Gold.Protein.RotatedTorsions>
[ 6907 6896 6895 6894 ] final  -81.16 input  -60.11 | X-H torsion
[ 7974 7965 7964 7962 ] final   23.67 input  175.53 | X-H torsion
[ 8008 7997 7996 7995 ] final -150.53 input   59.86 | X-H torsion
[ 10167 10162 10161 10158 ] final  127.24 input  -65.29 | X-H torsion
[ 10718 10713 10712 10709 ] final  -26.60 input   66.30 | X-H torsion
[ 10763 10752 10751 10750 ] final  -62.16 input  -60.55 | X-H torsion
[ 11005 11000 10999 10996 ] final  126.75 input  -57.11 | X-H torsion

> <Gold.Protein.ActiveResidues>
 VAL166  LYS551  ARG553  GLY616  TRP617  ASP618  TYR619  PRO620  LYS621  CYS622 
 ASP623  PHE694  ASN695  SER759  ASP760  ASP761  ALA762  ILE779  LEU786  VAL792 
 PHE793  MET794  SER795  GLU796  ALA797  LYS798  CYS799  TRP800  GLU811  SER814 

> <Gold.Protein.RotatedAtoms>
  150.6917  134.3860  159.5054 H   0  0  0  0  0  0  0  0  0  0  0  0  # atno 6907 bound_to 6896
  152.1655  134.8874  160.0547 H   0  0  0  0  0  0  0  0  0  0  0  0  # atno 6908 bound_to 6896
  151.9920  133.3759  159.4185 H   0  0  0  0  0  0  0  0  0  0  0  0  # atno 6909 bound_to 6896
  146.1974  139.7712  142.8787 H   0  0  0  0  0  0  0  0  0  0  0  0  # atno 7974 bound_to 7965
  155.6250  140.0685  157.2666 H   0  0  0  0  0  0  0  0  0  0  0  0  # atno 8008 bound_to 7997
  154.4219  140.1777  156.1461 H   0  0  0  0  0  0  0  0  0  0  0  0  # atno 8009 bound_to 7997
  155.9978  140.3339  155.6819 H   0  0  0  0  0  0  0  0  0  0  0  0  # atno 8010 bound_to 7997
  139.5589  144.6868  151.4102 H   0  0  0  0  0  0  0  0  0  0  0  0  # atno 10167 bound_to 10162
  156.4491  130.4480  149.7002 H   0  0  0  0  0  0  0  0  0  0  0  0  # atno 10718 bound_to 10713
  154.2956  135.6245  153.5403 H   0  0  0  0  0  0  0  0  0  0  0  0  # atno 10763 bound_to 10752
  152.9847  135.5666  154.5341 H   0  0  0  0  0  0  0  0  0  0  0  0  # atno 10764 bound_to 10752
  154.4961  135.2869  155.1434 H   0  0  0  0  0  0  0  0  0  0  0  0  # atno 10765 bound_to 10752
  139.9472  134.9628  156.8753 H   0  0  0  0  0  0  0  0  0  0  0  0  # atno 11005 bound_to 11000
  145.3600  141.0324  143.3290 LP  0  0  0  0  0  0  0  0  0  0  0  0  # atno 17320 bound_to 7965
  144.8608  139.5180  143.6813 LP  0  0  0  0  0  0  0  0  0  0  0  0  # atno 17321 bound_to 7965
  140.6866  143.7960  150.7194 LP  0  0  0  0  0  0  0  0  0  0  0  0  # atno 17342 bound_to 10162
  140.1430  143.4425  152.2181 LP  0  0  0  0  0  0  0  0  0  0  0  0  # atno 17343 bound_to 10162
  156.3835  130.7591  151.2586 LP  0  0  0  0  0  0  0  0  0  0  0  0  # atno 17370 bound_to 10713
  157.7503  131.0288  150.4067 LP  0  0  0  0  0  0  0  0  0  0  0  0  # atno 17371 bound_to 10713
  140.5806  134.0356  155.7463 LP  0  0  0  0  0  0  0  0  0  0  0  0  # atno 17394 bound_to 11000
  141.1126  133.9593  157.2883 LP  0  0  0  0  0  0  0  0  0  0  0  0  # atno 17395 bound_to 11000

$$$$
