AV-unprocessed.smi:837|AV-procd|sdf|3901|dock3
  -GOLD-   22720 1363D 1   1.00000     0.00000
 Structure written by MMmdl.
 48 50  0  0  0  0  0  0  0  0  2 V2000
  150.1368  141.2042  155.9685 C   0  0  0  0  0  0  0  0  0  0  0  0
  151.1778  141.7624  156.9638 C   0  0  1  0  0  0  0  0  0  0  0  0
  150.5064  142.7840  157.9094 C   0  0  0  0  0  0  0  0  0  0  0  0
  151.5164  143.4271  158.8707 C   0  0  0  0  0  0  0  0  0  0  0  0
  152.2630  142.3640  159.6862 C   0  0  0  0  0  0  0  0  0  0  0  0
  152.9499  141.3430  158.7628 C   0  0  0  0  0  0  0  0  0  0  0  0
  151.9809  140.6730  157.7512 C   0  0  2  0  0  0  0  0  0  0  0  0
  152.7634  139.8600  156.8360 N   0  5  0  0  0  0  0  0  0  0  0  0
  152.4107  138.5617  156.9820 C   0  0  0  0  0  0  0  0  0  0  0  0
  152.8834  137.5988  156.3789 O   0  0  0  0  0  0  0  0  0  0  0  0
  151.4389  138.4259  157.9036 N   0  0  0  0  0  0  0  0  0  0  0  0
  150.8419  137.1486  158.3181 C   0  0  0  0  0  0  0  0  0  0  0  0
  149.3555  137.2570  158.6894 C   0  0  0  0  0  0  0  0  0  0  0  0
  148.5360  137.7489  157.9117 O   0  0  0  0  0  0  0  0  0  0  0  0
  149.0207  136.7781  159.8972 N   0  0  0  0  0  0  0  0  0  0  0  0
  147.6713  136.7727  160.4489 C   0  0  0  0  0  0  0  0  0  0  0  0
  147.6791  136.4951  161.9611 C   0  0  0  0  0  0  0  0  0  0  0  0
  146.3856  135.8571  162.4285 C   0  0  0  0  0  0  0  0  0  0  0  0
  146.3335  134.4858  162.7525 C   0  0  0  0  0  0  0  0  0  0  0  0
  145.1114  133.9379  163.1879 C   0  0  0  0  0  0  0  0  0  0  0  0
  143.9911  134.7878  163.2815 C   0  0  0  0  0  0  0  0  0  0  0  0
  144.0297  136.1026  162.9749 N   0  0  0  0  0  0  0  0  0  0  0  0
  145.2052  136.6199  162.5574 C   0  0  0  0  0  0  0  0  0  0  0  0
  151.1099  139.6135  158.4239 C   0  0  0  0  0  0  0  0  0  0  0  0
  150.2624  139.8355  159.2899 O   0  0  0  0  0  0  0  0  0  0  0  0
  149.3364  140.6660  156.4769 H   0  0  0  0  0  0  0  0  0  0  0  0
  150.5920  140.5237  155.2488 H   0  0  0  0  0  0  0  0  0  0  0  0
  149.6749  142.0104  155.3982 H   0  0  0  0  0  0  0  0  0  0  0  0
  151.9011  142.3210  156.3670 H   0  0  0  0  0  0  0  0  0  0  0  0
  150.0253  143.5674  157.3229 H   0  0  0  0  0  0  0  0  0  0  0  0
  149.7107  142.3057  158.4809 H   0  0  0  0  0  0  0  0  0  0  0  0
  152.2333  144.0215  158.3027 H   0  0  0  0  0  0  0  0  0  0  0  0
  151.0038  144.1175  159.5412 H   0  0  0  0  0  0  0  0  0  0  0  0
  153.0082  142.8431  160.3215 H   0  0  0  0  0  0  0  0  0  0  0  0
  151.5700  141.8609  160.3605 H   0  0  0  0  0  0  0  0  0  0  0  0
  153.7469  141.8521  158.2180 H   0  0  0  0  0  0  0  0  0  0  0  0
  153.4466  140.5867  159.3735 H   0  0  0  0  0  0  0  0  0  0  0  0
  150.9467  136.4123  157.5196 H   0  0  0  0  0  0  0  0  0  0  0  0
  151.3909  136.7402  159.1682 H   0  0  0  0  0  0  0  0  0  0  0  0
  149.7533  136.3893  160.4730 H   0  0  0  0  0  0  0  0  0  0  0  0
  147.1781  137.7229  160.2362 H   0  0  0  0  0  0  0  0  0  0  0  0
  147.0970  136.0029  159.9325 H   0  0  0  0  0  0  0  0  0  0  0  0
  148.5123  135.8390  162.2174 H   0  0  0  0  0  0  0  0  0  0  0  0
  147.8354  137.4210  162.5168 H   0  0  0  0  0  0  0  0  0  0  0  0
  147.2135  133.8646  162.6709 H   0  0  0  0  0  0  0  0  0  0  0  0
  145.0346  132.8916  163.4442 H   0  0  0  0  0  0  0  0  0  0  0  0
  143.0385  134.4010  163.6122 H   0  0  0  0  0  0  0  0  0  0  0  0
  145.2038  137.6740  162.3218 H   0  0  0  0  0  0  0  0  0  0  0  0
  1  2  1  0  0  0  0
  1 26  1  0  0  0  0
  1 27  1  0  0  0  0
  1 28  1  0  0  0  0
  2  7  1  0  0  0  0
  2  3  1  0  0  0  0
  2 29  1  0  0  0  0
  3  4  1  0  0  0  0
  3 30  1  0  0  0  0
  3 31  1  0  0  0  0
  4  5  1  0  0  0  0
  4 32  1  0  0  0  0
  4 33  1  0  0  0  0
  5  6  1  0  0  0  0
  5 34  1  0  0  0  0
  5 35  1  0  0  0  0
  6  7  1  0  0  0  0
  6 36  1  0  0  0  0
  6 37  1  0  0  0  0
  7 24  1  0  0  0  0
  7  8  1  0  0  0  0
  8  9  1  0  0  0  0
  9 10  2  0  0  0  0
  9 11  1  0  0  0  0
 11 12  1  0  0  0  0
 11 24  1  0  0  0  0
 12 13  1  0  0  0  0
 12 38  1  0  0  0  0
 12 39  1  0  0  0  0
 13 14  2  0  0  0  0
 13 15  1  0  0  0  0
 15 16  1  0  0  0  0
 15 40  1  0  0  0  0
 16 17  1  0  0  0  0
 16 41  1  0  0  0  0
 16 42  1  0  0  0  0
 17 18  1  0  0  0  0
 17 43  1  0  0  0  0
 17 44  1  0  0  0  0
 18 23  1  0  0  0  0
 18 19  2  0  0  0  0
 19 20  1  0  0  0  0
 19 45  1  0  0  0  0
 20 21  2  0  0  0  0
 20 46  1  0  0  0  0
 21 22  1  0  0  0  0
 21 47  1  0  0  0  0
 22 23  2  0  0  0  0
 23 48  1  0  0  0  0
 24 25  2  0  0  0  0
M  CHG  1   8  -1
M  END
> <s_m_source_file>
AV-unprocessed.smi

> <i_m_source_file_index>
837

> <i_lp_mmshare_version>
43012

> <i_f3d_flags>
0

> <s_epik_input>
W0NIMl0xW0NIMl1bQ0gyXVtDSDJdW0NAQEhdKFtDSDNdKVtDQEBdMTJbTkhdQyg9TylOKEMyPU8pW0NIMl1DKD1PKVtOSF1bQ0gyXVtDSDJdYzNbY0hdW2NIXVtjSF1uW2NIXTM=

> <s_epik_cmdline>
J2VwaWtfcHl0aG9uJywgJy1waCcsICc3LjAnLCAnLXRuJywgJzgnLCAnLW1hJywgJzIwMCcsICctbWV0YWxfYmluZGluZycsICctaW1hZScsICc8aW5maWxlLm1hZT4nLCAnLW9tYWUnLCAnPG91dGZpbGUubWFlPic=

> <r_lp_tautomer_probability>
1

> <r_epik_Ionization_Penalty>
6.03002

> <r_epik_Ionization_Penalty_Charging>
6.01728

> <r_epik_Ionization_Penalty_Neutral>
0.0127382

> <r_epik_State_Penalty>
6.02713

> <r_epik_Charging_Adjusted_Penalty>
12.0444

> <i_epik_Tot_Q>
-1

> <i_epik_Tot_abs_Q>
1

> <r_epik_Metal_State_Penalty>
1.99078

> <b_epik_Metal_Only>
1

> <s_lp_Force_Field>
OPLS_2005

> <r_lp_Energy>
14.5441

> <b_lp_Chiralities_Consistent>
1

> <s_lp_Variant>
AV-unprocessed.smi:837-10

> <Gold.Version>
5.8.1

> <Gold.Id.Protein>
6NUR|6NUR_protein|mol2

> <Gold.PLP.Fitness>
44.2695

> <Gold.PLP.PLP>
-39.8936

> <Gold.PLP.part.hbond>
-2.7321

> <Gold.PLP.part.metal>
0.0000

> <Gold.PLP.part.buried>
-2.1007

> <Gold.PLP.part.nonpolar>
-34.4770

> <Gold.PLP.part.repulsive>
0.2626

> <Gold.PLP.ligand.clash>
0.0000

> <Gold.PLP.ligand.torsion>
0.8269

> <Gold.PLP.Chemscore.Hbond>
2.0000

> <Gold.PLP.Chemscore.CHOScore>
0.0000

> <Gold.PLP.Chemscore.Metal>
0.0000

> <Gold.Chemscore.Hbonds>
donor molecule, donor type, donor heavy atom, donor atom, acceptor molecule, acceptor atom, score
      P1  H  7997  8008       L1     8  2.00

> <Gold.PLP.Chemscore.Internal.Correction>
0.0296

> <Gold.Rescore>
     Score         DG    S(hbond)    S(metal)    S(lipo)     H(rot)  DE(clash)    DE(int)     intcor
     13.75     -16.92       0.91        0.00     111.24       1.81       1.11       2.06       ----

> <Gold.Chemscore.Fitness>
13.7513

> <Gold.Chemscore.DG>
-16.9189

> <Gold.Chemscore.ZeroCoef>
-5.4800

> <Gold.Chemscore.Hbond>
0.9147

> <Gold.Chemscore.Metal>
0.0000

> <Gold.Chemscore.Lipo>
111.2379

> <Gold.Chemscore.Internal_Hbond>
0.0000

> <Gold.Chemscore.DEClash>
1.1090

> <Gold.Chemscore.DEInternal>
2.0586

> <Gold.Chemscore.Rot>
1.8090

> <Gold.Chemscore.Internal.Correction>
   9.000000E+99

> <Gold.Chemscore.Hbonds>
donor molecule, donor type, donor heavy atom, donor atom, acceptor molecule, acceptor atom, score
      P1  H  7997  8008       L1     8  0.87

> <Gold.Chemscore.Hbond.Weighted>
-3.0551

> <Gold.Chemscore.Metal.Weighted>
-0.0000

> <Gold.Chemscore.Lipo.Weighted>
-13.0148

> <Gold.Chemscore.Internal_Hbond.Weighted>
0.0000

> <Gold.Chemscore.DEClash.Weighted>
1.1090

> <Gold.Chemscore.DEInternal.Weighted>
2.0586

> <Gold.Chemscore.Rot.Weighted>
4.6310

> <Gold.Chemscore.Internal.Correction.Weighted>
   9.000000E+99

> <Gold.Protein.RotatedTorsions>
[ 6907 6896 6895 6894 ] final -133.86 input  -60.11 | X-H torsion
[ 7974 7965 7964 7962 ] final   50.14 input  175.53 | X-H torsion
[ 8008 7997 7996 7995 ] final  -58.24 input   59.86 | X-H torsion
[ 10167 10162 10161 10158 ] final   -1.43 input  -65.29 | X-H torsion
[ 10718 10713 10712 10709 ] final    9.77 input   66.30 | X-H torsion
[ 10763 10752 10751 10750 ] final   25.69 input  -60.55 | X-H torsion
[ 11005 11000 10999 10996 ] final  159.07 input  -57.11 | X-H torsion

> <Gold.Protein.ActiveResidues>
 VAL166  LYS551  ARG553  GLY616  TRP617  ASP618  TYR619  PRO620  LYS621  CYS622 
 ASP623  PHE694  ASN695  SER759  ASP760  ASP761  ALA762  ILE779  LEU786  VAL792 
 PHE793  MET794  SER795  GLU796  ALA797  LYS798  CYS799  TRP800  GLU811  SER814 

> <Gold.Protein.RotatedAtoms>
  150.9790  133.6265  159.2725 H   0  0  0  0  0  0  0  0  0  0  0  0  # atno 6907 bound_to 6896
  151.3527  135.0887  159.9418 H   0  0  0  0  0  0  0  0  0  0  0  0  # atno 6908 bound_to 6896
  152.5209  133.9379  159.7666 H   0  0  0  0  0  0  0  0  0  0  0  0  # atno 6909 bound_to 6896
  146.0041  139.4471  142.9997 H   0  0  0  0  0  0  0  0  0  0  0  0  # atno 7974 bound_to 7965
  154.4300  140.1088  156.5925 H   0  0  0  0  0  0  0  0  0  0  0  0  # atno 8008 bound_to 7997
  155.5997  140.3493  155.4571 H   0  0  0  0  0  0  0  0  0  0  0  0  # atno 8009 bound_to 7997
  156.0183  140.1234  157.0373 H   0  0  0  0  0  0  0  0  0  0  0  0  # atno 8010 bound_to 7997
  140.6809  143.6777  150.8132 H   0  0  0  0  0  0  0  0  0  0  0  0  # atno 10167 bound_to 10162
  156.9712  130.5970  149.5669 H   0  0  0  0  0  0  0  0  0  0  0  0  # atno 10718 bound_to 10713
  153.0674  135.6577  154.0324 H   0  0  0  0  0  0  0  0  0  0  0  0  # atno 10763 bound_to 10752
  153.9978  135.2940  155.3407 H   0  0  0  0  0  0  0  0  0  0  0  0  # atno 10764 bound_to 10752
  154.7036  135.5234  153.8632 H   0  0  0  0  0  0  0  0  0  0  0  0  # atno 10765 bound_to 10752
  140.1927  134.8396  157.2930 H   0  0  0  0  0  0  0  0  0  0  0  0  # atno 11005 bound_to 11000
  145.7443  140.9996  143.1284 LP  0  0  0  0  0  0  0  0  0  0  0  0  # atno 17320 bound_to 7965
  144.6929  139.9136  143.7464 LP  0  0  0  0  0  0  0  0  0  0  0  0  # atno 17321 bound_to 7965
  140.0477  143.5281  152.2688 LP  0  0  0  0  0  0  0  0  0  0  0  0  # atno 17342 bound_to 10162
  139.6132  144.7613  151.2905 LP  0  0  0  0  0  0  0  0  0  0  0  0  # atno 17343 bound_to 10162
  156.0282  130.5375  150.8463 LP  0  0  0  0  0  0  0  0  0  0  0  0  # atno 17370 bound_to 10713
  157.5591  131.0945  150.9585 LP  0  0  0  0  0  0  0  0  0  0  0  0  # atno 17371 bound_to 10713
  140.2142  134.4101  155.7597 LP  0  0  0  0  0  0  0  0  0  0  0  0  # atno 17394 bound_to 11000
  141.2226  133.7133  156.8387 LP  0  0  0  0  0  0  0  0  0  0  0  0  # atno 17395 bound_to 11000

$$$$
