AV-unprocessed.smi:3132|AV-procd|sdf|11930|dock9
  -GOLD-   2272017313D 1   1.00000     0.00000
 Structure written by MMmdl.
 34 35  0  0  0  0  0  0  0  0  2 V2000
  153.3432  140.0182  159.6204 C   0  0  0  0  0  0  0  0  0  0  0  0
  152.3673  141.0836  159.1039 C   0  0  1  0  0  0  0  0  0  0  0  0
  152.9712  142.4998  159.2290 C   0  0  0  0  0  0  0  0  0  0  0  0
  151.9570  143.5587  159.2650 N   0  0  0  0  0  0  0  0  0  0  0  0
  151.7572  144.4878  160.2540 C   0  0  0  0  0  0  0  0  0  0  0  0
  150.7097  145.2730  159.8460 C   0  0  0  0  0  0  0  0  0  0  0  0
  150.3110  144.7863  158.6300 N   0  3  0  0  0  0  0  0  0  0  0  0
  151.0671  143.7405  158.2810 C   0  0  0  0  0  0  0  0  0  0  0  0
  152.0246  140.7743  157.7164 N   0  0  0  0  0  0  0  0  0  0  0  0
  150.8062  140.4399  157.2622 C   0  0  0  0  0  0  0  0  0  0  0  0
  149.8110  140.3755  157.9854 O   0  0  0  0  0  0  0  0  0  0  0  0
  150.7034  140.1303  155.7614 C   0  0  2  0  0  0  0  0  0  0  0  0
  150.2065  138.7025  155.4576 C   0  0  0  0  0  0  0  0  0  0  0  0
  151.3226  138.0852  154.6327 C   0  0  0  0  0  0  0  0  0  0  0  0
  152.5384  138.9026  155.0431 C   0  0  0  0  0  0  0  0  0  0  0  0
  152.0057  140.2115  155.1843 O   0  0  0  0  0  0  0  0  0  0  0  0
  153.5945  140.1908  160.6671 H   0  0  0  0  0  0  0  0  0  0  0  0
  154.2730  140.0205  159.0503 H   0  0  0  0  0  0  0  0  0  0  0  0
  152.9098  139.0198  159.5482 H   0  0  0  0  0  0  0  0  0  0  0  0
  151.4708  141.0231  159.7238 H   0  0  0  0  0  0  0  0  0  0  0  0
  153.5566  142.5833  160.1457 H   0  0  0  0  0  0  0  0  0  0  0  0
  153.6511  142.7066  158.4012 H   0  0  0  0  0  0  0  0  0  0  0  0
  152.3637  144.5248  161.1472 H   0  0  0  0  0  0  0  0  0  0  0  0
  150.2309  146.1192  160.3170 H   0  0  0  0  0  0  0  0  0  0  0  0
  150.9826  143.1635  157.3773 H   0  0  0  0  0  0  0  0  0  0  0  0
  152.7822  140.7941  157.0486 H   0  0  0  0  0  0  0  0  0  0  0  0
  150.0661  140.8676  155.2707 H   0  0  0  0  0  0  0  0  0  0  0  0
  150.0452  138.1198  156.3658 H   0  0  0  0  0  0  0  0  0  0  0  0
  149.2645  138.7085  154.9080 H   0  0  0  0  0  0  0  0  0  0  0  0
  151.4474  137.0171  154.8116 H   0  0  0  0  0  0  0  0  0  0  0  0
  151.1233  138.2314  153.5702 H   0  0  0  0  0  0  0  0  0  0  0  0
  152.9381  138.5570  155.9975 H   0  0  0  0  0  0  0  0  0  0  0  0
  153.3383  138.8718  154.3032 H   0  0  0  0  0  0  0  0  0  0  0  0
  149.5551  145.1628  158.0717 H   0  0  0  0  0  0  0  0  0  0  0  0
  1  2  1  0  0  0  0
  1 17  1  0  0  0  0
  1 18  1  0  0  0  0
  1 19  1  0  0  0  0
  2  3  1  0  0  0  0
  2  9  1  0  0  0  0
  2 20  1  0  0  0  0
  3  4  1  0  0  0  0
  3 21  1  0  0  0  0
  3 22  1  0  0  0  0
  4  8  1  0  0  0  0
  4  5  1  0  0  0  0
  5  6  2  0  0  0  0
  5 23  1  0  0  0  0
  6  7  1  0  0  0  0
  6 24  1  0  0  0  0
  7  8  2  0  0  0  0
  7 34  1  0  0  0  0
  8 25  1  0  0  0  0
  9 10  1  0  0  0  0
  9 26  1  0  0  0  0
 10 11  2  0  0  0  0
 10 12  1  0  0  0  0
 12 16  1  0  0  0  0
 12 13  1  0  0  0  0
 12 27  1  0  0  0  0
 13 14  1  0  0  0  0
 13 28  1  0  0  0  0
 13 29  1  0  0  0  0
 14 15  1  0  0  0  0
 14 30  1  0  0  0  0
 14 31  1  0  0  0  0
 15 16  1  0  0  0  0
 15 32  1  0  0  0  0
 15 33  1  0  0  0  0
M  CHG  1   7   1
M  END
> <s_m_source_file>
AV-unprocessed.smi

> <i_m_source_file_index>
3132

> <i_lp_mmshare_version>
43012

> <i_f3d_flags>
0

> <s_epik_input>
W2NIXTFuW2NIXVtjSF1uMVtDSDJdW0NAQEhdKFtDSDNdKVtOSF1DKD1PKVtDQEBIXTJbQ0gyXVtDSDJdW0NIMl1PMg==

> <s_epik_cmdline>
J2VwaWtfcHl0aG9uJywgJy1waCcsICc3LjAnLCAnLXRuJywgJzgnLCAnLW1hJywgJzIwMCcsICctbWV0YWxfYmluZGluZycsICctaW1hZScsICc8aW5maWxlLm1hZT4nLCAnLW9tYWUnLCAnPG91dGZpbGUubWFlPic=

> <r_lp_tautomer_probability>
1

> <r_epik_Ionization_Penalty>
0.250802

> <r_epik_Ionization_Penalty_Charging>
0

> <r_epik_Ionization_Penalty_Neutral>
0.250802

> <r_epik_State_Penalty>
0.242139

> <r_epik_Charging_Adjusted_Penalty>
0.242139

> <i_epik_Tot_Q>
1

> <i_epik_Tot_abs_Q>
1

> <r_epik_Metal_State_Penalty>
0.533361

> <b_epik_Metal_Only>
0

> <s_lp_Force_Field>
OPLS_2005

> <r_lp_Energy>
21.4246

> <b_lp_Chiralities_Consistent>
1

> <s_lp_Variant>
AV-unprocessed.smi:3132-2

> <Gold.Version>
5.8.1

> <Gold.Id.Protein>
6NUR|6NUR_protein|mol2

> <Gold.PLP.Fitness>
43.3674

> <Gold.PLP.PLP>
-35.4938

> <Gold.PLP.part.hbond>
-2.2036

> <Gold.PLP.part.metal>
0.0000

> <Gold.PLP.part.buried>
-5.8842

> <Gold.PLP.part.nonpolar>
-29.3187

> <Gold.PLP.part.repulsive>
0.2827

> <Gold.PLP.ligand.clash>
0.0000

> <Gold.PLP.ligand.torsion>
0.2459

> <Gold.PLP.Chemscore.Hbond>
2.7840

> <Gold.PLP.Chemscore.CHOScore>
0.0000

> <Gold.PLP.Chemscore.Metal>
0.0000

> <Gold.Chemscore.Hbonds>
donor molecule, donor type, donor heavy atom, donor atom, acceptor molecule, acceptor atom, score
      L1  H     7    34       P1  8029  2.00
      P1  H  7989  7998       L1    16  0.77

> <Gold.PLP.Chemscore.Internal.Correction>
0.0134

> <Gold.Rescore>
     Score         DG    S(hbond)    S(metal)    S(lipo)     H(rot)  DE(clash)    DE(int)     intcor
     14.04     -14.45       1.58        0.00      73.87       1.93       0.04       0.37       ----

> <Gold.Chemscore.Fitness>
14.0433

> <Gold.Chemscore.DG>
-14.4520

> <Gold.Chemscore.ZeroCoef>
-5.4800

> <Gold.Chemscore.Hbond>
1.5785

> <Gold.Chemscore.Metal>
0.0000

> <Gold.Chemscore.Lipo>
73.8694

> <Gold.Chemscore.Internal_Hbond>
0.0000

> <Gold.Chemscore.DEClash>
0.0383

> <Gold.Chemscore.DEInternal>
0.3704

> <Gold.Chemscore.Rot>
1.9308

> <Gold.Chemscore.Internal.Correction>
   9.000000E+99

> <Gold.Chemscore.Hbonds>
donor molecule, donor type, donor heavy atom, donor atom, acceptor molecule, acceptor atom, score
      L1  H     7    34       P1  8029  0.25
      P1  H  7989  7998       L1    16  0.20

> <Gold.Chemscore.Hbond.Weighted>
-5.2722

> <Gold.Chemscore.Metal.Weighted>
-0.0000

> <Gold.Chemscore.Lipo.Weighted>
-8.6427

> <Gold.Chemscore.Internal_Hbond.Weighted>
0.0000

> <Gold.Chemscore.DEClash.Weighted>
0.0383

> <Gold.Chemscore.DEInternal.Weighted>
0.3704

> <Gold.Chemscore.Rot.Weighted>
4.9429

> <Gold.Chemscore.Internal.Correction.Weighted>
   9.000000E+99

> <Gold.Protein.RotatedTorsions>
[ 6907 6896 6895 6894 ] final  153.51 input  -60.11 | X-H torsion
[ 7974 7965 7964 7962 ] final  131.64 input  175.53 | X-H torsion
[ 8008 7997 7996 7995 ] final  -17.30 input   59.86 | X-H torsion
[ 10167 10162 10161 10158 ] final  121.63 input  -65.29 | X-H torsion
[ 10718 10713 10712 10709 ] final   81.91 input   66.30 | X-H torsion
[ 10763 10752 10751 10750 ] final  169.78 input  -60.55 | X-H torsion
[ 11005 11000 10999 10996 ] final   10.51 input  -57.11 | X-H torsion

> <Gold.Protein.ActiveResidues>
 VAL166  LYS551  ARG553  GLY616  TRP617  ASP618  TYR619  PRO620  LYS621  CYS622 
 ASP623  PHE694  ASN695  SER759  ASP760  ASP761  ALA762  ILE779  LEU786  VAL792 
 PHE793  MET794  SER795  GLU796  ALA797  LYS798  CYS799  TRP800  GLU811  SER814 

> <Gold.Protein.RotatedAtoms>
  152.0717  133.4110  159.4461 H   0  0  0  0  0  0  0  0  0  0  0  0  # atno 6907 bound_to 6896
  150.6863  134.3084  159.4745 H   0  0  0  0  0  0  0  0  0  0  0  0  # atno 6908 bound_to 6896
  152.0916  134.9402  160.0622 H   0  0  0  0  0  0  0  0  0  0  0  0  # atno 6909 bound_to 6896
  145.0051  139.4274  143.5272 H   0  0  0  0  0  0  0  0  0  0  0  0  # atno 7974 bound_to 7965
  154.4988  140.2146  155.9389 H   0  0  0  0  0  0  0  0  0  0  0  0  # atno 8008 bound_to 7997
  156.1407  140.3180  155.8458 H   0  0  0  0  0  0  0  0  0  0  0  0  # atno 8009 bound_to 7997
  155.4126  140.0491  157.3021 H   0  0  0  0  0  0  0  0  0  0  0  0  # atno 8010 bound_to 7997
  139.5908  144.7024  151.3296 H   0  0  0  0  0  0  0  0  0  0  0  0  # atno 10167 bound_to 10162
  157.6844  131.0025  150.2297 H   0  0  0  0  0  0  0  0  0  0  0  0  # atno 10718 bound_to 10713
  154.3880  135.2754  155.2171 H   0  0  0  0  0  0  0  0  0  0  0  0  # atno 10763 bound_to 10752
  154.4250  135.5991  153.6036 H   0  0  0  0  0  0  0  0  0  0  0  0  # atno 10764 bound_to 10752
  152.9832  135.5981  154.4132 H   0  0  0  0  0  0  0  0  0  0  0  0  # atno 10765 bound_to 10752
  140.5137  134.0627  155.7825 H   0  0  0  0  0  0  0  0  0  0  0  0  # atno 11005 bound_to 11000
  146.3459  139.9463  142.8734 LP  0  0  0  0  0  0  0  0  0  0  0  0  # atno 17320 bound_to 7965
  145.2099  140.9891  143.4107 LP  0  0  0  0  0  0  0  0  0  0  0  0  # atno 17321 bound_to 7965
  140.7171  143.7237  150.7676 LP  0  0  0  0  0  0  0  0  0  0  0  0  # atno 17342 bound_to 10162
  140.0792  143.4985  152.2539 LP  0  0  0  0  0  0  0  0  0  0  0  0  # atno 17343 bound_to 10162
  156.2932  130.3748  149.7821 LP  0  0  0  0  0  0  0  0  0  0  0  0  # atno 17370 bound_to 10713
  156.5474  130.8327  151.3289 LP  0  0  0  0  0  0  0  0  0  0  0  0  # atno 17371 bound_to 10713
  141.1372  133.9202  157.2408 LP  0  0  0  0  0  0  0  0  0  0  0  0  # atno 17394 bound_to 11000
  139.9644  135.0146  156.9348 LP  0  0  0  0  0  0  0  0  0  0  0  0  # atno 17395 bound_to 11000

$$$$
