AV-unprocessed.smi:3083|AV-procd|sdf|11745|dock2
  -GOLD-   2272017133D 1   1.00000     0.00000
 Structure written by MMmdl.
 28 29  0  0  0  0  0  0  0  0  2 V2000
  149.1373  138.6434  153.3888 N   0  3  0  0  0  0  0  0  0  0  0  0
  148.0796  139.6051  153.7515 C   0  0  1  0  0  0  0  0  0  0  0  0
  147.1719  139.0400  154.8666 C   0  0  0  0  0  0  0  0  0  0  0  0
  146.0878  140.0481  155.2802 C   0  0  0  0  0  0  0  0  0  0  0  0
  146.6954  141.4050  155.6673 C   0  0  0  0  0  0  0  0  0  0  0  0
  147.5418  141.9763  154.5173 C   0  0  0  0  0  0  0  0  0  0  0  0
  148.6616  141.0132  154.0682 C   0  0  1  0  0  0  0  0  0  0  0  0
  149.7894  141.0337  155.0030 N   0  0  0  0  0  0  0  0  0  0  0  0
  149.9293  141.8367  156.1177 C   0  0  0  0  0  0  0  0  0  0  0  0
  151.1051  141.5038  156.7261 C   0  0  0  0  0  0  0  0  0  0  0  0
  151.6188  140.4569  155.9133 C   0  0  0  0  0  0  0  0  0  0  0  0
  150.8284  140.1751  154.8911 N   0  0  0  0  0  0  0  0  0  0  0  0
  149.6500  138.3853  154.2204 H   0  0  0  0  0  0  0  0  0  0  0  0
  149.7677  139.0676  152.7236 H   0  0  0  0  0  0  0  0  0  0  0  0
  147.4569  139.7103  152.8619 H   0  0  0  0  0  0  0  0  0  0  0  0
  146.6945  138.1221  154.5217 H   0  0  0  0  0  0  0  0  0  0  0  0
  147.7543  138.7557  155.7419 H   0  0  0  0  0  0  0  0  0  0  0  0
  145.3861  140.1870  154.4566 H   0  0  0  0  0  0  0  0  0  0  0  0
  145.5087  139.6488  156.1134 H   0  0  0  0  0  0  0  0  0  0  0  0
  145.8993  142.1057  155.9209 H   0  0  0  0  0  0  0  0  0  0  0  0
  147.3037  141.2978  156.5658 H   0  0  0  0  0  0  0  0  0  0  0  0
  146.8869  142.1806  153.6692 H   0  0  0  0  0  0  0  0  0  0  0  0
  147.9645  142.9389  154.8079 H   0  0  0  0  0  0  0  0  0  0  0  0
  149.0575  141.4059  153.1301 H   0  0  0  0  0  0  0  0  0  0  0  0
  149.1859  142.5734  156.3847 H   0  0  0  0  0  0  0  0  0  0  0  0
  151.5287  141.9361  157.6207 H   0  0  0  0  0  0  0  0  0  0  0  0
  152.5331  139.8953  156.0364 H   0  0  0  0  0  0  0  0  0  0  0  0
  148.7202  137.8190  152.9810 H   0  0  0  0  0  0  0  0  0  0  0  0
  1  2  1  0  0  0  0
  1 13  1  0  0  0  0
  1 14  1  0  0  0  0
  1 28  1  0  0  0  0
  2  7  1  0  0  0  0
  2  3  1  0  0  0  0
  2 15  1  0  0  0  0
  3  4  1  0  0  0  0
  3 16  1  0  0  0  0
  3 17  1  0  0  0  0
  4  5  1  0  0  0  0
  4 18  1  0  0  0  0
  4 19  1  0  0  0  0
  5  6  1  0  0  0  0
  5 20  1  0  0  0  0
  5 21  1  0  0  0  0
  6  7  1  0  0  0  0
  6 22  1  0  0  0  0
  6 23  1  0  0  0  0
  7  8  1  0  0  0  0
  7 24  1  0  0  0  0
  8 12  1  0  0  0  0
  8  9  1  0  0  0  0
  9 10  2  0  0  0  0
  9 25  1  0  0  0  0
 10 11  1  0  0  0  0
 10 26  1  0  0  0  0
 11 12  2  0  0  0  0
 11 27  1  0  0  0  0
M  CHG  1   1   1
M  END
> <s_m_source_file>
AV-unprocessed.smi

> <i_m_source_file_index>
3083

> <i_lp_mmshare_version>
43012

> <i_f3d_flags>
0

> <s_epik_input>
W05IMl1bQ0BASF0xW0NIMl1bQ0gyXVtDSDJdW0NIMl1bQ0BIXTFuMltjSF1bY0hdW2NIXW4y

> <s_epik_cmdline>
J2VwaWtfcHl0aG9uJywgJy1waCcsICc3LjAnLCAnLXRuJywgJzgnLCAnLW1hJywgJzIwMCcsICctbWV0YWxfYmluZGluZycsICctaW1hZScsICc8aW5maWxlLm1hZT4nLCAnLW9tYWUnLCAnPG91dGZpbGUubWFlPic=

> <r_lp_tautomer_probability>
1

> <r_epik_Ionization_Penalty>
0.00385053

> <r_epik_Ionization_Penalty_Charging>
0.0038389

> <r_epik_Ionization_Penalty_Neutral>
1.16305e-05

> <r_epik_State_Penalty>
-0

> <r_epik_Charging_Adjusted_Penalty>
0.0038389

> <i_epik_Tot_Q>
1

> <i_epik_Tot_abs_Q>
1

> <r_epik_Metal_State_Penalty>
-0

> <b_epik_Metal_Only>
0

> <s_lp_Force_Field>
OPLS_2005

> <r_lp_Energy>
16.3847

> <b_lp_Chiralities_Consistent>
1

> <s_lp_Variant>
AV-unprocessed.smi:3083-2

> <Gold.Version>
5.8.1

> <Gold.Id.Protein>
6NUR|6NUR_protein|mol2

> <Gold.PLP.Fitness>
36.2094

> <Gold.PLP.PLP>
-22.4741

> <Gold.PLP.part.hbond>
-3.0000

> <Gold.PLP.part.metal>
0.0000

> <Gold.PLP.part.buried>
1.0066

> <Gold.PLP.part.nonpolar>
-18.8840

> <Gold.PLP.part.repulsive>
0.1425

> <Gold.PLP.ligand.clash>
0.0000

> <Gold.PLP.ligand.torsion>
0.1654

> <Gold.PLP.Chemscore.Hbond>
3.6880

> <Gold.PLP.Chemscore.CHOScore>
0.9791

> <Gold.PLP.Chemscore.Metal>
0.0000

> <Gold.Chemscore.Hbonds>
donor molecule, donor type, donor heavy atom, donor atom, acceptor molecule, acceptor atom, score
      L1  H     1    14       P1  7957  0.74
      L1  H     1    28       P1  7948  1.86
      P1  H  7989  7998       L1    12  0.95
      L1  C     9    25       P1  8028  1.00

> <Gold.PLP.Chemscore.Internal.Correction>
0.0648

> <Gold.Rescore>
     Score         DG    S(hbond)    S(metal)    S(lipo)     H(rot)  DE(clash)    DE(int)     intcor
     14.73     -16.21       2.52        0.00      41.65       1.00       0.04       1.43       ----

> <Gold.Chemscore.Fitness>
14.7304

> <Gold.Chemscore.DG>
-16.2050

> <Gold.Chemscore.ZeroCoef>
-5.4800

> <Gold.Chemscore.Hbond>
2.5185

> <Gold.Chemscore.Metal>
0.0000

> <Gold.Chemscore.Lipo>
41.6511

> <Gold.Chemscore.Internal_Hbond>
0.0000

> <Gold.Chemscore.DEClash>
0.0402

> <Gold.Chemscore.DEInternal>
1.4344

> <Gold.Chemscore.Rot>
1.0000

> <Gold.Chemscore.Internal.Correction>
   9.000000E+99

> <Gold.Chemscore.Hbonds>
donor molecule, donor type, donor heavy atom, donor atom, acceptor molecule, acceptor atom, score
      L1  H     1    14       P1  7957  0.67
      L1  H     1    28       P1  7948  0.89
      P1  H  7989  7998       L1    12  0.11

> <Gold.Chemscore.Hbond.Weighted>
-8.4118

> <Gold.Chemscore.Metal.Weighted>
-0.0000

> <Gold.Chemscore.Lipo.Weighted>
-4.8732

> <Gold.Chemscore.Internal_Hbond.Weighted>
0.0000

> <Gold.Chemscore.DEClash.Weighted>
0.0402

> <Gold.Chemscore.DEInternal.Weighted>
1.4344

> <Gold.Chemscore.Rot.Weighted>
2.5600

> <Gold.Chemscore.Internal.Correction.Weighted>
   9.000000E+99

> <Gold.Protein.RotatedTorsions>
[ 6907 6896 6895 6894 ] final  -96.65 input  -60.11 | X-H torsion
[ 7974 7965 7964 7962 ] final  -69.10 input  175.53 | X-H torsion
[ 8008 7997 7996 7995 ] final  145.20 input   59.86 | X-H torsion
[ 10167 10162 10161 10158 ] final  166.60 input  -65.29 | X-H torsion
[ 10718 10713 10712 10709 ] final  102.69 input   66.30 | X-H torsion
[ 10763 10752 10751 10750 ] final   49.03 input  -60.55 | X-H torsion
[ 11005 11000 10999 10996 ] final  145.75 input  -57.11 | X-H torsion

> <Gold.Protein.ActiveResidues>
 VAL166  LYS551  ARG553  GLY616  TRP617  ASP618  TYR619  PRO620  LYS621  CYS622 
 ASP623  PHE694  ASN695  SER759  ASP760  ASP761  ALA762  ILE779  LEU786  VAL792 
 PHE793  MET794  SER795  GLU796  ALA797  LYS798  CYS799  TRP800  GLU811  SER814 

> <Gold.Protein.RotatedAtoms>
  150.6994  134.1471  159.4126 H   0  0  0  0  0  0  0  0  0  0  0  0  # atno 6907 bound_to 6896
  151.9454  135.0191  160.0548 H   0  0  0  0  0  0  0  0  0  0  0  0  # atno 6908 bound_to 6896
  152.2057  133.4839  159.5119 H   0  0  0  0  0  0  0  0  0  0  0  0  # atno 6909 bound_to 6896
  145.7081  140.9090  143.0695 H   0  0  0  0  0  0  0  0  0  0  0  0  # atno 7974 bound_to 7965
  156.2889  140.2215  156.5177 H   0  0  0  0  0  0  0  0  0  0  0  0  # atno 8008 bound_to 7997
  154.7555  140.0477  157.0951 H   0  0  0  0  0  0  0  0  0  0  0  0  # atno 8009 bound_to 7997
  155.0056  140.3107  155.4853 H   0  0  0  0  0  0  0  0  0  0  0  0  # atno 8010 bound_to 7997
  139.4928  144.4010  151.9409 H   0  0  0  0  0  0  0  0  0  0  0  0  # atno 10167 bound_to 10162
  157.6795  131.0759  150.5443 H   0  0  0  0  0  0  0  0  0  0  0  0  # atno 10718 bound_to 10713
  152.9788  135.5925  154.4022 H   0  0  0  0  0  0  0  0  0  0  0  0  # atno 10763 bound_to 10752
  154.3666  135.2767  155.2292 H   0  0  0  0  0  0  0  0  0  0  0  0  # atno 10764 bound_to 10752
  154.4265  135.6046  153.6097 H   0  0  0  0  0  0  0  0  0  0  0  0  # atno 10765 bound_to 10752
  140.0737  134.9137  157.1388 H   0  0  0  0  0  0  0  0  0  0  0  0  # atno 11005 bound_to 11000
  144.6949  139.9037  143.7460 LP  0  0  0  0  0  0  0  0  0  0  0  0  # atno 17320 bound_to 7965
  146.0738  139.3726  143.0507 LP  0  0  0  0  0  0  0  0  0  0  0  0  # atno 17321 bound_to 7965
  140.3449  144.3158  150.5960 LP  0  0  0  0  0  0  0  0  0  0  0  0  # atno 17342 bound_to 10162
  140.5534  143.2203  151.7888 LP  0  0  0  0  0  0  0  0  0  0  0  0  # atno 17343 bound_to 10162
  156.5749  130.4289  149.6003 LP  0  0  0  0  0  0  0  0  0  0  0  0  # atno 17370 bound_to 10713
  156.2710  130.7017  151.1814 LP  0  0  0  0  0  0  0  0  0  0  0  0  # atno 17371 bound_to 10713
  140.3589  134.2516  155.7189 LP  0  0  0  0  0  0  0  0  0  0  0  0  # atno 17394 bound_to 11000
  141.2021  133.7945  157.0405 LP  0  0  0  0  0  0  0  0  0  0  0  0  # atno 17395 bound_to 11000

$$$$
