AV-unprocessed.smi:1611|AV-procd|sdf|6474|dock9
  -GOLD-   22720 7133D 1   1.00000     0.00000
 Structure written by MMmdl.
 48 49  0  0  0  0  0  0  0  0  1 V2000
  151.8459  143.7083  158.5081 C   0  0  0  0  0  0  0  0  0  0  0  0
  152.4308  142.4096  159.0360 C   0  0  0  0  0  0  0  0  0  0  0  0
  153.4561  142.4658  160.0018 C   0  0  0  0  0  0  0  0  0  0  0  0
  154.0150  141.2832  160.5167 C   0  0  0  0  0  0  0  0  0  0  0  0
  153.5596  140.0297  160.0646 C   0  0  0  0  0  0  0  0  0  0  0  0
  154.1676  138.7612  160.6344 C   0  0  0  0  0  0  0  0  0  0  0  0
  152.5439  139.9626  159.0833 C   0  0  0  0  0  0  0  0  0  0  0  0
  152.1139  138.7365  158.6451 O   0  0  0  0  0  0  0  0  0  0  0  0
  150.8494  138.3572  159.1692 C   0  0  0  0  0  0  0  0  0  0  0  0
  150.1811  137.3748  158.1937 C   0  0  2  0  0  0  0  0  0  0  0  0
  150.4027  137.8678  156.8869 O   0  0  0  0  0  0  0  0  0  0  0  0
  148.6547  137.2927  158.4151 C   0  0  0  0  0  0  0  0  0  0  0  0
  148.3049  136.3797  159.5106 N   0  0  0  0  0  0  0  0  0  0  0  0
  147.8004  137.0138  160.6285 N   0  0  0  0  0  0  0  0  0  0  0  0
  147.4405  136.3474  161.6760 C   0  0  0  0  0  0  0  0  0  0  0  0
  146.9061  137.1453  162.8349 C   0  0  0  0  0  0  0  0  0  0  0  0
  147.5659  134.8934  161.6862 C   0  0  0  0  0  0  0  0  0  0  0  0
  147.1259  134.1618  162.9472 C   0  0  0  0  0  0  0  0  0  0  0  0
  148.0662  134.2824  160.5832 C   0  0  0  0  0  0  0  0  0  0  0  0
  148.2308  132.8668  160.5036 C   0  0  0  0  0  0  0  0  0  0  0  0
  148.3544  131.7167  160.4573 N   0  0  0  0  0  0  0  0  0  0  0  0
  148.4741  135.0315  159.3925 C   0  0  0  0  0  0  0  0  0  0  0  0
  148.9242  134.5071  158.3726 O   0  0  0  0  0  0  0  0  0  0  0  0
  151.9625  141.1527  158.5777 C   0  0  0  0  0  0  0  0  0  0  0  0
  150.8436  141.0813  157.5471 C   0  0  0  0  0  0  0  0  0  0  0  0
  152.4159  144.5705  158.8552 H   0  0  0  0  0  0  0  0  0  0  0  0
  150.8172  143.8267  158.8492 H   0  0  0  0  0  0  0  0  0  0  0  0
  151.8548  143.7217  157.4180 H   0  0  0  0  0  0  0  0  0  0  0  0
  153.8170  143.4198  160.3577 H   0  0  0  0  0  0  0  0  0  0  0  0
  154.7954  141.3430  161.2611 H   0  0  0  0  0  0  0  0  0  0  0  0
  153.3945  138.0207  160.8415 H   0  0  0  0  0  0  0  0  0  0  0  0
  154.6961  138.9612  161.5668 H   0  0  0  0  0  0  0  0  0  0  0  0
  154.8759  138.3308  159.9265 H   0  0  0  0  0  0  0  0  0  0  0  0
  151.0176  137.8684  160.1299 H   0  0  0  0  0  0  0  0  0  0  0  0
  150.2098  139.2206  159.3620 H   0  0  0  0  0  0  0  0  0  0  0  0
  150.6370  136.3899  158.3032 H   0  0  0  0  0  0  0  0  0  0  0  0
  150.3798  137.1396  156.2852 H   0  0  0  0  0  0  0  0  0  0  0  0
  148.2592  138.2820  158.6521 H   0  0  0  0  0  0  0  0  0  0  0  0
  148.1490  137.0069  157.4903 H   0  0  0  0  0  0  0  0  0  0  0  0
  147.4883  136.9561  163.7368 H   0  0  0  0  0  0  0  0  0  0  0  0
  145.8685  136.8809  163.0400 H   0  0  0  0  0  0  0  0  0  0  0  0
  146.9407  138.2184  162.6405 H   0  0  0  0  0  0  0  0  0  0  0  0
  147.2029  133.0796  162.8448 H   0  0  0  0  0  0  0  0  0  0  0  0
  146.0865  134.3924  163.1830 H   0  0  0  0  0  0  0  0  0  0  0  0
  147.7449  134.4569  163.7951 H   0  0  0  0  0  0  0  0  0  0  0  0
  150.4063  140.0854  157.4795 H   0  0  0  0  0  0  0  0  0  0  0  0
  151.2250  141.3502  156.5619 H   0  0  0  0  0  0  0  0  0  0  0  0
  150.0349  141.7660  157.8018 H   0  0  0  0  0  0  0  0  0  0  0  0
  1  2  1  0  0  0  0
  1 26  1  0  0  0  0
  1 27  1  0  0  0  0
  1 28  1  0  0  0  0
  2 24  1  0  0  0  0
  2  3  2  0  0  0  0
  3  4  1  0  0  0  0
  3 29  1  0  0  0  0
  4  5  2  0  0  0  0
  4 30  1  0  0  0  0
  5  6  1  0  0  0  0
  5  7  1  0  0  0  0
  6 31  1  0  0  0  0
  6 32  1  0  0  0  0
  6 33  1  0  0  0  0
  7  8  1  0  0  0  0
  7 24  2  0  0  0  0
  8  9  1  0  0  0  0
  9 10  1  0  0  0  0
  9 34  1  0  0  0  0
  9 35  1  0  0  0  0
 10 11  1  0  0  0  0
 10 12  1  0  0  0  0
 10 36  1  0  0  0  0
 11 37  1  0  0  0  0
 12 13  1  0  0  0  0
 12 38  1  0  0  0  0
 12 39  1  0  0  0  0
 13 22  1  0  0  0  0
 13 14  1  0  0  0  0
 14 15  2  0  0  0  0
 15 16  1  0  0  0  0
 15 17  1  0  0  0  0
 16 40  1  0  0  0  0
 16 41  1  0  0  0  0
 16 42  1  0  0  0  0
 17 18  1  0  0  0  0
 17 19  2  0  0  0  0
 18 43  1  0  0  0  0
 18 44  1  0  0  0  0
 18 45  1  0  0  0  0
 19 20  1  0  0  0  0
 19 22  1  0  0  0  0
 20 21  3  0  0  0  0
 22 23  2  0  0  0  0
 24 25  1  0  0  0  0
 25 46  1  0  0  0  0
 25 47  1  0  0  0  0
 25 48  1  0  0  0  0
M  END
> <s_m_source_file>
AV-unprocessed.smi

> <i_m_source_file_index>
1611

> <i_lp_mmshare_version>
43012

> <i_f3d_flags>
0

> <s_epik_input>
W0NIM11jMVtjSF1bY0hdYyhbQ0gzXSljKGMxW0NIM10pT1tDSDJdW0NASF0oW09IXSlbQ0gyXW4ybmMoW0NIM10pYyhbQ0gzXSljKEMjTiljMj1P

> <s_epik_cmdline>
J2VwaWtfcHl0aG9uJywgJy1waCcsICc3LjAnLCAnLXRuJywgJzgnLCAnLW1hJywgJzIwMCcsICctbWV0YWxfYmluZGluZycsICctaW1hZScsICc8aW5maWxlLm1hZT4nLCAnLW9tYWUnLCAnPG91dGZpbGUubWFlPic=

> <r_lp_tautomer_probability>
1

> <r_epik_Ionization_Penalty>
1.17331e-07

> <r_epik_Ionization_Penalty_Charging>
1.57223e-10

> <r_epik_Ionization_Penalty_Neutral>
1.17174e-07

> <r_epik_State_Penalty>
-0

> <r_epik_Charging_Adjusted_Penalty>
1.57223e-10

> <i_epik_Tot_Q>
0

> <i_epik_Tot_abs_Q>
0

> <r_epik_Metal_State_Penalty>
-0

> <b_epik_Metal_Only>
0

> <s_lp_Force_Field>
OPLS_2005

> <r_lp_Energy>
36.6232

> <b_lp_Chiralities_Consistent>
1

> <s_lp_Variant>
AV-unprocessed.smi:1611-1

> <Gold.Version>
5.8.1

> <Gold.Id.Protein>
6NUR|6NUR_protein|mol2

> <Gold.PLP.Fitness>
50.1990

> <Gold.PLP.PLP>
-45.9599

> <Gold.PLP.part.hbond>
-3.0000

> <Gold.PLP.part.metal>
0.0000

> <Gold.PLP.part.buried>
-2.0040

> <Gold.PLP.part.nonpolar>
-40.9096

> <Gold.PLP.part.repulsive>
0.0000

> <Gold.PLP.ligand.clash>
0.0000

> <Gold.PLP.ligand.torsion>
0.7936

> <Gold.PLP.Chemscore.Hbond>
1.9071

> <Gold.PLP.Chemscore.CHOScore>
0.0000

> <Gold.PLP.Chemscore.Metal>
0.0000

> <Gold.Chemscore.Hbonds>
donor molecule, donor type, donor heavy atom, donor atom, acceptor molecule, acceptor atom, score
      P1  H  6896  6907       L1    23  0.50
      P1  H  6931  6943       L1    14  0.27
      P1  H  6934  6947       L1    14  0.70

> <Gold.PLP.Chemscore.Internal.Correction>
0.1049

> <Gold.Rescore>
     Score         DG    S(hbond)    S(metal)    S(lipo)     H(rot)  DE(clash)    DE(int)     intcor
     17.02     -18.07       0.84        0.00     133.28       2.27       0.17       0.88       ----

> <Gold.Chemscore.Fitness>
17.0190

> <Gold.Chemscore.DG>
-18.0652

> <Gold.Chemscore.ZeroCoef>
-5.4800

> <Gold.Chemscore.Hbond>
0.8395

> <Gold.Chemscore.Metal>
0.0000

> <Gold.Chemscore.Lipo>
133.2814

> <Gold.Chemscore.Internal_Hbond>
0.0000

> <Gold.Chemscore.DEClash>
0.1685

> <Gold.Chemscore.DEInternal>
0.8776

> <Gold.Chemscore.Rot>
2.2706

> <Gold.Chemscore.Internal.Correction>
   9.000000E+99

> <Gold.Chemscore.Hbonds>
donor molecule, donor type, donor heavy atom, donor atom, acceptor molecule, acceptor atom, score
      P1  H  6896  6907       L1    23  0.02
      P1  H  6931  6943       L1    14  0.01
      P1  H  6934  6947       L1    14  0.41

> <Gold.Chemscore.Hbond.Weighted>
-2.8039

> <Gold.Chemscore.Metal.Weighted>
-0.0000

> <Gold.Chemscore.Lipo.Weighted>
-15.5939

> <Gold.Chemscore.Internal_Hbond.Weighted>
0.0000

> <Gold.Chemscore.DEClash.Weighted>
0.1685

> <Gold.Chemscore.DEInternal.Weighted>
0.8776

> <Gold.Chemscore.Rot.Weighted>
5.8127

> <Gold.Chemscore.Internal.Correction.Weighted>
   9.000000E+99

> <Gold.Protein.RotatedTorsions>
[ 6907 6896 6895 6894 ] final -100.97 input  -60.11 | X-H torsion
[ 7974 7965 7964 7962 ] final  -89.52 input  175.53 | X-H torsion
[ 8008 7997 7996 7995 ] final  115.44 input   59.86 | X-H torsion
[ 10167 10162 10161 10158 ] final   43.62 input  -65.29 | X-H torsion
[ 10718 10713 10712 10709 ] final -122.47 input   66.30 | X-H torsion
[ 10763 10752 10751 10750 ] final  -83.44 input  -60.55 | X-H torsion
[ 11005 11000 10999 10996 ] final  157.34 input  -57.11 | X-H torsion

> <Gold.Protein.ActiveResidues>
 VAL166  LYS551  ARG553  GLY616  TRP617  ASP618  TYR619  PRO620  LYS621  CYS622 
 ASP623  PHE694  ASN695  SER759  ASP760  ASP761  ALA762  ILE779  LEU786  VAL792 
 PHE793  MET794  SER795  GLU796  ALA797  LYS798  CYS799  TRP800  GLU811  SER814 

> <Gold.Protein.RotatedAtoms>
  150.7136  134.0805  159.3896 H   0  0  0  0  0  0  0  0  0  0  0  0  # atno 6907 bound_to 6896
  151.8789  135.0459  160.0496 H   0  0  0  0  0  0  0  0  0  0  0  0  # atno 6908 bound_to 6896
  152.2583  133.5240  159.5403 H   0  0  0  0  0  0  0  0  0  0  0  0  # atno 6909 bound_to 6896
  145.4387  140.9558  143.2087 H   0  0  0  0  0  0  0  0  0  0  0  0  # atno 7974 bound_to 7965
  156.2381  140.2938  156.0369 H   0  0  0  0  0  0  0  0  0  0  0  0  # atno 8008 bound_to 7997
  155.2031  140.0410  157.2938 H   0  0  0  0  0  0  0  0  0  0  0  0  # atno 8009 bound_to 7997
  154.6117  140.2453  155.7668 H   0  0  0  0  0  0  0  0  0  0  0  0  # atno 8010 bound_to 7997
  140.3425  144.2452  150.6154 H   0  0  0  0  0  0  0  0  0  0  0  0  # atno 10167 bound_to 10162
  156.1421  130.6473  150.9786 H   0  0  0  0  0  0  0  0  0  0  0  0  # atno 10718 bound_to 10713
  154.5877  135.5556  153.7247 H   0  0  0  0  0  0  0  0  0  0  0  0  # atno 10763 bound_to 10752
  153.0105  135.6335  154.1893 H   0  0  0  0  0  0  0  0  0  0  0  0  # atno 10764 bound_to 10752
  154.1834  135.2886  155.3025 H   0  0  0  0  0  0  0  0  0  0  0  0  # atno 10765 bound_to 10752
  140.1760  134.8509  157.2747 H   0  0  0  0  0  0  0  0  0  0  0  0  # atno 11005 bound_to 11000
  144.8135  139.5918  143.7018 LP  0  0  0  0  0  0  0  0  0  0  0  0  # atno 17320 bound_to 7965
  146.2568  139.6320  142.9389 LP  0  0  0  0  0  0  0  0  0  0  0  0  # atno 17321 bound_to 7965
  140.5295  143.2246  151.8261 LP  0  0  0  0  0  0  0  0  0  0  0  0  # atno 17342 bound_to 10162
  139.4838  144.4738  151.9393 LP  0  0  0  0  0  0  0  0  0  0  0  0  # atno 17343 bound_to 10162
  157.6585  131.0885  150.7893 LP  0  0  0  0  0  0  0  0  0  0  0  0  # atno 17370 bound_to 10713
  156.7968  130.4908  149.5376 LP  0  0  0  0  0  0  0  0  0  0  0  0  # atno 17371 bound_to 10713
  140.2322  134.3895  155.7517 LP  0  0  0  0  0  0  0  0  0  0  0  0  # atno 17394 bound_to 11000
  141.2220  133.7221  156.8658 LP  0  0  0  0  0  0  0  0  0  0  0  0  # atno 17395 bound_to 11000

$$$$
