AV-unprocessed.smi:2883|AV-procd|sdf|11075|dock2
  -GOLD-   2272015543D 1   1.00000     0.00000
 Structure written by MMmdl.
 40 42  0  0  0  0  0  0  0  0  2 V2000
  151.5246  137.8276  157.1058 C   0  0  0  0  0  0  0  0  0  0  0  0
  151.4535  138.1360  155.5919 C   0  0  0  0  0  0  0  0  0  0  0  0
  152.8611  138.4626  155.0606 C   0  0  0  0  0  0  0  0  0  0  0  0
  150.9278  136.8517  154.9114 C   0  0  0  0  0  0  0  0  0  0  0  0
  150.5176  139.3222  155.3188 C   0  0  0  0  0  0  0  0  0  0  0  0
  149.5938  139.2211  154.3461 N   0  3  0  0  0  0  0  0  0  0  0  0
  148.8365  140.2942  154.0115 C   0  0  0  0  0  0  0  0  0  0  0  0
  149.0318  141.5309  154.6521 C   0  0  0  0  0  0  0  0  0  0  0  0
  150.0406  141.5870  155.6275 C   0  0  0  0  0  0  0  0  0  0  0  0
  150.2964  142.7940  156.2925 N   0  0  0  0  0  0  0  0  0  0  0  0
  151.3728  142.9005  157.2723 C   0  0  2  0  0  0  0  0  0  0  0  0
  151.0983  142.1078  158.5574 C   0  0  0  0  0  0  0  0  0  0  0  0
  151.2223  143.1945  159.6325 C   0  0  1  0  0  0  0  0  0  0  0  0
  152.6660  143.6884  159.7976 C   0  0  0  0  0  0  0  0  0  0  0  0
  152.8590  144.5196  158.5297 C   0  0  0  0  0  0  0  0  0  0  0  0
  151.5114  144.3310  157.8199 C   0  0  2  0  0  0  0  0  0  0  0  0
  150.6461  144.2894  158.9431 O   0  0  0  0  0  0  0  0  0  0  0  0
  150.7730  140.4919  155.9251 N   0  0  0  0  0  0  0  0  0  0  0  0
  152.1564  136.9614  157.3050 H   0  0  0  0  0  0  0  0  0  0  0  0
  150.5367  137.6127  157.5153 H   0  0  0  0  0  0  0  0  0  0  0  0
  151.9432  138.6594  157.6740 H   0  0  0  0  0  0  0  0  0  0  0  0
  153.2713  139.3505  155.5434 H   0  0  0  0  0  0  0  0  0  0  0  0
  152.8460  138.6510  153.9865 H   0  0  0  0  0  0  0  0  0  0  0  0
  153.5552  137.6409  155.2408 H   0  0  0  0  0  0  0  0  0  0  0  0
  151.5668  135.9962  155.1341 H   0  0  0  0  0  0  0  0  0  0  0  0
  150.8977  136.9470  153.8253 H   0  0  0  0  0  0  0  0  0  0  0  0
  149.9214  136.6045  155.2513 H   0  0  0  0  0  0  0  0  0  0  0  0
  148.1050  140.1297  153.2339 H   0  0  0  0  0  0  0  0  0  0  0  0
  148.4386  142.3965  154.3951 H   0  0  0  0  0  0  0  0  0  0  0  0
  149.6268  143.5477  156.2346 H   0  0  0  0  0  0  0  0  0  0  0  0
  152.3107  142.5936  156.8074 H   0  0  0  0  0  0  0  0  0  0  0  0
  150.0914  141.6874  158.5652 H   0  0  0  0  0  0  0  0  0  0  0  0
  151.8055  141.2911  158.7059 H   0  0  0  0  0  0  0  0  0  0  0  0
  150.7283  142.9453  160.5719 H   0  0  0  0  0  0  0  0  0  0  0  0
  152.7648  144.3157  160.6842 H   0  0  0  0  0  0  0  0  0  0  0  0
  153.3771  142.8658  159.8788 H   0  0  0  0  0  0  0  0  0  0  0  0
  153.0187  145.5685  158.7816 H   0  0  0  0  0  0  0  0  0  0  0  0
  153.7016  144.1824  157.9250 H   0  0  0  0  0  0  0  0  0  0  0  0
  151.2851  145.1177  157.0991 H   0  0  0  0  0  0  0  0  0  0  0  0
  149.4536  138.3364  153.8577 H   0  0  0  0  0  0  0  0  0  0  0  0
  1  2  1  0  0  0  0
  1 19  1  0  0  0  0
  1 20  1  0  0  0  0
  1 21  1  0  0  0  0
  2  3  1  0  0  0  0
  2  4  1  0  0  0  0
  2  5  1  0  0  0  0
  3 22  1  0  0  0  0
  3 23  1  0  0  0  0
  3 24  1  0  0  0  0
  4 25  1  0  0  0  0
  4 26  1  0  0  0  0
  4 27  1  0  0  0  0
  5 18  1  0  0  0  0
  5  6  2  0  0  0  0
  6  7  1  0  0  0  0
  6 40  1  0  0  0  0
  7  8  2  0  0  0  0
  7 28  1  0  0  0  0
  8  9  1  0  0  0  0
  8 29  1  0  0  0  0
  9 10  1  0  0  0  0
  9 18  2  0  0  0  0
 10 11  1  0  0  0  0
 10 30  1  0  0  0  0
 11 16  1  0  0  0  0
 11 12  1  0  0  0  0
 11 31  1  0  0  0  0
 12 13  1  0  0  0  0
 12 32  1  0  0  0  0
 12 33  1  0  0  0  0
 13 17  1  0  0  0  0
 13 14  1  0  0  0  0
 13 34  1  0  0  0  0
 14 15  1  0  0  0  0
 14 35  1  0  0  0  0
 14 36  1  0  0  0  0
 15 16  1  0  0  0  0
 15 37  1  0  0  0  0
 15 38  1  0  0  0  0
 16 17  1  0  0  0  0
 16 39  1  0  0  0  0
M  CHG  1   6   1
M  END
> <s_m_source_file>
AV-unprocessed.smi

> <i_m_source_file_index>
2883

> <i_lp_mmshare_version>
43012

> <i_f3d_flags>
0

> <s_epik_input>
W0NIM11DKFtDSDNdKShbQ0gzXSljMW5bY0hdW2NIXWMobjEpW05IXVtDQEhdKFtDSDJdW0NAQEhdMjMpW0NAQEhdKE8zKVtDSDJdW0NIMl0y

> <s_epik_cmdline>
J2VwaWtfcHl0aG9uJywgJy1waCcsICc3LjAnLCAnLXRuJywgJzgnLCAnLW1hJywgJzIwMCcsICctbWV0YWxfYmluZGluZycsICctaW1hZScsICc8aW5maWxlLm1hZT4nLCAnLW9tYWUnLCAnPG91dGZpbGUubWFlPic=

> <r_lp_tautomer_probability>
0.999336

> <r_epik_Ionization_Penalty>
0.371831

> <r_epik_Ionization_Penalty_Charging>
0.371821

> <r_epik_Ionization_Penalty_Neutral>
1.06897e-05

> <r_epik_State_Penalty>
0.369311

> <r_epik_Charging_Adjusted_Penalty>
0.741132

> <i_epik_Tot_Q>
1

> <i_epik_Tot_abs_Q>
1

> <r_epik_Metal_State_Penalty>
0.621338

> <b_epik_Metal_Only>
0

> <s_lp_Force_Field>
OPLS_2005

> <r_lp_Energy>
38.7215

> <b_lp_Chiralities_Consistent>
1

> <s_lp_Variant>
AV-unprocessed.smi:2883-1

> <Gold.Version>
5.8.1

> <Gold.Id.Protein>
6NUR|6NUR_protein|mol2

> <Gold.PLP.Fitness>
41.0821

> <Gold.PLP.PLP>
-38.5345

> <Gold.PLP.part.hbond>
-1.2327

> <Gold.PLP.part.metal>
0.0000

> <Gold.PLP.part.buried>
-4.5385

> <Gold.PLP.part.nonpolar>
-33.4609

> <Gold.PLP.part.repulsive>
0.3471

> <Gold.PLP.ligand.clash>
0.0000

> <Gold.PLP.ligand.torsion>
0.3064

> <Gold.PLP.Chemscore.Hbond>
1.0000

> <Gold.PLP.Chemscore.CHOScore>
0.0000

> <Gold.PLP.Chemscore.Metal>
0.0000

> <Gold.Chemscore.Hbonds>
donor molecule, donor type, donor heavy atom, donor atom, acceptor molecule, acceptor atom, score
      L1  H    10    30       P1  8028  0.93

> <Gold.PLP.Chemscore.Internal.Correction>
0.1605

> <Gold.Rescore>
     Score         DG    S(hbond)    S(metal)    S(lipo)     H(rot)  DE(clash)    DE(int)     intcor
     18.11     -18.70       0.92        0.00     112.15       1.16       0.33       0.26       ----

> <Gold.Chemscore.Fitness>
18.1066

> <Gold.Chemscore.DG>
-18.7001

> <Gold.Chemscore.ZeroCoef>
-5.4800

> <Gold.Chemscore.Hbond>
0.9207

> <Gold.Chemscore.Metal>
0.0000

> <Gold.Chemscore.Lipo>
112.1474

> <Gold.Chemscore.Internal_Hbond>
0.0000

> <Gold.Chemscore.DEClash>
0.3346

> <Gold.Chemscore.DEInternal>
0.2589

> <Gold.Chemscore.Rot>
1.1626

> <Gold.Chemscore.Internal.Correction>
   9.000000E+99

> <Gold.Chemscore.Hbonds>
donor molecule, donor type, donor heavy atom, donor atom, acceptor molecule, acceptor atom, score
      L1  H    10    30       P1  8028  0.88

> <Gold.Chemscore.Hbond.Weighted>
-3.0751

> <Gold.Chemscore.Metal.Weighted>
-0.0000

> <Gold.Chemscore.Lipo.Weighted>
-13.1212

> <Gold.Chemscore.Internal_Hbond.Weighted>
0.0000

> <Gold.Chemscore.DEClash.Weighted>
0.3346

> <Gold.Chemscore.DEInternal.Weighted>
0.2589

> <Gold.Chemscore.Rot.Weighted>
2.9763

> <Gold.Chemscore.Internal.Correction.Weighted>
   9.000000E+99

> <Gold.Protein.RotatedTorsions>
[ 6907 6896 6895 6894 ] final  144.30 input  -60.11 | X-H torsion
[ 7974 7965 7964 7962 ] final  -98.26 input  175.53 | X-H torsion
[ 8008 7997 7996 7995 ] final  -67.20 input   59.86 | X-H torsion
[ 10167 10162 10161 10158 ] final -166.66 input  -65.29 | X-H torsion
[ 10718 10713 10712 10709 ] final  161.77 input   66.30 | X-H torsion
[ 10763 10752 10751 10750 ] final   16.91 input  -60.55 | X-H torsion
[ 11005 11000 10999 10996 ] final  107.07 input  -57.11 | X-H torsion

> <Gold.Protein.ActiveResidues>
 VAL166  LYS551  ARG553  GLY616  TRP617  ASP618  TYR619  PRO620  LYS621  CYS622 
 ASP623  PHE694  ASN695  SER759  ASP760  ASP761  ALA762  ILE779  LEU786  VAL792 
 PHE793  MET794  SER795  GLU796  ALA797  LYS798  CYS799  TRP800  GLU811  SER814 

> <Gold.Protein.RotatedAtoms>
  152.1954  133.4803  159.5029 H   0  0  0  0  0  0  0  0  0  0  0  0  # atno 6907 bound_to 6896
  150.6959  134.1658  159.4203 H   0  0  0  0  0  0  0  0  0  0  0  0  # atno 6908 bound_to 6896
  151.9574  135.0139  160.0596 H   0  0  0  0  0  0  0  0  0  0  0  0  # atno 6909 bound_to 6896
  145.3229  140.9425  143.2705 H   0  0  0  0  0  0  0  0  0  0  0  0  # atno 7974 bound_to 7965
  154.4784  140.0897  156.7318 H   0  0  0  0  0  0  0  0  0  0  0  0  # atno 8008 bound_to 7997
  155.4535  140.3458  155.4285 H   0  0  0  0  0  0  0  0  0  0  0  0  # atno 8009 bound_to 7997
  156.1153  140.1459  156.9270 H   0  0  0  0  0  0  0  0  0  0  0  0  # atno 8010 bound_to 7997
  139.6100  144.0834  152.1832 H   0  0  0  0  0  0  0  0  0  0  0  0  # atno 10167 bound_to 10162
  157.1319  131.0519  151.2367 H   0  0  0  0  0  0  0  0  0  0  0  0  # atno 10718 bound_to 10713
  153.1387  135.6755  153.9061 H   0  0  0  0  0  0  0  0  0  0  0  0  # atno 10763 bound_to 10752
  153.8524  135.3091  155.3434 H   0  0  0  0  0  0  0  0  0  0  0  0  # atno 10764 bound_to 10752
  154.7770  135.4909  153.9847 H   0  0  0  0  0  0  0  0  0  0  0  0  # atno 10765 bound_to 10752
  139.8823  134.9389  156.5764 H   0  0  0  0  0  0  0  0  0  0  0  0  # atno 11005 bound_to 11000
  144.8925  139.4756  143.6671 LP  0  0  0  0  0  0  0  0  0  0  0  0  # atno 17320 bound_to 7965
  146.3075  139.7631  142.9045 LP  0  0  0  0  0  0  0  0  0  0  0  0  # atno 17321 bound_to 7965
  140.0450  144.5977  150.7381 LP  0  0  0  0  0  0  0  0  0  0  0  0  # atno 17342 bound_to 10162
  140.7312  143.2692  151.3944 LP  0  0  0  0  0  0  0  0  0  0  0  0  # atno 17343 bound_to 10162
  157.4384  130.7530  149.7049 LP  0  0  0  0  0  0  0  0  0  0  0  0  # atno 17370 bound_to 10713
  155.9806  130.4028  150.3519 LP  0  0  0  0  0  0  0  0  0  0  0  0  # atno 17371 bound_to 10713
  140.8060  133.8467  155.8768 LP  0  0  0  0  0  0  0  0  0  0  0  0  # atno 17394 bound_to 11000
  140.9549  134.1730  157.4699 LP  0  0  0  0  0  0  0  0  0  0  0  0  # atno 17395 bound_to 11000

$$$$
