AV-unprocessed.smi:1799|AV-procd|sdf|7261|dock9
  -GOLD-   22720 8513D 1   1.00000     0.00000
 Structure written by MMmdl.
 41 42  0  0  0  0  0  0  0  0  2 V2000
  146.5037  133.7634  151.6606 C   0  0  0  0  0  0  0  0  0  0  0  0
  145.7042  133.1548  152.8337 C   0  0  0  0  0  0  0  0  0  0  0  0
  145.6372  131.6363  152.5787 C   0  0  0  0  0  0  0  0  0  0  0  0
  146.3993  133.3781  154.2000 C   0  0  0  0  0  0  0  0  0  0  0  0
  146.2113  134.7811  154.8099 C   0  0  0  0  0  0  0  0  0  0  0  0
  147.0367  135.8123  154.1839 N   0  0  0  0  0  0  0  0  0  0  0  0
  147.1996  137.0631  154.6395 C   0  0  0  0  0  0  0  0  0  0  0  0
  146.6546  137.4894  155.6574 O   0  0  0  0  0  0  0  0  0  0  0  0
  148.0268  137.7659  153.8462 N   0  0  0  0  0  0  0  0  0  0  0  0
  148.4862  139.0987  154.0167 C   0  0  0  0  0  0  0  0  0  0  0  0
  149.7749  139.4230  154.2059 N   0  0  0  0  0  0  0  0  0  0  0  0
  149.9520  140.7943  154.3354 N   0  0  0  0  0  0  0  0  0  0  0  0
  148.7916  141.4496  154.2386 C   0  0  0  0  0  0  0  0  0  0  0  0
  147.3685  140.4550  153.9804 S   0  0  0  0  0  0  0  0  0  0  0  0
  144.7215  135.1608  154.8192 C   0  0  0  0  0  0  0  0  0  0  0  0
  143.9823  134.9709  153.4688 C   0  0  0  0  0  0  0  0  0  0  0  0
  142.4670  134.9747  153.7511 C   0  0  0  0  0  0  0  0  0  0  0  0
  144.2498  136.1313  152.4848 C   0  0  0  0  0  0  0  0  0  0  0  0
  144.2986  133.6491  152.8565 N   0  3  0  0  0  0  0  0  0  0  0  0
  147.4727  133.2734  151.5582 H   0  0  0  0  0  0  0  0  0  0  0  0
  146.7151  134.8211  151.7757 H   0  0  0  0  0  0  0  0  0  0  0  0
  145.9770  133.6366  150.7140 H   0  0  0  0  0  0  0  0  0  0  0  0
  146.6329  131.1908  152.5652 H   0  0  0  0  0  0  0  0  0  0  0  0
  145.1657  131.4114  151.6211 H   0  0  0  0  0  0  0  0  0  0  0  0
  145.0625  131.1234  153.3510 H   0  0  0  0  0  0  0  0  0  0  0  0
  145.9849  132.6677  154.9171 H   0  0  0  0  0  0  0  0  0  0  0  0
  147.4574  133.1223  154.1315 H   0  0  0  0  0  0  0  0  0  0  0  0
  146.5317  134.7328  155.8524 H   0  0  0  0  0  0  0  0  0  0  0  0
  147.5169  135.5547  153.3340 H   0  0  0  0  0  0  0  0  0  0  0  0
  148.3845  137.2873  153.0329 H   0  0  0  0  0  0  0  0  0  0  0  0
  148.7740  142.5263  154.3195 H   0  0  0  0  0  0  0  0  0  0  0  0
  144.2407  134.5286  155.5676 H   0  0  0  0  0  0  0  0  0  0  0  0
  144.5946  136.1816  155.1832 H   0  0  0  0  0  0  0  0  0  0  0  0
  142.1498  135.9071  154.2203 H   0  0  0  0  0  0  0  0  0  0  0  0
  142.1808  134.1611  154.4189 H   0  0  0  0  0  0  0  0  0  0  0  0
  141.8890  134.8575  152.8332 H   0  0  0  0  0  0  0  0  0  0  0  0
  143.8581  137.0703  152.8778 H   0  0  0  0  0  0  0  0  0  0  0  0
  143.7630  135.9568  151.5246 H   0  0  0  0  0  0  0  0  0  0  0  0
  145.3021  136.3057  152.2877 H   0  0  0  0  0  0  0  0  0  0  0  0
  143.9259  133.6239  151.9182 H   0  0  0  0  0  0  0  0  0  0  0  0
  143.7877  132.9726  153.4056 H   0  0  0  0  0  0  0  0  0  0  0  0
  1  2  1  0  0  0  0
  1 20  1  0  0  0  0
  1 21  1  0  0  0  0
  1 22  1  0  0  0  0
  2 19  1  0  0  0  0
  2  3  1  0  0  0  0
  2  4  1  0  0  0  0
  3 23  1  0  0  0  0
  3 24  1  0  0  0  0
  3 25  1  0  0  0  0
  4  5  1  0  0  0  0
  4 26  1  0  0  0  0
  4 27  1  0  0  0  0
  5  6  1  0  0  0  0
  5 15  1  0  0  0  0
  5 28  1  0  0  0  0
  6  7  1  0  0  0  0
  6 29  1  0  0  0  0
  7  8  2  0  0  0  0
  7  9  1  0  0  0  0
  9 10  1  0  0  0  0
  9 30  1  0  0  0  0
 10 14  1  0  0  0  0
 10 11  2  0  0  0  0
 11 12  1  0  0  0  0
 12 13  2  0  0  0  0
 13 14  1  0  0  0  0
 13 31  1  0  0  0  0
 15 16  1  0  0  0  0
 15 32  1  0  0  0  0
 15 33  1  0  0  0  0
 16 17  1  0  0  0  0
 16 18  1  0  0  0  0
 16 19  1  0  0  0  0
 17 34  1  0  0  0  0
 17 35  1  0  0  0  0
 17 36  1  0  0  0  0
 18 37  1  0  0  0  0
 18 38  1  0  0  0  0
 18 39  1  0  0  0  0
 19 40  1  0  0  0  0
 19 41  1  0  0  0  0
M  CHG  1  19   1
M  END
> <s_m_source_file>
AV-unprocessed.smi

> <i_m_source_file_index>
1799

> <i_lp_mmshare_version>
43012

> <i_f3d_flags>
0

> <s_epik_input>
W0NIM11DMShbQ0gzXSlbQ0gyXVtDSF0oW0NIMl1DKFtDSDNdKShbQ0gzXSlbTkhdMSlbTkhdQyg9TylbTkhdYzJubltjSF1zMg==

> <s_epik_cmdline>
J2VwaWtfcHl0aG9uJywgJy1waCcsICc3LjAnLCAnLXRuJywgJzgnLCAnLW1hJywgJzIwMCcsICctbWV0YWxfYmluZGluZycsICctaW1hZScsICc8aW5maWxlLm1hZT4nLCAnLW9tYWUnLCAnPG91dGZpbGUubWFlPic=

> <r_lp_tautomer_probability>
1

> <r_epik_Ionization_Penalty>
0.000698711

> <r_epik_Ionization_Penalty_Charging>
0.000101406

> <r_epik_Ionization_Penalty_Neutral>
0.000597305

> <r_epik_State_Penalty>
-0

> <r_epik_Charging_Adjusted_Penalty>
0.000101406

> <i_epik_Tot_Q>
1

> <i_epik_Tot_abs_Q>
1

> <r_epik_Metal_State_Penalty>
0.237927

> <b_epik_Metal_Only>
0

> <s_lp_Force_Field>
OPLS_2005

> <r_lp_Energy>
25.55

> <b_lp_Chiralities_Consistent>
1

> <s_lp_Variant>
AV-unprocessed.smi:1799-1

> <Gold.Version>
5.8.1

> <Gold.Id.Protein>
6NUR|6NUR_protein|mol2

> <Gold.PLP.Fitness>
35.7943

> <Gold.PLP.PLP>
-22.0380

> <Gold.PLP.part.hbond>
-3.6785

> <Gold.PLP.part.metal>
0.0000

> <Gold.PLP.part.buried>
-4.6164

> <Gold.PLP.part.nonpolar>
-15.1650

> <Gold.PLP.part.repulsive>
0.3333

> <Gold.PLP.ligand.clash>
0.0000

> <Gold.PLP.ligand.torsion>
0.6549

> <Gold.PLP.Chemscore.Hbond>
4.0161

> <Gold.PLP.Chemscore.CHOScore>
1.0000

> <Gold.PLP.Chemscore.Metal>
0.0000

> <Gold.Chemscore.Hbonds>
donor molecule, donor type, donor heavy atom, donor atom, acceptor molecule, acceptor atom, score
      L1  H     6    29       P1  7948  0.61
      L1  H     9    30       P1  7948  1.00
      L1  H    19    41       P1 10957  1.43
      P1  H  7989  7998       L1    12  0.57
      L1  C    13    31       P1  8028  0.95

> <Gold.PLP.Chemscore.Internal.Correction>
0.0178

> <Gold.Rescore>
     Score         DG    S(hbond)    S(metal)    S(lipo)     H(rot)  DE(clash)    DE(int)     intcor
     17.24     -17.87       3.00        0.00      42.13       1.00       0.00       0.62       ----

> <Gold.Chemscore.Fitness>
17.2432

> <Gold.Chemscore.DG>
-17.8685

> <Gold.Chemscore.ZeroCoef>
-5.4800

> <Gold.Chemscore.Hbond>
2.9999

> <Gold.Chemscore.Metal>
0.0000

> <Gold.Chemscore.Lipo>
42.1260

> <Gold.Chemscore.Internal_Hbond>
0.0000

> <Gold.Chemscore.DEClash>
0.0009

> <Gold.Chemscore.DEInternal>
0.6244

> <Gold.Chemscore.Rot>
1.0000

> <Gold.Chemscore.Internal.Correction>
   9.000000E+99

> <Gold.Chemscore.Hbonds>
donor molecule, donor type, donor heavy atom, donor atom, acceptor molecule, acceptor atom, score
      L1  H     6    29       P1  7948  0.61
      L1  H     9    30       P1  7948  1.00
      L1  H    19    41       P1 10957  0.54
      P1  H  7989  7998       L1    12  0.10

> <Gold.Chemscore.Hbond.Weighted>
-10.0198

> <Gold.Chemscore.Metal.Weighted>
-0.0000

> <Gold.Chemscore.Lipo.Weighted>
-4.9287

> <Gold.Chemscore.Internal_Hbond.Weighted>
0.0000

> <Gold.Chemscore.DEClash.Weighted>
0.0009

> <Gold.Chemscore.DEInternal.Weighted>
0.6244

> <Gold.Chemscore.Rot.Weighted>
2.5600

> <Gold.Chemscore.Internal.Correction.Weighted>
   9.000000E+99

> <Gold.Protein.RotatedTorsions>
[ 6907 6896 6895 6894 ] final   -9.51 input  -60.11 | X-H torsion
[ 7974 7965 7964 7962 ] final -142.72 input  175.53 | X-H torsion
[ 8008 7997 7996 7995 ] final  104.93 input   59.86 | X-H torsion
[ 10167 10162 10161 10158 ] final -159.22 input  -65.29 | X-H torsion
[ 10718 10713 10712 10709 ] final   40.17 input   66.30 | X-H torsion
[ 10763 10752 10751 10750 ] final  166.50 input  -60.55 | X-H torsion
[ 11005 11000 10999 10996 ] final  170.73 input  -57.11 | X-H torsion

> <Gold.Protein.ActiveResidues>
 VAL166  LYS551  ARG553  GLY616  TRP617  ASP618  TYR619  PRO620  LYS621  CYS622 
 ASP623  PHE694  ASN695  SER759  ASP760  ASP761  ALA762  ILE779  LEU786  VAL792 
 PHE793  MET794  SER795  GLU796  ALA797  LYS798  CYS799  TRP800  GLU811  SER814 

> <Gold.Protein.RotatedAtoms>
  151.4166  135.0992  159.9600 H   0  0  0  0  0  0  0  0  0  0  0  0  # atno 6907 bound_to 6896
  152.5002  133.8747  159.7326 H   0  0  0  0  0  0  0  0  0  0  0  0  # atno 6908 bound_to 6896
  150.9253  133.6773  159.2851 H   0  0  0  0  0  0  0  0  0  0  0  0  # atno 6909 bound_to 6896
  144.8422  140.5923  143.5444 H   0  0  0  0  0  0  0  0  0  0  0  0  # atno 7974 bound_to 7965
  156.1616  140.3139  155.8816 H   0  0  0  0  0  0  0  0  0  0  0  0  # atno 8008 bound_to 7997
  155.3771  140.0485  157.3061 H   0  0  0  0  0  0  0  0  0  0  0  0  # atno 8009 bound_to 7997
  154.5151  140.2178  155.9091 H   0  0  0  0  0  0  0  0  0  0  0  0  # atno 8010 bound_to 7997
  139.6632  143.9875  152.2238 H   0  0  0  0  0  0  0  0  0  0  0  0  # atno 10167 bound_to 10162
  157.3790  130.7743  149.7178 H   0  0  0  0  0  0  0  0  0  0  0  0  # atno 10718 bound_to 10713
  154.3400  135.2754  155.2428 H   0  0  0  0  0  0  0  0  0  0  0  0  # atno 10763 bound_to 10752
  154.4702  135.5885  153.6320 H   0  0  0  0  0  0  0  0  0  0  0  0  # atno 10764 bound_to 10752
  152.9858  135.6086  154.3600 H   0  0  0  0  0  0  0  0  0  0  0  0  # atno 10765 bound_to 10752
  140.3115  134.7513  157.3995 H   0  0  0  0  0  0  0  0  0  0  0  0  # atno 11005 bound_to 11000
  145.4670  139.1507  143.3835 LP  0  0  0  0  0  0  0  0  0  0  0  0  # atno 17320 bound_to 7965
  146.2713  140.4802  142.8813 LP  0  0  0  0  0  0  0  0  0  0  0  0  # atno 17321 bound_to 7965
  139.9620  144.6551  150.8070 LP  0  0  0  0  0  0  0  0  0  0  0  0  # atno 17342 bound_to 10162
  140.7588  143.3116  151.2831 LP  0  0  0  0  0  0  0  0  0  0  0  0  # atno 17343 bound_to 10162
  155.9771  130.4066  150.3731 LP  0  0  0  0  0  0  0  0  0  0  0  0  # atno 17370 bound_to 10713
  157.1832  131.0397  151.2738 LP  0  0  0  0  0  0  0  0  0  0  0  0  # atno 17371 bound_to 10713
  140.1021  134.5459  155.8343 LP  0  0  0  0  0  0  0  0  0  0  0  0  # atno 17394 bound_to 11000
  141.2107  133.6698  156.6529 LP  0  0  0  0  0  0  0  0  0  0  0  0  # atno 17395 bound_to 11000

$$$$
