AV-unprocessed.smi:2247|AV-procd|sdf|9087|dock3
  -GOLD-   2272012293D 1   1.00000     0.00000
 Structure written by MMmdl.
 34 35  0  0  0  0  0  0  0  0  1 V2000
  152.8003  143.3029  162.1208 C   0  0  0  0  0  0  0  0  0  0  0  0
  152.6449  142.2774  160.9867 C   0  0  0  0  0  0  0  0  0  0  0  0
  153.8220  141.2870  160.9395 C   0  0  0  0  0  0  0  0  0  0  0  0
  152.4339  142.9629  159.7046 N   0  0  0  0  0  0  0  0  0  0  0  0
  152.4690  144.4112  159.5802 C   0  0  0  0  0  0  0  0  0  0  0  0
  151.8527  144.6935  158.2069 C   0  0  0  0  0  0  0  0  0  0  0  0
  151.9907  143.3875  157.4082 C   0  0  2  0  0  0  0  0  0  0  0  0
  150.7763  143.1412  156.6328 N   0  0  0  0  0  0  0  0  0  0  0  0
  150.4806  141.9932  156.0054 C   0  0  0  0  0  0  0  0  0  0  0  0
  151.2245  141.0121  155.9955 O   0  0  0  0  0  0  0  0  0  0  0  0
  149.2820  142.0623  155.4025 N   0  0  0  0  0  0  0  0  0  0  0  0
  148.6325  141.0493  154.6534 C   0  0  0  0  0  0  0  0  0  0  0  0
  149.1001  139.8268  154.3960 N   0  0  0  0  0  0  0  0  0  0  0  0
  148.1060  139.2246  153.6384 C   0  0  0  0  0  0  0  0  0  0  0  0
  147.0850  140.1260  153.4782 C   0  0  0  0  0  0  0  0  0  0  0  0
  147.4064  141.2924  154.1191 O   0  0  0  0  0  0  0  0  0  0  0  0
  152.1452  142.3687  158.5384 C   0  0  0  0  0  0  0  0  0  0  0  0
  152.0265  141.1558  158.3634 O   0  0  0  0  0  0  0  0  0  0  0  0
  152.9088  142.8066  163.0856 H   0  0  0  0  0  0  0  0  0  0  0  0
  151.9306  143.9578  162.1853 H   0  0  0  0  0  0  0  0  0  0  0  0
  153.6793  143.9304  161.9692 H   0  0  0  0  0  0  0  0  0  0  0  0
  151.7524  141.6857  161.1982 H   0  0  0  0  0  0  0  0  0  0  0  0
  153.8933  140.7264  161.8718 H   0  0  0  0  0  0  0  0  0  0  0  0
  154.7757  141.7947  160.7929 H   0  0  0  0  0  0  0  0  0  0  0  0
  153.6962  140.5638  160.1331 H   0  0  0  0  0  0  0  0  0  0  0  0
  151.9126  144.9034  160.3789 H   0  0  0  0  0  0  0  0  0  0  0  0
  153.5041  144.7537  159.6160 H   0  0  0  0  0  0  0  0  0  0  0  0
  150.8017  144.9582  158.3382 H   0  0  0  0  0  0  0  0  0  0  0  0
  152.3360  145.5335  157.7070 H   0  0  0  0  0  0  0  0  0  0  0  0
  152.8910  143.3949  156.7912 H   0  0  0  0  0  0  0  0  0  0  0  0
  150.1051  143.8937  156.5900 H   0  0  0  0  0  0  0  0  0  0  0  0
  148.7761  142.9307  155.4925 H   0  0  0  0  0  0  0  0  0  0  0  0
  148.2016  138.2117  153.2763 H   0  0  0  0  0  0  0  0  0  0  0  0
  146.1306  140.0959  152.9739 H   0  0  0  0  0  0  0  0  0  0  0  0
  1  2  1  0  0  0  0
  1 19  1  0  0  0  0
  1 20  1  0  0  0  0
  1 21  1  0  0  0  0
  2  3  1  0  0  0  0
  2  4  1  0  0  0  0
  2 22  1  0  0  0  0
  3 23  1  0  0  0  0
  3 24  1  0  0  0  0
  3 25  1  0  0  0  0
  4 17  1  0  0  0  0
  4  5  1  0  0  0  0
  5  6  1  0  0  0  0
  5 26  1  0  0  0  0
  5 27  1  0  0  0  0
  6  7  1  0  0  0  0
  6 28  1  0  0  0  0
  6 29  1  0  0  0  0
  7  8  1  0  0  0  0
  7 17  1  0  0  0  0
  7 30  1  0  0  0  0
  8  9  1  0  0  0  0
  8 31  1  0  0  0  0
  9 10  2  0  0  0  0
  9 11  1  0  0  0  0
 11 12  1  0  0  0  0
 11 32  1  0  0  0  0
 12 16  1  0  0  0  0
 12 13  2  0  0  0  0
 13 14  1  0  0  0  0
 14 15  2  0  0  0  0
 14 33  1  0  0  0  0
 15 16  1  0  0  0  0
 15 34  1  0  0  0  0
 17 18  2  0  0  0  0
M  END
> <s_m_source_file>
AV-unprocessed.smi

> <i_m_source_file_index>
2247

> <i_lp_mmshare_version>
43012

> <i_f3d_flags>
0

> <s_epik_input>
W0NIM11bQ0hdKFtDSDNdKU4xW0NIMl1bQ0gyXVtDQEhdKEMxPU8pW05IXUMoPU8pW05IXWMybltjSF1bY0hdbzI=

> <s_epik_cmdline>
J2VwaWtfcHl0aG9uJywgJy1waCcsICc3LjAnLCAnLXRuJywgJzgnLCAnLW1hJywgJzIwMCcsICctbWV0YWxfYmluZGluZycsICctaW1hZScsICc8aW5maWxlLm1hZT4nLCAnLW9tYWUnLCAnPG91dGZpbGUubWFlPic=

> <r_lp_tautomer_probability>
0.785861

> <r_epik_Ionization_Penalty>
5.15801e-05

> <r_epik_Ionization_Penalty_Charging>
0

> <r_epik_Ionization_Penalty_Neutral>
5.15801e-05

> <r_epik_State_Penalty>
0.0205761

> <r_epik_Charging_Adjusted_Penalty>
0.0205761

> <i_epik_Tot_Q>
0

> <i_epik_Tot_abs_Q>
0

> <r_epik_Metal_State_Penalty>
0.0168939

> <b_epik_Metal_Only>
0

> <s_lp_Force_Field>
OPLS_2005

> <r_lp_Energy>
20.4704

> <b_lp_Chiralities_Consistent>
1

> <s_lp_Variant>
AV-unprocessed.smi:2247-2

> <Gold.Version>
5.8.1

> <Gold.Id.Protein>
6NUR|6NUR_protein|mol2

> <Gold.PLP.Fitness>
52.0874

> <Gold.PLP.PLP>
-40.3892

> <Gold.PLP.part.hbond>
-2.1921

> <Gold.PLP.part.metal>
0.0000

> <Gold.PLP.part.buried>
-5.3740

> <Gold.PLP.part.nonpolar>
-32.1607

> <Gold.PLP.part.repulsive>
0.5362

> <Gold.PLP.ligand.clash>
0.0000

> <Gold.PLP.ligand.torsion>
0.0928

> <Gold.PLP.Chemscore.Hbond>
1.9360

> <Gold.PLP.Chemscore.CHOScore>
1.9977

> <Gold.PLP.Chemscore.Metal>
0.0000

> <Gold.Chemscore.Hbonds>
donor molecule, donor type, donor heavy atom, donor atom, acceptor molecule, acceptor atom, score
      L1  H     8    31       P1  8028  0.96
      L1  H    11    32       P1  8028  0.94
      L1  C    14    33       P1  7948  1.00
      L1  C    15    34       P1 10175  1.00

> <Gold.PLP.Chemscore.Internal.Correction>
0.0825

> <Gold.Rescore>
     Score         DG    S(hbond)    S(metal)    S(lipo)     H(rot)  DE(clash)    DE(int)     intcor
     12.74     -18.37       1.90        0.00      85.14       1.33       0.29       5.34       ----

> <Gold.Chemscore.Fitness>
12.7433

> <Gold.Chemscore.DG>
-18.3722

> <Gold.Chemscore.ZeroCoef>
-5.4800

> <Gold.Chemscore.Hbond>
1.8999

> <Gold.Chemscore.Metal>
0.0000

> <Gold.Chemscore.Lipo>
85.1377

> <Gold.Chemscore.Internal_Hbond>
0.0000

> <Gold.Chemscore.DEClash>
0.2895

> <Gold.Chemscore.DEInternal>
5.3394

> <Gold.Chemscore.Rot>
1.3338

> <Gold.Chemscore.Internal.Correction>
   9.000000E+99

> <Gold.Chemscore.Hbonds>
donor molecule, donor type, donor heavy atom, donor atom, acceptor molecule, acceptor atom, score
      L1  H     8    31       P1  8028  0.92
      L1  H    11    32       P1  8028  0.91

> <Gold.Chemscore.Hbond.Weighted>
-6.3456

> <Gold.Chemscore.Metal.Weighted>
-0.0000

> <Gold.Chemscore.Lipo.Weighted>
-9.9611

> <Gold.Chemscore.Internal_Hbond.Weighted>
0.0000

> <Gold.Chemscore.DEClash.Weighted>
0.2895

> <Gold.Chemscore.DEInternal.Weighted>
5.3394

> <Gold.Chemscore.Rot.Weighted>
3.4145

> <Gold.Chemscore.Internal.Correction.Weighted>
   9.000000E+99

> <Gold.Protein.RotatedTorsions>
[ 6907 6896 6895 6894 ] final  -90.76 input  -60.11 | X-H torsion
[ 7974 7965 7964 7962 ] final   84.47 input  175.53 | X-H torsion
[ 8008 7997 7996 7995 ] final -123.08 input   59.86 | X-H torsion
[ 10167 10162 10161 10158 ] final  173.99 input  -65.29 | X-H torsion
[ 10718 10713 10712 10709 ] final  141.81 input   66.30 | X-H torsion
[ 10763 10752 10751 10750 ] final  139.65 input  -60.55 | X-H torsion
[ 11005 11000 10999 10996 ] final  -46.21 input  -57.11 | X-H torsion

> <Gold.Protein.ActiveResidues>
 VAL166  LYS551  ARG553  GLY616  TRP617  ASP618  TYR619  PRO620  LYS621  CYS622 
 ASP623  PHE694  ASN695  SER759  ASP760  ASP761  ALA762  ILE779  LEU786  VAL792 
 PHE793  MET794  SER795  GLU796  ALA797  LYS798  CYS799  TRP800  GLU811  SER814 

> <Gold.Protein.RotatedAtoms>
  150.6885  134.2382  159.4461 H   0  0  0  0  0  0  0  0  0  0  0  0  # atno 6907 bound_to 6896
  152.0328  134.9755  160.0582 H   0  0  0  0  0  0  0  0  0  0  0  0  # atno 6908 bound_to 6896
  152.1287  133.4360  159.4747 H   0  0  0  0  0  0  0  0  0  0  0  0  # atno 6909 bound_to 6896
  145.5984  139.2348  143.2260 H   0  0  0  0  0  0  0  0  0  0  0  0  # atno 7974 bound_to 7965
  155.1748  140.0409  157.2870 H   0  0  0  0  0  0  0  0  0  0  0  0  # atno 8008 bound_to 7997
  154.6244  140.2509  155.7482 H   0  0  0  0  0  0  0  0  0  0  0  0  # atno 8009 bound_to 7997
  156.2451  140.2888  156.0567 H   0  0  0  0  0  0  0  0  0  0  0  0  # atno 8010 bound_to 7997
  139.5127  144.3197  152.0214 H   0  0  0  0  0  0  0  0  0  0  0  0  # atno 10167 bound_to 10162
  157.3877  131.1000  151.0677 H   0  0  0  0  0  0  0  0  0  0  0  0  # atno 10718 bound_to 10713
  153.9096  135.3012  155.3448 H   0  0  0  0  0  0  0  0  0  0  0  0  # atno 10763 bound_to 10752
  154.7630  135.4924  153.9503 H   0  0  0  0  0  0  0  0  0  0  0  0  # atno 10764 bound_to 10752
  153.1200  135.6780  153.9453 H   0  0  0  0  0  0  0  0  0  0  0  0  # atno 10765 bound_to 10752
  141.0564  133.6724  156.3122 H   0  0  0  0  0  0  0  0  0  0  0  0  # atno 11005 bound_to 11000
  146.1595  140.6809  142.9284 LP  0  0  0  0  0  0  0  0  0  0  0  0  # atno 17320 bound_to 7965
  144.7321  140.4701  143.6930 LP  0  0  0  0  0  0  0  0  0  0  0  0  # atno 17321 bound_to 7965
  140.2640  144.4037  150.6175 LP  0  0  0  0  0  0  0  0  0  0  0  0  # atno 17342 bound_to 10162
  140.6137  143.2171  151.6835 LP  0  0  0  0  0  0  0  0  0  0  0  0  # atno 17343 bound_to 10162
  157.1722  130.6272  149.5644 LP  0  0  0  0  0  0  0  0  0  0  0  0  # atno 17370 bound_to 10713
  155.9790  130.4781  150.6693 LP  0  0  0  0  0  0  0  0  0  0  0  0  # atno 17371 bound_to 10713
  140.5955  134.5608  157.5508 LP  0  0  0  0  0  0  0  0  0  0  0  0  # atno 17394 bound_to 11000
  139.9394  134.7815  156.0717 LP  0  0  0  0  0  0  0  0  0  0  0  0  # atno 17395 bound_to 11000

$$$$
