AV-unprocessed.smi:1782|AV-procd|sdf|7190|dock6
  -GOLD-   22720 8433D 1   1.00000     0.00000
 Structure written by MMmdl.
 42 44  0  0  0  0  0  0  0  0  2 V2000
  150.4791  141.1038  158.2909 O   0  0  0  0  0  0  0  0  0  0  0  0
  150.8834  141.9667  157.5130 C   0  0  0  0  0  0  0  0  0  0  0  0
  151.8755  143.0274  158.0228 C   0  0  0  0  0  0  0  0  0  0  0  0
  152.6106  142.6600  159.2480 N   0  0  0  0  0  0  0  0  0  0  0  0
  152.4551  143.5081  160.3589 C   0  0  0  0  0  0  0  0  0  0  0  0
  153.0789  143.2710  161.5206 C   0  0  0  0  0  0  0  0  0  0  0  0
  153.9291  142.1093  161.6136 C   0  0  0  0  0  0  0  0  0  0  0  0
  154.1022  141.2770  160.5609 C   0  0  0  0  0  0  0  0  0  0  0  0
  155.0032  140.0465  160.6401 C   0  0  0  0  0  0  0  0  0  0  0  0
  156.0072  140.1428  159.7680 F   0  0  0  0  0  0  0  0  0  0  0  0
  155.5225  139.9265  161.8627 F   0  0  0  0  0  0  0  0  0  0  0  0
  154.3338  138.9248  160.3702 F   0  0  0  0  0  0  0  0  0  0  0  0
  153.4101  141.5484  159.2844 C   0  0  0  0  0  0  0  0  0  0  0  0
  153.5459  140.8283  158.2940 O   0  0  0  0  0  0  0  0  0  0  0  0
  150.4958  142.0206  156.2277 N   0  0  0  0  0  0  0  0  0  0  0  0
  149.5888  141.0778  155.5852 C   0  0  2  0  0  0  0  0  0  0  0  0
  150.2481  139.7895  155.1018 C   0  0  0  0  0  0  0  0  0  0  0  0
  149.2507  139.2795  154.0562 C   0  0  0  0  0  0  0  0  0  0  0  0
  148.5686  140.4747  153.5000 N   0  3  1  0  0  0  0  0  0  0  0  0
  147.0984  140.3343  153.4184 C   0  0  0  0  0  0  0  0  0  0  0  0
  146.6477  139.0177  152.8320 C   0  0  0  0  0  0  0  0  0  0  0  0
  146.5766  140.2814  152.0021 C   0  0  0  0  0  0  0  0  0  0  0  0
  149.0084  141.6456  154.2906 C   0  0  0  0  0  0  0  0  0  0  0  0
  152.5757  143.2459  157.2152 H   0  0  0  0  0  0  0  0  0  0  0  0
  151.3316  143.9609  158.1777 H   0  0  0  0  0  0  0  0  0  0  0  0
  151.8055  144.3578  160.2052 H   0  0  0  0  0  0  0  0  0  0  0  0
  152.9503  143.9330  162.3644 H   0  0  0  0  0  0  0  0  0  0  0  0
  154.4321  141.9160  162.5494 H   0  0  0  0  0  0  0  0  0  0  0  0
  150.8683  142.7632  155.6538 H   0  0  0  0  0  0  0  0  0  0  0  0
  148.7696  140.8356  156.2654 H   0  0  0  0  0  0  0  0  0  0  0  0
  151.2069  140.0082  154.6284 H   0  0  0  0  0  0  0  0  0  0  0  0
  150.4231  139.0714  155.9036 H   0  0  0  0  0  0  0  0  0  0  0  0
  149.7394  138.7050  153.2691 H   0  0  0  0  0  0  0  0  0  0  0  0
  148.5243  138.6233  154.5391 H   0  0  0  0  0  0  0  0  0  0  0  0
  146.5196  140.8176  154.2040 H   0  0  0  0  0  0  0  0  0  0  0  0
  147.4080  138.2842  152.5684 H   0  0  0  0  0  0  0  0  0  0  0  0
  145.7071  138.6040  153.1902 H   0  0  0  0  0  0  0  0  0  0  0  0
  145.5896  140.6998  151.8146 H   0  0  0  0  0  0  0  0  0  0  0  0
  147.2892  140.3879  151.1859 H   0  0  0  0  0  0  0  0  0  0  0  0
  148.2051  142.3612  154.4730 H   0  0  0  0  0  0  0  0  0  0  0  0
  149.7830  142.1609  153.7203 H   0  0  0  0  0  0  0  0  0  0  0  0
  148.9069  140.6118  152.5582 H   0  0  0  0  0  0  0  0  0  0  0  0
  1  2  2  0  0  0  0
  2  3  1  0  0  0  0
  2 15  1  0  0  0  0
  3  4  1  0  0  0  0
  3 24  1  0  0  0  0
  3 25  1  0  0  0  0
  4 13  1  0  0  0  0
  4  5  1  0  0  0  0
  5  6  2  0  0  0  0
  5 26  1  0  0  0  0
  6  7  1  0  0  0  0
  6 27  1  0  0  0  0
  7  8  2  0  0  0  0
  7 28  1  0  0  0  0
  8  9  1  0  0  0  0
  8 13  1  0  0  0  0
  9 10  1  0  0  0  0
  9 11  1  0  0  0  0
  9 12  1  0  0  0  0
 13 14  2  0  0  0  0
 15 16  1  0  0  0  0
 15 29  1  0  0  0  0
 16 23  1  0  0  0  0
 16 17  1  0  0  0  0
 16 30  1  0  0  0  0
 17 18  1  0  0  0  0
 17 31  1  0  0  0  0
 17 32  1  0  0  0  0
 18 19  1  0  0  0  0
 18 33  1  0  0  0  0
 18 34  1  0  0  0  0
 19 20  1  0  0  0  0
 19 23  1  0  0  0  0
 19 42  1  0  0  0  0
 20 22  1  0  0  0  0
 20 21  1  0  0  0  0
 20 35  1  0  0  0  0
 21 22  1  0  0  0  0
 21 36  1  0  0  0  0
 21 37  1  0  0  0  0
 22 38  1  0  0  0  0
 22 39  1  0  0  0  0
 23 40  1  0  0  0  0
 23 41  1  0  0  0  0
M  CHG  1  19   1
M  END
> <s_m_source_file>
AV-unprocessed.smi

> <i_m_source_file_index>
1782

> <i_lp_mmshare_version>
43012

> <i_f3d_flags>
0

> <s_epik_input>
W0NIMl0xW0NIMl1bQ0hdMU4oW0NIMl0yKVtDSDJdW0NIMl1bQ0BIXTJbTkhdQyg9TylbQ0gyXW4zW2NIXVtjSF1bY0hdYyhDKEYpKEYpRiljMz1P

> <s_epik_cmdline>
J2VwaWtfcHl0aG9uJywgJy1waCcsICc3LjAnLCAnLXRuJywgJzgnLCAnLW1hJywgJzIwMCcsICctbWV0YWxfYmluZGluZycsICctaW1hZScsICc8aW5maWxlLm1hZT4nLCAnLW9tYWUnLCAnPG91dGZpbGUubWFlPic=

> <r_lp_tautomer_probability>
1

> <r_epik_Ionization_Penalty>
0.00106789

> <r_epik_Ionization_Penalty_Charging>
0.00106781

> <r_epik_Ionization_Penalty_Neutral>
8.2288e-08

> <r_epik_State_Penalty>
0.000699156

> <r_epik_Charging_Adjusted_Penalty>
0.00176697

> <i_epik_Tot_Q>
1

> <i_epik_Tot_abs_Q>
1

> <r_epik_Metal_State_Penalty>
-0

> <b_epik_Metal_Only>
0

> <s_lp_Force_Field>
OPLS_2005

> <r_lp_Energy>
47.5501

> <b_lp_Chiralities_Consistent>
1

> <s_lp_Variant>
AV-unprocessed.smi:1782-3

> <Gold.Version>
5.8.1

> <Gold.Id.Protein>
6NUR|6NUR_protein|mol2

> <Gold.PLP.Fitness>
52.8414

> <Gold.PLP.PLP>
-51.3344

> <Gold.PLP.part.hbond>
-2.4735

> <Gold.PLP.part.metal>
0.0000

> <Gold.PLP.part.buried>
1.8895

> <Gold.PLP.part.nonpolar>
-50.8092

> <Gold.PLP.part.repulsive>
0.2438

> <Gold.PLP.ligand.clash>
1.2998

> <Gold.PLP.ligand.torsion>
1.3861

> <Gold.PLP.Chemscore.Hbond>
1.3276

> <Gold.PLP.Chemscore.CHOScore>
0.0000

> <Gold.PLP.Chemscore.Metal>
0.0000

> <Gold.Chemscore.Hbonds>
donor molecule, donor type, donor heavy atom, donor atom, acceptor molecule, acceptor atom, score
      L1  H    19    42       P1  7957  1.00
      P1  H  7997  8010       L1    14  0.54

> <Gold.PLP.Chemscore.Internal.Correction>
1.5963

> <Gold.Rescore>
     Score         DG    S(hbond)    S(metal)    S(lipo)     H(rot)  DE(clash)    DE(int)     intcor
     14.02     -19.71       1.87        0.00     107.91       1.81       0.15       5.55       ----

> <Gold.Chemscore.Fitness>
14.0210

> <Gold.Chemscore.DG>
-19.7145

> <Gold.Chemscore.ZeroCoef>
-5.4800

> <Gold.Chemscore.Hbond>
1.8692

> <Gold.Chemscore.Metal>
0.0000

> <Gold.Chemscore.Lipo>
107.9062

> <Gold.Chemscore.Internal_Hbond>
0.0000

> <Gold.Chemscore.DEClash>
0.1468

> <Gold.Chemscore.DEInternal>
5.5466

> <Gold.Chemscore.Rot>
1.8101

> <Gold.Chemscore.Internal.Correction>
   9.000000E+99

> <Gold.Chemscore.Hbonds>
donor molecule, donor type, donor heavy atom, donor atom, acceptor molecule, acceptor atom, score
      L1  H    19    42       P1  7957  0.96
      P1  H  7997  8010       L1    14  0.54

> <Gold.Chemscore.Hbond.Weighted>
-6.2432

> <Gold.Chemscore.Metal.Weighted>
-0.0000

> <Gold.Chemscore.Lipo.Weighted>
-12.6250

> <Gold.Chemscore.Internal_Hbond.Weighted>
0.0000

> <Gold.Chemscore.DEClash.Weighted>
0.1468

> <Gold.Chemscore.DEInternal.Weighted>
5.5466

> <Gold.Chemscore.Rot.Weighted>
4.6338

> <Gold.Chemscore.Internal.Correction.Weighted>
   9.000000E+99

> <Gold.Protein.RotatedTorsions>
[ 6907 6896 6895 6894 ] final  109.93 input  -60.11 | X-H torsion
[ 7974 7965 7964 7962 ] final  -95.58 input  175.53 | X-H torsion
[ 8008 7997 7996 7995 ] final   28.90 input   59.86 | X-H torsion
[ 10167 10162 10161 10158 ] final  172.50 input  -65.29 | X-H torsion
[ 10718 10713 10712 10709 ] final -173.39 input   66.30 | X-H torsion
[ 10763 10752 10751 10750 ] final -153.17 input  -60.55 | X-H torsion
[ 11005 11000 10999 10996 ] final  -65.79 input  -57.11 | X-H torsion

> <Gold.Protein.ActiveResidues>
 VAL166  LYS551  ARG553  GLY616  TRP617  ASP618  TYR619  PRO620  LYS621  CYS622 
 ASP623  PHE694  ASN695  SER759  ASP760  ASP761  ALA762  ILE779  LEU786  VAL792 
 PHE793  MET794  SER795  GLU796  ALA797  LYS798  CYS799  TRP800  GLU811  SER814 

> <Gold.Protein.RotatedAtoms>
  152.5044  133.8874  159.7376 H   0  0  0  0  0  0  0  0  0  0  0  0  # atno 6907 bound_to 6896
  150.9321  133.6746  159.2815 H   0  0  0  0  0  0  0  0  0  0  0  0  # atno 6908 bound_to 6896
  151.4086  135.0986  159.9631 H   0  0  0  0  0  0  0  0  0  0  0  0  # atno 6909 bound_to 6896
  145.3581  140.9487  143.2516 H   0  0  0  0  0  0  0  0  0  0  0  0  # atno 7974 bound_to 7965
  155.0661  140.3195  155.4645 H   0  0  0  0  0  0  0  0  0  0  0  0  # atno 8008 bound_to 7997
  156.2802  140.2120  156.5733 H   0  0  0  0  0  0  0  0  0  0  0  0  # atno 8009 bound_to 7997
  154.7093  140.0499  157.0522 H   0  0  0  0  0  0  0  0  0  0  0  0  # atno 8010 bound_to 7997
  139.5078  144.3367  152.0059 H   0  0  0  0  0  0  0  0  0  0  0  0  # atno 10167 bound_to 10162
  156.7696  130.9444  151.3119 H   0  0  0  0  0  0  0  0  0  0  0  0  # atno 10718 bound_to 10713
  154.7945  135.3219  154.7698 H   0  0  0  0  0  0  0  0  0  0  0  0  # atno 10763 bound_to 10752
  153.8380  135.6873  153.4810 H   0  0  0  0  0  0  0  0  0  0  0  0  # atno 10764 bound_to 10752
  153.1630  135.4653  154.9740 H   0  0  0  0  0  0  0  0  0  0  0  0  # atno 10765 bound_to 10752
  141.1464  133.6687  156.6039 H   0  0  0  0  0  0  0  0  0  0  0  0  # atno 11005 bound_to 11000
  144.8667  139.5098  143.6787 LP  0  0  0  0  0  0  0  0  0  0  0  0  # atno 17320 bound_to 7965
  146.2939  139.7220  142.9141 LP  0  0  0  0  0  0  0  0  0  0  0  0  # atno 17321 bound_to 7965
  140.2805  144.3864  150.6120 LP  0  0  0  0  0  0  0  0  0  0  0  0  # atno 17342 bound_to 10162
  140.6021  143.2167  151.7051 LP  0  0  0  0  0  0  0  0  0  0  0  0  # atno 17343 bound_to 10162
  157.6697  130.9039  150.0012 LP  0  0  0  0  0  0  0  0  0  0  0  0  # atno 17370 bound_to 10713
  156.1286  130.3644  149.9768 LP  0  0  0  0  0  0  0  0  0  0  0  0  # atno 17371 bound_to 10713
  140.3667  134.7641  157.4571 LP  0  0  0  0  0  0  0  0  0  0  0  0  # atno 17394 bound_to 11000
  140.0743  134.5819  155.8608 LP  0  0  0  0  0  0  0  0  0  0  0  0  # atno 17395 bound_to 11000

$$$$
