AV-unprocessed.smi:1313|AV-procd|sdf|5452|dock3
  -GOLD-   22720 5 23D 1   1.00000     0.00000
 Structure written by MMmdl.
 36 37  0  0  0  0  0  0  0  0  2 V2000
  150.8778  133.4314  156.4540 C   0  0  0  0  0  0  0  0  0  0  0  0
  150.7694  134.9237  156.6834 C   0  0  0  0  0  0  0  0  0  0  0  0
  150.2017  135.3545  157.7445 N   0  0  0  0  0  0  0  0  0  0  0  0
  150.0996  136.7392  157.9613 C   0  0  0  0  0  0  0  0  0  0  0  0
  149.4110  137.1574  159.2493 C   0  0  0  0  0  0  0  0  0  0  0  0
  150.5978  137.6338  157.0597 C   0  0  0  0  0  0  0  0  0  0  0  0
  150.5113  139.1480  157.2479 C   0  0  0  0  0  0  0  0  0  0  0  0
  151.8325  139.8385  157.5898 C   0  0  0  0  0  0  0  0  0  0  0  0
  152.8230  139.6603  156.8813 O   0  0  0  0  0  0  0  0  0  0  0  0
  151.8368  140.6196  158.6811 N   0  0  0  0  0  0  0  0  0  0  0  0
  152.9995  141.3364  159.1967 C   0  0  0  0  0  0  0  0  0  0  0  0
  153.4086  140.7931  160.5789 C   0  0  0  0  0  0  0  0  0  0  0  0
  153.6391  142.0203  161.4619 C   0  0  0  0  0  0  0  0  0  0  0  0
  152.6749  143.0647  160.9092 C   0  0  0  0  0  0  0  0  0  0  0  0
  152.7023  142.8365  159.3969 C   0  0  0  0  0  0  0  0  0  0  0  0
  151.2481  137.0954  155.8510 C   0  0  0  0  0  0  0  0  0  0  0  0
  151.7242  137.8563  155.0094 O   0  0  0  0  0  0  0  0  0  0  0  0
  151.3007  135.7401  155.7108 N   0  5  0  0  0  0  0  0  0  0  0  0
  150.5112  132.8726  157.3162 H   0  0  0  0  0  0  0  0  0  0  0  0
  151.9169  133.1488  156.2815 H   0  0  0  0  0  0  0  0  0  0  0  0
  150.2908  133.1409  155.5824 H   0  0  0  0  0  0  0  0  0  0  0  0
  148.5588  137.8043  159.0409 H   0  0  0  0  0  0  0  0  0  0  0  0
  150.1058  137.6918  159.8973 H   0  0  0  0  0  0  0  0  0  0  0  0
  149.0431  136.2898  159.7982 H   0  0  0  0  0  0  0  0  0  0  0  0
  150.0990  139.6266  156.3593 H   0  0  0  0  0  0  0  0  0  0  0  0
  149.7813  139.3581  158.0302 H   0  0  0  0  0  0  0  0  0  0  0  0
  150.9769  140.7081  159.2026 H   0  0  0  0  0  0  0  0  0  0  0  0
  153.8347  141.2219  158.5030 H   0  0  0  0  0  0  0  0  0  0  0  0
  152.6040  140.1951  161.0104 H   0  0  0  0  0  0  0  0  0  0  0  0
  154.2911  140.1547  160.5272 H   0  0  0  0  0  0  0  0  0  0  0  0
  153.4760  141.8140  162.5201 H   0  0  0  0  0  0  0  0  0  0  0  0
  154.6655  142.3707  161.3445 H   0  0  0  0  0  0  0  0  0  0  0  0
  151.6710  142.8758  161.2923 H   0  0  0  0  0  0  0  0  0  0  0  0
  152.9524  144.0824  161.1859 H   0  0  0  0  0  0  0  0  0  0  0  0
  153.5118  143.4222  158.9593 H   0  0  0  0  0  0  0  0  0  0  0  0
  151.7781  143.1653  158.9192 H   0  0  0  0  0  0  0  0  0  0  0  0
  1  2  1  0  0  0  0
  1 19  1  0  0  0  0
  1 20  1  0  0  0  0
  1 21  1  0  0  0  0
  2 18  1  0  0  0  0
  2  3  2  0  0  0  0
  3  4  1  0  0  0  0
  4  5  1  0  0  0  0
  4  6  2  0  0  0  0
  5 22  1  0  0  0  0
  5 23  1  0  0  0  0
  5 24  1  0  0  0  0
  6  7  1  0  0  0  0
  6 16  1  0  0  0  0
  7  8  1  0  0  0  0
  7 25  1  0  0  0  0
  7 26  1  0  0  0  0
  8  9  2  0  0  0  0
  8 10  1  0  0  0  0
 10 11  1  0  0  0  0
 10 27  1  0  0  0  0
 11 15  1  0  0  0  0
 11 12  1  0  0  0  0
 11 28  1  0  0  0  0
 12 13  1  0  0  0  0
 12 29  1  0  0  0  0
 12 30  1  0  0  0  0
 13 14  1  0  0  0  0
 13 31  1  0  0  0  0
 13 32  1  0  0  0  0
 14 15  1  0  0  0  0
 14 33  1  0  0  0  0
 14 34  1  0  0  0  0
 15 35  1  0  0  0  0
 15 36  1  0  0  0  0
 16 17  2  0  0  0  0
 16 18  1  0  0  0  0
M  CHG  1  18  -1
M  END
> <s_m_source_file>
AV-unprocessed.smi

> <i_m_source_file_index>
1313

> <i_lp_mmshare_version>
43012

> <i_f3d_flags>
0

> <s_epik_input>
W0NIM11jMW5jKFtDSDNdKWMoYyg9TylbbkhdMSlbQ0gyXUMoPU8pW05IXVtDSF0yW0NIMl1bQ0gyXVtDSDJdW0NIMl0y

> <s_epik_cmdline>
J2VwaWtfcHl0aG9uJywgJy1waCcsICc3LjAnLCAnLXRuJywgJzgnLCAnLW1hJywgJzIwMCcsICctbWV0YWxfYmluZGluZycsICctaW1hZScsICc8aW5maWxlLm1hZT4nLCAnLW9tYWUnLCAnPG91dGZpbGUubWFlPic=

> <r_lp_tautomer_probability>
0.839158

> <r_epik_Ionization_Penalty>
6.62586

> <r_epik_Ionization_Penalty_Charging>
7.38068e-08

> <r_epik_Ionization_Penalty_Neutral>
6.62586

> <r_epik_State_Penalty>
4.443

> <r_epik_Charging_Adjusted_Penalty>
4.443

> <i_epik_Tot_Q>
-1

> <i_epik_Tot_abs_Q>
1

> <r_epik_Metal_State_Penalty>
0.804085

> <b_epik_Metal_Only>
1

> <s_lp_Force_Field>
OPLS_2005

> <r_lp_Energy>
23.3314

> <b_lp_Chiralities_Consistent>
1

> <s_lp_Variant>
AV-unprocessed.smi:1313-3

> <Gold.Version>
5.8.1

> <Gold.Id.Protein>
6NUR|6NUR_protein|mol2

> <Gold.PLP.Fitness>
40.3400

> <Gold.PLP.PLP>
-29.6700

> <Gold.PLP.part.hbond>
-3.0000

> <Gold.PLP.part.metal>
0.0000

> <Gold.PLP.part.buried>
-4.7651

> <Gold.PLP.part.nonpolar>
-22.8242

> <Gold.PLP.part.repulsive>
0.2780

> <Gold.PLP.ligand.clash>
0.0000

> <Gold.PLP.ligand.torsion>
0.2202

> <Gold.PLP.Chemscore.Hbond>
3.7020

> <Gold.PLP.Chemscore.CHOScore>
0.0000

> <Gold.PLP.Chemscore.Metal>
0.0000

> <Gold.Chemscore.Hbonds>
donor molecule, donor type, donor heavy atom, donor atom, acceptor molecule, acceptor atom, score
      P1  H  6896  6909       L1     3  0.72
      P1  H  7997  8008       L1     9  1.00
      P1  H 10752 10763       L1    18  1.98

> <Gold.PLP.Chemscore.Internal.Correction>
0.0044

> <Gold.Rescore>
     Score         DG    S(hbond)    S(metal)    S(lipo)     H(rot)  DE(clash)    DE(int)     intcor
     16.53     -18.17       2.33        0.00      74.26       1.48       0.07       1.57       ----

> <Gold.Chemscore.Fitness>
16.5265

> <Gold.Chemscore.DG>
-18.1702

> <Gold.Chemscore.ZeroCoef>
-5.4800

> <Gold.Chemscore.Hbond>
2.3308

> <Gold.Chemscore.Metal>
0.0000

> <Gold.Chemscore.Lipo>
74.2562

> <Gold.Chemscore.Internal_Hbond>
0.0000

> <Gold.Chemscore.DEClash>
0.0710

> <Gold.Chemscore.DEInternal>
1.5726

> <Gold.Chemscore.Rot>
1.4776

> <Gold.Chemscore.Internal.Correction>
   9.000000E+99

> <Gold.Chemscore.Hbonds>
donor molecule, donor type, donor heavy atom, donor atom, acceptor molecule, acceptor atom, score
      P1  H  6896  6909       L1     3  0.40
      P1  H  7997  8008       L1     9  0.96
      P1  H 10752 10763       L1    18  0.23

> <Gold.Chemscore.Hbond.Weighted>
-7.7849

> <Gold.Chemscore.Metal.Weighted>
-0.0000

> <Gold.Chemscore.Lipo.Weighted>
-8.6880

> <Gold.Chemscore.Internal_Hbond.Weighted>
0.0000

> <Gold.Chemscore.DEClash.Weighted>
0.0710

> <Gold.Chemscore.DEInternal.Weighted>
1.5726

> <Gold.Chemscore.Rot.Weighted>
3.7827

> <Gold.Chemscore.Internal.Correction.Weighted>
   9.000000E+99

> <Gold.Protein.RotatedTorsions>
[ 6907 6896 6895 6894 ] final   45.77 input  -60.11 | X-H torsion
[ 7974 7965 7964 7962 ] final  -38.10 input  175.53 | X-H torsion
[ 8008 7997 7996 7995 ] final  -39.11 input   59.86 | X-H torsion
[ 10167 10162 10161 10158 ] final   51.60 input  -65.29 | X-H torsion
[ 10718 10713 10712 10709 ] final   32.94 input   66.30 | X-H torsion
[ 10763 10752 10751 10750 ] final   55.80 input  -60.55 | X-H torsion
[ 11005 11000 10999 10996 ] final  -63.98 input  -57.11 | X-H torsion

> <Gold.Protein.ActiveResidues>
 VAL166  LYS551  ARG553  GLY616  TRP617  ASP618  TYR619  PRO620  LYS621  CYS622 
 ASP623  PHE694  ASN695  SER759  ASP760  ASP761  ALA762  ILE779  LEU786  VAL792 
 PHE793  MET794  SER795  GLU796  ALA797  LYS798  CYS799  TRP800  GLU811  SER814 

> <Gold.Protein.RotatedAtoms>
  152.2485  134.8157  160.0449 H   0  0  0  0  0  0  0  0  0  0  0  0  # atno 6907 bound_to 6896
  151.8846  133.3497  159.3786 H   0  0  0  0  0  0  0  0  0  0  0  0  # atno 6908 bound_to 6896
  150.7076  134.4911  159.5560 H   0  0  0  0  0  0  0  0  0  0  0  0  # atno 6909 bound_to 6896
  146.0516  140.6473  142.9039 H   0  0  0  0  0  0  0  0  0  0  0  0  # atno 7974 bound_to 7965
  154.4027  140.1560  156.2810 H   0  0  0  0  0  0  0  0  0  0  0  0  # atno 8008 bound_to 7997
  155.8869  140.3441  155.5906 H   0  0  0  0  0  0  0  0  0  0  0  0  # atno 8009 bound_to 7997
  155.7603  140.0816  157.2149 H   0  0  0  0  0  0  0  0  0  0  0  0  # atno 8010 bound_to 7997
  140.2602  144.3382  150.6320 H   0  0  0  0  0  0  0  0  0  0  0  0  # atno 10167 bound_to 10162
  157.2916  130.7305  149.6614 H   0  0  0  0  0  0  0  0  0  0  0  0  # atno 10718 bound_to 10713
  152.9822  135.5698  154.5126 H   0  0  0  0  0  0  0  0  0  0  0  0  # atno 10763 bound_to 10752
  154.4627  135.2782  155.1703 H   0  0  0  0  0  0  0  0  0  0  0  0  # atno 10764 bound_to 10752
  154.3283  135.6254  153.5593 H   0  0  0  0  0  0  0  0  0  0  0  0  # atno 10765 bound_to 10752
  141.1410  133.6659  156.5763 H   0  0  0  0  0  0  0  0  0  0  0  0  # atno 11005 bound_to 11000
  144.7126  140.4093  143.7069 LP  0  0  0  0  0  0  0  0  0  0  0  0  # atno 17320 bound_to 7965
  145.6714  139.1600  143.2752 LP  0  0  0  0  0  0  0  0  0  0  0  0  # atno 17321 bound_to 7965
  140.5972  143.2167  151.7142 LP  0  0  0  0  0  0  0  0  0  0  0  0  # atno 17342 bound_to 10162
  139.5019  144.3849  152.0339 LP  0  0  0  0  0  0  0  0  0  0  0  0  # atno 17343 bound_to 10162
  155.9667  130.4307  150.4888 LP  0  0  0  0  0  0  0  0  0  0  0  0  # atno 17370 bound_to 10713
  157.2852  131.0615  151.2171 LP  0  0  0  0  0  0  0  0  0  0  0  0  # atno 17371 bound_to 10713
  140.3873  134.7471  157.4699 LP  0  0  0  0  0  0  0  0  0  0  0  0  # atno 17394 bound_to 11000
  140.0593  134.6019  155.8768 LP  0  0  0  0  0  0  0  0  0  0  0  0  # atno 17395 bound_to 11000

$$$$
