AV-unprocessed.smi:2079|AV-procd|sdf|8484|dock2
  -GOLD-   2272011193D 1   1.00000     0.00000
 Structure written by MMmdl.
 41 42  0  0  0  0  0  0  0  0  3 V2000
  147.4195  135.9989  163.0744 C   0  0  0  0  0  0  0  0  0  0  0  0
  147.6485  135.9360  161.6033 C   0  0  0  0  0  0  0  0  0  0  0  0
  147.7758  134.8972  160.7249 C   0  0  0  0  0  0  0  0  0  0  0  0
  147.9825  135.5514  159.4810 C   0  0  0  0  0  0  0  0  0  0  0  0
  148.1663  134.8009  158.2896 N   0  0  0  0  0  0  0  0  0  0  0  0
  148.4281  135.2441  157.0464 C   0  0  0  0  0  0  0  0  0  0  0  0
  148.5254  136.4568  156.8224 O   0  0  0  0  0  0  0  0  0  0  0  0
  148.5521  134.2255  156.1506 N   0  5  0  0  0  0  0  0  0  0  0  0
  148.3704  134.3580  154.7058 C   0  0  0  0  0  0  0  0  0  0  0  0
  146.9242  134.7862  154.3820 C   0  0  0  0  0  0  0  0  0  0  0  0
  146.6154  134.6460  152.9329 N   0  3  1  0  0  0  0  0  0  0  0  0
  146.5708  133.2355  152.4500 C   0  0  0  0  0  0  0  0  0  0  0  0
  146.4875  133.1817  150.9157 C   0  0  0  0  0  0  0  0  0  0  0  0
  145.2869  133.9826  150.3961 C   0  0  0  0  0  0  0  0  0  0  0  0
  145.3323  135.4180  150.9423 C   0  0  0  0  0  0  0  0  0  0  0  0
  145.4403  135.4504  152.4815 C   0  0  1  0  0  0  0  0  0  0  0  0
  144.1195  135.0456  153.1725 C   0  0  0  0  0  0  0  0  0  0  0  0
  147.9773  136.8717  159.5915 N   0  0  0  0  0  0  0  0  0  0  0  0
  147.7647  137.1247  160.9517 O   0  0  0  0  0  0  0  0  0  0  0  0
  147.1731  135.0145  163.4729 H   0  0  0  0  0  0  0  0  0  0  0  0
  146.5971  136.6744  163.3099 H   0  0  0  0  0  0  0  0  0  0  0  0
  148.3113  136.3587  163.5878 H   0  0  0  0  0  0  0  0  0  0  0  0
  147.7312  133.8397  160.9395 H   0  0  0  0  0  0  0  0  0  0  0  0
  148.1044  133.7988  158.3922 H   0  0  0  0  0  0  0  0  0  0  0  0
  149.0622  135.0787  154.2674 H   0  0  0  0  0  0  0  0  0  0  0  0
  148.5797  133.4151  154.2007 H   0  0  0  0  0  0  0  0  0  0  0  0
  146.2031  134.2216  154.9752 H   0  0  0  0  0  0  0  0  0  0  0  0
  146.8113  135.8299  154.6790 H   0  0  0  0  0  0  0  0  0  0  0  0
  147.4653  132.7004  152.7698 H   0  0  0  0  0  0  0  0  0  0  0  0
  145.7260  132.7106  152.8967 H   0  0  0  0  0  0  0  0  0  0  0  0
  147.4069  133.5827  150.4870 H   0  0  0  0  0  0  0  0  0  0  0  0
  146.4172  132.1462  150.5820 H   0  0  0  0  0  0  0  0  0  0  0  0
  145.2891  133.9959  149.3058 H   0  0  0  0  0  0  0  0  0  0  0  0
  144.3588  133.4954  150.6959 H   0  0  0  0  0  0  0  0  0  0  0  0
  146.1935  135.9327  150.5136 H   0  0  0  0  0  0  0  0  0  0  0  0
  144.4539  135.9731  150.6114 H   0  0  0  0  0  0  0  0  0  0  0  0
  145.6399  136.4868  152.7579 H   0  0  0  0  0  0  0  0  0  0  0  0
  143.3007  135.6828  152.8377 H   0  0  0  0  0  0  0  0  0  0  0  0
  144.1801  135.1495  154.2557 H   0  0  0  0  0  0  0  0  0  0  0  0
  143.8346  134.0164  152.9570 H   0  0  0  0  0  0  0  0  0  0  0  0
  147.4069  135.0674  152.4678 H   0  0  0  0  0  0  0  0  0  0  0  0
  1  2  1  0  0  0  0
  1 20  1  0  0  0  0
  1 21  1  0  0  0  0
  1 22  1  0  0  0  0
  2 19  1  0  0  0  0
  2  3  2  0  0  0  0
  3  4  1  0  0  0  0
  3 23  1  0  0  0  0
  4  5  1  0  0  0  0
  4 18  2  0  0  0  0
  5  6  1  0  0  0  0
  5 24  1  0  0  0  0
  6  7  2  0  0  0  0
  6  8  1  0  0  0  0
  8  9  1  0  0  0  0
  9 10  1  0  0  0  0
  9 25  1  0  0  0  0
  9 26  1  0  0  0  0
 10 11  1  0  0  0  0
 10 27  1  0  0  0  0
 10 28  1  0  0  0  0
 11 16  1  0  0  0  0
 11 12  1  0  0  0  0
 11 41  1  0  0  0  0
 12 13  1  0  0  0  0
 12 29  1  0  0  0  0
 12 30  1  0  0  0  0
 13 14  1  0  0  0  0
 13 31  1  0  0  0  0
 13 32  1  0  0  0  0
 14 15  1  0  0  0  0
 14 33  1  0  0  0  0
 14 34  1  0  0  0  0
 15 16  1  0  0  0  0
 15 35  1  0  0  0  0
 15 36  1  0  0  0  0
 16 17  1  0  0  0  0
 16 37  1  0  0  0  0
 17 38  1  0  0  0  0
 17 39  1  0  0  0  0
 17 40  1  0  0  0  0
 18 19  1  0  0  0  0
M  CHG  1   8  -1
M  CHG  1  11   1
M  END
> <s_m_source_file>
AV-unprocessed.smi

> <i_m_source_file_index>
2079

> <i_lp_mmshare_version>
43012

> <i_f3d_flags>
0

> <s_epik_input>
W0NIM11jMVtjSF1jKG5vMSlbTkhdQyg9TylbTkhdW0NIMl1bQ0gyXU4yW0NIMl1bQ0gyXVtDSDJdW0NIMl1bQ0BIXTJbQ0gzXQ==

> <s_epik_cmdline>
J2VwaWtfcHl0aG9uJywgJy1waCcsICc3LjAnLCAnLXRuJywgJzgnLCAnLW1hJywgJzIwMCcsICctbWV0YWxfYmluZGluZycsICctaW1hZScsICc8aW5maWxlLm1hZT4nLCAnLW9tYWUnLCAnPG91dGZpbGUubWFlPic=

> <r_epik_Ionization_Penalty>
6.7666

> <r_epik_Ionization_Penalty_Charging>
6.7666

> <r_epik_Ionization_Penalty_Neutral>
5.77131e-06

> <r_epik_State_Penalty>
6.79217

> <r_epik_Charging_Adjusted_Penalty>
13.5588

> <i_epik_Tot_Q>
0

> <i_epik_Tot_abs_Q>
2

> <r_epik_Metal_State_Penalty>
2.72569

> <b_epik_Metal_Only>
1

> <s_lp_Force_Field>
OPLS_2005

> <r_lp_Energy>
14.7698

> <b_lp_Chiralities_Consistent>
1

> <s_lp_Variant>
AV-unprocessed.smi:2079-10

> <Gold.Version>
5.8.1

> <Gold.Id.Protein>
6NUR|6NUR_protein|mol2

> <Gold.PLP.Fitness>
37.9454

> <Gold.PLP.PLP>
-27.0381

> <Gold.PLP.part.hbond>
-3.0023

> <Gold.PLP.part.metal>
0.0000

> <Gold.PLP.part.buried>
-2.1720

> <Gold.PLP.part.nonpolar>
-21.7038

> <Gold.PLP.part.repulsive>
0.0865

> <Gold.PLP.ligand.clash>
0.0000

> <Gold.PLP.ligand.torsion>
0.2557

> <Gold.PLP.Chemscore.Hbond>
3.7760

> <Gold.PLP.Chemscore.CHOScore>
0.0000

> <Gold.PLP.Chemscore.Metal>
0.0000

> <Gold.Chemscore.Hbonds>
donor molecule, donor type, donor heavy atom, donor atom, acceptor molecule, acceptor atom, score
      L1  H    11    41       P1  7948  2.00
      P1  H  6931  6943       L1    19  0.93
      P1  H  6934  6947       L1    19  0.88

> <Gold.PLP.Chemscore.Internal.Correction>
0.0907

> <Gold.Rescore>
     Score         DG    S(hbond)    S(metal)    S(lipo)     H(rot)  DE(clash)    DE(int)     intcor
     14.08     -15.87       2.09        0.00      62.94       1.54       0.16       1.63       ----

> <Gold.Chemscore.Fitness>
14.0825

> <Gold.Chemscore.DG>
-15.8746

> <Gold.Chemscore.ZeroCoef>
-5.4800

> <Gold.Chemscore.Hbond>
2.0884

> <Gold.Chemscore.Metal>
0.0000

> <Gold.Chemscore.Lipo>
62.9397

> <Gold.Chemscore.Internal_Hbond>
0.0000

> <Gold.Chemscore.DEClash>
0.1596

> <Gold.Chemscore.DEInternal>
1.6325

> <Gold.Chemscore.Rot>
1.5409

> <Gold.Chemscore.Internal.Correction>
   9.000000E+99

> <Gold.Chemscore.Hbonds>
donor molecule, donor type, donor heavy atom, donor atom, acceptor molecule, acceptor atom, score
      L1  H    11    41       P1  7948  0.96
      P1  H  6931  6943       L1    19  0.60
      P1  H  6934  6947       L1    19  0.29

> <Gold.Chemscore.Hbond.Weighted>
-6.9753

> <Gold.Chemscore.Metal.Weighted>
-0.0000

> <Gold.Chemscore.Lipo.Weighted>
-7.3639

> <Gold.Chemscore.Internal_Hbond.Weighted>
0.0000

> <Gold.Chemscore.DEClash.Weighted>
0.1596

> <Gold.Chemscore.DEInternal.Weighted>
1.6325

> <Gold.Chemscore.Rot.Weighted>
3.9446

> <Gold.Chemscore.Internal.Correction.Weighted>
   9.000000E+99

> <Gold.Protein.RotatedTorsions>
[ 6907 6896 6895 6894 ] final  146.99 input  -60.11 | X-H torsion
[ 7974 7965 7964 7962 ] final   96.54 input  175.53 | X-H torsion
[ 8008 7997 7996 7995 ] final   29.00 input   59.86 | X-H torsion
[ 10167 10162 10161 10158 ] final  146.66 input  -65.29 | X-H torsion
[ 10718 10713 10712 10709 ] final   92.89 input   66.30 | X-H torsion
[ 10763 10752 10751 10750 ] final   62.54 input  -60.55 | X-H torsion
[ 11005 11000 10999 10996 ] final -171.42 input  -57.11 | X-H torsion

> <Gold.Protein.ActiveResidues>
 VAL166  LYS551  ARG553  GLY616  TRP617  ASP618  TYR619  PRO620  LYS621  CYS622 
 ASP623  PHE694  ASN695  SER759  ASP760  ASP761  ALA762  ILE779  LEU786  VAL792 
 PHE793  MET794  SER795  GLU796  ALA797  LYS798  CYS799  TRP800  GLU811  SER814 

> <Gold.Protein.RotatedAtoms>
  152.1606  133.4579  159.4858 H   0  0  0  0  0  0  0  0  0  0  0  0  # atno 6907 bound_to 6896
  150.6906  134.2076  159.4355 H   0  0  0  0  0  0  0  0  0  0  0  0  # atno 6908 bound_to 6896
  151.9978  134.9944  160.0614 H   0  0  0  0  0  0  0  0  0  0  0  0  # atno 6909 bound_to 6896
  145.4374  139.2304  143.3110 H   0  0  0  0  0  0  0  0  0  0  0  0  # atno 7974 bound_to 7965
  155.0676  140.3197  155.4641 H   0  0  0  0  0  0  0  0  0  0  0  0  # atno 8008 bound_to 7997
  156.2798  140.2118  156.5748 H   0  0  0  0  0  0  0  0  0  0  0  0  # atno 8009 bound_to 7997
  154.7081  140.0500  157.0511 H   0  0  0  0  0  0  0  0  0  0  0  0  # atno 8010 bound_to 7997
  139.4903  144.5813  151.6866 H   0  0  0  0  0  0  0  0  0  0  0  0  # atno 10167 bound_to 10162
  157.6957  131.0459  150.3950 H   0  0  0  0  0  0  0  0  0  0  0  0  # atno 10718 bound_to 10713
  152.9986  135.5461  154.6209 H   0  0  0  0  0  0  0  0  0  0  0  0  # atno 10763 bound_to 10752
  154.5509  135.2826  155.1011 H   0  0  0  0  0  0  0  0  0  0  0  0  # atno 10764 bound_to 10752
  154.2252  135.6443  153.5210 H   0  0  0  0  0  0  0  0  0  0  0  0  # atno 10765 bound_to 10752
  140.5084  134.5825  157.5011 H   0  0  0  0  0  0  0  0  0  0  0  0  # atno 11005 bound_to 11000
  146.2574  140.5119  142.8867 LP  0  0  0  0  0  0  0  0  0  0  0  0  # atno 17320 bound_to 7965
  144.8143  140.6441  143.6394 LP  0  0  0  0  0  0  0  0  0  0  0  0  # atno 17321 bound_to 7965
  140.5419  144.0565  150.6092 LP  0  0  0  0  0  0  0  0  0  0  0  0  # atno 17342 bound_to 10162
  140.3590  143.2919  152.0404 LP  0  0  0  0  0  0  0  0  0  0  0  0  # atno 17343 bound_to 10162
  156.4349  130.3979  149.6735 LP  0  0  0  0  0  0  0  0  0  0  0  0  # atno 17370 bound_to 10713
  156.3939  130.7641  151.2644 LP  0  0  0  0  0  0  0  0  0  0  0  0  # atno 17371 bound_to 10713
  139.9673  134.7352  156.0113 LP  0  0  0  0  0  0  0  0  0  0  0  0  # atno 17394 bound_to 11000
  141.1398  133.6567  156.3698 LP  0  0  0  0  0  0  0  0  0  0  0  0  # atno 17395 bound_to 11000

$$$$
