AV-unprocessed.smi:2208|AV-procd|sdf|8945|dock3
  -GOLD-   2272012163D 1   1.00000     0.00000
 Structure written by MMmdl.
 35 36  0  0  0  0  0  0  0  0  1 V2000
  148.2275  138.5916  154.9353 C   0  0  0  0  0  0  0  0  0  0  0  0
  147.2689  139.7478  154.9447 C   0  0  0  0  0  0  0  0  0  0  0  0
  146.0082  139.5320  155.2791 N   0  0  0  0  0  0  0  0  0  0  0  0
  145.3727  140.7747  155.2049 O   0  0  0  0  0  0  0  0  0  0  0  0
  146.2877  141.7026  154.8271 C   0  0  0  0  0  0  0  0  0  0  0  0
  145.8007  143.1064  154.7036 C   0  0  0  0  0  0  0  0  0  0  0  0
  147.5123  141.1204  154.6449 C   0  0  0  0  0  0  0  0  0  0  0  0
  148.8099  141.7781  154.2460 C   0  0  0  0  0  0  0  0  0  0  0  0
  149.8892  141.4113  155.2636 C   0  0  0  0  0  0  0  0  0  0  0  0
  150.5706  140.3995  155.1016 O   0  0  0  0  0  0  0  0  0  0  0  0
  150.0543  142.2631  156.2870 N   0  0  0  0  0  0  0  0  0  0  0  0
  151.1336  142.2051  157.2669 C   0  0  0  0  0  0  0  0  0  0  0  0
  150.9608  143.2521  158.3860 C   0  0  2  0  0  0  0  0  0  0  0  0
  151.8334  144.5077  158.2604 C   0  0  0  0  0  0  0  0  0  0  0  0
  152.0098  144.9124  159.7061 C   0  0  0  0  0  0  0  0  0  0  0  0
  152.1295  143.5548  160.3880 C   0  0  0  0  0  0  0  0  0  0  0  0
  151.2538  142.6946  159.6668 O   0  0  0  0  0  0  0  0  0  0  0  0
  149.2241  138.8974  154.6191 H   0  0  0  0  0  0  0  0  0  0  0  0
  147.8915  137.8097  154.2539 H   0  0  0  0  0  0  0  0  0  0  0  0
  148.3190  138.1510  155.9282 H   0  0  0  0  0  0  0  0  0  0  0  0
  145.0792  143.3380  155.4875 H   0  0  0  0  0  0  0  0  0  0  0  0
  145.3172  143.2634  153.7395 H   0  0  0  0  0  0  0  0  0  0  0  0
  146.6250  143.8148  154.7884 H   0  0  0  0  0  0  0  0  0  0  0  0
  149.1333  141.4724  153.2507 H   0  0  0  0  0  0  0  0  0  0  0  0
  148.7081  142.8635  154.2091 H   0  0  0  0  0  0  0  0  0  0  0  0
  149.4382  143.0612  156.3386 H   0  0  0  0  0  0  0  0  0  0  0  0
  151.1336  141.2058  157.7023 H   0  0  0  0  0  0  0  0  0  0  0  0
  152.1029  142.3261  156.7807 H   0  0  0  0  0  0  0  0  0  0  0  0
  149.9154  143.5617  158.4191 H   0  0  0  0  0  0  0  0  0  0  0  0
  152.8088  144.2804  157.8307 H   0  0  0  0  0  0  0  0  0  0  0  0
  151.3711  145.2859  157.6527 H   0  0  0  0  0  0  0  0  0  0  0  0
  152.8785  145.5504  159.8707 H   0  0  0  0  0  0  0  0  0  0  0  0
  151.1226  145.4377  160.0620 H   0  0  0  0  0  0  0  0  0  0  0  0
  153.1466  143.1731  160.2960 H   0  0  0  0  0  0  0  0  0  0  0  0
  151.8749  143.5910  161.4472 H   0  0  0  0  0  0  0  0  0  0  0  0
  1  2  1  0  0  0  0
  1 18  1  0  0  0  0
  1 19  1  0  0  0  0
  1 20  1  0  0  0  0
  2  7  1  0  0  0  0
  2  3  2  0  0  0  0
  3  4  1  0  0  0  0
  4  5  1  0  0  0  0
  5  6  1  0  0  0  0
  5  7  2  0  0  0  0
  6 21  1  0  0  0  0
  6 22  1  0  0  0  0
  6 23  1  0  0  0  0
  7  8  1  0  0  0  0
  8  9  1  0  0  0  0
  8 24  1  0  0  0  0
  8 25  1  0  0  0  0
  9 10  2  0  0  0  0
  9 11  1  0  0  0  0
 11 12  1  0  0  0  0
 11 26  1  0  0  0  0
 12 13  1  0  0  0  0
 12 27  1  0  0  0  0
 12 28  1  0  0  0  0
 13 17  1  0  0  0  0
 13 14  1  0  0  0  0
 13 29  1  0  0  0  0
 14 15  1  0  0  0  0
 14 30  1  0  0  0  0
 14 31  1  0  0  0  0
 15 16  1  0  0  0  0
 15 32  1  0  0  0  0
 15 33  1  0  0  0  0
 16 17  1  0  0  0  0
 16 34  1  0  0  0  0
 16 35  1  0  0  0  0
M  END
> <s_m_source_file>
AV-unprocessed.smi

> <i_m_source_file_index>
2208

> <i_lp_mmshare_version>
43012

> <i_f3d_flags>
0

> <s_epik_input>
W0NIM11jMW5vYyhbQ0gzXSljMVtDSDJdQyg9TylbTkhdW0NIMl1bQ0BASF0yW0NIMl1bQ0gyXVtDSDJdTzI=

> <s_epik_cmdline>
J2VwaWtfcHl0aG9uJywgJy1waCcsICc3LjAnLCAnLXRuJywgJzgnLCAnLW1hJywgJzIwMCcsICctbWV0YWxfYmluZGluZycsICctaW1hZScsICc8aW5maWxlLm1hZT4nLCAnLW9tYWUnLCAnPG91dGZpbGUubWFlPic=

> <r_lp_tautomer_probability>
1

> <r_epik_Ionization_Penalty>
3.13901e-08

> <r_epik_Ionization_Penalty_Charging>
0

> <r_epik_Ionization_Penalty_Neutral>
3.13901e-08

> <r_epik_State_Penalty>
-0

> <r_epik_Charging_Adjusted_Penalty>
0

> <i_epik_Tot_Q>
0

> <i_epik_Tot_abs_Q>
0

> <r_epik_Metal_State_Penalty>
-0

> <b_epik_Metal_Only>
0

> <s_lp_Force_Field>
OPLS_2005

> <r_lp_Energy>
11.1183

> <b_lp_Chiralities_Consistent>
1

> <s_lp_Variant>
AV-unprocessed.smi:2208-1

> <Gold.Version>
5.8.1

> <Gold.Id.Protein>
6NUR|6NUR_protein|mol2

> <Gold.PLP.Fitness>
37.3928

> <Gold.PLP.PLP>
-33.4643

> <Gold.PLP.part.hbond>
-2.0000

> <Gold.PLP.part.metal>
0.0000

> <Gold.PLP.part.buried>
-3.4616

> <Gold.PLP.part.nonpolar>
-28.1957

> <Gold.PLP.part.repulsive>
0.3398

> <Gold.PLP.ligand.clash>
0.0000

> <Gold.PLP.ligand.torsion>
1.0382

> <Gold.PLP.Chemscore.Hbond>
2.0000

> <Gold.PLP.Chemscore.CHOScore>
0.0000

> <Gold.PLP.Chemscore.Metal>
0.0000

> <Gold.Chemscore.Hbonds>
donor molecule, donor type, donor heavy atom, donor atom, acceptor molecule, acceptor atom, score
      L1  H    11    26       P1  8028  0.99
      P1  H  7989  7998       L1    10  1.00

> <Gold.PLP.Chemscore.Internal.Correction>
0.0049

> <Gold.Rescore>
     Score         DG    S(hbond)    S(metal)    S(lipo)     H(rot)  DE(clash)    DE(int)     intcor
     16.00     -17.05       1.67        0.00      85.08       1.56       0.03       1.01       ----

> <Gold.Chemscore.Fitness>
16.0028

> <Gold.Chemscore.DG>
-17.0454

> <Gold.Chemscore.ZeroCoef>
-5.4800

> <Gold.Chemscore.Hbond>
1.6742

> <Gold.Chemscore.Metal>
0.0000

> <Gold.Chemscore.Lipo>
85.0823

> <Gold.Chemscore.Internal_Hbond>
0.0000

> <Gold.Chemscore.DEClash>
0.0295

> <Gold.Chemscore.DEInternal>
1.0131

> <Gold.Chemscore.Rot>
1.5551

> <Gold.Chemscore.Internal.Correction>
   9.000000E+99

> <Gold.Chemscore.Hbonds>
donor molecule, donor type, donor heavy atom, donor atom, acceptor molecule, acceptor atom, score
      L1  H    11    26       P1  8028  0.94
      P1  H  7989  7998       L1    10  0.33

> <Gold.Chemscore.Hbond.Weighted>
-5.5917

> <Gold.Chemscore.Metal.Weighted>
-0.0000

> <Gold.Chemscore.Lipo.Weighted>
-9.9546

> <Gold.Chemscore.Internal_Hbond.Weighted>
0.0000

> <Gold.Chemscore.DEClash.Weighted>
0.0295

> <Gold.Chemscore.DEInternal.Weighted>
1.0131

> <Gold.Chemscore.Rot.Weighted>
3.9809

> <Gold.Chemscore.Internal.Correction.Weighted>
   9.000000E+99

> <Gold.Protein.RotatedTorsions>
[ 6907 6896 6895 6894 ] final  176.05 input  -60.11 | X-H torsion
[ 7974 7965 7964 7962 ] final  -16.45 input  175.53 | X-H torsion
[ 8008 7997 7996 7995 ] final  -46.72 input   59.86 | X-H torsion
[ 10167 10162 10161 10158 ] final -107.95 input  -65.29 | X-H torsion
[ 10718 10713 10712 10709 ] final   90.59 input   66.30 | X-H torsion
[ 10763 10752 10751 10750 ] final  -29.65 input  -60.55 | X-H torsion
[ 11005 11000 10999 10996 ] final  169.39 input  -57.11 | X-H torsion

> <Gold.Protein.ActiveResidues>
 VAL166  LYS551  ARG553  GLY616  TRP617  ASP618  TYR619  PRO620  LYS621  CYS622 
 ASP623  PHE694  ASN695  SER759  ASP760  ASP761  ALA762  ILE779  LEU786  VAL792 
 PHE793  MET794  SER795  GLU796  ALA797  LYS798  CYS799  TRP800  GLU811  SER814 

> <Gold.Protein.RotatedAtoms>
  151.7263  133.3316  159.3328 H   0  0  0  0  0  0  0  0  0  0  0  0  # atno 6907 bound_to 6896
  150.7631  134.6403  159.6243 H   0  0  0  0  0  0  0  0  0  0  0  0  # atno 6908 bound_to 6896
  152.3620  134.6861  160.0256 H   0  0  0  0  0  0  0  0  0  0  0  0  # atno 6909 bound_to 6896
  146.1987  140.3639  142.8431 H   0  0  0  0  0  0  0  0  0  0  0  0  # atno 7974 bound_to 7965
  154.4010  140.1364  156.4057 H   0  0  0  0  0  0  0  0  0  0  0  0  # atno 8008 bound_to 7997
  155.7782  140.3482  155.5262 H   0  0  0  0  0  0  0  0  0  0  0  0  # atno 8009 bound_to 7997
  155.8700  140.0970  157.1547 H   0  0  0  0  0  0  0  0  0  0  0  0  # atno 8010 bound_to 7997
  140.1714  143.4040  152.1351 H   0  0  0  0  0  0  0  0  0  0  0  0  # atno 10167 bound_to 10162
  157.6959  131.0376  150.3601 H   0  0  0  0  0  0  0  0  0  0  0  0  # atno 10718 bound_to 10713
  153.7681  135.6914  153.4912 H   0  0  0  0  0  0  0  0  0  0  0  0  # atno 10763 bound_to 10752
  153.1893  135.4477  155.0127 H   0  0  0  0  0  0  0  0  0  0  0  0  # atno 10764 bound_to 10752
  154.8128  135.3385  154.7193 H   0  0  0  0  0  0  0  0  0  0  0  0  # atno 10765 bound_to 10752
  140.2973  134.7624  157.3887 H   0  0  0  0  0  0  0  0  0  0  0  0  # atno 11005 bound_to 11000
  144.8635  140.7173  143.6092 LP  0  0  0  0  0  0  0  0  0  0  0  0  # atno 17320 bound_to 7965
  145.3558  139.1694  143.4410 LP  0  0  0  0  0  0  0  0  0  0  0  0  # atno 17321 bound_to 7965
  139.5336  144.7186  151.4969 LP  0  0  0  0  0  0  0  0  0  0  0  0  # atno 17342 bound_to 10162
  140.6580  143.8559  150.6856 LP  0  0  0  0  0  0  0  0  0  0  0  0  # atno 17343 bound_to 10162
  156.4039  130.3921  149.6940 LP  0  0  0  0  0  0  0  0  0  0  0  0  # atno 17370 bound_to 10713
  156.4248  130.7786  151.2804 LP  0  0  0  0  0  0  0  0  0  0  0  0  # atno 17371 bound_to 10713
  140.1141  134.5306  155.8240 LP  0  0  0  0  0  0  0  0  0  0  0  0  # atno 17394 bound_to 11000
  141.2135  133.6734  156.6744 LP  0  0  0  0  0  0  0  0  0  0  0  0  # atno 17395 bound_to 11000

$$$$
