AV-unprocessed.smi:435|AV-procd|sdf|2557|dock1
  -GOLD-   2262022523D 1   1.00000     0.00000
 Structure written by MMmdl.
 44 45  0  0  0  0  0  0  0  0  1 V2000
  150.5006  144.0378  158.4738 C   0  0  0  0  0  0  0  0  0  0  0  0
  151.2676  142.7617  158.6935 C   0  0  0  0  0  0  0  0  0  0  0  0
  151.0048  141.7816  157.8928 N   0  0  0  0  0  0  0  0  0  0  0  0
  151.6476  140.5643  158.0107 N   0  0  0  0  0  0  0  0  0  0  0  0
  151.2173  139.5586  157.0285 C   0  0  0  0  0  0  0  0  0  0  0  0
  150.4121  140.1586  155.8672 C   0  0  0  0  0  0  0  0  0  0  0  0
  150.7188  139.9148  154.6993 O   0  0  0  0  0  0  0  0  0  0  0  0
  149.3658  140.9249  156.2105 N   0  0  0  0  0  0  0  0  0  0  0  0
  148.4512  141.5838  155.2798 C   0  0  2  0  0  0  0  0  0  0  0  0
  147.1632  142.0114  156.0095 C   0  0  0  0  0  0  0  0  0  0  0  0
  146.2875  140.8086  156.4043 C   0  0  0  0  0  0  0  0  0  0  0  0
  145.9577  139.9196  155.1900 C   0  0  2  0  0  0  0  0  0  0  0  0
  145.0904  138.7193  155.5945 C   0  0  0  0  0  0  0  0  0  0  0  0
  147.2517  139.4692  154.4850 C   0  0  0  0  0  0  0  0  0  0  0  0
  148.1252  140.6702  154.0804 C   0  0  0  0  0  0  0  0  0  0  0  0
  152.5995  140.2759  158.9446 C   0  0  0  0  0  0  0  0  0  0  0  0
  153.1516  139.1764  159.0099 O   0  0  0  0  0  0  0  0  0  0  0  0
  152.8929  141.3911  159.8474 C   0  0  0  0  0  0  0  0  0  0  0  0
  153.8800  141.1289  160.8445 C   0  0  0  0  0  0  0  0  0  0  0  0
  154.6852  140.9359  161.6536 N   0  0  0  0  0  0  0  0  0  0  0  0
  152.2677  142.5904  159.7427 C   0  0  0  0  0  0  0  0  0  0  0  0
  152.5366  143.7790  160.6555 C   0  0  0  0  0  0  0  0  0  0  0  0
  151.1712  144.8462  158.1820 H   0  0  0  0  0  0  0  0  0  0  0  0
  149.9813  144.3399  159.3835 H   0  0  0  0  0  0  0  0  0  0  0  0
  149.7504  143.9314  157.6884 H   0  0  0  0  0  0  0  0  0  0  0  0
  152.0834  139.0462  156.6057 H   0  0  0  0  0  0  0  0  0  0  0  0
  150.6324  138.7816  157.5247 H   0  0  0  0  0  0  0  0  0  0  0  0
  149.1865  141.0643  157.1944 H   0  0  0  0  0  0  0  0  0  0  0  0
  148.9338  142.4887  154.9058 H   0  0  0  0  0  0  0  0  0  0  0  0
  147.4082  142.6012  156.8938 H   0  0  0  0  0  0  0  0  0  0  0  0
  146.5875  142.6700  155.3581 H   0  0  0  0  0  0  0  0  0  0  0  0
  146.7971  140.2178  157.1665 H   0  0  0  0  0  0  0  0  0  0  0  0
  145.3655  141.1675  156.8630 H   0  0  0  0  0  0  0  0  0  0  0  0
  145.3809  140.5175  154.4828 H   0  0  0  0  0  0  0  0  0  0  0  0
  145.6099  138.0763  156.3057 H   0  0  0  0  0  0  0  0  0  0  0  0
  144.8292  138.1129  154.7271 H   0  0  0  0  0  0  0  0  0  0  0  0
  144.1599  139.0466  156.0591 H   0  0  0  0  0  0  0  0  0  0  0  0
  147.8195  138.8077  155.1412 H   0  0  0  0  0  0  0  0  0  0  0  0
  147.0078  138.8832  153.5982 H   0  0  0  0  0  0  0  0  0  0  0  0
  147.5987  141.2520  153.3228 H   0  0  0  0  0  0  0  0  0  0  0  0
  149.0433  140.3216  153.6060 H   0  0  0  0  0  0  0  0  0  0  0  0
  153.3555  143.5897  161.3489 H   0  0  0  0  0  0  0  0  0  0  0  0
  151.6507  144.0122  161.2471 H   0  0  0  0  0  0  0  0  0  0  0  0
  152.8038  144.6610  160.0725 H   0  0  0  0  0  0  0  0  0  0  0  0
  1  2  1  0  0  0  0
  1 23  1  0  0  0  0
  1 24  1  0  0  0  0
  1 25  1  0  0  0  0
  2 21  1  0  0  0  0
  2  3  2  0  0  0  0
  3  4  1  0  0  0  0
  4  5  1  0  0  0  0
  4 16  1  0  0  0  0
  5  6  1  0  0  0  0
  5 26  1  0  0  0  0
  5 27  1  0  0  0  0
  6  7  2  0  0  0  0
  6  8  1  0  0  0  0
  8  9  1  0  0  0  0
  8 28  1  0  0  0  0
  9 15  1  0  0  0  0
  9 10  1  0  0  0  0
  9 29  1  0  0  0  0
 10 11  1  0  0  0  0
 10 30  1  0  0  0  0
 10 31  1  0  0  0  0
 11 12  1  0  0  0  0
 11 32  1  0  0  0  0
 11 33  1  0  0  0  0
 12 13  1  0  0  0  0
 12 14  1  0  0  0  0
 12 34  1  0  0  0  0
 13 35  1  0  0  0  0
 13 36  1  0  0  0  0
 13 37  1  0  0  0  0
 14 15  1  0  0  0  0
 14 38  1  0  0  0  0
 14 39  1  0  0  0  0
 15 40  1  0  0  0  0
 15 41  1  0  0  0  0
 16 17  2  0  0  0  0
 16 18  1  0  0  0  0
 18 19  1  0  0  0  0
 18 21  2  0  0  0  0
 19 20  3  0  0  0  0
 21 22  1  0  0  0  0
 22 42  1  0  0  0  0
 22 43  1  0  0  0  0
 22 44  1  0  0  0  0
M  END
> <s_m_source_file>
AV-unprocessed.smi

> <i_m_source_file_index>
435

> <i_lp_mmshare_version>
43012

> <i_f3d_flags>
0

> <s_epik_input>
TiNDYyhjMVtDSDNdKWMoPU8pbihuYzFbQ0gzXSlbQ0gyXUMoPU8pW05IXVtDQEBIXTJbQ0gyXVtDSDJdW0NAQEhdKFtDSDNdKVtDSDJdW0NIMl0y

> <s_epik_cmdline>
J2VwaWtfcHl0aG9uJywgJy1waCcsICc3LjAnLCAnLXRuJywgJzgnLCAnLW1hJywgJzIwMCcsICctbWV0YWxfYmluZGluZycsICctaW1hZScsICc8aW5maWxlLm1hZT4nLCAnLW9tYWUnLCAnPG91dGZpbGUubWFlPic=

> <r_lp_tautomer_probability>
1

> <r_epik_Ionization_Penalty>
1.90703e-08

> <r_epik_Ionization_Penalty_Charging>
2.32563e-11

> <r_epik_Ionization_Penalty_Neutral>
1.90471e-08

> <r_epik_State_Penalty>
-0

> <r_epik_Charging_Adjusted_Penalty>
2.32563e-11

> <i_epik_Tot_Q>
0

> <i_epik_Tot_abs_Q>
0

> <r_epik_Metal_State_Penalty>
-0

> <b_epik_Metal_Only>
0

> <s_lp_Force_Field>
OPLS_2005

> <r_lp_Energy>
22.9488

> <b_lp_Chiralities_Consistent>
1

> <s_lp_Variant>
AV-unprocessed.smi:435-2

> <Gold.Version>
5.8.1

> <Gold.Id.Protein>
6NUR|6NUR_protein|mol2

> <Gold.PLP.Fitness>
39.0030

> <Gold.PLP.PLP>
-34.9940

> <Gold.PLP.part.hbond>
-2.6583

> <Gold.PLP.part.metal>
0.0000

> <Gold.PLP.part.buried>
-4.5269

> <Gold.PLP.part.nonpolar>
-28.0868

> <Gold.PLP.part.repulsive>
0.1865

> <Gold.PLP.ligand.clash>
0.0000

> <Gold.PLP.ligand.torsion>
0.4950

> <Gold.PLP.Chemscore.Hbond>
1.6638

> <Gold.PLP.Chemscore.CHOScore>
0.0000

> <Gold.PLP.Chemscore.Metal>
0.0000

> <Gold.Chemscore.Hbonds>
donor molecule, donor type, donor heavy atom, donor atom, acceptor molecule, acceptor atom, score
      P1  H  7989  7998       L1     7  1.00

> <Gold.PLP.Chemscore.Internal.Correction>
0.0078

> <Gold.Rescore>
     Score         DG    S(hbond)    S(metal)    S(lipo)     H(rot)  DE(clash)    DE(int)     intcor
     13.43     -14.97       1.00        0.00      84.62       1.46       0.05       1.49       ----

> <Gold.Chemscore.Fitness>
13.4305

> <Gold.Chemscore.DG>
-14.9720

> <Gold.Chemscore.ZeroCoef>
-5.4800

> <Gold.Chemscore.Hbond>
0.9980

> <Gold.Chemscore.Metal>
0.0000

> <Gold.Chemscore.Lipo>
84.6168

> <Gold.Chemscore.Internal_Hbond>
0.0000

> <Gold.Chemscore.DEClash>
0.0529

> <Gold.Chemscore.DEInternal>
1.4886

> <Gold.Chemscore.Rot>
1.4615

> <Gold.Chemscore.Internal.Correction>
   9.000000E+99

> <Gold.Chemscore.Hbonds>
donor molecule, donor type, donor heavy atom, donor atom, acceptor molecule, acceptor atom, score
      P1  H  7989  7998       L1     7  1.00

> <Gold.Chemscore.Hbond.Weighted>
-3.3332

> <Gold.Chemscore.Metal.Weighted>
-0.0000

> <Gold.Chemscore.Lipo.Weighted>
-9.9002

> <Gold.Chemscore.Internal_Hbond.Weighted>
0.0000

> <Gold.Chemscore.DEClash.Weighted>
0.0529

> <Gold.Chemscore.DEInternal.Weighted>
1.4886

> <Gold.Chemscore.Rot.Weighted>
3.7414

> <Gold.Chemscore.Internal.Correction.Weighted>
   9.000000E+99

> <Gold.Protein.RotatedTorsions>
[ 6907 6896 6895 6894 ] final  -41.33 input  -60.11 | X-H torsion
[ 7974 7965 7964 7962 ] final -149.00 input  175.53 | X-H torsion
[ 8008 7997 7996 7995 ] final -107.87 input   59.86 | X-H torsion
[ 10167 10162 10161 10158 ] final   90.08 input  -65.29 | X-H torsion
[ 10718 10713 10712 10709 ] final   97.60 input   66.30 | X-H torsion
[ 10763 10752 10751 10750 ] final   74.77 input  -60.55 | X-H torsion
[ 11005 11000 10999 10996 ] final    2.23 input  -57.11 | X-H torsion

> <Gold.Protein.ActiveResidues>
 VAL166  LYS551  ARG553  GLY616  TRP617  ASP618  TYR619  PRO620  LYS621  CYS622 
 ASP623  PHE694  ASN695  SER759  ASP760  ASP761  ALA762  ILE779  LEU786  VAL792 
 PHE793  MET794  SER795  GLU796  ALA797  LYS798  CYS799  TRP800  GLU811  SER814 

> <Gold.Protein.RotatedAtoms>
  150.9680  134.9057  159.7770 H   0  0  0  0  0  0  0  0  0  0  0  0  # atno 6907 bound_to 6896
  152.5180  134.3580  159.9285 H   0  0  0  0  0  0  0  0  0  0  0  0  # atno 6908 bound_to 6896
  151.3590  133.3856  159.2722 H   0  0  0  0  0  0  0  0  0  0  0  0  # atno 6909 bound_to 6896
  144.7994  140.5122  143.5717 H   0  0  0  0  0  0  0  0  0  0  0  0  # atno 7974 bound_to 7965
  154.9357  140.0404  157.2071 H   0  0  0  0  0  0  0  0  0  0  0  0  # atno 8008 bound_to 7997
  154.8117  140.2869  155.5827 H   0  0  0  0  0  0  0  0  0  0  0  0  # atno 8009 bound_to 7997
  156.2972  140.2535  156.3007 H   0  0  0  0  0  0  0  0  0  0  0  0  # atno 8010 bound_to 7997
  139.8509  144.6594  150.9171 H   0  0  0  0  0  0  0  0  0  0  0  0  # atno 10167 bound_to 10162
  157.6910  131.0614  150.4668 H   0  0  0  0  0  0  0  0  0  0  0  0  # atno 10718 bound_to 10713
  153.0609  135.5013  154.8091 H   0  0  0  0  0  0  0  0  0  0  0  0  # atno 10763 bound_to 10752
  154.6881  135.2979  154.9521 H   0  0  0  0  0  0  0  0  0  0  0  0  # atno 10764 bound_to 10752
  154.0285  135.6733  153.4831 H   0  0  0  0  0  0  0  0  0  0  0  0  # atno 10765 bound_to 10752
  140.6066  133.9786  155.8157 H   0  0  0  0  0  0  0  0  0  0  0  0  # atno 11005 bound_to 11000
  145.5591  139.1479  143.3351 LP  0  0  0  0  0  0  0  0  0  0  0  0  # atno 17320 bound_to 7965
  146.2271  140.5727  142.8991 LP  0  0  0  0  0  0  0  0  0  0  0  0  # atno 17321 bound_to 7965
  140.7787  143.3828  151.1446 LP  0  0  0  0  0  0  0  0  0  0  0  0  # atno 17342 bound_to 10162
  139.7466  143.8842  152.3065 LP  0  0  0  0  0  0  0  0  0  0  0  0  # atno 17343 bound_to 10162
  156.5009  130.4117  149.6354 LP  0  0  0  0  0  0  0  0  0  0  0  0  # atno 17370 bound_to 10713
  156.3329  130.7341  151.2274 LP  0  0  0  0  0  0  0  0  0  0  0  0  # atno 17371 bound_to 10713
  141.0836  134.0024  157.3348 LP  0  0  0  0  0  0  0  0  0  0  0  0  # atno 17394 bound_to 11000
  139.9210  135.0200  156.8062 LP  0  0  0  0  0  0  0  0  0  0  0  0  # atno 17395 bound_to 11000

$$$$
