AV-unprocessed.smi:2519|AV-procd|sdf|9903|dock3
  -GOLD-   2272013543D 1   1.00000     0.00000
 Structure written by MMmdl.
 43 44  0  0  0  0  0  0  0  0  1 V2000
  148.8651  132.0242  153.5760 C   0  0  0  0  0  0  0  0  0  0  0  0
  147.9255  132.9321  152.9368 N   0  0  0  0  0  0  0  0  0  0  0  0
  146.8312  132.5438  152.2613 C   0  0  0  0  0  0  0  0  0  0  0  0
  146.5112  131.3616  152.1271 O   0  0  0  0  0  0  0  0  0  0  0  0
  145.9907  133.6474  151.6718 C   0  0  0  0  0  0  0  0  0  0  0  0
  145.1211  133.3751  150.5922 C   0  0  0  0  0  0  0  0  0  0  0  0
  144.3549  134.4266  150.0587 C   0  0  0  0  0  0  0  0  0  0  0  0
  144.4804  135.7115  150.6179 C   0  0  0  0  0  0  0  0  0  0  0  0
  145.3688  135.9119  151.6960 C   0  0  0  0  0  0  0  0  0  0  0  0
  145.4223  137.2394  152.1957 N   0  0  0  0  0  0  0  0  0  0  0  0
  145.8756  137.6643  153.3922 C   0  0  0  0  0  0  0  0  0  0  0  0
  146.3866  136.9403  154.2451 O   0  0  0  0  0  0  0  0  0  0  0  0
  145.7357  138.9868  153.5987 N   0  0  0  0  0  0  0  0  0  0  0  0
  146.1159  139.7779  154.7742 C   0  0  2  0  0  0  0  0  0  0  0  0
  146.2898  141.2569  154.3795 C   0  0  0  0  0  0  0  0  0  0  0  0
  147.5395  141.4834  153.5116 C   0  0  0  0  0  0  0  0  0  0  0  0
  148.8043  140.9382  154.1933 C   0  0  0  0  0  0  0  0  0  0  0  0
  148.6588  139.4466  154.5606 C   0  0  1  0  0  0  0  0  0  0  0  0
  149.9302  138.8897  155.2332 C   0  0  0  0  0  0  0  0  0  0  0  0
  150.9776  138.9749  154.4126 F   0  0  0  0  0  0  0  0  0  0  0  0
  150.1965  139.5760  156.3447 F   0  0  0  0  0  0  0  0  0  0  0  0
  149.7474  137.6122  155.5677 F   0  0  0  0  0  0  0  0  0  0  0  0
  147.4036  139.2381  155.4375 C   0  0  0  0  0  0  0  0  0  0  0  0
  146.1023  134.8904  152.2005 N   0  0  0  0  0  0  0  0  0  0  0  0
  149.6207  132.5933  154.1178 H   0  0  0  0  0  0  0  0  0  0  0  0
  149.3705  131.4059  152.8332 H   0  0  0  0  0  0  0  0  0  0  0  0
  148.3565  131.3709  154.2859 H   0  0  0  0  0  0  0  0  0  0  0  0
  148.1148  133.9224  153.0031 H   0  0  0  0  0  0  0  0  0  0  0  0
  145.0362  132.3826  150.1740 H   0  0  0  0  0  0  0  0  0  0  0  0
  143.6814  134.2508  149.2330 H   0  0  0  0  0  0  0  0  0  0  0  0
  143.8985  136.5306  150.2204 H   0  0  0  0  0  0  0  0  0  0  0  0
  145.0464  137.9488  151.5842 H   0  0  0  0  0  0  0  0  0  0  0  0
  145.3323  139.5129  152.8369 H   0  0  0  0  0  0  0  0  0  0  0  0
  145.3003  139.7296  155.4977 H   0  0  0  0  0  0  0  0  0  0  0  0
  145.4020  141.6169  153.8579 H   0  0  0  0  0  0  0  0  0  0  0  0
  146.3731  141.8600  155.2845 H   0  0  0  0  0  0  0  0  0  0  0  0
  147.4098  141.0010  152.5421 H   0  0  0  0  0  0  0  0  0  0  0  0
  147.6596  142.5478  153.3090 H   0  0  0  0  0  0  0  0  0  0  0  0
  149.6592  141.0800  153.5317 H   0  0  0  0  0  0  0  0  0  0  0  0
  149.0109  141.5210  155.0917 H   0  0  0  0  0  0  0  0  0  0  0  0
  148.5164  138.8895  153.6332 H   0  0  0  0  0  0  0  0  0  0  0  0
  147.5460  139.7472  156.3916 H   0  0  0  0  0  0  0  0  0  0  0  0
  147.2894  138.1819  155.6815 H   0  0  0  0  0  0  0  0  0  0  0  0
  1  2  1  0  0  0  0
  1 25  1  0  0  0  0
  1 26  1  0  0  0  0
  1 27  1  0  0  0  0
  2  3  1  0  0  0  0
  2 28  1  0  0  0  0
  3  4  2  0  0  0  0
  3  5  1  0  0  0  0
  5 24  1  0  0  0  0
  5  6  2  0  0  0  0
  6  7  1  0  0  0  0
  6 29  1  0  0  0  0
  7  8  2  0  0  0  0
  7 30  1  0  0  0  0
  8  9  1  0  0  0  0
  8 31  1  0  0  0  0
  9 10  1  0  0  0  0
  9 24  2  0  0  0  0
 10 11  1  0  0  0  0
 10 32  1  0  0  0  0
 11 12  2  0  0  0  0
 11 13  1  0  0  0  0
 13 14  1  0  0  0  0
 13 33  1  0  0  0  0
 14 23  1  0  0  0  0
 14 15  1  0  0  0  0
 14 34  1  0  0  0  0
 15 16  1  0  0  0  0
 15 35  1  0  0  0  0
 15 36  1  0  0  0  0
 16 17  1  0  0  0  0
 16 37  1  0  0  0  0
 16 38  1  0  0  0  0
 17 18  1  0  0  0  0
 17 39  1  0  0  0  0
 17 40  1  0  0  0  0
 18 19  1  0  0  0  0
 18 23  1  0  0  0  0
 18 41  1  0  0  0  0
 19 20  1  0  0  0  0
 19 21  1  0  0  0  0
 19 22  1  0  0  0  0
 23 42  1  0  0  0  0
 23 43  1  0  0  0  0
M  END
> <s_m_source_file>
AV-unprocessed.smi

> <i_m_source_file_index>
2519

> <i_lp_mmshare_version>
43012

> <i_f3d_flags>
0

> <s_epik_input>
W0NIM11bTkhdQyg9TyljMVtjSF1bY0hdW2NIXWMobjEpW05IXUMoPU8pW05IXVtDQEBIXTJbQ0gyXVtDSDJdW0NIMl1bQ0BASF0oQyhGKShGKUYpW0NIMl0y

> <s_epik_cmdline>
J2VwaWtfcHl0aG9uJywgJy1waCcsICc3LjAnLCAnLXRuJywgJzgnLCAnLW1hJywgJzIwMCcsICctbWV0YWxfYmluZGluZycsICctaW1hZScsICc8aW5maWxlLm1hZT4nLCAnLW9tYWUnLCAnPG91dGZpbGUubWFlPic=

> <r_lp_tautomer_probability>
1

> <r_epik_Ionization_Penalty>
3.74915e-05

> <r_epik_Ionization_Penalty_Charging>
0

> <r_epik_Ionization_Penalty_Neutral>
3.74915e-05

> <r_epik_State_Penalty>
-0

> <r_epik_Charging_Adjusted_Penalty>
0

> <i_epik_Tot_Q>
0

> <i_epik_Tot_abs_Q>
0

> <r_epik_Metal_State_Penalty>
-0

> <b_epik_Metal_Only>
0

> <s_lp_Force_Field>
OPLS_2005

> <r_lp_Energy>
26.8043

> <b_lp_Chiralities_Consistent>
1

> <s_lp_Variant>
AV-unprocessed.smi:2519-1

> <Gold.Version>
5.8.1

> <Gold.Id.Protein>
6NUR|6NUR_protein|mol2

> <Gold.PLP.Fitness>
35.7367

> <Gold.PLP.PLP>
-33.0393

> <Gold.PLP.part.hbond>
-1.6292

> <Gold.PLP.part.metal>
0.0000

> <Gold.PLP.part.buried>
-3.6572

> <Gold.PLP.part.nonpolar>
-28.5737

> <Gold.PLP.part.repulsive>
0.5622

> <Gold.PLP.ligand.clash>
0.0000

> <Gold.PLP.ligand.torsion>
0.6485

> <Gold.PLP.Chemscore.Hbond>
1.3205

> <Gold.PLP.Chemscore.CHOScore>
0.0000

> <Gold.PLP.Chemscore.Metal>
0.0000

> <Gold.Chemscore.Hbonds>
donor molecule, donor type, donor heavy atom, donor atom, acceptor molecule, acceptor atom, score
      L1  H    10    32       P1 10171  0.52
      L1  H    13    33       P1 10175  0.75

> <Gold.PLP.Chemscore.Internal.Correction>
0.0329

> <Gold.Rescore>
     Score         DG    S(hbond)    S(metal)    S(lipo)     H(rot)  DE(clash)    DE(int)     intcor
     11.50     -15.11       1.34        0.00      66.00       1.00       0.18       3.43       ----

> <Gold.Chemscore.Fitness>
11.4993

> <Gold.Chemscore.DG>
-15.1080

> <Gold.Chemscore.ZeroCoef>
-5.4800

> <Gold.Chemscore.Hbond>
1.3371

> <Gold.Chemscore.Metal>
0.0000

> <Gold.Chemscore.Lipo>
66.0013

> <Gold.Chemscore.Internal_Hbond>
0.0000

> <Gold.Chemscore.DEClash>
0.1779

> <Gold.Chemscore.DEInternal>
3.4308

> <Gold.Chemscore.Rot>
1.0000

> <Gold.Chemscore.Internal.Correction>
   9.000000E+99

> <Gold.Chemscore.Hbonds>
donor molecule, donor type, donor heavy atom, donor atom, acceptor molecule, acceptor atom, score
      L1  H    10    32       P1 10171  0.50
      L1  H    13    33       P1 10175  0.75

> <Gold.Chemscore.Hbond.Weighted>
-4.4658

> <Gold.Chemscore.Metal.Weighted>
-0.0000

> <Gold.Chemscore.Lipo.Weighted>
-7.7221

> <Gold.Chemscore.Internal_Hbond.Weighted>
0.0000

> <Gold.Chemscore.DEClash.Weighted>
0.1779

> <Gold.Chemscore.DEInternal.Weighted>
3.4308

> <Gold.Chemscore.Rot.Weighted>
2.5600

> <Gold.Chemscore.Internal.Correction.Weighted>
   9.000000E+99

> <Gold.Protein.RotatedTorsions>
[ 6907 6896 6895 6894 ] final   47.66 input  -60.11 | X-H torsion
[ 7974 7965 7964 7962 ] final  -87.65 input  175.53 | X-H torsion
[ 8008 7997 7996 7995 ] final  139.86 input   59.86 | X-H torsion
[ 10167 10162 10161 10158 ] final  -80.90 input  -65.29 | X-H torsion
[ 10718 10713 10712 10709 ] final  -17.12 input   66.30 | X-H torsion
[ 10763 10752 10751 10750 ] final -127.74 input  -60.55 | X-H torsion
[ 11005 11000 10999 10996 ] final  112.91 input  -57.11 | X-H torsion

> <Gold.Protein.ActiveResidues>
 VAL166  LYS551  ARG553  GLY616  TRP617  ASP618  TYR619  PRO620  LYS621  CYS622 
 ASP623  PHE694  ASN695  SER759  ASP760  ASP761  ALA762  ILE779  LEU786  VAL792 
 PHE793  MET794  SER795  GLU796  ALA797  LYS798  CYS799  TRP800  GLU811  SER814 

> <Gold.Protein.RotatedAtoms>
  152.2706  134.7937  160.0414 H   0  0  0  0  0  0  0  0  0  0  0  0  # atno 6907 bound_to 6896
  151.8551  133.3441  159.3694 H   0  0  0  0  0  0  0  0  0  0  0  0  # atno 6908 bound_to 6896
  150.7150  134.5189  159.5688 H   0  0  0  0  0  0  0  0  0  0  0  0  # atno 6909 bound_to 6896
  145.4637  140.9560  143.1955 H   0  0  0  0  0  0  0  0  0  0  0  0  # atno 7974 bound_to 7965
  156.2985  140.2356  156.4306 H   0  0  0  0  0  0  0  0  0  0  0  0  # atno 8008 bound_to 7997
  154.8274  140.0434  157.1473 H   0  0  0  0  0  0  0  0  0  0  0  0  # atno 8009 bound_to 7997
  154.9246  140.3008  155.5202 H   0  0  0  0  0  0  0  0  0  0  0  0  # atno 8010 bound_to 7997
  140.4461  143.2498  151.8556 H   0  0  0  0  0  0  0  0  0  0  0  0  # atno 10167 bound_to 10162
  156.5781  130.4767  149.6333 H   0  0  0  0  0  0  0  0  0  0  0  0  # atno 10718 bound_to 10713
  154.8754  135.3951  154.3644 H   0  0  0  0  0  0  0  0  0  0  0  0  # atno 10763 bound_to 10752
  153.4412  135.7027  153.6173 H   0  0  0  0  0  0  0  0  0  0  0  0  # atno 10764 bound_to 10752
  153.4753  135.3781  155.2382 H   0  0  0  0  0  0  0  0  0  0  0  0  # atno 10765 bound_to 10752
  139.8939  134.9539  156.6658 H   0  0  0  0  0  0  0  0  0  0  0  0  # atno 11005 bound_to 11000
  144.7987  139.6183  143.7081 LP  0  0  0  0  0  0  0  0  0  0  0  0  # atno 17320 bound_to 7965
  146.2437  139.6053  142.9474 LP  0  0  0  0  0  0  0  0  0  0  0  0  # atno 17321 bound_to 7965
  139.4793  144.5174  151.8849 LP  0  0  0  0  0  0  0  0  0  0  0  0  # atno 17342 bound_to 10162
  140.4262  144.2177  150.5887 LP  0  0  0  0  0  0  0  0  0  0  0  0  # atno 17343 bound_to 10162
  156.2656  130.6987  151.1769 LP  0  0  0  0  0  0  0  0  0  0  0  0  # atno 17370 bound_to 10713
  157.7333  131.0592  150.5584 LP  0  0  0  0  0  0  0  0  0  0  0  0  # atno 17371 bound_to 10713
  140.7412  133.8976  155.8279 LP  0  0  0  0  0  0  0  0  0  0  0  0  # atno 17394 bound_to 11000
  141.0076  134.1064  157.4254 LP  0  0  0  0  0  0  0  0  0  0  0  0  # atno 17395 bound_to 11000

$$$$
