AV-unprocessed.smi:1111|AV-procd|sdf|4792|dock1
  -GOLD-   22720 3343D 1   1.00000     0.00000
 Structure written by MMmdl.
 32 33  0  0  0  0  0  0  0  0  1 V2000
  149.6391  141.1929  155.1687 C   0  0  0  0  0  0  0  0  0  0  0  0
  150.6765  140.5161  156.0887 C   0  0  1  0  0  0  0  0  0  0  0  0
  151.4507  141.5209  156.8272 N   0  0  0  0  0  0  0  0  0  0  0  0
  151.0516  142.3009  157.8469 C   0  0  0  0  0  0  0  0  0  0  0  0
  149.9541  142.2131  158.3957 O   0  0  0  0  0  0  0  0  0  0  0  0
  152.0446  143.3721  158.2959 C   0  0  0  0  0  0  0  0  0  0  0  0
  152.3197  143.2475  159.7153 N   0  0  0  0  0  0  0  0  0  0  0  0
  152.0228  144.1683  160.7129 C   0  0  0  0  0  0  0  0  0  0  0  0
  152.4466  143.6128  161.8988 C   0  0  0  0  0  0  0  0  0  0  0  0
  153.0049  142.3598  161.6569 N   0  0  0  0  0  0  0  0  0  0  0  0
  152.8929  142.2112  160.3434 C   0  0  0  0  0  0  0  0  0  0  0  0
  149.9621  139.6319  157.1389 C   0  0  0  0  0  0  0  0  0  0  0  0
  150.9757  138.6845  157.7960 C   0  0  0  0  0  0  0  0  0  0  0  0
  152.2356  138.3370  156.5143 S   0  0  0  0  0  0  0  0  0  0  0  0
  153.5505  138.7652  157.0152 O   0  0  0  0  0  0  0  0  0  0  0  0
  152.0333  136.9845  155.9731 O   0  0  0  0  0  0  0  0  0  0  0  0
  151.6137  139.5680  155.3060 C   0  0  0  0  0  0  0  0  0  0  0  0
  148.9983  140.4541  154.6864 H   0  0  0  0  0  0  0  0  0  0  0  0
  150.1119  141.7699  154.3741 H   0  0  0  0  0  0  0  0  0  0  0  0
  148.9933  141.8685  155.7307 H   0  0  0  0  0  0  0  0  0  0  0  0
  152.3814  141.6916  156.4744 H   0  0  0  0  0  0  0  0  0  0  0  0
  152.9798  143.2782  157.7420 H   0  0  0  0  0  0  0  0  0  0  0  0
  151.6442  144.3664  158.0933 H   0  0  0  0  0  0  0  0  0  0  0  0
  151.5428  145.1127  160.5035 H   0  0  0  0  0  0  0  0  0  0  0  0
  152.3908  144.0144  162.8998 H   0  0  0  0  0  0  0  0  0  0  0  0
  153.2315  141.3254  159.8258 H   0  0  0  0  0  0  0  0  0  0  0  0
  149.4305  140.2247  157.8845 H   0  0  0  0  0  0  0  0  0  0  0  0
  149.2086  139.0234  156.6365 H   0  0  0  0  0  0  0  0  0  0  0  0
  151.4748  139.1665  158.6369 H   0  0  0  0  0  0  0  0  0  0  0  0
  150.5249  137.7551  158.1440 H   0  0  0  0  0  0  0  0  0  0  0  0
  151.0545  139.0197  154.5472 H   0  0  0  0  0  0  0  0  0  0  0  0
  152.4498  140.0588  154.8085 H   0  0  0  0  0  0  0  0  0  0  0  0
  1  2  1  0  0  0  0
  1 18  1  0  0  0  0
  1 19  1  0  0  0  0
  1 20  1  0  0  0  0
  2 17  1  0  0  0  0
  2  3  1  0  0  0  0
  2 12  1  0  0  0  0
  3  4  1  0  0  0  0
  3 21  1  0  0  0  0
  4  5  2  0  0  0  0
  4  6  1  0  0  0  0
  6  7  1  0  0  0  0
  6 22  1  0  0  0  0
  6 23  1  0  0  0  0
  7 11  1  0  0  0  0
  7  8  1  0  0  0  0
  8  9  2  0  0  0  0
  8 24  1  0  0  0  0
  9 10  1  0  0  0  0
  9 25  1  0  0  0  0
 10 11  2  0  0  0  0
 11 26  1  0  0  0  0
 12 13  1  0  0  0  0
 12 27  1  0  0  0  0
 12 28  1  0  0  0  0
 13 14  1  0  0  0  0
 13 29  1  0  0  0  0
 13 30  1  0  0  0  0
 14 15  2  0  0  0  0
 14 16  2  0  0  0  0
 14 17  1  0  0  0  0
 17 31  1  0  0  0  0
 17 32  1  0  0  0  0
M  END
> <s_m_source_file>
AV-unprocessed.smi

> <i_m_source_file_index>
1111

> <i_lp_mmshare_version>
43012

> <i_f3d_flags>
0

> <s_epik_input>
Tz1TKD1PKShbQ0gyXTEpW0NIMl1bQ0gyXVtDQEBdMShbQ0gzXSlbTkhdQyg9TylbQ0gyXW4yW2NIXVtjSF1uW2NIXTI=

> <s_epik_cmdline>
J2VwaWtfcHl0aG9uJywgJy1waCcsICc3LjAnLCAnLXRuJywgJzgnLCAnLW1hJywgJzIwMCcsICctbWV0YWxfYmluZGluZycsICctaW1hZScsICc8aW5maWxlLm1hZT4nLCAnLW9tYWUnLCAnPG91dGZpbGUubWFlPic=

> <r_lp_tautomer_probability>
1

> <r_epik_Ionization_Penalty>
0.246342

> <r_epik_Ionization_Penalty_Charging>
0.246341

> <r_epik_Ionization_Penalty_Neutral>
5.91248e-07

> <r_epik_State_Penalty>
0.237514

> <r_epik_Charging_Adjusted_Penalty>
0.483856

> <i_epik_Tot_Q>
0

> <i_epik_Tot_abs_Q>
0

> <r_epik_Metal_State_Penalty>
0.166715

> <b_epik_Metal_Only>
0

> <s_lp_Force_Field>
OPLS_2005

> <r_lp_Energy>
5.37624

> <b_lp_Chiralities_Consistent>
1

> <s_lp_Variant>
AV-unprocessed.smi:1111-1

> <Gold.Version>
5.8.1

> <Gold.Id.Protein>
6NUR|6NUR_protein|mol2

> <Gold.PLP.Fitness>
40.4246

> <Gold.PLP.PLP>
-34.9670

> <Gold.PLP.part.hbond>
-1.8025

> <Gold.PLP.part.metal>
0.0000

> <Gold.PLP.part.buried>
-3.6483

> <Gold.PLP.part.nonpolar>
-29.4905

> <Gold.PLP.part.repulsive>
0.2479

> <Gold.PLP.ligand.clash>
0.0000

> <Gold.PLP.ligand.torsion>
0.2827

> <Gold.PLP.Chemscore.Hbond>
2.0000

> <Gold.PLP.Chemscore.CHOScore>
0.0000

> <Gold.PLP.Chemscore.Metal>
0.0000

> <Gold.Chemscore.Hbonds>
donor molecule, donor type, donor heavy atom, donor atom, acceptor molecule, acceptor atom, score
      P1  H  7997  8010       L1    15  1.00
      P1  H 10752 10764       L1    16  0.89

> <Gold.PLP.Chemscore.Internal.Correction>
0.0230

> <Gold.Rescore>
     Score         DG    S(hbond)    S(metal)    S(lipo)     H(rot)  DE(clash)    DE(int)     intcor
     13.32     -14.91       1.92        0.00      63.86       1.73       0.09       1.51       ----

> <Gold.Chemscore.Fitness>
13.3205

> <Gold.Chemscore.DG>
-14.9147

> <Gold.Chemscore.ZeroCoef>
-5.4800

> <Gold.Chemscore.Hbond>
1.9158

> <Gold.Chemscore.Metal>
0.0000

> <Gold.Chemscore.Lipo>
63.8618

> <Gold.Chemscore.Internal_Hbond>
0.0000

> <Gold.Chemscore.DEClash>
0.0859

> <Gold.Chemscore.DEInternal>
1.5084

> <Gold.Chemscore.Rot>
1.7328

> <Gold.Chemscore.Internal.Correction>
   9.000000E+99

> <Gold.Chemscore.Hbonds>
donor molecule, donor type, donor heavy atom, donor atom, acceptor molecule, acceptor atom, score
      P1  H  7997  8010       L1    15  0.93
      P1  H 10752 10764       L1    16  0.82

> <Gold.Chemscore.Hbond.Weighted>
-6.3989

> <Gold.Chemscore.Metal.Weighted>
-0.0000

> <Gold.Chemscore.Lipo.Weighted>
-7.4718

> <Gold.Chemscore.Internal_Hbond.Weighted>
0.0000

> <Gold.Chemscore.DEClash.Weighted>
0.0859

> <Gold.Chemscore.DEInternal.Weighted>
1.5084

> <Gold.Chemscore.Rot.Weighted>
4.4360

> <Gold.Chemscore.Internal.Correction.Weighted>
   9.000000E+99

> <Gold.Protein.RotatedTorsions>
[ 6907 6896 6895 6894 ] final  156.89 input  -60.11 | X-H torsion
[ 7974 7965 7964 7962 ] final   35.15 input  175.53 | X-H torsion
[ 8008 7997 7996 7995 ] final   54.38 input   59.86 | X-H torsion
[ 10167 10162 10161 10158 ] final  -18.07 input  -65.29 | X-H torsion
[ 10718 10713 10712 10709 ] final   32.83 input   66.30 | X-H torsion
[ 10763 10752 10751 10750 ] final  -32.24 input  -60.55 | X-H torsion
[ 11005 11000 10999 10996 ] final  113.26 input  -57.11 | X-H torsion

> <Gold.Protein.ActiveResidues>
 VAL166  LYS551  ARG553  GLY616  TRP617  ASP618  TYR619  PRO620  LYS621  CYS622 
 ASP623  PHE694  ASN695  SER759  ASP760  ASP761  ALA762  ILE779  LEU786  VAL792 
 PHE793  MET794  SER795  GLU796  ALA797  LYS798  CYS799  TRP800  GLU811  SER814 

> <Gold.Protein.RotatedAtoms>
  152.0231  133.3907  159.4266 H   0  0  0  0  0  0  0  0  0  0  0  0  # atno 6907 bound_to 6896
  150.6888  134.3604  159.4957 H   0  0  0  0  0  0  0  0  0  0  0  0  # atno 6908 bound_to 6896
  152.1380  134.9084  160.0606 H   0  0  0  0  0  0  0  0  0  0  0  0  # atno 6909 bound_to 6896
  146.1303  139.6179  142.9231 H   0  0  0  0  0  0  0  0  0  0  0  0  # atno 7974 bound_to 7965
  155.4838  140.3469  155.4344 H   0  0  0  0  0  0  0  0  0  0  0  0  # atno 8008 bound_to 7997
  156.1021  140.1438  156.9481 H   0  0  0  0  0  0  0  0  0  0  0  0  # atno 8009 bound_to 7997
  154.4701  140.0904  156.7100 H   0  0  0  0  0  0  0  0  0  0  0  0  # atno 8010 bound_to 7997
  140.7254  143.4953  150.9939 H   0  0  0  0  0  0  0  0  0  0  0  0  # atno 10167 bound_to 10162
  157.2902  130.7298  149.6606 H   0  0  0  0  0  0  0  0  0  0  0  0  # atno 10718 bound_to 10713
  153.8104  135.6883  153.4842 H   0  0  0  0  0  0  0  0  0  0  0  0  # atno 10763 bound_to 10752
  153.1632  135.4572  154.9799 H   0  0  0  0  0  0  0  0  0  0  0  0  # atno 10764 bound_to 10752
  154.7969  135.3323  154.7585 H   0  0  0  0  0  0  0  0  0  0  0  0  # atno 10765 bound_to 10752
  139.8948  134.9546  156.6711 H   0  0  0  0  0  0  0  0  0  0  0  0  # atno 11005 bound_to 11000
  145.5275  141.0429  143.2401 LP  0  0  0  0  0  0  0  0  0  0  0  0  # atno 17320 bound_to 7965
  144.7684  139.6792  143.7205 LP  0  0  0  0  0  0  0  0  0  0  0  0  # atno 17321 bound_to 7965
  139.8659  143.7254  152.3170 LP  0  0  0  0  0  0  0  0  0  0  0  0  # atno 17342 bound_to 10162
  139.7486  144.7540  151.0541 LP  0  0  0  0  0  0  0  0  0  0  0  0  # atno 17343 bound_to 10162
  155.9667  130.4311  150.4906 LP  0  0  0  0  0  0  0  0  0  0  0  0  # atno 17370 bound_to 10713
  157.2867  131.0618  151.2161 LP  0  0  0  0  0  0  0  0  0  0  0  0  # atno 17371 bound_to 10713
  140.7372  133.9008  155.8253 LP  0  0  0  0  0  0  0  0  0  0  0  0  # atno 17394 bound_to 11000
  141.0106  134.1025  157.4225 LP  0  0  0  0  0  0  0  0  0  0  0  0  # atno 17395 bound_to 11000

$$$$
