AV-unprocessed.smi:1111|AV-procd|sdf|4795|dock2
  -GOLD-   22720 3343D 1   1.00000     0.00000
 Structure written by MMmdl.
 33 34  0  0  0  0  0  0  0  0  2 V2000
  149.0353  130.5557  154.7104 C   0  0  0  0  0  0  0  0  0  0  0  0
  148.2069  129.9903  153.5371 C   0  0  2  0  0  0  0  0  0  0  0  0
  147.8850  131.0513  152.5726 N   0  0  0  0  0  0  0  0  0  0  0  0
  147.1030  132.1308  152.7509 C   0  0  0  0  0  0  0  0  0  0  0  0
  146.4975  132.3794  153.7925 O   0  0  0  0  0  0  0  0  0  0  0  0
  146.9836  133.0836  151.5615 C   0  0  0  0  0  0  0  0  0  0  0  0
  145.6528  133.0107  150.9516 N   0  0  0  0  0  0  0  0  0  0  0  0
  145.0783  131.9287  150.3347 C   0  0  0  0  0  0  0  0  0  0  0  0
  143.8334  132.3294  149.9221 C   0  0  0  0  0  0  0  0  0  0  0  0
  143.6999  133.6372  150.3057 N   0  3  0  0  0  0  0  0  0  0  0  0
  144.8075  134.0502  150.9304 C   0  0  0  0  0  0  0  0  0  0  0  0
  146.8648  129.4268  154.0628 C   0  0  0  0  0  0  0  0  0  0  0  0
  146.2227  128.5322  152.9947 C   0  0  0  0  0  0  0  0  0  0  0  0
  147.6145  127.7778  152.0768 S   0  0  0  0  0  0  0  0  0  0  0  0
  147.7898  126.3812  152.5024 O   0  0  0  0  0  0  0  0  0  0  0  0
  147.4885  128.1276  150.6538 O   0  0  0  0  0  0  0  0  0  0  0  0
  148.9230  128.8086  152.8430 C   0  0  0  0  0  0  0  0  0  0  0  0
  149.1922  129.8019  155.4824 H   0  0  0  0  0  0  0  0  0  0  0  0
  148.5317  131.4020  155.1787 H   0  0  0  0  0  0  0  0  0  0  0  0
  150.0219  130.8912  154.3916 H   0  0  0  0  0  0  0  0  0  0  0  0
  148.3279  130.9602  151.6698 H   0  0  0  0  0  0  0  0  0  0  0  0
  147.1631  134.1119  151.8795 H   0  0  0  0  0  0  0  0  0  0  0  0
  147.7280  132.8430  150.8006 H   0  0  0  0  0  0  0  0  0  0  0  0
  145.5841  130.9792  150.2364 H   0  0  0  0  0  0  0  0  0  0  0  0
  143.0535  131.7959  149.3984 H   0  0  0  0  0  0  0  0  0  0  0  0
  144.9838  135.0292  151.3399 H   0  0  0  0  0  0  0  0  0  0  0  0
  147.0587  128.8112  154.9424 H   0  0  0  0  0  0  0  0  0  0  0  0
  146.1829  130.2154  154.3844 H   0  0  0  0  0  0  0  0  0  0  0  0
  145.5854  127.7557  153.4183 H   0  0  0  0  0  0  0  0  0  0  0  0
  145.6335  129.1214  152.2915 H   0  0  0  0  0  0  0  0  0  0  0  0
  149.6596  129.0961  152.0933 H   0  0  0  0  0  0  0  0  0  0  0  0
  149.4308  128.1847  153.5793 H   0  0  0  0  0  0  0  0  0  0  0  0
  142.8822  134.2115  150.1416 H   0  0  0  0  0  0  0  0  0  0  0  0
  1  2  1  0  0  0  0
  1 18  1  0  0  0  0
  1 19  1  0  0  0  0
  1 20  1  0  0  0  0
  2 17  1  0  0  0  0
  2  3  1  0  0  0  0
  2 12  1  0  0  0  0
  3  4  1  0  0  0  0
  3 21  1  0  0  0  0
  4  5  2  0  0  0  0
  4  6  1  0  0  0  0
  6  7  1  0  0  0  0
  6 22  1  0  0  0  0
  6 23  1  0  0  0  0
  7 11  1  0  0  0  0
  7  8  1  0  0  0  0
  8  9  2  0  0  0  0
  8 24  1  0  0  0  0
  9 10  1  0  0  0  0
  9 25  1  0  0  0  0
 10 11  2  0  0  0  0
 10 33  1  0  0  0  0
 11 26  1  0  0  0  0
 12 13  1  0  0  0  0
 12 27  1  0  0  0  0
 12 28  1  0  0  0  0
 13 14  1  0  0  0  0
 13 29  1  0  0  0  0
 13 30  1  0  0  0  0
 14 15  2  0  0  0  0
 14 16  2  0  0  0  0
 14 17  1  0  0  0  0
 17 31  1  0  0  0  0
 17 32  1  0  0  0  0
M  CHG  1  10   1
M  END
> <s_m_source_file>
AV-unprocessed.smi

> <i_m_source_file_index>
1111

> <i_lp_mmshare_version>
43012

> <i_f3d_flags>
0

> <s_epik_input>
Tz1TKD1PKShbQ0gyXTEpW0NIMl1bQ0gyXVtDQEBdMShbQ0gzXSlbTkhdQyg9TylbQ0gyXW4yW2NIXVtjSF1uW2NIXTI=

> <s_epik_cmdline>
J2VwaWtfcHl0aG9uJywgJy1waCcsICc3LjAnLCAnLXRuJywgJzgnLCAnLW1hJywgJzIwMCcsICctbWV0YWxfYmluZGluZycsICctaW1hZScsICc8aW5maWxlLm1hZT4nLCAnLW9tYWUnLCAnPG91dGZpbGUubWFlPic=

> <r_lp_tautomer_probability>
1

> <r_epik_Ionization_Penalty>
0.638881

> <r_epik_Ionization_Penalty_Charging>
0

> <r_epik_Ionization_Penalty_Neutral>
0.638881

> <r_epik_State_Penalty>
0.656385

> <r_epik_Charging_Adjusted_Penalty>
0.656385

> <i_epik_Tot_Q>
1

> <i_epik_Tot_abs_Q>
1

> <r_epik_Metal_State_Penalty>
0.832701

> <b_epik_Metal_Only>
0

> <s_lp_Force_Field>
OPLS_2005

> <r_lp_Energy>
7.98032

> <b_lp_Chiralities_Consistent>
1

> <s_lp_Variant>
AV-unprocessed.smi:1111-4

> <Gold.Version>
5.8.1

> <Gold.Id.Protein>
6NUR|6NUR_protein|mol2

> <Gold.PLP.Fitness>
39.4274

> <Gold.PLP.PLP>
-30.8349

> <Gold.PLP.part.hbond>
-2.5025

> <Gold.PLP.part.metal>
0.0000

> <Gold.PLP.part.buried>
-5.7862

> <Gold.PLP.part.nonpolar>
-23.7798

> <Gold.PLP.part.repulsive>
0.5635

> <Gold.PLP.ligand.clash>
0.0000

> <Gold.PLP.ligand.torsion>
0.2116

> <Gold.PLP.Chemscore.Hbond>
3.0000

> <Gold.PLP.Chemscore.CHOScore>
0.0000

> <Gold.PLP.Chemscore.Metal>
0.0000

> <Gold.Chemscore.Hbonds>
donor molecule, donor type, donor heavy atom, donor atom, acceptor molecule, acceptor atom, score
      L1  H     3    21       P1 10747  0.99
      L1  H    10    33       P1 10186  2.00

> <Gold.PLP.Chemscore.Internal.Correction>
0.0158

> <Gold.Rescore>
     Score         DG    S(hbond)    S(metal)    S(lipo)     H(rot)  DE(clash)    DE(int)     intcor
     13.63     -13.87       1.99        0.00      53.71       1.78       0.13       0.11       ----

> <Gold.Chemscore.Fitness>
13.6302

> <Gold.Chemscore.DG>
-13.8725

> <Gold.Chemscore.ZeroCoef>
-5.4800

> <Gold.Chemscore.Hbond>
1.9946

> <Gold.Chemscore.Metal>
0.0000

> <Gold.Chemscore.Lipo>
53.7112

> <Gold.Chemscore.Internal_Hbond>
0.0000

> <Gold.Chemscore.DEClash>
0.1303

> <Gold.Chemscore.DEInternal>
0.1120

> <Gold.Chemscore.Rot>
1.7787

> <Gold.Chemscore.Internal.Correction>
   9.000000E+99

> <Gold.Chemscore.Hbonds>
donor molecule, donor type, donor heavy atom, donor atom, acceptor molecule, acceptor atom, score
      L1  H     3    21       P1 10747  0.92
      L1  H    10    33       P1 10186  0.89

> <Gold.Chemscore.Hbond.Weighted>
-6.6619

> <Gold.Chemscore.Metal.Weighted>
-0.0000

> <Gold.Chemscore.Lipo.Weighted>
-6.2842

> <Gold.Chemscore.Internal_Hbond.Weighted>
0.0000

> <Gold.Chemscore.DEClash.Weighted>
0.1303

> <Gold.Chemscore.DEInternal.Weighted>
0.1120

> <Gold.Chemscore.Rot.Weighted>
4.5536

> <Gold.Chemscore.Internal.Correction.Weighted>
   9.000000E+99

> <Gold.Protein.RotatedTorsions>
[ 6907 6896 6895 6894 ] final -149.51 input  -60.11 | X-H torsion
[ 7974 7965 7964 7962 ] final  177.31 input  175.53 | X-H torsion
[ 8008 7997 7996 7995 ] final   78.13 input   59.86 | X-H torsion
[ 10167 10162 10161 10158 ] final   95.20 input  -65.29 | X-H torsion
[ 10718 10713 10712 10709 ] final   18.88 input   66.30 | X-H torsion
[ 10763 10752 10751 10750 ] final   68.70 input  -60.55 | X-H torsion
[ 11005 11000 10999 10996 ] final -144.85 input  -57.11 | X-H torsion

> <Gold.Protein.ActiveResidues>
 VAL166  LYS551  ARG553  GLY616  TRP617  ASP618  TYR619  PRO620  LYS621  CYS622 
 ASP623  PHE694  ASN695  SER759  ASP760  ASP761  ALA762  ILE779  LEU786  VAL792 
 PHE793  MET794  SER795  GLU796  ALA797  LYS798  CYS799  TRP800  GLU811  SER814 

> <Gold.Protein.RotatedAtoms>
  151.1852  133.4700  159.2594 H   0  0  0  0  0  0  0  0  0  0  0  0  # atno 6907 bound_to 6896
  151.1219  135.0083  159.8552 H   0  0  0  0  0  0  0  0  0  0  0  0  # atno 6908 bound_to 6896
  152.5456  134.1763  159.8670 H   0  0  0  0  0  0  0  0  0  0  0  0  # atno 6909 bound_to 6896
  144.7171  140.0227  143.6440 H   0  0  0  0  0  0  0  0  0  0  0  0  # atno 7974 bound_to 7965
  155.8513  140.3458  155.5695 H   0  0  0  0  0  0  0  0  0  0  0  0  # atno 8008 bound_to 7997
  155.8034  140.0888  157.1964 H   0  0  0  0  0  0  0  0  0  0  0  0  # atno 8009 bound_to 7997
  154.4008  140.1461  156.3289 H   0  0  0  0  0  0  0  0  0  0  0  0  # atno 8010 bound_to 7997
  139.8011  144.6813  150.9763 H   0  0  0  0  0  0  0  0  0  0  0  0  # atno 10167 bound_to 10162
  157.1026  130.6474  149.5876 H   0  0  0  0  0  0  0  0  0  0  0  0  # atno 10718 bound_to 10713
  153.0249  135.5238  154.7175 H   0  0  0  0  0  0  0  0  0  0  0  0  # atno 10763 bound_to 10752
  154.6240  135.2892  155.0296 H   0  0  0  0  0  0  0  0  0  0  0  0  # atno 10764 bound_to 10752
  154.1272  135.6598  153.4967 H   0  0  0  0  0  0  0  0  0  0  0  0  # atno 10765 bound_to 10752
  140.7982  134.2888  157.4988 H   0  0  0  0  0  0  0  0  0  0  0  0  # atno 11005 bound_to 11000
  146.0167  139.3216  143.0837 LP  0  0  0  0  0  0  0  0  0  0  0  0  # atno 17320 bound_to 7965
  145.8617  140.9471  143.0696 LP  0  0  0  0  0  0  0  0  0  0  0  0  # atno 17321 bound_to 7965
  140.7820  143.4280  151.0738 LP  0  0  0  0  0  0  0  0  0  0  0  0  # atno 17342 bound_to 10162
  139.7952  143.8161  152.3156 LP  0  0  0  0  0  0  0  0  0  0  0  0  # atno 17343 bound_to 10162
  155.9870  130.4907  150.7104 LP  0  0  0  0  0  0  0  0  0  0  0  0  # atno 17370 bound_to 10713
  157.4628  131.0885  151.0727 LP  0  0  0  0  0  0  0  0  0  0  0  0  # atno 17371 bound_to 10713
  139.8724  134.9414  156.3796 LP  0  0  0  0  0  0  0  0  0  0  0  0  # atno 17394 bound_to 11000
  140.9321  133.7572  156.0038 LP  0  0  0  0  0  0  0  0  0  0  0  0  # atno 17395 bound_to 11000

$$$$
