AV-unprocessed.smi:123|AV-procd|sdf|1143|dock7
  -GOLD-   2262018273D 1   1.00000     0.00000
 Structure written by MMmdl.
 43 45  0  0  0  0  0  0  0  0  1 V2000
  148.9521  131.6031  154.4004 C   0  0  0  0  0  0  0  0  0  0  0  0
  148.3831  132.7434  153.5362 C   0  0  2  0  0  0  0  0  0  0  0  0
  148.7034  134.0517  154.1092 N   0  0  0  0  0  0  0  0  0  0  0  0
  148.7896  134.3596  155.4145 C   0  0  0  0  0  0  0  0  0  0  0  0
  148.5863  133.5471  156.3179 O   0  0  0  0  0  0  0  0  0  0  0  0
  149.1555  135.8174  155.7323 C   0  0  0  0  0  0  0  0  0  0  0  0
  148.3798  136.3845  156.8574 N   0  0  0  0  0  0  0  0  0  0  0  0
  147.3574  137.3224  156.5667 C   0  0  0  0  0  0  0  0  0  0  0  0
  147.1080  137.6559  155.4072 O   0  0  0  0  0  0  0  0  0  0  0  0
  146.6421  137.8537  157.7214 C   0  0  0  0  0  0  0  0  0  0  0  0
  145.6466  138.7379  157.5396 F   0  0  0  0  0  0  0  0  0  0  0  0
  146.9642  137.4692  158.9732 C   0  0  0  0  0  0  0  0  0  0  0  0
  147.9756  136.5673  159.2431 N   0  0  0  0  0  0  0  0  0  0  0  0
  148.2934  136.1818  160.6683 C   0  0  2  0  0  0  0  0  0  0  0  0
  147.5180  134.9201  161.0699 C   0  0  0  0  0  0  0  0  0  0  0  0
  146.4192  135.4795  161.9503 C   0  0  0  0  0  0  0  0  0  0  0  0
  147.1015  136.6945  162.5659 C   0  0  0  0  0  0  0  0  0  0  0  0
  147.8920  137.2240  161.5091 O   0  0  0  0  0  0  0  0  0  0  0  0
  148.7073  135.9957  158.1790 C   0  0  0  0  0  0  0  0  0  0  0  0
  149.6046  135.1782  158.3940 O   0  0  0  0  0  0  0  0  0  0  0  0
  146.9228  132.5940  153.2219 C   0  0  0  0  0  0  0  0  0  0  0  0
  146.2119  132.4271  152.0641 C   0  0  0  0  0  0  0  0  0  0  0  0
  144.8420  132.3528  152.4378 C   0  0  0  0  0  0  0  0  0  0  0  0
  144.8152  132.4875  153.7963 C   0  0  0  0  0  0  0  0  0  0  0  0
  146.0742  132.6385  154.2893 O   0  0  0  0  0  0  0  0  0  0  0  0
  148.8362  130.6406  153.9017 H   0  0  0  0  0  0  0  0  0  0  0  0
  148.4490  131.5356  155.3655 H   0  0  0  0  0  0  0  0  0  0  0  0
  150.0163  131.7475  154.5894 H   0  0  0  0  0  0  0  0  0  0  0  0
  148.9183  132.7120  152.5866 H   0  0  0  0  0  0  0  0  0  0  0  0
  148.8827  134.7929  153.4476 H   0  0  0  0  0  0  0  0  0  0  0  0
  150.2258  135.8761  155.9376 H   0  0  0  0  0  0  0  0  0  0  0  0
  149.0296  136.4061  154.8226 H   0  0  0  0  0  0  0  0  0  0  0  0
  146.4037  137.8902  159.7943 H   0  0  0  0  0  0  0  0  0  0  0  0
  149.3750  136.0647  160.7434 H   0  0  0  0  0  0  0  0  0  0  0  0
  147.1517  134.3646  160.2053 H   0  0  0  0  0  0  0  0  0  0  0  0
  148.1812  134.2758  161.6481 H   0  0  0  0  0  0  0  0  0  0  0  0
  145.5685  135.7907  161.3430 H   0  0  0  0  0  0  0  0  0  0  0  0
  146.0641  134.7674  162.6954 H   0  0  0  0  0  0  0  0  0  0  0  0
  146.3929  137.4312  162.9450 H   0  0  0  0  0  0  0  0  0  0  0  0
  147.7551  136.3927  163.3855 H   0  0  0  0  0  0  0  0  0  0  0  0
  146.6272  132.3609  151.0695 H   0  0  0  0  0  0  0  0  0  0  0  0
  143.9848  132.2185  151.7948 H   0  0  0  0  0  0  0  0  0  0  0  0
  144.0262  132.4989  154.5336 H   0  0  0  0  0  0  0  0  0  0  0  0
  1  2  1  0  0  0  0
  1 26  1  0  0  0  0
  1 27  1  0  0  0  0
  1 28  1  0  0  0  0
  2  3  1  0  0  0  0
  2 21  1  0  0  0  0
  2 29  1  0  0  0  0
  3  4  1  0  0  0  0
  3 30  1  0  0  0  0
  4  5  2  0  0  0  0
  4  6  1  0  0  0  0
  6  7  1  0  0  0  0
  6 31  1  0  0  0  0
  6 32  1  0  0  0  0
  7 19  1  0  0  0  0
  7  8  1  0  0  0  0
  8  9  2  0  0  0  0
  8 10  1  0  0  0  0
 10 11  1  0  0  0  0
 10 12  2  0  0  0  0
 12 13  1  0  0  0  0
 12 33  1  0  0  0  0
 13 14  1  0  0  0  0
 13 19  1  0  0  0  0
 14 18  1  0  0  0  0
 14 15  1  0  0  0  0
 14 34  1  0  0  0  0
 15 16  1  0  0  0  0
 15 35  1  0  0  0  0
 15 36  1  0  0  0  0
 16 17  1  0  0  0  0
 16 37  1  0  0  0  0
 16 38  1  0  0  0  0
 17 18  1  0  0  0  0
 17 39  1  0  0  0  0
 17 40  1  0  0  0  0
 19 20  2  0  0  0  0
 21 25  1  0  0  0  0
 21 22  2  0  0  0  0
 22 23  1  0  0  0  0
 22 41  1  0  0  0  0
 23 24  2  0  0  0  0
 23 42  1  0  0  0  0
 24 25  1  0  0  0  0
 24 43  1  0  0  0  0
M  END
> <s_m_source_file>
AV-unprocessed.smi

> <i_m_source_file_index>
123

> <i_lp_mmshare_version>
43012

> <i_f3d_flags>
0

> <s_epik_input>
bzFbY0hdW2NIXVtjSF1jMVtDQEhdKFtDSDNdKVtOSF1DKD1PKVtDSDJdbjJjKD1PKWMoRilbY0hdbihjMj1PKVtDQEBIXTNbQ0gyXVtDSDJdW0NIMl1PMw==

> <s_epik_cmdline>
J2VwaWtfcHl0aG9uJywgJy1waCcsICc3LjAnLCAnLXRuJywgJzgnLCAnLW1hJywgJzIwMCcsICctbWV0YWxfYmluZGluZycsICctaW1hZScsICc8aW5maWxlLm1hZT4nLCAnLW9tYWUnLCAnPG91dGZpbGUubWFlPic=

> <r_lp_tautomer_probability>
1

> <r_epik_Ionization_Penalty>
2.31906e-08

> <r_epik_Ionization_Penalty_Charging>
3.85846e-09

> <r_epik_Ionization_Penalty_Neutral>
1.93321e-08

> <r_epik_State_Penalty>
-0

> <r_epik_Charging_Adjusted_Penalty>
3.85846e-09

> <i_epik_Tot_Q>
0

> <i_epik_Tot_abs_Q>
0

> <r_epik_Metal_State_Penalty>
-0

> <b_epik_Metal_Only>
0

> <s_epik_Chemistry_Notes>
This compound contains an acetal/aminal-like group ( X-CH(R)-Y where X, Y are N, S, or O) that may be acid/base labile, releasing an aldehyde.

> <s_lp_Force_Field>
OPLS_2005

> <r_lp_Energy>
21.3093

> <b_lp_Chiralities_Consistent>
1

> <s_lp_Variant>
AV-unprocessed.smi:123-1

> <Gold.Version>
5.8.1

> <Gold.Id.Protein>
6NUR|6NUR_protein|mol2

> <Gold.PLP.Fitness>
42.5050

> <Gold.PLP.PLP>
-31.3025

> <Gold.PLP.part.hbond>
-4.0000

> <Gold.PLP.part.metal>
0.0000

> <Gold.PLP.part.buried>
-2.1495

> <Gold.PLP.part.nonpolar>
-24.5317

> <Gold.PLP.part.repulsive>
0.1105

> <Gold.PLP.ligand.clash>
0.0000

> <Gold.PLP.ligand.torsion>
1.5452

> <Gold.PLP.Chemscore.Hbond>
3.7280

> <Gold.PLP.Chemscore.CHOScore>
1.0000

> <Gold.PLP.Chemscore.Metal>
0.0000

> <Gold.Chemscore.Hbonds>
donor molecule, donor type, donor heavy atom, donor atom, acceptor molecule, acceptor atom, score
      L1  H     3    30       P1  7948  0.81
      P1  H  6896  6907       L1    20  1.00
      P1  H  6931  6943       L1    18  1.00
      P1  H  6934  6947       L1    18  0.67

> <Gold.PLP.Chemscore.Internal.Correction>
0.1090

> <Gold.Rescore>
     Score         DG    S(hbond)    S(metal)    S(lipo)     H(rot)  DE(clash)    DE(int)     intcor
     11.89     -16.57       2.94        0.00      59.66       2.23       0.41       4.26       ----

> <Gold.Chemscore.Fitness>
11.8919

> <Gold.Chemscore.DG>
-16.5701

> <Gold.Chemscore.ZeroCoef>
-5.4800

> <Gold.Chemscore.Hbond>
2.9433

> <Gold.Chemscore.Metal>
0.0000

> <Gold.Chemscore.Lipo>
59.6607

> <Gold.Chemscore.Internal_Hbond>
0.0000

> <Gold.Chemscore.DEClash>
0.4149

> <Gold.Chemscore.DEInternal>
4.2633

> <Gold.Chemscore.Rot>
2.2347

> <Gold.Chemscore.Internal.Correction>
   9.000000E+99

> <Gold.Chemscore.Hbonds>
donor molecule, donor type, donor heavy atom, donor atom, acceptor molecule, acceptor atom, score
      L1  H     3    30       P1  7948  0.24
      P1  H  6896  6907       L1    20  1.00
      P1  H  6931  6943       L1    18  0.83
      P1  H  6934  6947       L1    18  0.48

> <Gold.Chemscore.Hbond.Weighted>
-9.8306

> <Gold.Chemscore.Metal.Weighted>
-0.0000

> <Gold.Chemscore.Lipo.Weighted>
-6.9803

> <Gold.Chemscore.Internal_Hbond.Weighted>
0.0000

> <Gold.Chemscore.DEClash.Weighted>
0.4149

> <Gold.Chemscore.DEInternal.Weighted>
4.2633

> <Gold.Chemscore.Rot.Weighted>
5.7208

> <Gold.Chemscore.Internal.Correction.Weighted>
   9.000000E+99

> <Gold.Protein.RotatedTorsions>
[ 6907 6896 6895 6894 ] final  -75.20 input  -60.11 | X-H torsion
[ 7974 7965 7964 7962 ] final  164.62 input  175.53 | X-H torsion
[ 8008 7997 7996 7995 ] final  -26.00 input   59.86 | X-H torsion
[ 10167 10162 10161 10158 ] final  161.41 input  -65.29 | X-H torsion
[ 10718 10713 10712 10709 ] final   46.22 input   66.30 | X-H torsion
[ 10763 10752 10751 10750 ] final   95.79 input  -60.55 | X-H torsion
[ 11005 11000 10999 10996 ] final  -97.75 input  -57.11 | X-H torsion

> <Gold.Protein.ActiveResidues>
 VAL166  LYS551  ARG553  GLY616  TRP617  ASP618  TYR619  PRO620  LYS621  CYS622 
 ASP623  PHE694  ASN695  SER759  ASP760  ASP761  ALA762  ILE779  LEU786  VAL792 
 PHE793  MET794  SER795  GLU796  ALA797  LYS798  CYS799  TRP800  GLU811  SER814 

> <Gold.Protein.RotatedAtoms>
  150.7067  134.4756  159.5445 H   0  0  0  0  0  0  0  0  0  0  0  0  # atno 6907 bound_to 6896
  152.2404  134.8231  160.0470 H   0  0  0  0  0  0  0  0  0  0  0  0  # atno 6908 bound_to 6896
  151.9015  133.3504  159.3869 H   0  0  0  0  0  0  0  0  0  0  0  0  # atno 6909 bound_to 6896
  144.7537  139.8352  143.6357 H   0  0  0  0  0  0  0  0  0  0  0  0  # atno 7974 bound_to 7965
  154.4447  140.1911  156.0708 H   0  0  0  0  0  0  0  0  0  0  0  0  # atno 8008 bound_to 7997
  156.0513  140.3308  155.7327 H   0  0  0  0  0  0  0  0  0  0  0  0  # atno 8009 bound_to 7997
  155.5553  140.0598  157.2832 H   0  0  0  0  0  0  0  0  0  0  0  0  # atno 8010 bound_to 7997
  139.4849  144.4539  151.8794 H   0  0  0  0  0  0  0  0  0  0  0  0  # atno 10167 bound_to 10162
  157.4458  130.8108  149.7739 H   0  0  0  0  0  0  0  0  0  0  0  0  # atno 10718 bound_to 10713
  153.2573  135.4241  155.0859 H   0  0  0  0  0  0  0  0  0  0  0  0  # atno 10763 bound_to 10752
  154.8406  135.3440  154.6427 H   0  0  0  0  0  0  0  0  0  0  0  0  # atno 10764 bound_to 10752
  153.6848  135.7037  153.5164 H   0  0  0  0  0  0  0  0  0  0  0  0  # atno 10765 bound_to 10752
  141.1368  133.8194  157.0748 H   0  0  0  0  0  0  0  0  0  0  0  0  # atno 11005 bound_to 11000
  146.1521  139.4607  143.0042 LP  0  0  0  0  0  0  0  0  0  0  0  0  # atno 17320 bound_to 7965
  145.6853  141.0179  143.1584 LP  0  0  0  0  0  0  0  0  0  0  0  0  # atno 17321 bound_to 7965
  140.3997  144.2509  150.5894 LP  0  0  0  0  0  0  0  0  0  0  0  0  # atno 17342 bound_to 10162
  140.5069  143.2301  151.8595 LP  0  0  0  0  0  0  0  0  0  0  0  0  # atno 17343 bound_to 10162
  155.9967  130.3904  150.2770 LP  0  0  0  0  0  0  0  0  0  0  0  0  # atno 17370 bound_to 10713
  157.0938  131.0177  151.3112 LP  0  0  0  0  0  0  0  0  0  0  0  0  # atno 17371 bound_to 10713
  140.0488  134.9816  157.1099 LP  0  0  0  0  0  0  0  0  0  0  0  0  # atno 17394 bound_to 11000
  140.4021  134.2071  155.7163 LP  0  0  0  0  0  0  0  0  0  0  0  0  # atno 17395 bound_to 11000

$$$$
