AV-unprocessed.smi:258|AV-procd|sdf|1967|dock8
  -GOLD-   2262021123D 1   1.00000     0.00000
 Structure written by MMmdl.
 57 60  0  0  0  0  0  0  0  0  1 V2000
  143.3459  134.1175  148.0127 O   0  0  0  0  0  0  0  0  0  0  0  0
  143.5096  132.8388  148.5884 C   0  0  0  0  0  0  0  0  0  0  0  0
  144.4607  132.9152  149.7892 C   0  0  0  0  0  0  0  0  0  0  0  0
  144.3387  131.7220  150.5502 O   0  0  0  0  0  0  0  0  0  0  0  0
  145.5573  131.2473  151.1076 C   0  0  2  0  0  0  0  0  0  0  0  0
  145.3859  129.8394  151.7117 C   0  0  0  0  0  0  0  0  0  0  0  0
  146.6732  129.4131  152.4327 C   0  0  0  0  0  0  0  0  0  0  0  0
  147.0846  130.4478  153.4923 C   0  0  0  0  0  0  0  0  0  0  0  0
  147.1707  131.7883  152.9096 N   0  0  0  0  0  0  0  0  0  0  0  0
  147.9082  132.6933  153.6054 C   0  0  0  0  0  0  0  0  0  0  0  0
  149.0536  132.2468  154.1844 N   0  0  0  0  0  0  0  0  0  0  0  0
  149.8357  133.0794  154.8761 C   0  0  0  0  0  0  0  0  0  0  0  0
  149.6650  134.3805  155.1118 N   0  0  0  0  0  0  0  0  0  0  0  0
  148.5167  134.8400  154.5389 C   0  0  0  0  0  0  0  0  0  0  0  0
  147.5868  134.0749  153.7757 C   0  0  0  0  0  0  0  0  0  0  0  0
  146.5357  134.8936  153.3731 N   0  0  0  0  0  0  0  0  0  0  0  0
  146.8317  136.0680  153.8570 C   0  0  0  0  0  0  0  0  0  0  0  0
  148.0090  136.1277  154.5641 N   0  0  0  0  0  0  0  0  0  0  0  0
  148.5725  137.3044  155.2036 C   0  0  0  0  0  0  0  0  0  0  0  0
  148.8847  138.4482  154.2076 C   0  0  1  0  0  0  0  0  0  0  0  0
  147.8340  139.5770  154.3296 C   0  0  0  0  0  0  0  0  0  0  0  0
  147.9526  140.4836  153.2529 O   0  0  0  0  0  0  0  0  0  0  0  0
  150.3521  138.9502  154.3184 C   0  0  2  0  0  0  0  0  0  0  0  0
  151.4340  137.8788  154.2230 C   0  0  0  0  0  0  0  0  0  0  0  0
  152.5640  138.4824  155.0443 C   0  0  0  0  0  0  0  0  0  0  0  0
  151.8728  139.0793  156.1285 O   0  0  0  0  0  0  0  0  0  0  0  0
  150.6980  139.6998  155.6178 C   0  0  0  0  0  0  0  0  0  0  0  0
  145.9787  132.2476  152.1984 C   0  0  0  0  0  0  0  0  0  0  0  0
  144.1982  134.4541  147.7813 H   0  0  0  0  0  0  0  0  0  0  0  0
  142.5276  132.4983  148.9173 H   0  0  0  0  0  0  0  0  0  0  0  0
  143.8660  132.1263  147.8437 H   0  0  0  0  0  0  0  0  0  0  0  0
  145.4853  133.0940  149.4620 H   0  0  0  0  0  0  0  0  0  0  0  0
  144.1697  133.7588  150.4166 H   0  0  0  0  0  0  0  0  0  0  0  0
  146.3353  131.2287  150.3418 H   0  0  0  0  0  0  0  0  0  0  0  0
  144.5526  129.8382  152.4153 H   0  0  0  0  0  0  0  0  0  0  0  0
  145.1450  129.1089  150.9401 H   0  0  0  0  0  0  0  0  0  0  0  0
  146.5364  128.4369  152.8986 H   0  0  0  0  0  0  0  0  0  0  0  0
  147.4776  129.2998  151.7049 H   0  0  0  0  0  0  0  0  0  0  0  0
  146.3500  130.4660  154.2983 H   0  0  0  0  0  0  0  0  0  0  0  0
  148.0306  130.1404  153.9384 H   0  0  0  0  0  0  0  0  0  0  0  0
  150.7266  132.6402  155.3001 H   0  0  0  0  0  0  0  0  0  0  0  0
  146.1975  136.9298  153.7076 H   0  0  0  0  0  0  0  0  0  0  0  0
  147.8600  137.6395  155.9581 H   0  0  0  0  0  0  0  0  0  0  0  0
  149.4750  137.0155  155.7432 H   0  0  0  0  0  0  0  0  0  0  0  0
  148.7882  138.0335  153.2027 H   0  0  0  0  0  0  0  0  0  0  0  0
  146.8212  139.1747  154.3367 H   0  0  0  0  0  0  0  0  0  0  0  0
  147.9568  140.1435  155.2517 H   0  0  0  0  0  0  0  0  0  0  0  0
  148.6684  140.2046  152.7023 H   0  0  0  0  0  0  0  0  0  0  0  0
  150.5368  139.6637  153.5146 H   0  0  0  0  0  0  0  0  0  0  0  0
  151.1188  136.9446  154.6856 H   0  0  0  0  0  0  0  0  0  0  0  0
  151.7302  137.6615  153.1968 H   0  0  0  0  0  0  0  0  0  0  0  0
  153.2836  137.7378  155.3849 H   0  0  0  0  0  0  0  0  0  0  0  0
  153.0963  139.2483  154.4779 H   0  0  0  0  0  0  0  0  0  0  0  0
  150.9084  140.7489  155.4057 H   0  0  0  0  0  0  0  0  0  0  0  0
  149.9048  139.6743  156.3643 H   0  0  0  0  0  0  0  0  0  0  0  0
  146.1672  133.2177  151.7367 H   0  0  0  0  0  0  0  0  0  0  0  0
  145.1663  132.3779  152.9144 H   0  0  0  0  0  0  0  0  0  0  0  0
  1  2  1  0  0  0  0
  1 29  1  0  0  0  0
  2  3  1  0  0  0  0
  2 30  1  0  0  0  0
  2 31  1  0  0  0  0
  3  4  1  0  0  0  0
  3 32  1  0  0  0  0
  3 33  1  0  0  0  0
  4  5  1  0  0  0  0
  5 28  1  0  0  0  0
  5  6  1  0  0  0  0
  5 34  1  0  0  0  0
  6  7  1  0  0  0  0
  6 35  1  0  0  0  0
  6 36  1  0  0  0  0
  7  8  1  0  0  0  0
  7 37  1  0  0  0  0
  7 38  1  0  0  0  0
  8  9  1  0  0  0  0
  8 39  1  0  0  0  0
  8 40  1  0  0  0  0
  9 10  1  0  0  0  0
  9 28  1  0  0  0  0
 10 15  1  0  0  0  0
 10 11  2  0  0  0  0
 11 12  1  0  0  0  0
 12 13  2  0  0  0  0
 12 41  1  0  0  0  0
 13 14  1  0  0  0  0
 14 18  1  0  0  0  0
 14 15  2  0  0  0  0
 15 16  1  0  0  0  0
 16 17  2  0  0  0  0
 17 18  1  0  0  0  0
 17 42  1  0  0  0  0
 18 19  1  0  0  0  0
 19 20  1  0  0  0  0
 19 43  1  0  0  0  0
 19 44  1  0  0  0  0
 20 21  1  0  0  0  0
 20 23  1  0  0  0  0
 20 45  1  0  0  0  0
 21 22  1  0  0  0  0
 21 46  1  0  0  0  0
 21 47  1  0  0  0  0
 22 48  1  0  0  0  0
 23 27  1  0  0  0  0
 23 24  1  0  0  0  0
 23 49  1  0  0  0  0
 24 25  1  0  0  0  0
 24 50  1  0  0  0  0
 24 51  1  0  0  0  0
 25 26  1  0  0  0  0
 25 52  1  0  0  0  0
 25 53  1  0  0  0  0
 26 27  1  0  0  0  0
 27 54  1  0  0  0  0
 27 55  1  0  0  0  0
 28 56  1  0  0  0  0
 28 57  1  0  0  0  0
M  END
> <s_m_source_file>
AV-unprocessed.smi

> <i_m_source_file_index>
258

> <i_lp_mmshare_version>
43012

> <i_f3d_flags>
0

> <s_epik_input>
W09IXVtDSDJdW0NIMl1PW0NAQEhdMVtDSDJdW0NIMl1bQ0gyXU4oW0NIMl0xKWMobltjSF1uMiljKGMyMyluW2NIXW4zW0NIMl1bQ0BIXShbQ0gyXVtPSF0pW0NAQEhdNFtDSDJdW0NIMl1PW0NIMl00

> <s_epik_cmdline>
J2VwaWtfcHl0aG9uJywgJy1waCcsICc3LjAnLCAnLXRuJywgJzgnLCAnLW1hJywgJzIwMCcsICctbWV0YWxfYmluZGluZycsICctaW1hZScsICc8aW5maWxlLm1hZT4nLCAnLW9tYWUnLCAnPG91dGZpbGUubWFlPic=

> <r_lp_tautomer_probability>
1

> <r_epik_Ionization_Penalty>
0.00349036

> <r_epik_Ionization_Penalty_Charging>
0

> <r_epik_Ionization_Penalty_Neutral>
0.00349036

> <r_epik_State_Penalty>
0.00229798

> <r_epik_Charging_Adjusted_Penalty>
0.00229798

> <i_epik_Tot_Q>
0

> <i_epik_Tot_abs_Q>
0

> <r_epik_Metal_State_Penalty>
-0

> <b_epik_Metal_Only>
0

> <s_lp_Force_Field>
OPLS_2005

> <r_lp_Energy>
47.4534

> <b_lp_Chiralities_Consistent>
1

> <s_lp_Variant>
AV-unprocessed.smi:258-3

> <Gold.Version>
5.8.1

> <Gold.Id.Protein>
6NUR|6NUR_protein|mol2

> <Gold.PLP.Fitness>
52.5345

> <Gold.PLP.PLP>
-45.8004

> <Gold.PLP.part.hbond>
-5.0709

> <Gold.PLP.part.metal>
0.0000

> <Gold.PLP.part.buried>
-3.8735

> <Gold.PLP.part.nonpolar>
-37.3203

> <Gold.PLP.part.repulsive>
0.3845

> <Gold.PLP.ligand.clash>
0.0000

> <Gold.PLP.ligand.torsion>
1.4104

> <Gold.PLP.Chemscore.Hbond>
3.0000

> <Gold.PLP.Chemscore.CHOScore>
0.0000

> <Gold.PLP.Chemscore.Metal>
0.0000

> <Gold.Chemscore.Hbonds>
donor molecule, donor type, donor heavy atom, donor atom, acceptor molecule, acceptor atom, score
      L1  H     1    29       P1  7921  1.00
      L1  H    22    48       P1  7957  1.00
      P1  H 10192 10197       L1     1  1.00

> <Gold.PLP.Chemscore.Internal.Correction>
0.5549

> <Gold.Rescore>
     Score         DG    S(hbond)    S(metal)    S(lipo)     H(rot)  DE(clash)    DE(int)     intcor
     14.93     -18.29       3.08        0.00     107.61       3.94       0.65       2.71       ----

> <Gold.Chemscore.Fitness>
14.9298

> <Gold.Chemscore.DG>
-18.2919

> <Gold.Chemscore.ZeroCoef>
-5.4800

> <Gold.Chemscore.Hbond>
3.0827

> <Gold.Chemscore.Metal>
0.0000

> <Gold.Chemscore.Lipo>
107.6141

> <Gold.Chemscore.Internal_Hbond>
0.0000

> <Gold.Chemscore.DEClash>
0.6476

> <Gold.Chemscore.DEInternal>
2.7145

> <Gold.Chemscore.Rot>
3.9356

> <Gold.Chemscore.Internal.Correction>
   9.000000E+99

> <Gold.Chemscore.Hbonds>
donor molecule, donor type, donor heavy atom, donor atom, acceptor molecule, acceptor atom, score
      L1  H     1    29       P1  7921  0.99
      L1  H    22    48       P1  7957  0.98
      P1  H 10192 10197       L1     1  0.70

> <Gold.Chemscore.Hbond.Weighted>
-10.2962

> <Gold.Chemscore.Metal.Weighted>
-0.0000

> <Gold.Chemscore.Lipo.Weighted>
-12.5908

> <Gold.Chemscore.Internal_Hbond.Weighted>
0.0000

> <Gold.Chemscore.DEClash.Weighted>
0.6476

> <Gold.Chemscore.DEInternal.Weighted>
2.7145

> <Gold.Chemscore.Rot.Weighted>
10.0751

> <Gold.Chemscore.Internal.Correction.Weighted>
   9.000000E+99

> <Gold.Protein.RotatedTorsions>
[ 6907 6896 6895 6894 ] final -141.32 input  -60.11 | X-H torsion
[ 7974 7965 7964 7962 ] final  -21.80 input  175.53 | X-H torsion
[ 8008 7997 7996 7995 ] final  -11.98 input   59.86 | X-H torsion
[ 10167 10162 10161 10158 ] final   41.14 input  -65.29 | X-H torsion
[ 10718 10713 10712 10709 ] final  -35.17 input   66.30 | X-H torsion
[ 10763 10752 10751 10750 ] final -173.09 input  -60.55 | X-H torsion
[ 11005 11000 10999 10996 ] final   83.98 input  -57.11 | X-H torsion

> <Gold.Protein.ActiveResidues>
 VAL166  LYS551  ARG553  GLY616  TRP617  ASP618  TYR619  PRO620  LYS621  CYS622 
 ASP623  PHE694  ASN695  SER759  ASP760  ASP761  ALA762  ILE779  LEU786  VAL792 
 PHE793  MET794  SER795  GLU796  ALA797  LYS798  CYS799  TRP800  GLU811  SER814 

> <Gold.Protein.RotatedAtoms>
  151.0722  133.5457  159.2626 H   0  0  0  0  0  0  0  0  0  0  0  0  # atno 6907 bound_to 6896
  151.2392  135.0582  159.9028 H   0  0  0  0  0  0  0  0  0  0  0  0  # atno 6908 bound_to 6896
  152.5413  134.0500  159.8159 H   0  0  0  0  0  0  0  0  0  0  0  0  # atno 6909 bound_to 6896
  146.1712  140.4391  142.8531 H   0  0  0  0  0  0  0  0  0  0  0  0  # atno 7974 bound_to 7965
  154.5417  140.2288  155.8630 H   0  0  0  0  0  0  0  0  0  0  0  0  # atno 8008 bound_to 7997
  156.1865  140.3087  155.9210 H   0  0  0  0  0  0  0  0  0  0  0  0  # atno 8009 bound_to 7997
  155.3244  140.0442  157.3031 H   0  0  0  0  0  0  0  0  0  0  0  0  # atno 8010 bound_to 7997
  140.3672  144.2152  150.6135 H   0  0  0  0  0  0  0  0  0  0  0  0  # atno 10167 bound_to 10162
  156.3418  130.4295  149.7781 H   0  0  0  0  0  0  0  0  0  0  0  0  # atno 10718 bound_to 10713
  154.6118  135.2865  155.0423 H   0  0  0  0  0  0  0  0  0  0  0  0  # atno 10763 bound_to 10752
  154.1650  135.6482  153.4999 H   0  0  0  0  0  0  0  0  0  0  0  0  # atno 10764 bound_to 10752
  153.0198  135.5387  154.6875 H   0  0  0  0  0  0  0  0  0  0  0  0  # atno 10765 bound_to 10752
  139.9014  134.8184  156.2383 H   0  0  0  0  0  0  0  0  0  0  0  0  # atno 11005 bound_to 11000
  144.8167  140.6479  143.6380 LP  0  0  0  0  0  0  0  0  0  0  0  0  # atno 17320 bound_to 7965
  145.4334  139.1546  143.4010 LP  0  0  0  0  0  0  0  0  0  0  0  0  # atno 17321 bound_to 7965
  140.5069  143.2301  151.8595 LP  0  0  0  0  0  0  0  0  0  0  0  0  # atno 17342 bound_to 10162
  139.4807  144.4995  151.9079 LP  0  0  0  0  0  0  0  0  0  0  0  0  # atno 17343 bound_to 10162
  156.5014  130.8130  151.3134 LP  0  0  0  0  0  0  0  0  0  0  0  0  # atno 17370 bound_to 10713
  157.7448  130.9943  150.2704 LP  0  0  0  0  0  0  0  0  0  0  0  0  # atno 17371 bound_to 10713
  141.0301  133.6993  156.1415 LP  0  0  0  0  0  0  0  0  0  0  0  0  # atno 17394 bound_to 11000
  140.7109  134.4463  157.5581 LP  0  0  0  0  0  0  0  0  0  0  0  0  # atno 17395 bound_to 11000

$$$$
