AV-unprocessed.smi:2091|AV-procd|sdf|8540|dock4
  -GOLD-   2272011263D 1   1.00000     0.00000
 Structure written by MMmdl.
 35 36  0  0  0  0  0  0  0  0  2 V2000
  151.2591  140.3283  155.2957 O   0  0  0  0  0  0  0  0  0  0  0  0
  151.3326  139.6130  156.2959 C   0  0  0  0  0  0  0  0  0  0  0  0
  151.0363  138.1098  156.2089 C   0  0  0  0  0  0  0  0  0  0  0  0
  150.2922  137.6016  157.3726 N   0  0  0  0  0  0  0  0  0  0  0  0
  148.9092  137.3951  157.2255 C   0  0  0  0  0  0  0  0  0  0  0  0
  148.1480  136.9347  158.2367 C   0  0  0  0  0  0  0  0  0  0  0  0
  148.7937  136.6477  159.5118 C   0  0  0  0  0  0  0  0  0  0  0  0
  148.1131  136.2323  160.4477 O   0  0  0  0  0  0  0  0  0  0  0  0
  150.1397  136.8581  159.6030 N   0  5  0  0  0  0  0  0  0  0  0  0
  150.9016  137.3244  158.5649 C   0  0  0  0  0  0  0  0  0  0  0  0
  152.1158  137.5052  158.6677 O   0  0  0  0  0  0  0  0  0  0  0  0
  151.6402  140.0835  157.5153 N   0  0  0  0  0  0  0  0  0  0  0  0
  151.9383  141.4810  157.8366 C   0  0  2  0  0  0  0  0  0  0  0  0
  152.0167  141.5998  159.3760 C   0  0  0  0  0  0  0  0  0  0  0  0
  152.8270  142.8136  159.8643 C   0  0  0  0  0  0  0  0  0  0  0  0
  152.2256  144.1824  159.5098 C   0  0  0  0  0  0  0  0  0  0  0  0
  152.1233  144.4413  157.9968 C   0  0  0  0  0  0  0  0  0  0  0  0
  150.9941  143.7428  157.3972 N   0  0  0  0  0  0  0  0  0  0  0  0
  150.8224  142.4149  157.3119 C   0  0  0  0  0  0  0  0  0  0  0  0
  149.7891  141.9519  156.8285 O   0  0  0  0  0  0  0  0  0  0  0  0
  150.4875  137.8929  155.2904 H   0  0  0  0  0  0  0  0  0  0  0  0
  151.9864  137.5844  156.1049 H   0  0  0  0  0  0  0  0  0  0  0  0
  148.5109  137.6255  156.2482 H   0  0  0  0  0  0  0  0  0  0  0  0
  147.0873  136.7789  158.1066 H   0  0  0  0  0  0  0  0  0  0  0  0
  151.6651  139.4262  158.2809 H   0  0  0  0  0  0  0  0  0  0  0  0
  152.8967  141.7519  157.3900 H   0  0  0  0  0  0  0  0  0  0  0  0
  151.0194  141.6076  159.8199 H   0  0  0  0  0  0  0  0  0  0  0  0
  152.5056  140.7100  159.7759 H   0  0  0  0  0  0  0  0  0  0  0  0
  152.9255  142.7506  160.9485 H   0  0  0  0  0  0  0  0  0  0  0  0
  153.8426  142.7514  159.4715 H   0  0  0  0  0  0  0  0  0  0  0  0
  151.2471  144.2974  159.9783 H   0  0  0  0  0  0  0  0  0  0  0  0
  152.8595  144.9535  159.9489 H   0  0  0  0  0  0  0  0  0  0  0  0
  151.9685  145.5068  157.8254 H   0  0  0  0  0  0  0  0  0  0  0  0
  153.0516  144.1805  157.4862 H   0  0  0  0  0  0  0  0  0  0  0  0
  150.2515  144.3243  157.0366 H   0  0  0  0  0  0  0  0  0  0  0  0
  1  2  2  0  0  0  0
  2  3  1  0  0  0  0
  2 12  1  0  0  0  0
  3  4  1  0  0  0  0
  3 21  1  0  0  0  0
  3 22  1  0  0  0  0
  4 10  1  0  0  0  0
  4  5  1  0  0  0  0
  5  6  2  0  0  0  0
  5 23  1  0  0  0  0
  6  7  1  0  0  0  0
  6 24  1  0  0  0  0
  7  8  2  0  0  0  0
  7  9  1  0  0  0  0
  9 10  1  0  0  0  0
 10 11  2  0  0  0  0
 12 13  1  0  0  0  0
 12 25  1  0  0  0  0
 13 19  1  0  0  0  0
 13 14  1  0  0  0  0
 13 26  1  0  0  0  0
 14 15  1  0  0  0  0
 14 27  1  0  0  0  0
 14 28  1  0  0  0  0
 15 16  1  0  0  0  0
 15 29  1  0  0  0  0
 15 30  1  0  0  0  0
 16 17  1  0  0  0  0
 16 31  1  0  0  0  0
 16 32  1  0  0  0  0
 17 18  1  0  0  0  0
 17 33  1  0  0  0  0
 17 34  1  0  0  0  0
 18 19  1  0  0  0  0
 18 35  1  0  0  0  0
 19 20  2  0  0  0  0
M  CHG  1   9  -1
M  END
> <s_m_source_file>
AV-unprocessed.smi

> <i_m_source_file_index>
2091

> <i_lp_mmshare_version>
43012

> <i_f3d_flags>
0

> <s_epik_input>
Tz1jMVtuSF1jKD1PKVtjSF1bY0hdbjFbQ0gyXUMoPU8pW05IXVtDQEBIXTJbQ0gyXVtDSDJdW0NIMl1bQ0gyXVtOSF1DMj1P

> <s_epik_cmdline>
J2VwaWtfcHl0aG9uJywgJy1waCcsICc3LjAnLCAnLXRuJywgJzgnLCAnLW1hJywgJzIwMCcsICctbWV0YWxfYmluZGluZycsICctaW1hZScsICc8aW5maWxlLm1hZT4nLCAnLW9tYWUnLCAnPG91dGZpbGUubWFlPic=

> <r_lp_tautomer_probability>
0.999537

> <r_epik_Ionization_Penalty>
3.03155

> <r_epik_Ionization_Penalty_Charging>
2.38195e-08

> <r_epik_Ionization_Penalty_Neutral>
3.03155

> <r_epik_State_Penalty>
3.03052

> <r_epik_Charging_Adjusted_Penalty>
3.03052

> <i_epik_Tot_Q>
-1

> <i_epik_Tot_abs_Q>
1

> <r_epik_Metal_State_Penalty>
0.455936

> <b_epik_Metal_Only>
1

> <s_lp_Force_Field>
OPLS_2005

> <r_lp_Energy>
21.0708

> <b_lp_Chiralities_Consistent>
1

> <s_lp_Variant>
AV-unprocessed.smi:2091-3

> <Gold.Version>
5.8.1

> <Gold.Id.Protein>
6NUR|6NUR_protein|mol2

> <Gold.PLP.Fitness>
43.1719

> <Gold.PLP.PLP>
-32.4436

> <Gold.PLP.part.hbond>
-3.0000

> <Gold.PLP.part.metal>
0.0000

> <Gold.PLP.part.buried>
-7.2017

> <Gold.PLP.part.nonpolar>
-23.0407

> <Gold.PLP.part.repulsive>
0.2232

> <Gold.PLP.ligand.clash>
0.0000

> <Gold.PLP.ligand.torsion>
0.6367

> <Gold.PLP.Chemscore.Hbond>
4.0000

> <Gold.PLP.Chemscore.CHOScore>
0.0000

> <Gold.PLP.Chemscore.Metal>
0.0000

> <Gold.Chemscore.Hbonds>
donor molecule, donor type, donor heavy atom, donor atom, acceptor molecule, acceptor atom, score
      L1  H    18    35       P1  8028  1.00
      P1  H  6896  6909       L1     9  1.82
      P1  H  7989  7998       L1     1  1.00

> <Gold.PLP.Chemscore.Internal.Correction>
0.0018

> <Gold.Rescore>
     Score         DG    S(hbond)    S(metal)    S(lipo)     H(rot)  DE(clash)    DE(int)     intcor
     12.05     -16.72       2.70        0.00      59.49       1.85       0.02       4.65       ----

> <Gold.Chemscore.Fitness>
12.0476

> <Gold.Chemscore.DG>
-16.7226

> <Gold.Chemscore.ZeroCoef>
-5.4800

> <Gold.Chemscore.Hbond>
2.7017

> <Gold.Chemscore.Metal>
0.0000

> <Gold.Chemscore.Lipo>
59.4863

> <Gold.Chemscore.Internal_Hbond>
0.0000

> <Gold.Chemscore.DEClash>
0.0247

> <Gold.Chemscore.DEInternal>
4.6503

> <Gold.Chemscore.Rot>
1.8519

> <Gold.Chemscore.Internal.Correction>
   9.000000E+99

> <Gold.Chemscore.Hbonds>
donor molecule, donor type, donor heavy atom, donor atom, acceptor molecule, acceptor atom, score
      L1  H    18    35       P1  8028  0.81
      P1  H  6896  6909       L1     9  0.10
      P1  H  7989  7998       L1     1  0.94

> <Gold.Chemscore.Hbond.Weighted>
-9.0235

> <Gold.Chemscore.Metal.Weighted>
-0.0000

> <Gold.Chemscore.Lipo.Weighted>
-6.9599

> <Gold.Chemscore.Internal_Hbond.Weighted>
0.0000

> <Gold.Chemscore.DEClash.Weighted>
0.0247

> <Gold.Chemscore.DEInternal.Weighted>
4.6503

> <Gold.Chemscore.Rot.Weighted>
4.7408

> <Gold.Chemscore.Internal.Correction.Weighted>
   9.000000E+99

> <Gold.Protein.RotatedTorsions>
[ 6907 6896 6895 6894 ] final   80.74 input  -60.11 | X-H torsion
[ 7974 7965 7964 7962 ] final -179.97 input  175.53 | X-H torsion
[ 8008 7997 7996 7995 ] final -157.97 input   59.86 | X-H torsion
[ 10167 10162 10161 10158 ] final  118.49 input  -65.29 | X-H torsion
[ 10718 10713 10712 10709 ] final   56.28 input   66.30 | X-H torsion
[ 10763 10752 10751 10750 ] final   43.25 input  -60.55 | X-H torsion
[ 11005 11000 10999 10996 ] final  168.68 input  -57.11 | X-H torsion

> <Gold.Protein.ActiveResidues>
 VAL166  LYS551  ARG553  GLY616  TRP617  ASP618  TYR619  PRO620  LYS621  CYS622 
 ASP623  PHE694  ASN695  SER759  ASP760  ASP761  ALA762  ILE779  LEU786  VAL792 
 PHE793  MET794  SER795  GLU796  ALA797  LYS798  CYS799  TRP800  GLU811  SER814 

> <Gold.Protein.RotatedAtoms>
  152.5245  134.3311  159.9182 H   0  0  0  0  0  0  0  0  0  0  0  0  # atno 6907 bound_to 6896
  151.3260  133.4013  159.2666 H   0  0  0  0  0  0  0  0  0  0  0  0  # atno 6908 bound_to 6896
  150.9919  134.9269  159.7962 H   0  0  0  0  0  0  0  0  0  0  0  0  # atno 6909 bound_to 6896
  144.7140  140.0637  143.6432 H   0  0  0  0  0  0  0  0  0  0  0  0  # atno 7974 bound_to 7965
  155.7404  140.0813  157.2248 H   0  0  0  0  0  0  0  0  0  0  0  0  # atno 8008 bound_to 7997
  154.4022  140.1579  156.2665 H   0  0  0  0  0  0  0  0  0  0  0  0  # atno 8009 bound_to 7997
  155.9025  140.3409  155.6040 H   0  0  0  0  0  0  0  0  0  0  0  0  # atno 8010 bound_to 7997
  139.6108  144.7081  151.2849 H   0  0  0  0  0  0  0  0  0  0  0  0  # atno 10167 bound_to 10162
  157.5417  130.8702  149.8832 H   0  0  0  0  0  0  0  0  0  0  0  0  # atno 10718 bound_to 10713
  152.9864  135.6107  154.3081 H   0  0  0  0  0  0  0  0  0  0  0  0  # atno 10763 bound_to 10752
  154.2798  135.2777  155.2704 H   0  0  0  0  0  0  0  0  0  0  0  0  # atno 10764 bound_to 10752
  154.5047  135.5857  153.6615 H   0  0  0  0  0  0  0  0  0  0  0  0  # atno 10765 bound_to 10752
  140.2898  134.7682  157.3829 H   0  0  0  0  0  0  0  0  0  0  0  0  # atno 11005 bound_to 11000
  145.9842  139.2964  143.1023 LP  0  0  0  0  0  0  0  0  0  0  0  0  # atno 17320 bound_to 7965
  145.8976  140.9264  143.0519 LP  0  0  0  0  0  0  0  0  0  0  0  0  # atno 17321 bound_to 7965
  140.7317  143.6843  150.7975 LP  0  0  0  0  0  0  0  0  0  0  0  0  # atno 17342 bound_to 10162
  140.0437  143.5320  152.2706 LP  0  0  0  0  0  0  0  0  0  0  0  0  # atno 17343 bound_to 10162
  156.0502  130.3719  150.1219 LP  0  0  0  0  0  0  0  0  0  0  0  0  # atno 17370 bound_to 10713
  156.9398  130.9741  151.3518 LP  0  0  0  0  0  0  0  0  0  0  0  0  # atno 17371 bound_to 10713
  140.1206  134.5225  155.8187 LP  0  0  0  0  0  0  0  0  0  0  0  0  # atno 17394 bound_to 11000
  141.2148  133.6755  156.6858 LP  0  0  0  0  0  0  0  0  0  0  0  0  # atno 17395 bound_to 11000

$$$$
