AV-unprocessed.smi:2795|AV-procd|sdf|10778|dock1
  -GOLD-   2272015213D 1   1.00000     0.00000
 Structure written by MMmdl.
 37 38  0  0  0  0  0  0  0  0  2 V2000
  153.3961  133.9536  160.6135 C   0  0  0  0  0  0  0  0  0  0  0  0
  152.8147  134.6380  161.7707 N   0  0  0  0  0  0  0  0  0  0  0  0
  152.5395  133.9957  162.9128 C   0  0  0  0  0  0  0  0  0  0  0  0
  152.0281  134.8997  163.7510 N   0  3  0  0  0  0  0  0  0  0  0  0
  151.9763  136.1244  163.1444 C   0  0  0  0  0  0  0  0  0  0  0  0
  152.4781  135.9686  161.8737 C   0  0  0  0  0  0  0  0  0  0  0  0
  152.6737  136.9406  160.7504 C   0  0  0  0  0  0  0  0  0  0  0  0
  153.5938  138.1156  161.1282 C   0  0  0  0  0  0  0  0  0  0  0  0
  152.9250  139.3987  160.9489 N   0  0  0  0  0  0  0  0  0  0  0  0
  153.2648  140.3285  160.0414 C   0  0  0  0  0  0  0  0  0  0  0  0
  154.1912  140.1743  159.2445 O   0  0  0  0  0  0  0  0  0  0  0  0
  152.4184  141.6108  160.0153 C   0  0  2  0  0  0  0  0  0  0  0  0
  152.9014  142.6198  158.9482 C   0  0  0  0  0  0  0  0  0  0  0  0
  152.0725  143.9081  159.0079 C   0  0  0  0  0  0  0  0  0  0  0  0
  152.0668  144.4562  160.4384 C   0  0  0  0  0  0  0  0  0  0  0  0
  151.6225  143.3655  161.4249 C   0  0  0  0  0  0  0  0  0  0  0  0
  152.4692  142.2269  161.3037 O   0  0  0  0  0  0  0  0  0  0  0  0
  153.5012  132.8874  160.8190 H   0  0  0  0  0  0  0  0  0  0  0  0
  154.3773  134.3798  160.4028 H   0  0  0  0  0  0  0  0  0  0  0  0
  152.7440  134.0914  159.7507 H   0  0  0  0  0  0  0  0  0  0  0  0
  152.6985  132.9522  163.1197 H   0  0  0  0  0  0  0  0  0  0  0  0
  151.5947  136.9988  163.6512 H   0  0  0  0  0  0  0  0  0  0  0  0
  153.0857  136.4017  159.8964 H   0  0  0  0  0  0  0  0  0  0  0  0
  151.6983  137.3198  160.4433 H   0  0  0  0  0  0  0  0  0  0  0  0
  153.8905  138.0376  162.1746 H   0  0  0  0  0  0  0  0  0  0  0  0
  154.5121  138.0922  160.5386 H   0  0  0  0  0  0  0  0  0  0  0  0
  152.1518  139.6049  161.5655 H   0  0  0  0  0  0  0  0  0  0  0  0
  151.3895  141.3150  159.8031 H   0  0  0  0  0  0  0  0  0  0  0  0
  153.9537  142.8578  159.1114 H   0  0  0  0  0  0  0  0  0  0  0  0
  152.8292  142.1883  157.9490 H   0  0  0  0  0  0  0  0  0  0  0  0
  152.4725  144.6509  158.3173 H   0  0  0  0  0  0  0  0  0  0  0  0
  151.0496  143.7015  158.6897 H   0  0  0  0  0  0  0  0  0  0  0  0
  153.0668  144.8019  160.7035 H   0  0  0  0  0  0  0  0  0  0  0  0
  151.4068  145.3211  160.5086 H   0  0  0  0  0  0  0  0  0  0  0  0
  151.6803  143.7394  162.4473 H   0  0  0  0  0  0  0  0  0  0  0  0
  150.5843  143.0801  161.2486 H   0  0  0  0  0  0  0  0  0  0  0  0
  151.7244  134.7044  164.6968 H   0  0  0  0  0  0  0  0  0  0  0  0
  1  2  1  0  0  0  0
  1 18  1  0  0  0  0
  1 19  1  0  0  0  0
  1 20  1  0  0  0  0
  2  6  1  0  0  0  0
  2  3  1  0  0  0  0
  3  4  2  0  0  0  0
  3 21  1  0  0  0  0
  4  5  1  0  0  0  0
  4 37  1  0  0  0  0
  5  6  2  0  0  0  0
  5 22  1  0  0  0  0
  6  7  1  0  0  0  0
  7  8  1  0  0  0  0
  7 23  1  0  0  0  0
  7 24  1  0  0  0  0
  8  9  1  0  0  0  0
  8 25  1  0  0  0  0
  8 26  1  0  0  0  0
  9 10  1  0  0  0  0
  9 27  1  0  0  0  0
 10 11  2  0  0  0  0
 10 12  1  0  0  0  0
 12 17  1  0  0  0  0
 12 13  1  0  0  0  0
 12 28  1  0  0  0  0
 13 14  1  0  0  0  0
 13 29  1  0  0  0  0
 13 30  1  0  0  0  0
 14 15  1  0  0  0  0
 14 31  1  0  0  0  0
 14 32  1  0  0  0  0
 15 16  1  0  0  0  0
 15 33  1  0  0  0  0
 15 34  1  0  0  0  0
 16 17  1  0  0  0  0
 16 35  1  0  0  0  0
 16 36  1  0  0  0  0
M  CHG  1   4   1
M  END
> <s_m_source_file>
AV-unprocessed.smi

> <i_m_source_file_index>
2795

> <i_lp_mmshare_version>
43012

> <i_f3d_flags>
0

> <s_epik_input>
W0NIM11uMVtjSF1uW2NIXWMxW0NIMl1bQ0gyXVtOSF1DKD1PKVtDQEBIXTJbQ0gyXVtDSDJdW0NIMl1bQ0gyXU8y

> <s_epik_cmdline>
J2VwaWtfcHl0aG9uJywgJy1waCcsICc3LjAnLCAnLXRuJywgJzgnLCAnLW1hJywgJzIwMCcsICctbWV0YWxfYmluZGluZycsICctaW1hZScsICc8aW5maWxlLm1hZT4nLCAnLW9tYWUnLCAnPG91dGZpbGUubWFlPic=

> <r_lp_tautomer_probability>
1

> <r_epik_Ionization_Penalty>
0.154825

> <r_epik_Ionization_Penalty_Charging>
0

> <r_epik_Ionization_Penalty_Neutral>
0.154825

> <r_epik_State_Penalty>
0.144119

> <r_epik_Charging_Adjusted_Penalty>
0.144119

> <i_epik_Tot_Q>
1

> <i_epik_Tot_abs_Q>
1

> <r_epik_Metal_State_Penalty>
0.465431

> <b_epik_Metal_Only>
0

> <s_lp_Force_Field>
OPLS_2005

> <r_lp_Energy>
10.1075

> <b_lp_Chiralities_Consistent>
1

> <s_lp_Variant>
AV-unprocessed.smi:2795-1

> <Gold.Version>
5.8.1

> <Gold.Id.Protein>
6NUR|6NUR_protein|mol2

> <Gold.PLP.Fitness>
42.5862

> <Gold.PLP.PLP>
-40.6887

> <Gold.PLP.part.hbond>
-2.0000

> <Gold.PLP.part.metal>
0.0000

> <Gold.PLP.part.buried>
-4.3401

> <Gold.PLP.part.nonpolar>
-34.3063

> <Gold.PLP.part.repulsive>
0.1882

> <Gold.PLP.ligand.clash>
0.0000

> <Gold.PLP.ligand.torsion>
0.4054

> <Gold.PLP.Chemscore.Hbond>
0.8882

> <Gold.PLP.Chemscore.CHOScore>
0.0000

> <Gold.PLP.Chemscore.Metal>
0.0000

> <Gold.Chemscore.Hbonds>
donor molecule, donor type, donor heavy atom, donor atom, acceptor molecule, acceptor atom, score
      P1  H  7997  8009       L1    11  0.75

> <Gold.PLP.Chemscore.Internal.Correction>
0.0437

> <Gold.Rescore>
     Score         DG    S(hbond)    S(metal)    S(lipo)     H(rot)  DE(clash)    DE(int)     intcor
     13.64     -14.06       0.91        0.00      87.28       1.82       0.03       0.39       ----

> <Gold.Chemscore.Fitness>
13.6354

> <Gold.Chemscore.DG>
-14.0595

> <Gold.Chemscore.ZeroCoef>
-5.4800

> <Gold.Chemscore.Hbond>
0.9082

> <Gold.Chemscore.Metal>
0.0000

> <Gold.Chemscore.Lipo>
87.2849

> <Gold.Chemscore.Internal_Hbond>
0.0000

> <Gold.Chemscore.DEClash>
0.0330

> <Gold.Chemscore.DEInternal>
0.3911

> <Gold.Chemscore.Rot>
1.8227

> <Gold.Chemscore.Internal.Correction>
   9.000000E+99

> <Gold.Chemscore.Hbonds>
donor molecule, donor type, donor heavy atom, donor atom, acceptor molecule, acceptor atom, score
      P1  H  7997  8009       L1    11  0.73

> <Gold.Chemscore.Hbond.Weighted>
-3.0334

> <Gold.Chemscore.Metal.Weighted>
-0.0000

> <Gold.Chemscore.Lipo.Weighted>
-10.2123

> <Gold.Chemscore.Internal_Hbond.Weighted>
0.0000

> <Gold.Chemscore.DEClash.Weighted>
0.0330

> <Gold.Chemscore.DEInternal.Weighted>
0.3911

> <Gold.Chemscore.Rot.Weighted>
4.6662

> <Gold.Chemscore.Internal.Correction.Weighted>
   9.000000E+99

> <Gold.Protein.RotatedTorsions>
[ 6907 6896 6895 6894 ] final -126.75 input  -60.11 | X-H torsion
[ 7974 7965 7964 7962 ] final  112.08 input  175.53 | X-H torsion
[ 8008 7997 7996 7995 ] final  122.19 input   59.86 | X-H torsion
[ 10167 10162 10161 10158 ] final  146.93 input  -65.29 | X-H torsion
[ 10718 10713 10712 10709 ] final   -2.85 input   66.30 | X-H torsion
[ 10763 10752 10751 10750 ] final  173.94 input  -60.55 | X-H torsion
[ 11005 11000 10999 10996 ] final  169.58 input  -57.11 | X-H torsion

> <Gold.Protein.ActiveResidues>
 VAL166  LYS551  ARG553  GLY616  TRP617  ASP618  TYR619  PRO620  LYS621  CYS622 
 ASP623  PHE694  ASN695  SER759  ASP760  ASP761  ALA762  ILE779  LEU786  VAL792 
 PHE793  MET794  SER795  GLU796  ALA797  LYS798  CYS799  TRP800  GLU811  SER814 

> <Gold.Protein.RotatedAtoms>
  150.9002  133.7128  159.2880 H   0  0  0  0  0  0  0  0  0  0  0  0  # atno 6907 bound_to 6896
  151.4650  135.1040  159.9745 H   0  0  0  0  0  0  0  0  0  0  0  0  # atno 6908 bound_to 6896
  152.4872  133.8356  159.7181 H   0  0  0  0  0  0  0  0  0  0  0  0  # atno 6909 bound_to 6896
  145.2340  139.2807  143.4153 H   0  0  0  0  0  0  0  0  0  0  0  0  # atno 7974 bound_to 7965
  156.2717  140.2791  156.1428 H   0  0  0  0  0  0  0  0  0  0  0  0  # atno 8008 bound_to 7997
  155.0935  140.0389  157.2693 H   0  0  0  0  0  0  0  0  0  0  0  0  # atno 8009 bound_to 7997
  154.6870  140.2621  155.6856 H   0  0  0  0  0  0  0  0  0  0  0  0  # atno 8010 bound_to 7997
  139.4898  144.5793  151.6904 H   0  0  0  0  0  0  0  0  0  0  0  0  # atno 10167 bound_to 10162
  156.7848  130.5342  149.5745 H   0  0  0  0  0  0  0  0  0  0  0  0  # atno 10718 bound_to 10713
  154.4470  135.2763  155.1808 H   0  0  0  0  0  0  0  0  0  0  0  0  # atno 10763 bound_to 10752
  154.3651  135.6121  153.5714 H   0  0  0  0  0  0  0  0  0  0  0  0  # atno 10764 bound_to 10752
  152.9844  135.5843  154.4808 H   0  0  0  0  0  0  0  0  0  0  0  0  # atno 10765 bound_to 10752
  140.2993  134.7609  157.3902 H   0  0  0  0  0  0  0  0  0  0  0  0  # atno 11005 bound_to 11000
  146.3346  140.2684  142.8605 LP  0  0  0  0  0  0  0  0  0  0  0  0  # atno 17320 bound_to 7965
  144.9650  140.8313  143.5490 LP  0  0  0  0  0  0  0  0  0  0  0  0  # atno 17321 bound_to 7965
  140.5395  144.0601  150.6083 LP  0  0  0  0  0  0  0  0  0  0  0  0  # atno 17342 bound_to 10162
  140.3619  143.2903  152.0374 LP  0  0  0  0  0  0  0  0  0  0  0  0  # atno 17343 bound_to 10162
  156.1195  130.6100  151.0172 LP  0  0  0  0  0  0  0  0  0  0  0  0  # atno 17370 bound_to 10713
  157.6629  131.0877  150.7796 LP  0  0  0  0  0  0  0  0  0  0  0  0  # atno 17371 bound_to 10713
  140.1124  134.5328  155.8254 LP  0  0  0  0  0  0  0  0  0  0  0  0  # atno 17394 bound_to 11000
  141.2131  133.6729  156.6714 LP  0  0  0  0  0  0  0  0  0  0  0  0  # atno 17395 bound_to 11000

$$$$
