AV-unprocessed.smi:1836|AV-procd|sdf|7480|dock5
  -GOLD-   22720 9173D 1   1.00000     0.00000
 Structure written by MMmdl.
 32 33  0  0  0  0  0  0  0  0  2 V2000
  152.1246  139.3587  159.2106 C   0  0  0  0  0  0  0  0  0  0  0  0
  151.0554  140.3355  158.7033 C   0  0  1  0  0  0  0  0  0  0  0  0
  151.6904  141.6750  158.2664 C   0  0  0  0  0  0  0  0  0  0  0  0
  151.9840  142.5502  159.4009 N   0  0  0  0  0  0  0  0  0  0  0  0
  152.8168  142.0865  160.4981 C   0  0  0  0  0  0  0  0  0  0  0  0
  152.6949  143.1754  161.5729 C   0  0  0  0  0  0  0  0  0  0  0  0
  152.1101  144.3983  160.8587 C   0  0  0  0  0  0  0  0  0  0  0  0
  151.6157  143.8302  159.5395 C   0  0  0  0  0  0  0  0  0  0  0  0
  150.9640  144.4917  158.7328 O   0  0  0  0  0  0  0  0  0  0  0  0
  150.3417  139.7031  157.5939 N   0  0  0  0  0  0  0  0  0  0  0  0
  150.8877  139.2336  156.4617 C   0  0  0  0  0  0  0  0  0  0  0  0
  152.1040  139.3262  156.2777 O   0  0  0  0  0  0  0  0  0  0  0  0
  149.9936  138.6678  155.6199 N   0  5  0  0  0  0  0  0  0  0  0  0
  149.0765  139.4334  155.0064 C   0  0  0  0  0  0  0  0  0  0  0  0
  149.3144  140.7116  154.6712 N   0  0  0  0  0  0  0  0  0  0  0  0
  148.2335  141.3229  154.0501 N   0  0  0  0  0  0  0  0  0  0  0  0
  147.2011  140.4875  153.9381 C   0  0  0  0  0  0  0  0  0  0  0  0
  147.4529  138.8799  154.5851 S   0  0  0  0  0  0  0  0  0  0  0  0
  152.6616  139.7732  160.0641 H   0  0  0  0  0  0  0  0  0  0  0  0
  152.8564  139.1321  158.4345 H   0  0  0  0  0  0  0  0  0  0  0  0
  151.6760  138.4177  159.5313 H   0  0  0  0  0  0  0  0  0  0  0  0
  150.3736  140.5197  159.5354 H   0  0  0  0  0  0  0  0  0  0  0  0
  152.6290  141.4817  157.7453 H   0  0  0  0  0  0  0  0  0  0  0  0
  151.0486  142.1843  157.5452 H   0  0  0  0  0  0  0  0  0  0  0  0
  152.4867  141.1154  160.8684 H   0  0  0  0  0  0  0  0  0  0  0  0
  153.8468  141.9901  160.1524 H   0  0  0  0  0  0  0  0  0  0  0  0
  152.0130  142.8478  162.3590 H   0  0  0  0  0  0  0  0  0  0  0  0
  153.6557  143.3928  162.0401 H   0  0  0  0  0  0  0  0  0  0  0  0
  151.2970  144.8563  161.4229 H   0  0  0  0  0  0  0  0  0  0  0  0
  152.8743  145.1518  160.6657 H   0  0  0  0  0  0  0  0  0  0  0  0
  149.3434  139.5966  157.6993 H   0  0  0  0  0  0  0  0  0  0  0  0
  146.2843  140.8208  153.4755 H   0  0  0  0  0  0  0  0  0  0  0  0
  1  2  1  0  0  0  0
  1 19  1  0  0  0  0
  1 20  1  0  0  0  0
  1 21  1  0  0  0  0
  2  3  1  0  0  0  0
  2 10  1  0  0  0  0
  2 22  1  0  0  0  0
  3  4  1  0  0  0  0
  3 23  1  0  0  0  0
  3 24  1  0  0  0  0
  4  8  1  0  0  0  0
  4  5  1  0  0  0  0
  5  6  1  0  0  0  0
  5 25  1  0  0  0  0
  5 26  1  0  0  0  0
  6  7  1  0  0  0  0
  6 27  1  0  0  0  0
  6 28  1  0  0  0  0
  7  8  1  0  0  0  0
  7 29  1  0  0  0  0
  7 30  1  0  0  0  0
  8  9  2  0  0  0  0
 10 11  1  0  0  0  0
 10 31  1  0  0  0  0
 11 12  2  0  0  0  0
 11 13  1  0  0  0  0
 13 14  1  0  0  0  0
 14 18  1  0  0  0  0
 14 15  2  0  0  0  0
 15 16  1  0  0  0  0
 16 17  2  0  0  0  0
 17 18  1  0  0  0  0
 17 32  1  0  0  0  0
M  CHG  1  13  -1
M  END
> <s_m_source_file>
AV-unprocessed.smi

> <i_m_source_file_index>
1836

> <i_lp_mmshare_version>
43012

> <i_f3d_flags>
0

> <s_epik_input>
Tz1DMVtDSDJdW0NIMl1bQ0gyXU4xW0NIMl1bQ0BASF0oW0NIM10pW05IXUMoPU8pW05IXWMybm5bY0hdczI=

> <s_epik_cmdline>
J2VwaWtfcHl0aG9uJywgJy1waCcsICc3LjAnLCAnLXRuJywgJzgnLCAnLW1hJywgJzIwMCcsICctbWV0YWxfYmluZGluZycsICctaW1hZScsICc8aW5maWxlLm1hZT4nLCAnLW9tYWUnLCAnPG91dGZpbGUubWFlPic=

> <r_lp_tautomer_probability>
1

> <r_epik_Ionization_Penalty>
3.44722

> <r_epik_Ionization_Penalty_Charging>
3.40341

> <r_epik_Ionization_Penalty_Neutral>
0.0438099

> <r_epik_State_Penalty>
3.40151

> <r_epik_Charging_Adjusted_Penalty>
6.80491

> <i_epik_Tot_Q>
-1

> <i_epik_Tot_abs_Q>
1

> <r_epik_Metal_State_Penalty>
0.49534

> <b_epik_Metal_Only>
1

> <s_lp_Force_Field>
OPLS_2005

> <r_lp_Energy>
17.1678

> <b_lp_Chiralities_Consistent>
1

> <s_lp_Variant>
AV-unprocessed.smi:1836-4

> <Gold.Version>
5.8.1

> <Gold.Id.Protein>
6NUR|6NUR_protein|mol2

> <Gold.PLP.Fitness>
40.8973

> <Gold.PLP.PLP>
-36.9585

> <Gold.PLP.part.hbond>
-3.2370

> <Gold.PLP.part.metal>
0.0000

> <Gold.PLP.part.buried>
-5.5543

> <Gold.PLP.part.nonpolar>
-27.9362

> <Gold.PLP.part.repulsive>
0.5535

> <Gold.PLP.ligand.clash>
0.0000

> <Gold.PLP.ligand.torsion>
1.1001

> <Gold.PLP.Chemscore.Hbond>
1.9968

> <Gold.PLP.Chemscore.CHOScore>
0.0000

> <Gold.PLP.Chemscore.Metal>
0.0000

> <Gold.Chemscore.Hbonds>
donor molecule, donor type, donor heavy atom, donor atom, acceptor molecule, acceptor atom, score
      P1  H  7997  8009       L1    12  0.13
      L1  C    17    32       P1 10175  0.32

> <Gold.PLP.Chemscore.Internal.Correction>
0.1485

> <Gold.Rescore>
     Score         DG    S(hbond)    S(metal)    S(lipo)     H(rot)  DE(clash)    DE(int)     intcor
      9.73     -12.19       1.00        0.00      66.73       1.73       0.15       2.31       ----

> <Gold.Chemscore.Fitness>
9.7266

> <Gold.Chemscore.DG>
-12.1874

> <Gold.Chemscore.ZeroCoef>
-5.4800

> <Gold.Chemscore.Hbond>
0.9969

> <Gold.Chemscore.Metal>
0.0000

> <Gold.Chemscore.Lipo>
66.7276

> <Gold.Chemscore.Internal_Hbond>
0.0000

> <Gold.Chemscore.DEClash>
0.1481

> <Gold.Chemscore.DEInternal>
2.3128

> <Gold.Chemscore.Rot>
1.7302

> <Gold.Chemscore.Internal.Correction>
   9.000000E+99

> <Gold.Chemscore.Hbonds>
donor molecule, donor type, donor heavy atom, donor atom, acceptor molecule, acceptor atom, score
      P1  H  7997  8009       L1    12  0.14

> <Gold.Chemscore.Hbond.Weighted>
-3.3297

> <Gold.Chemscore.Metal.Weighted>
-0.0000

> <Gold.Chemscore.Lipo.Weighted>
-7.8071

> <Gold.Chemscore.Internal_Hbond.Weighted>
0.0000

> <Gold.Chemscore.DEClash.Weighted>
0.1481

> <Gold.Chemscore.DEInternal.Weighted>
2.3128

> <Gold.Chemscore.Rot.Weighted>
4.4294

> <Gold.Chemscore.Internal.Correction.Weighted>
   9.000000E+99

> <Gold.Protein.RotatedTorsions>
[ 6907 6896 6895 6894 ] final  -36.79 input  -60.11 | X-H torsion
[ 7974 7965 7964 7962 ] final -102.62 input  175.53 | X-H torsion
[ 8008 7997 7996 7995 ] final -155.85 input   59.86 | X-H torsion
[ 10167 10162 10161 10158 ] final  -92.06 input  -65.29 | X-H torsion
[ 10718 10713 10712 10709 ] final  -70.72 input   66.30 | X-H torsion
[ 10763 10752 10751 10750 ] final  157.51 input  -60.55 | X-H torsion
[ 11005 11000 10999 10996 ] final  132.39 input  -57.11 | X-H torsion

> <Gold.Protein.ActiveResidues>
 VAL166  LYS551  ARG553  GLY616  TRP617  ASP618  TYR619  PRO620  LYS621  CYS622 
 ASP623  PHE694  ASN695  SER759  ASP760  ASP761  ALA762  ILE779  LEU786  VAL792 
 PHE793  MET794  SER795  GLU796  ALA797  LYS798  CYS799  TRP800  GLU811  SER814 

> <Gold.Protein.RotatedAtoms>
  151.0227  134.9481  159.8068 H   0  0  0  0  0  0  0  0  0  0  0  0  # atno 6907 bound_to 6896
  152.5328  134.2882  159.9043 H   0  0  0  0  0  0  0  0  0  0  0  0  # atno 6908 bound_to 6896
  151.2890  133.4132  159.2666 H   0  0  0  0  0  0  0  0  0  0  0  0  # atno 6909 bound_to 6896
  145.2663  140.9285  143.3012 H   0  0  0  0  0  0  0  0  0  0  0  0  # atno 7974 bound_to 7965
  155.7082  140.0775  157.2382 H   0  0  0  0  0  0  0  0  0  0  0  0  # atno 8008 bound_to 7997
  154.4062  140.1635  156.2320 H   0  0  0  0  0  0  0  0  0  0  0  0  # atno 8009 bound_to 7997
  155.9307  140.3391  155.6249 H   0  0  0  0  0  0  0  0  0  0  0  0  # atno 8010 bound_to 7997
  140.3386  143.2955  151.9861 H   0  0  0  0  0  0  0  0  0  0  0  0  # atno 10167 bound_to 10162
  156.0395  130.4337  150.2337 H   0  0  0  0  0  0  0  0  0  0  0  0  # atno 10718 bound_to 10713
  154.2013  135.2790  155.2990 H   0  0  0  0  0  0  0  0  0  0  0  0  # atno 10763 bound_to 10752
  154.5852  135.5577  153.7227 H   0  0  0  0  0  0  0  0  0  0  0  0  # atno 10764 bound_to 10752
  153.0087  135.6354  154.2152 H   0  0  0  0  0  0  0  0  0  0  0  0  # atno 10765 bound_to 10752
  139.9787  134.9555  156.9576 H   0  0  0  0  0  0  0  0  0  0  0  0  # atno 11005 bound_to 11000
  144.9374  139.4228  143.6466 LP  0  0  0  0  0  0  0  0  0  0  0  0  # atno 17320 bound_to 7965
  146.3260  139.8316  142.8907 LP  0  0  0  0  0  0  0  0  0  0  0  0  # atno 17321 bound_to 7965
  139.4844  144.6176  151.7317 LP  0  0  0  0  0  0  0  0  0  0  0  0  # atno 17342 bound_to 10162
  140.5330  144.0700  150.6060 LP  0  0  0  0  0  0  0  0  0  0  0  0  # atno 17343 bound_to 10162
  157.0433  131.0041  151.3276 LP  0  0  0  0  0  0  0  0  0  0  0  0  # atno 17370 bound_to 10713
  157.5193  130.7988  149.7791 LP  0  0  0  0  0  0  0  0  0  0  0  0  # atno 17371 bound_to 10713
  140.5140  134.0973  155.7277 LP  0  0  0  0  0  0  0  0  0  0  0  0  # atno 17394 bound_to 11000
  141.1462  133.9051  157.2210 LP  0  0  0  0  0  0  0  0  0  0  0  0  # atno 17395 bound_to 11000

$$$$
