AV-unprocessed.smi:2821|AV-procd|sdf|10858|dock3
  -GOLD-   2272015303D 1   1.00000     0.00000
 Structure written by MMmdl.
 36 37  0  0  0  0  0  0  0  0  1 V2000
  147.4626  141.9793  154.3824 C   0  0  0  0  0  0  0  0  0  0  0  0
  147.0384  140.5591  154.7641 C   0  0  0  0  0  0  0  0  0  0  0  0
  148.0724  139.6550  154.3870 O   0  0  0  0  0  0  0  0  0  0  0  0
  149.2675  139.7044  155.0745 C   0  0  0  0  0  0  0  0  0  0  0  0
  150.2250  138.6862  154.8797 C   0  0  0  0  0  0  0  0  0  0  0  0
  151.4116  138.6872  155.5261 N   0  0  0  0  0  0  0  0  0  0  0  0
  151.6387  139.7152  156.3734 C   0  0  0  0  0  0  0  0  0  0  0  0
  150.6898  140.7413  156.5794 C   0  0  0  0  0  0  0  0  0  0  0  0
  150.9826  141.7783  157.4771 N   0  0  0  0  0  0  0  0  0  0  0  0
  151.9176  141.6027  158.5856 C   0  0  2  0  0  0  0  0  0  0  0  0
  151.4885  140.4389  159.4952 C   0  0  0  0  0  0  0  0  0  0  0  0
  152.0763  142.9094  159.3883 C   0  0  1  0  0  0  0  0  0  0  0  0
  152.6975  144.0804  158.6223 C   0  0  0  0  0  0  0  0  0  0  0  0
  152.1707  145.2612  159.4058 C   0  0  0  0  0  0  0  0  0  0  0  0
  150.7538  144.8035  159.7399 C   0  0  0  0  0  0  0  0  0  0  0  0
  150.8234  143.3866  159.8763 O   0  0  0  0  0  0  0  0  0  0  0  0
  149.5019  140.7327  155.9283 N   0  0  0  0  0  0  0  0  0  0  0  0
  146.6942  142.7021  154.6575 H   0  0  0  0  0  0  0  0  0  0  0  0
  147.6300  142.0623  153.3083 H   0  0  0  0  0  0  0  0  0  0  0  0
  148.3853  142.2625  154.8893 H   0  0  0  0  0  0  0  0  0  0  0  0
  146.8611  140.5054  155.8397 H   0  0  0  0  0  0  0  0  0  0  0  0
  146.1063  140.3083  154.2550 H   0  0  0  0  0  0  0  0  0  0  0  0
  150.0377  137.8668  154.2014 H   0  0  0  0  0  0  0  0  0  0  0  0
  152.5870  139.7163  156.8912 H   0  0  0  0  0  0  0  0  0  0  0  0
  150.4498  142.6354  157.4351 H   0  0  0  0  0  0  0  0  0  0  0  0
  152.8993  141.3638  158.1751 H   0  0  0  0  0  0  0  0  0  0  0  0
  152.2007  140.2956  160.3080 H   0  0  0  0  0  0  0  0  0  0  0  0
  151.4312  139.4994  158.9454 H   0  0  0  0  0  0  0  0  0  0  0  0
  150.5099  140.6229  159.9400 H   0  0  0  0  0  0  0  0  0  0  0  0
  152.7012  142.7169  160.2620 H   0  0  0  0  0  0  0  0  0  0  0  0
  153.7867  144.0376  158.5925 H   0  0  0  0  0  0  0  0  0  0  0  0
  152.3309  144.1271  157.5961 H   0  0  0  0  0  0  0  0  0  0  0  0
  152.7498  145.3921  160.3209 H   0  0  0  0  0  0  0  0  0  0  0  0
  152.1964  146.1964  158.8463 H   0  0  0  0  0  0  0  0  0  0  0  0
  150.3649  145.2735  160.6436 H   0  0  0  0  0  0  0  0  0  0  0  0
  150.0761  145.0373  158.9178 H   0  0  0  0  0  0  0  0  0  0  0  0
  1  2  1  0  0  0  0
  1 18  1  0  0  0  0
  1 19  1  0  0  0  0
  1 20  1  0  0  0  0
  2  3  1  0  0  0  0
  2 21  1  0  0  0  0
  2 22  1  0  0  0  0
  3  4  1  0  0  0  0
  4 17  1  0  0  0  0
  4  5  2  0  0  0  0
  5  6  1  0  0  0  0
  5 23  1  0  0  0  0
  6  7  2  0  0  0  0
  7  8  1  0  0  0  0
  7 24  1  0  0  0  0
  8  9  1  0  0  0  0
  8 17  2  0  0  0  0
  9 10  1  0  0  0  0
  9 25  1  0  0  0  0
 10 11  1  0  0  0  0
 10 12  1  0  0  0  0
 10 26  1  0  0  0  0
 11 27  1  0  0  0  0
 11 28  1  0  0  0  0
 11 29  1  0  0  0  0
 12 16  1  0  0  0  0
 12 13  1  0  0  0  0
 12 30  1  0  0  0  0
 13 14  1  0  0  0  0
 13 31  1  0  0  0  0
 13 32  1  0  0  0  0
 14 15  1  0  0  0  0
 14 33  1  0  0  0  0
 14 34  1  0  0  0  0
 15 16  1  0  0  0  0
 15 35  1  0  0  0  0
 15 36  1  0  0  0  0
M  END
> <s_m_source_file>
AV-unprocessed.smi

> <i_m_source_file_index>
2821

> <i_lp_mmshare_version>
43012

> <i_f3d_flags>
0

> <s_epik_input>
W0NIM11bQ0gyXU9jMVtjSF1uW2NIXWMobjEpW05IXVtDQEhdKFtDSDNdKVtDQEBIXTJbQ0gyXVtDSDJdW0NIMl1PMg==

> <s_epik_cmdline>
J2VwaWtfcHl0aG9uJywgJy1waCcsICc3LjAnLCAnLXRuJywgJzgnLCAnLW1hJywgJzIwMCcsICctbWV0YWxfYmluZGluZycsICctaW1hZScsICc8aW5maWxlLm1hZT4nLCAnLW9tYWUnLCAnPG91dGZpbGUubWFlPic=

> <r_lp_tautomer_probability>
1

> <r_epik_Ionization_Penalty>
4.69533e-05

> <r_epik_Ionization_Penalty_Charging>
0

> <r_epik_Ionization_Penalty_Neutral>
4.69533e-05

> <r_epik_State_Penalty>
-0

> <r_epik_Charging_Adjusted_Penalty>
0

> <i_epik_Tot_Q>
0

> <i_epik_Tot_abs_Q>
0

> <r_epik_Metal_State_Penalty>
-0

> <b_epik_Metal_Only>
0

> <s_lp_Force_Field>
OPLS_2005

> <r_lp_Energy>
29.921

> <b_lp_Chiralities_Consistent>
1

> <s_lp_Variant>
AV-unprocessed.smi:2821-3

> <Gold.Version>
5.8.1

> <Gold.Id.Protein>
6NUR|6NUR_protein|mol2

> <Gold.PLP.Fitness>
39.1444

> <Gold.PLP.PLP>
-37.5763

> <Gold.PLP.part.hbond>
-1.2924

> <Gold.PLP.part.metal>
0.0000

> <Gold.PLP.part.buried>
-4.5653

> <Gold.PLP.part.nonpolar>
-32.5891

> <Gold.PLP.part.repulsive>
0.4545

> <Gold.PLP.ligand.clash>
0.0000

> <Gold.PLP.ligand.torsion>
0.3081

> <Gold.PLP.Chemscore.Hbond>
0.0000

> <Gold.PLP.Chemscore.CHOScore>
0.7044

> <Gold.PLP.Chemscore.Metal>
0.0000

> <Gold.PLP.Chemscore.Internal.Correction>
0.0711

> <Gold.Rescore>
     Score         DG    S(hbond)    S(metal)    S(lipo)     H(rot)  DE(clash)    DE(int)     intcor
     10.94     -12.35       0.00        0.00      92.66       1.55       0.03       1.38       ----

> <Gold.Chemscore.Fitness>
10.9387

> <Gold.Chemscore.DG>
-12.3499

> <Gold.Chemscore.ZeroCoef>
-5.4800

> <Gold.Chemscore.Hbond>
0.0000

> <Gold.Chemscore.Metal>
0.0000

> <Gold.Chemscore.Lipo>
92.6617

> <Gold.Chemscore.Internal_Hbond>
0.0000

> <Gold.Chemscore.DEClash>
0.0348

> <Gold.Chemscore.DEInternal>
1.3764

> <Gold.Chemscore.Rot>
1.5514

> <Gold.Chemscore.Internal.Correction>
   9.000000E+99

> <Gold.Chemscore.Hbond.Weighted>
-0.0000

> <Gold.Chemscore.Metal.Weighted>
-0.0000

> <Gold.Chemscore.Lipo.Weighted>
-10.8414

> <Gold.Chemscore.Internal_Hbond.Weighted>
0.0000

> <Gold.Chemscore.DEClash.Weighted>
0.0348

> <Gold.Chemscore.DEInternal.Weighted>
1.3764

> <Gold.Chemscore.Rot.Weighted>
3.9715

> <Gold.Chemscore.Internal.Correction.Weighted>
   9.000000E+99

> <Gold.Protein.RotatedTorsions>
[ 6907 6896 6895 6894 ] final   70.23 input  -60.11 | X-H torsion
[ 7974 7965 7964 7962 ] final -142.40 input  175.53 | X-H torsion
[ 8008 7997 7996 7995 ] final  -85.56 input   59.86 | X-H torsion
[ 10167 10162 10161 10158 ] final -163.66 input  -65.29 | X-H torsion
[ 10718 10713 10712 10709 ] final  112.85 input   66.30 | X-H torsion
[ 10763 10752 10751 10750 ] final -138.54 input  -60.55 | X-H torsion
[ 11005 11000 10999 10996 ] final  135.46 input  -57.11 | X-H torsion

> <Gold.Protein.ActiveResidues>
 VAL166  LYS551  ARG553  GLY616  TRP617  ASP618  TYR619  PRO620  LYS621  CYS622 
 ASP623  PHE694  ASN695  SER759  ASP760  ASP761  ALA762  ILE779  LEU786  VAL792 
 PHE793  MET794  SER795  GLU796  ALA797  LYS798  CYS799  TRP800  GLU811  SER814 

> <Gold.Protein.RotatedAtoms>
  152.4736  134.4899  159.9691 H   0  0  0  0  0  0  0  0  0  0  0  0  # atno 6907 bound_to 6896
  151.4920  133.3517  159.2863 H   0  0  0  0  0  0  0  0  0  0  0  0  # atno 6908 bound_to 6896
  150.8761  134.8171  159.7252 H   0  0  0  0  0  0  0  0  0  0  0  0  # atno 6909 bound_to 6896
  144.8446  140.5962  143.5430 H   0  0  0  0  0  0  0  0  0  0  0  0  # atno 7974 bound_to 7965
  154.6421  140.0590  156.9858 H   0  0  0  0  0  0  0  0  0  0  0  0  # atno 8008 bound_to 7997
  155.1501  140.3273  155.4414 H   0  0  0  0  0  0  0  0  0  0  0  0  # atno 8009 bound_to 7997
  156.2536  140.1949  156.6613 H   0  0  0  0  0  0  0  0  0  0  0  0  # atno 8010 bound_to 7997
  139.6305  144.0449  152.2011 H   0  0  0  0  0  0  0  0  0  0  0  0  # atno 10167 bound_to 10162
  157.6370  131.0974  150.6956 H   0  0  0  0  0  0  0  0  0  0  0  0  # atno 10718 bound_to 10713
  154.8634  135.3609  154.5402 H   0  0  0  0  0  0  0  0  0  0  0  0  # atno 10763 bound_to 10752
  153.6024  135.7012  153.5384 H   0  0  0  0  0  0  0  0  0  0  0  0  # atno 10764 bound_to 10752
  153.3280  135.4132  155.1433 H   0  0  0  0  0  0  0  0  0  0  0  0  # atno 10765 bound_to 10752
  139.9981  134.9489  157.0010 H   0  0  0  0  0  0  0  0  0  0  0  0  # atno 11005 bound_to 11000
  145.4624  139.1511  143.3859 LP  0  0  0  0  0  0  0  0  0  0  0  0  # atno 17320 bound_to 7965
  146.2733  140.4754  142.8806 LP  0  0  0  0  0  0  0  0  0  0  0  0  # atno 17321 bound_to 7965
  140.0113  144.6221  150.7645 LP  0  0  0  0  0  0  0  0  0  0  0  0  # atno 17342 bound_to 10162
  140.7436  143.2849  151.3493 LP  0  0  0  0  0  0  0  0  0  0  0  0  # atno 17343 bound_to 10162
  156.7286  130.4702  149.5505 LP  0  0  0  0  0  0  0  0  0  0  0  0  # atno 17370 bound_to 10713
  156.1617  130.6378  151.0727 LP  0  0  0  0  0  0  0  0  0  0  0  0  # atno 17371 bound_to 10713
  140.4779  134.1319  155.7212 LP  0  0  0  0  0  0  0  0  0  0  0  0  # atno 17394 bound_to 11000
  141.1620  133.8774  157.1820 LP  0  0  0  0  0  0  0  0  0  0  0  0  # atno 17395 bound_to 11000

$$$$
