AV-unprocessed.smi:109|AV-procd|sdf|1041|dock9
  -GOLD-   2262018 73D 1   1.00000     0.00000
 Structure written by MMmdl.
 58 61  0  0  0  0  0  0  0  0  1 V2000
  153.2786  138.8376  156.5119 O   0  0  0  0  0  0  0  0  0  0  0  0
  152.2577  139.5484  157.1785 C   0  0  0  0  0  0  0  0  0  0  0  0
  151.7025  140.6502  156.2595 C   0  0  0  0  0  0  0  0  0  0  0  0
  150.7509  141.6500  156.9625 C   0  0  2  0  0  0  0  0  0  0  0  0
  149.8288  142.2218  155.9782 N   0  0  0  0  0  0  0  0  0  0  0  0
  148.9839  141.4572  155.2505 C   0  0  0  0  0  0  0  0  0  0  0  0
  148.8399  141.6338  153.9116 N   0  0  0  0  0  0  0  0  0  0  0  0
  147.9916  140.8659  153.2227 C   0  0  0  0  0  0  0  0  0  0  0  0
  147.2073  139.8831  153.6690 N   0  0  0  0  0  0  0  0  0  0  0  0
  147.3468  139.6981  155.0135 C   0  0  0  0  0  0  0  0  0  0  0  0
  148.2102  140.4403  155.8674 C   0  0  0  0  0  0  0  0  0  0  0  0
  148.0944  139.9784  157.1717 N   0  0  0  0  0  0  0  0  0  0  0  0
  147.2139  139.0178  157.0885 C   0  0  0  0  0  0  0  0  0  0  0  0
  146.7133  138.7787  155.8276 N   0  0  0  0  0  0  0  0  0  0  0  0
  145.6986  137.7449  155.4389 C   0  0  1  0  0  0  0  0  0  0  0  0
  145.2569  137.0729  156.5817 O   0  0  0  0  0  0  0  0  0  0  0  0
  143.8459  137.2127  156.7281 C   0  0  2  0  0  0  0  0  0  0  0  0
  143.2456  135.9911  157.4462 C   0  0  0  0  0  0  0  0  0  0  0  0
  141.8558  136.1599  157.6286 O   0  0  0  0  0  0  0  0  0  0  0  0
  143.3321  137.5137  155.3123 C   0  0  2  0  0  0  0  0  0  0  0  0
  143.1393  136.3261  154.5662 O   0  0  0  0  0  0  0  0  0  0  0  0
  144.4670  138.3336  154.7197 C   0  0  1  0  0  0  0  0  0  0  0  0
  144.2643  139.7151  154.9600 O   0  0  0  0  0  0  0  0  0  0  0  0
  151.4985  142.7988  157.6996 C   0  0  0  0  0  0  0  0  0  0  0  0
  152.4297  142.2924  158.8303 C   0  0  0  0  0  0  0  0  0  0  0  0
  153.1349  143.4407  159.5709 C   0  0  0  0  0  0  0  0  0  0  0  0
  152.1270  144.4493  160.1346 C   0  0  0  0  0  0  0  0  0  0  0  0
  151.2160  144.9802  159.0219 C   0  0  0  0  0  0  0  0  0  0  0  0
  150.5038  143.8303  158.2932 C   0  0  0  0  0  0  0  0  0  0  0  0
  146.2493  137.0404  154.8145 H   0  0  0  0  0  0  0  0  0  0  0  0
  143.6758  138.0963  157.3444 H   0  0  0  0  0  0  0  0  0  0  0  0
  142.3867  138.0575  155.3285 H   0  0  0  0  0  0  0  0  0  0  0  0
  144.5685  138.1918  153.6430 H   0  0  0  0  0  0  0  0  0  0  0  0
  153.4190  138.0196  156.9639 H   0  0  0  0  0  0  0  0  0  0  0  0
  151.4786  138.8432  157.4675 H   0  0  0  0  0  0  0  0  0  0  0  0
  152.6666  139.9799  158.0925 H   0  0  0  0  0  0  0  0  0  0  0  0
  152.5625  141.1805  155.8545 H   0  0  0  0  0  0  0  0  0  0  0  0
  151.1927  140.1961  155.4085 H   0  0  0  0  0  0  0  0  0  0  0  0
  150.2005  141.1021  157.7271 H   0  0  0  0  0  0  0  0  0  0  0  0
  149.8313  143.2300  155.9205 H   0  0  0  0  0  0  0  0  0  0  0  0
  147.9326  141.0671  152.1633 H   0  0  0  0  0  0  0  0  0  0  0  0
  146.9035  138.4498  157.9537 H   0  0  0  0  0  0  0  0  0  0  0  0
  143.4358  135.0688  156.8968 H   0  0  0  0  0  0  0  0  0  0  0  0
  143.7078  135.8756  158.4269 H   0  0  0  0  0  0  0  0  0  0  0  0
  141.4099  135.4229  157.2394 H   0  0  0  0  0  0  0  0  0  0  0  0
  143.8358  135.7243  154.7813 H   0  0  0  0  0  0  0  0  0  0  0  0
  143.8955  140.1028  154.1810 H   0  0  0  0  0  0  0  0  0  0  0  0
  152.1198  143.3180  156.9678 H   0  0  0  0  0  0  0  0  0  0  0  0
  151.8545  141.6985  159.5420 H   0  0  0  0  0  0  0  0  0  0  0  0
  153.2043  141.6380  158.4342 H   0  0  0  0  0  0  0  0  0  0  0  0
  153.7479  143.0395  160.3786 H   0  0  0  0  0  0  0  0  0  0  0  0
  153.8180  143.9489  158.8891 H   0  0  0  0  0  0  0  0  0  0  0  0
  151.5238  143.9737  160.9088 H   0  0  0  0  0  0  0  0  0  0  0  0
  152.6535  145.2758  160.6130 H   0  0  0  0  0  0  0  0  0  0  0  0
  150.4800  145.6671  159.4406 H   0  0  0  0  0  0  0  0  0  0  0  0
  151.8056  145.5565  158.3078 H   0  0  0  0  0  0  0  0  0  0  0  0
  149.8784  144.2616  157.5116 H   0  0  0  0  0  0  0  0  0  0  0  0
  149.8249  143.3283  158.9837 H   0  0  0  0  0  0  0  0  0  0  0  0
  1  2  1  0  0  0  0
  1 34  1  0  0  0  0
  2  3  1  0  0  0  0
  2 35  1  0  0  0  0
  2 36  1  0  0  0  0
  3  4  1  0  0  0  0
  3 37  1  0  0  0  0
  3 38  1  0  0  0  0
  4  5  1  0  0  0  0
  4 24  1  0  0  0  0
  4 39  1  0  0  0  0
  5  6  1  0  0  0  0
  5 40  1  0  0  0  0
  6 11  1  0  0  0  0
  6  7  2  0  0  0  0
  7  8  1  0  0  0  0
  8  9  2  0  0  0  0
  8 41  1  0  0  0  0
  9 10  1  0  0  0  0
 10 14  1  0  0  0  0
 10 11  2  0  0  0  0
 11 12  1  0  0  0  0
 12 13  2  0  0  0  0
 13 14  1  0  0  0  0
 13 42  1  0  0  0  0
 14 15  1  0  0  0  0
 15 30  1  0  0  0  0
 15 22  1  0  0  0  0
 15 16  1  0  0  0  0
 16 17  1  0  0  0  0
 17 31  1  0  0  0  0
 17 18  1  0  0  0  0
 17 20  1  0  0  0  0
 18 19  1  0  0  0  0
 18 43  1  0  0  0  0
 18 44  1  0  0  0  0
 19 45  1  0  0  0  0
 20 32  1  0  0  0  0
 20 21  1  0  0  0  0
 20 22  1  0  0  0  0
 21 46  1  0  0  0  0
 22 33  1  0  0  0  0
 22 23  1  0  0  0  0
 23 47  1  0  0  0  0
 24 29  1  0  0  0  0
 24 25  1  0  0  0  0
 24 48  1  0  0  0  0
 25 26  1  0  0  0  0
 25 49  1  0  0  0  0
 25 50  1  0  0  0  0
 26 27  1  0  0  0  0
 26 51  1  0  0  0  0
 26 52  1  0  0  0  0
 27 28  1  0  0  0  0
 27 53  1  0  0  0  0
 27 54  1  0  0  0  0
 28 29  1  0  0  0  0
 28 55  1  0  0  0  0
 28 56  1  0  0  0  0
 29 57  1  0  0  0  0
 29 58  1  0  0  0  0
M  END
> <s_m_source_file>
AV-unprocessed.smi

> <i_m_source_file_index>
109

> <i_lp_mmshare_version>
43012

> <i_f3d_flags>
0

> <s_epik_input>
W0NIMl0xW0NIMl1bQ0gyXVtDSDJdW0NIMl1bQ0hdMVtDQEhdKFtDSDJdW0NIMl1bT0hdKVtOSF1jKG5bY0hdbjIpYyhjMjMpbltjSF1uM1tDQEBIXTRPW0NASF0oW0NIMl1bT0hdKVtDQEBIXShbT0hdKVtDQEhdNFtPSF0=

> <s_epik_cmdline>
J2VwaWtfcHl0aG9uJywgJy1waCcsICc3LjAnLCAnLXRuJywgJzgnLCAnLW1hJywgJzIwMCcsICctbWV0YWxfYmluZGluZycsICctaW1hZScsICc8aW5maWxlLm1hZT4nLCAnLW9tYWUnLCAnPG91dGZpbGUubWFlPic=

> <r_lp_tautomer_probability>
1

> <r_epik_Ionization_Penalty>
0.000793976

> <r_epik_Ionization_Penalty_Charging>
0

> <r_epik_Ionization_Penalty_Neutral>
0.000793976

> <r_epik_State_Penalty>
-0

> <r_epik_Charging_Adjusted_Penalty>
0

> <i_epik_Tot_Q>
0

> <i_epik_Tot_abs_Q>
0

> <r_epik_Metal_State_Penalty>
-0

> <b_epik_Metal_Only>
0

> <s_epik_Chemistry_Notes>
This compound contains an acetal/aminal-like group ( X-CH(R)-Y where X, Y are N, S, or O) that may be acid/base labile, releasing an aldehyde.

> <s_lp_Force_Field>
OPLS_2005

> <r_lp_Energy>
56.0983

> <b_lp_Chiralities_Consistent>
1

> <s_lp_Variant>
AV-unprocessed.smi:109-11

> <Gold.Version>
5.8.1

> <Gold.Id.Protein>
6NUR|6NUR_protein|mol2

> <Gold.PLP.Fitness>
49.9612

> <Gold.PLP.PLP>
-36.3578

> <Gold.PLP.part.hbond>
-5.0000

> <Gold.PLP.part.metal>
0.0000

> <Gold.PLP.part.buried>
-3.8636

> <Gold.PLP.part.nonpolar>
-27.1578

> <Gold.PLP.part.repulsive>
0.4504

> <Gold.PLP.ligand.clash>
0.0000

> <Gold.PLP.ligand.torsion>
0.7574

> <Gold.PLP.Chemscore.Hbond>
4.3945

> <Gold.PLP.Chemscore.CHOScore>
0.5732

> <Gold.PLP.Chemscore.Metal>
0.0000

> <Gold.Chemscore.Hbonds>
donor molecule, donor type, donor heavy atom, donor atom, acceptor molecule, acceptor atom, score
      L1  H     5    40       P1  8028  0.96
      L1  H    19    45       P1 11000  0.80
      L1  H    23    47       P1 10175  1.00
      P1  H  7997  8009       L1     1  0.88
      P1  H  8011  8017       L1     7  0.53
      L1  C     8    41       P1  7957  0.60

> <Gold.PLP.Chemscore.Internal.Correction>
0.2152

> <Gold.Rescore>
     Score         DG    S(hbond)    S(metal)    S(lipo)     H(rot)  DE(clash)    DE(int)     intcor
     13.23     -15.26       3.91        0.00      91.49       5.47       0.20       1.82       ----

> <Gold.Chemscore.Fitness>
13.2334

> <Gold.Chemscore.DG>
-15.2552

> <Gold.Chemscore.ZeroCoef>
-5.4800

> <Gold.Chemscore.Hbond>
3.9116

> <Gold.Chemscore.Metal>
0.0000

> <Gold.Chemscore.Lipo>
91.4866

> <Gold.Chemscore.Internal_Hbond>
0.0000

> <Gold.Chemscore.DEClash>
0.2015

> <Gold.Chemscore.DEInternal>
1.8202

> <Gold.Chemscore.Rot>
5.4662

> <Gold.Chemscore.Internal.Correction>
   9.000000E+99

> <Gold.Chemscore.Hbonds>
donor molecule, donor type, donor heavy atom, donor atom, acceptor molecule, acceptor atom, score
      L1  H     5    40       P1  8028  0.92
      L1  H    19    45       P1 11000  0.12
      L1  H    23    47       P1 10175  1.00
      P1  H  7997  8009       L1     1  0.20
      P1  H  8011  8017       L1     7  0.09

> <Gold.Chemscore.Hbond.Weighted>
-13.0647

> <Gold.Chemscore.Metal.Weighted>
-0.0000

> <Gold.Chemscore.Lipo.Weighted>
-10.7039

> <Gold.Chemscore.Internal_Hbond.Weighted>
0.0000

> <Gold.Chemscore.DEClash.Weighted>
0.2015

> <Gold.Chemscore.DEInternal.Weighted>
1.8202

> <Gold.Chemscore.Rot.Weighted>
13.9935

> <Gold.Chemscore.Internal.Correction.Weighted>
   9.000000E+99

> <Gold.Protein.RotatedTorsions>
[ 6907 6896 6895 6894 ] final  -32.31 input  -60.11 | X-H torsion
[ 7974 7965 7964 7962 ] final    3.04 input  175.53 | X-H torsion
[ 8008 7997 7996 7995 ] final -156.80 input   59.86 | X-H torsion
[ 10167 10162 10161 10158 ] final  -70.85 input  -65.29 | X-H torsion
[ 10718 10713 10712 10709 ] final   45.43 input   66.30 | X-H torsion
[ 10763 10752 10751 10750 ] final  103.39 input  -60.55 | X-H torsion
[ 11005 11000 10999 10996 ] final   47.72 input  -57.11 | X-H torsion

> <Gold.Protein.ActiveResidues>
 VAL166  LYS551  ARG553  GLY616  TRP617  ASP618  TYR619  PRO620  LYS621  CYS622 
 ASP623  PHE694  ASN695  SER759  ASP760  ASP761  ALA762  ILE779  LEU786  VAL792 
 PHE793  MET794  SER795  GLU796  ALA797  LYS798  CYS799  TRP800  GLU811  SER814 

> <Gold.Protein.RotatedAtoms>
  151.0805  134.9855  159.8353 H   0  0  0  0  0  0  0  0  0  0  0  0  # atno 6907 bound_to 6896
  152.5419  134.2188  159.8789 H   0  0  0  0  0  0  0  0  0  0  0  0  # atno 6908 bound_to 6896
  151.2217  133.4455  159.2634 H   0  0  0  0  0  0  0  0  0  0  0  0  # atno 6909 bound_to 6896
  146.2445  140.0745  142.8360 H   0  0  0  0  0  0  0  0  0  0  0  0  # atno 7974 bound_to 7965
  155.7228  140.0792  157.2323 H   0  0  0  0  0  0  0  0  0  0  0  0  # atno 8008 bound_to 7997
  154.4043  140.1609  156.2475 H   0  0  0  0  0  0  0  0  0  0  0  0  # atno 8009 bound_to 7997
  155.9181  140.3399  155.6154 H   0  0  0  0  0  0  0  0  0  0  0  0  # atno 8010 bound_to 7997
  140.5319  143.2321  151.7246 H   0  0  0  0  0  0  0  0  0  0  0  0  # atno 10167 bound_to 10162
  157.4375  130.8061  149.7662 H   0  0  0  0  0  0  0  0  0  0  0  0  # atno 10718 bound_to 10713
  153.3521  135.3978  155.1654 H   0  0  0  0  0  0  0  0  0  0  0  0  # atno 10763 bound_to 10752
  154.8664  135.3659  154.5208 H   0  0  0  0  0  0  0  0  0  0  0  0  # atno 10764 bound_to 10752
  153.5661  135.7080  153.5585 H   0  0  0  0  0  0  0  0  0  0  0  0  # atno 10765 bound_to 10752
  140.1254  134.4775  155.8564 H   0  0  0  0  0  0  0  0  0  0  0  0  # atno 11005 bound_to 11000
  145.0787  140.9206  143.4838 LP  0  0  0  0  0  0  0  0  0  0  0  0  # atno 17320 bound_to 7965
  145.0893  139.2901  143.5743 LP  0  0  0  0  0  0  0  0  0  0  0  0  # atno 17321 bound_to 7965
  139.4957  144.4100  152.0090 LP  0  0  0  0  0  0  0  0  0  0  0  0  # atno 17342 bound_to 10162
  140.3203  144.3435  150.6011 LP  0  0  0  0  0  0  0  0  0  0  0  0  # atno 17343 bound_to 10162
  155.9936  130.3923  150.2894 LP  0  0  0  0  0  0  0  0  0  0  0  0  # atno 17370 bound_to 10713
  157.1056  131.0207  151.3068 LP  0  0  0  0  0  0  0  0  0  0  0  0  # atno 17371 bound_to 10713
  141.2160  133.6776  156.6968 LP  0  0  0  0  0  0  0  0  0  0  0  0  # atno 17394 bound_to 11000
  140.2911  134.8240  157.4017 LP  0  0  0  0  0  0  0  0  0  0  0  0  # atno 17395 bound_to 11000

$$$$
