AV-unprocessed.smi:2277|AV-procd|sdf|9178|dock4
  -GOLD-   2272012393D 1   1.00000     0.00000
 Structure written by MMmdl.
 37 38  0  0  0  0  0  0  0  0  1 V2000
  151.4826  141.7940  157.3086 C   0  0  0  0  0  0  0  0  0  0  0  0
  150.7221  140.9491  156.3082 C   0  0  0  0  0  0  0  0  0  0  0  0
  151.3027  139.8064  155.7256 C   0  0  0  0  0  0  0  0  0  0  0  0
  150.5480  139.0583  154.8013 C   0  0  0  0  0  0  0  0  0  0  0  0
  149.2342  139.4687  154.4815 C   0  0  0  0  0  0  0  0  0  0  0  0
  148.5591  138.6454  153.5414 N   0  0  0  0  0  0  0  0  0  0  0  0
  147.2691  138.6994  153.1656 C   0  0  0  0  0  0  0  0  0  0  0  0
  146.4395  139.5112  153.5762 O   0  0  0  0  0  0  0  0  0  0  0  0
  146.9815  137.7376  152.2752 N   0  0  0  0  0  0  0  0  0  0  0  0
  145.6686  137.5138  151.6677 C   0  0  0  0  0  0  0  0  0  0  0  0
  145.2451  136.0397  151.5572 C   0  0  0  0  0  0  0  0  0  0  0  0
  144.0539  135.7705  151.4079 O   0  0  0  0  0  0  0  0  0  0  0  0
  146.1973  135.0955  151.6271 N   0  0  0  0  0  0  0  0  0  0  0  0
  145.9534  133.6632  151.5584 C   0  0  0  0  0  0  0  0  0  0  0  0
  145.2654  133.2207  150.2845 C   0  0  0  0  0  0  0  0  0  0  0  0
  144.5757  131.8789  150.2102 C   0  0  0  0  0  0  0  0  0  0  0  0
  145.8463  132.1191  149.4295 C   0  0  0  0  0  0  0  0  0  0  0  0
  148.6837  140.5709  155.0489 N   0  0  0  0  0  0  0  0  0  0  0  0
  149.4074  141.2874  155.9344 C   0  0  0  0  0  0  0  0  0  0  0  0
  152.4931  141.4141  157.4623 H   0  0  0  0  0  0  0  0  0  0  0  0
  150.9683  141.7955  158.2698 H   0  0  0  0  0  0  0  0  0  0  0  0
  151.5554  142.8232  156.9559 H   0  0  0  0  0  0  0  0  0  0  0  0
  152.3082  139.5042  155.9796 H   0  0  0  0  0  0  0  0  0  0  0  0
  150.9782  138.1788  154.3447 H   0  0  0  0  0  0  0  0  0  0  0  0
  149.1225  137.9274  153.1110 H   0  0  0  0  0  0  0  0  0  0  0  0
  147.7223  137.1127  151.9931 H   0  0  0  0  0  0  0  0  0  0  0  0
  144.9037  138.0627  152.2195 H   0  0  0  0  0  0  0  0  0  0  0  0
  145.6867  137.9387  150.6640 H   0  0  0  0  0  0  0  0  0  0  0  0
  147.1533  135.3925  151.7577 H   0  0  0  0  0  0  0  0  0  0  0  0
  146.8999  133.1294  151.6604 H   0  0  0  0  0  0  0  0  0  0  0  0
  145.3303  133.3691  152.4042 H   0  0  0  0  0  0  0  0  0  0  0  0
  144.7706  134.0305  149.7515 H   0  0  0  0  0  0  0  0  0  0  0  0
  144.6371  131.2271  151.0796 H   0  0  0  0  0  0  0  0  0  0  0  0
  143.6446  131.8226  149.6500 H   0  0  0  0  0  0  0  0  0  0  0  0
  145.7622  132.2255  148.3500 H   0  0  0  0  0  0  0  0  0  0  0  0
  146.7524  131.6288  149.7806 H   0  0  0  0  0  0  0  0  0  0  0  0
  148.9218  142.1552  156.3561 H   0  0  0  0  0  0  0  0  0  0  0  0
  1  2  1  0  0  0  0
  1 20  1  0  0  0  0
  1 21  1  0  0  0  0
  1 22  1  0  0  0  0
  2 19  1  0  0  0  0
  2  3  2  0  0  0  0
  3  4  1  0  0  0  0
  3 23  1  0  0  0  0
  4  5  2  0  0  0  0
  4 24  1  0  0  0  0
  5  6  1  0  0  0  0
  5 18  1  0  0  0  0
  6  7  1  0  0  0  0
  6 25  1  0  0  0  0
  7  8  2  0  0  0  0
  7  9  1  0  0  0  0
  9 10  1  0  0  0  0
  9 26  1  0  0  0  0
 10 11  1  0  0  0  0
 10 27  1  0  0  0  0
 10 28  1  0  0  0  0
 11 12  2  0  0  0  0
 11 13  1  0  0  0  0
 13 14  1  0  0  0  0
 13 29  1  0  0  0  0
 14 15  1  0  0  0  0
 14 30  1  0  0  0  0
 14 31  1  0  0  0  0
 15 17  1  0  0  0  0
 15 16  1  0  0  0  0
 15 32  1  0  0  0  0
 16 17  1  0  0  0  0
 16 33  1  0  0  0  0
 16 34  1  0  0  0  0
 17 35  1  0  0  0  0
 17 36  1  0  0  0  0
 18 19  2  0  0  0  0
 19 37  1  0  0  0  0
M  END
> <s_m_source_file>
AV-unprocessed.smi

> <i_m_source_file_index>
2277

> <i_lp_mmshare_version>
43012

> <i_f3d_flags>
0

> <s_epik_input>
W0NIM11jMVtjSF1bY0hdYyhuW2NIXTEpW05IXUMoPU8pW05IXVtDSDJdQyg9TylbTkhdW0NIMl1bQ0hdMltDSDJdW0NIMl0y

> <s_epik_cmdline>
J2VwaWtfcHl0aG9uJywgJy1waCcsICc3LjAnLCAnLXRuJywgJzgnLCAnLW1hJywgJzIwMCcsICctbWV0YWxfYmluZGluZycsICctaW1hZScsICc8aW5maWxlLm1hZT4nLCAnLW9tYWUnLCAnPG91dGZpbGUubWFlPic=

> <r_lp_tautomer_probability>
1

> <r_epik_Ionization_Penalty>
4.99402e-05

> <r_epik_Ionization_Penalty_Charging>
0

> <r_epik_Ionization_Penalty_Neutral>
4.99402e-05

> <r_epik_State_Penalty>
-0

> <r_epik_Charging_Adjusted_Penalty>
0

> <i_epik_Tot_Q>
0

> <i_epik_Tot_abs_Q>
0

> <r_epik_Metal_State_Penalty>
-0

> <b_epik_Metal_Only>
0

> <s_lp_Force_Field>
OPLS_2005

> <r_lp_Energy>
11.1939

> <b_lp_Chiralities_Consistent>
1

> <s_lp_Variant>
AV-unprocessed.smi:2277-1

> <Gold.Version>
5.8.1

> <Gold.Id.Protein>
6NUR|6NUR_protein|mol2

> <Gold.PLP.Fitness>
45.1617

> <Gold.PLP.PLP>
-35.3734

> <Gold.PLP.part.hbond>
-3.9100

> <Gold.PLP.part.metal>
0.0000

> <Gold.PLP.part.buried>
-3.8928

> <Gold.PLP.part.nonpolar>
-29.9025

> <Gold.PLP.part.repulsive>
0.8384

> <Gold.PLP.ligand.clash>
0.0000

> <Gold.PLP.ligand.torsion>
0.8536

> <Gold.PLP.Chemscore.Hbond>
2.6453

> <Gold.PLP.Chemscore.CHOScore>
1.0000

> <Gold.PLP.Chemscore.Metal>
0.0000

> <Gold.Chemscore.Hbonds>
donor molecule, donor type, donor heavy atom, donor atom, acceptor molecule, acceptor atom, score
      L1  H     6    25       P1  7948  0.73
      L1  H     9    26       P1  7948  0.93
      L1  H    13    29       P1  7948  1.00
      L1  C    19    37       P1  8028  0.69

> <Gold.PLP.Chemscore.Internal.Correction>
0.5596

> <Gold.Rescore>
     Score         DG    S(hbond)    S(metal)    S(lipo)     H(rot)  DE(clash)    DE(int)     intcor
     16.59     -18.90       2.67        0.00      77.97       1.81       0.14       2.18       ----

> <Gold.Chemscore.Fitness>
16.5858

> <Gold.Chemscore.DG>
-18.9030

> <Gold.Chemscore.ZeroCoef>
-5.4800

> <Gold.Chemscore.Hbond>
2.6716

> <Gold.Chemscore.Metal>
0.0000

> <Gold.Chemscore.Lipo>
77.9738

> <Gold.Chemscore.Internal_Hbond>
0.0000

> <Gold.Chemscore.DEClash>
0.1378

> <Gold.Chemscore.DEInternal>
2.1795

> <Gold.Chemscore.Rot>
1.8058

> <Gold.Chemscore.Internal.Correction>
   9.000000E+99

> <Gold.Chemscore.Hbonds>
donor molecule, donor type, donor heavy atom, donor atom, acceptor molecule, acceptor atom, score
      L1  H     6    25       P1  7948  0.69
      L1  H     9    26       P1  7948  0.89
      L1  H    13    29       P1  7948  0.98

> <Gold.Chemscore.Hbond.Weighted>
-8.9231

> <Gold.Chemscore.Metal.Weighted>
-0.0000

> <Gold.Chemscore.Lipo.Weighted>
-9.1229

> <Gold.Chemscore.Internal_Hbond.Weighted>
0.0000

> <Gold.Chemscore.DEClash.Weighted>
0.1378

> <Gold.Chemscore.DEInternal.Weighted>
2.1795

> <Gold.Chemscore.Rot.Weighted>
4.6230

> <Gold.Chemscore.Internal.Correction.Weighted>
   9.000000E+99

> <Gold.Protein.RotatedTorsions>
[ 6907 6896 6895 6894 ] final   61.79 input  -60.11 | X-H torsion
[ 7974 7965 7964 7962 ] final  118.36 input  175.53 | X-H torsion
[ 8008 7997 7996 7995 ] final   23.89 input   59.86 | X-H torsion
[ 10167 10162 10161 10158 ] final  136.14 input  -65.29 | X-H torsion
[ 10718 10713 10712 10709 ] final  -54.71 input   66.30 | X-H torsion
[ 10763 10752 10751 10750 ] final   47.46 input  -60.55 | X-H torsion
[ 11005 11000 10999 10996 ] final -149.79 input  -57.11 | X-H torsion

> <Gold.Protein.ActiveResidues>
 VAL166  LYS551  ARG553  GLY616  TRP617  ASP618  TYR619  PRO620  LYS621  CYS622 
 ASP623  PHE694  ASN695  SER759  ASP760  ASP761  ALA762  ILE779  LEU786  VAL792 
 PHE793  MET794  SER795  GLU796  ALA797  LYS798  CYS799  TRP800  GLU811  SER814 

> <Gold.Protein.RotatedAtoms>
  152.4118  134.6111  160.0025 H   0  0  0  0  0  0  0  0  0  0  0  0  # atno 6907 bound_to 6896
  151.6286  133.3328  159.3112 H   0  0  0  0  0  0  0  0  0  0  0  0  # atno 6908 bound_to 6896
  150.8009  134.7141  159.6665 H   0  0  0  0  0  0  0  0  0  0  0  0  # atno 6909 bound_to 6896
  145.1561  139.3182  143.4541 H   0  0  0  0  0  0  0  0  0  0  0  0  # atno 7974 bound_to 7965
  154.9879  140.3110  155.4918 H   0  0  0  0  0  0  0  0  0  0  0  0  # atno 8008 bound_to 7997
  156.2944  140.2254  156.4922 H   0  0  0  0  0  0  0  0  0  0  0  0  # atno 8009 bound_to 7997
  154.7730  140.0451  157.1054 H   0  0  0  0  0  0  0  0  0  0  0  0  # atno 8010 bound_to 7997
  139.5191  144.6480  151.5384 H   0  0  0  0  0  0  0  0  0  0  0  0  # atno 10167 bound_to 10162
  156.1428  130.4154  150.0074 H   0  0  0  0  0  0  0  0  0  0  0  0  # atno 10718 bound_to 10713
  152.9800  135.5975  154.3767 H   0  0  0  0  0  0  0  0  0  0  0  0  # atno 10763 bound_to 10752
  154.3435  135.2767  155.2412 H   0  0  0  0  0  0  0  0  0  0  0  0  # atno 10764 bound_to 10752
  154.4483  135.5996  153.6229 H   0  0  0  0  0  0  0  0  0  0  0  0  # atno 10765 bound_to 10752
  140.7470  134.3450  157.5135 H   0  0  0  0  0  0  0  0  0  0  0  0  # atno 11005 bound_to 11000
  146.3488  140.1654  142.8590 LP  0  0  0  0  0  0  0  0  0  0  0  0  # atno 17320 bound_to 7965
  145.0380  140.8923  143.5070 LP  0  0  0  0  0  0  0  0  0  0  0  0  # atno 17321 bound_to 7965
  140.6273  143.9144  150.6575 LP  0  0  0  0  0  0  0  0  0  0  0  0  # atno 17342 bound_to 10162
  140.2437  143.3645  152.1465 LP  0  0  0  0  0  0  0  0  0  0  0  0  # atno 17343 bound_to 10162
  156.7955  130.9271  151.3646 LP  0  0  0  0  0  0  0  0  0  0  0  0  # atno 17370 bound_to 10713
  157.6590  130.8950  149.9790 LP  0  0  0  0  0  0  0  0  0  0  0  0  # atno 17371 bound_to 10713
  139.8795  134.9117  156.3044 LP  0  0  0  0  0  0  0  0  0  0  0  0  # atno 17394 bound_to 11000
  140.9785  133.7282  156.0637 LP  0  0  0  0  0  0  0  0  0  0  0  0  # atno 17395 bound_to 11000

$$$$
