AV-unprocessed.smi:224|AV-procd|sdf|1717|dock7
  -GOLD-   2262020193D 1   1.00000     0.00000
 Structure written by MMmdl.
 56 59  0  0  0  0  0  0  0  0  2 V2000
  144.2805  132.4131  150.3565 C   0  0  0  0  0  0  0  0  0  0  0  0
  145.7393  132.5457  150.8127 C   0  0  2  0  0  0  0  0  0  0  0  0
  146.5549  131.9295  149.8361 O   0  0  0  0  0  0  0  0  0  0  0  0
  145.9781  131.8684  152.1771 C   0  0  0  0  0  0  0  0  0  0  0  0
  147.4129  131.8987  152.5802 N   0  3  1  0  0  0  0  0  0  0  0  0
  147.8610  133.2939  152.8527 C   0  0  0  0  0  0  0  0  0  0  0  0
  149.3525  133.3618  153.2047 C   0  0  0  0  0  0  0  0  0  0  0  0
  149.6393  132.4899  154.3349 N   0  0  0  0  0  0  0  0  0  0  0  0
  149.4780  133.0311  155.5721 C   0  0  0  0  0  0  0  0  0  0  0  0
  149.8730  134.3108  155.8078 N   0  0  0  0  0  0  0  0  0  0  0  0
  149.7367  134.8496  157.0226 C   0  0  0  0  0  0  0  0  0  0  0  0
  149.2343  134.2970  158.1273 N   0  0  0  0  0  0  0  0  0  0  0  0
  148.8179  133.0194  157.8968 C   0  0  0  0  0  0  0  0  0  0  0  0
  148.9053  132.3148  156.6624 C   0  0  0  0  0  0  0  0  0  0  0  0
  148.3796  131.0368  156.8125 N   0  0  0  0  0  0  0  0  0  0  0  0
  148.0141  130.9852  158.0640 C   0  0  0  0  0  0  0  0  0  0  0  0
  148.2290  132.1369  158.7865 N   0  0  0  0  0  0  0  0  0  0  0  0
  147.9195  132.3565  160.1918 C   0  0  0  0  0  0  0  0  0  0  0  0
  146.8278  133.4281  160.4451 C   0  0  1  0  0  0  0  0  0  0  0  0
  145.6623  133.0927  159.7150 O   0  0  0  0  0  0  0  0  0  0  0  0
  146.4578  133.6121  161.9190 C   0  0  0  0  0  0  0  0  0  0  0  0
  147.2520  134.8460  162.3218 C   0  0  0  0  0  0  0  0  0  0  0  0
  147.1411  135.6645  161.1718 O   0  0  0  0  0  0  0  0  0  0  0  0
  147.3086  134.8339  160.0295 C   0  0  0  0  0  0  0  0  0  0  0  0
  149.2516  131.1017  154.1038 C   0  0  0  0  0  0  0  0  0  0  0  0
  147.7665  130.9520  153.6867 C   0  0  2  0  0  0  0  0  0  0  0  0
  147.5291  129.4757  153.3063 C   0  0  0  0  0  0  0  0  0  0  0  0
  143.6037  132.8944  151.0632 H   0  0  0  0  0  0  0  0  0  0  0  0
  143.9829  131.3673  150.2702 H   0  0  0  0  0  0  0  0  0  0  0  0
  144.1280  132.8835  149.3844 H   0  0  0  0  0  0  0  0  0  0  0  0
  145.9911  133.6051  150.8520 H   0  0  0  0  0  0  0  0  0  0  0  0
  147.4304  131.8369  150.1783 H   0  0  0  0  0  0  0  0  0  0  0  0
  145.3807  132.3545  152.9504 H   0  0  0  0  0  0  0  0  0  0  0  0
  145.5878  130.8555  152.1176 H   0  0  0  0  0  0  0  0  0  0  0  0
  147.6743  133.9286  151.9873 H   0  0  0  0  0  0  0  0  0  0  0  0
  147.2754  133.7082  153.6754 H   0  0  0  0  0  0  0  0  0  0  0  0
  149.9522  133.0370  152.3535 H   0  0  0  0  0  0  0  0  0  0  0  0
  149.6360  134.3947  153.4017 H   0  0  0  0  0  0  0  0  0  0  0  0
  150.0785  135.8691  157.1246 H   0  0  0  0  0  0  0  0  0  0  0  0
  147.5694  130.1002  158.4959 H   0  0  0  0  0  0  0  0  0  0  0  0
  147.6143  131.4022  160.6233 H   0  0  0  0  0  0  0  0  0  0  0  0
  148.8429  132.6375  160.7003 H   0  0  0  0  0  0  0  0  0  0  0  0
  145.8595  133.1513  158.7927 H   0  0  0  0  0  0  0  0  0  0  0  0
  145.3944  133.8337  162.0255 H   0  0  0  0  0  0  0  0  0  0  0  0
  146.6725  132.7527  162.5517 H   0  0  0  0  0  0  0  0  0  0  0  0
  146.8498  135.3378  163.2078 H   0  0  0  0  0  0  0  0  0  0  0  0
  148.2992  134.5996  162.5042 H   0  0  0  0  0  0  0  0  0  0  0  0
  148.3663  134.8272  159.7625 H   0  0  0  0  0  0  0  0  0  0  0  0
  146.7620  135.2440  159.1794 H   0  0  0  0  0  0  0  0  0  0  0  0
  149.8921  130.7149  153.3099 H   0  0  0  0  0  0  0  0  0  0  0  0
  149.4703  130.4923  154.9821 H   0  0  0  0  0  0  0  0  0  0  0  0
  147.1361  131.1940  154.5432 H   0  0  0  0  0  0  0  0  0  0  0  0
  147.9348  128.8115  154.0703 H   0  0  0  0  0  0  0  0  0  0  0  0
  148.0177  129.2259  152.3639 H   0  0  0  0  0  0  0  0  0  0  0  0
  146.4748  129.2201  153.2174 H   0  0  0  0  0  0  0  0  0  0  0  0
  147.9389  131.5795  151.7795 H   0  0  0  0  0  0  0  0  0  0  0  0
  1  2  1  0  0  0  0
  1 28  1  0  0  0  0
  1 29  1  0  0  0  0
  1 30  1  0  0  0  0
  2  3  1  0  0  0  0
  2  4  1  0  0  0  0
  2 31  1  0  0  0  0
  3 32  1  0  0  0  0
  4  5  1  0  0  0  0
  4 33  1  0  0  0  0
  4 34  1  0  0  0  0
  5 26  1  0  0  0  0
  5  6  1  0  0  0  0
  5 56  1  0  0  0  0
  6  7  1  0  0  0  0
  6 35  1  0  0  0  0
  6 36  1  0  0  0  0
  7  8  1  0  0  0  0
  7 37  1  0  0  0  0
  7 38  1  0  0  0  0
  8  9  1  0  0  0  0
  8 25  1  0  0  0  0
  9 14  1  0  0  0  0
  9 10  2  0  0  0  0
 10 11  1  0  0  0  0
 11 12  2  0  0  0  0
 11 39  1  0  0  0  0
 12 13  1  0  0  0  0
 13 17  1  0  0  0  0
 13 14  2  0  0  0  0
 14 15  1  0  0  0  0
 15 16  2  0  0  0  0
 16 17  1  0  0  0  0
 16 40  1  0  0  0  0
 17 18  1  0  0  0  0
 18 19  1  0  0  0  0
 18 41  1  0  0  0  0
 18 42  1  0  0  0  0
 19 24  1  0  0  0  0
 19 20  1  0  0  0  0
 19 21  1  0  0  0  0
 20 43  1  0  0  0  0
 21 22  1  0  0  0  0
 21 44  1  0  0  0  0
 21 45  1  0  0  0  0
 22 23  1  0  0  0  0
 22 46  1  0  0  0  0
 22 47  1  0  0  0  0
 23 24  1  0  0  0  0
 24 48  1  0  0  0  0
 24 49  1  0  0  0  0
 25 26  1  0  0  0  0
 25 50  1  0  0  0  0
 25 51  1  0  0  0  0
 26 27  1  0  0  0  0
 26 52  1  0  0  0  0
 27 53  1  0  0  0  0
 27 54  1  0  0  0  0
 27 55  1  0  0  0  0
M  CHG  1   5   1
M  END
> <s_m_source_file>
AV-unprocessed.smi

> <i_m_source_file_index>
224

> <i_lp_mmshare_version>
43012

> <i_f3d_flags>
0

> <s_epik_input>
W0NIM11bQ0BIXShbT0hdKVtDSDJdTjFbQ0gyXVtDSDJdTihbQ0gyXVtDQEhdMVtDSDNdKWMobltjSF1uMiljKGMyMyluW2NIXW4zW0NIMl1bQ0BAXTQoW09IXSlbQ0gyXVtDSDJdT1tDSDJdNA==

> <s_epik_cmdline>
J2VwaWtfcHl0aG9uJywgJy1waCcsICc3LjAnLCAnLXRuJywgJzgnLCAnLW1hJywgJzIwMCcsICctbWV0YWxfYmluZGluZycsICctaW1hZScsICc8aW5maWxlLm1hZT4nLCAnLW9tYWUnLCAnPG91dGZpbGUubWFlPic=

> <r_lp_tautomer_probability>
1

> <r_epik_Ionization_Penalty>
0.00516958

> <r_epik_Ionization_Penalty_Charging>
0.00509693

> <r_epik_Ionization_Penalty_Neutral>
7.26542e-05

> <r_epik_State_Penalty>
-0

> <r_epik_Charging_Adjusted_Penalty>
0.00509693

> <i_epik_Tot_Q>
1

> <i_epik_Tot_abs_Q>
1

> <r_epik_Metal_State_Penalty>
-0

> <b_epik_Metal_Only>
0

> <s_lp_Force_Field>
OPLS_2005

> <r_lp_Energy>
50.0315

> <b_lp_Chiralities_Consistent>
1

> <s_lp_Variant>
AV-unprocessed.smi:224-11

> <Gold.Version>
5.8.1

> <Gold.Id.Protein>
6NUR|6NUR_protein|mol2

> <Gold.PLP.Fitness>
47.2781

> <Gold.PLP.PLP>
-38.5744

> <Gold.PLP.part.hbond>
-3.0000

> <Gold.PLP.part.metal>
0.0000

> <Gold.PLP.part.buried>
-6.3804

> <Gold.PLP.part.nonpolar>
-28.9848

> <Gold.PLP.part.repulsive>
0.1043

> <Gold.PLP.ligand.clash>
0.0000

> <Gold.PLP.ligand.torsion>
0.4150

> <Gold.PLP.Chemscore.Hbond>
3.0000

> <Gold.PLP.Chemscore.CHOScore>
0.0000

> <Gold.PLP.Chemscore.Metal>
0.0000

> <Gold.Chemscore.Hbonds>
donor molecule, donor type, donor heavy atom, donor atom, acceptor molecule, acceptor atom, score
      L1  H     3    32       P1 10747  0.96
      L1  H     5    56       P1 10747  1.00
      P1  H  6896  6909       L1    12  1.00

> <Gold.PLP.Chemscore.Internal.Correction>
0.5338

> <Gold.Rescore>
     Score         DG    S(hbond)    S(metal)    S(lipo)     H(rot)  DE(clash)    DE(int)     intcor
     12.74     -15.96       2.71        0.00      85.85       3.36       0.04       3.19       ----

> <Gold.Chemscore.Fitness>
12.7368

> <Gold.Chemscore.DG>
-15.9625

> <Gold.Chemscore.ZeroCoef>
-5.4800

> <Gold.Chemscore.Hbond>
2.7072

> <Gold.Chemscore.Metal>
0.0000

> <Gold.Chemscore.Lipo>
85.8542

> <Gold.Chemscore.Internal_Hbond>
0.0000

> <Gold.Chemscore.DEClash>
0.0354

> <Gold.Chemscore.DEInternal>
3.1903

> <Gold.Chemscore.Rot>
3.3611

> <Gold.Chemscore.Internal.Correction>
   9.000000E+99

> <Gold.Chemscore.Hbonds>
donor molecule, donor type, donor heavy atom, donor atom, acceptor molecule, acceptor atom, score
      L1  H     3    32       P1 10747  0.92
      L1  H     5    56       P1 10747  0.99
      P1  H  6896  6909       L1    12  0.24

> <Gold.Chemscore.Hbond.Weighted>
-9.0421

> <Gold.Chemscore.Metal.Weighted>
-0.0000

> <Gold.Chemscore.Lipo.Weighted>
-10.0449

> <Gold.Chemscore.Internal_Hbond.Weighted>
0.0000

> <Gold.Chemscore.DEClash.Weighted>
0.0354

> <Gold.Chemscore.DEInternal.Weighted>
3.1903

> <Gold.Chemscore.Rot.Weighted>
8.6045

> <Gold.Chemscore.Internal.Correction.Weighted>
   9.000000E+99

> <Gold.Protein.RotatedTorsions>
[ 6907 6896 6895 6894 ] final   18.02 input  -60.11 | X-H torsion
[ 7974 7965 7964 7962 ] final   62.99 input  175.53 | X-H torsion
[ 8008 7997 7996 7995 ] final   19.94 input   59.86 | X-H torsion
[ 10167 10162 10161 10158 ] final   40.38 input  -65.29 | X-H torsion
[ 10718 10713 10712 10709 ] final -135.99 input   66.30 | X-H torsion
[ 10763 10752 10751 10750 ] final  -46.64 input  -60.55 | X-H torsion
[ 11005 11000 10999 10996 ] final  -85.64 input  -57.11 | X-H torsion

> <Gold.Protein.ActiveResidues>
 VAL166  LYS551  ARG553  GLY616  TRP617  ASP618  TYR619  PRO620  LYS621  CYS622 
 ASP623  PHE694  ASN695  SER759  ASP760  ASP761  ALA762  ILE779  LEU786  VAL792 
 PHE793  MET794  SER795  GLU796  ALA797  LYS798  CYS799  TRP800  GLU811  SER814 

> <Gold.Protein.RotatedAtoms>
  151.8587  135.0532  160.0466 H   0  0  0  0  0  0  0  0  0  0  0  0  # atno 6907 bound_to 6896
  152.2680  133.5352  159.5430 H   0  0  0  0  0  0  0  0  0  0  0  0  # atno 6908 bound_to 6896
  150.7141  134.0654  159.3888 H   0  0  0  0  0  0  0  0  0  0  0  0  # atno 6909 bound_to 6896
  145.8670  139.3352  143.0785 H   0  0  0  0  0  0  0  0  0  0  0  0  # atno 7974 bound_to 7965
  154.9281  140.3036  155.5181 H   0  0  0  0  0  0  0  0  0  0  0  0  # atno 8008 bound_to 7997
  156.3005  140.2359  156.4275 H   0  0  0  0  0  0  0  0  0  0  0  0  # atno 8009 bound_to 7997
  154.8264  140.0420  157.1435 H   0  0  0  0  0  0  0  0  0  0  0  0  # atno 8010 bound_to 7997
  140.3747  144.2058  150.6132 H   0  0  0  0  0  0  0  0  0  0  0  0  # atno 10167 bound_to 10162
  156.2722  130.7272  151.1243 H   0  0  0  0  0  0  0  0  0  0  0  0  # atno 10718 bound_to 10713
  154.0484  135.6634  153.4797 H   0  0  0  0  0  0  0  0  0  0  0  0  # atno 10763 bound_to 10752
  153.0473  135.5106  154.7775 H   0  0  0  0  0  0  0  0  0  0  0  0  # atno 10764 bound_to 10752
  154.6773  135.3039  154.9627 H   0  0  0  0  0  0  0  0  0  0  0  0  # atno 10765 bound_to 10752
  141.1639  133.7410  156.9044 H   0  0  0  0  0  0  0  0  0  0  0  0  # atno 11005 bound_to 11000
  145.9182  140.9133  143.0419 LP  0  0  0  0  0  0  0  0  0  0  0  0  # atno 17320 bound_to 7965
  144.6726  140.1252  143.7447 LP  0  0  0  0  0  0  0  0  0  0  0  0  # atno 17321 bound_to 7965
  140.4998  143.2321  151.8696 LP  0  0  0  0  0  0  0  0  0  0  0  0  # atno 17342 bound_to 10162
  139.4800  144.5072  151.8981 LP  0  0  0  0  0  0  0  0  0  0  0  0  # atno 17343 bound_to 10162
  157.7287  131.0629  150.5805 LP  0  0  0  0  0  0  0  0  0  0  0  0  # atno 17370 bound_to 10713
  156.5903  130.4327  149.5939 LP  0  0  0  0  0  0  0  0  0  0  0  0  # atno 17371 bound_to 10713
  140.1560  134.9198  157.2654 LP  0  0  0  0  0  0  0  0  0  0  0  0  # atno 17394 bound_to 11000
  140.2667  134.3508  155.7387 LP  0  0  0  0  0  0  0  0  0  0  0  0  # atno 17395 bound_to 11000

$$$$
