AV-unprocessed.smi:2436|AV-procd|sdf|9593|dock10
  -GOLD-   2272013223D 1   1.00000     0.00000
 Structure written by MMmdl.
 36 37  0  0  0  0  0  0  0  0  1 V2000
  145.0254  132.3111  149.5424 C   0  0  0  0  0  0  0  0  0  0  0  0
  146.2192  132.7528  150.4031 C   0  0  0  0  0  0  0  0  0  0  0  0
  145.8854  133.8410  151.4408 C   0  0  0  0  0  0  0  0  0  0  0  0
  147.0756  134.1941  152.2211 N   0  0  0  0  0  0  0  0  0  0  0  0
  147.5197  133.5741  153.3263 C   0  0  0  0  0  0  0  0  0  0  0  0
  146.9644  132.5970  153.8294 O   0  0  0  0  0  0  0  0  0  0  0  0
  148.6342  134.1615  153.7960 N   0  0  0  0  0  0  0  0  0  0  0  0
  149.3986  133.8024  154.9376 C   0  0  0  0  0  0  0  0  0  0  0  0
  150.3028  134.7831  155.4037 C   0  0  0  0  0  0  0  0  0  0  0  0
  151.0836  134.4651  156.5340 C   0  0  0  0  0  0  0  0  0  0  0  0
  151.9804  135.3942  157.0191 O   0  0  0  0  0  0  0  0  0  0  0  0
  151.8584  136.7407  156.5749 C   0  0  0  0  0  0  0  0  0  0  0  0
  150.9696  133.2645  157.1517 N   0  0  0  0  0  0  0  0  0  0  0  0
  150.0877  132.4064  156.6380 C   0  0  0  0  0  0  0  0  0  0  0  0
  149.3059  132.6096  155.5760 N   0  0  0  0  0  0  0  0  0  0  0  0
  145.1191  135.0947  150.9646 C   0  0  0  0  0  0  0  0  0  0  0  0
  143.8258  134.4102  151.4137 C   0  0  0  0  0  0  0  0  0  0  0  0
  144.6903  133.6034  152.3862 C   0  0  0  0  0  0  0  0  0  0  0  0
  145.3379  131.5742  148.8027 H   0  0  0  0  0  0  0  0  0  0  0  0
  144.5887  133.1525  149.0046 H   0  0  0  0  0  0  0  0  0  0  0  0
  144.2412  131.8542  150.1464 H   0  0  0  0  0  0  0  0  0  0  0  0
  146.6408  131.8770  150.8969 H   0  0  0  0  0  0  0  0  0  0  0  0
  147.0053  133.1088  149.7367 H   0  0  0  0  0  0  0  0  0  0  0  0
  147.6040  134.9871  151.8881 H   0  0  0  0  0  0  0  0  0  0  0  0
  148.9764  134.9561  153.2763 H   0  0  0  0  0  0  0  0  0  0  0  0
  150.3996  135.7424  154.9164 H   0  0  0  0  0  0  0  0  0  0  0  0
  152.6274  137.3490  157.0508 H   0  0  0  0  0  0  0  0  0  0  0  0
  150.8893  137.1633  156.8442 H   0  0  0  0  0  0  0  0  0  0  0  0
  151.9958  136.8186  155.4954 H   0  0  0  0  0  0  0  0  0  0  0  0
  149.9978  131.4501  157.1312 H   0  0  0  0  0  0  0  0  0  0  0  0
  145.3345  135.9945  151.5444 H   0  0  0  0  0  0  0  0  0  0  0  0
  145.1794  135.2882  149.8931 H   0  0  0  0  0  0  0  0  0  0  0  0
  143.0993  135.0715  151.8867 H   0  0  0  0  0  0  0  0  0  0  0  0
  143.3714  133.7965  150.6342 H   0  0  0  0  0  0  0  0  0  0  0  0
  144.3860  132.5627  152.4988 H   0  0  0  0  0  0  0  0  0  0  0  0
  144.7899  134.0947  153.3563 H   0  0  0  0  0  0  0  0  0  0  0  0
  1  2  1  0  0  0  0
  1 19  1  0  0  0  0
  1 20  1  0  0  0  0
  1 21  1  0  0  0  0
  2  3  1  0  0  0  0
  2 22  1  0  0  0  0
  2 23  1  0  0  0  0
  3 18  1  0  0  0  0
  3  4  1  0  0  0  0
  3 16  1  0  0  0  0
  4  5  1  0  0  0  0
  4 24  1  0  0  0  0
  5  6  2  0  0  0  0
  5  7  1  0  0  0  0
  7  8  1  0  0  0  0
  7 25  1  0  0  0  0
  8 15  1  0  0  0  0
  8  9  2  0  0  0  0
  9 10  1  0  0  0  0
  9 26  1  0  0  0  0
 10 11  1  0  0  0  0
 10 13  2  0  0  0  0
 11 12  1  0  0  0  0
 12 27  1  0  0  0  0
 12 28  1  0  0  0  0
 12 29  1  0  0  0  0
 13 14  1  0  0  0  0
 14 15  2  0  0  0  0
 14 30  1  0  0  0  0
 16 17  1  0  0  0  0
 16 31  1  0  0  0  0
 16 32  1  0  0  0  0
 17 18  1  0  0  0  0
 17 33  1  0  0  0  0
 17 34  1  0  0  0  0
 18 35  1  0  0  0  0
 18 36  1  0  0  0  0
M  END
> <s_m_source_file>
AV-unprocessed.smi

> <i_m_source_file_index>
2436

> <i_lp_mmshare_version>
43012

> <i_f3d_flags>
0

> <s_epik_input>
W0NIMl0xW0NIMl1bQ0gyXUMxKFtDSDJdW0NIM10pW05IXUMoPU8pW05IXWMyW2NIXWMoT1tDSDNdKW5bY0hdbjI=

> <s_epik_cmdline>
J2VwaWtfcHl0aG9uJywgJy1waCcsICc3LjAnLCAnLXRuJywgJzgnLCAnLW1hJywgJzIwMCcsICctbWV0YWxfYmluZGluZycsICctaW1hZScsICc8aW5maWxlLm1hZT4nLCAnLW9tYWUnLCAnPG91dGZpbGUubWFlPic=

> <r_lp_tautomer_probability>
1

> <r_epik_Ionization_Penalty>
2.8431e-05

> <r_epik_Ionization_Penalty_Charging>
0

> <r_epik_Ionization_Penalty_Neutral>
2.8431e-05

> <r_epik_State_Penalty>
-0

> <r_epik_Charging_Adjusted_Penalty>
0

> <i_epik_Tot_Q>
0

> <i_epik_Tot_abs_Q>
0

> <r_epik_Metal_State_Penalty>
-0

> <b_epik_Metal_Only>
0

> <s_lp_Force_Field>
OPLS_2005

> <r_lp_Energy>
14.8333

> <b_lp_Chiralities_Consistent>
1

> <s_lp_Variant>
AV-unprocessed.smi:2436-1

> <Gold.Version>
5.8.1

> <Gold.Id.Protein>
6NUR|6NUR_protein|mol2

> <Gold.PLP.Fitness>
36.4314

> <Gold.PLP.PLP>
-29.0131

> <Gold.PLP.part.hbond>
-3.8383

> <Gold.PLP.part.metal>
0.0000

> <Gold.PLP.part.buried>
-5.5539

> <Gold.PLP.part.nonpolar>
-20.7745

> <Gold.PLP.part.repulsive>
0.1043

> <Gold.PLP.ligand.clash>
0.0000

> <Gold.PLP.ligand.torsion>
0.6903

> <Gold.PLP.Chemscore.Hbond>
2.7992

> <Gold.PLP.Chemscore.CHOScore>
0.0000

> <Gold.PLP.Chemscore.Metal>
0.0000

> <Gold.Chemscore.Hbonds>
donor molecule, donor type, donor heavy atom, donor atom, acceptor molecule, acceptor atom, score
      L1  H     4    24       P1  7948  1.00
      L1  H     7    25       P1  7948  0.95
      P1  H  6896  6908       L1    13  0.79

> <Gold.PLP.Chemscore.Internal.Correction>
0.4011

> <Gold.Rescore>
     Score         DG    S(hbond)    S(metal)    S(lipo)     H(rot)  DE(clash)    DE(int)     intcor
     11.44     -15.26       2.40        0.00      49.38       1.57       0.03       3.80       ----

> <Gold.Chemscore.Fitness>
11.4367

> <Gold.Chemscore.DG>
-15.2616

> <Gold.Chemscore.ZeroCoef>
-5.4800

> <Gold.Chemscore.Hbond>
2.4046

> <Gold.Chemscore.Metal>
0.0000

> <Gold.Chemscore.Lipo>
49.3823

> <Gold.Chemscore.Internal_Hbond>
0.0000

> <Gold.Chemscore.DEClash>
0.0252

> <Gold.Chemscore.DEInternal>
3.7997

> <Gold.Chemscore.Rot>
1.5732

> <Gold.Chemscore.Internal.Correction>
   9.000000E+99

> <Gold.Chemscore.Hbonds>
donor molecule, donor type, donor heavy atom, donor atom, acceptor molecule, acceptor atom, score
      L1  H     4    24       P1  7948  0.78
      L1  H     7    25       P1  7948  0.21
      P1  H  6896  6908       L1    13  0.56

> <Gold.Chemscore.Hbond.Weighted>
-8.0313

> <Gold.Chemscore.Metal.Weighted>
-0.0000

> <Gold.Chemscore.Lipo.Weighted>
-5.7777

> <Gold.Chemscore.Internal_Hbond.Weighted>
0.0000

> <Gold.Chemscore.DEClash.Weighted>
0.0252

> <Gold.Chemscore.DEInternal.Weighted>
3.7997

> <Gold.Chemscore.Rot.Weighted>
4.0274

> <Gold.Chemscore.Internal.Correction.Weighted>
   9.000000E+99

> <Gold.Protein.RotatedTorsions>
[ 6907 6896 6895 6894 ] final   92.21 input  -60.11 | X-H torsion
[ 7974 7965 7964 7962 ] final  148.73 input  175.53 | X-H torsion
[ 8008 7997 7996 7995 ] final   31.24 input   59.86 | X-H torsion
[ 10167 10162 10161 10158 ] final   -9.30 input  -65.29 | X-H torsion
[ 10718 10713 10712 10709 ] final  -97.83 input   66.30 | X-H torsion
[ 10763 10752 10751 10750 ] final   69.94 input  -60.55 | X-H torsion
[ 11005 11000 10999 10996 ] final   -9.61 input  -57.11 | X-H torsion

> <Gold.Protein.ActiveResidues>
 VAL166  LYS551  ARG553  GLY616  TRP617  ASP618  TYR619  PRO620  LYS621  CYS622 
 ASP623  PHE694  ASN695  SER759  ASP760  ASP761  ALA762  ILE779  LEU786  VAL792 
 PHE793  MET794  SER795  GLU796  ALA797  LYS798  CYS799  TRP800  GLU811  SER814 

> <Gold.Protein.RotatedAtoms>
  152.5452  134.1537  159.8528 H   0  0  0  0  0  0  0  0  0  0  0  0  # atno 6907 bound_to 6896
  151.1561  133.4868  159.2602 H   0  0  0  0  0  0  0  0  0  0  0  0  # atno 6908 bound_to 6896
  151.1421  135.0195  159.8685 H   0  0  0  0  0  0  0  0  0  0  0  0  # atno 6909 bound_to 6896
  144.8492  139.6190  143.5981 H   0  0  0  0  0  0  0  0  0  0  0  0  # atno 7974 bound_to 7965
  155.1033  140.3232  155.4541 H   0  0  0  0  0  0  0  0  0  0  0  0  # atno 8008 bound_to 7997
  156.2711  140.2057  156.6106 H   0  0  0  0  0  0  0  0  0  0  0  0  # atno 8009 bound_to 7997
  154.6812  140.0526  157.0255 H   0  0  0  0  0  0  0  0  0  0  0  0  # atno 8010 bound_to 7997
  140.7083  143.5873  150.8930 H   0  0  0  0  0  0  0  0  0  0  0  0  # atno 10167 bound_to 10162
  156.0092  130.5211  150.6432 H   0  0  0  0  0  0  0  0  0  0  0  0  # atno 10718 bound_to 10713
  153.0314  135.5192  154.7365 H   0  0  0  0  0  0  0  0  0  0  0  0  # atno 10763 bound_to 10752
  154.6377  135.2908  155.0143 H   0  0  0  0  0  0  0  0  0  0  0  0  # atno 10764 bound_to 10752
  154.1072  135.6627  153.4931 H   0  0  0  0  0  0  0  0  0  0  0  0  # atno 10765 bound_to 10752
  140.7360  133.8709  155.8930 H   0  0  0  0  0  0  0  0  0  0  0  0  # atno 11005 bound_to 11000
  146.2770  139.6778  142.9256 LP  0  0  0  0  0  0  0  0  0  0  0  0  # atno 17320 bound_to 7965
  145.4535  141.0429  143.2791 LP  0  0  0  0  0  0  0  0  0  0  0  0  # atno 17321 bound_to 7965
  139.9599  143.6176  152.3005 LP  0  0  0  0  0  0  0  0  0  0  0  0  # atno 17342 bound_to 10162
  139.6725  144.7660  151.1757 LP  0  0  0  0  0  0  0  0  0  0  0  0  # atno 17343 bound_to 10162
  157.4208  131.0836  151.1133 LP  0  0  0  0  0  0  0  0  0  0  0  0  # atno 17370 bound_to 10713
  157.1735  130.6278  149.5648 LP  0  0  0  0  0  0  0  0  0  0  0  0  # atno 17371 bound_to 10713
  140.9879  134.1318  157.4435 LP  0  0  0  0  0  0  0  0  0  0  0  0  # atno 17394 bound_to 11000
  139.8816  135.0031  156.6167 LP  0  0  0  0  0  0  0  0  0  0  0  0  # atno 17395 bound_to 11000

$$$$
