AV-unprocessed.smi:1107|AV-procd|sdf|4781|dock5
  -GOLD-   22720 3323D 1   1.00000     0.00000
 Structure written by MMmdl.
 49 50  0  0  0  0  0  0  0  0  2 V2000
  146.0834  143.2056  154.4838 C   0  0  0  0  0  0  0  0  0  0  0  0
  146.9598  141.9794  154.3413 C   0  0  0  0  0  0  0  0  0  0  0  0
  146.5278  140.8258  153.9497 N   0  0  0  0  0  0  0  0  0  0  0  0
  147.4362  139.7624  153.8520 C   0  0  0  0  0  0  0  0  0  0  0  0
  146.8500  138.4435  153.3781 C   0  0  0  0  0  0  0  0  0  0  0  0
  148.7575  139.9212  154.1582 C   0  0  0  0  0  0  0  0  0  0  0  0
  149.7825  138.7931  154.0656 C   0  0  0  0  0  0  0  0  0  0  0  0
  149.5893  137.6456  155.0591 C   0  0  0  0  0  0  0  0  0  0  0  0
  149.5945  137.8654  156.2699 O   0  0  0  0  0  0  0  0  0  0  0  0
  149.4156  136.4231  154.5322 N   0  0  0  0  0  0  0  0  0  0  0  0
  149.2465  135.1784  155.2828 C   0  0  2  0  0  0  0  0  0  0  0  0
  150.4880  134.9479  156.1548 C   0  0  0  0  0  0  0  0  0  0  0  0
  148.9940  133.9816  154.3375 C   0  0  0  0  0  0  0  0  0  0  0  0
  147.8293  134.1841  153.4375 N   0  3  0  0  0  0  0  0  0  0  0  0
  147.4696  132.9604  152.6762 C   0  0  0  0  0  0  0  0  0  0  0  0
  146.3717  133.2588  151.6410 C   0  0  0  0  0  0  0  0  0  0  0  0
  145.1346  133.8724  152.3104 C   0  0  0  0  0  0  0  0  0  0  0  0
  145.5374  135.1094  153.1240 C   0  0  0  0  0  0  0  0  0  0  0  0
  146.6488  134.7664  154.1294 C   0  0  0  0  0  0  0  0  0  0  0  0
  149.2378  141.2399  154.6132 C   0  0  0  0  0  0  0  0  0  0  0  0
  150.4013  141.4839  154.9292 O   0  0  0  0  0  0  0  0  0  0  0  0
  148.2943  142.2058  154.6740 N   0  0  0  0  0  0  0  0  0  0  0  0
  148.5735  143.1271  154.9784 H   0  0  0  0  0  0  0  0  0  0  0  0
  145.6083  143.4395  153.5308 H   0  0  0  0  0  0  0  0  0  0  0  0
  146.6577  144.0773  154.8009 H   0  0  0  0  0  0  0  0  0  0  0  0
  145.3016  143.0246  155.2216 H   0  0  0  0  0  0  0  0  0  0  0  0
  147.0671  137.6445  154.0863 H   0  0  0  0  0  0  0  0  0  0  0  0
  147.2634  138.1702  152.4072 H   0  0  0  0  0  0  0  0  0  0  0  0
  145.7665  138.5074  153.2731 H   0  0  0  0  0  0  0  0  0  0  0  0
  149.7642  138.3630  153.0647 H   0  0  0  0  0  0  0  0  0  0  0  0
  150.7874  139.2067  154.1672 H   0  0  0  0  0  0  0  0  0  0  0  0
  149.4346  136.3429  153.5254 H   0  0  0  0  0  0  0  0  0  0  0  0
  148.4010  135.2827  155.9642 H   0  0  0  0  0  0  0  0  0  0  0  0
  150.3812  134.0462  156.7583 H   0  0  0  0  0  0  0  0  0  0  0  0
  150.6488  135.7826  156.8383 H   0  0  0  0  0  0  0  0  0  0  0  0
  151.3872  134.8372  155.5477 H   0  0  0  0  0  0  0  0  0  0  0  0
  149.8918  133.8370  153.7344 H   0  0  0  0  0  0  0  0  0  0  0  0
  148.8617  133.0600  154.9061 H   0  0  0  0  0  0  0  0  0  0  0  0
  148.3492  132.5750  152.1592 H   0  0  0  0  0  0  0  0  0  0  0  0
  147.1395  132.1832  153.3674 H   0  0  0  0  0  0  0  0  0  0  0  0
  146.7578  133.9463  150.8871 H   0  0  0  0  0  0  0  0  0  0  0  0
  146.0961  132.3446  151.1143 H   0  0  0  0  0  0  0  0  0  0  0  0
  144.3918  134.1405  151.5586 H   0  0  0  0  0  0  0  0  0  0  0  0
  144.6661  133.1364  152.9651 H   0  0  0  0  0  0  0  0  0  0  0  0
  145.8825  135.8961  152.4512 H   0  0  0  0  0  0  0  0  0  0  0  0
  144.6694  135.5096  153.6487 H   0  0  0  0  0  0  0  0  0  0  0  0
  146.2768  134.0616  154.8746 H   0  0  0  0  0  0  0  0  0  0  0  0
  146.9330  135.6708  154.6667 H   0  0  0  0  0  0  0  0  0  0  0  0
  148.1252  134.8625  152.7496 H   0  0  0  0  0  0  0  0  0  0  0  0
  1  2  1  0  0  0  0
  1 24  1  0  0  0  0
  1 25  1  0  0  0  0
  1 26  1  0  0  0  0
  2 22  1  0  0  0  0
  2  3  2  0  0  0  0
  3  4  1  0  0  0  0
  4  5  1  0  0  0  0
  4  6  2  0  0  0  0
  5 27  1  0  0  0  0
  5 28  1  0  0  0  0
  5 29  1  0  0  0  0
  6  7  1  0  0  0  0
  6 20  1  0  0  0  0
  7  8  1  0  0  0  0
  7 30  1  0  0  0  0
  7 31  1  0  0  0  0
  8  9  2  0  0  0  0
  8 10  1  0  0  0  0
 10 11  1  0  0  0  0
 10 32  1  0  0  0  0
 11 12  1  0  0  0  0
 11 13  1  0  0  0  0
 11 33  1  0  0  0  0
 12 34  1  0  0  0  0
 12 35  1  0  0  0  0
 12 36  1  0  0  0  0
 13 14  1  0  0  0  0
 13 37  1  0  0  0  0
 13 38  1  0  0  0  0
 14 19  1  0  0  0  0
 14 15  1  0  0  0  0
 14 49  1  0  0  0  0
 15 16  1  0  0  0  0
 15 39  1  0  0  0  0
 15 40  1  0  0  0  0
 16 17  1  0  0  0  0
 16 41  1  0  0  0  0
 16 42  1  0  0  0  0
 17 18  1  0  0  0  0
 17 43  1  0  0  0  0
 17 44  1  0  0  0  0
 18 19  1  0  0  0  0
 18 45  1  0  0  0  0
 18 46  1  0  0  0  0
 19 47  1  0  0  0  0
 19 48  1  0  0  0  0
 20 21  2  0  0  0  0
 20 22  1  0  0  0  0
 22 23  1  0  0  0  0
M  CHG  1  14   1
M  END
> <s_m_source_file>
AV-unprocessed.smi

> <i_m_source_file_index>
1107

> <i_lp_mmshare_version>
43012

> <i_f3d_flags>
0

> <s_epik_input>
W0NIM11jMW5jKFtDSDNdKWMoYyg9TylbbkhdMSlbQ0gyXUMoPU8pW05IXVtDQEhdKFtDSDNdKVtDSDJdTjJbQ0gyXVtDSDJdW0NIMl1bQ0gyXVtDSDJdMg==

> <s_epik_cmdline>
J2VwaWtfcHl0aG9uJywgJy1waCcsICc3LjAnLCAnLXRuJywgJzgnLCAnLW1hJywgJzIwMCcsICctbWV0YWxfYmluZGluZycsICctaW1hZScsICc8aW5maWxlLm1hZT4nLCAnLW9tYWUnLCAnPG91dGZpbGUubWFlPic=

> <r_lp_tautomer_probability>
0.839158

> <r_epik_Ionization_Penalty>
0.00280224

> <r_epik_Ionization_Penalty_Charging>
0.00277925

> <r_epik_Ionization_Penalty_Neutral>
2.29856e-05

> <r_epik_State_Penalty>
0.09125

> <r_epik_Charging_Adjusted_Penalty>
0.0940293

> <i_epik_Tot_Q>
1

> <i_epik_Tot_abs_Q>
1

> <r_epik_Metal_State_Penalty>
0.283823

> <b_epik_Metal_Only>
0

> <s_lp_Force_Field>
OPLS_2005

> <r_lp_Energy>
24.1286

> <b_lp_Chiralities_Consistent>
1

> <s_lp_Variant>
AV-unprocessed.smi:1107-1

> <Gold.Version>
5.8.1

> <Gold.Id.Protein>
6NUR|6NUR_protein|mol2

> <Gold.PLP.Fitness>
49.0237

> <Gold.PLP.PLP>
-35.9534

> <Gold.PLP.part.hbond>
-4.0000

> <Gold.PLP.part.metal>
0.0000

> <Gold.PLP.part.buried>
1.1821

> <Gold.PLP.part.nonpolar>
-32.2035

> <Gold.PLP.part.repulsive>
0.5244

> <Gold.PLP.ligand.clash>
0.0000

> <Gold.PLP.ligand.torsion>
0.1394

> <Gold.PLP.Chemscore.Hbond>
4.4332

> <Gold.PLP.Chemscore.CHOScore>
0.0000

> <Gold.PLP.Chemscore.Metal>
0.0000

> <Gold.Chemscore.Hbonds>
donor molecule, donor type, donor heavy atom, donor atom, acceptor molecule, acceptor atom, score
      L1  H    10    32       P1  7948  1.00
      L1  H    14    49       P1  7948  2.00
      L1  H    22    23       P1  8028  1.00
      P1  H  7989  7998       L1    21  0.43

> <Gold.PLP.Chemscore.Internal.Correction>
0.0496

> <Gold.Rescore>
     Score         DG    S(hbond)    S(metal)    S(lipo)     H(rot)  DE(clash)    DE(int)     intcor
     16.71     -17.86       2.83        0.00      68.37       1.98       0.05       1.09       ----

> <Gold.Chemscore.Fitness>
16.7148

> <Gold.Chemscore.DG>
-17.8603

> <Gold.Chemscore.ZeroCoef>
-5.4800

> <Gold.Chemscore.Hbond>
2.8322

> <Gold.Chemscore.Metal>
0.0000

> <Gold.Chemscore.Lipo>
68.3685

> <Gold.Chemscore.Internal_Hbond>
0.0000

> <Gold.Chemscore.DEClash>
0.0546

> <Gold.Chemscore.DEInternal>
1.0910

> <Gold.Chemscore.Rot>
1.9837

> <Gold.Chemscore.Internal.Correction>
   9.000000E+99

> <Gold.Chemscore.Hbonds>
donor molecule, donor type, donor heavy atom, donor atom, acceptor molecule, acceptor atom, score
      L1  H    10    32       P1  7948  0.74
      L1  H    14    49       P1  7948  0.78
      L1  H    22    23       P1  8028  1.00
      P1  H  7989  7998       L1    21  0.32

> <Gold.Chemscore.Hbond.Weighted>
-9.4595

> <Gold.Chemscore.Metal.Weighted>
-0.0000

> <Gold.Chemscore.Lipo.Weighted>
-7.9991

> <Gold.Chemscore.Internal_Hbond.Weighted>
0.0000

> <Gold.Chemscore.DEClash.Weighted>
0.0546

> <Gold.Chemscore.DEInternal.Weighted>
1.0910

> <Gold.Chemscore.Rot.Weighted>
5.0783

> <Gold.Chemscore.Internal.Correction.Weighted>
   9.000000E+99

> <Gold.Protein.RotatedTorsions>
[ 6907 6896 6895 6894 ] final  -14.44 input  -60.11 | X-H torsion
[ 7974 7965 7964 7962 ] final  150.60 input  175.53 | X-H torsion
[ 8008 7997 7996 7995 ] final   73.65 input   59.86 | X-H torsion
[ 10167 10162 10161 10158 ] final  -18.34 input  -65.29 | X-H torsion
[ 10718 10713 10712 10709 ] final -175.14 input   66.30 | X-H torsion
[ 10763 10752 10751 10750 ] final  116.13 input  -60.55 | X-H torsion
[ 11005 11000 10999 10996 ] final -110.25 input  -57.11 | X-H torsion

> <Gold.Protein.ActiveResidues>
 VAL166  LYS551  ARG553  GLY616  TRP617  ASP618  TYR619  PRO620  LYS621  CYS622 
 ASP623  PHE694  ASN695  SER759  ASP760  ASP761  ALA762  ILE779  LEU786  VAL792 
 PHE793  MET794  SER795  GLU796  ALA797  LYS798  CYS799  TRP800  GLU811  SER814 

> <Gold.Protein.RotatedAtoms>
  151.3394  135.0860  159.9365 H   0  0  0  0  0  0  0  0  0  0  0  0  # atno 6907 bound_to 6896
  152.5215  133.9462  159.7660 H   0  0  0  0  0  0  0  0  0  0  0  0  # atno 6908 bound_to 6896
  150.9816  133.6186  159.2751 H   0  0  0  0  0  0  0  0  0  0  0  0  # atno 6909 bound_to 6896
  144.8352  139.6430  143.6041 H   0  0  0  0  0  0  0  0  0  0  0  0  # atno 7974 bound_to 7965
  155.7869  140.3480  155.5327 H   0  0  0  0  0  0  0  0  0  0  0  0  # atno 8008 bound_to 7997
  155.8673  140.0981  157.1594 H   0  0  0  0  0  0  0  0  0  0  0  0  # atno 8009 bound_to 7997
  154.4015  140.1347  156.4022 H   0  0  0  0  0  0  0  0  0  0  0  0  # atno 8010 bound_to 7997
  140.7257  143.4926  150.9972 H   0  0  0  0  0  0  0  0  0  0  0  0  # atno 10167 bound_to 10162
  156.7955  130.9533  151.3119 H   0  0  0  0  0  0  0  0  0  0  0  0  # atno 10718 bound_to 10713
  153.5326  135.3575  155.2682 H   0  0  0  0  0  0  0  0  0  0  0  0  # atno 10763 bound_to 10752
  154.8725  135.4072  154.3134 H   0  0  0  0  0  0  0  0  0  0  0  0  # atno 10764 bound_to 10752
  153.3826  135.7069  153.6622 H   0  0  0  0  0  0  0  0  0  0  0  0  # atno 10765 bound_to 10752
  141.0802  133.9232  157.2304 H   0  0  0  0  0  0  0  0  0  0  0  0  # atno 11005 bound_to 11000
  146.2651  139.6502  142.9335 LP  0  0  0  0  0  0  0  0  0  0  0  0  # atno 17320 bound_to 7965
  145.4810  141.0438  143.2646 LP  0  0  0  0  0  0  0  0  0  0  0  0  # atno 17321 bound_to 7965
  139.8631  143.7289  152.3172 LP  0  0  0  0  0  0  0  0  0  0  0  0  # atno 17342 bound_to 10162
  139.7511  144.7534  151.0505 LP  0  0  0  0  0  0  0  0  0  0  0  0  # atno 17343 bound_to 10162
  157.6579  130.8941  149.9768 LP  0  0  0  0  0  0  0  0  0  0  0  0  # atno 17370 bound_to 10713
  156.1133  130.3649  150.0012 LP  0  0  0  0  0  0  0  0  0  0  0  0  # atno 17371 bound_to 10713
  139.9616  135.0153  156.9275 LP  0  0  0  0  0  0  0  0  0  0  0  0  # atno 17394 bound_to 11000
  140.5485  134.0651  155.7362 LP  0  0  0  0  0  0  0  0  0  0  0  0  # atno 17395 bound_to 11000

$$$$
