AV-unprocessed.smi:1131|AV-procd|sdf|4851|dock5
  -GOLD-   22720 3423D 1   1.00000     0.00000
 Structure written by MMmdl.
 33 34  0  0  0  0  0  0  0  0  1 V2000
  145.4909  138.5272  153.8654 O   0  0  0  0  0  0  0  0  0  0  0  0
  146.2258  137.8576  153.1378 C   0  0  0  0  0  0  0  0  0  0  0  0
  145.6587  136.7393  152.2512 C   0  0  0  0  0  0  0  0  0  0  0  0
  144.3721  136.2112  152.7284 N   0  0  0  0  0  0  0  0  0  0  0  0
  143.2468  137.0228  152.7463 C   0  0  0  0  0  0  0  0  0  0  0  0
  142.0328  136.6052  153.1770 C   0  0  0  0  0  0  0  0  0  0  0  0
  141.8490  135.2397  153.6567 C   0  0  0  0  0  0  0  0  0  0  0  0
  140.7896  134.7674  154.0628 O   0  0  0  0  0  0  0  0  0  0  0  0
  143.0051  134.4555  153.6271 N   0  0  0  0  0  0  0  0  0  0  0  0
  144.2597  134.8804  153.1870 C   0  0  0  0  0  0  0  0  0  0  0  0
  145.2168  134.1074  153.2078 O   0  0  0  0  0  0  0  0  0  0  0  0
  147.5483  138.0581  153.0510 N   0  0  0  0  0  0  0  0  0  0  0  0
  148.2825  139.0686  153.8005 C   0  0  0  0  0  0  0  0  0  0  0  0
  149.4794  138.4445  154.5366 C   0  0  1  0  0  0  0  0  0  0  0  0
  150.7680  138.4547  153.7409 C   0  0  0  0  0  0  0  0  0  0  0  0
  151.8087  138.2318  154.8333 C   0  0  0  0  0  0  0  0  0  0  0  0
  151.2852  138.8623  155.9985 O   0  0  0  0  0  0  0  0  0  0  0  0
  149.9101  139.1829  155.8060 C   0  0  0  0  0  0  0  0  0  0  0  0
  142.9272  133.5033  153.9535 H   0  0  0  0  0  0  0  0  0  0  0  0
  145.5508  137.1302  151.2383 H   0  0  0  0  0  0  0  0  0  0  0  0
  146.3909  135.9333  152.1707 H   0  0  0  0  0  0  0  0  0  0  0  0
  143.3370  138.0435  152.4026 H   0  0  0  0  0  0  0  0  0  0  0  0
  141.1934  137.2854  153.1669 H   0  0  0  0  0  0  0  0  0  0  0  0
  148.0814  137.4680  152.4287 H   0  0  0  0  0  0  0  0  0  0  0  0
  148.6350  139.8439  153.1182 H   0  0  0  0  0  0  0  0  0  0  0  0
  147.6070  139.5498  154.5096 H   0  0  0  0  0  0  0  0  0  0  0  0
  149.2453  137.4104  154.7961 H   0  0  0  0  0  0  0  0  0  0  0  0
  150.7990  137.6911  152.9633 H   0  0  0  0  0  0  0  0  0  0  0  0
  150.9207  139.4280  153.2718 H   0  0  0  0  0  0  0  0  0  0  0  0
  151.9220  137.1663  155.0372 H   0  0  0  0  0  0  0  0  0  0  0  0
  152.7875  138.6319  154.5671 H   0  0  0  0  0  0  0  0  0  0  0  0
  149.8262  140.2623  155.6738 H   0  0  0  0  0  0  0  0  0  0  0  0
  149.3129  138.9026  156.6738 H   0  0  0  0  0  0  0  0  0  0  0  0
  1  2  2  0  0  0  0
  2  3  1  0  0  0  0
  2 12  1  0  0  0  0
  3  4  1  0  0  0  0
  3 20  1  0  0  0  0
  3 21  1  0  0  0  0
  4 10  1  0  0  0  0
  4  5  1  0  0  0  0
  5  6  2  0  0  0  0
  5 22  1  0  0  0  0
  6  7  1  0  0  0  0
  6 23  1  0  0  0  0
  7  8  2  0  0  0  0
  7  9  1  0  0  0  0
  9 19  1  0  0  0  0
  9 10  1  0  0  0  0
 10 11  2  0  0  0  0
 12 13  1  0  0  0  0
 12 24  1  0  0  0  0
 13 14  1  0  0  0  0
 13 25  1  0  0  0  0
 13 26  1  0  0  0  0
 14 18  1  0  0  0  0
 14 15  1  0  0  0  0
 14 27  1  0  0  0  0
 15 16  1  0  0  0  0
 15 28  1  0  0  0  0
 15 29  1  0  0  0  0
 16 17  1  0  0  0  0
 16 30  1  0  0  0  0
 16 31  1  0  0  0  0
 17 18  1  0  0  0  0
 18 32  1  0  0  0  0
 18 33  1  0  0  0  0
M  END
> <s_m_source_file>
AV-unprocessed.smi

> <i_m_source_file_index>
1131

> <i_lp_mmshare_version>
43012

> <i_f3d_flags>
0

> <s_epik_input>
W0NIMl0xT1tDSDJdW0NIMl1bQ0BIXTFbQ0gyXVtOSF1DKD1PKVtDSDJdbjJbY0hdW2NIXWMoPU8pW25IXWMyPU8=

> <s_epik_cmdline>
J2VwaWtfcHl0aG9uJywgJy1waCcsICc3LjAnLCAnLXRuJywgJzgnLCAnLW1hJywgJzIwMCcsICctbWV0YWxfYmluZGluZycsICctaW1hZScsICc8aW5maWxlLm1hZT4nLCAnLW9tYWUnLCAnPG91dGZpbGUubWFlPic=

> <r_lp_tautomer_probability>
0.999537

> <r_epik_Ionization_Penalty>
0.00329016

> <r_epik_Ionization_Penalty_Charging>
0.00329014

> <r_epik_Ionization_Penalty_Neutral>
1.87063e-08

> <r_epik_State_Penalty>
0.00232461

> <r_epik_Charging_Adjusted_Penalty>
0.00561475

> <i_epik_Tot_Q>
0

> <i_epik_Tot_abs_Q>
0

> <r_epik_Metal_State_Penalty>
0.365289

> <b_epik_Metal_Only>
0

> <s_lp_Force_Field>
OPLS_2005

> <r_lp_Energy>
18.0195

> <b_lp_Chiralities_Consistent>
1

> <s_lp_Variant>
AV-unprocessed.smi:1131-2

> <Gold.Version>
5.8.1

> <Gold.Id.Protein>
6NUR|6NUR_protein|mol2

> <Gold.PLP.Fitness>
37.9939

> <Gold.PLP.PLP>
-25.1936

> <Gold.PLP.part.hbond>
-3.9967

> <Gold.PLP.part.metal>
0.0000

> <Gold.PLP.part.buried>
-5.2459

> <Gold.PLP.part.nonpolar>
-16.9315

> <Gold.PLP.part.repulsive>
1.6455

> <Gold.PLP.ligand.clash>
0.0000

> <Gold.PLP.ligand.torsion>
0.7411

> <Gold.PLP.Chemscore.Hbond>
2.9913

> <Gold.PLP.Chemscore.CHOScore>
1.7651

> <Gold.PLP.Chemscore.Metal>
0.0000

> <Gold.Chemscore.Hbonds>
donor molecule, donor type, donor heavy atom, donor atom, acceptor molecule, acceptor atom, score
      L1  H     9    19       P1 10957  1.00
      L1  H    12    24       P1  7948  1.00
      P1  H 11000 11005       L1     8  1.00
      L1  C     5    22       P1 10171  0.52
      L1  C     5    22       P1 10175  1.00

> <Gold.PLP.Chemscore.Internal.Correction>
0.0134

> <Gold.Rescore>
     Score         DG    S(hbond)    S(metal)    S(lipo)     H(rot)  DE(clash)    DE(int)     intcor
     13.56     -15.48       3.02        0.00      45.02       2.09       0.26       1.66       ----

> <Gold.Chemscore.Fitness>
13.5560

> <Gold.Chemscore.DG>
-15.4787

> <Gold.Chemscore.ZeroCoef>
-5.4800

> <Gold.Chemscore.Hbond>
3.0201

> <Gold.Chemscore.Metal>
0.0000

> <Gold.Chemscore.Lipo>
45.0159

> <Gold.Chemscore.Internal_Hbond>
0.0000

> <Gold.Chemscore.DEClash>
0.2591

> <Gold.Chemscore.DEInternal>
1.6635

> <Gold.Chemscore.Rot>
2.0919

> <Gold.Chemscore.Internal.Correction>
   9.000000E+99

> <Gold.Chemscore.Hbonds>
donor molecule, donor type, donor heavy atom, donor atom, acceptor molecule, acceptor atom, score
      L1  H     9    19       P1 10957  0.99
      L1  H    12    24       P1  7948  0.98
      P1  H 11000 11005       L1     8  0.99

> <Gold.Chemscore.Hbond.Weighted>
-10.0871

> <Gold.Chemscore.Metal.Weighted>
-0.0000

> <Gold.Chemscore.Lipo.Weighted>
-5.2669

> <Gold.Chemscore.Internal_Hbond.Weighted>
0.0000

> <Gold.Chemscore.DEClash.Weighted>
0.2591

> <Gold.Chemscore.DEInternal.Weighted>
1.6635

> <Gold.Chemscore.Rot.Weighted>
5.3552

> <Gold.Chemscore.Internal.Correction.Weighted>
   9.000000E+99

> <Gold.Protein.RotatedTorsions>
[ 6907 6896 6895 6894 ] final -140.70 input  -60.11 | X-H torsion
[ 7974 7965 7964 7962 ] final   51.56 input  175.53 | X-H torsion
[ 8008 7997 7996 7995 ] final  -68.17 input   59.86 | X-H torsion
[ 10167 10162 10161 10158 ] final   91.11 input  -65.29 | X-H torsion
[ 10718 10713 10712 10709 ] final  -73.87 input   66.30 | X-H torsion
[ 10763 10752 10751 10750 ] final  -23.34 input  -60.55 | X-H torsion
[ 11005 11000 10999 10996 ] final   12.00 input  -57.11 | X-H torsion

> <Gold.Protein.ActiveResidues>
 VAL166  LYS551  ARG553  GLY616  TRP617  ASP618  TYR619  PRO620  LYS621  CYS622 
 ASP623  PHE694  ASN695  SER759  ASP760  ASP761  ALA762  ILE779  LEU786  VAL792 
 PHE793  MET794  SER795  GLU796  ALA797  LYS798  CYS799  TRP800  GLU811  SER814 

> <Gold.Protein.RotatedAtoms>
  151.0642  133.5519  159.2631 H   0  0  0  0  0  0  0  0  0  0  0  0  # atno 6907 bound_to 6896
  151.2483  135.0612  159.9062 H   0  0  0  0  0  0  0  0  0  0  0  0  # atno 6908 bound_to 6896
  152.5402  134.0406  159.8119 H   0  0  0  0  0  0  0  0  0  0  0  0  # atno 6909 bound_to 6896
  145.9901  139.4330  143.0079 H   0  0  0  0  0  0  0  0  0  0  0  0  # atno 7974 bound_to 7965
  154.4849  140.0878  156.7464 H   0  0  0  0  0  0  0  0  0  0  0  0  # atno 8008 bound_to 7997
  155.4374  140.3452  155.4268 H   0  0  0  0  0  0  0  0  0  0  0  0  # atno 8009 bound_to 7997
  156.1247  140.1484  156.9141 H   0  0  0  0  0  0  0  0  0  0  0  0  # atno 8010 bound_to 7997
  139.8407  144.6642  150.9287 H   0  0  0  0  0  0  0  0  0  0  0  0  # atno 10167 bound_to 10162
  156.0263  130.4404  150.2808 H   0  0  0  0  0  0  0  0  0  0  0  0  # atno 10718 bound_to 10713
  153.6662  135.6974  153.5161 H   0  0  0  0  0  0  0  0  0  0  0  0  # atno 10763 bound_to 10752
  153.2593  135.4250  155.0877 H   0  0  0  0  0  0  0  0  0  0  0  0  # atno 10764 bound_to 10752
  154.8439  135.3551  154.6207 H   0  0  0  0  0  0  0  0  0  0  0  0  # atno 10765 bound_to 10752
  140.4969  134.0784  155.7784 H   0  0  0  0  0  0  0  0  0  0  0  0  # atno 11005 bound_to 11000
  145.7643  140.9923  143.1183 LP  0  0  0  0  0  0  0  0  0  0  0  0  # atno 17320 bound_to 7965
  144.6886  139.9368  143.7474 LP  0  0  0  0  0  0  0  0  0  0  0  0  # atno 17321 bound_to 7965
  140.7798  143.3916  151.1301 LP  0  0  0  0  0  0  0  0  0  0  0  0  # atno 17342 bound_to 10162
  139.7562  143.8704  152.3089 LP  0  0  0  0  0  0  0  0  0  0  0  0  # atno 17343 bound_to 10162
  157.0911  131.0170  151.3121 LP  0  0  0  0  0  0  0  0  0  0  0  0  # atno 17370 bound_to 10713
  157.4853  130.7789  149.7454 LP  0  0  0  0  0  0  0  0  0  0  0  0  # atno 17371 bound_to 10713
  141.1455  133.9062  157.2225 LP  0  0  0  0  0  0  0  0  0  0  0  0  # atno 17394 bound_to 11000
  139.9736  135.0121  156.9574 LP  0  0  0  0  0  0  0  0  0  0  0  0  # atno 17395 bound_to 11000

$$$$
