AV-unprocessed.smi:1013|AV-procd|sdf|4426|dock5
  -GOLD-   22720 2383D 1   1.00000     0.00000
 Structure written by MMmdl.
 30 31  0  0  0  0  0  0  0  0  3 V2000
  152.4029  140.3150  156.9434 O   0  0  0  0  0  0  0  0  0  0  0  0
  151.2969  140.5388  157.4821 C   0  0  0  0  0  0  0  0  0  0  0  0
  150.9020  140.0312  158.5564 O   0  5  0  0  0  0  0  0  0  0  0  0
  150.3486  141.5070  156.7502 C   0  0  2  0  0  0  0  0  0  0  0  0
  150.0483  141.0131  155.3164 C   0  0  0  0  0  0  0  0  0  0  0  0
  148.6914  141.3144  154.8917 N   0  0  0  0  0  0  0  0  0  0  0  0
  148.0319  140.8858  153.7601 C   0  0  0  0  0  0  0  0  0  0  0  0
  146.7794  141.4275  153.7912 C   0  0  0  0  0  0  0  0  0  0  0  0
  146.7579  142.1819  155.0003 C   0  0  0  0  0  0  0  0  0  0  0  0
  145.6318  143.0044  155.5690 C   0  0  0  0  0  0  0  0  0  0  0  0
  145.2586  143.9416  154.6975 F   0  0  0  0  0  0  0  0  0  0  0  0
  144.5849  142.2220  155.8306 F   0  0  0  0  0  0  0  0  0  0  0  0
  146.0237  143.5984  156.6960 F   0  0  0  0  0  0  0  0  0  0  0  0
  147.9068  142.1009  155.6579 N   0  0  0  0  0  0  0  0  0  0  0  0
  150.9641  142.8513  156.6991 N   0  3  0  0  0  0  0  0  0  0  0  0
  151.3520  143.4021  158.0142 C   0  0  0  0  0  0  0  0  0  0  0  0
  152.2696  144.5967  157.9282 C   0  0  0  0  0  0  0  0  0  0  0  0
  152.8214  143.2399  158.3144 C   0  0  0  0  0  0  0  0  0  0  0  0
  149.4050  141.5913  157.2937 H   0  0  0  0  0  0  0  0  0  0  0  0
  150.7247  141.4965  154.6105 H   0  0  0  0  0  0  0  0  0  0  0  0
  150.2275  139.9401  155.2224 H   0  0  0  0  0  0  0  0  0  0  0  0
  148.5047  140.2432  153.0323 H   0  0  0  0  0  0  0  0  0  0  0  0
  145.9952  141.3056  153.0589 H   0  0  0  0  0  0  0  0  0  0  0  0
  151.7820  142.7956  156.1083 H   0  0  0  0  0  0  0  0  0  0  0  0
  150.6218  143.3102  158.8162 H   0  0  0  0  0  0  0  0  0  0  0  0
  152.5204  144.9817  156.9413 H   0  0  0  0  0  0  0  0  0  0  0  0
  152.1913  145.3456  158.7137 H   0  0  0  0  0  0  0  0  0  0  0  0
  153.1088  143.0972  159.3542 H   0  0  0  0  0  0  0  0  0  0  0  0
  153.4448  142.7253  157.5851 H   0  0  0  0  0  0  0  0  0  0  0  0
  150.3013  143.4868  156.2802 H   0  0  0  0  0  0  0  0  0  0  0  0
  1  2  2  0  0  0  0
  2  3  1  0  0  0  0
  2  4  1  0  0  0  0
  4  5  1  0  0  0  0
  4 15  1  0  0  0  0
  4 19  1  0  0  0  0
  5  6  1  0  0  0  0
  5 20  1  0  0  0  0
  5 21  1  0  0  0  0
  6 14  1  0  0  0  0
  6  7  1  0  0  0  0
  7  8  2  0  0  0  0
  7 22  1  0  0  0  0
  8  9  1  0  0  0  0
  8 23  1  0  0  0  0
  9 10  1  0  0  0  0
  9 14  2  0  0  0  0
 10 11  1  0  0  0  0
 10 12  1  0  0  0  0
 10 13  1  0  0  0  0
 15 16  1  0  0  0  0
 15 24  1  0  0  0  0
 15 30  1  0  0  0  0
 16 18  1  0  0  0  0
 16 17  1  0  0  0  0
 16 25  1  0  0  0  0
 17 18  1  0  0  0  0
 17 26  1  0  0  0  0
 17 27  1  0  0  0  0
 18 28  1  0  0  0  0
 18 29  1  0  0  0  0
M  CHG  1   3  -1
M  CHG  1  15   1
M  END
> <s_m_source_file>
AV-unprocessed.smi

> <i_m_source_file_index>
1013

> <i_lp_mmshare_version>
43012

> <i_f3d_flags>
0

> <s_epik_input>
W0NIMl0xW0NIMl1bQ0hdMVtOSF1bQ0BIXShDKD1PKVtPSF0pW0NIMl1uMltjSF1bY0hdYyhuMilDKEYpKEYpRg==

> <s_epik_cmdline>
J2VwaWtfcHl0aG9uJywgJy1waCcsICc3LjAnLCAnLXRuJywgJzgnLCAnLW1hJywgJzIwMCcsICctbWV0YWxfYmluZGluZycsICctaW1hZScsICc8aW5maWxlLm1hZT4nLCAnLW9tYWUnLCAnPG91dGZpbGUubWFlPic=

> <r_lp_tautomer_probability>
1

> <r_epik_Ionization_Penalty>
0.183175

> <r_epik_Ionization_Penalty_Charging>
0.183175

> <r_epik_Ionization_Penalty_Neutral>
3.57035e-11

> <r_epik_State_Penalty>
0.172705

> <r_epik_Charging_Adjusted_Penalty>
0.35588

> <i_epik_Tot_Q>
0

> <i_epik_Tot_abs_Q>
2

> <r_epik_Metal_State_Penalty>
0.172705

> <b_epik_Metal_Only>
0

> <s_lp_Force_Field>
OPLS_2005

> <r_lp_Energy>
11.6824

> <b_lp_Chiralities_Consistent>
1

> <s_lp_Variant>
AV-unprocessed.smi:1013-1

> <Gold.Version>
5.8.1

> <Gold.Id.Protein>
6NUR|6NUR_protein|mol2

> <Gold.PLP.Fitness>
47.6696

> <Gold.PLP.PLP>
-33.8407

> <Gold.PLP.part.hbond>
-2.0000

> <Gold.PLP.part.metal>
0.0000

> <Gold.PLP.part.buried>
-3.0116

> <Gold.PLP.part.nonpolar>
-29.6879

> <Gold.PLP.part.repulsive>
1.5960

> <Gold.PLP.ligand.clash>
0.0000

> <Gold.PLP.ligand.torsion>
0.8973

> <Gold.PLP.Chemscore.Hbond>
3.9840

> <Gold.PLP.Chemscore.CHOScore>
1.0000

> <Gold.PLP.Chemscore.Metal>
0.0000

> <Gold.Chemscore.Hbonds>
donor molecule, donor type, donor heavy atom, donor atom, acceptor molecule, acceptor atom, score
      L1  H    15    30       P1  8028  2.00
      P1  H  7997  8009       L1     1  2.00
      L1  C     7    22       P1  7957  1.00

> <Gold.PLP.Chemscore.Internal.Correction>
0.6716

> <Gold.Rescore>
     Score         DG    S(hbond)    S(metal)    S(lipo)     H(rot)  DE(clash)    DE(int)     intcor
     11.61     -13.11       1.95        0.00      66.31       2.60       0.30       1.20       ----

> <Gold.Chemscore.Fitness>
11.6059

> <Gold.Chemscore.DG>
-13.1071

> <Gold.Chemscore.ZeroCoef>
-5.4800

> <Gold.Chemscore.Hbond>
1.9513

> <Gold.Chemscore.Metal>
0.0000

> <Gold.Chemscore.Lipo>
66.3077

> <Gold.Chemscore.Internal_Hbond>
0.0000

> <Gold.Chemscore.DEClash>
0.2991

> <Gold.Chemscore.DEInternal>
1.2021

> <Gold.Chemscore.Rot>
2.5970

> <Gold.Chemscore.Internal.Correction>
   9.000000E+99

> <Gold.Chemscore.Hbonds>
donor molecule, donor type, donor heavy atom, donor atom, acceptor molecule, acceptor atom, score
      L1  H    15    30       P1  8028  0.98
      P1  H  7997  8009       L1     1  0.91

> <Gold.Chemscore.Hbond.Weighted>
-6.5175

> <Gold.Chemscore.Metal.Weighted>
-0.0000

> <Gold.Chemscore.Lipo.Weighted>
-7.7580

> <Gold.Chemscore.Internal_Hbond.Weighted>
0.0000

> <Gold.Chemscore.DEClash.Weighted>
0.2991

> <Gold.Chemscore.DEInternal.Weighted>
1.2021

> <Gold.Chemscore.Rot.Weighted>
6.6484

> <Gold.Chemscore.Internal.Correction.Weighted>
   9.000000E+99

> <Gold.Protein.RotatedTorsions>
[ 6907 6896 6895 6894 ] final  107.69 input  -60.11 | X-H torsion
[ 7974 7965 7964 7962 ] final    6.58 input  175.53 | X-H torsion
[ 8008 7997 7996 7995 ] final -174.37 input   59.86 | X-H torsion
[ 10167 10162 10161 10158 ] final  123.37 input  -65.29 | X-H torsion
[ 10718 10713 10712 10709 ] final    6.27 input   66.30 | X-H torsion
[ 10763 10752 10751 10750 ] final -141.99 input  -60.55 | X-H torsion
[ 11005 11000 10999 10996 ] final  107.26 input  -57.11 | X-H torsion

> <Gold.Protein.ActiveResidues>
 VAL166  LYS551  ARG553  GLY616  TRP617  ASP618  TYR619  PRO620  LYS621  CYS622 
 ASP623  PHE694  ASN695  SER759  ASP760  ASP761  ALA762  ILE779  LEU786  VAL792 
 PHE793  MET794  SER795  GLU796  ALA797  LYS798  CYS799  TRP800  GLU811  SER814 

> <Gold.Protein.RotatedAtoms>
  152.5144  133.9198  159.7528 H   0  0  0  0  0  0  0  0  0  0  0  0  # atno 6907 bound_to 6896
  150.9572  133.6476  159.2768 H   0  0  0  0  0  0  0  0  0  0  0  0  # atno 6908 bound_to 6896
  151.3734  135.0932  159.9525 H   0  0  0  0  0  0  0  0  0  0  0  0  # atno 6909 bound_to 6896
  146.2433  140.0211  142.8398 H   0  0  0  0  0  0  0  0  0  0  0  0  # atno 7974 bound_to 7965
  155.9692  140.1159  157.0827 H   0  0  0  0  0  0  0  0  0  0  0  0  # atno 8008 bound_to 7997
  154.4152  140.1166  156.5351 H   0  0  0  0  0  0  0  0  0  0  0  0  # atno 8009 bound_to 7997
  155.6619  140.3473  155.4788 H   0  0  0  0  0  0  0  0  0  0  0  0  # atno 8010 bound_to 7997
  139.5803  144.6983  151.3544 H   0  0  0  0  0  0  0  0  0  0  0  0  # atno 10167 bound_to 10162
  156.9197  130.5786  149.5647 H   0  0  0  0  0  0  0  0  0  0  0  0  # atno 10718 bound_to 10713
  154.8525  135.3508  154.5957 H   0  0  0  0  0  0  0  0  0  0  0  0  # atno 10763 bound_to 10752
  153.6566  135.6991  153.5196 H   0  0  0  0  0  0  0  0  0  0  0  0  # atno 10764 bound_to 10752
  153.2851  135.4252  155.1072 H   0  0  0  0  0  0  0  0  0  0  0  0  # atno 10765 bound_to 10752
  139.8825  134.9395  156.5792 H   0  0  0  0  0  0  0  0  0  0  0  0  # atno 11005 bound_to 11000
  145.1240  140.9479  143.4584 LP  0  0  0  0  0  0  0  0  0  0  0  0  # atno 17320 bound_to 7965
  145.0453  139.3226  143.5956 LP  0  0  0  0  0  0  0  0  0  0  0  0  # atno 17321 bound_to 7965
  140.7082  143.7458  150.7520 LP  0  0  0  0  0  0  0  0  0  0  0  0  # atno 17342 bound_to 10162
  140.0989  143.4806  152.2436 LP  0  0  0  0  0  0  0  0  0  0  0  0  # atno 17343 bound_to 10162
  156.0497  130.5568  150.8961 LP  0  0  0  0  0  0  0  0  0  0  0  0  # atno 17370 bound_to 10713
  157.5915  131.0944  150.9110 LP  0  0  0  0  0  0  0  0  0  0  0  0  # atno 17371 bound_to 10713
  140.8040  133.8483  155.8751 LP  0  0  0  0  0  0  0  0  0  0  0  0  # atno 17394 bound_to 11000
  140.9567  134.1709  157.4686 LP  0  0  0  0  0  0  0  0  0  0  0  0  # atno 17395 bound_to 11000

$$$$
