AV-unprocessed.smi:1464|AV-procd|sdf|5935|dock8
  -GOLD-   22720 6 13D 1   1.00000     0.00000
 Structure written by MMmdl.
 40 41  0  0  0  0  0  0  0  0  2 V2000
  151.9403  145.6513  160.4890 C   0  0  0  0  0  0  0  0  0  0  0  0
  152.0852  144.1192  160.4644 C   0  0  2  0  0  0  0  0  0  0  0  0
  152.6409  143.6259  161.8164 C   0  0  0  0  0  0  0  0  0  0  0  0
  152.7962  142.0996  161.8596 C   0  0  0  0  0  0  0  0  0  0  0  0
  153.6701  141.5997  160.6991 C   0  0  0  0  0  0  0  0  0  0  0  0
  153.1320  142.0651  159.3335 C   0  0  1  0  0  0  0  0  0  0  0  0
  151.8742  141.3743  159.0428 N   0  0  0  0  0  0  0  0  0  0  0  0
  151.6998  140.3688  158.1712 C   0  0  0  0  0  0  0  0  0  0  0  0
  152.6149  139.8725  157.5134 O   0  0  0  0  0  0  0  0  0  0  0  0
  150.2662  139.8393  158.0338 C   0  0  0  0  0  0  0  0  0  0  0  0
  149.5656  140.3917  156.8662 N   0  0  0  0  0  0  0  0  0  0  0  0
  148.2457  140.9376  157.1688 N   0  5  0  0  0  0  0  0  0  0  0  0
  147.4965  141.4565  156.1600 C   0  0  0  0  0  0  0  0  0  0  0  0
  146.3690  141.9129  156.3338 O   0  0  0  0  0  0  0  0  0  0  0  0
  148.0657  141.4714  154.8225 C   0  0  0  0  0  0  0  0  0  0  0  0
  149.2978  140.9842  154.5767 C   0  0  0  0  0  0  0  0  0  0  0  0
  150.1320  140.4105  155.6252 C   0  0  0  0  0  0  0  0  0  0  0  0
  151.2634  139.9742  155.4094 O   0  0  0  0  0  0  0  0  0  0  0  0
  152.9722  143.6104  159.2936 C   0  0  1  0  0  0  0  0  0  0  0  0
  152.4954  144.1058  157.9133 C   0  0  0  0  0  0  0  0  0  0  0  0
  152.9133  146.1415  160.5297 H   0  0  0  0  0  0  0  0  0  0  0  0
  151.3689  145.9764  161.3587 H   0  0  0  0  0  0  0  0  0  0  0  0
  151.4125  146.0210  159.6103 H   0  0  0  0  0  0  0  0  0  0  0  0
  151.0843  143.7027  160.3423 H   0  0  0  0  0  0  0  0  0  0  0  0
  153.6093  144.0913  162.0055 H   0  0  0  0  0  0  0  0  0  0  0  0
  151.9848  143.9438  162.6274 H   0  0  0  0  0  0  0  0  0  0  0  0
  153.2379  141.7997  162.8102 H   0  0  0  0  0  0  0  0  0  0  0  0
  151.8136  141.6286  161.8165 H   0  0  0  0  0  0  0  0  0  0  0  0
  154.6864  141.9733  160.8301 H   0  0  0  0  0  0  0  0  0  0  0  0
  153.7417  140.5115  160.7270 H   0  0  0  0  0  0  0  0  0  0  0  0
  153.8730  141.7784  158.5851 H   0  0  0  0  0  0  0  0  0  0  0  0
  151.0572  141.7077  159.5333 H   0  0  0  0  0  0  0  0  0  0  0  0
  150.3149  138.7506  157.9755 H   0  0  0  0  0  0  0  0  0  0  0  0
  149.6941  140.0593  158.9373 H   0  0  0  0  0  0  0  0  0  0  0  0
  147.4890  141.8853  154.0084 H   0  0  0  0  0  0  0  0  0  0  0  0
  149.6821  141.0174  153.5680 H   0  0  0  0  0  0  0  0  0  0  0  0
  153.9694  144.0289  159.4393 H   0  0  0  0  0  0  0  0  0  0  0  0
  151.4489  143.8588  157.7352 H   0  0  0  0  0  0  0  0  0  0  0  0
  153.0839  143.6570  157.1127 H   0  0  0  0  0  0  0  0  0  0  0  0
  152.6023  145.1857  157.8149 H   0  0  0  0  0  0  0  0  0  0  0  0
  1  2  1  0  0  0  0
  1 21  1  0  0  0  0
  1 22  1  0  0  0  0
  1 23  1  0  0  0  0
  2 19  1  0  0  0  0
  2  3  1  0  0  0  0
  2 24  1  0  0  0  0
  3  4  1  0  0  0  0
  3 25  1  0  0  0  0
  3 26  1  0  0  0  0
  4  5  1  0  0  0  0
  4 27  1  0  0  0  0
  4 28  1  0  0  0  0
  5  6  1  0  0  0  0
  5 29  1  0  0  0  0
  5 30  1  0  0  0  0
  6  7  1  0  0  0  0
  6 19  1  0  0  0  0
  6 31  1  0  0  0  0
  7  8  1  0  0  0  0
  7 32  1  0  0  0  0
  8  9  2  0  0  0  0
  8 10  1  0  0  0  0
 10 33  1  0  0  0  0
 10 34  1  0  0  0  0
 10 11  1  0  0  0  0
 11 12  1  0  0  0  0
 11 17  1  0  0  0  0
 12 13  1  0  0  0  0
 13 14  2  0  0  0  0
 13 15  1  0  0  0  0
 15 35  1  0  0  0  0
 15 16  2  0  0  0  0
 16 36  1  0  0  0  0
 16 17  1  0  0  0  0
 17 18  2  0  0  0  0
 19 20  1  0  0  0  0
 19 37  1  0  0  0  0
 20 38  1  0  0  0  0
 20 39  1  0  0  0  0
 20 40  1  0  0  0  0
M  CHG  1  12  -1
M  END
> <s_m_source_file>
AV-unprocessed.smi

> <i_m_source_file_index>
1464

> <i_lp_mmshare_version>
43012

> <i_f3d_flags>
0

> <s_epik_input>
W0NIM11bQ0BASF0xW0NIMl1bQ0gyXVtDSDJdW0NASF0oW0NASF0xW0NIM10pW05IXUMoPU8pW0NIMl1uMltuSF1jKD1PKVtjSF1bY0hdYzI9Tw==

> <s_epik_cmdline>
J2VwaWtfcHl0aG9uJywgJy1waCcsICc3LjAnLCAnLXRuJywgJzgnLCAnLW1hJywgJzIwMCcsICctbWV0YWxfYmluZGluZycsICctaW1hZScsICc8aW5maWxlLm1hZT4nLCAnLW9tYWUnLCAnPG91dGZpbGUubWFlPic=

> <r_lp_tautomer_probability>
1

> <r_epik_Ionization_Penalty>
0.101366

> <r_epik_Ionization_Penalty_Charging>
0.101366

> <r_epik_Ionization_Penalty_Neutral>
1.90469e-08

> <r_epik_State_Penalty>
0.035861

> <r_epik_Charging_Adjusted_Penalty>
0.137227

> <i_epik_Tot_Q>
-1

> <i_epik_Tot_abs_Q>
1

> <r_epik_Metal_State_Penalty>
0.035861

> <b_epik_Metal_Only>
0

> <s_lp_Force_Field>
OPLS_2005

> <r_lp_Energy>
26.1624

> <b_lp_Chiralities_Consistent>
1

> <s_lp_Variant>
AV-unprocessed.smi:1464-1

> <Gold.Version>
5.8.1

> <Gold.Id.Protein>
6NUR|6NUR_protein|mol2

> <Gold.PLP.Fitness>
52.3036

> <Gold.PLP.PLP>
-47.4171

> <Gold.PLP.part.hbond>
-2.0000

> <Gold.PLP.part.metal>
0.0000

> <Gold.PLP.part.buried>
-3.8977

> <Gold.PLP.part.nonpolar>
-41.1462

> <Gold.PLP.part.repulsive>
0.3206

> <Gold.PLP.ligand.clash>
0.0000

> <Gold.PLP.ligand.torsion>
0.5614

> <Gold.PLP.Chemscore.Hbond>
2.0000

> <Gold.PLP.Chemscore.CHOScore>
0.0000

> <Gold.PLP.Chemscore.Metal>
0.0000

> <Gold.Chemscore.Hbonds>
donor molecule, donor type, donor heavy atom, donor atom, acceptor molecule, acceptor atom, score
      P1  H  7989  7998       L1    18  0.73
      P1  H  7997  8010       L1     9  1.00

> <Gold.PLP.Chemscore.Internal.Correction>
0.0093

> <Gold.Rescore>
     Score         DG    S(hbond)    S(metal)    S(lipo)     H(rot)  DE(clash)    DE(int)     intcor
     18.07     -20.60       1.91        0.00     110.51       1.64       0.06       2.46       ----

> <Gold.Chemscore.Fitness>
18.0709

> <Gold.Chemscore.DG>
-20.5952

> <Gold.Chemscore.ZeroCoef>
-5.4800

> <Gold.Chemscore.Hbond>
1.9141

> <Gold.Chemscore.Metal>
0.0000

> <Gold.Chemscore.Lipo>
110.5131

> <Gold.Chemscore.Internal_Hbond>
0.0000

> <Gold.Chemscore.DEClash>
0.0619

> <Gold.Chemscore.DEInternal>
2.4624

> <Gold.Chemscore.Rot>
1.6438

> <Gold.Chemscore.Internal.Correction>
   9.000000E+99

> <Gold.Chemscore.Hbonds>
donor molecule, donor type, donor heavy atom, donor atom, acceptor molecule, acceptor atom, score
      P1  H  7989  7998       L1    18  0.18
      P1  H  7997  8010       L1     9  0.94

> <Gold.Chemscore.Hbond.Weighted>
-6.3932

> <Gold.Chemscore.Metal.Weighted>
-0.0000

> <Gold.Chemscore.Lipo.Weighted>
-12.9300

> <Gold.Chemscore.Internal_Hbond.Weighted>
0.0000

> <Gold.Chemscore.DEClash.Weighted>
0.0619

> <Gold.Chemscore.DEInternal.Weighted>
2.4624

> <Gold.Chemscore.Rot.Weighted>
4.2080

> <Gold.Chemscore.Internal.Correction.Weighted>
   9.000000E+99

> <Gold.Protein.RotatedTorsions>
[ 6907 6896 6895 6894 ] final   80.34 input  -60.11 | X-H torsion
[ 7974 7965 7964 7962 ] final  139.16 input  175.53 | X-H torsion
[ 8008 7997 7996 7995 ] final   64.80 input   59.86 | X-H torsion
[ 10167 10162 10161 10158 ] final  165.83 input  -65.29 | X-H torsion
[ 10718 10713 10712 10709 ] final   26.11 input   66.30 | X-H torsion
[ 10763 10752 10751 10750 ] final -148.34 input  -60.55 | X-H torsion
[ 11005 11000 10999 10996 ] final  170.41 input  -57.11 | X-H torsion

> <Gold.Protein.ActiveResidues>
 VAL166  LYS551  ARG553  GLY616  TRP617  ASP618  TYR619  PRO620  LYS621  CYS622 
 ASP623  PHE694  ASN695  SER759  ASP760  ASP761  ALA762  ILE779  LEU786  VAL792 
 PHE793  MET794  SER795  GLU796  ALA797  LYS798  CYS799  TRP800  GLU811  SER814 

> <Gold.Protein.RotatedAtoms>
  152.5231  134.3372  159.9203 H   0  0  0  0  0  0  0  0  0  0  0  0  # atno 6907 bound_to 6896
  151.3321  133.3990  159.2671 H   0  0  0  0  0  0  0  0  0  0  0  0  # atno 6908 bound_to 6896
  150.9872  134.9232  159.7936 H   0  0  0  0  0  0  0  0  0  0  0  0  # atno 6909 bound_to 6896
  144.9304  139.5054  143.5620 H   0  0  0  0  0  0  0  0  0  0  0  0  # atno 7974 bound_to 7965
  155.6517  140.3497  155.4751 H   0  0  0  0  0  0  0  0  0  0  0  0  # atno 8008 bound_to 7997
  155.9842  140.1180  157.0722 H   0  0  0  0  0  0  0  0  0  0  0  0  # atno 8009 bound_to 7997
  154.4200  140.1132  156.5463 H   0  0  0  0  0  0  0  0  0  0  0  0  # atno 8010 bound_to 7997
  139.4913  144.4091  151.9321 H   0  0  0  0  0  0  0  0  0  0  0  0  # atno 10167 bound_to 10162
  157.2024  130.6896  149.6194 H   0  0  0  0  0  0  0  0  0  0  0  0  # atno 10718 bound_to 10713
  154.8238  135.3337  154.6958 H   0  0  0  0  0  0  0  0  0  0  0  0  # atno 10763 bound_to 10752
  153.7587  135.6934  153.4934 H   0  0  0  0  0  0  0  0  0  0  0  0  # atno 10764 bound_to 10752
  153.2125  135.4477  155.0346 H   0  0  0  0  0  0  0  0  0  0  0  0  # atno 10765 bound_to 10752
  140.3081  134.7540  157.3969 H   0  0  0  0  0  0  0  0  0  0  0  0  # atno 11005 bound_to 11000
  146.3244  139.8250  142.8919 LP  0  0  0  0  0  0  0  0  0  0  0  0  # atno 17320 bound_to 7965
  145.3151  141.0230  143.3532 LP  0  0  0  0  0  0  0  0  0  0  0  0  # atno 17321 bound_to 7965
  140.3532  144.3064  150.5946 LP  0  0  0  0  0  0  0  0  0  0  0  0  # atno 17342 bound_to 10162
  140.5467  143.2213  151.7995 LP  0  0  0  0  0  0  0  0  0  0  0  0  # atno 17343 bound_to 10162
  155.9699  130.4578  150.5977 LP  0  0  0  0  0  0  0  0  0  0  0  0  # atno 17370 bound_to 10713
  157.3754  131.0772  151.1522 LP  0  0  0  0  0  0  0  0  0  0  0  0  # atno 17371 bound_to 10713
  140.1049  134.5422  155.8318 LP  0  0  0  0  0  0  0  0  0  0  0  0  # atno 17394 bound_to 11000
  141.2114  133.6706  156.6580 LP  0  0  0  0  0  0  0  0  0  0  0  0  # atno 17395 bound_to 11000

$$$$
