AV-unprocessed.smi:67|AV-procd|sdf|631|dock1
  -GOLD-   2262016523D 1   1.00000     0.00000
 Structure written by MMmdl.
 49 51  0  0  0  0  0  0  0  0  3 V2000
  149.3280  140.5886  153.3941 O   0  0  0  0  0  0  0  0  0  0  0  0
  148.3063  140.3033  154.3343 C   0  0  1  0  0  0  0  0  0  0  0  0
  148.6925  140.9485  155.6862 C   0  0  0  0  0  0  0  0  0  0  0  0
  149.5228  140.0513  156.5359 N   0  3  2  0  0  0  0  0  0  0  0  0
  149.7979  140.6229  157.8796 C   0  0  0  0  0  0  0  0  0  0  0  0
  150.5274  139.6096  158.7795 C   0  0  0  0  0  0  0  0  0  0  0  0
  151.8260  139.1007  158.1339 C   0  0  2  0  0  0  0  0  0  0  0  0
  152.7375  140.1962  158.0749 O   0  0  0  0  0  0  0  0  0  0  0  0
  152.8156  141.0887  159.1248 C   0  0  0  0  0  0  0  0  0  0  0  0
  153.3345  140.7837  160.4083 C   0  0  0  0  0  0  0  0  0  0  0  0
  153.3647  141.7665  161.4158 C   0  0  0  0  0  0  0  0  0  0  0  0
  152.8805  143.0618  161.1575 C   0  0  0  0  0  0  0  0  0  0  0  0
  152.3643  143.3837  159.8847 C   0  0  0  0  0  0  0  0  0  0  0  0
  151.8286  144.7772  159.5915 C   0  0  0  0  0  0  0  0  0  0  0  0
  152.3194  145.2298  158.4372 F   0  0  0  0  0  0  0  0  0  0  0  0
  150.5002  144.7268  159.5032 F   0  0  0  0  0  0  0  0  0  0  0  0
  152.1622  145.6389  160.5531 F   0  0  0  0  0  0  0  0  0  0  0  0
  152.3315  142.3907  158.8823 C   0  0  0  0  0  0  0  0  0  0  0  0
  151.5132  138.5579  156.7247 C   0  0  0  0  0  0  0  0  0  0  0  0
  150.7740  139.6017  155.8708 C   0  0  0  0  0  0  0  0  0  0  0  0
  146.9483  140.7294  153.7663 C   0  0  0  0  0  0  0  0  0  0  0  0
  146.5711  139.5901  152.8189 C   0  0  0  0  0  0  0  0  0  0  0  0
  147.1784  138.3731  153.3890 N   0  3  0  0  0  0  0  0  0  0  0  0
  148.1577  138.7732  154.4213 C   0  0  0  0  0  0  0  0  0  0  0  0
  149.3204  139.9248  152.7204 H   0  0  0  0  0  0  0  0  0  0  0  0
  149.2084  141.8970  155.5287 H   0  0  0  0  0  0  0  0  0  0  0  0
  147.7706  141.2061  156.2107 H   0  0  0  0  0  0  0  0  0  0  0  0
  150.3903  141.5336  157.7758 H   0  0  0  0  0  0  0  0  0  0  0  0
  148.8590  140.9076  158.3563 H   0  0  0  0  0  0  0  0  0  0  0  0
  150.7447  140.0602  159.7485 H   0  0  0  0  0  0  0  0  0  0  0  0
  149.8670  138.7642  158.9775 H   0  0  0  0  0  0  0  0  0  0  0  0
  152.2202  138.3117  158.7748 H   0  0  0  0  0  0  0  0  0  0  0  0
  153.7166  139.8043  160.6505 H   0  0  0  0  0  0  0  0  0  0  0  0
  153.7594  141.5246  162.3917 H   0  0  0  0  0  0  0  0  0  0  0  0
  152.9058  143.8031  161.9426 H   0  0  0  0  0  0  0  0  0  0  0  0
  151.9277  142.6297  157.9093 H   0  0  0  0  0  0  0  0  0  0  0  0
  152.4234  138.2454  156.2140 H   0  0  0  0  0  0  0  0  0  0  0  0
  150.8956  137.6633  156.8127 H   0  0  0  0  0  0  0  0  0  0  0  0
  150.5504  139.1678  154.8977 H   0  0  0  0  0  0  0  0  0  0  0  0
  151.4207  140.4614  155.6877 H   0  0  0  0  0  0  0  0  0  0  0  0
  146.2101  140.7778  154.5681 H   0  0  0  0  0  0  0  0  0  0  0  0
  146.9686  141.7015  153.2716 H   0  0  0  0  0  0  0  0  0  0  0  0
  145.4928  139.4833  152.6983 H   0  0  0  0  0  0  0  0  0  0  0  0
  147.0049  139.7625  151.8331 H   0  0  0  0  0  0  0  0  0  0  0  0
  146.4635  137.8005  153.8150 H   0  0  0  0  0  0  0  0  0  0  0  0
  149.1031  138.2410  154.3062 H   0  0  0  0  0  0  0  0  0  0  0  0
  147.7411  138.4880  155.3883 H   0  0  0  0  0  0  0  0  0  0  0  0
  147.6362  137.8513  152.6549 H   0  0  0  0  0  0  0  0  0  0  0  0
  148.9629  139.2260  156.6980 H   0  0  0  0  0  0  0  0  0  0  0  0
  1  2  1  0  0  0  0
  1 25  1  0  0  0  0
  2 24  1  0  0  0  0
  2  3  1  0  0  0  0
  2 21  1  0  0  0  0
  3  4  1  0  0  0  0
  3 26  1  0  0  0  0
  3 27  1  0  0  0  0
  4 20  1  0  0  0  0
  4  5  1  0  0  0  0
  4 49  1  0  0  0  0
  5  6  1  0  0  0  0
  5 28  1  0  0  0  0
  5 29  1  0  0  0  0
  6  7  1  0  0  0  0
  6 30  1  0  0  0  0
  6 31  1  0  0  0  0
  7  8  1  0  0  0  0
  7 19  1  0  0  0  0
  7 32  1  0  0  0  0
  8  9  1  0  0  0  0
  9 18  1  0  0  0  0
  9 10  2  0  0  0  0
 10 11  1  0  0  0  0
 10 33  1  0  0  0  0
 11 12  2  0  0  0  0
 11 34  1  0  0  0  0
 12 13  1  0  0  0  0
 12 35  1  0  0  0  0
 13 14  1  0  0  0  0
 13 18  2  0  0  0  0
 14 15  1  0  0  0  0
 14 16  1  0  0  0  0
 14 17  1  0  0  0  0
 18 36  1  0  0  0  0
 19 20  1  0  0  0  0
 19 37  1  0  0  0  0
 19 38  1  0  0  0  0
 20 39  1  0  0  0  0
 20 40  1  0  0  0  0
 21 22  1  0  0  0  0
 21 41  1  0  0  0  0
 21 42  1  0  0  0  0
 22 23  1  0  0  0  0
 22 43  1  0  0  0  0
 22 44  1  0  0  0  0
 23 24  1  0  0  0  0
 23 45  1  0  0  0  0
 23 48  1  0  0  0  0
 24 46  1  0  0  0  0
 24 47  1  0  0  0  0
M  CHG  1   4   1
M  CHG  1  23   1
M  END
> <s_m_source_file>
AV-unprocessed.smi

> <i_m_source_file_index>
67

> <i_lp_mmshare_version>
43012

> <i_f3d_flags>
0

> <s_epik_input>
W0NIMl0xW05IXVtDSDJdW0NIMl1bQ0BAXTEoW09IXSlbQ0gyXU4yW0NIMl1bQ0gyXVtDSF0oW0NIMl1bQ0gyXTIpT2MzW2NIXVtjSF1bY0hdYyhDKEYpKEYpRilbY0hdMw==

> <s_epik_cmdline>
J2VwaWtfcHl0aG9uJywgJy1waCcsICc3LjAnLCAnLXRuJywgJzgnLCAnLW1hJywgJzIwMCcsICctbWV0YWxfYmluZGluZycsICctaW1hZScsICc8aW5maWxlLm1hZT4nLCAnLW9tYWUnLCAnPG91dGZpbGUubWFlPic=

> <r_lp_tautomer_probability>
1

> <r_epik_Ionization_Penalty>
0.0989853

> <r_epik_Ionization_Penalty_Charging>
0.0989662

> <r_epik_Ionization_Penalty_Neutral>
1.91014e-05

> <r_epik_State_Penalty>
0.0852826

> <r_epik_Charging_Adjusted_Penalty>
0.184249

> <i_epik_Tot_Q>
2

> <i_epik_Tot_abs_Q>
2

> <r_epik_Metal_State_Penalty>
0.0849414

> <b_epik_Metal_Only>
0

> <s_lp_Force_Field>
OPLS_2005

> <r_lp_Energy>
57.962

> <b_lp_Chiralities_Consistent>
1

> <s_lp_Variant>
AV-unprocessed.smi:67-3

> <Gold.Version>
5.8.1

> <Gold.Id.Protein>
6NUR|6NUR_protein|mol2

> <Gold.PLP.Fitness>
64.4509

> <Gold.PLP.PLP>
-52.7239

> <Gold.PLP.part.hbond>
-4.3290

> <Gold.PLP.part.metal>
0.0000

> <Gold.PLP.part.buried>
-3.9577

> <Gold.PLP.part.nonpolar>
-45.7328

> <Gold.PLP.part.repulsive>
0.0654

> <Gold.PLP.ligand.clash>
0.3901

> <Gold.PLP.ligand.torsion>
1.2309

> <Gold.PLP.Chemscore.Hbond>
4.4090

> <Gold.PLP.Chemscore.CHOScore>
0.0000

> <Gold.PLP.Chemscore.Metal>
0.0000

> <Gold.Chemscore.Hbonds>
donor molecule, donor type, donor heavy atom, donor atom, acceptor molecule, acceptor atom, score
      L1  H     1    25       P1  7957  0.61
      L1  H    23    48       P1  7948  1.04
      P1  H  7989  7998       L1     1  0.11
      P1  H  7997  8008       L1     8  0.79
      P1  H  8011  8017       L1     1  0.68

> <Gold.PLP.Chemscore.Internal.Correction>
1.3518

> <Gold.Rescore>
     Score         DG    S(hbond)    S(metal)    S(lipo)     H(rot)  DE(clash)    DE(int)     intcor
     23.33     -24.63       2.91        0.00     129.55       2.24       0.29       1.01       ----

> <Gold.Chemscore.Fitness>
23.3316

> <Gold.Chemscore.DG>
-24.6350

> <Gold.Chemscore.ZeroCoef>
-5.4800

> <Gold.Chemscore.Hbond>
2.9100

> <Gold.Chemscore.Metal>
0.0000

> <Gold.Chemscore.Lipo>
129.5526

> <Gold.Chemscore.Internal_Hbond>
0.0000

> <Gold.Chemscore.DEClash>
0.2923

> <Gold.Chemscore.DEInternal>
1.0111

> <Gold.Chemscore.Rot>
2.2352

> <Gold.Chemscore.Internal.Correction>
   9.000000E+99

> <Gold.Chemscore.Hbonds>
donor molecule, donor type, donor heavy atom, donor atom, acceptor molecule, acceptor atom, score
      L1  H     1    25       P1  7957  0.59
      L1  H    23    48       P1  7948  0.51
      P1  H  7989  7998       L1     1  0.02
      P1  H  7997  8008       L1     8  0.66
      P1  H  8011  8017       L1     1  0.30

> <Gold.Chemscore.Hbond.Weighted>
-9.7194

> <Gold.Chemscore.Metal.Weighted>
-0.0000

> <Gold.Chemscore.Lipo.Weighted>
-15.1577

> <Gold.Chemscore.Internal_Hbond.Weighted>
0.0000

> <Gold.Chemscore.DEClash.Weighted>
0.2923

> <Gold.Chemscore.DEInternal.Weighted>
1.0111

> <Gold.Chemscore.Rot.Weighted>
5.7221

> <Gold.Chemscore.Internal.Correction.Weighted>
   9.000000E+99

> <Gold.Protein.RotatedTorsions>
[ 6907 6896 6895 6894 ] final  131.01 input  -60.11 | X-H torsion
[ 7974 7965 7964 7962 ] final  -75.38 input  175.53 | X-H torsion
[ 8008 7997 7996 7995 ] final  -74.05 input   59.86 | X-H torsion
[ 10167 10162 10161 10158 ] final  160.32 input  -65.29 | X-H torsion
[ 10718 10713 10712 10709 ] final  142.43 input   66.30 | X-H torsion
[ 10763 10752 10751 10750 ] final  134.98 input  -60.55 | X-H torsion
[ 11005 11000 10999 10996 ] final  159.08 input  -57.11 | X-H torsion

> <Gold.Protein.ActiveResidues>
 VAL166  LYS551  ARG553  GLY616  TRP617  ASP618  TYR619  PRO620  LYS621  CYS622 
 ASP623  PHE694  ASN695  SER759  ASP760  ASP761  ALA762  ILE779  LEU786  VAL792 
 PHE793  MET794  SER795  GLU796  ALA797  LYS798  CYS799  TRP800  GLU811  SER814 

> <Gold.Protein.RotatedAtoms>
  152.3469  133.6133  159.5916 H   0  0  0  0  0  0  0  0  0  0  0  0  # atno 6907 bound_to 6896
  150.7513  133.9635  159.3532 H   0  0  0  0  0  0  0  0  0  0  0  0  # atno 6908 bound_to 6896
  151.7491  135.0837  160.0379 H   0  0  0  0  0  0  0  0  0  0  0  0  # atno 6909 bound_to 6896
  145.6268  140.9348  143.1108 H   0  0  0  0  0  0  0  0  0  0  0  0  # atno 7974 bound_to 7965
  154.5298  140.0768  156.8324 H   0  0  0  0  0  0  0  0  0  0  0  0  # atno 8008 bound_to 7997
  155.3398  140.3406  155.4221 H   0  0  0  0  0  0  0  0  0  0  0  0  # atno 8009 bound_to 7997
  156.1769  140.1639  156.8332 H   0  0  0  0  0  0  0  0  0  0  0  0  # atno 8010 bound_to 7997
  139.4839  144.4645  151.8660 H   0  0  0  0  0  0  0  0  0  0  0  0  # atno 10167 bound_to 10162
  157.3806  131.0991  151.0742 H   0  0  0  0  0  0  0  0  0  0  0  0  # atno 10718 bound_to 10713
  153.8325  135.3102  155.3420 H   0  0  0  0  0  0  0  0  0  0  0  0  # atno 10763 bound_to 10752
  154.7967  135.4751  154.0181 H   0  0  0  0  0  0  0  0  0  0  0  0  # atno 10764 bound_to 10752
  153.1625  135.6863  153.8813 H   0  0  0  0  0  0  0  0  0  0  0  0  # atno 10765 bound_to 10752
  140.1927  134.8395  157.2930 H   0  0  0  0  0  0  0  0  0  0  0  0  # atno 11005 bound_to 11000
  144.7209  139.8033  143.7382 LP  0  0  0  0  0  0  0  0  0  0  0  0  # atno 17320 bound_to 7965
  146.1388  139.4440  143.0122 LP  0  0  0  0  0  0  0  0  0  0  0  0  # atno 17321 bound_to 7965
  140.4109  144.2370  150.5889 LP  0  0  0  0  0  0  0  0  0  0  0  0  # atno 17342 bound_to 10162
  140.4967  143.2330  151.8739 LP  0  0  0  0  0  0  0  0  0  0  0  0  # atno 17343 bound_to 10162
  157.1812  130.6310  149.5672 LP  0  0  0  0  0  0  0  0  0  0  0  0  # atno 17370 bound_to 10713
  155.9775  130.4753  150.6597 LP  0  0  0  0  0  0  0  0  0  0  0  0  # atno 17371 bound_to 10713
  140.2142  134.4102  155.7598 LP  0  0  0  0  0  0  0  0  0  0  0  0  # atno 17394 bound_to 11000
  141.2226  133.7133  156.8386 LP  0  0  0  0  0  0  0  0  0  0  0  0  # atno 17395 bound_to 11000

$$$$
