AV-unprocessed.smi:2744|AV-procd|sdf|10569|dock9
  -GOLD-   2272015 23D 1   1.00000     0.00000
 Structure written by MMmdl.
 40 41  0  0  0  0  0  0  0  0  1 V2000
  147.0576  137.8656  155.1275 C   0  0  0  0  0  0  0  0  0  0  0  0
  147.6081  139.2811  155.3680 C   0  0  0  0  0  0  0  0  0  0  0  0
  148.1746  140.0016  154.1167 C   0  0  2  0  0  0  0  0  0  0  0  0
  147.1183  140.1636  153.0073 C   0  0  0  0  0  0  0  0  0  0  0  0
  149.2172  139.2017  153.5914 O   0  0  0  0  0  0  0  0  0  0  0  0
  148.7632  141.3936  154.4651 C   0  0  0  0  0  0  0  0  0  0  0  0
  149.5986  141.4136  155.6564 N   0  0  0  0  0  0  0  0  0  0  0  0
  149.4266  142.2040  156.7714 C   0  0  0  0  0  0  0  0  0  0  0  0
  150.3124  142.0380  157.7157 N   0  0  0  0  0  0  0  0  0  0  0  0
  151.1662  141.0677  157.2071 C   0  0  0  0  0  0  0  0  0  0  0  0
  152.3307  140.4253  157.7019 C   0  0  0  0  0  0  0  0  0  0  0  0
  152.8264  140.7284  158.9225 N   0  0  0  0  0  0  0  0  0  0  0  0
  152.3958  141.9221  159.6453 C   0  0  0  0  0  0  0  0  0  0  0  0
  152.6623  143.1959  158.8261 C   0  0  0  0  0  0  0  0  0  0  0  0
  153.0973  141.9891  161.0081 C   0  0  0  0  0  0  0  0  0  0  0  0
  152.9303  139.5025  156.9043 N   0  0  0  0  0  0  0  0  0  0  0  0
  152.4201  139.2241  155.7005 C   0  0  0  0  0  0  0  0  0  0  0  0
  151.3403  139.7427  155.1107 N   0  0  0  0  0  0  0  0  0  0  0  0
  150.7368  140.6683  155.9105 C   0  0  0  0  0  0  0  0  0  0  0  0
  146.7452  137.4130  156.0689 H   0  0  0  0  0  0  0  0  0  0  0  0
  147.8101  137.2128  154.6844 H   0  0  0  0  0  0  0  0  0  0  0  0
  146.1876  137.8757  154.4715 H   0  0  0  0  0  0  0  0  0  0  0  0
  146.8158  139.8901  155.8047 H   0  0  0  0  0  0  0  0  0  0  0  0
  148.3829  139.2078  156.1316 H   0  0  0  0  0  0  0  0  0  0  0  0
  146.2509  140.7168  153.3687 H   0  0  0  0  0  0  0  0  0  0  0  0
  146.7665  139.2023  152.6325 H   0  0  0  0  0  0  0  0  0  0  0  0
  147.5220  140.7086  152.1532 H   0  0  0  0  0  0  0  0  0  0  0  0
  149.3913  139.4771  152.7043 H   0  0  0  0  0  0  0  0  0  0  0  0
  149.3535  141.7770  153.6315 H   0  0  0  0  0  0  0  0  0  0  0  0
  147.9534  142.1095  154.6129 H   0  0  0  0  0  0  0  0  0  0  0  0
  148.6116  142.9069  156.8656 H   0  0  0  0  0  0  0  0  0  0  0  0
  153.5649  140.1954  159.3590 H   0  0  0  0  0  0  0  0  0  0  0  0
  151.3248  141.8507  159.8389 H   0  0  0  0  0  0  0  0  0  0  0  0
  152.3278  144.0830  159.3644 H   0  0  0  0  0  0  0  0  0  0  0  0
  152.1354  143.1778  157.8719 H   0  0  0  0  0  0  0  0  0  0  0  0
  153.7256  143.3158  158.6156 H   0  0  0  0  0  0  0  0  0  0  0  0
  152.7664  142.8583  161.5773 H   0  0  0  0  0  0  0  0  0  0  0  0
  154.1801  142.0570  160.8957 H   0  0  0  0  0  0  0  0  0  0  0  0
  152.8789  141.1032  161.6054 H   0  0  0  0  0  0  0  0  0  0  0  0
  152.9534  138.4797  155.1281 H   0  0  0  0  0  0  0  0  0  0  0  0
  1  2  1  0  0  0  0
  1 20  1  0  0  0  0
  1 21  1  0  0  0  0
  1 22  1  0  0  0  0
  2  3  1  0  0  0  0
  2 23  1  0  0  0  0
  2 24  1  0  0  0  0
  3  4  1  0  0  0  0
  3  5  1  0  0  0  0
  3  6  1  0  0  0  0
  4 25  1  0  0  0  0
  4 26  1  0  0  0  0
  4 27  1  0  0  0  0
  5 28  1  0  0  0  0
  6  7  1  0  0  0  0
  6 29  1  0  0  0  0
  6 30  1  0  0  0  0
  7 19  1  0  0  0  0
  7  8  1  0  0  0  0
  8  9  2  0  0  0  0
  8 31  1  0  0  0  0
  9 10  1  0  0  0  0
 10 19  2  0  0  0  0
 10 11  1  0  0  0  0
 11 12  1  0  0  0  0
 11 16  2  0  0  0  0
 12 13  1  0  0  0  0
 12 32  1  0  0  0  0
 13 14  1  0  0  0  0
 13 15  1  0  0  0  0
 13 33  1  0  0  0  0
 14 34  1  0  0  0  0
 14 35  1  0  0  0  0
 14 36  1  0  0  0  0
 15 37  1  0  0  0  0
 15 38  1  0  0  0  0
 15 39  1  0  0  0  0
 16 17  1  0  0  0  0
 17 18  2  0  0  0  0
 17 40  1  0  0  0  0
 18 19  1  0  0  0  0
M  END
> <s_m_source_file>
AV-unprocessed.smi

> <i_m_source_file_index>
2744

> <i_lp_mmshare_version>
43012

> <i_f3d_flags>
0

> <s_epik_input>
W0NIM11bQ0gyXVtDQEBdKFtDSDNdKShbT0hdKVtDSDJdbihbY0hdbjEpYyhjMTIpbltjSF1uYzJbTkhdW0NIXShbQ0gzXSlbQ0gzXQ==

> <s_epik_cmdline>
J2VwaWtfcHl0aG9uJywgJy1waCcsICc3LjAnLCAnLXRuJywgJzgnLCAnLW1hJywgJzIwMCcsICctbWV0YWxfYmluZGluZycsICctaW1hZScsICc8aW5maWxlLm1hZT4nLCAnLW9tYWUnLCAnPG91dGZpbGUubWFlPic=

> <r_lp_tautomer_probability>
1

> <r_epik_Ionization_Penalty>
0.00217876

> <r_epik_Ionization_Penalty_Charging>
0

> <r_epik_Ionization_Penalty_Neutral>
0.00217876

> <r_epik_State_Penalty>
-0

> <r_epik_Charging_Adjusted_Penalty>
0

> <i_epik_Tot_Q>
0

> <i_epik_Tot_abs_Q>
0

> <r_epik_Metal_State_Penalty>
-0

> <b_epik_Metal_Only>
0

> <s_lp_Force_Field>
OPLS_2005

> <r_lp_Energy>
9.28896

> <b_lp_Chiralities_Consistent>
1

> <s_lp_Variant>
AV-unprocessed.smi:2744-2

> <Gold.Version>
5.8.1

> <Gold.Id.Protein>
6NUR|6NUR_protein|mol2

> <Gold.PLP.Fitness>
43.5921

> <Gold.PLP.PLP>
-32.8912

> <Gold.PLP.part.hbond>
-3.0000

> <Gold.PLP.part.metal>
0.0000

> <Gold.PLP.part.buried>
-0.0151

> <Gold.PLP.part.nonpolar>
-29.9409

> <Gold.PLP.part.repulsive>
0.2267

> <Gold.PLP.ligand.clash>
0.0000

> <Gold.PLP.ligand.torsion>
0.1918

> <Gold.PLP.Chemscore.Hbond>
3.0000

> <Gold.PLP.Chemscore.CHOScore>
0.6776

> <Gold.PLP.Chemscore.Metal>
0.0000

> <Gold.Chemscore.Hbonds>
donor molecule, donor type, donor heavy atom, donor atom, acceptor molecule, acceptor atom, score
      L1  H     5    28       P1  7957  1.00
      P1  H  7989  7998       L1    18  0.95
      P1  H  7997  8008       L1    16  1.00
      L1  C     8    31       P1  8028  0.68

> <Gold.PLP.Chemscore.Internal.Correction>
0.0518

> <Gold.Rescore>
     Score         DG    S(hbond)    S(metal)    S(lipo)     H(rot)  DE(clash)    DE(int)     intcor
     10.52     -13.66       2.16        0.00      60.39       2.38       0.06       3.08       ----

> <Gold.Chemscore.Fitness>
10.5189

> <Gold.Chemscore.DG>
-13.6553

> <Gold.Chemscore.ZeroCoef>
-5.4800

> <Gold.Chemscore.Hbond>
2.1566

> <Gold.Chemscore.Metal>
0.0000

> <Gold.Chemscore.Lipo>
60.3879

> <Gold.Chemscore.Internal_Hbond>
0.0000

> <Gold.Chemscore.DEClash>
0.0611

> <Gold.Chemscore.DEInternal>
3.0752

> <Gold.Chemscore.Rot>
2.3802

> <Gold.Chemscore.Internal.Correction>
   9.000000E+99

> <Gold.Chemscore.Hbonds>
donor molecule, donor type, donor heavy atom, donor atom, acceptor molecule, acceptor atom, score
      L1  H     5    28       P1  7957  1.00
      P1  H  7989  7998       L1    18  0.20
      P1  H  7997  8008       L1    16  0.22

> <Gold.Chemscore.Hbond.Weighted>
-7.2032

> <Gold.Chemscore.Metal.Weighted>
-0.0000

> <Gold.Chemscore.Lipo.Weighted>
-7.0654

> <Gold.Chemscore.Internal_Hbond.Weighted>
0.0000

> <Gold.Chemscore.DEClash.Weighted>
0.0611

> <Gold.Chemscore.DEInternal.Weighted>
3.0752

> <Gold.Chemscore.Rot.Weighted>
6.0933

> <Gold.Chemscore.Internal.Correction.Weighted>
   9.000000E+99

> <Gold.Protein.RotatedTorsions>
[ 6907 6896 6895 6894 ] final   81.29 input  -60.11 | X-H torsion
[ 7974 7965 7964 7962 ] final   45.86 input  175.53 | X-H torsion
[ 8008 7997 7996 7995 ] final  -57.25 input   59.86 | X-H torsion
[ 10167 10162 10161 10158 ] final  104.27 input  -65.29 | X-H torsion
[ 10718 10713 10712 10709 ] final -174.86 input   66.30 | X-H torsion
[ 10763 10752 10751 10750 ] final   -5.23 input  -60.55 | X-H torsion
[ 11005 11000 10999 10996 ] final   85.21 input  -57.11 | X-H torsion

> <Gold.Protein.ActiveResidues>
 VAL166  LYS551  ARG553  GLY616  TRP617  ASP618  TYR619  PRO620  LYS621  CYS622 
 ASP623  PHE694  ASN695  SER759  ASP760  ASP761  ALA762  ILE779  LEU786  VAL792 
 PHE793  MET794  SER795  GLU796  ALA797  LYS798  CYS799  TRP800  GLU811  SER814 

> <Gold.Protein.RotatedAtoms>
  152.5263  134.3227  159.9153 H   0  0  0  0  0  0  0  0  0  0  0  0  # atno 6907 bound_to 6896
  151.3176  133.4047  159.2659 H   0  0  0  0  0  0  0  0  0  0  0  0  # atno 6908 bound_to 6896
  150.9986  134.9321  159.7998 H   0  0  0  0  0  0  0  0  0  0  0  0  # atno 6909 bound_to 6896
  146.0442  139.4918  142.9759 H   0  0  0  0  0  0  0  0  0  0  0  0  # atno 7974 bound_to 7965
  154.4261  140.1111  156.5768 H   0  0  0  0  0  0  0  0  0  0  0  0  # atno 8008 bound_to 7997
  155.6154  140.3494  155.4616 H   0  0  0  0  0  0  0  0  0  0  0  0  # atno 8009 bound_to 7997
  156.0066  140.1210  157.0484 H   0  0  0  0  0  0  0  0  0  0  0  0  # atno 8010 bound_to 7997
  139.7191  144.7062  151.0901 H   0  0  0  0  0  0  0  0  0  0  0  0  # atno 10167 bound_to 10162
  156.7914  130.9519  151.3120 H   0  0  0  0  0  0  0  0  0  0  0  0  # atno 10718 bound_to 10713
  153.3957  135.7003  153.6462 H   0  0  0  0  0  0  0  0  0  0  0  0  # atno 10763 bound_to 10752
  153.5016  135.3651  155.2543 H   0  0  0  0  0  0  0  0  0  0  0  0  # atno 10764 bound_to 10752
  154.8706  135.4113  154.3283 H   0  0  0  0  0  0  0  0  0  0  0  0  # atno 10765 bound_to 10752
  139.8978  134.8271  156.2551 H   0  0  0  0  0  0  0  0  0  0  0  0  # atno 11005 bound_to 11000
  145.6833  141.0185  143.1594 LP  0  0  0  0  0  0  0  0  0  0  0  0  # atno 17320 bound_to 7965
  144.7089  139.8447  143.7421 LP  0  0  0  0  0  0  0  0  0  0  0  0  # atno 17321 bound_to 7965
  140.7750  143.5190  150.9560 LP  0  0  0  0  0  0  0  0  0  0  0  0  # atno 17342 bound_to 10162
  139.8876  143.6993  152.3149 LP  0  0  0  0  0  0  0  0  0  0  0  0  # atno 17343 bound_to 10162
  157.6599  130.8956  149.9807 LP  0  0  0  0  0  0  0  0  0  0  0  0  # atno 17370 bound_to 10713
  156.1157  130.3648  149.9973 LP  0  0  0  0  0  0  0  0  0  0  0  0  # atno 17371 bound_to 10713
  141.0199  133.7047  156.1250 LP  0  0  0  0  0  0  0  0  0  0  0  0  # atno 17394 bound_to 11000
  140.7249  134.4318  157.5571 LP  0  0  0  0  0  0  0  0  0  0  0  0  # atno 17395 bound_to 11000

$$$$
