AV-unprocessed.smi:1440|AV-procd|sdf|5874|dock5
  -GOLD-   22720 5553D 1   1.00000     0.00000
 Structure written by MMmdl.
 41 42  0  0  0  0  0  0  0  0  1 V2000
  152.4223  143.1819  161.6653 C   0  0  0  0  0  0  0  0  0  0  0  0
  152.4978  143.1397  160.1325 C   0  0  2  0  0  0  0  0  0  0  0  0
  151.7991  144.3588  159.5002 C   0  0  0  0  0  0  0  0  0  0  0  0
  151.8651  144.3192  157.9624 C   0  0  0  0  0  0  0  0  0  0  0  0
  151.2984  143.0074  157.3858 C   0  0  2  0  0  0  0  0  0  0  0  0
  149.8464  142.9678  157.5534 N   0  0  0  0  0  0  0  0  0  0  0  0
  149.0273  142.0354  157.0443 C   0  0  0  0  0  0  0  0  0  0  0  0
  149.4244  141.0862  156.3666 O   0  0  0  0  0  0  0  0  0  0  0  0
  147.5389  142.2080  157.3728 C   0  0  0  0  0  0  0  0  0  0  0  0
  146.7123  142.4788  156.1991 N   0  0  0  0  0  0  0  0  0  0  0  0
  145.7164  143.3776  156.1407 C   0  0  0  0  0  0  0  0  0  0  0  0
  145.3817  144.0830  157.0920 O   0  0  0  0  0  0  0  0  0  0  0  0
  144.9867  143.5005  154.8026 C   0  0  0  0  0  0  0  0  0  0  0  0
  144.5182  144.8572  154.5860 N   0  0  0  0  0  0  0  0  0  0  0  0
  144.7260  145.6947  153.5681 C   0  0  0  0  0  0  0  0  0  0  0  0
  144.1407  146.8749  153.7179 N   0  0  0  0  0  0  0  0  0  0  0  0
  143.5470  146.6827  154.9335 C   0  0  0  0  0  0  0  0  0  0  0  0
  143.7418  145.4905  155.4974 N   0  0  0  0  0  0  0  0  0  0  0  0
  151.9790  141.7854  158.0391 C   0  0  0  0  0  0  0  0  0  0  0  0
  151.9061  141.8309  159.5755 C   0  0  0  0  0  0  0  0  0  0  0  0
  151.3892  143.1540  162.0129 H   0  0  0  0  0  0  0  0  0  0  0  0
  152.8809  144.0908  162.0557 H   0  0  0  0  0  0  0  0  0  0  0  0
  152.9456  142.3335  162.1074 H   0  0  0  0  0  0  0  0  0  0  0  0
  153.5522  143.1756  159.8548 H   0  0  0  0  0  0  0  0  0  0  0  0
  150.7576  144.3955  159.8221 H   0  0  0  0  0  0  0  0  0  0  0  0
  152.2616  145.2789  159.8589 H   0  0  0  0  0  0  0  0  0  0  0  0
  151.3360  145.1759  157.5433 H   0  0  0  0  0  0  0  0  0  0  0  0
  152.9049  144.4255  157.6505 H   0  0  0  0  0  0  0  0  0  0  0  0
  151.5119  142.9936  156.3154 H   0  0  0  0  0  0  0  0  0  0  0  0
  149.4344  143.7090  158.1017 H   0  0  0  0  0  0  0  0  0  0  0  0
  147.1777  141.2904  157.8378 H   0  0  0  0  0  0  0  0  0  0  0  0
  147.4168  143.0021  158.1116 H   0  0  0  0  0  0  0  0  0  0  0  0
  146.9183  141.9474  155.3653 H   0  0  0  0  0  0  0  0  0  0  0  0
  145.6550  143.2268  153.9851 H   0  0  0  0  0  0  0  0  0  0  0  0
  144.1414  142.8111  154.7723 H   0  0  0  0  0  0  0  0  0  0  0  0
  145.3204  145.4369  152.7036 H   0  0  0  0  0  0  0  0  0  0  0  0
  142.9539  147.4445  155.4177 H   0  0  0  0  0  0  0  0  0  0  0  0
  151.5382  140.8579  157.6720 H   0  0  0  0  0  0  0  0  0  0  0  0
  153.0260  141.7585  157.7353 H   0  0  0  0  0  0  0  0  0  0  0  0
  152.4413  140.9755  159.9887 H   0  0  0  0  0  0  0  0  0  0  0  0
  150.8689  141.7271  159.8967 H   0  0  0  0  0  0  0  0  0  0  0  0
  1  2  1  0  0  0  0
  1 21  1  0  0  0  0
  1 22  1  0  0  0  0
  1 23  1  0  0  0  0
  2 20  1  0  0  0  0
  2  3  1  0  0  0  0
  2 24  1  0  0  0  0
  3  4  1  0  0  0  0
  3 25  1  0  0  0  0
  3 26  1  0  0  0  0
  4  5  1  0  0  0  0
  4 27  1  0  0  0  0
  4 28  1  0  0  0  0
  5  6  1  0  0  0  0
  5 19  1  0  0  0  0
  5 29  1  0  0  0  0
  6  7  1  0  0  0  0
  6 30  1  0  0  0  0
  7  8  2  0  0  0  0
  7  9  1  0  0  0  0
  9 10  1  0  0  0  0
  9 31  1  0  0  0  0
  9 32  1  0  0  0  0
 10 11  1  0  0  0  0
 10 33  1  0  0  0  0
 11 12  2  0  0  0  0
 11 13  1  0  0  0  0
 13 14  1  0  0  0  0
 13 34  1  0  0  0  0
 13 35  1  0  0  0  0
 14 18  1  0  0  0  0
 14 15  1  0  0  0  0
 15 16  2  0  0  0  0
 15 36  1  0  0  0  0
 16 17  1  0  0  0  0
 17 18  2  0  0  0  0
 17 37  1  0  0  0  0
 19 20  1  0  0  0  0
 19 38  1  0  0  0  0
 19 39  1  0  0  0  0
 20 40  1  0  0  0  0
 20 41  1  0  0  0  0
M  END
> <s_m_source_file>
AV-unprocessed.smi

> <i_m_source_file_index>
1440

> <i_lp_mmshare_version>
43012

> <i_f3d_flags>
0

> <s_epik_input>
W0NIM11bQ0BASF0xW0NIMl1bQ0gyXVtDQEhdKFtDSDJdW0NIMl0xKVtOSF1DKD1PKVtDSDJdW05IXUMoPU8pW0NIMl1uMltjSF1uW2NIXW4y

> <s_epik_cmdline>
J2VwaWtfcHl0aG9uJywgJy1waCcsICc3LjAnLCAnLXRuJywgJzgnLCAnLW1hJywgJzIwMCcsICctbWV0YWxfYmluZGluZycsICctaW1hZScsICc8aW5maWxlLm1hZT4nLCAnLW9tYWUnLCAnPG91dGZpbGUubWFlPic=

> <r_lp_tautomer_probability>
1

> <r_epik_Ionization_Penalty>
7.34071e-06

> <r_epik_Ionization_Penalty_Charging>
0

> <r_epik_Ionization_Penalty_Neutral>
7.34071e-06

> <r_epik_State_Penalty>
-0

> <r_epik_Charging_Adjusted_Penalty>
0

> <i_epik_Tot_Q>
0

> <i_epik_Tot_abs_Q>
0

> <r_epik_Metal_State_Penalty>
-0

> <b_epik_Metal_Only>
0

> <s_lp_Force_Field>
OPLS_2005

> <r_lp_Energy>
6.43363

> <b_lp_Chiralities_Consistent>
1

> <s_lp_Variant>
AV-unprocessed.smi:1440-2

> <Gold.Version>
5.8.1

> <Gold.Id.Protein>
6NUR|6NUR_protein|mol2

> <Gold.PLP.Fitness>
42.0605

> <Gold.PLP.PLP>
-43.2121

> <Gold.PLP.part.hbond>
-3.0603

> <Gold.PLP.part.metal>
0.0000

> <Gold.PLP.part.buried>
-5.3049

> <Gold.PLP.part.nonpolar>
-34.5428

> <Gold.PLP.part.repulsive>
0.3942

> <Gold.PLP.ligand.clash>
0.0000

> <Gold.PLP.ligand.torsion>
0.5863

> <Gold.PLP.Chemscore.Hbond>
0.0000

> <Gold.PLP.Chemscore.CHOScore>
0.0000

> <Gold.PLP.Chemscore.Metal>
0.0000

> <Gold.PLP.Chemscore.Internal.Correction>
0.0210

> <Gold.Rescore>
     Score         DG    S(hbond)    S(metal)    S(lipo)     H(rot)  DE(clash)    DE(int)     intcor
      6.22      -8.27       0.00        0.00      86.46       2.86       0.19       1.86       ----

> <Gold.Chemscore.Fitness>
6.2225

> <Gold.Chemscore.DG>
-8.2690

> <Gold.Chemscore.ZeroCoef>
-5.4800

> <Gold.Chemscore.Hbond>
0.0000

> <Gold.Chemscore.Metal>
0.0000

> <Gold.Chemscore.Lipo>
86.4608

> <Gold.Chemscore.Internal_Hbond>
0.0000

> <Gold.Chemscore.DEClash>
0.1889

> <Gold.Chemscore.DEInternal>
1.8575

> <Gold.Chemscore.Rot>
2.8621

> <Gold.Chemscore.Internal.Correction>
   9.000000E+99

> <Gold.Chemscore.Hbond.Weighted>
-0.0000

> <Gold.Chemscore.Metal.Weighted>
-0.0000

> <Gold.Chemscore.Lipo.Weighted>
-10.1159

> <Gold.Chemscore.Internal_Hbond.Weighted>
0.0000

> <Gold.Chemscore.DEClash.Weighted>
0.1889

> <Gold.Chemscore.DEInternal.Weighted>
1.8575

> <Gold.Chemscore.Rot.Weighted>
7.3270

> <Gold.Chemscore.Internal.Correction.Weighted>
   9.000000E+99

> <Gold.Protein.RotatedTorsions>
[ 6907 6896 6895 6894 ] final -167.93 input  -60.11 | X-H torsion
[ 7974 7965 7964 7962 ] final  -18.17 input  175.53 | X-H torsion
[ 8008 7997 7996 7995 ] final   19.81 input   59.86 | X-H torsion
[ 10167 10162 10161 10158 ] final  -60.30 input  -65.29 | X-H torsion
[ 10718 10713 10712 10709 ] final -120.66 input   66.30 | X-H torsion
[ 10763 10752 10751 10750 ] final   86.39 input  -60.55 | X-H torsion
[ 11005 11000 10999 10996 ] final  179.69 input  -57.11 | X-H torsion

> <Gold.Protein.ActiveResidues>
 VAL166  LYS551  ARG553  GLY616  TRP617  ASP618  TYR619  PRO620  LYS621  CYS622 
 ASP623  PHE694  ASN695  SER759  ASP760  ASP761  ALA762  ILE779  LEU786  VAL792 
 PHE793  MET794  SER795  GLU796  ALA797  LYS798  CYS799  TRP800  GLU811  SER814 

> <Gold.Protein.RotatedAtoms>
  151.4675  133.3577  159.2818 H   0  0  0  0  0  0  0  0  0  0  0  0  # atno 6907 bound_to 6896
  150.8984  134.8396  159.7353 H   0  0  0  0  0  0  0  0  0  0  0  0  # atno 6908 bound_to 6896
  152.4865  134.4592  159.9651 H   0  0  0  0  0  0  0  0  0  0  0  0  # atno 6909 bound_to 6896
  146.1905  140.3884  142.8460 H   0  0  0  0  0  0  0  0  0  0  0  0  # atno 7974 bound_to 7965
  154.9263  140.3034  155.5190 H   0  0  0  0  0  0  0  0  0  0  0  0  # atno 8008 bound_to 7997
  156.3006  140.2362  156.4255 H   0  0  0  0  0  0  0  0  0  0  0  0  # atno 8009 bound_to 7997
  154.8281  140.0420  157.1446 H   0  0  0  0  0  0  0  0  0  0  0  0  # atno 8010 bound_to 7997
  140.6080  143.2379  151.5777 H   0  0  0  0  0  0  0  0  0  0  0  0  # atno 10167 bound_to 10162
  156.1275  130.6370  150.9567 H   0  0  0  0  0  0  0  0  0  0  0  0  # atno 10718 bound_to 10713
  153.1566  135.4582  154.9713 H   0  0  0  0  0  0  0  0  0  0  0  0  # atno 10763 bound_to 10752
  154.7866  135.3206  154.7875 H   0  0  0  0  0  0  0  0  0  0  0  0  # atno 10764 bound_to 10752
  153.8371  135.6933  153.4862 H   0  0  0  0  0  0  0  0  0  0  0  0  # atno 10765 bound_to 10752
  140.4090  134.6709  157.4603 H   0  0  0  0  0  0  0  0  0  0  0  0  # atno 11005 bound_to 11000
  144.8478  140.6955  143.6188 LP  0  0  0  0  0  0  0  0  0  0  0  0  # atno 17320 bound_to 7965
  145.3807  139.1637  143.4282 LP  0  0  0  0  0  0  0  0  0  0  0  0  # atno 17321 bound_to 7965
  139.5339  144.2836  152.1209 LP  0  0  0  0  0  0  0  0  0  0  0  0  # atno 17342 bound_to 10162
  140.2030  144.4639  150.6422 LP  0  0  0  0  0  0  0  0  0  0  0  0  # atno 17343 bound_to 10162
  157.6456  131.0904  150.8160 LP  0  0  0  0  0  0  0  0  0  0  0  0  # atno 17370 bound_to 10713
  156.8249  130.4996  149.5338 LP  0  0  0  0  0  0  0  0  0  0  0  0  # atno 17371 bound_to 10713
  140.0281  134.6446  155.9144 LP  0  0  0  0  0  0  0  0  0  0  0  0  # atno 17394 bound_to 11000
  141.1828  133.6550  156.5093 LP  0  0  0  0  0  0  0  0  0  0  0  0  # atno 17395 bound_to 11000

$$$$
