AV-unprocessed.smi:2492|AV-procd|sdf|9815|dock6
  -GOLD-   2272013443D 1   1.00000     0.00000
 Structure written by MMmdl.
 32 33  0  0  0  0  0  0  0  0  2 V2000
  151.4027  145.2039  158.6301 C   0  0  0  0  0  0  0  0  0  0  0  0
  151.5362  144.8694  160.4063 S   0  0  0  0  0  0  0  0  0  0  0  0
  152.1907  143.1761  160.3615 C   0  0  2  0  0  0  0  0  0  0  0  0
  152.4684  142.6166  161.7541 C   0  0  0  0  0  0  0  0  0  0  0  0
  153.4306  141.4529  161.5076 C   0  0  0  0  0  0  0  0  0  0  0  0
  154.2279  141.8185  160.2405 C   0  0  1  0  0  0  0  0  0  0  0  0
  154.2283  140.7082  159.2900 N   0  0  0  0  0  0  0  0  0  0  0  0
  153.1661  139.9646  158.9471 C   0  0  0  0  0  0  0  0  0  0  0  0
  152.0659  140.1934  159.4550 O   0  0  0  0  0  0  0  0  0  0  0  0
  153.4458  139.0017  158.0397 N   0  5  0  0  0  0  0  0  0  0  0  0
  152.6002  137.9718  157.8720 C   0  0  0  0  0  0  0  0  0  0  0  0
  152.5113  137.1990  156.7885 N   0  0  0  0  0  0  0  0  0  0  0  0
  151.5306  136.3277  157.1465 C   0  0  0  0  0  0  0  0  0  0  0  0
  151.0490  135.2368  156.2527 C   0  0  0  0  0  0  0  0  0  0  0  0
  151.0217  136.4968  158.3578 N   0  0  0  0  0  0  0  0  0  0  0  0
  151.7378  137.5961  158.8523 O   0  0  0  0  0  0  0  0  0  0  0  0
  153.5432  143.0688  159.6527 C   0  0  0  0  0  0  0  0  0  0  0  0
  150.9852  146.1973  158.4662 H   0  0  0  0  0  0  0  0  0  0  0  0
  150.7511  144.4720  158.1526 H   0  0  0  0  0  0  0  0  0  0  0  0
  152.3831  145.1605  158.1557 H   0  0  0  0  0  0  0  0  0  0  0  0
  151.4681  142.5297  159.8609 H   0  0  0  0  0  0  0  0  0  0  0  0
  152.9612  143.3715  162.3689 H   0  0  0  0  0  0  0  0  0  0  0  0
  151.5603  142.3062  162.2713 H   0  0  0  0  0  0  0  0  0  0  0  0
  154.0801  141.2743  162.3651 H   0  0  0  0  0  0  0  0  0  0  0  0
  152.8513  140.5417  161.3489 H   0  0  0  0  0  0  0  0  0  0  0  0
  155.2562  142.0604  160.5152 H   0  0  0  0  0  0  0  0  0  0  0  0
  155.1088  140.4862  158.8491 H   0  0  0  0  0  0  0  0  0  0  0  0
  151.4536  134.2785  156.5787 H   0  0  0  0  0  0  0  0  0  0  0  0
  151.3656  135.4145  155.2245 H   0  0  0  0  0  0  0  0  0  0  0  0
  149.9604  135.1806  156.2720 H   0  0  0  0  0  0  0  0  0  0  0  0
  153.4355  143.0333  158.5679 H   0  0  0  0  0  0  0  0  0  0  0  0
  154.1503  143.9452  159.8839 H   0  0  0  0  0  0  0  0  0  0  0  0
  1  2  1  0  0  0  0
  1 18  1  0  0  0  0
  1 19  1  0  0  0  0
  1 20  1  0  0  0  0
  2  3  1  0  0  0  0
  3 17  1  0  0  0  0
  3  4  1  0  0  0  0
  3 21  1  0  0  0  0
  4  5  1  0  0  0  0
  4 22  1  0  0  0  0
  4 23  1  0  0  0  0
  5  6  1  0  0  0  0
  5 24  1  0  0  0  0
  5 25  1  0  0  0  0
  6  7  1  0  0  0  0
  6 17  1  0  0  0  0
  6 26  1  0  0  0  0
  7  8  1  0  0  0  0
  7 27  1  0  0  0  0
  8  9  2  0  0  0  0
  8 10  1  0  0  0  0
 10 11  1  0  0  0  0
 11 16  1  0  0  0  0
 11 12  2  0  0  0  0
 12 13  1  0  0  0  0
 13 14  1  0  0  0  0
 13 15  2  0  0  0  0
 14 28  1  0  0  0  0
 14 29  1  0  0  0  0
 14 30  1  0  0  0  0
 15 16  1  0  0  0  0
 17 31  1  0  0  0  0
 17 32  1  0  0  0  0
M  CHG  1  10  -1
M  END
> <s_m_source_file>
AV-unprocessed.smi

> <i_m_source_file_index>
2492

> <i_lp_mmshare_version>
43012

> <i_f3d_flags>
0

> <s_epik_input>
W0NIM11TW0NAQEhdMVtDSDJdW0NIMl1bQ0BIXShbQ0gyXTEpW05IXUMoPU8pW05IXWMybmMoW0NIM10pbm8y

> <s_epik_cmdline>
J2VwaWtfcHl0aG9uJywgJy1waCcsICc3LjAnLCAnLXRuJywgJzgnLCAnLW1hJywgJzIwMCcsICctbWV0YWxfYmluZGluZycsICctaW1hZScsICc8aW5maWxlLm1hZT4nLCAnLW9tYWUnLCAnPG91dGZpbGUubWFlPic=

> <r_lp_tautomer_probability>
1

> <r_epik_Ionization_Penalty>
6.26454

> <r_epik_Ionization_Penalty_Charging>
6.26445

> <r_epik_Ionization_Penalty_Neutral>
9.05726e-05

> <r_epik_State_Penalty>
6.26444

> <r_epik_Charging_Adjusted_Penalty>
12.5289

> <i_epik_Tot_Q>
-1

> <i_epik_Tot_abs_Q>
1

> <r_epik_Metal_State_Penalty>
2.20125

> <b_epik_Metal_Only>
1

> <s_lp_Force_Field>
OPLS_2005

> <r_lp_Energy>
10.5247

> <b_lp_Chiralities_Consistent>
1

> <s_lp_Variant>
AV-unprocessed.smi:2492-5

> <Gold.Version>
5.8.1

> <Gold.Id.Protein>
6NUR|6NUR_protein|mol2

> <Gold.PLP.Fitness>
36.3998

> <Gold.PLP.PLP>
-30.6723

> <Gold.PLP.part.hbond>
-2.0000

> <Gold.PLP.part.metal>
0.0000

> <Gold.PLP.part.buried>
-3.5999

> <Gold.PLP.part.nonpolar>
-25.5439

> <Gold.PLP.part.repulsive>
0.8546

> <Gold.PLP.ligand.clash>
0.0000

> <Gold.PLP.ligand.torsion>
0.3582

> <Gold.PLP.Chemscore.Hbond>
2.1454

> <Gold.PLP.Chemscore.CHOScore>
0.0000

> <Gold.PLP.Chemscore.Metal>
0.0000

> <Gold.Chemscore.Hbonds>
donor molecule, donor type, donor heavy atom, donor atom, acceptor molecule, acceptor atom, score
      P1  H  6896  6909       L1    15  0.71
      P1  H  7997  8008       L1    10  1.40

> <Gold.PLP.Chemscore.Internal.Correction>
0.0075

> <Gold.Rescore>
     Score         DG    S(hbond)    S(metal)    S(lipo)     H(rot)  DE(clash)    DE(int)     intcor
     11.90     -15.49       0.99        0.00      85.02       1.27       0.21       3.38       ----

> <Gold.Chemscore.Fitness>
11.9012

> <Gold.Chemscore.DG>
-15.4945

> <Gold.Chemscore.ZeroCoef>
-5.4800

> <Gold.Chemscore.Hbond>
0.9946

> <Gold.Chemscore.Metal>
0.0000

> <Gold.Chemscore.Lipo>
85.0157

> <Gold.Chemscore.Internal_Hbond>
0.0000

> <Gold.Chemscore.DEClash>
0.2124

> <Gold.Chemscore.DEInternal>
3.3809

> <Gold.Chemscore.Rot>
1.2712

> <Gold.Chemscore.Internal.Correction>
   9.000000E+99

> <Gold.Chemscore.Hbonds>
donor molecule, donor type, donor heavy atom, donor atom, acceptor molecule, acceptor atom, score
      P1  H  6896  6909       L1    15  0.43
      P1  H  7997  8008       L1    10  0.07

> <Gold.Chemscore.Hbond.Weighted>
-3.3218

> <Gold.Chemscore.Metal.Weighted>
-0.0000

> <Gold.Chemscore.Lipo.Weighted>
-9.9468

> <Gold.Chemscore.Internal_Hbond.Weighted>
0.0000

> <Gold.Chemscore.DEClash.Weighted>
0.2124

> <Gold.Chemscore.DEInternal.Weighted>
3.3809

> <Gold.Chemscore.Rot.Weighted>
3.2542

> <Gold.Chemscore.Internal.Correction.Weighted>
   9.000000E+99

> <Gold.Protein.RotatedTorsions>
[ 6907 6896 6895 6894 ] final   86.98 input  -60.11 | X-H torsion
[ 7974 7965 7964 7962 ] final  -84.47 input  175.53 | X-H torsion
[ 8008 7997 7996 7995 ] final -104.88 input   59.86 | X-H torsion
[ 10167 10162 10161 10158 ] final   97.30 input  -65.29 | X-H torsion
[ 10718 10713 10712 10709 ] final -117.61 input   66.30 | X-H torsion
[ 10763 10752 10751 10750 ] final  175.42 input  -60.55 | X-H torsion
[ 11005 11000 10999 10996 ] final -150.65 input  -57.11 | X-H torsion

> <Gold.Protein.ActiveResidues>
 VAL166  LYS551  ARG553  GLY616  TRP617  ASP618  TYR619  PRO620  LYS621  CYS622 
 ASP623  PHE694  ASN695  SER759  ASP760  ASP761  ALA762  ILE779  LEU786  VAL792 
 PHE793  MET794  SER795  GLU796  ALA797  LYS798  CYS799  TRP800  GLU811  SER814 

> <Gold.Protein.RotatedAtoms>
  152.5404  134.2347  159.8838 H   0  0  0  0  0  0  0  0  0  0  0  0  # atno 6907 bound_to 6896
  151.2317  133.4440  159.2611 H   0  0  0  0  0  0  0  0  0  0  0  0  # atno 6908 bound_to 6896
  151.0709  134.9811  159.8364 H   0  0  0  0  0  0  0  0  0  0  0  0  # atno 6909 bound_to 6896
  145.5062  140.9543  143.1732 H   0  0  0  0  0  0  0  0  0  0  0  0  # atno 7974 bound_to 7965
  154.8917  140.0415  157.1842 H   0  0  0  0  0  0  0  0  0  0  0  0  # atno 8008 bound_to 7997
  154.8534  140.2933  155.5563 H   0  0  0  0  0  0  0  0  0  0  0  0  # atno 8009 bound_to 7997
  156.2996  140.2460  156.3496 H   0  0  0  0  0  0  0  0  0  0  0  0  # atno 8010 bound_to 7997
  139.7814  144.6887  151.0017 H   0  0  0  0  0  0  0  0  0  0  0  0  # atno 10167 bound_to 10162
  156.1046  130.6200  150.9186 H   0  0  0  0  0  0  0  0  0  0  0  0  # atno 10718 bound_to 10713
  154.4674  135.2770  155.1668 H   0  0  0  0  0  0  0  0  0  0  0  0  # atno 10763 bound_to 10752
  154.3431  135.6166  153.5609 H   0  0  0  0  0  0  0  0  0  0  0  0  # atno 10764 bound_to 10752
  152.9860  135.5793  154.5048 H   0  0  0  0  0  0  0  0  0  0  0  0  # atno 10765 bound_to 10752
  140.7380  134.3547  157.5153 H   0  0  0  0  0  0  0  0  0  0  0  0  # atno 11005 bound_to 11000
  144.7752  139.6645  143.7177 LP  0  0  0  0  0  0  0  0  0  0  0  0  # atno 17320 bound_to 7965
  146.2195  139.5610  142.9628 LP  0  0  0  0  0  0  0  0  0  0  0  0  # atno 17321 bound_to 7965
  140.7818  143.4479  151.0456 LP  0  0  0  0  0  0  0  0  0  0  0  0  # atno 17342 bound_to 10162
  139.8159  143.7886  152.3174 LP  0  0  0  0  0  0  0  0  0  0  0  0  # atno 17343 bound_to 10162
  157.6221  131.0929  150.8602 LP  0  0  0  0  0  0  0  0  0  0  0  0  # atno 17370 bound_to 10713
  156.8723  130.5150  149.5296 LP  0  0  0  0  0  0  0  0  0  0  0  0  # atno 17371 bound_to 10713
  139.8812  134.9062  156.2917 LP  0  0  0  0  0  0  0  0  0  0  0  0  # atno 17394 bound_to 11000
  140.9862  133.7236  156.0746 LP  0  0  0  0  0  0  0  0  0  0  0  0  # atno 17395 bound_to 11000

$$$$
