AV-unprocessed.smi:7|AV-procd|sdf|43|dock8
  -GOLD-   2262015163D 1   1.00000     0.00000
 Structure written by MMmdl.
 45 48  0  0  0  0  0  0  0  0  1 V2000
  155.0284  137.6144  160.5153 O   0  0  0  0  0  0  0  0  0  0  0  0
  154.7745  138.7134  161.0096 C   0  0  0  0  0  0  0  0  0  0  0  0
  154.1125  139.7947  160.2427 C   0  0  0  0  0  0  0  0  0  0  0  0
  153.6798  139.8329  158.9175 N   0  0  0  0  0  0  0  0  0  0  0  0
  153.1703  141.0594  158.8080 C   0  0  0  0  0  0  0  0  0  0  0  0
  153.2479  141.7834  159.9402 N   0  0  0  0  0  0  0  0  0  0  0  0
  152.7347  143.0996  159.9915 C   0  0  0  0  0  0  0  0  0  0  0  0
  152.3875  143.6913  161.2269 C   0  0  0  0  0  0  0  0  0  0  0  0
  151.8715  145.0016  161.2631 C   0  0  0  0  0  0  0  0  0  0  0  0
  151.7002  145.7256  160.0673 C   0  0  0  0  0  0  0  0  0  0  0  0
  152.0432  145.1387  158.8341 C   0  0  0  0  0  0  0  0  0  0  0  0
  152.5580  143.8282  158.7957 C   0  0  0  0  0  0  0  0  0  0  0  0
  153.8584  140.9741  160.8875 C   0  0  0  0  0  0  0  0  0  0  0  0
  154.1420  141.3199  162.1888 N   0  0  0  0  0  0  0  0  0  0  0  0
  154.7317  140.3488  162.8366 C   0  0  0  0  0  0  0  0  0  0  0  0
  155.0637  139.0693  162.2974 N   0  0  0  0  0  0  0  0  0  0  0  0
  155.7309  138.1272  163.2096 C   0  0  0  0  0  0  0  0  0  0  0  0
  154.7217  137.1836  163.9120 C   0  0  2  0  0  0  0  0  0  0  0  0
  154.6604  137.5663  165.2743 O   0  0  0  0  0  0  0  0  0  0  0  0
  155.1092  135.6809  163.8267 C   0  0  0  0  0  0  0  0  0  0  0  0
  156.3582  135.5183  164.4766 O   0  0  0  0  0  0  0  0  0  0  0  0
  154.1117  134.7150  164.4936 C   0  0  0  0  0  0  0  0  0  0  0  0
  154.3362  133.3789  163.7882 C   0  0  0  0  0  0  0  0  0  0  0  0
  154.6140  133.7657  162.3356 C   0  0  0  0  0  0  0  0  0  0  0  0
  155.2901  135.1449  162.3845 C   0  0  0  0  0  0  0  0  0  0  0  0
  152.7293  141.4238  157.8913 H   0  0  0  0  0  0  0  0  0  0  0  0
  152.5085  143.1425  162.1495 H   0  0  0  0  0  0  0  0  0  0  0  0
  151.6055  145.4505  162.2088 H   0  0  0  0  0  0  0  0  0  0  0  0
  151.3045  146.7303  160.0961 H   0  0  0  0  0  0  0  0  0  0  0  0
  151.9120  145.6934  157.9166 H   0  0  0  0  0  0  0  0  0  0  0  0
  152.8209  143.3861  157.8458 H   0  0  0  0  0  0  0  0  0  0  0  0
  155.0148  140.4680  163.8837 H   0  0  0  0  0  0  0  0  0  0  0  0
  156.4463  137.5457  162.6261 H   0  0  0  0  0  0  0  0  0  0  0  0
  156.3523  138.6437  163.9442 H   0  0  0  0  0  0  0  0  0  0  0  0
  153.7263  137.3084  163.4826 H   0  0  0  0  0  0  0  0  0  0  0  0
  153.7679  137.4749  165.5710 H   0  0  0  0  0  0  0  0  0  0  0  0
  156.2507  134.8995  165.1825 H   0  0  0  0  0  0  0  0  0  0  0  0
  154.2383  134.6453  165.5749 H   0  0  0  0  0  0  0  0  0  0  0  0
  153.0863  135.0378  164.3103 H   0  0  0  0  0  0  0  0  0  0  0  0
  155.2088  132.8793  164.2111 H   0  0  0  0  0  0  0  0  0  0  0  0
  153.4858  132.7035  163.8868 H   0  0  0  0  0  0  0  0  0  0  0  0
  155.2226  133.0220  161.8202 H   0  0  0  0  0  0  0  0  0  0  0  0
  153.6696  133.8455  161.7957 H   0  0  0  0  0  0  0  0  0  0  0  0
  154.8327  135.7970  161.6400 H   0  0  0  0  0  0  0  0  0  0  0  0
  156.3438  135.0703  162.1102 H   0  0  0  0  0  0  0  0  0  0  0  0
  1  2  2  0  0  0  0
  2 16  1  0  0  0  0
  2  3  1  0  0  0  0
  3 13  2  0  0  0  0
  3  4  1  0  0  0  0
  4  5  2  0  0  0  0
  5  6  1  0  0  0  0
  5 26  1  0  0  0  0
  6  7  1  0  0  0  0
  6 13  1  0  0  0  0
  7 12  1  0  0  0  0
  7  8  2  0  0  0  0
  8  9  1  0  0  0  0
  8 27  1  0  0  0  0
  9 10  2  0  0  0  0
  9 28  1  0  0  0  0
 10 11  1  0  0  0  0
 10 29  1  0  0  0  0
 11 12  2  0  0  0  0
 11 30  1  0  0  0  0
 12 31  1  0  0  0  0
 13 14  1  0  0  0  0
 14 15  2  0  0  0  0
 15 16  1  0  0  0  0
 15 32  1  0  0  0  0
 16 17  1  0  0  0  0
 17 18  1  0  0  0  0
 17 33  1  0  0  0  0
 17 34  1  0  0  0  0
 18 19  1  0  0  0  0
 18 20  1  0  0  0  0
 18 35  1  0  0  0  0
 19 36  1  0  0  0  0
 20 25  1  0  0  0  0
 20 21  1  0  0  0  0
 20 22  1  0  0  0  0
 21 37  1  0  0  0  0
 22 23  1  0  0  0  0
 22 38  1  0  0  0  0
 22 39  1  0  0  0  0
 23 24  1  0  0  0  0
 23 40  1  0  0  0  0
 23 41  1  0  0  0  0
 24 25  1  0  0  0  0
 24 42  1  0  0  0  0
 24 43  1  0  0  0  0
 25 44  1  0  0  0  0
 25 45  1  0  0  0  0
M  END
> <s_m_source_file>
AV-unprocessed.smi

> <i_m_source_file_index>
7

> <i_lp_mmshare_version>
43012

> <i_f3d_flags>
0

> <s_epik_input>
W0NIMl0xW0NIMl1bQ0gyXVtDSDJdQzEoW09IXSlbQ0BASF0oW09IXSlbQ0gyXW4oYzI9TylbY0hdbmMoYzIzKW4oW2NIXW4zKS1jNFtjSF1bY0hdW2NIXVtjSF1bY0hdNA==

> <s_epik_cmdline>
J2VwaWtfcHl0aG9uJywgJy1waCcsICc3LjAnLCAnLXRuJywgJzgnLCAnLW1hJywgJzIwMCcsICctbWV0YWxfYmluZGluZycsICctaW1hZScsICc8aW5maWxlLm1hZT4nLCAnLW9tYWUnLCAnPG91dGZpbGUubWFlPic=

> <r_lp_tautomer_probability>
1

> <r_epik_Ionization_Penalty>
0.000116694

> <r_epik_Ionization_Penalty_Charging>
6.60428e-09

> <r_epik_Ionization_Penalty_Neutral>
0.000116688

> <r_epik_State_Penalty>
-0

> <r_epik_Charging_Adjusted_Penalty>
6.60428e-09

> <i_epik_Tot_Q>
0

> <i_epik_Tot_abs_Q>
0

> <r_epik_Metal_State_Penalty>
-0

> <b_epik_Metal_Only>
0

> <s_lp_Force_Field>
OPLS_2005

> <r_lp_Energy>
55.7438

> <b_lp_Chiralities_Consistent>
1

> <s_lp_Variant>
AV-unprocessed.smi:7-1

> <Gold.Version>
5.8.1

> <Gold.Id.Protein>
6NUR|6NUR_protein|mol2

> <Gold.PLP.Fitness>
51.2509

> <Gold.PLP.PLP>
-51.7045

> <Gold.PLP.part.hbond>
-2.3656

> <Gold.PLP.part.metal>
0.0000

> <Gold.PLP.part.buried>
-2.7020

> <Gold.PLP.part.nonpolar>
-46.4331

> <Gold.PLP.part.repulsive>
0.0000

> <Gold.PLP.ligand.clash>
0.0000

> <Gold.PLP.ligand.torsion>
1.2567

> <Gold.PLP.Chemscore.Hbond>
0.6825

> <Gold.PLP.Chemscore.CHOScore>
0.0000

> <Gold.PLP.Chemscore.Metal>
0.0000

> <Gold.Chemscore.Hbonds>
donor molecule, donor type, donor heavy atom, donor atom, acceptor molecule, acceptor atom, score
      P1  H  7997  8009       L1     4  0.57

> <Gold.PLP.Chemscore.Internal.Correction>
0.0123

> <Gold.Rescore>
     Score         DG    S(hbond)    S(metal)    S(lipo)     H(rot)  DE(clash)    DE(int)     intcor
     12.09     -13.68       0.01        0.00     130.90       2.79       0.31       1.28       ----

> <Gold.Chemscore.Fitness>
12.0899

> <Gold.Chemscore.DG>
-13.6809

> <Gold.Chemscore.ZeroCoef>
-5.4800

> <Gold.Chemscore.Hbond>
0.0054

> <Gold.Chemscore.Metal>
0.0000

> <Gold.Chemscore.Lipo>
130.8973

> <Gold.Chemscore.Internal_Hbond>
0.0000

> <Gold.Chemscore.DEClash>
0.3080

> <Gold.Chemscore.DEInternal>
1.2830

> <Gold.Chemscore.Rot>
2.7860

> <Gold.Chemscore.Internal.Correction>
   9.000000E+99

> <Gold.Chemscore.Hbonds>
donor molecule, donor type, donor heavy atom, donor atom, acceptor molecule, acceptor atom, score
      P1  H  7997  8009       L1     4  0.04

> <Gold.Chemscore.Hbond.Weighted>
-0.0180

> <Gold.Chemscore.Metal.Weighted>
-0.0000

> <Gold.Chemscore.Lipo.Weighted>
-15.3150

> <Gold.Chemscore.Internal_Hbond.Weighted>
0.0000

> <Gold.Chemscore.DEClash.Weighted>
0.3080

> <Gold.Chemscore.DEInternal.Weighted>
1.2830

> <Gold.Chemscore.Rot.Weighted>
7.1322

> <Gold.Chemscore.Internal.Correction.Weighted>
   9.000000E+99

> <Gold.Protein.RotatedTorsions>
[ 6907 6896 6895 6894 ] final  -21.83 input  -60.11 | X-H torsion
[ 7974 7965 7964 7962 ] final   13.51 input  175.53 | X-H torsion
[ 8008 7997 7996 7995 ] final  143.88 input   59.86 | X-H torsion
[ 10167 10162 10161 10158 ] final  165.60 input  -65.29 | X-H torsion
[ 10718 10713 10712 10709 ] final   59.64 input   66.30 | X-H torsion
[ 10763 10752 10751 10750 ] final   80.82 input  -60.55 | X-H torsion
[ 11005 11000 10999 10996 ] final  152.65 input  -57.11 | X-H torsion

> <Gold.Protein.ActiveResidues>
 VAL166  LYS551  ARG553  GLY616  TRP617  ASP618  TYR619  PRO620  LYS621  CYS622 
 ASP623  PHE694  ASN695  SER759  ASP760  ASP761  ALA762  ILE779  LEU786  VAL792 
 PHE793  MET794  SER795  GLU796  ALA797  LYS798  CYS799  TRP800  GLU811  SER814 

> <Gold.Protein.RotatedAtoms>
  151.2275  135.0542  159.8974 H   0  0  0  0  0  0  0  0  0  0  0  0  # atno 6907 bound_to 6896
  152.5408  134.0573  159.8146 H   0  0  0  0  0  0  0  0  0  0  0  0  # atno 6908 bound_to 6896
  151.0748  133.5389  159.2656 H   0  0  0  0  0  0  0  0  0  0  0  0  # atno 6909 bound_to 6896
  146.2327  139.9178  142.8514 H   0  0  0  0  0  0  0  0  0  0  0  0  # atno 7974 bound_to 7965
  156.2921  140.2250  156.4962 H   0  0  0  0  0  0  0  0  0  0  0  0  # atno 8008 bound_to 7997
  154.7728  140.0465  157.1087 H   0  0  0  0  0  0  0  0  0  0  0  0  # atno 8009 bound_to 7997
  154.9853  140.3083  155.4932 H   0  0  0  0  0  0  0  0  0  0  0  0  # atno 8010 bound_to 7997
  139.4909  144.4115  151.9293 H   0  0  0  0  0  0  0  0  0  0  0  0  # atno 10167 bound_to 10162
  157.5691  130.8893  149.9237 H   0  0  0  0  0  0  0  0  0  0  0  0  # atno 10718 bound_to 10713
  153.1065  135.4788  154.8960 H   0  0  0  0  0  0  0  0  0  0  0  0  # atno 10763 bound_to 10752
  154.7435  135.3088  154.8688 H   0  0  0  0  0  0  0  0  0  0  0  0  # atno 10764 bound_to 10752
  153.9289  135.6847  153.4799 H   0  0  0  0  0  0  0  0  0  0  0  0  # atno 10765 bound_to 10752
  140.1327  134.8791  157.2225 H   0  0  0  0  0  0  0  0  0  0  0  0  # atno 11005 bound_to 11000
  145.2167  140.9918  143.4069 LP  0  0  0  0  0  0  0  0  0  0  0  0  # atno 17320 bound_to 7965
  144.9645  139.3944  143.6339 LP  0  0  0  0  0  0  0  0  0  0  0  0  # atno 17321 bound_to 7965
  140.3557  144.3035  150.5941 LP  0  0  0  0  0  0  0  0  0  0  0  0  # atno 17342 bound_to 10162
  140.5447  143.2217  151.8027 LP  0  0  0  0  0  0  0  0  0  0  0  0  # atno 17343 bound_to 10162
  156.0737  130.3681  150.0722 LP  0  0  0  0  0  0  0  0  0  0  0  0  # atno 17370 bound_to 10713
  156.8877  130.9578  151.3592 LP  0  0  0  0  0  0  0  0  0  0  0  0  # atno 17371 bound_to 10713
  140.2822  134.3336  155.7339 LP  0  0  0  0  0  0  0  0  0  0  0  0  # atno 17394 bound_to 11000
  141.2173  133.7485  156.9381 LP  0  0  0  0  0  0  0  0  0  0  0  0  # atno 17395 bound_to 11000

$$$$
