AV-unprocessed.smi:1699|AV-procd|sdf|6815|dock5
  -GOLD-   22720 7593D 1   1.00000     0.00000
 Structure written by MMmdl.
 37 38  0  0  0  0  0  0  0  0  1 V2000
  150.9904  145.1263  158.2509 C   0  0  0  0  0  0  0  0  0  0  0  0
  151.7371  143.8474  158.5941 C   0  0  0  0  0  0  0  0  0  0  0  0
  152.8453  143.9083  159.4656 C   0  0  0  0  0  0  0  0  0  0  0  0
  153.5337  142.7251  159.7832 C   0  0  0  0  0  0  0  0  0  0  0  0
  153.0824  141.5234  159.2110 C   0  0  0  0  0  0  0  0  0  0  0  0
  152.0253  141.4562  158.3766 N   0  0  0  0  0  0  0  0  0  0  0  0
  151.3488  142.5891  158.0603 C   0  0  0  0  0  0  0  0  0  0  0  0
  150.2220  142.5937  157.1903 N   0  0  0  0  0  0  0  0  0  0  0  0
  149.6503  141.5567  156.5532 C   0  0  0  0  0  0  0  0  0  0  0  0
  150.0401  140.3898  156.5979 O   0  0  0  0  0  0  0  0  0  0  0  0
  148.5809  141.9566  155.8494 N   0  0  0  0  0  0  0  0  0  0  0  0
  147.7102  141.0969  155.0493 C   0  0  2  0  0  0  0  0  0  0  0  0
  148.4314  140.7191  153.7468 C   0  0  0  0  0  0  0  0  0  0  0  0
  146.3704  141.8107  154.7840 C   0  0  2  0  0  0  0  0  0  0  0  0
  146.4520  142.9645  153.7809 C   0  0  0  0  0  0  0  0  0  0  0  0
  145.2713  143.8131  154.1908 C   0  0  0  0  0  0  0  0  0  0  0  0
  145.3171  143.6894  155.7099 C   0  0  0  0  0  0  0  0  0  0  0  0
  145.8704  142.4042  155.9813 O   0  0  0  0  0  0  0  0  0  0  0  0
  151.4156  145.9862  158.7695 H   0  0  0  0  0  0  0  0  0  0  0  0
  149.9421  145.0468  158.5397 H   0  0  0  0  0  0  0  0  0  0  0  0
  151.0423  145.3213  157.1793 H   0  0  0  0  0  0  0  0  0  0  0  0
  153.1666  144.8491  159.8879 H   0  0  0  0  0  0  0  0  0  0  0  0
  154.3849  142.7381  160.4479 H   0  0  0  0  0  0  0  0  0  0  0  0
  153.5823  140.5912  159.4285 H   0  0  0  0  0  0  0  0  0  0  0  0
  149.7934  143.4957  157.0463 H   0  0  0  0  0  0  0  0  0  0  0  0
  148.3419  142.9369  155.8735 H   0  0  0  0  0  0  0  0  0  0  0  0
  147.4929  140.1756  155.5927 H   0  0  0  0  0  0  0  0  0  0  0  0
  147.8166  140.0601  153.1333 H   0  0  0  0  0  0  0  0  0  0  0  0
  149.3656  140.1958  153.9528 H   0  0  0  0  0  0  0  0  0  0  0  0
  148.6670  141.6023  153.1519 H   0  0  0  0  0  0  0  0  0  0  0  0
  145.6244  141.0940  154.4362 H   0  0  0  0  0  0  0  0  0  0  0  0
  147.3779  143.5262  153.9140 H   0  0  0  0  0  0  0  0  0  0  0  0
  146.3995  142.6328  152.7436 H   0  0  0  0  0  0  0  0  0  0  0  0
  145.3407  144.8446  153.8441 H   0  0  0  0  0  0  0  0  0  0  0  0
  144.3472  143.3814  153.8040 H   0  0  0  0  0  0  0  0  0  0  0  0
  145.9784  144.4459  156.1338 H   0  0  0  0  0  0  0  0  0  0  0  0
  144.3336  143.8055  156.1658 H   0  0  0  0  0  0  0  0  0  0  0  0
  1  2  1  0  0  0  0
  1 19  1  0  0  0  0
  1 20  1  0  0  0  0
  1 21  1  0  0  0  0
  2  7  1  0  0  0  0
  2  3  2  0  0  0  0
  3  4  1  0  0  0  0
  3 22  1  0  0  0  0
  4  5  2  0  0  0  0
  4 23  1  0  0  0  0
  5  6  1  0  0  0  0
  5 24  1  0  0  0  0
  6  7  2  0  0  0  0
  7  8  1  0  0  0  0
  8  9  1  0  0  0  0
  8 25  1  0  0  0  0
  9 10  2  0  0  0  0
  9 11  1  0  0  0  0
 11 12  1  0  0  0  0
 11 26  1  0  0  0  0
 12 13  1  0  0  0  0
 12 14  1  0  0  0  0
 12 27  1  0  0  0  0
 13 28  1  0  0  0  0
 13 29  1  0  0  0  0
 13 30  1  0  0  0  0
 14 18  1  0  0  0  0
 14 15  1  0  0  0  0
 14 31  1  0  0  0  0
 15 16  1  0  0  0  0
 15 32  1  0  0  0  0
 15 33  1  0  0  0  0
 16 17  1  0  0  0  0
 16 34  1  0  0  0  0
 16 35  1  0  0  0  0
 17 18  1  0  0  0  0
 17 36  1  0  0  0  0
 17 37  1  0  0  0  0
M  END
> <s_m_source_file>
AV-unprocessed.smi

> <i_m_source_file_index>
1699

> <i_lp_mmshare_version>
43012

> <i_f3d_flags>
0

> <s_epik_input>
W0NIM11jMVtjSF1bY0hdW2NIXW5jMVtOSF1DKD1PKVtOSF1bQ0BIXShbQ0gzXSlbQ0BASF0yW0NIMl1bQ0gyXVtDSDJdTzI=

> <s_epik_cmdline>
J2VwaWtfcHl0aG9uJywgJy1waCcsICc3LjAnLCAnLXRuJywgJzgnLCAnLW1hJywgJzIwMCcsICctbWV0YWxfYmluZGluZycsICctaW1hZScsICc8aW5maWxlLm1hZT4nLCAnLW9tYWUnLCAnPG91dGZpbGUubWFlPic=

> <r_lp_tautomer_probability>
1

> <r_epik_Ionization_Penalty>
5.52788e-05

> <r_epik_Ionization_Penalty_Charging>
0

> <r_epik_Ionization_Penalty_Neutral>
5.52788e-05

> <r_epik_State_Penalty>
-0

> <r_epik_Charging_Adjusted_Penalty>
0

> <i_epik_Tot_Q>
0

> <i_epik_Tot_abs_Q>
0

> <r_epik_Metal_State_Penalty>
-0

> <b_epik_Metal_Only>
0

> <s_lp_Force_Field>
OPLS_2005

> <r_lp_Energy>
20.4349

> <b_lp_Chiralities_Consistent>
1

> <s_lp_Variant>
AV-unprocessed.smi:1699-1

> <Gold.Version>
5.8.1

> <Gold.Id.Protein>
6NUR|6NUR_protein|mol2

> <Gold.PLP.Fitness>
40.2510

> <Gold.PLP.PLP>
-35.5406

> <Gold.PLP.part.hbond>
-2.0000

> <Gold.PLP.part.metal>
0.0000

> <Gold.PLP.part.buried>
-3.9377

> <Gold.PLP.part.nonpolar>
-29.0961

> <Gold.PLP.part.repulsive>
0.2400

> <Gold.PLP.ligand.clash>
0.0000

> <Gold.PLP.ligand.torsion>
0.3814

> <Gold.PLP.Chemscore.Hbond>
1.8205

> <Gold.PLP.Chemscore.CHOScore>
0.0000

> <Gold.PLP.Chemscore.Metal>
0.0000

> <Gold.Chemscore.Hbonds>
donor molecule, donor type, donor heavy atom, donor atom, acceptor molecule, acceptor atom, score
      L1  H     8    25       P1  8028  0.86
      L1  H    11    26       P1  8028  0.99

> <Gold.PLP.Chemscore.Internal.Correction>
0.0118

> <Gold.Rescore>
     Score         DG    S(hbond)    S(metal)    S(lipo)     H(rot)  DE(clash)    DE(int)     intcor
     15.68     -18.74       1.63        0.00      93.48       1.22       1.48       1.58       ----

> <Gold.Chemscore.Fitness>
15.6760

> <Gold.Chemscore.DG>
-18.7366

> <Gold.Chemscore.ZeroCoef>
-5.4800

> <Gold.Chemscore.Hbond>
1.6294

> <Gold.Chemscore.Metal>
0.0000

> <Gold.Chemscore.Lipo>
93.4845

> <Gold.Chemscore.Internal_Hbond>
0.0000

> <Gold.Chemscore.DEClash>
1.4797

> <Gold.Chemscore.DEInternal>
1.5809

> <Gold.Chemscore.Rot>
1.2200

> <Gold.Chemscore.Internal.Correction>
   9.000000E+99

> <Gold.Chemscore.Hbonds>
donor molecule, donor type, donor heavy atom, donor atom, acceptor molecule, acceptor atom, score
      L1  H     8    25       P1  8028  0.79
      L1  H    11    26       P1  8028  0.88

> <Gold.Chemscore.Hbond.Weighted>
-5.4420

> <Gold.Chemscore.Metal.Weighted>
-0.0000

> <Gold.Chemscore.Lipo.Weighted>
-10.9377

> <Gold.Chemscore.Internal_Hbond.Weighted>
0.0000

> <Gold.Chemscore.DEClash.Weighted>
1.4797

> <Gold.Chemscore.DEInternal.Weighted>
1.5809

> <Gold.Chemscore.Rot.Weighted>
3.1232

> <Gold.Chemscore.Internal.Correction.Weighted>
   9.000000E+99

> <Gold.Protein.RotatedTorsions>
[ 6907 6896 6895 6894 ] final  -68.65 input  -60.11 | X-H torsion
[ 7974 7965 7964 7962 ] final -169.77 input  175.53 | X-H torsion
[ 8008 7997 7996 7995 ] final  100.39 input   59.86 | X-H torsion
[ 10167 10162 10161 10158 ] final  123.50 input  -65.29 | X-H torsion
[ 10718 10713 10712 10709 ] final   51.78 input   66.30 | X-H torsion
[ 10763 10752 10751 10750 ] final   30.53 input  -60.55 | X-H torsion
[ 11005 11000 10999 10996 ] final   31.71 input  -57.11 | X-H torsion

> <Gold.Protein.ActiveResidues>
 VAL166  LYS551  ARG553  GLY616  TRP617  ASP618  TYR619  PRO620  LYS621  CYS622 
 ASP623  PHE694  ASN695  SER759  ASP760  ASP761  ALA762  ILE779  LEU786  VAL792 
 PHE793  MET794  SER795  GLU796  ALA797  LYS798  CYS799  TRP800  GLU811  SER814 

> <Gold.Protein.RotatedAtoms>
  150.7345  134.5708  159.5889 H   0  0  0  0  0  0  0  0  0  0  0  0  # atno 6907 bound_to 6896
  152.3148  134.7451  160.0337 H   0  0  0  0  0  0  0  0  0  0  0  0  # atno 6908 bound_to 6896
  151.7986  133.3332  159.3557 H   0  0  0  0  0  0  0  0  0  0  0  0  # atno 6909 bound_to 6896
  144.7180  140.2172  143.6320 H   0  0  0  0  0  0  0  0  0  0  0  0  # atno 7974 bound_to 7965
  156.1198  140.3214  155.8192 H   0  0  0  0  0  0  0  0  0  0  0  0  # atno 8008 bound_to 7997
  155.4524  140.0533  157.3017 H   0  0  0  0  0  0  0  0  0  0  0  0  # atno 8009 bound_to 7997
  154.4819  140.2056  155.9757 H   0  0  0  0  0  0  0  0  0  0  0  0  # atno 8010 bound_to 7997
  139.5796  144.6980  151.3563 H   0  0  0  0  0  0  0  0  0  0  0  0  # atno 10167 bound_to 10162
  157.5013  130.8440  149.8320 H   0  0  0  0  0  0  0  0  0  0  0  0  # atno 10718 bound_to 10713
  153.0366  135.6462  154.1059 H   0  0  0  0  0  0  0  0  0  0  0  0  # atno 10763 bound_to 10752
  154.0772  135.2876  155.3298 H   0  0  0  0  0  0  0  0  0  0  0  0  # atno 10764 bound_to 10752
  154.6554  135.5411  153.8017 H   0  0  0  0  0  0  0  0  0  0  0  0  # atno 10765 bound_to 10752
  140.2811  134.2972  155.7800 H   0  0  0  0  0  0  0  0  0  0  0  0  # atno 11005 bound_to 11000
  145.8535  139.2187  143.1758 LP  0  0  0  0  0  0  0  0  0  0  0  0  # atno 17320 bound_to 7965
  146.0239  140.8322  142.9910 LP  0  0  0  0  0  0  0  0  0  0  0  0  # atno 17321 bound_to 7965
  140.7075  143.7475  150.7508 LP  0  0  0  0  0  0  0  0  0  0  0  0  # atno 17342 bound_to 10162
  140.1004  143.4793  152.2428 LP  0  0  0  0  0  0  0  0  0  0  0  0  # atno 17343 bound_to 10162
  156.0231  130.3788  150.1903 LP  0  0  0  0  0  0  0  0  0  0  0  0  # atno 17370 bound_to 10713
  157.0093  130.9946  151.3370 LP  0  0  0  0  0  0  0  0  0  0  0  0  # atno 17371 bound_to 10713
  141.2162  133.7526  156.9481 LP  0  0  0  0  0  0  0  0  0  0  0  0  # atno 17394 bound_to 11000
  140.1283  134.9372  157.2301 LP  0  0  0  0  0  0  0  0  0  0  0  0  # atno 17395 bound_to 11000

$$$$
