AV-unprocessed.smi:1400|AV-procd|sdf|5687|dock2
  -GOLD-   22720 5313D 1   1.00000     0.00000
 Structure written by MMmdl.
 33 34  0  0  0  0  0  0  0  0  2 V2000
  152.8960  138.8080  154.3812 C   0  0  0  0  0  0  0  0  0  0  0  0
  151.4824  138.9289  154.9552 C   0  0  0  0  0  0  0  0  0  0  0  0
  150.9107  140.0151  154.8584 O   0  0  0  0  0  0  0  0  0  0  0  0
  150.9104  137.8493  155.5410 N   0  0  0  0  0  0  0  0  0  0  0  0
  149.5301  137.8549  156.0400 C   0  0  0  0  0  0  0  0  0  0  0  0
  148.6691  136.9569  155.1332 C   0  0  0  0  0  0  0  0  0  0  0  0
  149.2460  135.5276  155.0477 C   0  0  0  0  0  0  0  0  0  0  0  0
  148.5070  134.7583  154.0498 N   0  0  0  0  0  0  0  0  0  0  0  0
  147.9376  133.5590  154.2401 C   0  0  0  0  0  0  0  0  0  0  0  0
  148.0204  133.0055  155.3390 O   0  0  0  0  0  0  0  0  0  0  0  0
  147.3071  133.0756  153.1452 N   0  5  0  0  0  0  0  0  0  0  0  0
  146.4235  133.8423  152.4853 C   0  0  0  0  0  0  0  0  0  0  0  0
  145.9916  133.5591  151.2509 N   0  0  0  0  0  0  0  0  0  0  0  0
  145.0802  134.4926  150.7536 C   0  0  0  0  0  0  0  0  0  0  0  0
  144.8184  135.5153  151.6263 C   0  0  0  0  0  0  0  0  0  0  0  0
  145.7157  135.3364  153.1071 S   0  0  0  0  0  0  0  0  0  0  0  0
  150.7553  135.5510  154.7138 C   0  0  0  0  0  0  0  0  0  0  0  0
  151.5165  136.5152  155.6407 C   0  0  0  0  0  0  0  0  0  0  0  0
  152.9408  138.0244  153.6243 H   0  0  0  0  0  0  0  0  0  0  0  0
  153.6149  138.5831  155.1693 H   0  0  0  0  0  0  0  0  0  0  0  0
  153.2003  139.7432  153.9097 H   0  0  0  0  0  0  0  0  0  0  0  0
  149.5140  137.4792  157.0641 H   0  0  0  0  0  0  0  0  0  0  0  0
  149.0998  138.8562  156.0845 H   0  0  0  0  0  0  0  0  0  0  0  0
  147.6445  136.9251  155.5053 H   0  0  0  0  0  0  0  0  0  0  0  0
  148.6223  137.3974  154.1359 H   0  0  0  0  0  0  0  0  0  0  0  0
  149.1153  135.0619  156.0264 H   0  0  0  0  0  0  0  0  0  0  0  0
  148.4151  135.1714  153.1336 H   0  0  0  0  0  0  0  0  0  0  0  0
  144.6675  134.3504  149.7659 H   0  0  0  0  0  0  0  0  0  0  0  0
  144.1584  136.3585  151.4896 H   0  0  0  0  0  0  0  0  0  0  0  0
  151.1756  134.5482  154.7982 H   0  0  0  0  0  0  0  0  0  0  0  0
  150.9004  135.8599  153.6774 H   0  0  0  0  0  0  0  0  0  0  0  0
  152.5786  136.4975  155.4012 H   0  0  0  0  0  0  0  0  0  0  0  0
  151.4472  136.1684  156.6727 H   0  0  0  0  0  0  0  0  0  0  0  0
  1  2  1  0  0  0  0
  1 19  1  0  0  0  0
  1 20  1  0  0  0  0
  1 21  1  0  0  0  0
  2  3  2  0  0  0  0
  2  4  1  0  0  0  0
  4 18  1  0  0  0  0
  4  5  1  0  0  0  0
  5  6  1  0  0  0  0
  5 22  1  0  0  0  0
  5 23  1  0  0  0  0
  6  7  1  0  0  0  0
  6 24  1  0  0  0  0
  6 25  1  0  0  0  0
  7  8  1  0  0  0  0
  7 17  1  0  0  0  0
  7 26  1  0  0  0  0
  8  9  1  0  0  0  0
  8 27  1  0  0  0  0
  9 10  2  0  0  0  0
  9 11  1  0  0  0  0
 11 12  1  0  0  0  0
 12 16  1  0  0  0  0
 12 13  2  0  0  0  0
 13 14  1  0  0  0  0
 14 15  2  0  0  0  0
 14 28  1  0  0  0  0
 15 16  1  0  0  0  0
 15 29  1  0  0  0  0
 17 18  1  0  0  0  0
 17 30  1  0  0  0  0
 17 31  1  0  0  0  0
 18 32  1  0  0  0  0
 18 33  1  0  0  0  0
M  CHG  1  11  -1
M  END
> <s_m_source_file>
AV-unprocessed.smi

> <i_m_source_file_index>
1400

> <i_lp_mmshare_version>
43012

> <i_f3d_flags>
0

> <s_epik_input>
W0NIM11DKD1PKU4xW0NIMl1bQ0gyXVtDSF0oW0NIMl1bQ0gyXTEpW05IXUMoPU8pW05IXWMybltjSF1bY0hdczI=

> <s_epik_cmdline>
J2VwaWtfcHl0aG9uJywgJy1waCcsICc3LjAnLCAnLXRuJywgJzgnLCAnLW1hJywgJzIwMCcsICctbWV0YWxfYmluZGluZycsICctaW1hZScsICc8aW5maWxlLm1hZT4nLCAnLW9tYWUnLCAnPG91dGZpbGUubWFlPic=

> <r_lp_tautomer_probability>
1

> <r_epik_Ionization_Penalty>
6.84544

> <r_epik_Ionization_Penalty_Charging>
5.78648

> <r_epik_Ionization_Penalty_Neutral>
1.05897

> <r_epik_State_Penalty>
5.78644

> <r_epik_Charging_Adjusted_Penalty>
11.5729

> <i_epik_Tot_Q>
-1

> <i_epik_Tot_abs_Q>
1

> <r_epik_Metal_State_Penalty>
1.75808

> <b_epik_Metal_Only>
1

> <s_lp_Force_Field>
OPLS_2005

> <r_lp_Energy>
18.2538

> <b_lp_Chiralities_Consistent>
1

> <s_lp_Variant>
AV-unprocessed.smi:1400-2

> <Gold.Version>
5.8.1

> <Gold.Id.Protein>
6NUR|6NUR_protein|mol2

> <Gold.PLP.Fitness>
34.2718

> <Gold.PLP.PLP>
-23.5669

> <Gold.PLP.part.hbond>
-2.0000

> <Gold.PLP.part.metal>
0.0000

> <Gold.PLP.part.buried>
-3.1483

> <Gold.PLP.part.nonpolar>
-19.0908

> <Gold.PLP.part.repulsive>
0.3554

> <Gold.PLP.ligand.clash>
0.0000

> <Gold.PLP.ligand.torsion>
0.5858

> <Gold.PLP.Chemscore.Hbond>
2.0000

> <Gold.PLP.Chemscore.CHOScore>
1.9508

> <Gold.PLP.Chemscore.Metal>
0.0000

> <Gold.Chemscore.Hbonds>
donor molecule, donor type, donor heavy atom, donor atom, acceptor molecule, acceptor atom, score
      L1  H     8    27       P1  7948  1.00
      P1  H  7989  7998       L1     3  1.00
      L1  C    14    28       P1  7921  0.61
      L1  C    15    29       P1 10171  0.33

> <Gold.PLP.Chemscore.Internal.Correction>
0.0243

> <Gold.Rescore>
     Score         DG    S(hbond)    S(metal)    S(lipo)     H(rot)  DE(clash)    DE(int)     intcor
     13.62     -14.36       1.95        0.00      42.10       1.00       0.01       0.72       ----

> <Gold.Chemscore.Fitness>
13.6199

> <Gold.Chemscore.DG>
-14.3581

> <Gold.Chemscore.ZeroCoef>
-5.4800

> <Gold.Chemscore.Hbond>
1.9498

> <Gold.Chemscore.Metal>
0.0000

> <Gold.Chemscore.Lipo>
42.1002

> <Gold.Chemscore.Internal_Hbond>
0.0000

> <Gold.Chemscore.DEClash>
0.0149

> <Gold.Chemscore.DEInternal>
0.7233

> <Gold.Chemscore.Rot>
1.0000

> <Gold.Chemscore.Internal.Correction>
   9.000000E+99

> <Gold.Chemscore.Hbonds>
donor molecule, donor type, donor heavy atom, donor atom, acceptor molecule, acceptor atom, score
      L1  H     8    27       P1  7948  0.87
      P1  H  7989  7998       L1     3  0.60

> <Gold.Chemscore.Hbond.Weighted>
-6.5124

> <Gold.Chemscore.Metal.Weighted>
-0.0000

> <Gold.Chemscore.Lipo.Weighted>
-4.9257

> <Gold.Chemscore.Internal_Hbond.Weighted>
0.0000

> <Gold.Chemscore.DEClash.Weighted>
0.0149

> <Gold.Chemscore.DEInternal.Weighted>
0.7233

> <Gold.Chemscore.Rot.Weighted>
2.5600

> <Gold.Chemscore.Internal.Correction.Weighted>
   9.000000E+99

> <Gold.Protein.RotatedTorsions>
[ 6907 6896 6895 6894 ] final   48.74 input  -60.11 | X-H torsion
[ 7974 7965 7964 7962 ] final  -10.72 input  175.53 | X-H torsion
[ 8008 7997 7996 7995 ] final   -1.66 input   59.86 | X-H torsion
[ 10167 10162 10161 10158 ] final   34.60 input  -65.29 | X-H torsion
[ 10718 10713 10712 10709 ] final  165.93 input   66.30 | X-H torsion
[ 10763 10752 10751 10750 ] final   46.83 input  -60.55 | X-H torsion
[ 11005 11000 10999 10996 ] final  -39.30 input  -57.11 | X-H torsion

> <Gold.Protein.ActiveResidues>
 VAL166  LYS551  ARG553  GLY616  TRP617  ASP618  TYR619  PRO620  LYS621  CYS622 
 ASP623  PHE694  ASN695  SER759  ASP760  ASP761  ALA762  ILE779  LEU786  VAL792 
 PHE793  MET794  SER795  GLU796  ALA797  LYS798  CYS799  TRP800  GLU811  SER814 

> <Gold.Protein.RotatedAtoms>
  152.2829  134.7808  160.0392 H   0  0  0  0  0  0  0  0  0  0  0  0  # atno 6907 bound_to 6896
  151.8381  133.3414  159.3642 H   0  0  0  0  0  0  0  0  0  0  0  0  # atno 6908 bound_to 6896
  150.7197  134.5346  159.5761 H   0  0  0  0  0  0  0  0  0  0  0  0  # atno 6909 bound_to 6896
  146.2211  140.2806  142.8362 H   0  0  0  0  0  0  0  0  0  0  0  0  # atno 7974 bound_to 7965
  154.6444  140.2554  155.7285 H   0  0  0  0  0  0  0  0  0  0  0  0  # atno 8008 bound_to 7997
  156.2544  140.2881  156.0771 H   0  0  0  0  0  0  0  0  0  0  0  0  # atno 8009 bound_to 7997
  155.1547  140.0383  157.2819 H   0  0  0  0  0  0  0  0  0  0  0  0  # atno 8010 bound_to 7997
  140.4299  144.1339  150.6158 H   0  0  0  0  0  0  0  0  0  0  0  0  # atno 10167 bound_to 10162
  157.0732  131.0372  151.2604 H   0  0  0  0  0  0  0  0  0  0  0  0  # atno 10718 bound_to 10713
  152.9806  135.5995  154.3664 H   0  0  0  0  0  0  0  0  0  0  0  0  # atno 10763 bound_to 10752
  154.3341  135.2768  155.2458 H   0  0  0  0  0  0  0  0  0  0  0  0  # atno 10764 bound_to 10752
  154.4569  135.5975  153.6285 H   0  0  0  0  0  0  0  0  0  0  0  0  # atno 10765 bound_to 10752
  141.0091  133.6917  156.2168 H   0  0  0  0  0  0  0  0  0  0  0  0  # atno 11005 bound_to 11000
  144.9200  140.7857  143.5754 LP  0  0  0  0  0  0  0  0  0  0  0  0  # atno 17320 bound_to 7965
  145.2742  139.1943  143.4825 LP  0  0  0  0  0  0  0  0  0  0  0  0  # atno 17321 bound_to 7965
  140.4438  143.2515  151.9438 LP  0  0  0  0  0  0  0  0  0  0  0  0  # atno 17342 bound_to 10162
  139.4784  144.5628  151.8212 LP  0  0  0  0  0  0  0  0  0  0  0  0  # atno 17343 bound_to 10162
  157.4861  130.7794  149.7461 LP  0  0  0  0  0  0  0  0  0  0  0  0  # atno 17370 bound_to 10713
  155.9944  130.3918  150.2859 LP  0  0  0  0  0  0  0  0  0  0  0  0  # atno 17371 bound_to 10713
  140.6763  134.4815  157.5588 LP  0  0  0  0  0  0  0  0  0  0  0  0  # atno 17394 bound_to 11000
  139.9080  134.8407  156.1634 LP  0  0  0  0  0  0  0  0  0  0  0  0  # atno 17395 bound_to 11000

$$$$
