AV-unprocessed.smi:2319|AV-procd|sdf|9277|dock2
  -GOLD-   2272012503D 1   1.00000     0.00000
 Structure written by MMmdl.
 46 47  0  0  0  0  0  0  0  0  1 V2000
  152.5256  138.1960  154.9508 C   0  0  0  0  0  0  0  0  0  0  0  0
  151.2387  137.4328  154.6197 C   0  0  0  0  0  0  0  0  0  0  0  0
  151.2852  135.9990  155.0337 C   0  0  0  0  0  0  0  0  0  0  0  0
  152.2520  135.6397  155.9183 O   0  0  0  0  0  0  0  0  0  0  0  0
  152.1501  134.2624  156.1676 N   0  0  0  0  0  0  0  0  0  0  0  0
  151.1398  133.8162  155.4355 C   0  0  0  0  0  0  0  0  0  0  0  0
  150.8278  132.3456  155.4430 C   0  0  0  0  0  0  0  0  0  0  0  0
  150.5448  134.8976  154.7215 C   0  0  0  0  0  0  0  0  0  0  0  0
  149.4667  134.8885  153.8018 N   0  0  0  0  0  0  0  0  0  0  0  0
  148.4534  134.0108  153.7576 C   0  0  0  0  0  0  0  0  0  0  0  0
  148.3061  133.0655  154.5313 O   0  0  0  0  0  0  0  0  0  0  0  0
  147.5951  134.3080  152.7731 N   0  0  0  0  0  0  0  0  0  0  0  0
  146.3669  133.5729  152.4778 C   0  0  2  0  0  0  0  0  0  0  0  0
  146.4228  132.9197  151.1111 C   0  0  0  0  0  0  0  0  0  0  0  0
  144.9430  132.7517  150.7436 C   0  0  0  0  0  0  0  0  0  0  0  0
  144.6850  132.9774  149.2460 C   0  0  0  0  0  0  0  0  0  0  0  0
  144.3891  131.3912  151.1995 C   0  0  0  0  0  0  0  0  0  0  0  0
  144.2495  133.7590  151.4795 O   0  0  0  0  0  0  0  0  0  0  0  0
  145.1137  134.4675  152.3664 C   0  0  0  0  0  0  0  0  0  0  0  0
  144.3843  134.6243  153.7099 C   0  0  0  0  0  0  0  0  0  0  0  0
  145.3710  135.8468  151.7233 C   0  0  0  0  0  0  0  0  0  0  0  0
  152.4535  139.2363  154.6331 H   0  0  0  0  0  0  0  0  0  0  0  0
  153.3852  137.7521  154.4477 H   0  0  0  0  0  0  0  0  0  0  0  0
  152.7237  138.1883  156.0231 H   0  0  0  0  0  0  0  0  0  0  0  0
  150.3942  137.9198  155.1081 H   0  0  0  0  0  0  0  0  0  0  0  0
  151.0463  137.4975  153.5484 H   0  0  0  0  0  0  0  0  0  0  0  0
  150.4645  132.0140  154.4704 H   0  0  0  0  0  0  0  0  0  0  0  0
  150.0656  132.1111  156.1860 H   0  0  0  0  0  0  0  0  0  0  0  0
  151.7112  131.7511  155.6783 H   0  0  0  0  0  0  0  0  0  0  0  0
  149.4037  135.6855  153.1855 H   0  0  0  0  0  0  0  0  0  0  0  0
  147.7955  135.1086  152.1918 H   0  0  0  0  0  0  0  0  0  0  0  0
  146.2042  132.7890  153.2204 H   0  0  0  0  0  0  0  0  0  0  0  0
  146.9165  133.5843  150.4002 H   0  0  0  0  0  0  0  0  0  0  0  0
  146.9745  131.9787  151.1136 H   0  0  0  0  0  0  0  0  0  0  0  0
  145.2125  132.2406  148.6396 H   0  0  0  0  0  0  0  0  0  0  0  0
  145.0177  133.9673  148.9318 H   0  0  0  0  0  0  0  0  0  0  0  0
  143.6223  132.9009  149.0142 H   0  0  0  0  0  0  0  0  0  0  0  0
  144.8867  130.5696  150.6833 H   0  0  0  0  0  0  0  0  0  0  0  0
  143.3211  131.3129  150.9935 H   0  0  0  0  0  0  0  0  0  0  0  0
  144.5271  131.2418  152.2705 H   0  0  0  0  0  0  0  0  0  0  0  0
  144.9945  135.1680  154.4312 H   0  0  0  0  0  0  0  0  0  0  0  0
  144.1411  133.6540  154.1438 H   0  0  0  0  0  0  0  0  0  0  0  0
  143.4497  135.1724  153.5886 H   0  0  0  0  0  0  0  0  0  0  0  0
  145.9925  136.4771  152.3599 H   0  0  0  0  0  0  0  0  0  0  0  0
  144.4337  136.3787  151.5572 H   0  0  0  0  0  0  0  0  0  0  0  0
  145.8675  135.7557  150.7573 H   0  0  0  0  0  0  0  0  0  0  0  0
  1  2  1  0  0  0  0
  1 22  1  0  0  0  0
  1 23  1  0  0  0  0
  1 24  1  0  0  0  0
  2  3  1  0  0  0  0
  2 25  1  0  0  0  0
  2 26  1  0  0  0  0
  3  8  2  0  0  0  0
  3  4  1  0  0  0  0
  4  5  1  0  0  0  0
  5  6  2  0  0  0  0
  6  7  1  0  0  0  0
  6  8  1  0  0  0  0
  7 27  1  0  0  0  0
  7 28  1  0  0  0  0
  7 29  1  0  0  0  0
  8  9  1  0  0  0  0
  9 10  1  0  0  0  0
  9 30  1  0  0  0  0
 10 11  2  0  0  0  0
 10 12  1  0  0  0  0
 12 13  1  0  0  0  0
 12 31  1  0  0  0  0
 13 19  1  0  0  0  0
 13 14  1  0  0  0  0
 13 32  1  0  0  0  0
 14 15  1  0  0  0  0
 14 33  1  0  0  0  0
 14 34  1  0  0  0  0
 15 16  1  0  0  0  0
 15 17  1  0  0  0  0
 15 18  1  0  0  0  0
 16 35  1  0  0  0  0
 16 36  1  0  0  0  0
 16 37  1  0  0  0  0
 17 38  1  0  0  0  0
 17 39  1  0  0  0  0
 17 40  1  0  0  0  0
 18 19  1  0  0  0  0
 19 20  1  0  0  0  0
 19 21  1  0  0  0  0
 20 41  1  0  0  0  0
 20 42  1  0  0  0  0
 20 43  1  0  0  0  0
 21 44  1  0  0  0  0
 21 45  1  0  0  0  0
 21 46  1  0  0  0  0
M  END
> <s_m_source_file>
AV-unprocessed.smi

> <i_m_source_file_index>
2319

> <i_lp_mmshare_version>
43012

> <i_f3d_flags>
0

> <s_epik_input>
W0NIM11bQ0gyXWMxb25jKFtDSDNdKWMxW05IXUMoPU8pW05IXVtDQEBIXShDKE8yKShbQ0gzXSlbQ0gzXSlbQ0gyXUMyKFtDSDNdKVtDSDNd

> <s_epik_cmdline>
J2VwaWtfcHl0aG9uJywgJy1waCcsICc3LjAnLCAnLXRuJywgJzgnLCAnLW1hJywgJzIwMCcsICctbWV0YWxfYmluZGluZycsICctaW1hZScsICc8aW5maWxlLm1hZT4nLCAnLW9tYWUnLCAnPG91dGZpbGUubWFlPic=

> <r_lp_tautomer_probability>
1

> <r_epik_Ionization_Penalty>
3.17207e-05

> <r_epik_Ionization_Penalty_Charging>
0

> <r_epik_Ionization_Penalty_Neutral>
3.17207e-05

> <r_epik_State_Penalty>
-0

> <r_epik_Charging_Adjusted_Penalty>
0

> <i_epik_Tot_Q>
0

> <i_epik_Tot_abs_Q>
0

> <r_epik_Metal_State_Penalty>
-0

> <b_epik_Metal_Only>
0

> <s_lp_Force_Field>
OPLS_2005

> <r_lp_Energy>
19.5027

> <b_lp_Chiralities_Consistent>
1

> <s_lp_Variant>
AV-unprocessed.smi:2319-1

> <Gold.Version>
5.8.1

> <Gold.Id.Protein>
6NUR|6NUR_protein|mol2

> <Gold.PLP.Fitness>
39.2422

> <Gold.PLP.PLP>
-32.6612

> <Gold.PLP.part.hbond>
-3.8335

> <Gold.PLP.part.metal>
0.0000

> <Gold.PLP.part.buried>
-0.3819

> <Gold.PLP.part.nonpolar>
-27.9637

> <Gold.PLP.part.repulsive>
0.1919

> <Gold.PLP.ligand.clash>
0.0000

> <Gold.PLP.ligand.torsion>
0.3941

> <Gold.PLP.Chemscore.Hbond>
2.3627

> <Gold.PLP.Chemscore.CHOScore>
0.0000

> <Gold.PLP.Chemscore.Metal>
0.0000

> <Gold.Chemscore.Hbonds>
donor molecule, donor type, donor heavy atom, donor atom, acceptor molecule, acceptor atom, score
      L1  H     9    30       P1  7948  0.70
      L1  H    12    31       P1  7948  0.86
      P1  H 10752 10764       L1     4  0.19

> <Gold.PLP.Chemscore.Internal.Correction>
0.2811

> <Gold.Rescore>
     Score         DG    S(hbond)    S(metal)    S(lipo)     H(rot)  DE(clash)    DE(int)     intcor
     15.32     -18.02       1.63        0.00      85.86       1.16       0.05       2.64       ----

> <Gold.Chemscore.Fitness>
15.3245

> <Gold.Chemscore.DG>
-18.0181

> <Gold.Chemscore.ZeroCoef>
-5.4800

> <Gold.Chemscore.Hbond>
1.6346

> <Gold.Chemscore.Metal>
0.0000

> <Gold.Chemscore.Lipo>
85.8605

> <Gold.Chemscore.Internal_Hbond>
0.0000

> <Gold.Chemscore.DEClash>
0.0508

> <Gold.Chemscore.DEInternal>
2.6427

> <Gold.Chemscore.Rot>
1.1590

> <Gold.Chemscore.Internal.Correction>
   9.000000E+99

> <Gold.Chemscore.Hbonds>
donor molecule, donor type, donor heavy atom, donor atom, acceptor molecule, acceptor atom, score
      L1  H     9    30       P1  7948  0.13
      L1  H    12    31       P1  7948  0.78

> <Gold.Chemscore.Hbond.Weighted>
-5.4595

> <Gold.Chemscore.Metal.Weighted>
-0.0000

> <Gold.Chemscore.Lipo.Weighted>
-10.0457

> <Gold.Chemscore.Internal_Hbond.Weighted>
0.0000

> <Gold.Chemscore.DEClash.Weighted>
0.0508

> <Gold.Chemscore.DEInternal.Weighted>
2.6427

> <Gold.Chemscore.Rot.Weighted>
2.9671

> <Gold.Chemscore.Internal.Correction.Weighted>
   9.000000E+99

> <Gold.Protein.RotatedTorsions>
[ 6907 6896 6895 6894 ] final -121.80 input  -60.11 | X-H torsion
[ 7974 7965 7964 7962 ] final   80.63 input  175.53 | X-H torsion
[ 8008 7997 7996 7995 ] final -168.15 input   59.86 | X-H torsion
[ 10167 10162 10161 10158 ] final  112.95 input  -65.29 | X-H torsion
[ 10718 10713 10712 10709 ] final  -57.11 input   66.30 | X-H torsion
[ 10763 10752 10751 10750 ] final  -11.09 input  -60.55 | X-H torsion
[ 11005 11000 10999 10996 ] final  -74.01 input  -57.11 | X-H torsion

> <Gold.Protein.ActiveResidues>
 VAL166  LYS551  ARG553  GLY616  TRP617  ASP618  TYR619  PRO620  LYS621  CYS622 
 ASP623  PHE694  ASN695  SER759  ASP760  ASP761  ALA762  ILE779  LEU786  VAL792 
 PHE793  MET794  SER795  GLU796  ALA797  LYS798  CYS799  TRP800  GLU811  SER814 

> <Gold.Protein.RotatedAtoms>
  150.8517  133.7777  159.3023 H   0  0  0  0  0  0  0  0  0  0  0  0  # atno 6907 bound_to 6896
  151.5447  135.1066  159.9944 H   0  0  0  0  0  0  0  0  0  0  0  0  # atno 6908 bound_to 6896
  152.4558  133.7676  159.6837 H   0  0  0  0  0  0  0  0  0  0  0  0  # atno 6909 bound_to 6896
  145.6487  139.2442  143.1989 H   0  0  0  0  0  0  0  0  0  0  0  0  # atno 7974 bound_to 7965
  155.8874  140.1019  157.1442 H   0  0  0  0  0  0  0  0  0  0  0  0  # atno 8008 bound_to 7997
  154.4011  140.1317  156.4336 H   0  0  0  0  0  0  0  0  0  0  0  0  # atno 8009 bound_to 7997
  155.7573  140.3464  155.5182 H   0  0  0  0  0  0  0  0  0  0  0  0  # atno 8010 bound_to 7997
  139.6497  144.7128  151.2072 H   0  0  0  0  0  0  0  0  0  0  0  0  # atno 10167 bound_to 10162
  156.1236  130.4164  150.0396 H   0  0  0  0  0  0  0  0  0  0  0  0  # atno 10718 bound_to 10713
  153.4786  135.7017  153.5951 H   0  0  0  0  0  0  0  0  0  0  0  0  # atno 10763 bound_to 10752
  153.4174  135.3833  155.2089 H   0  0  0  0  0  0  0  0  0  0  0  0  # atno 10764 bound_to 10752
  154.8722  135.3919  154.4233 H   0  0  0  0  0  0  0  0  0  0  0  0  # atno 10765 bound_to 10752
  141.1630  133.6897  156.7299 H   0  0  0  0  0  0  0  0  0  0  0  0  # atno 11005 bound_to 11000
  146.1222  140.7294  142.9452 LP  0  0  0  0  0  0  0  0  0  0  0  0  # atno 17320 bound_to 7965
  144.7131  140.4110  143.7065 LP  0  0  0  0  0  0  0  0  0  0  0  0  # atno 17321 bound_to 7965
  140.7532  143.6171  150.8549 LP  0  0  0  0  0  0  0  0  0  0  0  0  # atno 17342 bound_to 10162
  139.9817  143.5943  152.2940 LP  0  0  0  0  0  0  0  0  0  0  0  0  # atno 17343 bound_to 10162
  156.8328  130.9398  151.3636 LP  0  0  0  0  0  0  0  0  0  0  0  0  # atno 17370 bound_to 10713
  157.6418  130.8812  149.9464 LP  0  0  0  0  0  0  0  0  0  0  0  0  # atno 17371 bound_to 10713
  140.2752  134.8360  157.3884 LP  0  0  0  0  0  0  0  0  0  0  0  0  # atno 17394 bound_to 11000
  140.1484  134.4882  155.7979 LP  0  0  0  0  0  0  0  0  0  0  0  0  # atno 17395 bound_to 11000

$$$$
