AV-unprocessed.smi:1213|AV-procd|sdf|5085|dock1
  -GOLD-   22720 4133D 1   1.00000     0.00000
 Structure written by MMmdl.
 37 38  0  0  0  0  0  0  0  0  2 V2000
  142.2141  132.0541  147.9666 N   0  0  0  0  0  0  0  0  0  0  0  0
  143.3905  132.5575  148.3461 C   0  0  0  0  0  0  0  0  0  0  0  0
  144.0864  133.2369  147.5935 O   0  0  0  0  0  0  0  0  0  0  0  0
  143.8546  132.2336  149.7697 C   0  0  0  0  0  0  0  0  0  0  0  0
  144.7323  133.2850  150.3454 N   0  3  2  0  0  0  0  0  0  0  0  0
  145.2204  132.9375  151.7042 C   0  0  0  0  0  0  0  0  0  0  0  0
  146.2431  133.9706  152.2066 C   0  0  0  0  0  0  0  0  0  0  0  0
  145.6543  135.3906  152.1917 C   0  0  1  0  0  0  0  0  0  0  0  0
  146.6752  136.3553  152.5901 N   0  0  0  0  0  0  0  0  0  0  0  0
  146.4296  137.5839  153.0687 C   0  0  0  0  0  0  0  0  0  0  0  0
  145.2948  138.0366  153.2215 O   0  0  0  0  0  0  0  0  0  0  0  0
  147.5720  138.2354  153.3489 N   0  0  0  0  0  0  0  0  0  0  0  0
  147.7290  139.5466  153.8700 C   0  0  0  0  0  0  0  0  0  0  0  0
  146.7293  140.4231  154.0221 N   0  0  0  0  0  0  0  0  0  0  0  0
  147.1718  141.6351  154.5583 C   0  0  0  0  0  0  0  0  0  0  0  0
  148.5211  141.6645  154.8087 C   0  0  0  0  0  0  0  0  0  0  0  0
  149.2942  140.1616  154.3809 S   0  0  0  0  0  0  0  0  0  0  0  0
  145.1153  135.7102  150.7850 C   0  0  0  0  0  0  0  0  0  0  0  0
  144.1172  134.6390  150.3166 C   0  0  0  0  0  0  0  0  0  0  0  0
  141.8678  132.2392  147.0358 H   0  0  0  0  0  0  0  0  0  0  0  0
  141.6725  131.4889  148.6047 H   0  0  0  0  0  0  0  0  0  0  0  0
  142.9983  132.0604  150.4238 H   0  0  0  0  0  0  0  0  0  0  0  0
  144.4004  131.2908  149.7116 H   0  0  0  0  0  0  0  0  0  0  0  0
  144.3751  132.8766  152.3917 H   0  0  0  0  0  0  0  0  0  0  0  0
  145.6881  131.9524  151.6875 H   0  0  0  0  0  0  0  0  0  0  0  0
  146.5648  133.7092  153.2157 H   0  0  0  0  0  0  0  0  0  0  0  0
  147.1343  133.9308  151.5780 H   0  0  0  0  0  0  0  0  0  0  0  0
  144.8303  135.4269  152.9072 H   0  0  0  0  0  0  0  0  0  0  0  0
  147.6381  136.0654  152.4983 H   0  0  0  0  0  0  0  0  0  0  0  0
  148.4305  137.7361  153.1703 H   0  0  0  0  0  0  0  0  0  0  0  0
  146.4562  142.4256  154.7293 H   0  0  0  0  0  0  0  0  0  0  0  0
  149.1046  142.4759  155.2178 H   0  0  0  0  0  0  0  0  0  0  0  0
  144.6307  136.6873  150.7786 H   0  0  0  0  0  0  0  0  0  0  0  0
  145.9413  135.7709  150.0745 H   0  0  0  0  0  0  0  0  0  0  0  0
  143.7837  134.8805  149.3070 H   0  0  0  0  0  0  0  0  0  0  0  0
  143.2302  134.6515  150.9522 H   0  0  0  0  0  0  0  0  0  0  0  0
  145.5490  133.3204  149.7514 H   0  0  0  0  0  0  0  0  0  0  0  0
  1  2  1  0  0  0  0
  1 20  1  0  0  0  0
  1 21  1  0  0  0  0
  2  3  2  0  0  0  0
  2  4  1  0  0  0  0
  4  5  1  0  0  0  0
  4 22  1  0  0  0  0
  4 23  1  0  0  0  0
  5 19  1  0  0  0  0
  5  6  1  0  0  0  0
  5 37  1  0  0  0  0
  6  7  1  0  0  0  0
  6 24  1  0  0  0  0
  6 25  1  0  0  0  0
  7  8  1  0  0  0  0
  7 26  1  0  0  0  0
  7 27  1  0  0  0  0
  8  9  1  0  0  0  0
  8 18  1  0  0  0  0
  8 28  1  0  0  0  0
  9 10  1  0  0  0  0
  9 29  1  0  0  0  0
 10 11  2  0  0  0  0
 10 12  1  0  0  0  0
 12 13  1  0  0  0  0
 12 30  1  0  0  0  0
 13 17  1  0  0  0  0
 13 14  2  0  0  0  0
 14 15  1  0  0  0  0
 15 16  2  0  0  0  0
 15 31  1  0  0  0  0
 16 17  1  0  0  0  0
 16 32  1  0  0  0  0
 18 19  1  0  0  0  0
 18 33  1  0  0  0  0
 18 34  1  0  0  0  0
 19 35  1  0  0  0  0
 19 36  1  0  0  0  0
M  CHG  1   5   1
M  END
> <s_m_source_file>
AV-unprocessed.smi

> <i_m_source_file_index>
1213

> <i_lp_mmshare_version>
43012

> <i_f3d_flags>
0

> <s_epik_input>
W05IMl1DKD1PKVtDSDJdTjFbQ0gyXVtDSDJdW0NIXShbQ0gyXVtDSDJdMSlbTkhdQyg9TylbTkhdYzJuW2NIXVtjSF1zMg==

> <s_epik_cmdline>
J2VwaWtfcHl0aG9uJywgJy1waCcsICc3LjAnLCAnLXRuJywgJzgnLCAnLW1hJywgJzIwMCcsICctbWV0YWxfYmluZGluZycsICctaW1hZScsICc8aW5maWxlLm1hZT4nLCAnLW9tYWUnLCAnPG91dGZpbGUubWFlPic=

> <r_lp_tautomer_probability>
0.999

> <r_epik_Ionization_Penalty>
0.86253

> <r_epik_Ionization_Penalty_Charging>
0.862349

> <r_epik_Ionization_Penalty_Neutral>
0.000180085

> <r_epik_State_Penalty>
0.898939

> <r_epik_Charging_Adjusted_Penalty>
1.76129

> <i_epik_Tot_Q>
1

> <i_epik_Tot_abs_Q>
1

> <r_epik_Metal_State_Penalty>
0.948529

> <b_epik_Metal_Only>
0

> <s_lp_Force_Field>
OPLS_2005

> <r_lp_Energy>
9.96379

> <b_lp_Chiralities_Consistent>
1

> <s_lp_Variant>
AV-unprocessed.smi:1213-2

> <Gold.Version>
5.8.1

> <Gold.Id.Protein>
6NUR|6NUR_protein|mol2

> <Gold.PLP.Fitness>
44.4905

> <Gold.PLP.PLP>
-30.4469

> <Gold.PLP.part.hbond>
-5.4350

> <Gold.PLP.part.metal>
0.0000

> <Gold.PLP.part.buried>
-3.2745

> <Gold.PLP.part.nonpolar>
-28.0398

> <Gold.PLP.part.repulsive>
5.5898

> <Gold.PLP.ligand.clash>
0.0000

> <Gold.PLP.ligand.torsion>
0.6879

> <Gold.PLP.Chemscore.Hbond>
4.1185

> <Gold.PLP.Chemscore.CHOScore>
1.0000

> <Gold.PLP.Chemscore.Metal>
0.0000

> <Gold.Chemscore.Hbonds>
donor molecule, donor type, donor heavy atom, donor atom, acceptor molecule, acceptor atom, score
      L1  H     1    20       P1 10195  1.00
      L1  H     1    21       P1 10952  1.00
      L1  H     9    29       P1  7948  0.81
      L1  H    12    30       P1  7948  0.66
      P1  H  7918  7932       L1     3  0.62
      L1  C    16    32       P1  8028  1.00

> <Gold.PLP.Chemscore.Internal.Correction>
0.0637

> <Gold.Rescore>
     Score         DG    S(hbond)    S(metal)    S(lipo)     H(rot)  DE(clash)    DE(int)     intcor
     16.84     -20.75       4.14        0.00      57.47       2.06       1.94       1.96       ----

> <Gold.Chemscore.Fitness>
16.8402

> <Gold.Chemscore.DG>
-20.7460

> <Gold.Chemscore.ZeroCoef>
-5.4800

> <Gold.Chemscore.Hbond>
4.1388

> <Gold.Chemscore.Metal>
0.0000

> <Gold.Chemscore.Lipo>
57.4712

> <Gold.Chemscore.Internal_Hbond>
0.0000

> <Gold.Chemscore.DEClash>
1.9450

> <Gold.Chemscore.DEInternal>
1.9608

> <Gold.Chemscore.Rot>
2.0631

> <Gold.Chemscore.Internal.Correction>
   9.000000E+99

> <Gold.Chemscore.Hbonds>
donor molecule, donor type, donor heavy atom, donor atom, acceptor molecule, acceptor atom, score
      L1  H     1    20       P1 10195  0.97
      L1  H     1    21       P1 10952  1.00
      L1  H     9    29       P1  7948  0.75
      L1  H    12    30       P1  7948  0.62
      P1  H  7918  7932       L1     3  0.62

> <Gold.Chemscore.Hbond.Weighted>
-13.8235

> <Gold.Chemscore.Metal.Weighted>
-0.0000

> <Gold.Chemscore.Lipo.Weighted>
-6.7241

> <Gold.Chemscore.Internal_Hbond.Weighted>
0.0000

> <Gold.Chemscore.DEClash.Weighted>
1.9450

> <Gold.Chemscore.DEInternal.Weighted>
1.9608

> <Gold.Chemscore.Rot.Weighted>
5.2816

> <Gold.Chemscore.Internal.Correction.Weighted>
   9.000000E+99

> <Gold.Protein.RotatedTorsions>
[ 6907 6896 6895 6894 ] final   15.04 input  -60.11 | X-H torsion
[ 7974 7965 7964 7962 ] final  -24.92 input  175.53 | X-H torsion
[ 8008 7997 7996 7995 ] final   13.20 input   59.86 | X-H torsion
[ 10167 10162 10161 10158 ] final -141.01 input  -65.29 | X-H torsion
[ 10718 10713 10712 10709 ] final  153.36 input   66.30 | X-H torsion
[ 10763 10752 10751 10750 ] final -109.19 input  -60.55 | X-H torsion
[ 11005 11000 10999 10996 ] final  118.26 input  -57.11 | X-H torsion

> <Gold.Protein.ActiveResidues>
 VAL166  LYS551  ARG553  GLY616  TRP617  ASP618  TYR619  PRO620  LYS621  CYS622 
 ASP623  PHE694  ASN695  SER759  ASP760  ASP761  ALA762  ILE779  LEU786  VAL792 
 PHE793  MET794  SER795  GLU796  ALA797  LYS798  CYS799  TRP800  GLU811  SER814 

> <Gold.Protein.RotatedAtoms>
  151.8118  135.0678  160.0413 H   0  0  0  0  0  0  0  0  0  0  0  0  # atno 6907 bound_to 6896
  152.3015  133.5655  159.5630 H   0  0  0  0  0  0  0  0  0  0  0  0  # atno 6908 bound_to 6896
  150.7275  134.0201  159.3740 H   0  0  0  0  0  0  0  0  0  0  0  0  # atno 6909 bound_to 6896
  146.1524  140.4817  142.8606 H   0  0  0  0  0  0  0  0  0  0  0  0  # atno 7974 bound_to 7965
  154.8311  140.2899  155.5721 H   0  0  0  0  0  0  0  0  0  0  0  0  # atno 8008 bound_to 7997
  156.3005  140.2532  156.3168 H   0  0  0  0  0  0  0  0  0  0  0  0  # atno 8009 bound_to 7997
  154.9230  140.0385  157.1997 H   0  0  0  0  0  0  0  0  0  0  0  0  # atno 8010 bound_to 7997
  139.8226  143.7553  152.2666 H   0  0  0  0  0  0  0  0  0  0  0  0  # atno 10167 bound_to 10162
  157.2458  131.0768  151.1763 H   0  0  0  0  0  0  0  0  0  0  0  0  # atno 10718 bound_to 10713
  154.8179  135.4610  154.0694 H   0  0  0  0  0  0  0  0  0  0  0  0  # atno 10763 bound_to 10752
  153.2072  135.6877  153.8165 H   0  0  0  0  0  0  0  0  0  0  0  0  # atno 10764 bound_to 10752
  153.7628  135.3281  155.3317 H   0  0  0  0  0  0  0  0  0  0  0  0  # atno 10765 bound_to 10752
  139.9103  134.9618  156.7476 H   0  0  0  0  0  0  0  0  0  0  0  0  # atno 11005 bound_to 11000
  144.7920  140.6051  143.6535 LP  0  0  0  0  0  0  0  0  0  0  0  0  # atno 17320 bound_to 7965
  145.4791  139.1497  143.3772 LP  0  0  0  0  0  0  0  0  0  0  0  0  # atno 17321 bound_to 7965
  139.7736  144.7468  151.0189 LP  0  0  0  0  0  0  0  0  0  0  0  0  # atno 17342 bound_to 10162
  140.7812  143.4618  151.0268 LP  0  0  0  0  0  0  0  0  0  0  0  0  # atno 17343 bound_to 10162
  157.3331  130.6995  149.6336 LP  0  0  0  0  0  0  0  0  0  0  0  0  # atno 17370 bound_to 10713
  155.9668  130.4302  150.4865 LP  0  0  0  0  0  0  0  0  0  0  0  0  # atno 17371 bound_to 10713
  140.6799  133.9483  155.7904 LP  0  0  0  0  0  0  0  0  0  0  0  0  # atno 17394 bound_to 11000
  141.0517  134.0475  157.3774 LP  0  0  0  0  0  0  0  0  0  0  0  0  # atno 17395 bound_to 11000

$$$$
