AV-unprocessed.smi:221|AV-procd|sdf|1691|dock7
  -GOLD-   2262020133D 1   1.00000     0.00000
 Structure written by MMmdl.
 50 53  0  0  0  0  0  0  0  0  1 V2000
  148.0841  132.0514  160.2906 N   0  0  0  0  0  0  0  0  0  0  0  0
  148.0883  133.3358  159.9207 C   0  0  0  0  0  0  0  0  0  0  0  0
  148.7855  133.7377  158.9914 O   0  0  0  0  0  0  0  0  0  0  0  0
  147.1919  134.3154  160.7057 C   0  0  1  0  0  0  0  0  0  0  0  0
  147.6139  134.5967  162.1556 C   0  0  0  0  0  0  0  0  0  0  0  0
  146.8449  135.8762  162.5111 C   0  0  1  0  0  0  0  0  0  0  0  0
  147.6712  136.7805  163.0378 F   0  0  0  0  0  0  0  0  0  0  0  0
  146.2560  136.3791  161.1818 C   0  0  0  0  0  0  0  0  0  0  0  0
  146.9368  135.6404  160.1231 N   0  0  0  0  0  0  0  0  0  0  0  0
  147.9319  136.3813  159.5647 C   0  0  0  0  0  0  0  0  0  0  0  0
  149.2418  136.1003  159.7991 N   0  0  0  0  0  0  0  0  0  0  0  0
  150.2007  136.8540  159.2537 C   0  0  0  0  0  0  0  0  0  0  0  0
  150.0742  137.9223  158.4642 N   0  0  0  0  0  0  0  0  0  0  0  0
  148.7622  138.2163  158.2374 C   0  0  0  0  0  0  0  0  0  0  0  0
  147.6399  137.5050  158.7459 C   0  0  0  0  0  0  0  0  0  0  0  0
  146.4613  138.0949  158.3062 N   0  0  0  0  0  0  0  0  0  0  0  0
  146.8641  139.1019  157.5798 C   0  0  0  0  0  0  0  0  0  0  0  0
  148.2295  139.2518  157.4894 N   0  0  0  0  0  0  0  0  0  0  0  0
  148.9391  140.2843  156.7544 C   0  0  0  0  0  0  0  0  0  0  0  0
  148.8950  140.0775  155.2201 C   0  0  1  0  0  0  0  0  0  0  0  0
  148.1544  141.2217  154.4849 C   0  0  0  0  0  0  0  0  0  0  0  0
  147.7810  140.8386  153.1771 O   0  0  0  0  0  0  0  0  0  0  0  0
  150.3093  139.8210  154.6399 C   0  0  2  0  0  0  0  0  0  0  0  0
  150.7905  138.3838  154.7341 C   0  0  0  0  0  0  0  0  0  0  0  0
  152.2957  138.5359  154.5478 C   0  0  0  0  0  0  0  0  0  0  0  0
  152.6279  139.7912  155.1296 O   0  0  0  0  0  0  0  0  0  0  0  0
  151.4433  140.5426  155.3769 C   0  0  0  0  0  0  0  0  0  0  0  0
  146.2178  133.8238  160.7407 H   0  0  0  0  0  0  0  0  0  0  0  0
  146.0594  135.6920  163.2447 H   0  0  0  0  0  0  0  0  0  0  0  0
  148.6562  131.3848  159.7930 H   0  0  0  0  0  0  0  0  0  0  0  0
  147.5056  131.7516  161.0619 H   0  0  0  0  0  0  0  0  0  0  0  0
  147.3652  133.7705  162.8226 H   0  0  0  0  0  0  0  0  0  0  0  0
  148.6898  134.7638  162.2261 H   0  0  0  0  0  0  0  0  0  0  0  0
  145.1930  136.1406  161.1273 H   0  0  0  0  0  0  0  0  0  0  0  0
  146.3389  137.4640  161.0868 H   0  0  0  0  0  0  0  0  0  0  0  0
  151.2141  136.5602  159.4853 H   0  0  0  0  0  0  0  0  0  0  0  0
  146.1725  139.7715  157.0893 H   0  0  0  0  0  0  0  0  0  0  0  0
  148.5175  141.2551  157.0180 H   0  0  0  0  0  0  0  0  0  0  0  0
  149.9689  140.2911  157.1122 H   0  0  0  0  0  0  0  0  0  0  0  0
  148.3093  139.1741  155.0429 H   0  0  0  0  0  0  0  0  0  0  0  0
  147.2594  141.5188  155.0307 H   0  0  0  0  0  0  0  0  0  0  0  0
  148.7749  142.1157  154.4230 H   0  0  0  0  0  0  0  0  0  0  0  0
  148.5501  140.8514  152.6281 H   0  0  0  0  0  0  0  0  0  0  0  0
  150.3349  140.1241  153.5918 H   0  0  0  0  0  0  0  0  0  0  0  0
  150.5756  137.9721  155.7213 H   0  0  0  0  0  0  0  0  0  0  0  0
  150.3437  137.7292  153.9851 H   0  0  0  0  0  0  0  0  0  0  0  0
  152.8580  137.7215  155.0051 H   0  0  0  0  0  0  0  0  0  0  0  0
  152.5461  138.5671  153.4867 H   0  0  0  0  0  0  0  0  0  0  0  0
  151.5617  141.5755  155.0489 H   0  0  0  0  0  0  0  0  0  0  0  0
  151.2639  140.5497  156.4530 H   0  0  0  0  0  0  0  0  0  0  0  0
  1  2  1  0  0  0  0
  1 30  1  0  0  0  0
  1 31  1  0  0  0  0
  2  3  2  0  0  0  0
  2  4  1  0  0  0  0
  4 28  1  0  0  0  0
  4  9  1  0  0  0  0
  4  5  1  0  0  0  0
  5  6  1  0  0  0  0
  5 32  1  0  0  0  0
  5 33  1  0  0  0  0
  6 29  1  0  0  0  0
  6  7  1  0  0  0  0
  6  8  1  0  0  0  0
  8  9  1  0  0  0  0
  8 34  1  0  0  0  0
  8 35  1  0  0  0  0
  9 10  1  0  0  0  0
 10 15  1  0  0  0  0
 10 11  2  0  0  0  0
 11 12  1  0  0  0  0
 12 13  2  0  0  0  0
 12 36  1  0  0  0  0
 13 14  1  0  0  0  0
 14 18  1  0  0  0  0
 14 15  2  0  0  0  0
 15 16  1  0  0  0  0
 16 17  2  0  0  0  0
 17 18  1  0  0  0  0
 17 37  1  0  0  0  0
 18 19  1  0  0  0  0
 19 20  1  0  0  0  0
 19 38  1  0  0  0  0
 19 39  1  0  0  0  0
 20 21  1  0  0  0  0
 20 23  1  0  0  0  0
 20 40  1  0  0  0  0
 21 22  1  0  0  0  0
 21 41  1  0  0  0  0
 21 42  1  0  0  0  0
 22 43  1  0  0  0  0
 23 27  1  0  0  0  0
 23 24  1  0  0  0  0
 23 44  1  0  0  0  0
 24 25  1  0  0  0  0
 24 45  1  0  0  0  0
 24 46  1  0  0  0  0
 25 26  1  0  0  0  0
 25 47  1  0  0  0  0
 25 48  1  0  0  0  0
 26 27  1  0  0  0  0
 27 49  1  0  0  0  0
 27 50  1  0  0  0  0
M  END
> <s_m_source_file>
AV-unprocessed.smi

> <i_m_source_file_index>
221

> <i_lp_mmshare_version>
43012

> <i_f3d_flags>
0

> <s_epik_input>
W05IMl1DKD1PKVtDQEBIXTFbQ0gyXVtDQEBIXShGKVtDSDJdTjFjKG5bY0hdbjIpYyhjMjMpbltjSF1uM1tDSDJdW0NASF0oW0NIMl1bT0hdKVtDQEBIXTRbQ0gyXVtDSDJdT1tDSDJdNA==

> <s_epik_cmdline>
J2VwaWtfcHl0aG9uJywgJy1waCcsICc3LjAnLCAnLXRuJywgJzgnLCAnLW1hJywgJzIwMCcsICctbWV0YWxfYmluZGluZycsICctaW1hZScsICc8aW5maWxlLm1hZT4nLCAnLW9tYWUnLCAnPG91dGZpbGUubWFlPic=

> <r_lp_tautomer_probability>
1

> <r_epik_Ionization_Penalty>
0.000818822

> <r_epik_Ionization_Penalty_Charging>
0

> <r_epik_Ionization_Penalty_Neutral>
0.000818822

> <r_epik_State_Penalty>
0.000440551

> <r_epik_Charging_Adjusted_Penalty>
0.000440551

> <i_epik_Tot_Q>
0

> <i_epik_Tot_abs_Q>
0

> <r_epik_Metal_State_Penalty>
-0

> <b_epik_Metal_Only>
0

> <s_lp_Force_Field>
OPLS_2005

> <r_lp_Energy>
55.0143

> <b_lp_Chiralities_Consistent>
1

> <s_lp_Variant>
AV-unprocessed.smi:221-6

> <Gold.Version>
5.8.1

> <Gold.Id.Protein>
6NUR|6NUR_protein|mol2

> <Gold.PLP.Fitness>
43.4861

> <Gold.PLP.PLP>
-38.8623

> <Gold.PLP.part.hbond>
-4.9559

> <Gold.PLP.part.metal>
0.0000

> <Gold.PLP.part.buried>
-0.7532

> <Gold.PLP.part.nonpolar>
-33.6419

> <Gold.PLP.part.repulsive>
0.0503

> <Gold.PLP.ligand.clash>
0.0000

> <Gold.PLP.ligand.torsion>
2.2863

> <Gold.PLP.Chemscore.Hbond>
2.9913

> <Gold.PLP.Chemscore.CHOScore>
0.0000

> <Gold.PLP.Chemscore.Metal>
0.0000

> <Gold.Chemscore.Hbonds>
donor molecule, donor type, donor heavy atom, donor atom, acceptor molecule, acceptor atom, score
      L1  H    22    43       P1  7957  0.99
      P1  H  6896  6907       L1     3  1.00
      P1  H  7997  8009       L1    26  1.00

> <Gold.PLP.Chemscore.Internal.Correction>
0.2226

> <Gold.Rescore>
     Score         DG    S(hbond)    S(metal)    S(lipo)     H(rot)  DE(clash)    DE(int)     intcor
      7.33     -13.98       2.84        0.00      73.03       3.72       0.34       6.31       ----

> <Gold.Chemscore.Fitness>
7.3273

> <Gold.Chemscore.DG>
-13.9772

> <Gold.Chemscore.ZeroCoef>
-5.4800

> <Gold.Chemscore.Hbond>
2.8372

> <Gold.Chemscore.Metal>
0.0000

> <Gold.Chemscore.Lipo>
73.0321

> <Gold.Chemscore.Internal_Hbond>
0.0000

> <Gold.Chemscore.DEClash>
0.3430

> <Gold.Chemscore.DEInternal>
6.3068

> <Gold.Chemscore.Rot>
3.7202

> <Gold.Chemscore.Internal.Correction>
   9.000000E+99

> <Gold.Chemscore.Hbonds>
donor molecule, donor type, donor heavy atom, donor atom, acceptor molecule, acceptor atom, score
      L1  H    22    43       P1  7957  0.91
      P1  H  6896  6907       L1     3  0.91
      P1  H  7997  8009       L1    26  0.94

> <Gold.Chemscore.Hbond.Weighted>
-9.4762

> <Gold.Chemscore.Metal.Weighted>
-0.0000

> <Gold.Chemscore.Lipo.Weighted>
-8.5448

> <Gold.Chemscore.Internal_Hbond.Weighted>
0.0000

> <Gold.Chemscore.DEClash.Weighted>
0.3430

> <Gold.Chemscore.DEInternal.Weighted>
6.3068

> <Gold.Chemscore.Rot.Weighted>
9.5237

> <Gold.Chemscore.Internal.Correction.Weighted>
   9.000000E+99

> <Gold.Protein.RotatedTorsions>
[ 6907 6896 6895 6894 ] final -108.76 input  -60.11 | X-H torsion
[ 7974 7965 7964 7962 ] final -171.40 input  175.53 | X-H torsion
[ 8008 7997 7996 7995 ] final -135.34 input   59.86 | X-H torsion
[ 10167 10162 10161 10158 ] final -116.26 input  -65.29 | X-H torsion
[ 10718 10713 10712 10709 ] final -162.43 input   66.30 | X-H torsion
[ 10763 10752 10751 10750 ] final    4.87 input  -60.55 | X-H torsion
[ 11005 11000 10999 10996 ] final -148.52 input  -57.11 | X-H torsion

> <Gold.Protein.ActiveResidues>
 VAL166  LYS551  ARG553  GLY616  TRP617  ASP618  TYR619  PRO620  LYS621  CYS622 
 ASP623  PHE694  ASN695  SER759  ASP760  ASP761  ALA762  ILE779  LEU786  VAL792 
 PHE793  MET794  SER795  GLU796  ALA797  LYS798  CYS799  TRP800  GLU811  SER814 

> <Gold.Protein.RotatedAtoms>
  150.7521  133.9629  159.3521 H   0  0  0  0  0  0  0  0  0  0  0  0  # atno 6907 bound_to 6896
  151.7557  135.0820  160.0347 H   0  0  0  0  0  0  0  0  0  0  0  0  # atno 6908 bound_to 6896
  152.3437  133.6059  159.5930 H   0  0  0  0  0  0  0  0  0  0  0  0  # atno 6909 bound_to 6896
  144.7157  140.1928  143.6346 H   0  0  0  0  0  0  0  0  0  0  0  0  # atno 7974 bound_to 7965
  155.3770  140.0491  157.3044 H   0  0  0  0  0  0  0  0  0  0  0  0  # atno 8008 bound_to 7997
  154.5101  140.2188  155.9135 H   0  0  0  0  0  0  0  0  0  0  0  0  # atno 8009 bound_to 7997
  156.1573  140.3124  155.8753 H   0  0  0  0  0  0  0  0  0  0  0  0  # atno 8010 bound_to 7997
  140.0811  143.4786  152.1925 H   0  0  0  0  0  0  0  0  0  0  0  0  # atno 10167 bound_to 10162
  156.6104  130.8848  151.2935 H   0  0  0  0  0  0  0  0  0  0  0  0  # atno 10718 bound_to 10713
  153.2661  135.6928  153.7529 H   0  0  0  0  0  0  0  0  0  0  0  0  # atno 10763 bound_to 10752
  153.6570  135.3367  155.3117 H   0  0  0  0  0  0  0  0  0  0  0  0  # atno 10764 bound_to 10752
  154.8447  135.4468  154.1667 H   0  0  0  0  0  0  0  0  0  0  0  0  # atno 10765 bound_to 10752
  140.7604  134.3305  157.5103 H   0  0  0  0  0  0  0  0  0  0  0  0  # atno 11005 bound_to 11000
  145.8752  139.2293  143.1637 LP  0  0  0  0  0  0  0  0  0  0  0  0  # atno 17320 bound_to 7965
  146.0047  140.8489  143.0001 LP  0  0  0  0  0  0  0  0  0  0  0  0  # atno 17321 bound_to 7965
  139.5779  144.7496  151.3717 LP  0  0  0  0  0  0  0  0  0  0  0  0  # atno 17342 bound_to 10162
  140.7077  143.7471  150.7511 LP  0  0  0  0  0  0  0  0  0  0  0  0  # atno 17343 bound_to 10162
  157.7256  130.9618  150.1620 LP  0  0  0  0  0  0  0  0  0  0  0  0  # atno 17370 bound_to 10713
  156.2395  130.3689  149.8353 LP  0  0  0  0  0  0  0  0  0  0  0  0  # atno 17371 bound_to 10713
  139.8772  134.9198  156.3236 LP  0  0  0  0  0  0  0  0  0  0  0  0  # atno 17394 bound_to 11000
  140.9669  133.7352  156.0479 LP  0  0  0  0  0  0  0  0  0  0  0  0  # atno 17395 bound_to 11000

$$$$
