AV-unprocessed.smi:1954|AV-procd|sdf|7895|dock8
  -GOLD-   2272010 53D 1   1.00000     0.00000
 Structure written by MMmdl.
 44 46  0  0  0  0  0  0  0  0  1 V2000
  145.6508  134.2659  154.2427 O   0  0  0  0  0  0  0  0  0  0  0  0
  146.5123  134.7532  153.5104 C   0  0  0  0  0  0  0  0  0  0  0  0
  147.4597  135.5985  153.9410 N   0  0  0  0  0  0  0  0  0  0  0  0
  147.6278  136.0656  155.3169 C   0  0  0  0  0  0  0  0  0  0  0  0
  149.1300  136.1713  155.7432 C   0  0  2  0  0  0  0  0  0  0  0  0
  149.7947  137.3040  155.0272 N   0  0  0  0  0  0  0  0  0  0  0  0
  151.2392  137.4546  155.2552 C   0  0  0  0  0  0  0  0  0  0  0  0
  151.8503  138.5891  154.4155 C   0  0  0  0  0  0  0  0  0  0  0  0
  151.1758  139.8090  154.6915 O   0  0  0  0  0  0  0  0  0  0  0  0
  149.7860  139.7282  154.4079 C   0  0  0  0  0  0  0  0  0  0  0  0
  149.1504  138.6064  155.2460 C   0  0  0  0  0  0  0  0  0  0  0  0
  149.8045  134.7931  155.4805 C   0  0  0  0  0  0  0  0  0  0  0  0
  149.2698  133.7693  156.4872 C   0  0  0  0  0  0  0  0  0  0  0  0
  148.9351  134.6568  158.0263 S   0  0  0  0  0  0  0  0  0  0  0  0
  149.1843  136.2956  157.2877 C   0  0  0  0  0  0  0  0  0  0  0  0
  146.6377  134.5163  152.1929 N   0  0  0  0  0  0  0  0  0  0  0  0
  145.8395  133.6757  151.3721 C   0  0  0  0  0  0  0  0  0  0  0  0
  144.4859  133.5665  151.7641 C   0  0  0  0  0  0  0  0  0  0  0  0
  143.6110  132.7555  151.0155 C   0  0  0  0  0  0  0  0  0  0  0  0
  144.1123  132.0747  149.8919 C   0  0  0  0  0  0  0  0  0  0  0  0
  145.4721  132.2389  149.5695 C   0  0  0  0  0  0  0  0  0  0  0  0
  146.3125  133.0152  150.2856 N   0  0  0  0  0  0  0  0  0  0  0  0
  148.1317  135.9374  153.2683 H   0  0  0  0  0  0  0  0  0  0  0  0
  147.1313  137.0316  155.3960 H   0  0  0  0  0  0  0  0  0  0  0  0
  147.0559  135.4366  155.9988 H   0  0  0  0  0  0  0  0  0  0  0  0
  151.4446  137.6486  156.3071 H   0  0  0  0  0  0  0  0  0  0  0  0
  151.7753  136.5485  154.9835 H   0  0  0  0  0  0  0  0  0  0  0  0
  152.9082  138.7063  154.6513 H   0  0  0  0  0  0  0  0  0  0  0  0
  151.7839  138.3600  153.3507 H   0  0  0  0  0  0  0  0  0  0  0  0
  149.3197  140.6853  154.6415 H   0  0  0  0  0  0  0  0  0  0  0  0
  149.6326  139.5488  153.3426 H   0  0  0  0  0  0  0  0  0  0  0  0
  148.0948  138.5712  154.9863 H   0  0  0  0  0  0  0  0  0  0  0  0
  149.2061  138.8770  156.3010 H   0  0  0  0  0  0  0  0  0  0  0  0
  149.6876  134.4500  154.4528 H   0  0  0  0  0  0  0  0  0  0  0  0
  150.8753  134.8365  155.6661 H   0  0  0  0  0  0  0  0  0  0  0  0
  148.3432  133.3195  156.1307 H   0  0  0  0  0  0  0  0  0  0  0  0
  149.9790  132.9584  156.6551 H   0  0  0  0  0  0  0  0  0  0  0  0
  150.1600  136.6388  157.6276 H   0  0  0  0  0  0  0  0  0  0  0  0
  148.4483  136.9994  157.6776 H   0  0  0  0  0  0  0  0  0  0  0  0
  147.3914  134.9936  151.7213 H   0  0  0  0  0  0  0  0  0  0  0  0
  144.1172  134.0962  152.6305 H   0  0  0  0  0  0  0  0  0  0  0  0
  142.5735  132.6582  151.2994 H   0  0  0  0  0  0  0  0  0  0  0  0
  143.4724  131.4436  149.2933 H   0  0  0  0  0  0  0  0  0  0  0  0
  145.8967  131.7345  148.7143 H   0  0  0  0  0  0  0  0  0  0  0  0
  1  2  2  0  0  0  0
  2  3  1  0  0  0  0
  2 16  1  0  0  0  0
  3  4  1  0  0  0  0
  3 23  1  0  0  0  0
  4  5  1  0  0  0  0
  4 24  1  0  0  0  0
  4 25  1  0  0  0  0
  5 15  1  0  0  0  0
  5  6  1  0  0  0  0
  5 12  1  0  0  0  0
  6 11  1  0  0  0  0
  6  7  1  0  0  0  0
  7  8  1  0  0  0  0
  7 26  1  0  0  0  0
  7 27  1  0  0  0  0
  8  9  1  0  0  0  0
  8 28  1  0  0  0  0
  8 29  1  0  0  0  0
  9 10  1  0  0  0  0
 10 11  1  0  0  0  0
 10 30  1  0  0  0  0
 10 31  1  0  0  0  0
 11 32  1  0  0  0  0
 11 33  1  0  0  0  0
 12 13  1  0  0  0  0
 12 34  1  0  0  0  0
 12 35  1  0  0  0  0
 13 14  1  0  0  0  0
 13 36  1  0  0  0  0
 13 37  1  0  0  0  0
 14 15  1  0  0  0  0
 15 38  1  0  0  0  0
 15 39  1  0  0  0  0
 16 17  1  0  0  0  0
 16 40  1  0  0  0  0
 17 22  1  0  0  0  0
 17 18  2  0  0  0  0
 18 19  1  0  0  0  0
 18 41  1  0  0  0  0
 19 20  2  0  0  0  0
 19 42  1  0  0  0  0
 20 21  1  0  0  0  0
 20 43  1  0  0  0  0
 21 22  2  0  0  0  0
 21 44  1  0  0  0  0
M  END
> <s_m_source_file>
AV-unprocessed.smi

> <i_m_source_file_index>
1954

> <i_lp_mmshare_version>
43012

> <i_f3d_flags>
0

> <s_epik_input>
bjFbY0hdW2NIXVtjSF1bY0hdYzFbTkhdQyg9TylbTkhdW0NIMl1bQ0BdMihbQ0gyXVtDSDJdU1tDSDJdMilOM1tDSDJdW0NIMl1PW0NIMl1bQ0gyXTM=

> <s_epik_cmdline>
J2VwaWtfcHl0aG9uJywgJy1waCcsICc3LjAnLCAnLXRuJywgJzgnLCAnLW1hJywgJzIwMCcsICctbWV0YWxfYmluZGluZycsICctaW1hZScsICc8aW5maWxlLm1hZT4nLCAnLW9tYWUnLCAnPG91dGZpbGUubWFlPic=

> <r_epik_Ionization_Penalty>
0.0195535

> <r_epik_Ionization_Penalty_Charging>
0

> <r_epik_Ionization_Penalty_Neutral>
0.0195535

> <r_epik_State_Penalty>
0.0155843

> <r_epik_Charging_Adjusted_Penalty>
0.0155843

> <i_epik_Tot_Q>
0

> <i_epik_Tot_abs_Q>
0

> <r_epik_Metal_State_Penalty>
0.0155842

> <b_epik_Metal_Only>
0

> <s_lp_Force_Field>
OPLS_2005

> <r_lp_Energy>
55.0934

> <b_lp_Chiralities_Consistent>
1

> <s_lp_Variant>
AV-unprocessed.smi:1954-2

> <Gold.Version>
5.8.1

> <Gold.Id.Protein>
6NUR|6NUR_protein|mol2

> <Gold.PLP.Fitness>
39.7095

> <Gold.PLP.PLP>
-31.5909

> <Gold.PLP.part.hbond>
-3.0000

> <Gold.PLP.part.metal>
0.0000

> <Gold.PLP.part.buried>
-4.8990

> <Gold.PLP.part.nonpolar>
-23.6835

> <Gold.PLP.part.repulsive>
0.5292

> <Gold.PLP.ligand.clash>
0.0000

> <Gold.PLP.ligand.torsion>
0.4629

> <Gold.PLP.Chemscore.Hbond>
2.9920

> <Gold.PLP.Chemscore.CHOScore>
0.0000

> <Gold.PLP.Chemscore.Metal>
0.0000

> <Gold.Chemscore.Hbonds>
donor molecule, donor type, donor heavy atom, donor atom, acceptor molecule, acceptor atom, score
      L1  H     3    23       P1  7948  1.00
      L1  H    16    40       P1  7948  0.99
      P1  H  7989  7998       L1     9  1.00

> <Gold.PLP.Chemscore.Internal.Correction>
0.0684

> <Gold.Rescore>
     Score         DG    S(hbond)    S(metal)    S(lipo)     H(rot)  DE(clash)    DE(int)     intcor
     15.45     -17.25       1.96        0.00      77.42       1.49       0.00       1.79       ----

> <Gold.Chemscore.Fitness>
15.4537

> <Gold.Chemscore.DG>
-17.2492

> <Gold.Chemscore.ZeroCoef>
-5.4800

> <Gold.Chemscore.Hbond>
1.9568

> <Gold.Chemscore.Metal>
0.0000

> <Gold.Chemscore.Lipo>
77.4183

> <Gold.Chemscore.Internal_Hbond>
0.0000

> <Gold.Chemscore.DEClash>
0.0018

> <Gold.Chemscore.DEInternal>
1.7936

> <Gold.Chemscore.Rot>
1.4940

> <Gold.Chemscore.Internal.Correction>
   9.000000E+99

> <Gold.Chemscore.Hbonds>
donor molecule, donor type, donor heavy atom, donor atom, acceptor molecule, acceptor atom, score
      L1  H     3    23       P1  7948  1.00
      L1  H    16    40       P1  7948  0.76
      P1  H  7989  7998       L1     9  0.14

> <Gold.Chemscore.Hbond.Weighted>
-6.5359

> <Gold.Chemscore.Metal.Weighted>
-0.0000

> <Gold.Chemscore.Lipo.Weighted>
-9.0579

> <Gold.Chemscore.Internal_Hbond.Weighted>
0.0000

> <Gold.Chemscore.DEClash.Weighted>
0.0018

> <Gold.Chemscore.DEInternal.Weighted>
1.7936

> <Gold.Chemscore.Rot.Weighted>
3.8246

> <Gold.Chemscore.Internal.Correction.Weighted>
   9.000000E+99

> <Gold.Protein.RotatedTorsions>
[ 6907 6896 6895 6894 ] final -115.72 input  -60.11 | X-H torsion
[ 7974 7965 7964 7962 ] final  125.50 input  175.53 | X-H torsion
[ 8008 7997 7996 7995 ] final   63.67 input   59.86 | X-H torsion
[ 10167 10162 10161 10158 ] final   91.98 input  -65.29 | X-H torsion
[ 10718 10713 10712 10709 ] final  -73.05 input   66.30 | X-H torsion
[ 10763 10752 10751 10750 ] final  -13.04 input  -60.55 | X-H torsion
[ 11005 11000 10999 10996 ] final    1.46 input  -57.11 | X-H torsion

> <Gold.Protein.ActiveResidues>
 VAL166  LYS551  ARG553  GLY616  TRP617  ASP618  TYR619  PRO620  LYS621  CYS622 
 ASP623  PHE694  ASN695  SER759  ASP760  ASP761  ALA762  ILE779  LEU786  VAL792 
 PHE793  MET794  SER795  GLU796  ALA797  LYS798  CYS799  TRP800  GLU811  SER814 

> <Gold.Protein.RotatedAtoms>
  150.8000  133.8618  159.3233 H   0  0  0  0  0  0  0  0  0  0  0  0  # atno 6907 bound_to 6896
  151.6433  135.1008  160.0155 H   0  0  0  0  0  0  0  0  0  0  0  0  # atno 6908 bound_to 6896
  152.4086  133.6888  159.6413 H   0  0  0  0  0  0  0  0  0  0  0  0  # atno 6909 bound_to 6896
  145.0723  139.3720  143.4951 H   0  0  0  0  0  0  0  0  0  0  0  0  # atno 7974 bound_to 7965
  155.6339  140.3496  155.4692 H   0  0  0  0  0  0  0  0  0  0  0  0  # atno 8008 bound_to 7997
  155.9981  140.1207  157.0597 H   0  0  0  0  0  0  0  0  0  0  0  0  # atno 8009 bound_to 7997
  154.4240  140.1106  156.5645 H   0  0  0  0  0  0  0  0  0  0  0  0  # atno 8010 bound_to 7997
  139.8321  144.6682  150.9387 H   0  0  0  0  0  0  0  0  0  0  0  0  # atno 10167 bound_to 10162
  156.0295  130.4385  150.2684 H   0  0  0  0  0  0  0  0  0  0  0  0  # atno 10718 bound_to 10713
  153.5075  135.7016  153.5799 H   0  0  0  0  0  0  0  0  0  0  0  0  # atno 10763 bound_to 10752
  153.3904  135.3897  155.1919 H   0  0  0  0  0  0  0  0  0  0  0  0  # atno 10764 bound_to 10752
  154.8706  135.3857  154.4551 H   0  0  0  0  0  0  0  0  0  0  0  0  # atno 10765 bound_to 10752
  140.6151  133.9712  155.8197 H   0  0  0  0  0  0  0  0  0  0  0  0  # atno 11005 bound_to 11000
  146.3529  140.0474  142.8638 LP  0  0  0  0  0  0  0  0  0  0  0  0  # atno 17320 bound_to 7965
  145.1277  140.9500  143.4562 LP  0  0  0  0  0  0  0  0  0  0  0  0  # atno 17321 bound_to 7965
  140.7806  143.3991  151.1179 LP  0  0  0  0  0  0  0  0  0  0  0  0  # atno 17342 bound_to 10162
  139.7644  143.8587  152.3107 LP  0  0  0  0  0  0  0  0  0  0  0  0  # atno 17343 bound_to 10162
  157.0787  131.0137  151.3164 LP  0  0  0  0  0  0  0  0  0  0  0  0  # atno 17370 bound_to 10713
  157.4944  130.7842  149.7540 LP  0  0  0  0  0  0  0  0  0  0  0  0  # atno 17371 bound_to 10713
  141.0781  134.0104  157.3427 LP  0  0  0  0  0  0  0  0  0  0  0  0  # atno 17394 bound_to 11000
  139.9176  135.0198  156.7941 LP  0  0  0  0  0  0  0  0  0  0  0  0  # atno 17395 bound_to 11000

$$$$
