AV-unprocessed.smi:535|AV-procd|sdf|2860|dock8
  -GOLD-   2262023353D 1   1.00000     0.00000
 Structure written by MMmdl.
 45 47  0  0  0  0  0  0  0  0  2 V2000
  147.1714  141.2669  154.7491 C   0  0  0  0  0  0  0  0  0  0  0  0
  148.4967  141.6945  155.0086 O   0  0  0  0  0  0  0  0  0  0  0  0
  149.1579  140.8635  155.9472 C   0  0  0  0  0  0  0  0  0  0  0  0
  150.6707  140.9668  155.7247 C   0  0  0  0  0  0  0  0  0  0  0  0
  151.4119  140.2709  156.7743 N   0  0  0  0  0  0  0  0  0  0  0  0
  151.9017  140.7789  157.9394 C   0  0  0  0  0  0  0  0  0  0  0  0
  151.7289  142.1149  158.3096 N   0  0  0  0  0  0  0  0  0  0  0  0
  151.5353  143.2498  157.4075 C   0  0  0  0  0  0  0  0  0  0  0  0
  152.5035  144.4003  157.7336 C   0  0  0  0  0  0  0  0  0  0  0  0
  152.3188  144.8579  159.1867 C   0  0  0  0  0  0  0  0  0  0  0  0
  152.4084  143.6542  160.1413 C   0  0  1  0  0  0  0  0  0  0  0  0
  152.1349  144.0664  161.5939 C   0  0  0  0  0  0  0  0  0  0  0  0
  151.4465  142.5395  159.6802 C   0  0  0  0  0  0  0  0  0  0  0  0
  152.6060  139.9122  158.6697 N   0  0  0  0  0  0  0  0  0  0  0  0
  152.5480  138.7492  157.9186 C   0  0  0  0  0  0  0  0  0  0  0  0
  151.8503  138.9414  156.7669 C   0  0  0  0  0  0  0  0  0  0  0  0
  151.6664  137.8945  155.7356 C   0  0  0  0  0  0  0  0  0  0  0  0
  151.0612  138.1273  154.6916 O   0  0  0  0  0  0  0  0  0  0  0  0
  152.2458  136.7056  156.0956 N   0  5  0  0  0  0  0  0  0  0  0  0
  152.9504  136.4656  157.2554 C   0  0  0  0  0  0  0  0  0  0  0  0
  153.4439  135.3640  157.5001 O   0  0  0  0  0  0  0  0  0  0  0  0
  153.1164  137.4710  158.1710 N   0  0  0  0  0  0  0  0  0  0  0  0
  153.8696  137.2478  159.4085 C   0  0  0  0  0  0  0  0  0  0  0  0
  146.7072  141.9329  154.0220 H   0  0  0  0  0  0  0  0  0  0  0  0
  146.5666  141.2845  155.6568 H   0  0  0  0  0  0  0  0  0  0  0  0
  147.1567  140.2569  154.3376 H   0  0  0  0  0  0  0  0  0  0  0  0
  148.9054  141.1671  156.9645 H   0  0  0  0  0  0  0  0  0  0  0  0
  148.8315  139.8299  155.8198 H   0  0  0  0  0  0  0  0  0  0  0  0
  150.9303  140.5621  154.7526 H   0  0  0  0  0  0  0  0  0  0  0  0
  150.9843  142.0073  155.6753 H   0  0  0  0  0  0  0  0  0  0  0  0
  151.6389  142.9349  156.3697 H   0  0  0  0  0  0  0  0  0  0  0  0
  150.5063  143.5991  157.5029 H   0  0  0  0  0  0  0  0  0  0  0  0
  153.5338  144.0781  157.5799 H   0  0  0  0  0  0  0  0  0  0  0  0
  152.3346  145.2363  157.0548 H   0  0  0  0  0  0  0  0  0  0  0  0
  153.0701  145.6056  159.4426 H   0  0  0  0  0  0  0  0  0  0  0  0
  151.3468  145.3414  159.2927 H   0  0  0  0  0  0  0  0  0  0  0  0
  153.4252  143.2608  160.0956 H   0  0  0  0  0  0  0  0  0  0  0  0
  151.1256  144.4627  161.7099 H   0  0  0  0  0  0  0  0  0  0  0  0
  152.8345  144.8354  161.9226 H   0  0  0  0  0  0  0  0  0  0  0  0
  152.2383  143.2163  162.2686 H   0  0  0  0  0  0  0  0  0  0  0  0
  150.4105  142.8747  159.7486 H   0  0  0  0  0  0  0  0  0  0  0  0
  151.5388  141.6820  160.3480 H   0  0  0  0  0  0  0  0  0  0  0  0
  153.4245  136.4372  159.9870 H   0  0  0  0  0  0  0  0  0  0  0  0
  153.8949  138.1276  160.0510 H   0  0  0  0  0  0  0  0  0  0  0  0
  154.9023  136.9787  159.1821 H   0  0  0  0  0  0  0  0  0  0  0  0
  1  2  1  0  0  0  0
  1 24  1  0  0  0  0
  1 25  1  0  0  0  0
  1 26  1  0  0  0  0
  2  3  1  0  0  0  0
  3  4  1  0  0  0  0
  3 27  1  0  0  0  0
  3 28  1  0  0  0  0
  4  5  1  0  0  0  0
  4 29  1  0  0  0  0
  4 30  1  0  0  0  0
  5 16  1  0  0  0  0
  5  6  1  0  0  0  0
  6  7  1  0  0  0  0
  6 14  2  0  0  0  0
  7 13  1  0  0  0  0
  7  8  1  0  0  0  0
  8  9  1  0  0  0  0
  8 31  1  0  0  0  0
  8 32  1  0  0  0  0
  9 10  1  0  0  0  0
  9 33  1  0  0  0  0
  9 34  1  0  0  0  0
 10 11  1  0  0  0  0
 10 35  1  0  0  0  0
 10 36  1  0  0  0  0
 11 12  1  0  0  0  0
 11 13  1  0  0  0  0
 11 37  1  0  0  0  0
 12 38  1  0  0  0  0
 12 39  1  0  0  0  0
 12 40  1  0  0  0  0
 13 41  1  0  0  0  0
 13 42  1  0  0  0  0
 14 15  1  0  0  0  0
 15 22  1  0  0  0  0
 15 16  2  0  0  0  0
 16 17  1  0  0  0  0
 17 18  2  0  0  0  0
 17 19  1  0  0  0  0
 19 20  1  0  0  0  0
 20 21  2  0  0  0  0
 20 22  1  0  0  0  0
 22 23  1  0  0  0  0
 23 43  1  0  0  0  0
 23 44  1  0  0  0  0
 23 45  1  0  0  0  0
M  CHG  1  19  -1
M  END
> <s_m_source_file>
AV-unprocessed.smi

> <i_m_source_file_index>
535

> <i_lp_mmshare_version>
43012

> <i_f3d_flags>
0

> <s_epik_input>
W0NIM11uMWMoPU8pW25IXWMoPU8pYyhjMTIpbihbQ0gyXVtDSDJdT1tDSDNdKWMobjIpTjNbQ0gyXVtDSDJdW0NIMl1bQ0BASF0oW0NIM10pW0NIMl0z

> <s_epik_cmdline>
J2VwaWtfcHl0aG9uJywgJy1waCcsICc3LjAnLCAnLXRuJywgJzgnLCAnLW1hJywgJzIwMCcsICctbWV0YWxfYmluZGluZycsICctaW1hZScsICc8aW5maWxlLm1hZT4nLCAnLW9tYWUnLCAnPG91dGZpbGUubWFlPic=

> <r_lp_tautomer_probability>
1

> <r_epik_Ionization_Penalty>
5.11375

> <r_epik_Ionization_Penalty_Charging>
0.0788329

> <r_epik_Ionization_Penalty_Neutral>
5.03492

> <r_epik_State_Penalty>
5.02848

> <r_epik_Charging_Adjusted_Penalty>
5.10731

> <i_epik_Tot_Q>
-1

> <i_epik_Tot_abs_Q>
1

> <r_epik_Metal_State_Penalty>
1.14014

> <b_epik_Metal_Only>
1

> <s_lp_Force_Field>
OPLS_2005

> <r_lp_Energy>
43.1913

> <b_lp_Chiralities_Consistent>
1

> <s_lp_Variant>
AV-unprocessed.smi:535-3

> <Gold.Version>
5.8.1

> <Gold.Id.Protein>
6NUR|6NUR_protein|mol2

> <Gold.PLP.Fitness>
42.7238

> <Gold.PLP.PLP>
-39.4072

> <Gold.PLP.part.hbond>
-1.7844

> <Gold.PLP.part.metal>
0.0000

> <Gold.PLP.part.buried>
-6.3310

> <Gold.PLP.part.nonpolar>
-31.8430

> <Gold.PLP.part.repulsive>
0.5303

> <Gold.PLP.ligand.clash>
1.1586

> <Gold.PLP.ligand.torsion>
1.0065

> <Gold.PLP.Chemscore.Hbond>
2.0000

> <Gold.PLP.Chemscore.CHOScore>
0.0000

> <Gold.PLP.Chemscore.Metal>
0.0000

> <Gold.Chemscore.Hbonds>
donor molecule, donor type, donor heavy atom, donor atom, acceptor molecule, acceptor atom, score
      P1  H 10752 10764       L1    19  1.90

> <Gold.PLP.Chemscore.Internal.Correction>
0.4881

> <Gold.Rescore>
     Score         DG    S(hbond)    S(metal)    S(lipo)     H(rot)  DE(clash)    DE(int)     intcor
     14.00     -16.62       0.91        0.00     100.79       1.44       0.49       2.14       ----

> <Gold.Chemscore.Fitness>
13.9993

> <Gold.Chemscore.DG>
-16.6243

> <Gold.Chemscore.ZeroCoef>
-5.4800

> <Gold.Chemscore.Hbond>
0.9075

> <Gold.Chemscore.Metal>
0.0000

> <Gold.Chemscore.Lipo>
100.7900

> <Gold.Chemscore.Internal_Hbond>
0.0000

> <Gold.Chemscore.DEClash>
0.4854

> <Gold.Chemscore.DEInternal>
2.1396

> <Gold.Chemscore.Rot>
1.4372

> <Gold.Chemscore.Internal.Correction>
   9.000000E+99

> <Gold.Chemscore.Hbonds>
donor molecule, donor type, donor heavy atom, donor atom, acceptor molecule, acceptor atom, score
      P1  H 10752 10764       L1    19  0.21

> <Gold.Chemscore.Hbond.Weighted>
-3.0312

> <Gold.Chemscore.Metal.Weighted>
-0.0000

> <Gold.Chemscore.Lipo.Weighted>
-11.7924

> <Gold.Chemscore.Internal_Hbond.Weighted>
0.0000

> <Gold.Chemscore.DEClash.Weighted>
0.4854

> <Gold.Chemscore.DEInternal.Weighted>
2.1396

> <Gold.Chemscore.Rot.Weighted>
3.6793

> <Gold.Chemscore.Internal.Correction.Weighted>
   9.000000E+99

> <Gold.Protein.RotatedTorsions>
[ 6907 6896 6895 6894 ] final   70.74 input  -60.11 | X-H torsion
[ 7974 7965 7964 7962 ] final   69.06 input  175.53 | X-H torsion
[ 8008 7997 7996 7995 ] final   89.67 input   59.86 | X-H torsion
[ 10167 10162 10161 10158 ] final  -56.98 input  -65.29 | X-H torsion
[ 10718 10713 10712 10709 ] final -138.53 input   66.30 | X-H torsion
[ 10763 10752 10751 10750 ] final  -35.48 input  -60.55 | X-H torsion
[ 11005 11000 10999 10996 ] final -142.04 input  -57.11 | X-H torsion

> <Gold.Protein.ActiveResidues>
 VAL166  LYS551  ARG553  GLY616  TRP617  ASP618  TYR619  PRO620  LYS621  CYS622 
 ASP623  PHE694  ASN695  SER759  ASP760  ASP761  ALA762  ILE779  LEU786  VAL792 
 PHE793  MET794  SER795  GLU796  ALA797  LYS798  CYS799  TRP800  GLU811  SER814 

> <Gold.Protein.RotatedAtoms>
  152.4768  134.4824  159.9669 H   0  0  0  0  0  0  0  0  0  0  0  0  # atno 6907 bound_to 6896
  151.4839  133.3534  159.2850 H   0  0  0  0  0  0  0  0  0  0  0  0  # atno 6908 bound_to 6896
  150.8811  134.8229  159.7287 H   0  0  0  0  0  0  0  0  0  0  0  0  # atno 6909 bound_to 6896
  145.7950  139.2953  143.1188 H   0  0  0  0  0  0  0  0  0  0  0  0  # atno 7974 bound_to 7965
  156.0028  140.3358  155.6862 H   0  0  0  0  0  0  0  0  0  0  0  0  # atno 8008 bound_to 7997
  155.6267  140.0680  157.2679 H   0  0  0  0  0  0  0  0  0  0  0  0  # atno 8009 bound_to 7997
  154.4255  140.1767  156.1416 H   0  0  0  0  0  0  0  0  0  0  0  0  # atno 8010 bound_to 7997
  140.6285  143.2449  151.5301 H   0  0  0  0  0  0  0  0  0  0  0  0  # atno 10167 bound_to 10162
  156.3004  130.7425  151.1475 H   0  0  0  0  0  0  0  0  0  0  0  0  # atno 10718 bound_to 10713
  153.8639  135.6837  153.4780 H   0  0  0  0  0  0  0  0  0  0  0  0  # atno 10763 bound_to 10752
  153.1326  135.4691  154.9370 H   0  0  0  0  0  0  0  0  0  0  0  0  # atno 10764 bound_to 10752
  154.7746  135.3249  154.8069 H   0  0  0  0  0  0  0  0  0  0  0  0  # atno 10765 bound_to 10752
  140.8265  134.2569  157.4877 H   0  0  0  0  0  0  0  0  0  0  0  0  # atno 11005 bound_to 11000
  145.9937  140.8581  143.0053 LP  0  0  0  0  0  0  0  0  0  0  0  0  # atno 17320 bound_to 7965
  144.6776  140.2252  143.7362 LP  0  0  0  0  0  0  0  0  0  0  0  0  # atno 17321 bound_to 7965
  139.5502  144.2415  152.1517 LP  0  0  0  0  0  0  0  0  0  0  0  0  # atno 17342 bound_to 10162
  140.1652  144.4988  150.6610 LP  0  0  0  0  0  0  0  0  0  0  0  0  # atno 17343 bound_to 10162
  157.7366  131.0560  150.5402 LP  0  0  0  0  0  0  0  0  0  0  0  0  # atno 17370 bound_to 10713
  156.5529  130.4236  149.6099 LP  0  0  0  0  0  0  0  0  0  0  0  0  # atno 17371 bound_to 10713
  139.8706  134.9563  156.4233 LP  0  0  0  0  0  0  0  0  0  0  0  0  # atno 17394 bound_to 11000
  140.9044  133.7756  155.9718 LP  0  0  0  0  0  0  0  0  0  0  0  0  # atno 17395 bound_to 11000

$$$$
