AV-unprocessed.smi:2881|AV-procd|sdf|11069|dock1
  -GOLD-   2272015543D 1   1.00000     0.00000
 Structure written by MMmdl.
 40 42  0  0  0  0  0  0  0  0  1 V2000
  152.1153  145.3609  159.7098 C   0  0  0  0  0  0  0  0  0  0  0  0
  151.8055  144.2298  158.7741 C   0  0  0  0  0  0  0  0  0  0  0  0
  152.0428  142.8372  158.9671 C   0  0  0  0  0  0  0  0  0  0  0  0
  151.5708  142.2518  157.8254 C   0  0  0  0  0  0  0  0  0  0  0  0
  151.5195  140.8188  157.3983 C   0  0  0  0  0  0  0  0  0  0  0  0
  151.0368  140.6711  155.9519 C   0  0  0  0  0  0  0  0  0  0  0  0
  151.7795  140.2016  155.0891 O   0  0  0  0  0  0  0  0  0  0  0  0
  149.7871  141.0873  155.6965 N   0  0  0  0  0  0  0  0  0  0  0  0
  149.1409  141.0410  154.3840 C   0  0  2  0  0  0  0  0  0  0  0  0
  147.8619  141.9141  154.2931 C   0  0  2  0  0  0  0  0  0  0  0  0
  146.9031  141.6280  155.4684 C   0  0  0  0  0  0  0  0  0  0  0  0
  146.3862  140.2154  155.1424 C   0  0  0  0  0  0  0  0  0  0  0  0
  147.0922  139.8870  153.8098 C   0  0  1  0  0  0  0  0  0  0  0  0
  147.1096  141.2564  153.1408 C   0  0  0  0  0  0  0  0  0  0  0  0
  148.6083  139.6322  153.9980 C   0  0  2  0  0  0  0  0  0  0  0  0
  148.9905  138.4541  154.9221 C   0  0  0  0  0  0  0  0  0  0  0  0
  148.4340  137.2513  154.4356 O   0  0  0  0  0  0  0  0  0  0  0  0
  151.1018  143.2774  157.0356 N   0  0  0  0  0  0  0  0  0  0  0  0
  151.2384  144.4891  157.6054 N   0  0  0  0  0  0  0  0  0  0  0  0
  150.6892  143.1668  156.1203 H   0  0  0  0  0  0  0  0  0  0  0  0
  152.6466  145.0068  160.5935 H   0  0  0  0  0  0  0  0  0  0  0  0
  151.2022  145.8525  160.0465 H   0  0  0  0  0  0  0  0  0  0  0  0
  152.7406  146.1119  159.2264 H   0  0  0  0  0  0  0  0  0  0  0  0
  152.4874  142.3428  159.8182 H   0  0  0  0  0  0  0  0  0  0  0  0
  150.8414  140.2637  158.0467 H   0  0  0  0  0  0  0  0  0  0  0  0
  152.5042  140.3631  157.5133 H   0  0  0  0  0  0  0  0  0  0  0  0
  149.2468  141.4693  156.4588 H   0  0  0  0  0  0  0  0  0  0  0  0
  149.8602  141.3617  153.6274 H   0  0  0  0  0  0  0  0  0  0  0  0
  148.0690  142.9758  154.1536 H   0  0  0  0  0  0  0  0  0  0  0  0
  147.3778  141.6874  156.4477 H   0  0  0  0  0  0  0  0  0  0  0  0
  146.0778  142.3412  155.4680 H   0  0  0  0  0  0  0  0  0  0  0  0
  146.5970  139.4964  155.9324 H   0  0  0  0  0  0  0  0  0  0  0  0
  145.3044  140.2345  155.0051 H   0  0  0  0  0  0  0  0  0  0  0  0
  146.5898  139.1104  153.2323 H   0  0  0  0  0  0  0  0  0  0  0  0
  146.1138  141.6729  152.9778 H   0  0  0  0  0  0  0  0  0  0  0  0
  147.6600  141.2742  152.1983 H   0  0  0  0  0  0  0  0  0  0  0  0
  149.0186  139.3961  153.0142 H   0  0  0  0  0  0  0  0  0  0  0  0
  150.0743  138.3380  154.9498 H   0  0  0  0  0  0  0  0  0  0  0  0
  148.6639  138.6106  155.9495 H   0  0  0  0  0  0  0  0  0  0  0  0
  148.5608  137.2176  153.4999 H   0  0  0  0  0  0  0  0  0  0  0  0
  1 21  1  0  0  0  0
  1 22  1  0  0  0  0
  1 23  1  0  0  0  0
  1  2  1  0  0  0  0
  2 19  2  0  0  0  0
  2  3  1  0  0  0  0
  3  4  2  0  0  0  0
  3 24  1  0  0  0  0
  4 18  1  0  0  0  0
  4  5  1  0  0  0  0
  5  6  1  0  0  0  0
  5 25  1  0  0  0  0
  5 26  1  0  0  0  0
  6  7  2  0  0  0  0
  6  8  1  0  0  0  0
  8  9  1  0  0  0  0
  8 27  1  0  0  0  0
  9 15  1  0  0  0  0
  9 10  1  0  0  0  0
  9 28  1  0  0  0  0
 10 14  1  0  0  0  0
 10 11  1  0  0  0  0
 10 29  1  0  0  0  0
 11 12  1  0  0  0  0
 11 30  1  0  0  0  0
 11 31  1  0  0  0  0
 12 13  1  0  0  0  0
 12 32  1  0  0  0  0
 12 33  1  0  0  0  0
 13 14  1  0  0  0  0
 13 15  1  0  0  0  0
 13 34  1  0  0  0  0
 14 35  1  0  0  0  0
 14 36  1  0  0  0  0
 15 16  1  0  0  0  0
 15 37  1  0  0  0  0
 16 17  1  0  0  0  0
 16 38  1  0  0  0  0
 16 39  1  0  0  0  0
 17 40  1  0  0  0  0
 18 19  1  0  0  0  0
 18 20  1  0  0  0  0
M  END
> <s_m_source_file>
AV-unprocessed.smi

> <i_m_source_file_index>
2881

> <i_lp_mmshare_version>
43012

> <i_f3d_flags>
0

> <s_epik_input>
W0NIM11jMVtjSF1jKG5bbkhdMSlbQ0gyXUMoPU8pW05IXVtDQEhdKFtDQEBIXTIzKVtDQEhdKFtDSDJdW09IXSlbQ0BASF0oW0NIMl0zKVtDSDJdW0NIMl0y

> <s_epik_cmdline>
J2VwaWtfcHl0aG9uJywgJy1waCcsICc3LjAnLCAnLXRuJywgJzgnLCAnLW1hJywgJzIwMCcsICctbWV0YWxfYmluZGluZycsICctaW1hZScsICc8aW5maWxlLm1hZT4nLCAnLW9tYWUnLCAnPG91dGZpbGUubWFlPic=

> <r_lp_tautomer_probability>
0.5

> <r_epik_Ionization_Penalty>
0.00013396

> <r_epik_Ionization_Penalty_Charging>
0

> <r_epik_Ionization_Penalty_Neutral>
0.00013396

> <r_epik_State_Penalty>
0.41068

> <r_epik_Charging_Adjusted_Penalty>
0.41068

> <i_epik_Tot_Q>
0

> <i_epik_Tot_abs_Q>
0

> <r_epik_Metal_State_Penalty>
0.41066

> <b_epik_Metal_Only>
0

> <s_lp_Force_Field>
OPLS_2005

> <r_lp_Energy>
50.1234

> <b_lp_Chiralities_Consistent>
1

> <s_lp_Variant>
AV-unprocessed.smi:2881-15

> <Gold.Version>
5.8.1

> <Gold.Id.Protein>
6NUR|6NUR_protein|mol2

> <Gold.PLP.Fitness>
41.7196

> <Gold.PLP.PLP>
-36.5107

> <Gold.PLP.part.hbond>
-3.0000

> <Gold.PLP.part.metal>
0.0000

> <Gold.PLP.part.buried>
-5.8325

> <Gold.PLP.part.nonpolar>
-29.4884

> <Gold.PLP.part.repulsive>
1.0669

> <Gold.PLP.ligand.clash>
0.0000

> <Gold.PLP.ligand.torsion>
0.2808

> <Gold.PLP.Chemscore.Hbond>
1.9194

> <Gold.PLP.Chemscore.CHOScore>
0.0000

> <Gold.PLP.Chemscore.Metal>
0.0000

> <Gold.Chemscore.Hbonds>
donor molecule, donor type, donor heavy atom, donor atom, acceptor molecule, acceptor atom, score
      L1  H    17    40       P1  7948  1.00
      L1  H    18    20       P1  8028  0.01
      P1  H  7989  7998       L1     7  0.88

> <Gold.PLP.Chemscore.Internal.Correction>
0.0123

> <Gold.Rescore>
     Score         DG    S(hbond)    S(metal)    S(lipo)     H(rot)  DE(clash)    DE(int)     intcor
     14.70     -17.98       2.11        0.00      96.34       2.28       1.40       1.88       ----

> <Gold.Chemscore.Fitness>
14.7005

> <Gold.Chemscore.DG>
-17.9847

> <Gold.Chemscore.ZeroCoef>
-5.4800

> <Gold.Chemscore.Hbond>
2.1132

> <Gold.Chemscore.Metal>
0.0000

> <Gold.Chemscore.Lipo>
96.3400

> <Gold.Chemscore.Internal_Hbond>
0.0000

> <Gold.Chemscore.DEClash>
1.4002

> <Gold.Chemscore.DEInternal>
1.8840

> <Gold.Chemscore.Rot>
2.2755

> <Gold.Chemscore.Internal.Correction>
   9.000000E+99

> <Gold.Chemscore.Hbonds>
donor molecule, donor type, donor heavy atom, donor atom, acceptor molecule, acceptor atom, score
      L1  H    17    40       P1  7948  0.95
      L1  H    18    20       P1  8028  0.02
      P1  H  7989  7998       L1     7  0.82

> <Gold.Chemscore.Hbond.Weighted>
-7.0582

> <Gold.Chemscore.Metal.Weighted>
-0.0000

> <Gold.Chemscore.Lipo.Weighted>
-11.2718

> <Gold.Chemscore.Internal_Hbond.Weighted>
0.0000

> <Gold.Chemscore.DEClash.Weighted>
1.4002

> <Gold.Chemscore.DEInternal.Weighted>
1.8840

> <Gold.Chemscore.Rot.Weighted>
5.8252

> <Gold.Chemscore.Internal.Correction.Weighted>
   9.000000E+99

> <Gold.Protein.RotatedTorsions>
[ 6907 6896 6895 6894 ] final  -97.14 input  -60.11 | X-H torsion
[ 7974 7965 7964 7962 ] final  -34.06 input  175.53 | X-H torsion
[ 8008 7997 7996 7995 ] final  -46.72 input   59.86 | X-H torsion
[ 10167 10162 10161 10158 ] final  138.37 input  -65.29 | X-H torsion
[ 10718 10713 10712 10709 ] final -172.07 input   66.30 | X-H torsion
[ 10763 10752 10751 10750 ] final   79.79 input  -60.55 | X-H torsion
[ 11005 11000 10999 10996 ] final   63.32 input  -57.11 | X-H torsion

> <Gold.Protein.ActiveResidues>
 VAL166  LYS551  ARG553  GLY616  TRP617  ASP618  TYR619  PRO620  LYS621  CYS622 
 ASP623  PHE694  ASN695  SER759  ASP760  ASP761  ALA762  ILE779  LEU786  VAL792 
 PHE793  MET794  SER795  GLU796  ALA797  LYS798  CYS799  TRP800  GLU811  SER814 

> <Gold.Protein.RotatedAtoms>
  150.7008  134.1394  159.4099 H   0  0  0  0  0  0  0  0  0  0  0  0  # atno 6907 bound_to 6896
  151.9379  135.0224  160.0543 H   0  0  0  0  0  0  0  0  0  0  0  0  # atno 6908 bound_to 6896
  152.2119  133.4883  159.5152 H   0  0  0  0  0  0  0  0  0  0  0  0  # atno 6909 bound_to 6896
  146.0860  140.5993  142.8886 H   0  0  0  0  0  0  0  0  0  0  0  0  # atno 7974 bound_to 7965
  154.4010  140.1364  156.4058 H   0  0  0  0  0  0  0  0  0  0  0  0  # atno 8008 bound_to 7997
  155.7781  140.3482  155.5262 H   0  0  0  0  0  0  0  0  0  0  0  0  # atno 8009 bound_to 7997
  155.8701  140.0970  157.1546 H   0  0  0  0  0  0  0  0  0  0  0  0  # atno 8010 bound_to 7997
  139.5113  144.6357  151.5702 H   0  0  0  0  0  0  0  0  0  0  0  0  # atno 10167 bound_to 10162
  156.7501  130.9375  151.3114 H   0  0  0  0  0  0  0  0  0  0  0  0  # atno 10718 bound_to 10713
  153.0981  135.4827  154.8816 H   0  0  0  0  0  0  0  0  0  0  0  0  # atno 10763 bound_to 10752
  154.7347  135.3068  154.8834 H   0  0  0  0  0  0  0  0  0  0  0  0  # atno 10764 bound_to 10752
  153.9459  135.6829  153.4797 H   0  0  0  0  0  0  0  0  0  0  0  0  # atno 10765 bound_to 10752
  140.0033  134.6409  155.9896 H   0  0  0  0  0  0  0  0  0  0  0  0  # atno 11005 bound_to 11000
  144.7326  140.4716  143.6927 LP  0  0  0  0  0  0  0  0  0  0  0  0  # atno 17320 bound_to 7965
  145.6129  139.1515  143.3066 LP  0  0  0  0  0  0  0  0  0  0  0  0  # atno 17321 bound_to 7965
  140.6105  143.9444  150.6450 LP  0  0  0  0  0  0  0  0  0  0  0  0  # atno 17342 bound_to 10162
  140.2685  143.3473  152.1259 LP  0  0  0  0  0  0  0  0  0  0  0  0  # atno 17343 bound_to 10162
  157.6781  130.9113  150.0199 LP  0  0  0  0  0  0  0  0  0  0  0  0  # atno 17370 bound_to 10713
  156.1407  130.3642  149.9587 LP  0  0  0  0  0  0  0  0  0  0  0  0  # atno 17371 bound_to 10713
  141.1658  133.6537  156.4475 LP  0  0  0  0  0  0  0  0  0  0  0  0  # atno 17394 bound_to 11000
  140.4688  134.6773  157.5119 LP  0  0  0  0  0  0  0  0  0  0  0  0  # atno 17395 bound_to 11000

$$$$
