AV-unprocessed.smi:1641|AV-procd|sdf|6565|dock4
  -GOLD-   22720 7253D 1   1.00000     0.00000
 Structure written by MMmdl.
 40 41  0  0  0  0  0  0  0  0  2 V2000
  142.5751  143.5190  161.2983 C   0  0  0  0  0  0  0  0  0  0  0  0
  143.9081  143.2923  160.6720 C   0  0  0  0  0  0  0  0  0  0  0  0
  144.8191  142.4682  161.1951 N   0  0  0  0  0  0  0  0  0  0  0  0
  145.9790  142.4214  160.4351 N   0  0  0  0  0  0  0  0  0  0  0  0
  145.9335  143.2153  159.3559 C   0  0  0  0  0  0  0  0  0  0  0  0
  146.9547  143.3070  158.4879 N   0  5  0  0  0  0  0  0  0  0  0  0
  147.4688  142.1895  157.9254 C   0  0  0  0  0  0  0  0  0  0  0  0
  147.1273  141.0281  158.1607 O   0  0  0  0  0  0  0  0  0  0  0  0
  148.4401  142.4321  157.0352 N   0  0  0  0  0  0  0  0  0  0  0  0
  149.1638  141.4185  156.2800 C   0  0  0  0  0  0  0  0  0  0  0  0
  150.6709  141.5243  156.5627 C   0  0  0  0  0  0  0  0  0  0  0  0
  151.0213  142.2359  157.7910 N   0  0  0  0  0  0  0  0  0  0  0  0
  151.5584  143.5699  157.5302 C   0  0  0  0  0  0  0  0  0  0  0  0
  151.9696  144.3114  158.8185 C   0  0  1  0  0  0  0  0  0  0  0  0
  150.7708  144.8265  159.6329 C   0  0  0  0  0  0  0  0  0  0  0  0
  152.8358  143.4955  159.6095 O   0  0  0  0  0  0  0  0  0  0  0  0
  152.3451  142.1862  159.8921 C   0  0  2  0  0  0  0  0  0  0  0  0
  153.4219  141.4318  160.6793 C   0  0  0  0  0  0  0  0  0  0  0  0
  151.9913  141.4794  158.5718 C   0  0  0  0  0  0  0  0  0  0  0  0
  144.4080  144.0845  159.1870 S   0  0  0  0  0  0  0  0  0  0  0  0
  142.6969  143.9683  162.2841 H   0  0  0  0  0  0  0  0  0  0  0  0
  142.0457  142.5720  161.4052 H   0  0  0  0  0  0  0  0  0  0  0  0
  141.9738  144.1873  160.6818 H   0  0  0  0  0  0  0  0  0  0  0  0
  148.6913  143.3956  156.8701 H   0  0  0  0  0  0  0  0  0  0  0  0
  148.7761  140.4394  156.5616 H   0  0  0  0  0  0  0  0  0  0  0  0
  148.9772  141.5501  155.2127 H   0  0  0  0  0  0  0  0  0  0  0  0
  151.0647  140.5085  156.6225 H   0  0  0  0  0  0  0  0  0  0  0  0
  151.1716  141.9896  155.7123 H   0  0  0  0  0  0  0  0  0  0  0  0
  152.4305  143.4865  156.8796 H   0  0  0  0  0  0  0  0  0  0  0  0
  150.8313  144.1772  156.9918 H   0  0  0  0  0  0  0  0  0  0  0  0
  152.5541  145.1851  158.5289 H   0  0  0  0  0  0  0  0  0  0  0  0
  150.1844  145.5378  159.0506 H   0  0  0  0  0  0  0  0  0  0  0  0
  151.1048  145.3354  160.5371 H   0  0  0  0  0  0  0  0  0  0  0  0
  150.1004  144.0206  159.9305 H   0  0  0  0  0  0  0  0  0  0  0  0
  151.4538  142.2602  160.5160 H   0  0  0  0  0  0  0  0  0  0  0  0
  153.0884  140.4259  160.9350 H   0  0  0  0  0  0  0  0  0  0  0  0
  153.6589  141.9496  161.6089 H   0  0  0  0  0  0  0  0  0  0  0  0
  154.3433  141.3432  160.1030 H   0  0  0  0  0  0  0  0  0  0  0  0
  151.5930  140.4884  158.7934 H   0  0  0  0  0  0  0  0  0  0  0  0
  152.8983  141.3259  157.9847 H   0  0  0  0  0  0  0  0  0  0  0  0
  1  2  1  0  0  0  0
  1 21  1  0  0  0  0
  1 22  1  0  0  0  0
  1 23  1  0  0  0  0
  2 20  1  0  0  0  0
  2  3  2  0  0  0  0
  3  4  1  0  0  0  0
  4  5  2  0  0  0  0
  5  6  1  0  0  0  0
  5 20  1  0  0  0  0
  6  7  1  0  0  0  0
  7  8  2  0  0  0  0
  7  9  1  0  0  0  0
  9 10  1  0  0  0  0
  9 24  1  0  0  0  0
 10 11  1  0  0  0  0
 10 25  1  0  0  0  0
 10 26  1  0  0  0  0
 11 12  1  0  0  0  0
 11 27  1  0  0  0  0
 11 28  1  0  0  0  0
 12 19  1  0  0  0  0
 12 13  1  0  0  0  0
 13 14  1  0  0  0  0
 13 29  1  0  0  0  0
 13 30  1  0  0  0  0
 14 15  1  0  0  0  0
 14 16  1  0  0  0  0
 14 31  1  0  0  0  0
 15 32  1  0  0  0  0
 15 33  1  0  0  0  0
 15 34  1  0  0  0  0
 16 17  1  0  0  0  0
 17 18  1  0  0  0  0
 17 19  1  0  0  0  0
 17 35  1  0  0  0  0
 18 36  1  0  0  0  0
 18 37  1  0  0  0  0
 18 38  1  0  0  0  0
 19 39  1  0  0  0  0
 19 40  1  0  0  0  0
M  CHG  1   6  -1
M  END
> <s_m_source_file>
AV-unprocessed.smi

> <i_m_source_file_index>
1641

> <i_lp_mmshare_version>
43012

> <i_f3d_flags>
0

> <s_epik_input>
W0NIM11jMW5uYyhzMSlbTkhdQyg9TylbTkhdW0NIMl1bQ0gyXU4yW0NIMl1bQ0BASF0oW0NIM10pT1tDQEBIXShbQ0gzXSlbQ0gyXTI=

> <s_epik_cmdline>
J2VwaWtfcHl0aG9uJywgJy1waCcsICc3LjAnLCAnLXRuJywgJzgnLCAnLW1hJywgJzIwMCcsICctbWV0YWxfYmluZGluZycsICctaW1hZScsICc8aW5maWxlLm1hZT4nLCAnLW9tYWUnLCAnPG91dGZpbGUubWFlPic=

> <r_lp_tautomer_probability>
1

> <r_epik_Ionization_Penalty>
3.81681

> <r_epik_Ionization_Penalty_Charging>
3.36369

> <r_epik_Ionization_Penalty_Neutral>
0.45313

> <r_epik_State_Penalty>
3.571

> <r_epik_Charging_Adjusted_Penalty>
6.93469

> <i_epik_Tot_Q>
-1

> <i_epik_Tot_abs_Q>
1

> <r_epik_Metal_State_Penalty>
0.710322

> <b_epik_Metal_Only>
1

> <s_lp_Force_Field>
OPLS_2005

> <r_lp_Energy>
20.315

> <b_lp_Chiralities_Consistent>
1

> <s_lp_Variant>
AV-unprocessed.smi:1641-10

> <Gold.Version>
5.8.1

> <Gold.Id.Protein>
6NUR|6NUR_protein|mol2

> <Gold.PLP.Fitness>
44.8296

> <Gold.PLP.PLP>
-40.1100

> <Gold.PLP.part.hbond>
-4.1920

> <Gold.PLP.part.metal>
0.0000

> <Gold.PLP.part.buried>
-6.0359

> <Gold.PLP.part.nonpolar>
-30.2367

> <Gold.PLP.part.repulsive>
1.1282

> <Gold.PLP.ligand.clash>
0.0000

> <Gold.PLP.ligand.torsion>
1.4438

> <Gold.PLP.Chemscore.Hbond>
2.5194

> <Gold.PLP.Chemscore.CHOScore>
0.0000

> <Gold.PLP.Chemscore.Metal>
0.0000

> <Gold.Chemscore.Hbonds>
donor molecule, donor type, donor heavy atom, donor atom, acceptor molecule, acceptor atom, score
      L1  H     9    24       P1  8028  0.94
      P1  H  6934  6946       L1     4  1.00

> <Gold.PLP.Chemscore.Internal.Correction>
0.0491

> <Gold.Rescore>
     Score         DG    S(hbond)    S(metal)    S(lipo)     H(rot)  DE(clash)    DE(int)     intcor
     14.20     -17.96       1.55        0.00      96.69       1.57       1.93       1.83       ----

> <Gold.Chemscore.Fitness>
14.1969

> <Gold.Chemscore.DG>
-17.9571

> <Gold.Chemscore.ZeroCoef>
-5.4800

> <Gold.Chemscore.Hbond>
1.5508

> <Gold.Chemscore.Metal>
0.0000

> <Gold.Chemscore.Lipo>
96.6919

> <Gold.Chemscore.Internal_Hbond>
0.0000

> <Gold.Chemscore.DEClash>
1.9328

> <Gold.Chemscore.DEInternal>
1.8274

> <Gold.Chemscore.Rot>
1.5686

> <Gold.Chemscore.Internal.Correction>
   9.000000E+99

> <Gold.Chemscore.Hbonds>
donor molecule, donor type, donor heavy atom, donor atom, acceptor molecule, acceptor atom, score
      L1  H     9    24       P1  8028  0.45
      P1  H  6934  6946       L1     4  0.78

> <Gold.Chemscore.Hbond.Weighted>
-5.1798

> <Gold.Chemscore.Metal.Weighted>
-0.0000

> <Gold.Chemscore.Lipo.Weighted>
-11.3130

> <Gold.Chemscore.Internal_Hbond.Weighted>
0.0000

> <Gold.Chemscore.DEClash.Weighted>
1.9328

> <Gold.Chemscore.DEInternal.Weighted>
1.8274

> <Gold.Chemscore.Rot.Weighted>
4.0157

> <Gold.Chemscore.Internal.Correction.Weighted>
   9.000000E+99

> <Gold.Protein.RotatedTorsions>
[ 6907 6896 6895 6894 ] final   69.96 input  -60.11 | X-H torsion
[ 7974 7965 7964 7962 ] final  135.74 input  175.53 | X-H torsion
[ 8008 7997 7996 7995 ] final  160.18 input   59.86 | X-H torsion
[ 10167 10162 10161 10158 ] final -161.56 input  -65.29 | X-H torsion
[ 10718 10713 10712 10709 ] final  101.02 input   66.30 | X-H torsion
[ 10763 10752 10751 10750 ] final -155.87 input  -60.55 | X-H torsion
[ 11005 11000 10999 10996 ] final  144.13 input  -57.11 | X-H torsion

> <Gold.Protein.ActiveResidues>
 VAL166  LYS551  ARG553  GLY616  TRP617  ASP618  TYR619  PRO620  LYS621  CYS622 
 ASP623  PHE694  ASN695  SER759  ASP760  ASP761  ALA762  ILE779  LEU786  VAL792 
 PHE793  MET794  SER795  GLU796  ALA797  LYS798  CYS799  TRP800  GLU811  SER814 

> <Gold.Protein.RotatedAtoms>
  152.4720  134.4938  159.9703 H   0  0  0  0  0  0  0  0  0  0  0  0  # atno 6907 bound_to 6896
  151.4963  133.3508  159.2869 H   0  0  0  0  0  0  0  0  0  0  0  0  # atno 6908 bound_to 6896
  150.8735  134.8141  159.7234 H   0  0  0  0  0  0  0  0  0  0  0  0  # atno 6909 bound_to 6896
  144.9633  139.4686  143.5469 H   0  0  0  0  0  0  0  0  0  0  0  0  # atno 7974 bound_to 7965
  156.2189  140.1811  156.7523 H   0  0  0  0  0  0  0  0  0  0  0  0  # atno 8008 bound_to 7997
  154.5835  140.0662  156.9166 H   0  0  0  0  0  0  0  0  0  0  0  0  # atno 8009 bound_to 7997
  155.2461  140.3325  155.4289 H   0  0  0  0  0  0  0  0  0  0  0  0  # atno 8010 bound_to 7997
  139.6456  144.0178  152.2125 H   0  0  0  0  0  0  0  0  0  0  0  0  # atno 10167 bound_to 10162
  157.6840  131.0714  150.5189 H   0  0  0  0  0  0  0  0  0  0  0  0  # atno 10718 bound_to 10713
  154.7755  135.3158  154.8101 H   0  0  0  0  0  0  0  0  0  0  0  0  # atno 10763 bound_to 10752
  153.8825  135.6833  153.4770 H   0  0  0  0  0  0  0  0  0  0  0  0  # atno 10764 bound_to 10752
  153.1378  135.4752  154.9385 H   0  0  0  0  0  0  0  0  0  0  0  0  # atno 10765 bound_to 10752
  140.0608  134.9205  157.1181 H   0  0  0  0  0  0  0  0  0  0  0  0  # atno 11005 bound_to 11000
  146.3360  139.8798  142.8826 LP  0  0  0  0  0  0  0  0  0  0  0  0  # atno 17320 bound_to 7965
  145.2667  141.0095  143.3795 LP  0  0  0  0  0  0  0  0  0  0  0  0  # atno 17321 bound_to 7965
  139.9879  144.6382  150.7841 LP  0  0  0  0  0  0  0  0  0  0  0  0  # atno 17342 bound_to 10162
  140.7513  143.2970  151.3179 LP  0  0  0  0  0  0  0  0  0  0  0  0  # atno 17343 bound_to 10162
  156.5503  130.4230  149.6111 LP  0  0  0  0  0  0  0  0  0  0  0  0  # atno 17370 bound_to 10713
  156.2908  130.7123  151.1971 LP  0  0  0  0  0  0  0  0  0  0  0  0  # atno 17371 bound_to 10713
  140.3773  134.2325  155.7173 LP  0  0  0  0  0  0  0  0  0  0  0  0  # atno 17394 bound_to 11000
  141.1972  133.8064  157.0637 LP  0  0  0  0  0  0  0  0  0  0  0  0  # atno 17395 bound_to 11000

$$$$
