AV-unprocessed.smi:3155|AV-procd|sdf|12028|dock7
  -GOLD-   2272017443D 1   1.00000     0.00000
 Structure written by MMmdl.
 37 38  0  0  0  0  0  0  0  0  1 V2000
  147.4762  142.0351  154.8703 C   0  0  0  0  0  0  0  0  0  0  0  0
  148.6034  141.0872  155.3046 C   0  0  1  0  0  0  0  0  0  0  0  0
  148.9616  140.1099  154.1602 C   0  0  0  0  0  0  0  0  0  0  0  0
  150.1852  139.3621  154.3919 N   0  0  0  0  0  0  0  0  0  0  0  0
  150.3998  138.0059  154.2591 C   0  0  0  0  0  0  0  0  0  0  0  0
  151.7072  137.7680  154.5721 C   0  0  0  0  0  0  0  0  0  0  0  0
  152.2230  139.0594  154.8722 C   0  0  0  0  0  0  0  0  0  0  0  0
  151.3124  140.0119  154.7540 N   0  0  0  0  0  0  0  0  0  0  0  0
  149.7430  141.9257  155.6684 N   0  0  0  0  0  0  0  0  0  0  0  0
  150.2869  141.6037  156.9941 C   0  0  0  0  0  0  0  0  0  0  0  0
  149.8371  142.6198  158.0494 C   0  0  0  0  0  0  0  0  0  0  0  0
  148.6749  142.5743  158.4533 O   0  0  0  0  0  0  0  0  0  0  0  0
  150.7236  143.5300  158.5060 N   0  0  0  0  0  0  0  0  0  0  0  0
  150.4648  144.5449  159.5264 C   0  0  0  0  0  0  0  0  0  0  0  0
  151.8282  145.1419  159.8732 C   0  0  0  0  0  0  0  0  0  0  0  0
  152.6636  144.9131  158.6216 C   0  0  0  0  0  0  0  0  0  0  0  0
  152.1028  143.6195  158.0302 C   0  0  0  0  0  0  0  0  0  0  0  0
  146.5759  141.4776  154.6098 H   0  0  0  0  0  0  0  0  0  0  0  0
  147.7627  142.6254  153.9989 H   0  0  0  0  0  0  0  0  0  0  0  0
  147.2094  142.7271  155.6700 H   0  0  0  0  0  0  0  0  0  0  0  0
  148.2414  140.5360  156.1741 H   0  0  0  0  0  0  0  0  0  0  0  0
  148.1622  139.3778  154.0396 H   0  0  0  0  0  0  0  0  0  0  0  0
  149.0328  140.6425  153.2099 H   0  0  0  0  0  0  0  0  0  0  0  0
  149.6110  137.3303  153.9625 H   0  0  0  0  0  0  0  0  0  0  0  0
  152.2186  136.8170  154.5821 H   0  0  0  0  0  0  0  0  0  0  0  0
  153.2255  139.3320  155.1679 H   0  0  0  0  0  0  0  0  0  0  0  0
  149.4510  142.8923  155.6351 H   0  0  0  0  0  0  0  0  0  0  0  0
  149.9407  140.6139  157.2954 H   0  0  0  0  0  0  0  0  0  0  0  0
  151.3738  141.5568  156.9717 H   0  0  0  0  0  0  0  0  0  0  0  0
  149.8096  145.3111  159.1095 H   0  0  0  0  0  0  0  0  0  0  0  0
  149.9862  144.1287  160.4135 H   0  0  0  0  0  0  0  0  0  0  0  0
  151.7692  146.1926  160.1589 H   0  0  0  0  0  0  0  0  0  0  0  0
  152.2651  144.5926  160.7085 H   0  0  0  0  0  0  0  0  0  0  0  0
  152.5035  145.7349  157.9224 H   0  0  0  0  0  0  0  0  0  0  0  0
  153.7322  144.8550  158.8304 H   0  0  0  0  0  0  0  0  0  0  0  0
  152.6612  142.7569  158.3965 H   0  0  0  0  0  0  0  0  0  0  0  0
  152.1616  143.6243  156.9407 H   0  0  0  0  0  0  0  0  0  0  0  0
  1  2  1  0  0  0  0
  1 18  1  0  0  0  0
  1 19  1  0  0  0  0
  1 20  1  0  0  0  0
  2  3  1  0  0  0  0
  2  9  1  0  0  0  0
  2 21  1  0  0  0  0
  3  4  1  0  0  0  0
  3 22  1  0  0  0  0
  3 23  1  0  0  0  0
  4  8  1  0  0  0  0
  4  5  1  0  0  0  0
  5  6  2  0  0  0  0
  5 24  1  0  0  0  0
  6  7  1  0  0  0  0
  6 25  1  0  0  0  0
  7  8  2  0  0  0  0
  7 26  1  0  0  0  0
  9 10  1  0  0  0  0
  9 27  1  0  0  0  0
 10 11  1  0  0  0  0
 10 28  1  0  0  0  0
 10 29  1  0  0  0  0
 11 12  2  0  0  0  0
 11 13  1  0  0  0  0
 13 17  1  0  0  0  0
 13 14  1  0  0  0  0
 14 15  1  0  0  0  0
 14 30  1  0  0  0  0
 14 31  1  0  0  0  0
 15 16  1  0  0  0  0
 15 32  1  0  0  0  0
 15 33  1  0  0  0  0
 16 17  1  0  0  0  0
 16 34  1  0  0  0  0
 16 35  1  0  0  0  0
 17 36  1  0  0  0  0
 17 37  1  0  0  0  0
M  END
> <s_m_source_file>
AV-unprocessed.smi

> <i_m_source_file_index>
3155

> <i_lp_mmshare_version>
43012

> <i_f3d_flags>
0

> <s_epik_input>
bjFbY0hdW2NIXVtjSF1uMVtDSDJdW0NAQEhdKFtDSDNdKVtOSF1bQ0gyXUMoPU8pTjJbQ0gyXVtDSDJdW0NIMl1bQ0gyXTI=

> <s_epik_cmdline>
J2VwaWtfcHl0aG9uJywgJy1waCcsICc3LjAnLCAnLXRuJywgJzgnLCAnLW1hJywgJzIwMCcsICctbWV0YWxfYmluZGluZycsICctaW1hZScsICc8aW5maWxlLm1hZT4nLCAnLW9tYWUnLCAnPG91dGZpbGUubWFlPic=

> <r_lp_tautomer_probability>
1

> <r_epik_Ionization_Penalty>
1.00455

> <r_epik_Ionization_Penalty_Charging>
0

> <r_epik_Ionization_Penalty_Neutral>
1.00455

> <r_epik_State_Penalty>
1.05336

> <r_epik_Charging_Adjusted_Penalty>
1.05336

> <i_epik_Tot_Q>
0

> <i_epik_Tot_abs_Q>
0

> <r_epik_Metal_State_Penalty>
1.05331

> <b_epik_Metal_Only>
0

> <s_lp_Force_Field>
OPLS_2005

> <r_lp_Energy>
30.9369

> <b_lp_Chiralities_Consistent>
1

> <s_lp_Variant>
AV-unprocessed.smi:3155-4

> <Gold.Version>
5.8.1

> <Gold.Id.Protein>
6NUR|6NUR_protein|mol2

> <Gold.PLP.Fitness>
47.7633

> <Gold.PLP.PLP>
-41.4377

> <Gold.PLP.part.hbond>
-2.0000

> <Gold.PLP.part.metal>
0.0000

> <Gold.PLP.part.buried>
-3.8907

> <Gold.PLP.part.nonpolar>
-36.1556

> <Gold.PLP.part.repulsive>
0.2196

> <Gold.PLP.ligand.clash>
0.0000

> <Gold.PLP.ligand.torsion>
1.3465

> <Gold.PLP.Chemscore.Hbond>
2.0000

> <Gold.PLP.Chemscore.CHOScore>
1.0000

> <Gold.PLP.Chemscore.Metal>
0.0000

> <Gold.Chemscore.Hbonds>
donor molecule, donor type, donor heavy atom, donor atom, acceptor molecule, acceptor atom, score
      L1  H     9    27       P1  8028  1.00
      P1  H  7989  7998       L1     8  1.00
      L1  C     5    24       P1  7948  1.00

> <Gold.PLP.Chemscore.Internal.Correction>
0.0186

> <Gold.Rescore>
     Score         DG    S(hbond)    S(metal)    S(lipo)     H(rot)  DE(clash)    DE(int)     intcor
     16.96     -18.14       1.92        0.00      92.16       1.77       0.05       1.14       ----

> <Gold.Chemscore.Fitness>
16.9564

> <Gold.Chemscore.DG>
-18.1409

> <Gold.Chemscore.ZeroCoef>
-5.4800

> <Gold.Chemscore.Hbond>
1.9185

> <Gold.Chemscore.Metal>
0.0000

> <Gold.Chemscore.Lipo>
92.1563

> <Gold.Chemscore.Internal_Hbond>
0.0000

> <Gold.Chemscore.DEClash>
0.0477

> <Gold.Chemscore.DEInternal>
1.1368

> <Gold.Chemscore.Rot>
1.7693

> <Gold.Chemscore.Internal.Correction>
   9.000000E+99

> <Gold.Chemscore.Hbonds>
donor molecule, donor type, donor heavy atom, donor atom, acceptor molecule, acceptor atom, score
      L1  H     9    27       P1  8028  1.00
      P1  H  7989  7998       L1     8  0.26

> <Gold.Chemscore.Hbond.Weighted>
-6.4079

> <Gold.Chemscore.Metal.Weighted>
-0.0000

> <Gold.Chemscore.Lipo.Weighted>
-10.7823

> <Gold.Chemscore.Internal_Hbond.Weighted>
0.0000

> <Gold.Chemscore.DEClash.Weighted>
0.0477

> <Gold.Chemscore.DEInternal.Weighted>
1.1368

> <Gold.Chemscore.Rot.Weighted>
4.5294

> <Gold.Chemscore.Internal.Correction.Weighted>
   9.000000E+99

> <Gold.Protein.RotatedTorsions>
[ 6907 6896 6895 6894 ] final  -83.08 input  -60.11 | X-H torsion
[ 7974 7965 7964 7962 ] final   89.05 input  175.53 | X-H torsion
[ 8008 7997 7996 7995 ] final   88.24 input   59.86 | X-H torsion
[ 10167 10162 10161 10158 ] final   17.46 input  -65.29 | X-H torsion
[ 10718 10713 10712 10709 ] final   80.24 input   66.30 | X-H torsion
[ 10763 10752 10751 10750 ] final  -74.15 input  -60.55 | X-H torsion
[ 11005 11000 10999 10996 ] final  -95.94 input  -57.11 | X-H torsion

> <Gold.Protein.ActiveResidues>
 VAL166  LYS551  ARG553  GLY616  TRP617  ASP618  TYR619  PRO620  LYS621  CYS622 
 ASP623  PHE694  ASN695  SER759  ASP760  ASP761  ALA762  ILE779  LEU786  VAL792 
 PHE793  MET794  SER795  GLU796  ALA797  LYS798  CYS799  TRP800  GLU811  SER814 

> <Gold.Protein.RotatedAtoms>
  150.6889  134.3566  159.4931 H   0  0  0  0  0  0  0  0  0  0  0  0  # atno 6907 bound_to 6896
  152.1400  134.9067  160.0563 H   0  0  0  0  0  0  0  0  0  0  0  0  # atno 6908 bound_to 6896
  152.0204  133.3861  159.4293 H   0  0  0  0  0  0  0  0  0  0  0  0  # atno 6909 bound_to 6896
  145.5375  139.2286  143.2584 H   0  0  0  0  0  0  0  0  0  0  0  0  # atno 7974 bound_to 7965
  155.9854  140.3373  155.6702 H   0  0  0  0  0  0  0  0  0  0  0  0  # atno 8008 bound_to 7997
  155.6493  140.0704  157.2610 H   0  0  0  0  0  0  0  0  0  0  0  0  # atno 8009 bound_to 7997
  154.4203  140.1728  156.1645 H   0  0  0  0  0  0  0  0  0  0  0  0  # atno 8010 bound_to 7997
  140.5724  143.9136  150.6723 H   0  0  0  0  0  0  0  0  0  0  0  0  # atno 10167 bound_to 10162
  157.6800  130.9951  150.2051 H   0  0  0  0  0  0  0  0  0  0  0  0  # atno 10718 bound_to 10713
  154.4692  135.5874  153.6310 H   0  0  0  0  0  0  0  0  0  0  0  0  # atno 10763 bound_to 10752
  152.9832  135.6063  154.3388 H   0  0  0  0  0  0  0  0  0  0  0  0  # atno 10764 bound_to 10752
  154.3268  135.2843  155.2471 H   0  0  0  0  0  0  0  0  0  0  0  0  # atno 10765 bound_to 10752
  141.1427  133.8062  157.0504 H   0  0  0  0  0  0  0  0  0  0  0  0  # atno 11005 bound_to 11000
  146.2003  140.6194  142.9105 LP  0  0  0  0  0  0  0  0  0  0  0  0  # atno 17320 bound_to 7965
  144.7594  140.5385  143.6746 LP  0  0  0  0  0  0  0  0  0  0  0  0  # atno 17321 bound_to 7965
  140.2615  143.3521  152.1319 LP  0  0  0  0  0  0  0  0  0  0  0  0  # atno 17342 bound_to 10162
  139.5124  144.6917  151.5742 LP  0  0  0  0  0  0  0  0  0  0  0  0  # atno 17343 bound_to 10162
  156.2733  130.3724  149.8009 LP  0  0  0  0  0  0  0  0  0  0  0  0  # atno 17370 bound_to 10713
  156.5719  130.8428  151.3359 LP  0  0  0  0  0  0  0  0  0  0  0  0  # atno 17371 bound_to 10713
  140.0636  134.9741  157.1347 LP  0  0  0  0  0  0  0  0  0  0  0  0  # atno 17394 bound_to 11000
  140.3813  134.2284  155.7171 LP  0  0  0  0  0  0  0  0  0  0  0  0  # atno 17395 bound_to 11000

$$$$
