AV-unprocessed.smi:2335|AV-procd|sdf|9324|dock5
  -GOLD-   2272012543D 1   1.00000     0.00000
 Structure written by MMmdl.
 42 43  0  0  0  0  0  0  0  0  1 V2000
  150.5054  142.3381  156.2622 C   0  0  0  0  0  0  0  0  0  0  0  0
  149.3921  141.3911  156.7226 C   0  0  0  0  0  0  0  0  0  0  0  0
  148.4301  141.0640  155.6299 C   0  0  0  0  0  0  0  0  0  0  0  0
  148.3516  141.7745  154.4978 N   0  0  0  0  0  0  0  0  0  0  0  0
  147.4056  141.2634  153.6200 N   0  0  0  0  0  0  0  0  0  0  0  0
  146.8079  140.1693  154.1114 C   0  0  0  0  0  0  0  0  0  0  0  0
  145.8022  139.4416  153.4224 N   0  0  0  0  0  0  0  0  0  0  0  0
  145.7691  138.1277  153.1394 C   0  0  0  0  0  0  0  0  0  0  0  0
  146.6332  137.3089  153.4530 O   0  0  0  0  0  0  0  0  0  0  0  0
  144.6604  137.8095  152.4569 N   0  0  0  0  0  0  0  0  0  0  0  0
  144.3266  136.4733  151.9671 C   0  0  1  0  0  0  0  0  0  0  0  0
  145.5400  135.7722  151.3891 C   0  0  0  0  0  0  0  0  0  0  0  0
  145.1715  134.2880  151.5030 C   0  0  0  0  0  0  0  0  0  0  0  0
  144.4330  133.7800  150.2527 C   0  0  0  0  0  0  0  0  0  0  0  0
  146.3909  133.4082  151.8173 C   0  0  0  0  0  0  0  0  0  0  0  0
  144.2592  134.2061  152.5969 O   0  0  0  0  0  0  0  0  0  0  0  0
  143.8723  135.4949  153.0727 C   0  0  0  0  0  0  0  0  0  0  0  0
  144.5840  135.6915  154.4278 C   0  0  0  0  0  0  0  0  0  0  0  0
  142.3465  135.4915  153.2558 C   0  0  0  0  0  0  0  0  0  0  0  0
  147.3566  139.6717  155.7027 S   0  0  0  0  0  0  0  0  0  0  0  0
  151.1912  142.5584  157.0803 H   0  0  0  0  0  0  0  0  0  0  0  0
  150.0951  143.2838  155.9070 H   0  0  0  0  0  0  0  0  0  0  0  0
  151.0848  141.8981  155.4501 H   0  0  0  0  0  0  0  0  0  0  0  0
  149.8252  140.4628  157.0958 H   0  0  0  0  0  0  0  0  0  0  0  0
  148.8449  141.8362  157.5544 H   0  0  0  0  0  0  0  0  0  0  0  0
  145.0167  139.9879  153.1020 H   0  0  0  0  0  0  0  0  0  0  0  0
  144.0049  138.5466  152.2433 H   0  0  0  0  0  0  0  0  0  0  0  0
  143.5681  136.5345  151.1841 H   0  0  0  0  0  0  0  0  0  0  0  0
  145.7624  136.0823  150.3673 H   0  0  0  0  0  0  0  0  0  0  0  0
  146.4209  135.9910  151.9953 H   0  0  0  0  0  0  0  0  0  0  0  0
  145.0700  133.8336  149.3693 H   0  0  0  0  0  0  0  0  0  0  0  0
  143.5365  134.3668  150.0507 H   0  0  0  0  0  0  0  0  0  0  0  0
  144.1224  132.7419  150.3749 H   0  0  0  0  0  0  0  0  0  0  0  0
  147.1312  133.4603  151.0184 H   0  0  0  0  0  0  0  0  0  0  0  0
  146.1024  132.3633  151.9361 H   0  0  0  0  0  0  0  0  0  0  0  0
  146.8763  133.7202  152.7426 H   0  0  0  0  0  0  0  0  0  0  0  0
  144.3108  136.6396  154.8917 H   0  0  0  0  0  0  0  0  0  0  0  0
  145.6685  135.6732  154.3190 H   0  0  0  0  0  0  0  0  0  0  0  0
  144.3145  134.9002  155.1275 H   0  0  0  0  0  0  0  0  0  0  0  0
  141.9904  136.4515  153.6294 H   0  0  0  0  0  0  0  0  0  0  0  0
  142.0359  134.7251  153.9665 H   0  0  0  0  0  0  0  0  0  0  0  0
  141.8356  135.2908  152.3136 H   0  0  0  0  0  0  0  0  0  0  0  0
  1  2  1  0  0  0  0
  1 21  1  0  0  0  0
  1 22  1  0  0  0  0
  1 23  1  0  0  0  0
  2  3  1  0  0  0  0
  2 24  1  0  0  0  0
  2 25  1  0  0  0  0
  3 20  1  0  0  0  0
  3  4  2  0  0  0  0
  4  5  1  0  0  0  0
  5  6  2  0  0  0  0
  6  7  1  0  0  0  0
  6 20  1  0  0  0  0
  7  8  1  0  0  0  0
  7 26  1  0  0  0  0
  8  9  2  0  0  0  0
  8 10  1  0  0  0  0
 10 11  1  0  0  0  0
 10 27  1  0  0  0  0
 11 17  1  0  0  0  0
 11 12  1  0  0  0  0
 11 28  1  0  0  0  0
 12 13  1  0  0  0  0
 12 29  1  0  0  0  0
 12 30  1  0  0  0  0
 13 14  1  0  0  0  0
 13 15  1  0  0  0  0
 13 16  1  0  0  0  0
 14 31  1  0  0  0  0
 14 32  1  0  0  0  0
 14 33  1  0  0  0  0
 15 34  1  0  0  0  0
 15 35  1  0  0  0  0
 15 36  1  0  0  0  0
 16 17  1  0  0  0  0
 17 18  1  0  0  0  0
 17 19  1  0  0  0  0
 18 37  1  0  0  0  0
 18 38  1  0  0  0  0
 18 39  1  0  0  0  0
 19 40  1  0  0  0  0
 19 41  1  0  0  0  0
 19 42  1  0  0  0  0
M  END
> <s_m_source_file>
AV-unprocessed.smi

> <i_m_source_file_index>
2335

> <i_lp_mmshare_version>
43012

> <i_f3d_flags>
0

> <s_epik_input>
W0NIM11bQ0gyXWMxbm5jKHMxKVtOSF1DKD1PKVtOSF1bQ0BASF0oQyhPMikoW0NIM10pW0NIM10pW0NIMl1DMihbQ0gzXSlbQ0gzXQ==

> <s_epik_cmdline>
J2VwaWtfcHl0aG9uJywgJy1waCcsICc3LjAnLCAnLXRuJywgJzgnLCAnLW1hJywgJzIwMCcsICctbWV0YWxfYmluZGluZycsICctaW1hZScsICc8aW5maWxlLm1hZT4nLCAnLW9tYWUnLCAnPG91dGZpbGUubWFlPic=

> <r_lp_tautomer_probability>
1

> <r_epik_Ionization_Penalty>
0.000542824

> <r_epik_Ionization_Penalty_Charging>
0

> <r_epik_Ionization_Penalty_Neutral>
0.000542824

> <r_epik_State_Penalty>
-0

> <r_epik_Charging_Adjusted_Penalty>
0

> <i_epik_Tot_Q>
0

> <i_epik_Tot_abs_Q>
0

> <r_epik_Metal_State_Penalty>
0.227439

> <b_epik_Metal_Only>
0

> <s_lp_Force_Field>
OPLS_2005

> <r_lp_Energy>
12.5908

> <b_lp_Chiralities_Consistent>
1

> <s_lp_Variant>
AV-unprocessed.smi:2335-2

> <Gold.Version>
5.8.1

> <Gold.Id.Protein>
6NUR|6NUR_protein|mol2

> <Gold.PLP.Fitness>
29.6896

> <Gold.PLP.PLP>
-25.5325

> <Gold.PLP.part.hbond>
-3.0917

> <Gold.PLP.part.metal>
0.0000

> <Gold.PLP.part.buried>
-6.4046

> <Gold.PLP.part.nonpolar>
-17.9322

> <Gold.PLP.part.repulsive>
2.3451

> <Gold.PLP.ligand.clash>
0.0019

> <Gold.PLP.ligand.torsion>
0.9286

> <Gold.PLP.Chemscore.Hbond>
2.0000

> <Gold.PLP.Chemscore.CHOScore>
0.0000

> <Gold.PLP.Chemscore.Metal>
0.0000

> <Gold.Chemscore.Hbonds>
donor molecule, donor type, donor heavy atom, donor atom, acceptor molecule, acceptor atom, score
      L1  H     7    26       P1 10175  1.00
      L1  H    10    27       P1 10175  0.90

> <Gold.PLP.Chemscore.Internal.Correction>
0.0162

> <Gold.Rescore>
     Score         DG    S(hbond)    S(metal)    S(lipo)     H(rot)  DE(clash)    DE(int)     intcor
      9.97     -15.25       1.96        0.00      53.98       1.21       0.40       4.89       ----

> <Gold.Chemscore.Fitness>
9.9726

> <Gold.Chemscore.DG>
-15.2541

> <Gold.Chemscore.ZeroCoef>
-5.4800

> <Gold.Chemscore.Hbond>
1.9605

> <Gold.Chemscore.Metal>
0.0000

> <Gold.Chemscore.Lipo>
53.9780

> <Gold.Chemscore.Internal_Hbond>
0.0000

> <Gold.Chemscore.DEClash>
0.3964

> <Gold.Chemscore.DEInternal>
4.8851

> <Gold.Chemscore.Rot>
1.2068

> <Gold.Chemscore.Internal.Correction>
   9.000000E+99

> <Gold.Chemscore.Hbonds>
donor molecule, donor type, donor heavy atom, donor atom, acceptor molecule, acceptor atom, score
      L1  H     7    26       P1 10175  0.95
      L1  H    10    27       P1 10175  0.88

> <Gold.Chemscore.Hbond.Weighted>
-6.5482

> <Gold.Chemscore.Metal.Weighted>
-0.0000

> <Gold.Chemscore.Lipo.Weighted>
-6.3154

> <Gold.Chemscore.Internal_Hbond.Weighted>
0.0000

> <Gold.Chemscore.DEClash.Weighted>
0.3964

> <Gold.Chemscore.DEInternal.Weighted>
4.8851

> <Gold.Chemscore.Rot.Weighted>
3.0895

> <Gold.Chemscore.Internal.Correction.Weighted>
   9.000000E+99

> <Gold.Protein.RotatedTorsions>
[ 6907 6896 6895 6894 ] final  -56.41 input  -60.11 | X-H torsion
[ 7974 7965 7964 7962 ] final  135.38 input  175.53 | X-H torsion
[ 8008 7997 7996 7995 ] final   43.21 input   59.86 | X-H torsion
[ 10167 10162 10161 10158 ] final  157.57 input  -65.29 | X-H torsion
[ 10718 10713 10712 10709 ] final  132.18 input   66.30 | X-H torsion
[ 10763 10752 10751 10750 ] final -118.31 input  -60.55 | X-H torsion
[ 11005 11000 10999 10996 ] final   87.78 input  -57.11 | X-H torsion

> <Gold.Protein.ActiveResidues>
 VAL166  LYS551  ARG553  GLY616  TRP617  ASP618  TYR619  PRO620  LYS621  CYS622 
 ASP623  PHE694  ASN695  SER759  ASP760  ASP761  ALA762  ILE779  LEU786  VAL792 
 PHE793  MET794  SER795  GLU796  ALA797  LYS798  CYS799  TRP800  GLU811  SER814 

> <Gold.Protein.RotatedAtoms>
  150.8170  134.7358  159.6738 H   0  0  0  0  0  0  0  0  0  0  0  0  # atno 6907 bound_to 6896
  152.4288  134.5813  159.9958 H   0  0  0  0  0  0  0  0  0  0  0  0  # atno 6908 bound_to 6896
  151.6008  133.3319  159.3083 H   0  0  0  0  0  0  0  0  0  0  0  0  # atno 6909 bound_to 6896
  144.9669  139.4648  143.5452 H   0  0  0  0  0  0  0  0  0  0  0  0  # atno 7974 bound_to 7965
  155.2990  140.3384  155.4248 H   0  0  0  0  0  0  0  0  0  0  0  0  # atno 8008 bound_to 7997
  156.2010  140.1733  156.7938 H   0  0  0  0  0  0  0  0  0  0  0  0  # atno 8009 bound_to 7997
  154.5559  140.0696  156.8727 H   0  0  0  0  0  0  0  0  0  0  0  0  # atno 8010 bound_to 7997
  139.4823  144.4905  151.8315 H   0  0  0  0  0  0  0  0  0  0  0  0  # atno 10167 bound_to 10162
  157.4896  131.1090  150.9574 H   0  0  0  0  0  0  0  0  0  0  0  0  # atno 10718 bound_to 10713
  154.8583  135.4278  154.2119 H   0  0  0  0  0  0  0  0  0  0  0  0  # atno 10763 bound_to 10752
  153.3143  135.6978  153.7093 H   0  0  0  0  0  0  0  0  0  0  0  0  # atno 10764 bound_to 10752
  153.6173  135.3508  155.2973 H   0  0  0  0  0  0  0  0  0  0  0  0  # atno 10765 bound_to 10752
  139.8911  134.8445  156.2908 H   0  0  0  0  0  0  0  0  0  0  0  0  # atno 11005 bound_to 11000
  146.3370  139.8857  142.8817 LP  0  0  0  0  0  0  0  0  0  0  0  0  # atno 17320 bound_to 7965
  145.2616  141.0079  143.3823 LP  0  0  0  0  0  0  0  0  0  0  0  0  # atno 17321 bound_to 7965
  140.4388  144.2014  150.5890 LP  0  0  0  0  0  0  0  0  0  0  0  0  # atno 17342 bound_to 10162
  140.4704  143.2415  151.9097 LP  0  0  0  0  0  0  0  0  0  0  0  0  # atno 17343 bound_to 10162
  157.0280  130.5700  149.5339 LP  0  0  0  0  0  0  0  0  0  0  0  0  # atno 17370 bound_to 10713
  156.0166  130.5260  150.8152 LP  0  0  0  0  0  0  0  0  0  0  0  0  # atno 17371 bound_to 10713
  140.9977  133.7170  156.0912 LP  0  0  0  0  0  0  0  0  0  0  0  0  # atno 17394 bound_to 11000
  140.7540  134.4013  157.5537 LP  0  0  0  0  0  0  0  0  0  0  0  0  # atno 17395 bound_to 11000

$$$$
