AV-unprocessed.smi:2507|AV-procd|sdf|9863|dock4
  -GOLD-   2272013493D 1   1.00000     0.00000
 Structure written by MMmdl.
 44 45  0  0  0  0  0  0  0  0  1 V2000
  151.5344  141.1118  158.8677 C   0  0  0  0  0  0  0  0  0  0  0  0
  151.5238  141.8911  157.5478 C   0  0  0  0  0  0  0  0  0  0  0  0
  151.4188  140.9805  156.3550 C   0  0  0  0  0  0  0  0  0  0  0  0
  152.3392  140.0468  156.1535 N   0  0  0  0  0  0  0  0  0  0  0  0
  151.9585  139.4102  155.0204 N   0  0  0  0  0  0  0  0  0  0  0  0
  152.7640  138.3191  154.5157 C   0  0  0  0  0  0  0  0  0  0  0  0
  150.7958  139.9325  154.4925 C   0  0  0  0  0  0  0  0  0  0  0  0
  150.4297  140.9445  155.3344 C   0  0  0  0  0  0  0  0  0  0  0  0
  149.3090  141.8111  155.2567 N   0  0  0  0  0  0  0  0  0  0  0  0
  148.0331  141.4752  155.0057 C   0  0  0  0  0  0  0  0  0  0  0  0
  147.6242  140.3281  154.8249 O   0  0  0  0  0  0  0  0  0  0  0  0
  147.2418  142.5555  154.9738 N   0  0  0  0  0  0  0  0  0  0  0  0
  145.8082  142.5171  154.7193 C   0  0  0  0  0  0  0  0  0  0  0  0
  145.3773  143.7179  153.8642 C   0  0  0  0  0  0  0  0  0  0  0  0
  144.2153  144.5076  154.4877 C   0  0  2  0  0  0  0  0  0  0  0  0
  143.8908  145.7855  153.6893 C   0  0  0  0  0  0  0  0  0  0  0  0
  142.7822  146.5867  154.3814 C   0  0  0  0  0  0  0  0  0  0  0  0
  143.1629  146.8397  155.8439 C   0  0  0  0  0  0  0  0  0  0  0  0
  143.5339  145.5186  156.5363 C   0  0  0  0  0  0  0  0  0  0  0  0
  144.5795  144.8708  155.8183 O   0  0  0  0  0  0  0  0  0  0  0  0
  151.6033  141.7902  159.7183 H   0  0  0  0  0  0  0  0  0  0  0  0
  152.3848  140.4310  158.9164 H   0  0  0  0  0  0  0  0  0  0  0  0
  150.6245  140.5221  158.9840 H   0  0  0  0  0  0  0  0  0  0  0  0
  150.6931  142.5970  157.5535 H   0  0  0  0  0  0  0  0  0  0  0  0
  152.4292  142.4949  157.4771 H   0  0  0  0  0  0  0  0  0  0  0  0
  152.2861  137.8744  153.6424 H   0  0  0  0  0  0  0  0  0  0  0  0
  152.8760  137.5545  155.2851 H   0  0  0  0  0  0  0  0  0  0  0  0
  153.7492  138.6899  154.2313 H   0  0  0  0  0  0  0  0  0  0  0  0
  150.3508  139.5430  153.5888 H   0  0  0  0  0  0  0  0  0  0  0  0
  149.5028  142.7926  155.3918 H   0  0  0  0  0  0  0  0  0  0  0  0
  147.6566  143.4615  155.1351 H   0  0  0  0  0  0  0  0  0  0  0  0
  145.5518  141.5870  154.2092 H   0  0  0  0  0  0  0  0  0  0  0  0
  145.2779  142.5198  155.6727 H   0  0  0  0  0  0  0  0  0  0  0  0
  146.2269  144.3834  153.7047 H   0  0  0  0  0  0  0  0  0  0  0  0
  145.0782  143.3598  152.8782 H   0  0  0  0  0  0  0  0  0  0  0  0
  143.3313  143.8679  154.5184 H   0  0  0  0  0  0  0  0  0  0  0  0
  144.7859  146.4025  153.6015 H   0  0  0  0  0  0  0  0  0  0  0  0
  143.5860  145.5309  152.6737 H   0  0  0  0  0  0  0  0  0  0  0  0
  142.6133  147.5306  153.8627 H   0  0  0  0  0  0  0  0  0  0  0  0
  141.8447  146.0310  154.3366 H   0  0  0  0  0  0  0  0  0  0  0  0
  144.0105  147.5244  155.8886 H   0  0  0  0  0  0  0  0  0  0  0  0
  142.3402  147.3243  156.3703 H   0  0  0  0  0  0  0  0  0  0  0  0
  143.8736  145.7117  157.5538 H   0  0  0  0  0  0  0  0  0  0  0  0
  142.6674  144.8598  156.6100 H   0  0  0  0  0  0  0  0  0  0  0  0
  1  2  1  0  0  0  0
  1 21  1  0  0  0  0
  1 22  1  0  0  0  0
  1 23  1  0  0  0  0
  2  3  1  0  0  0  0
  2 24  1  0  0  0  0
  2 25  1  0  0  0  0
  3  8  1  0  0  0  0
  3  4  2  0  0  0  0
  4  5  1  0  0  0  0
  5  6  1  0  0  0  0
  5  7  1  0  0  0  0
  6 26  1  0  0  0  0
  6 27  1  0  0  0  0
  6 28  1  0  0  0  0
  7  8  2  0  0  0  0
  7 29  1  0  0  0  0
  8  9  1  0  0  0  0
  9 10  1  0  0  0  0
  9 30  1  0  0  0  0
 10 11  2  0  0  0  0
 10 12  1  0  0  0  0
 12 13  1  0  0  0  0
 12 31  1  0  0  0  0
 13 14  1  0  0  0  0
 13 32  1  0  0  0  0
 13 33  1  0  0  0  0
 14 15  1  0  0  0  0
 14 34  1  0  0  0  0
 14 35  1  0  0  0  0
 15 20  1  0  0  0  0
 15 16  1  0  0  0  0
 15 36  1  0  0  0  0
 16 17  1  0  0  0  0
 16 37  1  0  0  0  0
 16 38  1  0  0  0  0
 17 18  1  0  0  0  0
 17 39  1  0  0  0  0
 17 40  1  0  0  0  0
 18 19  1  0  0  0  0
 18 41  1  0  0  0  0
 18 42  1  0  0  0  0
 19 20  1  0  0  0  0
 19 43  1  0  0  0  0
 19 44  1  0  0  0  0
M  END
> <s_m_source_file>
AV-unprocessed.smi

> <i_m_source_file_index>
2507

> <i_lp_mmshare_version>
43012

> <i_f3d_flags>
0

> <s_epik_input>
W0NIM11bQ0gyXWMxbm4oW0NIM10pW2NIXWMxW05IXUMoPU8pW05IXVtDSDJdW0NIMl1bQ0BASF0yW0NIMl1bQ0gyXVtDSDJdW0NIMl1PMg==

> <s_epik_cmdline>
J2VwaWtfcHl0aG9uJywgJy1waCcsICc3LjAnLCAnLXRuJywgJzgnLCAnLW1hJywgJzIwMCcsICctbWV0YWxfYmluZGluZycsICctaW1hZScsICc8aW5maWxlLm1hZT4nLCAnLW9tYWUnLCAnPG91dGZpbGUubWFlPic=

> <r_lp_tautomer_probability>
1

> <r_epik_Ionization_Penalty>
0.00072031

> <r_epik_Ionization_Penalty_Charging>
0

> <r_epik_Ionization_Penalty_Neutral>
0.00072031

> <r_epik_State_Penalty>
-0

> <r_epik_Charging_Adjusted_Penalty>
0

> <i_epik_Tot_Q>
0

> <i_epik_Tot_abs_Q>
0

> <r_epik_Metal_State_Penalty>
-0

> <b_epik_Metal_Only>
0

> <s_lp_Force_Field>
OPLS_2005

> <r_lp_Energy>
7.60695

> <b_lp_Chiralities_Consistent>
1

> <s_lp_Variant>
AV-unprocessed.smi:2507-1

> <Gold.Version>
5.8.1

> <Gold.Id.Protein>
6NUR|6NUR_protein|mol2

> <Gold.PLP.Fitness>
46.9511

> <Gold.PLP.PLP>
-36.9819

> <Gold.PLP.part.hbond>
-3.0000

> <Gold.PLP.part.metal>
0.0000

> <Gold.PLP.part.buried>
2.8670

> <Gold.PLP.part.nonpolar>
-35.5676

> <Gold.PLP.part.repulsive>
0.4706

> <Gold.PLP.ligand.clash>
0.0000

> <Gold.PLP.ligand.torsion>
0.9266

> <Gold.PLP.Chemscore.Hbond>
2.9413

> <Gold.PLP.Chemscore.CHOScore>
0.9858

> <Gold.PLP.Chemscore.Metal>
0.0000

> <Gold.Chemscore.Hbonds>
donor molecule, donor type, donor heavy atom, donor atom, acceptor molecule, acceptor atom, score
      L1  H     9    30       P1  8028  0.99
      L1  H    12    31       P1  8028  1.00
      P1  H  7997  8008       L1     4  1.00
      L1  C     7    29       P1  7957  0.88

> <Gold.PLP.Chemscore.Internal.Correction>
0.0412

> <Gold.Rescore>
     Score         DG    S(hbond)    S(metal)    S(lipo)     H(rot)  DE(clash)    DE(int)     intcor
     15.71     -18.52       1.70        0.00      95.72       1.50       1.98       0.83       ----

> <Gold.Chemscore.Fitness>
15.7096

> <Gold.Chemscore.DG>
-18.5221

> <Gold.Chemscore.ZeroCoef>
-5.4800

> <Gold.Chemscore.Hbond>
1.7048

> <Gold.Chemscore.Metal>
0.0000

> <Gold.Chemscore.Lipo>
95.7169

> <Gold.Chemscore.Internal_Hbond>
0.0000

> <Gold.Chemscore.DEClash>
1.9845

> <Gold.Chemscore.DEInternal>
0.8280

> <Gold.Chemscore.Rot>
1.5042

> <Gold.Chemscore.Internal.Correction>
   9.000000E+99

> <Gold.Chemscore.Hbonds>
donor molecule, donor type, donor heavy atom, donor atom, acceptor molecule, acceptor atom, score
      L1  H     9    30       P1  8028  0.88
      L1  H    12    31       P1  8028  0.26
      P1  H  7997  8008       L1     4  0.75

> <Gold.Chemscore.Hbond.Weighted>
-5.6939

> <Gold.Chemscore.Metal.Weighted>
-0.0000

> <Gold.Chemscore.Lipo.Weighted>
-11.1989

> <Gold.Chemscore.Internal_Hbond.Weighted>
0.0000

> <Gold.Chemscore.DEClash.Weighted>
1.9845

> <Gold.Chemscore.DEInternal.Weighted>
0.8280

> <Gold.Chemscore.Rot.Weighted>
3.8507

> <Gold.Chemscore.Internal.Correction.Weighted>
   9.000000E+99

> <Gold.Protein.RotatedTorsions>
[ 6907 6896 6895 6894 ] final   45.80 input  -60.11 | X-H torsion
[ 7974 7965 7964 7962 ] final  -58.42 input  175.53 | X-H torsion
[ 8008 7997 7996 7995 ] final  -40.28 input   59.86 | X-H torsion
[ 10167 10162 10161 10158 ] final  115.13 input  -65.29 | X-H torsion
[ 10718 10713 10712 10709 ] final  -98.15 input   66.30 | X-H torsion
[ 10763 10752 10751 10750 ] final  -37.16 input  -60.55 | X-H torsion
[ 11005 11000 10999 10996 ] final -139.26 input  -57.11 | X-H torsion

> <Gold.Protein.ActiveResidues>
 VAL166  LYS551  ARG553  GLY616  TRP617  ASP618  TYR619  PRO620  LYS621  CYS622 
 ASP623  PHE694  ASN695  SER759  ASP760  ASP761  ALA762  ILE779  LEU786  VAL792 
 PHE793  MET794  SER795  GLU796  ALA797  LYS798  CYS799  TRP800  GLU811  SER814 

> <Gold.Protein.RotatedAtoms>
  152.2488  134.8154  160.0448 H   0  0  0  0  0  0  0  0  0  0  0  0  # atno 6907 bound_to 6896
  151.8841  133.3496  159.3784 H   0  0  0  0  0  0  0  0  0  0  0  0  # atno 6908 bound_to 6896
  150.7077  134.4915  159.5562 H   0  0  0  0  0  0  0  0  0  0  0  0  # atno 6909 bound_to 6896
  145.8395  140.8426  143.0042 H   0  0  0  0  0  0  0  0  0  0  0  0  # atno 7974 bound_to 7965
  154.4014  140.1529  156.3001 H   0  0  0  0  0  0  0  0  0  0  0  0  # atno 8008 bound_to 7997
  155.8708  140.3449  155.5798 H   0  0  0  0  0  0  0  0  0  0  0  0  # atno 8009 bound_to 7997
  155.7776  140.0839  157.2066 H   0  0  0  0  0  0  0  0  0  0  0  0  # atno 8010 bound_to 7997
  139.6339  144.7118  151.2375 H   0  0  0  0  0  0  0  0  0  0  0  0  # atno 10167 bound_to 10162
  156.0100  130.5225  150.6480 H   0  0  0  0  0  0  0  0  0  0  0  0  # atno 10718 bound_to 10713
  153.8917  135.6811  153.4760 H   0  0  0  0  0  0  0  0  0  0  0  0  # atno 10763 bound_to 10752
  153.1177  135.4754  154.9141 H   0  0  0  0  0  0  0  0  0  0  0  0  # atno 10764 bound_to 10752
  154.7619  135.3213  154.8315 H   0  0  0  0  0  0  0  0  0  0  0  0  # atno 10765 bound_to 10752
  140.8537  134.2255  157.4746 H   0  0  0  0  0  0  0  0  0  0  0  0  # atno 11005 bound_to 11000
  144.6734  140.0791  143.7470 LP  0  0  0  0  0  0  0  0  0  0  0  0  # atno 17320 bound_to 7965
  145.9481  139.2714  143.1229 LP  0  0  0  0  0  0  0  0  0  0  0  0  # atno 17321 bound_to 7965
  140.7454  143.6431  150.8316 LP  0  0  0  0  0  0  0  0  0  0  0  0  # atno 17342 bound_to 10162
  140.0060  143.5693  152.2857 LP  0  0  0  0  0  0  0  0  0  0  0  0  # atno 17343 bound_to 10162
  157.4247  131.0841  151.1097 LP  0  0  0  0  0  0  0  0  0  0  0  0  # atno 17370 bound_to 10713
  157.1688  130.6258  149.5634 LP  0  0  0  0  0  0  0  0  0  0  0  0  # atno 17371 bound_to 10713
  139.8704  134.9695  156.4670 LP  0  0  0  0  0  0  0  0  0  0  0  0  # atno 17394 bound_to 11000
  140.8762  133.7952  155.9417 LP  0  0  0  0  0  0  0  0  0  0  0  0  # atno 17395 bound_to 11000

$$$$
