AV-unprocessed.smi:3286|AV-procd|sdf|12588|dock2
  -GOLD-   2272018513D 1   1.00000     0.00000
 Structure written by MMmdl.
 43 44  0  0  0  0  0  0  0  0  2 V2000
  144.9158  132.3311  149.6156 C   0  0  0  0  0  0  0  0  0  0  0  0
  145.2074  133.5441  150.4740 C   0  0  0  0  0  0  0  0  0  0  0  0
  146.0321  133.4414  151.6140 C   0  0  0  0  0  0  0  0  0  0  0  0
  146.2707  134.6006  152.3763 C   0  0  0  0  0  0  0  0  0  0  0  0
  145.6771  135.8146  151.9727 C   0  0  0  0  0  0  0  0  0  0  0  0
  145.8778  137.0895  152.7730 C   0  0  0  0  0  0  0  0  0  0  0  0
  146.5333  138.2041  151.9442 C   0  0  0  0  0  0  0  0  0  0  0  0
  147.8955  138.5036  152.4327 N   0  3  0  0  0  0  0  0  0  0  0  0
  147.9644  139.0250  153.8159 C   0  0  2  0  0  0  0  0  0  0  0  0
  146.9998  140.2173  153.9319 C   0  0  0  0  0  0  0  0  0  0  0  0
  149.4299  139.3855  154.1770 C   0  0  0  0  0  0  0  0  0  0  0  0
  150.3280  138.1333  154.2781 C   0  0  0  0  0  0  0  0  0  0  0  0
  151.7571  138.4998  154.7081 C   0  0  0  0  0  0  0  0  0  0  0  0
  151.7259  139.1923  155.9492 O   0  0  0  0  0  0  0  0  0  0  0  0
  151.0172  140.4225  155.8726 C   0  0  0  0  0  0  0  0  0  0  0  0
  149.5475  140.1611  155.5053 C   0  0  0  0  0  0  0  0  0  0  0  0
  144.8770  135.8114  150.8099 C   0  0  0  0  0  0  0  0  0  0  0  0
  144.6392  134.7038  150.0763 N   0  0  0  0  0  0  0  0  0  0  0  0
  145.1634  131.4085  150.1414 H   0  0  0  0  0  0  0  0  0  0  0  0
  145.5028  132.3697  148.6977 H   0  0  0  0  0  0  0  0  0  0  0  0
  143.8593  132.2932  149.3476 H   0  0  0  0  0  0  0  0  0  0  0  0
  146.4721  132.4969  151.8991 H   0  0  0  0  0  0  0  0  0  0  0  0
  146.8930  134.5533  153.2582 H   0  0  0  0  0  0  0  0  0  0  0  0
  144.9192  137.4308  153.1670 H   0  0  0  0  0  0  0  0  0  0  0  0
  146.5000  136.8614  153.6393 H   0  0  0  0  0  0  0  0  0  0  0  0
  146.5882  137.9096  150.8956 H   0  0  0  0  0  0  0  0  0  0  0  0
  145.9210  139.1058  151.9921 H   0  0  0  0  0  0  0  0  0  0  0  0
  148.4345  137.6499  152.3957 H   0  0  0  0  0  0  0  0  0  0  0  0
  147.6178  138.2554  154.5082 H   0  0  0  0  0  0  0  0  0  0  0  0
  146.9037  140.5628  154.9607 H   0  0  0  0  0  0  0  0  0  0  0  0
  145.9984  139.9418  153.5991 H   0  0  0  0  0  0  0  0  0  0  0  0
  147.3313  141.0594  153.3234 H   0  0  0  0  0  0  0  0  0  0  0  0
  149.8293  140.0214  153.3848 H   0  0  0  0  0  0  0  0  0  0  0  0
  149.9050  137.4312  154.9978 H   0  0  0  0  0  0  0  0  0  0  0  0
  150.3733  137.6095  153.3235 H   0  0  0  0  0  0  0  0  0  0  0  0
  152.3555  137.5961  154.8256 H   0  0  0  0  0  0  0  0  0  0  0  0
  152.2486  139.1100  153.9486 H   0  0  0  0  0  0  0  0  0  0  0  0
  151.0770  140.9230  156.8392 H   0  0  0  0  0  0  0  0  0  0  0  0
  151.4894  141.0832  155.1437 H   0  0  0  0  0  0  0  0  0  0  0  0
  149.0311  141.1186  155.4430 H   0  0  0  0  0  0  0  0  0  0  0  0
  149.0687  139.5979  156.3074 H   0  0  0  0  0  0  0  0  0  0  0  0
  144.4025  136.7195  150.4680 H   0  0  0  0  0  0  0  0  0  0  0  0
  148.3203  139.1757  151.8101 H   0  0  0  0  0  0  0  0  0  0  0  0
  1  2  1  0  0  0  0
  1 19  1  0  0  0  0
  1 20  1  0  0  0  0
  1 21  1  0  0  0  0
  2 18  1  0  0  0  0
  2  3  2  0  0  0  0
  3  4  1  0  0  0  0
  3 22  1  0  0  0  0
  4  5  2  0  0  0  0
  4 23  1  0  0  0  0
  5  6  1  0  0  0  0
  5 17  1  0  0  0  0
  6  7  1  0  0  0  0
  6 24  1  0  0  0  0
  6 25  1  0  0  0  0
  7  8  1  0  0  0  0
  7 26  1  0  0  0  0
  7 27  1  0  0  0  0
  8  9  1  0  0  0  0
  8 28  1  0  0  0  0
  8 43  1  0  0  0  0
  9 10  1  0  0  0  0
  9 11  1  0  0  0  0
  9 29  1  0  0  0  0
 10 30  1  0  0  0  0
 10 31  1  0  0  0  0
 10 32  1  0  0  0  0
 11 16  1  0  0  0  0
 11 12  1  0  0  0  0
 11 33  1  0  0  0  0
 12 13  1  0  0  0  0
 12 34  1  0  0  0  0
 12 35  1  0  0  0  0
 13 14  1  0  0  0  0
 13 36  1  0  0  0  0
 13 37  1  0  0  0  0
 14 15  1  0  0  0  0
 15 16  1  0  0  0  0
 15 38  1  0  0  0  0
 15 39  1  0  0  0  0
 16 40  1  0  0  0  0
 16 41  1  0  0  0  0
 17 18  2  0  0  0  0
 17 42  1  0  0  0  0
M  CHG  1   8   1
M  END
> <s_m_source_file>
AV-unprocessed.smi

> <i_m_source_file_index>
3286

> <i_lp_mmshare_version>
43012

> <i_f3d_flags>
0

> <s_epik_input>
W0NIM11jMVtjSF1bY0hdYyhbY0hdbjEpW0NIMl1bQ0gyXVtOSF1bQ0BIXShbQ0gzXSlbQ0hdMltDSDJdW0NIMl1PW0NIMl1bQ0gyXTI=

> <s_epik_cmdline>
J2VwaWtfcHl0aG9uJywgJy1waCcsICc3LjAnLCAnLXRuJywgJzgnLCAnLW1hJywgJzIwMCcsICctbWV0YWxfYmluZGluZycsICctaW1hZScsICc8aW5maWxlLm1hZT4nLCAnLW9tYWUnLCAnPG91dGZpbGUubWFlPic=

> <r_lp_tautomer_probability>
1

> <r_epik_Ionization_Penalty>
0.00336271

> <r_epik_Ionization_Penalty_Charging>
0.000752246

> <r_epik_Ionization_Penalty_Neutral>
0.00261046

> <r_epik_State_Penalty>
-0

> <r_epik_Charging_Adjusted_Penalty>
0.000752246

> <i_epik_Tot_Q>
1

> <i_epik_Tot_abs_Q>
1

> <r_epik_Metal_State_Penalty>
-0

> <b_epik_Metal_Only>
0

> <s_lp_Force_Field>
OPLS_2005

> <r_lp_Energy>
17.7254

> <b_lp_Chiralities_Consistent>
1

> <s_lp_Variant>
AV-unprocessed.smi:3286-1

> <Gold.Version>
5.8.1

> <Gold.Id.Protein>
6NUR|6NUR_protein|mol2

> <Gold.PLP.Fitness>
46.2077

> <Gold.PLP.PLP>
-35.1300

> <Gold.PLP.part.hbond>
-2.0000

> <Gold.PLP.part.metal>
0.0000

> <Gold.PLP.part.buried>
-2.7728

> <Gold.PLP.part.nonpolar>
-31.8222

> <Gold.PLP.part.repulsive>
1.0089

> <Gold.PLP.ligand.clash>
0.0000

> <Gold.PLP.ligand.torsion>
0.4791

> <Gold.PLP.Chemscore.Hbond>
3.0000

> <Gold.PLP.Chemscore.CHOScore>
1.0000

> <Gold.PLP.Chemscore.Metal>
0.0000

> <Gold.Chemscore.Hbonds>
donor molecule, donor type, donor heavy atom, donor atom, acceptor molecule, acceptor atom, score
      L1  H     8    28       P1  7948  2.00
      L1  H     8    43       P1  7957  1.00
      L1  C    17    42       P1 10171  1.00

> <Gold.PLP.Chemscore.Internal.Correction>
0.0358

> <Gold.Rescore>
     Score         DG    S(hbond)    S(metal)    S(lipo)     H(rot)  DE(clash)    DE(int)     intcor
     18.87     -19.35       1.97        0.00      93.74       1.43       0.07       0.41       ----

> <Gold.Chemscore.Fitness>
18.8715

> <Gold.Chemscore.DG>
-19.3513

> <Gold.Chemscore.ZeroCoef>
-5.4800

> <Gold.Chemscore.Hbond>
1.9668

> <Gold.Chemscore.Metal>
0.0000

> <Gold.Chemscore.Lipo>
93.7375

> <Gold.Chemscore.Internal_Hbond>
0.0000

> <Gold.Chemscore.DEClash>
0.0725

> <Gold.Chemscore.DEInternal>
0.4073

> <Gold.Chemscore.Rot>
1.4317

> <Gold.Chemscore.Internal.Correction>
   9.000000E+99

> <Gold.Chemscore.Hbonds>
donor molecule, donor type, donor heavy atom, donor atom, acceptor molecule, acceptor atom, score
      L1  H     8    28       P1  7948  0.97
      L1  H     8    43       P1  7957  0.96

> <Gold.Chemscore.Hbond.Weighted>
-6.5691

> <Gold.Chemscore.Metal.Weighted>
-0.0000

> <Gold.Chemscore.Lipo.Weighted>
-10.9673

> <Gold.Chemscore.Internal_Hbond.Weighted>
0.0000

> <Gold.Chemscore.DEClash.Weighted>
0.0725

> <Gold.Chemscore.DEInternal.Weighted>
0.4073

> <Gold.Chemscore.Rot.Weighted>
3.6651

> <Gold.Chemscore.Internal.Correction.Weighted>
   9.000000E+99

> <Gold.Protein.RotatedTorsions>
[ 6907 6896 6895 6894 ] final   29.73 input  -60.11 | X-H torsion
[ 7974 7965 7964 7962 ] final  172.02 input  175.53 | X-H torsion
[ 8008 7997 7996 7995 ] final -171.77 input   59.86 | X-H torsion
[ 10167 10162 10161 10158 ] final  -40.02 input  -65.29 | X-H torsion
[ 10718 10713 10712 10709 ] final  -42.97 input   66.30 | X-H torsion
[ 10763 10752 10751 10750 ] final   35.56 input  -60.55 | X-H torsion
[ 11005 11000 10999 10996 ] final   42.81 input  -57.11 | X-H torsion

> <Gold.Protein.ActiveResidues>
 VAL166  LYS551  ARG553  GLY616  TRP617  ASP618  TYR619  PRO620  LYS621  CYS622 
 ASP623  PHE694  ASN695  SER759  ASP760  ASP761  ALA762  ILE779  LEU786  VAL792 
 PHE793  MET794  SER795  GLU796  ALA797  LYS798  CYS799  TRP800  GLU811  SER814 

> <Gold.Protein.RotatedAtoms>
  152.0357  134.9741  160.0573 H   0  0  0  0  0  0  0  0  0  0  0  0  # atno 6907 bound_to 6896
  152.1200  133.4343  159.4679 H   0  0  0  0  0  0  0  0  0  0  0  0  # atno 6908 bound_to 6896
  150.6848  134.2465  159.4537 H   0  0  0  0  0  0  0  0  0  0  0  0  # atno 6909 bound_to 6896
  144.7279  139.9436  143.6429 H   0  0  0  0  0  0  0  0  0  0  0  0  # atno 7974 bound_to 7965
  155.9359  140.1099  157.1095 H   0  0  0  0  0  0  0  0  0  0  0  0  # atno 8008 bound_to 7997
  154.4079  140.1228  156.4929 H   0  0  0  0  0  0  0  0  0  0  0  0  # atno 8009 bound_to 7997
  155.7023  140.3472  155.4940 H   0  0  0  0  0  0  0  0  0  0  0  0  # atno 8010 bound_to 7997
  140.7047  143.3179  151.2865 H   0  0  0  0  0  0  0  0  0  0  0  0  # atno 10167 bound_to 10162
  156.2540  130.4190  149.8618 H   0  0  0  0  0  0  0  0  0  0  0  0  # atno 10718 bound_to 10713
  153.0114  135.6330  154.1846 H   0  0  0  0  0  0  0  0  0  0  0  0  # atno 10763 bound_to 10752
  154.1588  135.2825  155.3116 H   0  0  0  0  0  0  0  0  0  0  0  0  # atno 10764 bound_to 10752
  154.5997  135.5591  153.7422 H   0  0  0  0  0  0  0  0  0  0  0  0  # atno 10765 bound_to 10752
  140.1704  134.4229  155.8261 H   0  0  0  0  0  0  0  0  0  0  0  0  # atno 11005 bound_to 11000
  146.0766  139.3754  143.0490 LP  0  0  0  0  0  0  0  0  0  0  0  0  # atno 17320 bound_to 7965
  145.7897  140.9820  143.1055 LP  0  0  0  0  0  0  0  0  0  0  0  0  # atno 17321 bound_to 7965
  139.6623  144.0167  152.2700 LP  0  0  0  0  0  0  0  0  0  0  0  0  # atno 17342 bound_to 10162
  139.9739  144.6475  150.7964 LP  0  0  0  0  0  0  0  0  0  0  0  0  # atno 17343 bound_to 10162
  156.6156  130.8605  151.3464 LP  0  0  0  0  0  0  0  0  0  0  0  0  # atno 17370 bound_to 10713
  157.7225  130.9578  150.1497 LP  0  0  0  0  0  0  0  0  0  0  0  0  # atno 17371 bound_to 10713
  141.2217  133.6953  156.7753 LP  0  0  0  0  0  0  0  0  0  0  0  0  # atno 17394 bound_to 11000
  140.2384  134.8632  157.3548 LP  0  0  0  0  0  0  0  0  0  0  0  0  # atno 17395 bound_to 11000

$$$$
