AV-unprocessed.smi:314|AV-procd|sdf|2313|dock7
  -GOLD-   2262022213D 1   1.00000     0.00000
 Structure written by MMmdl.
 48 49  0  0  0  0  0  0  0  0  1 V2000
  145.8336  130.8828  151.1288 C   0  0  0  0  0  0  0  0  0  0  0  0
  145.0133  131.8039  150.4184 O   0  0  0  0  0  0  0  0  0  0  0  0
  145.1034  133.1430  150.7385 C   0  0  0  0  0  0  0  0  0  0  0  0
  144.2415  134.0506  150.0920 C   0  0  0  0  0  0  0  0  0  0  0  0
  144.3267  135.4191  150.4119 C   0  0  0  0  0  0  0  0  0  0  0  0
  145.2733  135.8393  151.3778 C   0  0  0  0  0  0  0  0  0  0  0  0
  145.4733  137.1856  151.7925 N   0  0  0  0  0  0  0  0  0  0  0  0
  146.0141  137.6588  152.9288 C   0  0  0  0  0  0  0  0  0  0  0  0
  146.4548  136.9765  153.8530 O   0  0  0  0  0  0  0  0  0  0  0  0
  146.0260  138.9991  152.9339 N   0  0  0  0  0  0  0  0  0  0  0  0
  146.5311  139.8298  154.0213 C   0  0  0  0  0  0  0  0  0  0  0  0
  148.0726  139.8996  154.0191 C   0  0  0  0  0  0  0  0  0  0  0  0
  148.6549  140.7757  155.1422 C   0  0  0  0  0  0  0  0  0  0  0  0
  147.8831  141.3592  155.9051 O   0  0  0  0  0  0  0  0  0  0  0  0
  150.0004  140.8831  155.2596 N   0  0  0  0  0  0  0  0  0  0  0  0
  150.9989  140.1752  154.4532 C   0  0  0  0  0  0  0  0  0  0  0  0
  151.7566  139.1969  155.3730 C   0  0  1  0  0  0  0  0  0  0  0  0
  152.8663  138.4431  154.6324 C   0  0  0  0  0  0  0  0  0  0  0  0
  152.3548  139.9304  156.4413 O   0  0  0  0  0  0  0  0  0  0  0  0
  151.4195  140.6643  157.2309 C   0  0  1  0  0  0  0  0  0  0  0  0
  152.1929  141.3823  158.3421 C   0  0  0  0  0  0  0  0  0  0  0  0
  150.6543  141.6486  156.3238 C   0  0  0  0  0  0  0  0  0  0  0  0
  146.0927  134.8508  151.9615 C   0  0  0  0  0  0  0  0  0  0  0  0
  146.0168  133.5378  151.6592 N   0  0  0  0  0  0  0  0  0  0  0  0
  145.6429  129.8739  150.7635 H   0  0  0  0  0  0  0  0  0  0  0  0
  145.6137  130.8945  152.1972 H   0  0  0  0  0  0  0  0  0  0  0  0
  146.8935  131.0939  150.9792 H   0  0  0  0  0  0  0  0  0  0  0  0
  143.5275  133.7033  149.3597 H   0  0  0  0  0  0  0  0  0  0  0  0
  143.6701  136.1057  149.9029 H   0  0  0  0  0  0  0  0  0  0  0  0
  145.1880  137.8838  151.1214 H   0  0  0  0  0  0  0  0  0  0  0  0
  145.6459  139.4817  152.1328 H   0  0  0  0  0  0  0  0  0  0  0  0
  146.1074  140.8269  153.8949 H   0  0  0  0  0  0  0  0  0  0  0  0
  146.1620  139.4517  154.9764 H   0  0  0  0  0  0  0  0  0  0  0  0
  148.4791  138.8924  154.1181 H   0  0  0  0  0  0  0  0  0  0  0  0
  148.4119  140.2942  153.0606 H   0  0  0  0  0  0  0  0  0  0  0  0
  150.5772  139.6363  153.6064 H   0  0  0  0  0  0  0  0  0  0  0  0
  151.6910  140.9017  154.0243 H   0  0  0  0  0  0  0  0  0  0  0  0
  151.0581  138.4685  155.7892 H   0  0  0  0  0  0  0  0  0  0  0  0
  152.4600  137.8519  153.8114 H   0  0  0  0  0  0  0  0  0  0  0  0
  153.3895  137.7625  155.3045 H   0  0  0  0  0  0  0  0  0  0  0  0
  153.6028  139.1317  154.2171 H   0  0  0  0  0  0  0  0  0  0  0  0
  150.7172  139.9656  157.6893 H   0  0  0  0  0  0  0  0  0  0  0  0
  151.5201  141.9499  158.9853 H   0  0  0  0  0  0  0  0  0  0  0  0
  152.9252  142.0757  157.9277 H   0  0  0  0  0  0  0  0  0  0  0  0
  152.7280  140.6682  158.9683 H   0  0  0  0  0  0  0  0  0  0  0  0
  151.3415  142.3698  155.8788 H   0  0  0  0  0  0  0  0  0  0  0  0
  149.9506  142.2318  156.9193 H   0  0  0  0  0  0  0  0  0  0  0  0
  146.8348  135.1201  152.6989 H   0  0  0  0  0  0  0  0  0  0  0  0
  1  2  1  0  0  0  0
  1 25  1  0  0  0  0
  1 26  1  0  0  0  0
  1 27  1  0  0  0  0
  2  3  1  0  0  0  0
  3 24  1  0  0  0  0
  3  4  2  0  0  0  0
  4  5  1  0  0  0  0
  4 28  1  0  0  0  0
  5  6  2  0  0  0  0
  5 29  1  0  0  0  0
  6  7  1  0  0  0  0
  6 23  1  0  0  0  0
  7  8  1  0  0  0  0
  7 30  1  0  0  0  0
  8  9  2  0  0  0  0
  8 10  1  0  0  0  0
 10 11  1  0  0  0  0
 10 31  1  0  0  0  0
 11 12  1  0  0  0  0
 11 32  1  0  0  0  0
 11 33  1  0  0  0  0
 12 13  1  0  0  0  0
 12 34  1  0  0  0  0
 12 35  1  0  0  0  0
 13 14  2  0  0  0  0
 13 15  1  0  0  0  0
 15 22  1  0  0  0  0
 15 16  1  0  0  0  0
 16 17  1  0  0  0  0
 16 36  1  0  0  0  0
 16 37  1  0  0  0  0
 17 18  1  0  0  0  0
 17 19  1  0  0  0  0
 17 38  1  0  0  0  0
 18 39  1  0  0  0  0
 18 40  1  0  0  0  0
 18 41  1  0  0  0  0
 19 20  1  0  0  0  0
 20 21  1  0  0  0  0
 20 22  1  0  0  0  0
 20 42  1  0  0  0  0
 21 43  1  0  0  0  0
 21 44  1  0  0  0  0
 21 45  1  0  0  0  0
 22 46  1  0  0  0  0
 22 47  1  0  0  0  0
 23 24  2  0  0  0  0
 23 48  1  0  0  0  0
M  END
> <s_m_source_file>
AV-unprocessed.smi

> <i_m_source_file_index>
314

> <i_lp_mmshare_version>
43012

> <i_f3d_flags>
0

> <s_epik_input>
W0NIM11PYzFbY0hdW2NIXWMoW2NIXW4xKVtOSF1DKD1PKVtOSF1bQ0gyXVtDSDJdQyg9TylOMltDSDJdW0NAQEhdKFtDSDNdKU9bQ0BASF0oW0NIM10pW0NIMl0y

> <s_epik_cmdline>
J2VwaWtfcHl0aG9uJywgJy1waCcsICc3LjAnLCAnLXRuJywgJzgnLCAnLW1hJywgJzIwMCcsICctbWV0YWxfYmluZGluZycsICctaW1hZScsICc8aW5maWxlLm1hZT4nLCAnLW9tYWUnLCAnPG91dGZpbGUubWFlPic=

> <r_lp_tautomer_probability>
1

> <r_epik_Ionization_Penalty>
8.55977e-05

> <r_epik_Ionization_Penalty_Charging>
0

> <r_epik_Ionization_Penalty_Neutral>
8.55977e-05

> <r_epik_State_Penalty>
-0

> <r_epik_Charging_Adjusted_Penalty>
0

> <i_epik_Tot_Q>
0

> <i_epik_Tot_abs_Q>
0

> <r_epik_Metal_State_Penalty>
-0

> <b_epik_Metal_Only>
0

> <s_lp_Force_Field>
OPLS_2005

> <r_lp_Energy>
24.2957

> <b_lp_Chiralities_Consistent>
1

> <s_lp_Variant>
AV-unprocessed.smi:314-1

> <Gold.Version>
5.8.1

> <Gold.Id.Protein>
6NUR|6NUR_protein|mol2

> <Gold.PLP.Fitness>
45.5788

> <Gold.PLP.PLP>
-37.6405

> <Gold.PLP.part.hbond>
-3.0000

> <Gold.PLP.part.metal>
0.0000

> <Gold.PLP.part.buried>
0.0330

> <Gold.PLP.part.nonpolar>
-35.2646

> <Gold.PLP.part.repulsive>
0.4834

> <Gold.PLP.ligand.clash>
0.0000

> <Gold.PLP.ligand.torsion>
0.2551

> <Gold.PLP.Chemscore.Hbond>
2.1123

> <Gold.PLP.Chemscore.CHOScore>
0.6968

> <Gold.PLP.Chemscore.Metal>
0.0000

> <Gold.Chemscore.Hbonds>
donor molecule, donor type, donor heavy atom, donor atom, acceptor molecule, acceptor atom, score
      L1  H     7    30       P1 10171  1.00
      L1  H    10    31       P1 10175  0.17
      P1  H  7997  8008       L1    19  1.00
      L1  C    23    48       P1  7948  0.73

> <Gold.PLP.Chemscore.Internal.Correction>
0.0210

> <Gold.Rescore>
     Score         DG    S(hbond)    S(metal)    S(lipo)     H(rot)  DE(clash)    DE(int)     intcor
     16.34     -19.73       2.40        0.00      92.86       1.81       1.87       1.53       ----

> <Gold.Chemscore.Fitness>
16.3376

> <Gold.Chemscore.DG>
-19.7330

> <Gold.Chemscore.ZeroCoef>
-5.4800

> <Gold.Chemscore.Hbond>
2.3992

> <Gold.Chemscore.Metal>
0.0000

> <Gold.Chemscore.Lipo>
92.8620

> <Gold.Chemscore.Internal_Hbond>
0.0000

> <Gold.Chemscore.DEClash>
1.8670

> <Gold.Chemscore.DEInternal>
1.5284

> <Gold.Chemscore.Rot>
1.8067

> <Gold.Chemscore.Internal.Correction>
   9.000000E+99

> <Gold.Chemscore.Hbonds>
donor molecule, donor type, donor heavy atom, donor atom, acceptor molecule, acceptor atom, score
      L1  H     7    30       P1 10171  0.93
      L1  H    10    31       P1 10175  0.17
      P1  H  7997  8008       L1    19  0.91

> <Gold.Chemscore.Hbond.Weighted>
-8.0133

> <Gold.Chemscore.Metal.Weighted>
-0.0000

> <Gold.Chemscore.Lipo.Weighted>
-10.8649

> <Gold.Chemscore.Internal_Hbond.Weighted>
0.0000

> <Gold.Chemscore.DEClash.Weighted>
1.8670

> <Gold.Chemscore.DEInternal.Weighted>
1.5284

> <Gold.Chemscore.Rot.Weighted>
4.6252

> <Gold.Chemscore.Internal.Correction.Weighted>
   9.000000E+99

> <Gold.Protein.RotatedTorsions>
[ 6907 6896 6895 6894 ] final -142.96 input  -60.11 | X-H torsion
[ 7974 7965 7964 7962 ] final  -84.99 input  175.53 | X-H torsion
[ 8008 7997 7996 7995 ] final  -57.55 input   59.86 | X-H torsion
[ 10167 10162 10161 10158 ] final  157.64 input  -65.29 | X-H torsion
[ 10718 10713 10712 10709 ] final   96.13 input   66.30 | X-H torsion
[ 10763 10752 10751 10750 ] final   66.71 input  -60.55 | X-H torsion
[ 11005 11000 10999 10996 ] final   80.46 input  -57.11 | X-H torsion

> <Gold.Protein.ActiveResidues>
 VAL166  LYS551  ARG553  GLY616  TRP617  ASP618  TYR619  PRO620  LYS621  CYS622 
 ASP623  PHE694  ASN695  SER759  ASP760  ASP761  ALA762  ILE779  LEU786  VAL792 
 PHE793  MET794  SER795  GLU796  ALA797  LYS798  CYS799  TRP800  GLU811  SER814 

> <Gold.Protein.RotatedAtoms>
  151.0941  133.5293  159.2613 H   0  0  0  0  0  0  0  0  0  0  0  0  # atno 6907 bound_to 6896
  151.2149  135.0495  159.8936 H   0  0  0  0  0  0  0  0  0  0  0  0  # atno 6908 bound_to 6896
  152.5437  134.0751  159.8264 H   0  0  0  0  0  0  0  0  0  0  0  0  # atno 6909 bound_to 6896
  145.4992  140.9548  143.1769 H   0  0  0  0  0  0  0  0  0  0  0  0  # atno 7974 bound_to 7965
  154.4272  140.1104  156.5815 H   0  0  0  0  0  0  0  0  0  0  0  0  # atno 8008 bound_to 7997
  155.6107  140.3494  155.4602 H   0  0  0  0  0  0  0  0  0  0  0  0  # atno 8009 bound_to 7997
  156.0101  140.1217  157.0451 H   0  0  0  0  0  0  0  0  0  0  0  0  # atno 8010 bound_to 7997
  139.4824  144.4899  151.8323 H   0  0  0  0  0  0  0  0  0  0  0  0  # atno 10167 bound_to 10162
  157.6931  131.0568  150.4444 H   0  0  0  0  0  0  0  0  0  0  0  0  # atno 10718 bound_to 10713
  153.0152  135.5310  154.6866 H   0  0  0  0  0  0  0  0  0  0  0  0  # atno 10763 bound_to 10752
  154.6012  135.2868  155.0536 H   0  0  0  0  0  0  0  0  0  0  0  0  # atno 10764 bound_to 10752
  154.1592  135.6550  153.5034 H   0  0  0  0  0  0  0  0  0  0  0  0  # atno 10765 bound_to 10752
  139.9133  134.7922  156.1913 H   0  0  0  0  0  0  0  0  0  0  0  0  # atno 11005 bound_to 11000
  144.7789  139.6568  143.7163 LP  0  0  0  0  0  0  0  0  0  0  0  0  # atno 17320 bound_to 7965
  146.2236  139.5682  142.9602 LP  0  0  0  0  0  0  0  0  0  0  0  0  # atno 17321 bound_to 7965
  140.4382  144.2023  150.5890 LP  0  0  0  0  0  0  0  0  0  0  0  0  # atno 17342 bound_to 10162
  140.4710  143.2413  151.9089 LP  0  0  0  0  0  0  0  0  0  0  0  0  # atno 17343 bound_to 10162
  156.4800  130.4072  149.6467 LP  0  0  0  0  0  0  0  0  0  0  0  0  # atno 17370 bound_to 10713
  156.3516  130.7435  151.2395 LP  0  0  0  0  0  0  0  0  0  0  0  0  # atno 17371 bound_to 10713
  141.0582  133.6855  156.1901 LP  0  0  0  0  0  0  0  0  0  0  0  0  # atno 17394 bound_to 11000
  140.6703  134.4875  157.5587 LP  0  0  0  0  0  0  0  0  0  0  0  0  # atno 17395 bound_to 11000

$$$$
