AV-unprocessed.smi:1638|AV-procd|sdf|6547|dock6
  -GOLD-   22720 7233D 1   1.00000     0.00000
 Structure written by MMmdl.
 40 41  0  0  0  0  0  0  0  0  3 V2000
  151.2306  142.6107  158.9285 C   0  0  0  0  0  0  0  0  0  0  0  0
  151.5491  141.5579  157.9229 C   0  0  0  0  0  0  0  0  0  0  0  0
  152.4014  140.5588  158.1659 N   0  0  0  0  0  0  0  0  0  0  0  0
  152.5301  139.7069  157.0795 N   0  0  0  0  0  0  0  0  0  0  0  0
  151.7632  140.0631  156.0384 C   0  0  0  0  0  0  0  0  0  0  0  0
  151.7315  139.3560  154.8970 N   0  5  0  0  0  0  0  0  0  0  0  0
  151.1196  138.1523  154.8770 C   0  0  0  0  0  0  0  0  0  0  0  0
  151.6371  137.0771  154.5675 O   0  0  0  0  0  0  0  0  0  0  0  0
  149.8151  138.2047  155.1820 N   0  0  0  0  0  0  0  0  0  0  0  0
  148.8497  137.1194  155.0136 C   0  0  0  0  0  0  0  0  0  0  0  0
  147.5887  137.6090  154.2716 C   0  0  0  0  0  0  0  0  0  0  0  0
  146.8739  136.5001  153.5822 N   0  3  0  0  0  0  0  0  0  0  0  0
  145.6430  136.9087  152.8601 C   0  0  0  0  0  0  0  0  0  0  0  0
  145.6489  136.3060  151.4449 C   0  0  0  0  0  0  0  0  0  0  0  0
  145.3245  134.8047  151.3881 C   0  0  0  0  0  0  0  0  0  0  0  0
  146.2139  133.9190  152.2784 C   0  0  0  0  0  0  0  0  0  0  0  0
  145.9448  134.1303  153.7791 C   0  0  0  0  0  0  0  0  0  0  0  0
  146.7226  135.2906  154.4339 C   0  0  0  0  0  0  0  0  0  0  0  0
  150.8257  141.5277  156.3233 S   0  0  0  0  0  0  0  0  0  0  0  0
  150.3873  142.2947  159.5429 H   0  0  0  0  0  0  0  0  0  0  0  0
  150.9700  143.5432  158.4276 H   0  0  0  0  0  0  0  0  0  0  0  0
  152.0895  142.7916  159.5757 H   0  0  0  0  0  0  0  0  0  0  0  0
  149.4441  139.1037  155.4543 H   0  0  0  0  0  0  0  0  0  0  0  0
  149.2992  136.2702  154.4969 H   0  0  0  0  0  0  0  0  0  0  0  0
  148.5728  136.7548  156.0029 H   0  0  0  0  0  0  0  0  0  0  0  0
  146.9152  138.1343  154.9500 H   0  0  0  0  0  0  0  0  0  0  0  0
  147.9233  138.3513  153.5464 H   0  0  0  0  0  0  0  0  0  0  0  0
  144.7435  136.6395  153.4153 H   0  0  0  0  0  0  0  0  0  0  0  0
  145.6043  137.9922  152.7483 H   0  0  0  0  0  0  0  0  0  0  0  0
  144.9162  136.8344  150.8342 H   0  0  0  0  0  0  0  0  0  0  0  0
  146.6155  136.4911  150.9732 H   0  0  0  0  0  0  0  0  0  0  0  0
  144.2776  134.6487  151.6504 H   0  0  0  0  0  0  0  0  0  0  0  0
  145.4228  134.4715  150.3543 H   0  0  0  0  0  0  0  0  0  0  0  0
  145.9942  132.8789  152.0356 H   0  0  0  0  0  0  0  0  0  0  0  0
  147.2689  134.0612  152.0435 H   0  0  0  0  0  0  0  0  0  0  0  0
  144.8745  134.2635  153.9401 H   0  0  0  0  0  0  0  0  0  0  0  0
  146.1998  133.2154  154.3150 H   0  0  0  0  0  0  0  0  0  0  0  0
  147.7176  134.9367  154.7026 H   0  0  0  0  0  0  0  0  0  0  0  0
  146.2325  135.5604  155.3702 H   0  0  0  0  0  0  0  0  0  0  0  0
  147.5043  136.2292  152.8395 H   0  0  0  0  0  0  0  0  0  0  0  0
  1  2  1  0  0  0  0
  1 20  1  0  0  0  0
  1 21  1  0  0  0  0
  1 22  1  0  0  0  0
  2 19  1  0  0  0  0
  2  3  2  0  0  0  0
  3  4  1  0  0  0  0
  4  5  2  0  0  0  0
  5  6  1  0  0  0  0
  5 19  1  0  0  0  0
  6  7  1  0  0  0  0
  7  8  2  0  0  0  0
  7  9  1  0  0  0  0
  9 10  1  0  0  0  0
  9 23  1  0  0  0  0
 10 11  1  0  0  0  0
 10 24  1  0  0  0  0
 10 25  1  0  0  0  0
 11 12  1  0  0  0  0
 11 26  1  0  0  0  0
 11 27  1  0  0  0  0
 12 18  1  0  0  0  0
 12 13  1  0  0  0  0
 12 40  1  0  0  0  0
 13 14  1  0  0  0  0
 13 28  1  0  0  0  0
 13 29  1  0  0  0  0
 14 15  1  0  0  0  0
 14 30  1  0  0  0  0
 14 31  1  0  0  0  0
 15 16  1  0  0  0  0
 15 32  1  0  0  0  0
 15 33  1  0  0  0  0
 16 17  1  0  0  0  0
 16 34  1  0  0  0  0
 16 35  1  0  0  0  0
 17 18  1  0  0  0  0
 17 36  1  0  0  0  0
 17 37  1  0  0  0  0
 18 38  1  0  0  0  0
 18 39  1  0  0  0  0
M  CHG  1   6  -1
M  CHG  1  12   1
M  END
> <s_m_source_file>
AV-unprocessed.smi

> <i_m_source_file_index>
1638

> <i_lp_mmshare_version>
43012

> <i_f3d_flags>
0

> <s_epik_input>
W0NIM11jMW5uYyhzMSlbTkhdQyg9TylbTkhdW0NIMl1bQ0gyXU4yW0NIMl1bQ0gyXVtDSDJdW0NIMl1bQ0gyXVtDSDJdMg==

> <s_epik_cmdline>
J2VwaWtfcHl0aG9uJywgJy1waCcsICc3LjAnLCAnLXRuJywgJzgnLCAnLW1hJywgJzIwMCcsICctbWV0YWxfYmluZGluZycsICctaW1hZScsICc8aW5maWxlLm1hZT4nLCAnLW9tYWUnLCAnPG91dGZpbGUubWFlPic=

> <r_lp_tautomer_probability>
1

> <r_epik_Ionization_Penalty>
3.03755

> <r_epik_Ionization_Penalty_Charging>
2.92994

> <r_epik_Ionization_Penalty_Neutral>
0.107609

> <r_epik_State_Penalty>
2.92594

> <r_epik_Charging_Adjusted_Penalty>
5.85589

> <i_epik_Tot_Q>
0

> <i_epik_Tot_abs_Q>
2

> <r_epik_Metal_State_Penalty>
0.448256

> <b_epik_Metal_Only>
1

> <s_lp_Force_Field>
OPLS_2005

> <r_lp_Energy>
18.025

> <b_lp_Chiralities_Consistent>
1

> <s_lp_Variant>
AV-unprocessed.smi:1638-2

> <Gold.Version>
5.8.1

> <Gold.Id.Protein>
6NUR|6NUR_protein|mol2

> <Gold.PLP.Fitness>
39.4872

> <Gold.PLP.PLP>
-27.3586

> <Gold.PLP.part.hbond>
-4.1064

> <Gold.PLP.part.metal>
0.0000

> <Gold.PLP.part.buried>
-4.1015

> <Gold.PLP.part.nonpolar>
-19.4802

> <Gold.PLP.part.repulsive>
0.2516

> <Gold.PLP.ligand.clash>
0.0000

> <Gold.PLP.ligand.torsion>
1.4659

> <Gold.PLP.Chemscore.Hbond>
4.9913

> <Gold.PLP.Chemscore.CHOScore>
0.0000

> <Gold.PLP.Chemscore.Metal>
0.0000

> <Gold.Chemscore.Hbonds>
donor molecule, donor type, donor heavy atom, donor atom, acceptor molecule, acceptor atom, score
      L1  H    12    40       P1  7948  2.00
      P1  H  7989  7998       L1     6  0.94
      P1  H  7997  8008       L1     4  1.00
      P1  H 10752 10764       L1     8  1.00

> <Gold.PLP.Chemscore.Internal.Correction>
0.0867

> <Gold.Rescore>
     Score         DG    S(hbond)    S(metal)    S(lipo)     H(rot)  DE(clash)    DE(int)     intcor
     15.86     -17.46       2.90        0.00      53.85       1.57       0.11       1.49       ----

> <Gold.Chemscore.Fitness>
15.8618

> <Gold.Chemscore.DG>
-17.4611

> <Gold.Chemscore.ZeroCoef>
-5.4800

> <Gold.Chemscore.Hbond>
2.9030

> <Gold.Chemscore.Metal>
0.0000

> <Gold.Chemscore.Lipo>
53.8539

> <Gold.Chemscore.Internal_Hbond>
0.0000

> <Gold.Chemscore.DEClash>
0.1091

> <Gold.Chemscore.DEInternal>
1.4902

> <Gold.Chemscore.Rot>
1.5686

> <Gold.Chemscore.Internal.Correction>
   9.000000E+99

> <Gold.Chemscore.Hbonds>
donor molecule, donor type, donor heavy atom, donor atom, acceptor molecule, acceptor atom, score
      L1  H    12    40       P1  7948  0.99
      P1  H  7989  7998       L1     6  0.26
      P1  H  7997  8008       L1     4  0.11
      P1  H 10752 10764       L1     8  0.98

> <Gold.Chemscore.Hbond.Weighted>
-9.6959

> <Gold.Chemscore.Metal.Weighted>
-0.0000

> <Gold.Chemscore.Lipo.Weighted>
-6.3009

> <Gold.Chemscore.Internal_Hbond.Weighted>
0.0000

> <Gold.Chemscore.DEClash.Weighted>
0.1091

> <Gold.Chemscore.DEInternal.Weighted>
1.4902

> <Gold.Chemscore.Rot.Weighted>
4.0157

> <Gold.Chemscore.Internal.Correction.Weighted>
   9.000000E+99

> <Gold.Protein.RotatedTorsions>
[ 6907 6896 6895 6894 ] final  113.20 input  -60.11 | X-H torsion
[ 7974 7965 7964 7962 ] final   63.03 input  175.53 | X-H torsion
[ 8008 7997 7996 7995 ] final  -40.94 input   59.86 | X-H torsion
[ 10167 10162 10161 10158 ] final   58.48 input  -65.29 | X-H torsion
[ 10718 10713 10712 10709 ] final  -88.63 input   66.30 | X-H torsion
[ 10763 10752 10751 10750 ] final  -79.55 input  -60.55 | X-H torsion
[ 11005 11000 10999 10996 ] final -127.09 input  -57.11 | X-H torsion

> <Gold.Protein.ActiveResidues>
 VAL166  LYS551  ARG553  GLY616  TRP617  ASP618  TYR619  PRO620  LYS621  CYS622 
 ASP623  PHE694  ASN695  SER759  ASP760  ASP761  ALA762  ILE779  LEU786  VAL792 
 PHE793  MET794  SER795  GLU796  ALA797  LYS798  CYS799  TRP800  GLU811  SER814 

> <Gold.Protein.RotatedAtoms>
  152.4874  133.8409  159.7151 H   0  0  0  0  0  0  0  0  0  0  0  0  # atno 6907 bound_to 6896
  150.8972  133.7156  159.2895 H   0  0  0  0  0  0  0  0  0  0  0  0  # atno 6908 bound_to 6896
  151.4609  135.1042  159.9777 H   0  0  0  0  0  0  0  0  0  0  0  0  # atno 6909 bound_to 6896
  145.8665  139.3349  143.0788 H   0  0  0  0  0  0  0  0  0  0  0  0  # atno 7974 bound_to 7965
  154.4008  140.1512  156.3109 H   0  0  0  0  0  0  0  0  0  0  0  0  # atno 8008 bound_to 7997
  155.8616  140.3453  155.5738 H   0  0  0  0  0  0  0  0  0  0  0  0  # atno 8009 bound_to 7997
  155.7874  140.0852  157.2018 H   0  0  0  0  0  0  0  0  0  0  0  0  # atno 8010 bound_to 7997
  140.1868  144.4126  150.6589 H   0  0  0  0  0  0  0  0  0  0  0  0  # atno 10167 bound_to 10162
  155.9983  130.4842  150.5048 H   0  0  0  0  0  0  0  0  0  0  0  0  # atno 10718 bound_to 10713
  154.5400  135.5692  153.6831 H   0  0  0  0  0  0  0  0  0  0  0  0  # atno 10763 bound_to 10752
  152.9961  135.6225  154.2514 H   0  0  0  0  0  0  0  0  0  0  0  0  # atno 10764 bound_to 10752
  154.2445  135.2861  155.2821 H   0  0  0  0  0  0  0  0  0  0  0  0  # atno 10765 bound_to 10752
  140.9628  134.0913  157.3951 H   0  0  0  0  0  0  0  0  0  0  0  0  # atno 11005 bound_to 11000
  145.9187  140.9130  143.0416 LP  0  0  0  0  0  0  0  0  0  0  0  0  # atno 17320 bound_to 7965
  144.6726  140.1258  143.7447 LP  0  0  0  0  0  0  0  0  0  0  0  0  # atno 17321 bound_to 7965
  140.6483  143.2218  151.6136 LP  0  0  0  0  0  0  0  0  0  0  0  0  # atno 17342 bound_to 10162
  139.5273  144.3022  152.1064 LP  0  0  0  0  0  0  0  0  0  0  0  0  # atno 17343 bound_to 10162
  157.3028  131.0648  151.2056 LP  0  0  0  0  0  0  0  0  0  0  0  0  # atno 17370 bound_to 10713
  157.3030  130.6852  149.6174 LP  0  0  0  0  0  0  0  0  0  0  0  0  # atno 17371 bound_to 10713
  139.8884  135.0097  156.6617 LP  0  0  0  0  0  0  0  0  0  0  0  0  # atno 17394 bound_to 11000
  140.7443  133.8951  155.8300 LP  0  0  0  0  0  0  0  0  0  0  0  0  # atno 17395 bound_to 11000

$$$$
