AV-unprocessed.smi:1203|AV-procd|sdf|5036|dock10
  -GOLD-   22720 4 63D 1   1.00000     0.00000
 Structure written by MMmdl.
 40 41  0  0  0  0  0  0  0  0  2 V2000
  149.8019  138.8551  156.6717 C   0  0  0  0  0  0  0  0  0  0  0  0
  150.2482  139.2777  154.9370 S   0  0  0  0  0  0  0  0  0  0  0  0
  151.4164  140.1705  154.9739 O   0  0  0  0  0  0  0  0  0  0  0  0
  150.2924  138.0390  154.1447 O   0  0  0  0  0  0  0  0  0  0  0  0
  148.8946  140.2171  154.3936 N   0  0  0  0  0  0  0  0  0  0  0  0
  148.4870  141.4554  155.0525 C   0  0  0  0  0  0  0  0  0  0  0  0
  147.4396  142.0502  154.1155 C   0  0  0  0  0  0  0  0  0  0  0  0
  146.7835  140.8300  153.4749 C   0  0  0  0  0  0  0  0  0  0  0  0
  147.9025  139.7691  153.4008 C   0  0  2  0  0  0  0  0  0  0  0  0
  147.3592  138.3475  153.6078 C   0  0  0  0  0  0  0  0  0  0  0  0
  147.5777  137.7416  154.6576 O   0  0  0  0  0  0  0  0  0  0  0  0
  146.6488  137.8277  152.5942 N   0  0  0  0  0  0  0  0  0  0  0  0
  146.0270  136.5059  152.5810 C   0  0  0  0  0  0  0  0  0  0  0  0
  145.5797  136.0812  151.1683 C   0  0  0  0  0  0  0  0  0  0  0  0
  145.4703  134.5765  150.9890 C   0  0  0  0  0  0  0  0  0  0  0  0
  144.2293  133.9803  150.6736 C   0  0  0  0  0  0  0  0  0  0  0  0
  144.1615  132.5848  150.4808 C   0  0  0  0  0  0  0  0  0  0  0  0
  145.3361  131.8162  150.6108 C   0  0  0  0  0  0  0  0  0  0  0  0
  146.5048  132.4205  150.9179 N   0  3  0  0  0  0  0  0  0  0  0  0
  146.6115  133.7535  151.1101 C   0  0  0  0  0  0  0  0  0  0  0  0
  150.6312  138.3213  157.1352 H   0  0  0  0  0  0  0  0  0  0  0  0
  148.9185  138.2198  156.6889 H   0  0  0  0  0  0  0  0  0  0  0  0
  149.6056  139.7689  157.2319 H   0  0  0  0  0  0  0  0  0  0  0  0
  148.0562  141.2171  156.0255 H   0  0  0  0  0  0  0  0  0  0  0  0
  149.3361  142.1236  155.1987 H   0  0  0  0  0  0  0  0  0  0  0  0
  146.7265  142.6928  154.6326 H   0  0  0  0  0  0  0  0  0  0  0  0
  147.9329  142.6474  153.3474 H   0  0  0  0  0  0  0  0  0  0  0  0
  145.9507  140.5072  154.1018 H   0  0  0  0  0  0  0  0  0  0  0  0
  146.3746  141.0627  152.4913 H   0  0  0  0  0  0  0  0  0  0  0  0
  148.3795  139.8306  152.4213 H   0  0  0  0  0  0  0  0  0  0  0  0
  146.5375  138.3892  151.7620 H   0  0  0  0  0  0  0  0  0  0  0  0
  146.7539  135.7886  152.9622 H   0  0  0  0  0  0  0  0  0  0  0  0
  145.1818  136.4731  153.2706 H   0  0  0  0  0  0  0  0  0  0  0  0
  144.6170  136.5389  150.9367 H   0  0  0  0  0  0  0  0  0  0  0  0
  146.2828  136.4693  150.4305 H   0  0  0  0  0  0  0  0  0  0  0  0
  143.3409  134.5861  150.5684 H   0  0  0  0  0  0  0  0  0  0  0  0
  143.2223  132.1117  150.2336 H   0  0  0  0  0  0  0  0  0  0  0  0
  145.3759  130.7446  150.4794 H   0  0  0  0  0  0  0  0  0  0  0  0
  147.6016  134.1189  151.3414 H   0  0  0  0  0  0  0  0  0  0  0  0
  147.3431  131.8457  151.0074 H   0  0  0  0  0  0  0  0  0  0  0  0
  1  2  1  0  0  0  0
  1 21  1  0  0  0  0
  1 22  1  0  0  0  0
  1 23  1  0  0  0  0
  2  3  2  0  0  0  0
  2  4  2  0  0  0  0
  2  5  1  0  0  0  0
  5  9  1  0  0  0  0
  5  6  1  0  0  0  0
  6  7  1  0  0  0  0
  6 24  1  0  0  0  0
  6 25  1  0  0  0  0
  7  8  1  0  0  0  0
  7 26  1  0  0  0  0
  7 27  1  0  0  0  0
  8  9  1  0  0  0  0
  8 28  1  0  0  0  0
  8 29  1  0  0  0  0
  9 10  1  0  0  0  0
  9 30  1  0  0  0  0
 10 11  2  0  0  0  0
 10 12  1  0  0  0  0
 12 13  1  0  0  0  0
 12 31  1  0  0  0  0
 13 14  1  0  0  0  0
 13 32  1  0  0  0  0
 13 33  1  0  0  0  0
 14 15  1  0  0  0  0
 14 34  1  0  0  0  0
 14 35  1  0  0  0  0
 15 20  1  0  0  0  0
 15 16  2  0  0  0  0
 16 17  1  0  0  0  0
 16 36  1  0  0  0  0
 17 18  2  0  0  0  0
 17 37  1  0  0  0  0
 18 19  1  0  0  0  0
 18 38  1  0  0  0  0
 19 20  2  0  0  0  0
 19 40  1  0  0  0  0
 20 39  1  0  0  0  0
M  CHG  1  19   1
M  END
> <s_m_source_file>
AV-unprocessed.smi

> <i_m_source_file_index>
1203

> <i_lp_mmshare_version>
43012

> <i_f3d_flags>
0

> <s_epik_input>
W0NIM11TKD1PKSg9TylOMVtDSDJdW0NIMl1bQ0gyXVtDQEhdMUMoPU8pW05IXVtDSDJdW0NIMl1jMltjSF1bY0hdW2NIXW5bY0hdMg==

> <s_epik_cmdline>
J2VwaWtfcHl0aG9uJywgJy1waCcsICc3LjAnLCAnLXRuJywgJzgnLCAnLW1hJywgJzIwMCcsICctbWV0YWxfYmluZGluZycsICctaW1hZScsICc8aW5maWxlLm1hZT4nLCAnLW9tYWUnLCAnPG91dGZpbGUubWFlPic=

> <r_epik_Ionization_Penalty>
2.2835

> <r_epik_Ionization_Penalty_Charging>
2.2835

> <r_epik_Ionization_Penalty_Neutral>
1.4017e-07

> <r_epik_State_Penalty>
2.43297

> <r_epik_Charging_Adjusted_Penalty>
4.71647

> <i_epik_Tot_Q>
1

> <i_epik_Tot_abs_Q>
1

> <r_epik_Metal_State_Penalty>
2.44558

> <b_epik_Metal_Only>
0

> <s_lp_Force_Field>
OPLS_2005

> <r_lp_Energy>
15.5637

> <b_lp_Chiralities_Consistent>
1

> <s_lp_Variant>
AV-unprocessed.smi:1203-4

> <Gold.Version>
5.8.1

> <Gold.Id.Protein>
6NUR|6NUR_protein|mol2

> <Gold.PLP.Fitness>
39.4321

> <Gold.PLP.PLP>
-34.4545

> <Gold.PLP.part.hbond>
-3.0000

> <Gold.PLP.part.metal>
0.0000

> <Gold.PLP.part.buried>
-2.6414

> <Gold.PLP.part.nonpolar>
-30.3474

> <Gold.PLP.part.repulsive>
0.4892

> <Gold.PLP.ligand.clash>
0.0000

> <Gold.PLP.ligand.torsion>
1.5321

> <Gold.PLP.Chemscore.Hbond>
1.9913

> <Gold.PLP.Chemscore.CHOScore>
0.0000

> <Gold.PLP.Chemscore.Metal>
0.0000

> <Gold.Chemscore.Hbonds>
donor molecule, donor type, donor heavy atom, donor atom, acceptor molecule, acceptor atom, score
      L1  H    19    40       P1 10747  0.96
      P1  H  7989  7998       L1     3  1.00

> <Gold.PLP.Chemscore.Internal.Correction>
2.0682

> <Gold.Rescore>
     Score         DG    S(hbond)    S(metal)    S(lipo)     H(rot)  DE(clash)    DE(int)     intcor
     12.14     -16.30       1.91        0.00      75.31       1.70       0.02       4.15       ----

> <Gold.Chemscore.Fitness>
12.1372

> <Gold.Chemscore.DG>
-16.2986

> <Gold.Chemscore.ZeroCoef>
-5.4800

> <Gold.Chemscore.Hbond>
1.9051

> <Gold.Chemscore.Metal>
0.0000

> <Gold.Chemscore.Lipo>
75.3055

> <Gold.Chemscore.Internal_Hbond>
0.0000

> <Gold.Chemscore.DEClash>
0.0152

> <Gold.Chemscore.DEInternal>
4.1463

> <Gold.Chemscore.Rot>
1.7012

> <Gold.Chemscore.Internal.Correction>
   9.000000E+99

> <Gold.Chemscore.Hbonds>
donor molecule, donor type, donor heavy atom, donor atom, acceptor molecule, acceptor atom, score
      L1  H    19    40       P1 10747  0.88
      P1  H  7989  7998       L1     3  0.77

> <Gold.Chemscore.Hbond.Weighted>
-6.3630

> <Gold.Chemscore.Metal.Weighted>
-0.0000

> <Gold.Chemscore.Lipo.Weighted>
-8.8107

> <Gold.Chemscore.Internal_Hbond.Weighted>
0.0000

> <Gold.Chemscore.DEClash.Weighted>
0.0152

> <Gold.Chemscore.DEInternal.Weighted>
4.1463

> <Gold.Chemscore.Rot.Weighted>
4.3551

> <Gold.Chemscore.Internal.Correction.Weighted>
   9.000000E+99

> <Gold.Protein.RotatedTorsions>
[ 6907 6896 6895 6894 ] final  115.86 input  -60.11 | X-H torsion
[ 7974 7965 7964 7962 ] final  -85.90 input  175.53 | X-H torsion
[ 8008 7997 7996 7995 ] final  -80.83 input   59.86 | X-H torsion
[ 10167 10162 10161 10158 ] final   31.80 input  -65.29 | X-H torsion
[ 10718 10713 10712 10709 ] final -131.98 input   66.30 | X-H torsion
[ 10763 10752 10751 10750 ] final   47.67 input  -60.55 | X-H torsion
[ 11005 11000 10999 10996 ] final  148.26 input  -57.11 | X-H torsion

> <Gold.Protein.ActiveResidues>
 VAL166  LYS551  ARG553  GLY616  TRP617  ASP618  TYR619  PRO620  LYS621  CYS622 
 ASP623  PHE694  ASN695  SER759  ASP760  ASP761  ALA762  ILE779  LEU786  VAL792 
 PHE793  MET794  SER795  GLU796  ALA797  LYS798  CYS799  TRP800  GLU811  SER814 

> <Gold.Protein.RotatedAtoms>
  152.4715  133.8040  159.6967 H   0  0  0  0  0  0  0  0  0  0  0  0  # atno 6907 bound_to 6896
  150.8706  133.7501  159.2969 H   0  0  0  0  0  0  0  0  0  0  0  0  # atno 6908 bound_to 6896
  151.5037  135.1066  159.9887 H   0  0  0  0  0  0  0  0  0  0  0  0  # atno 6909 bound_to 6896
  145.4871  140.9554  143.1833 H   0  0  0  0  0  0  0  0  0  0  0  0  # atno 7974 bound_to 7965
  154.5922  140.0657  156.9255 H   0  0  0  0  0  0  0  0  0  0  0  0  # atno 8008 bound_to 7997
  155.2275  140.3335  155.4289 H   0  0  0  0  0  0  0  0  0  0  0  0  # atno 8009 bound_to 7997
  156.2263  140.1821  156.7338 H   0  0  0  0  0  0  0  0  0  0  0  0  # atno 8010 bound_to 7997
  140.4556  144.0983  150.6201 H   0  0  0  0  0  0  0  0  0  0  0  0  # atno 10167 bound_to 10162
  156.2299  130.7031  151.0847 H   0  0  0  0  0  0  0  0  0  0  0  0  # atno 10718 bound_to 10713
  152.9798  135.5969  154.3800 H   0  0  0  0  0  0  0  0  0  0  0  0  # atno 10763 bound_to 10752
  154.3465  135.2767  155.2396 H   0  0  0  0  0  0  0  0  0  0  0  0  # atno 10764 bound_to 10752
  154.4455  135.6003  153.6212 H   0  0  0  0  0  0  0  0  0  0  0  0  # atno 10765 bound_to 10752
  140.0945  134.9021  157.1702 H   0  0  0  0  0  0  0  0  0  0  0  0  # atno 11005 bound_to 11000
  144.7855  139.6435  143.7136 LP  0  0  0  0  0  0  0  0  0  0  0  0  # atno 17320 bound_to 7965
  146.2307  139.5807  142.9557 LP  0  0  0  0  0  0  0  0  0  0  0  0  # atno 17321 bound_to 7965
  140.4155  143.2636  151.9780 LP  0  0  0  0  0  0  0  0  0  0  0  0  # atno 17342 bound_to 10162
  139.4801  144.5877  151.7824 LP  0  0  0  0  0  0  0  0  0  0  0  0  # atno 17343 bound_to 10162
  157.7128  131.0725  150.6438 LP  0  0  0  0  0  0  0  0  0  0  0  0  # atno 17370 bound_to 10713
  156.6505  130.4484  149.5721 LP  0  0  0  0  0  0  0  0  0  0  0  0  # atno 17371 bound_to 10713
  140.3306  134.2814  155.7229 LP  0  0  0  0  0  0  0  0  0  0  0  0  # atno 17394 bound_to 11000
  141.2088  133.7768  157.0038 LP  0  0  0  0  0  0  0  0  0  0  0  0  # atno 17395 bound_to 11000

$$$$
