AV-unprocessed.smi:21|AV-procd|sdf|134|dock8
  -GOLD-   2262015323D 1   1.00000     0.00000
 Structure written by MMmdl.
 62 65  0  0  0  0  0  0  0  0  2 V2000
  143.7860  132.1636  150.2532 C   0  0  0  0  0  0  0  0  0  0  0  0
  145.0207  132.6238  149.7275 O   0  0  0  0  0  0  0  0  0  0  0  0
  145.9896  132.9178  150.7239 C   0  0  2  0  0  0  0  0  0  0  0  0
  146.2047  131.6956  151.6254 C   0  0  0  0  0  0  0  0  0  0  0  0
  145.9027  132.1568  153.0611 C   0  0  1  0  0  0  0  0  0  0  0  0
  146.8485  131.5485  154.1204 C   0  0  0  0  0  0  0  0  0  0  0  0
  148.1071  132.2885  154.2464 N   0  0  0  0  0  0  0  0  0  0  0  0
  148.9517  132.4255  153.0655 C   0  0  0  0  0  0  0  0  0  0  0  0
  148.5992  132.5948  155.4835 C   0  0  0  0  0  0  0  0  0  0  0  0
  149.9450  132.7479  155.6191 N   0  0  0  0  0  0  0  0  0  0  0  0
  150.4894  133.0495  156.8001 C   0  0  0  0  0  0  0  0  0  0  0  0
  149.8824  133.2465  157.9692 N   0  0  0  0  0  0  0  0  0  0  0  0
  148.5328  133.1004  157.8529 C   0  0  0  0  0  0  0  0  0  0  0  0
  147.8126  132.7751  156.6652 C   0  0  0  0  0  0  0  0  0  0  0  0
  146.4527  132.7181  156.9586 N   0  0  0  0  0  0  0  0  0  0  0  0
  146.3760  132.9898  158.2318 C   0  0  0  0  0  0  0  0  0  0  0  0
  147.5797  133.2437  158.8452 N   0  0  0  0  0  0  0  0  0  0  0  0
  147.7938  133.5793  160.2423 C   0  0  0  0  0  0  0  0  0  0  0  0
  146.4675  133.7827  161.0208 C   0  0  1  0  0  0  0  0  0  0  0  0
  146.1235  132.5452  161.8819 C   0  0  0  0  0  0  0  0  0  0  0  0
  144.7380  132.4732  162.1464 O   0  0  0  0  0  0  0  0  0  0  0  0
  146.4328  135.0947  161.8523 C   0  0  1  0  0  0  0  0  0  0  0  0
  147.4532  135.2146  162.9776 C   0  0  0  0  0  0  0  0  0  0  0  0
  147.5736  136.7236  163.1331 C   0  0  0  0  0  0  0  0  0  0  0  0
  147.5587  137.1794  161.7904 O   0  0  0  0  0  0  0  0  0  0  0  0
  146.6216  136.3981  161.0554 C   0  0  0  0  0  0  0  0  0  0  0  0
  145.9883  133.6317  153.0163 N   0  3  2  0  0  0  0  0  0  0  0  0
  145.2803  134.3294  154.1128 C   0  0  0  0  0  0  0  0  0  0  0  0
  145.5273  134.0299  151.6731 C   0  0  0  0  0  0  0  0  0  0  0  0
  146.9434  133.1843  150.2646 H   0  0  0  0  0  0  0  0  0  0  0  0
  144.8673  131.8977  153.2897 H   0  0  0  0  0  0  0  0  0  0  0  0
  143.0883  131.9814  149.4359 H   0  0  0  0  0  0  0  0  0  0  0  0
  143.3385  132.9054  150.9155 H   0  0  0  0  0  0  0  0  0  0  0  0
  143.9062  131.2301  150.8037 H   0  0  0  0  0  0  0  0  0  0  0  0
  145.5696  130.8545  151.3444 H   0  0  0  0  0  0  0  0  0  0  0  0
  147.2383  131.3614  151.5288 H   0  0  0  0  0  0  0  0  0  0  0  0
  146.3459  131.5272  155.0881 H   0  0  0  0  0  0  0  0  0  0  0  0
  147.0642  130.5042  153.8957 H   0  0  0  0  0  0  0  0  0  0  0  0
  149.3356  133.4424  152.9816 H   0  0  0  0  0  0  0  0  0  0  0  0
  148.3923  132.2140  152.1542 H   0  0  0  0  0  0  0  0  0  0  0  0
  149.7915  131.7314  153.1082 H   0  0  0  0  0  0  0  0  0  0  0  0
  151.5651  133.1472  156.8097 H   0  0  0  0  0  0  0  0  0  0  0  0
  145.4331  133.0219  158.7579 H   0  0  0  0  0  0  0  0  0  0  0  0
  148.3857  132.7826  160.6923 H   0  0  0  0  0  0  0  0  0  0  0  0
  148.4139  134.4743  160.2699 H   0  0  0  0  0  0  0  0  0  0  0  0
  145.6751  133.8764  160.2764 H   0  0  0  0  0  0  0  0  0  0  0  0
  146.3997  131.6228  161.3716 H   0  0  0  0  0  0  0  0  0  0  0  0
  146.6713  132.5626  162.8243 H   0  0  0  0  0  0  0  0  0  0  0  0
  144.5086  131.5706  162.3073 H   0  0  0  0  0  0  0  0  0  0  0  0
  145.4480  135.1752  162.3148 H   0  0  0  0  0  0  0  0  0  0  0  0
  147.1345  134.7192  163.8953 H   0  0  0  0  0  0  0  0  0  0  0  0
  148.4227  134.8089  162.6927 H   0  0  0  0  0  0  0  0  0  0  0  0
  146.7159  137.1324  163.6701 H   0  0  0  0  0  0  0  0  0  0  0  0
  148.4841  137.0242  163.6520 H   0  0  0  0  0  0  0  0  0  0  0  0
  146.9876  136.2435  160.0412 H   0  0  0  0  0  0  0  0  0  0  0  0
  145.6772  136.9384  160.9784 H   0  0  0  0  0  0  0  0  0  0  0  0
  144.2169  134.0865  154.1148 H   0  0  0  0  0  0  0  0  0  0  0  0
  145.3827  135.4093  154.0017 H   0  0  0  0  0  0  0  0  0  0  0  0
  145.6935  134.0558  155.0834 H   0  0  0  0  0  0  0  0  0  0  0  0
  145.9099  135.0103  151.3874 H   0  0  0  0  0  0  0  0  0  0  0  0
  144.4369  134.0823  151.6733 H   0  0  0  0  0  0  0  0  0  0  0  0
  146.9681  133.8706  153.0725 H   0  0  0  0  0  0  0  0  0  0  0  0
  1  2  1  0  0  0  0
  1 32  1  0  0  0  0
  1 33  1  0  0  0  0
  1 34  1  0  0  0  0
  2  3  1  0  0  0  0
  3 30  1  0  0  0  0
  3 29  1  0  0  0  0
  3  4  1  0  0  0  0
  4  5  1  0  0  0  0
  4 35  1  0  0  0  0
  4 36  1  0  0  0  0
  5 31  1  0  0  0  0
  5  6  1  0  0  0  0
  5 27  1  0  0  0  0
  6  7  1  0  0  0  0
  6 37  1  0  0  0  0
  6 38  1  0  0  0  0
  7  8  1  0  0  0  0
  7  9  1  0  0  0  0
  8 39  1  0  0  0  0
  8 40  1  0  0  0  0
  8 41  1  0  0  0  0
  9 14  1  0  0  0  0
  9 10  2  0  0  0  0
 10 11  1  0  0  0  0
 11 12  2  0  0  0  0
 11 42  1  0  0  0  0
 12 13  1  0  0  0  0
 13 17  1  0  0  0  0
 13 14  2  0  0  0  0
 14 15  1  0  0  0  0
 15 16  2  0  0  0  0
 16 17  1  0  0  0  0
 16 43  1  0  0  0  0
 17 18  1  0  0  0  0
 18 19  1  0  0  0  0
 18 44  1  0  0  0  0
 18 45  1  0  0  0  0
 19 20  1  0  0  0  0
 19 22  1  0  0  0  0
 19 46  1  0  0  0  0
 20 21  1  0  0  0  0
 20 47  1  0  0  0  0
 20 48  1  0  0  0  0
 21 49  1  0  0  0  0
 22 26  1  0  0  0  0
 22 23  1  0  0  0  0
 22 50  1  0  0  0  0
 23 24  1  0  0  0  0
 23 51  1  0  0  0  0
 23 52  1  0  0  0  0
 24 25  1  0  0  0  0
 24 53  1  0  0  0  0
 24 54  1  0  0  0  0
 25 26  1  0  0  0  0
 26 55  1  0  0  0  0
 26 56  1  0  0  0  0
 27 28  1  0  0  0  0
 27 29  1  0  0  0  0
 27 62  1  0  0  0  0
 28 57  1  0  0  0  0
 28 58  1  0  0  0  0
 28 59  1  0  0  0  0
 29 60  1  0  0  0  0
 29 61  1  0  0  0  0
M  CHG  1  27   1
M  END
> <s_m_source_file>
AV-unprocessed.smi

> <i_m_source_file_index>
21

> <i_lp_mmshare_version>
43012

> <i_f3d_flags>
0

> <s_epik_input>
W0NIM11PW0NASF0xW0NIMl1bQ0BIXShOKFtDSDNdKVtDSDJdMSlbQ0gyXU4oW0NIM10pYyhuW2NIXW4yKWMoYzIzKW5bY0hdbjNbQ0gyXVtDQEhdKFtDSDJdW09IXSlbQ0BASF00W0NIMl1bQ0gyXU9bQ0gyXTQ=

> <s_epik_cmdline>
J2VwaWtfcHl0aG9uJywgJy1waCcsICc3LjAnLCAnLXRuJywgJzgnLCAnLW1hJywgJzIwMCcsICctbWV0YWxfYmluZGluZycsICctaW1hZScsICc8aW5maWxlLm1hZT4nLCAnLW9tYWUnLCAnPG91dGZpbGUubWFlPic=

> <r_lp_tautomer_probability>
1

> <r_epik_Ionization_Penalty>
0.0157465

> <r_epik_Ionization_Penalty_Charging>
0.015354

> <r_epik_Ionization_Penalty_Neutral>
0.000392529

> <r_epik_State_Penalty>
0.0120612

> <r_epik_Charging_Adjusted_Penalty>
0.0274152

> <i_epik_Tot_Q>
1

> <i_epik_Tot_abs_Q>
1

> <r_epik_Metal_State_Penalty>
0.0121253

> <b_epik_Metal_Only>
0

> <s_lp_Force_Field>
OPLS_2005

> <r_lp_Energy>
60.5183

> <b_lp_Chiralities_Consistent>
1

> <s_lp_Variant>
AV-unprocessed.smi:21-14

> <Gold.Version>
5.8.1

> <Gold.Id.Protein>
6NUR|6NUR_protein|mol2

> <Gold.PLP.Fitness>
46.6143

> <Gold.PLP.PLP>
-41.3011

> <Gold.PLP.part.hbond>
-4.0000

> <Gold.PLP.part.metal>
0.0000

> <Gold.PLP.part.buried>
-5.8885

> <Gold.PLP.part.nonpolar>
-32.0368

> <Gold.PLP.part.repulsive>
0.1932

> <Gold.PLP.ligand.clash>
0.0000

> <Gold.PLP.ligand.torsion>
1.4422

> <Gold.PLP.Chemscore.Hbond>
2.5472

> <Gold.PLP.Chemscore.CHOScore>
0.0000

> <Gold.PLP.Chemscore.Metal>
0.0000

> <Gold.Chemscore.Hbonds>
donor molecule, donor type, donor heavy atom, donor atom, acceptor molecule, acceptor atom, score
      P1  H  6896  6907       L1    12  1.00
      P1  H  6931  6943       L1    25  0.78
      P1  H  6934  6947       L1    25  0.68

> <Gold.PLP.Chemscore.Internal.Correction>
0.5560

> <Gold.Rescore>
     Score         DG    S(hbond)    S(metal)    S(lipo)     H(rot)  DE(clash)    DE(int)     intcor
     12.64     -14.51       1.52        0.00     101.23       3.08       0.29       1.58       ----

> <Gold.Chemscore.Fitness>
12.6378

> <Gold.Chemscore.DG>
-14.5143

> <Gold.Chemscore.ZeroCoef>
-5.4800

> <Gold.Chemscore.Hbond>
1.5163

> <Gold.Chemscore.Metal>
0.0000

> <Gold.Chemscore.Lipo>
101.2299

> <Gold.Chemscore.Internal_Hbond>
0.0000

> <Gold.Chemscore.DEClash>
0.2937

> <Gold.Chemscore.DEInternal>
1.5827

> <Gold.Chemscore.Rot>
3.0758

> <Gold.Chemscore.Internal.Correction>
   9.000000E+99

> <Gold.Chemscore.Hbonds>
donor molecule, donor type, donor heavy atom, donor atom, acceptor molecule, acceptor atom, score
      P1  H  6896  6907       L1    12  0.72
      P1  H  6931  6943       L1    25  0.11
      P1  H  6934  6947       L1    25  0.17

> <Gold.Chemscore.Hbond.Weighted>
-5.0646

> <Gold.Chemscore.Metal.Weighted>
-0.0000

> <Gold.Chemscore.Lipo.Weighted>
-11.8439

> <Gold.Chemscore.Internal_Hbond.Weighted>
0.0000

> <Gold.Chemscore.DEClash.Weighted>
0.2937

> <Gold.Chemscore.DEInternal.Weighted>
1.5827

> <Gold.Chemscore.Rot.Weighted>
7.8741

> <Gold.Chemscore.Internal.Correction.Weighted>
   9.000000E+99

> <Gold.Protein.RotatedTorsions>
[ 6907 6896 6895 6894 ] final -143.96 input  -60.11 | X-H torsion
[ 7974 7965 7964 7962 ] final   -3.15 input  175.53 | X-H torsion
[ 8008 7997 7996 7995 ] final -179.67 input   59.86 | X-H torsion
[ 10167 10162 10161 10158 ] final -111.08 input  -65.29 | X-H torsion
[ 10718 10713 10712 10709 ] final   44.55 input   66.30 | X-H torsion
[ 10763 10752 10751 10750 ] final  -23.13 input  -60.55 | X-H torsion
[ 11005 11000 10999 10996 ] final -107.88 input  -57.11 | X-H torsion

> <Gold.Protein.ActiveResidues>
 VAL166  LYS551  ARG553  GLY616  TRP617  ASP618  TYR619  PRO620  LYS621  CYS622 
 ASP623  PHE694  ASN695  SER759  ASP760  ASP761  ALA762  ILE779  LEU786  VAL792 
 PHE793  MET794  SER795  GLU796  ALA797  LYS798  CYS799  TRP800  GLU811  SER814 

> <Gold.Protein.RotatedAtoms>
  151.1076  133.5197  159.2606 H   0  0  0  0  0  0  0  0  0  0  0  0  # atno 6907 bound_to 6896
  151.2004  135.0439  159.8879 H   0  0  0  0  0  0  0  0  0  0  0  0  # atno 6908 bound_to 6896
  152.5448  134.0905  159.8328 H   0  0  0  0  0  0  0  0  0  0  0  0  # atno 6909 bound_to 6896
  146.2394  140.1678  142.8332 H   0  0  0  0  0  0  0  0  0  0  0  0  # atno 7974 bound_to 7965
  156.0332  140.1286  157.0236 H   0  0  0  0  0  0  0  0  0  0  0  0  # atno 8008 bound_to 7997
  154.4359  140.1045  156.6200 H   0  0  0  0  0  0  0  0  0  0  0  0  # atno 8009 bound_to 7997
  155.5776  140.3467  155.4534 H   0  0  0  0  0  0  0  0  0  0  0  0  # atno 8010 bound_to 7997
  140.1375  143.4308  152.1585 H   0  0  0  0  0  0  0  0  0  0  0  0  # atno 10167 bound_to 10162
  157.4280  130.8008  149.7576 H   0  0  0  0  0  0  0  0  0  0  0  0  # atno 10718 bound_to 10713
  153.6629  135.6975  153.5171 H   0  0  0  0  0  0  0  0  0  0  0  0  # atno 10763 bound_to 10752
  153.2618  135.4242  155.0900 H   0  0  0  0  0  0  0  0  0  0  0  0  # atno 10764 bound_to 10752
  154.8447  135.3556  154.6174 H   0  0  0  0  0  0  0  0  0  0  0  0  # atno 10765 bound_to 10752
  141.0931  133.9020  157.2029 H   0  0  0  0  0  0  0  0  0  0  0  0  # atno 11005 bound_to 11000
  145.0036  140.8653  143.5267 LP  0  0  0  0  0  0  0  0  0  0  0  0  # atno 17320 bound_to 7965
  145.1701  139.2409  143.5346 LP  0  0  0  0  0  0  0  0  0  0  0  0  # atno 17321 bound_to 7965
  139.5489  144.7321  151.4498 LP  0  0  0  0  0  0  0  0  0  0  0  0  # atno 17342 bound_to 10162
  140.6780  143.8145  150.7084 LP  0  0  0  0  0  0  0  0  0  0  0  0  # atno 17343 bound_to 10162
  155.9903  130.3945  150.3034 LP  0  0  0  0  0  0  0  0  0  0  0  0  # atno 17370 bound_to 10713
  157.1188  131.0241  151.3018 LP  0  0  0  0  0  0  0  0  0  0  0  0  # atno 17371 bound_to 10713
  139.9761  135.0113  156.9634 LP  0  0  0  0  0  0  0  0  0  0  0  0  # atno 17394 bound_to 11000
  140.5205  134.0912  155.7291 LP  0  0  0  0  0  0  0  0  0  0  0  0  # atno 17395 bound_to 11000

$$$$
