AV-unprocessed.smi:2119|AV-procd|sdf|8636|dock1
  -GOLD-   2272011383D 1   1.00000     0.00000
 Structure written by MMmdl.
 48 50  0  0  0  0  0  0  0  0  2 V2000
  144.8284  136.4859  152.9302 O   0  0  0  0  0  0  0  0  0  0  0  0
  146.0303  136.3385  152.7121 C   0  0  0  0  0  0  0  0  0  0  0  0
  146.9774  137.1594  153.1888 N   0  0  0  0  0  0  0  0  0  0  0  0
  146.7407  138.3406  154.0136 C   0  0  0  0  0  0  0  0  0  0  0  0
  147.4100  138.2417  155.4111 C   0  0  2  0  0  0  0  0  0  0  0  0
  146.5985  138.9170  156.5538 C   0  0  1  0  0  0  0  0  0  0  0  0
  145.1837  138.4035  156.7724 C   0  0  0  0  0  0  0  0  0  0  0  0
  144.8760  138.8345  158.2047 C   0  0  0  0  0  0  0  0  0  0  0  0
  146.1316  138.9520  158.8634 O   0  0  0  0  0  0  0  0  0  0  0  0
  147.1813  138.6689  157.9493 C   0  0  0  0  0  0  0  0  0  0  0  0
  148.8002  138.7909  155.3994 N   0  3  0  0  0  0  0  0  0  0  0  0
  149.7735  137.9615  154.6477 C   0  0  0  0  0  0  0  0  0  0  0  0
  151.1998  138.4997  154.8564 C   0  0  0  0  0  0  0  0  0  0  0  0
  151.2602  139.8673  154.4684 O   0  0  0  0  0  0  0  0  0  0  0  0
  150.3880  140.6831  155.2419 C   0  0  0  0  0  0  0  0  0  0  0  0
  148.9362  140.2236  155.0311 C   0  0  0  0  0  0  0  0  0  0  0  0
  146.5693  135.3611  151.9634 N   0  0  0  0  0  0  0  0  0  0  0  0
  145.9079  134.2870  151.3095 C   0  0  0  0  0  0  0  0  0  0  0  0
  144.5486  134.4520  150.9726 C   0  0  0  0  0  0  0  0  0  0  0  0
  143.8753  133.4105  150.3066 C   0  0  0  0  0  0  0  0  0  0  0  0
  144.5948  132.2414  149.9924 C   0  0  0  0  0  0  0  0  0  0  0  0
  145.8998  132.0729  150.2924 N   0  0  0  0  0  0  0  0  0  0  0  0
  146.5390  133.0749  150.9338 C   0  0  0  0  0  0  0  0  0  0  0  0
  147.9374  136.9596  152.9484 H   0  0  0  0  0  0  0  0  0  0  0  0
  147.1347  139.1926  153.4599 H   0  0  0  0  0  0  0  0  0  0  0  0
  145.6703  138.5170  154.1299 H   0  0  0  0  0  0  0  0  0  0  0  0
  147.4918  137.1840  155.6668 H   0  0  0  0  0  0  0  0  0  0  0  0
  146.5439  139.9935  156.3866 H   0  0  0  0  0  0  0  0  0  0  0  0
  144.4602  138.8135  156.0685 H   0  0  0  0  0  0  0  0  0  0  0  0
  145.1565  137.3155  156.6976 H   0  0  0  0  0  0  0  0  0  0  0  0
  144.3875  139.8092  158.2166 H   0  0  0  0  0  0  0  0  0  0  0  0
  144.2259  138.1240  158.7157 H   0  0  0  0  0  0  0  0  0  0  0  0
  147.4702  137.6234  158.0670 H   0  0  0  0  0  0  0  0  0  0  0  0
  148.0556  139.2862  158.1581 H   0  0  0  0  0  0  0  0  0  0  0  0
  149.7242  136.9260  154.9862 H   0  0  0  0  0  0  0  0  0  0  0  0
  149.5293  137.9647  153.5851 H   0  0  0  0  0  0  0  0  0  0  0  0
  151.5086  138.3919  155.8974 H   0  0  0  0  0  0  0  0  0  0  0  0
  151.9079  137.9303  154.2540 H   0  0  0  0  0  0  0  0  0  0  0  0
  150.6639  140.6368  156.2967 H   0  0  0  0  0  0  0  0  0  0  0  0
  150.5032  141.7204  154.9272 H   0  0  0  0  0  0  0  0  0  0  0  0
  148.6633  140.3749  153.9862 H   0  0  0  0  0  0  0  0  0  0  0  0
  148.2686  140.8397  155.6327 H   0  0  0  0  0  0  0  0  0  0  0  0
  147.5629  135.4229  151.7960 H   0  0  0  0  0  0  0  0  0  0  0  0
  144.0240  135.3622  151.2246 H   0  0  0  0  0  0  0  0  0  0  0  0
  142.8326  133.5052  150.0420 H   0  0  0  0  0  0  0  0  0  0  0  0
  144.1108  131.4226  149.4810 H   0  0  0  0  0  0  0  0  0  0  0  0
  147.5856  132.8937  151.1233 H   0  0  0  0  0  0  0  0  0  0  0  0
  149.1046  138.7309  156.3606 H   0  0  0  0  0  0  0  0  0  0  0  0
  1  2  2  0  0  0  0
  2  3  1  0  0  0  0
  2 17  1  0  0  0  0
  3  4  1  0  0  0  0
  3 24  1  0  0  0  0
  4  5  1  0  0  0  0
  4 25  1  0  0  0  0
  4 26  1  0  0  0  0
  5  6  1  0  0  0  0
  5 11  1  0  0  0  0
  5 27  1  0  0  0  0
  6 10  1  0  0  0  0
  6  7  1  0  0  0  0
  6 28  1  0  0  0  0
  7  8  1  0  0  0  0
  7 29  1  0  0  0  0
  7 30  1  0  0  0  0
  8  9  1  0  0  0  0
  8 31  1  0  0  0  0
  8 32  1  0  0  0  0
  9 10  1  0  0  0  0
 10 33  1  0  0  0  0
 10 34  1  0  0  0  0
 11 16  1  0  0  0  0
 11 12  1  0  0  0  0
 11 48  1  0  0  0  0
 12 13  1  0  0  0  0
 12 35  1  0  0  0  0
 12 36  1  0  0  0  0
 13 14  1  0  0  0  0
 13 37  1  0  0  0  0
 13 38  1  0  0  0  0
 14 15  1  0  0  0  0
 15 16  1  0  0  0  0
 15 39  1  0  0  0  0
 15 40  1  0  0  0  0
 16 41  1  0  0  0  0
 16 42  1  0  0  0  0
 17 18  1  0  0  0  0
 17 43  1  0  0  0  0
 18 23  1  0  0  0  0
 18 19  2  0  0  0  0
 19 20  1  0  0  0  0
 19 44  1  0  0  0  0
 20 21  2  0  0  0  0
 20 45  1  0  0  0  0
 21 22  1  0  0  0  0
 21 46  1  0  0  0  0
 22 23  2  0  0  0  0
 23 47  1  0  0  0  0
M  CHG  1  11   1
M  END
> <s_m_source_file>
AV-unprocessed.smi

> <i_m_source_file_index>
2119

> <i_lp_mmshare_version>
43012

> <i_f3d_flags>
0

> <s_epik_input>
W2NIXTFuW2NIXVtjSF1bY0hdYzFbTkhdQyg9TylbTkhdW0NIMl1bQ0BIXShbQ0BASF0yW0NIMl1bQ0gyXU9bQ0gyXTIpTjNbQ0gyXVtDSDJdT1tDSDJdW0NIMl0z

> <s_epik_cmdline>
J2VwaWtfcHl0aG9uJywgJy1waCcsICc3LjAnLCAnLXRuJywgJzgnLCAnLW1hJywgJzIwMCcsICctbWV0YWxfYmluZGluZycsICctaW1hZScsICc8aW5maWxlLm1hZT4nLCAnLW9tYWUnLCAnPG91dGZpbGUubWFlPic=

> <r_epik_Ionization_Penalty>
0.987463

> <r_epik_Ionization_Penalty_Charging>
0.98326

> <r_epik_Ionization_Penalty_Neutral>
0.00420251

> <r_epik_State_Penalty>
1.01721

> <r_epik_Charging_Adjusted_Penalty>
2.00047

> <i_epik_Tot_Q>
1

> <i_epik_Tot_abs_Q>
1

> <r_epik_Metal_State_Penalty>
1.01439

> <b_epik_Metal_Only>
0

> <s_lp_Force_Field>
OPLS_2005

> <r_lp_Energy>
42.3323

> <b_lp_Chiralities_Consistent>
1

> <s_lp_Variant>
AV-unprocessed.smi:2119-7

> <Gold.Version>
5.8.1

> <Gold.Id.Protein>
6NUR|6NUR_protein|mol2

> <Gold.PLP.Fitness>
41.5693

> <Gold.PLP.PLP>
-28.2629

> <Gold.PLP.part.hbond>
-4.0000

> <Gold.PLP.part.metal>
0.0000

> <Gold.PLP.part.buried>
-5.3086

> <Gold.PLP.part.nonpolar>
-20.3819

> <Gold.PLP.part.repulsive>
0.3119

> <Gold.PLP.ligand.clash>
0.0000

> <Gold.PLP.ligand.torsion>
0.6669

> <Gold.PLP.Chemscore.Hbond>
3.8160

> <Gold.PLP.Chemscore.CHOScore>
0.9438

> <Gold.PLP.Chemscore.Metal>
0.0000

> <Gold.Chemscore.Hbonds>
donor molecule, donor type, donor heavy atom, donor atom, acceptor molecule, acceptor atom, score
      L1  H     3    24       P1  7948  0.91
      L1  H    17    43       P1  7948  1.00
      P1  H  6934  6947       L1     9  0.08
      P1  H  7989  7998       L1    14  0.70
      L1  C    23    47       P1 10747  0.77

> <Gold.PLP.Chemscore.Internal.Correction>
0.3608

> <Gold.Rescore>
     Score         DG    S(hbond)    S(metal)    S(lipo)     H(rot)  DE(clash)    DE(int)     intcor
     18.72     -20.75       3.68        0.00      62.72       1.70       0.05       1.98       ----

> <Gold.Chemscore.Fitness>
18.7186

> <Gold.Chemscore.DG>
-20.7539

> <Gold.Chemscore.ZeroCoef>
-5.4800

> <Gold.Chemscore.Hbond>
3.6806

> <Gold.Chemscore.Metal>
0.0000

> <Gold.Chemscore.Lipo>
62.7209

> <Gold.Chemscore.Internal_Hbond>
0.0000

> <Gold.Chemscore.DEClash>
0.0540

> <Gold.Chemscore.DEInternal>
1.9813

> <Gold.Chemscore.Rot>
1.7021

> <Gold.Chemscore.Internal.Correction>
   9.000000E+99

> <Gold.Chemscore.Hbonds>
donor molecule, donor type, donor heavy atom, donor atom, acceptor molecule, acceptor atom, score
      L1  H     3    24       P1  7948  0.89
      L1  H    17    43       P1  7948  0.92
      P1  H  6934  6947       L1     9  0.04
      P1  H  7989  7998       L1    14  0.14

> <Gold.Chemscore.Hbond.Weighted>
-12.2931

> <Gold.Chemscore.Metal.Weighted>
-0.0000

> <Gold.Chemscore.Lipo.Weighted>
-7.3383

> <Gold.Chemscore.Internal_Hbond.Weighted>
0.0000

> <Gold.Chemscore.DEClash.Weighted>
0.0540

> <Gold.Chemscore.DEInternal.Weighted>
1.9813

> <Gold.Chemscore.Rot.Weighted>
4.3575

> <Gold.Chemscore.Internal.Correction.Weighted>
   9.000000E+99

> <Gold.Protein.RotatedTorsions>
[ 6907 6896 6895 6894 ] final -102.61 input  -60.11 | X-H torsion
[ 7974 7965 7964 7962 ] final -126.92 input  175.53 | X-H torsion
[ 8008 7997 7996 7995 ] final  124.26 input   59.86 | X-H torsion
[ 10167 10162 10161 10158 ] final  102.45 input  -65.29 | X-H torsion
[ 10718 10713 10712 10709 ] final  177.76 input   66.30 | X-H torsion
[ 10763 10752 10751 10750 ] final -125.70 input  -60.55 | X-H torsion
[ 11005 11000 10999 10996 ] final   38.44 input  -57.11 | X-H torsion

> <Gold.Protein.ActiveResidues>
 VAL166  LYS551  ARG553  GLY616  TRP617  ASP618  TYR619  PRO620  LYS621  CYS622 
 ASP623  PHE694  ASN695  SER759  ASP760  ASP761  ALA762  ILE779  LEU786  VAL792 
 PHE793  MET794  SER795  GLU796  ALA797  LYS798  CYS799  TRP800  GLU811  SER814 

> <Gold.Protein.RotatedAtoms>
  150.7204  134.0554  159.3812 H   0  0  0  0  0  0  0  0  0  0  0  0  # atno 6907 bound_to 6896
  151.8532  135.0548  160.0470 H   0  0  0  0  0  0  0  0  0  0  0  0  # atno 6908 bound_to 6896
  152.2774  133.5402  159.5513 H   0  0  0  0  0  0  0  0  0  0  0  0  # atno 6909 bound_to 6896
  144.9824  140.7653  143.4604 H   0  0  0  0  0  0  0  0  0  0  0  0  # atno 7974 bound_to 7965
  156.2795  140.2744  156.1759 H   0  0  0  0  0  0  0  0  0  0  0  0  # atno 8008 bound_to 7997
  155.0606  140.0386  157.2593 H   0  0  0  0  0  0  0  0  0  0  0  0  # atno 8009 bound_to 7997
  154.7120  140.2670  155.6626 H   0  0  0  0  0  0  0  0  0  0  0  0  # atno 8010 bound_to 7997
  139.7348  144.7027  151.0665 H   0  0  0  0  0  0  0  0  0  0  0  0  # atno 10167 bound_to 10162
  156.9006  130.9877  151.3036 H   0  0  0  0  0  0  0  0  0  0  0  0  # atno 10718 bound_to 10713
  154.8738  135.4020  154.3310 H   0  0  0  0  0  0  0  0  0  0  0  0  # atno 10763 bound_to 10752
  153.4124  135.7021  153.6355 H   0  0  0  0  0  0  0  0  0  0  0  0  # atno 10764 bound_to 10752
  153.5052  135.3719  155.2530 H   0  0  0  0  0  0  0  0  0  0  0  0  # atno 10765 bound_to 10752
  140.2126  134.3736  155.8041 H   0  0  0  0  0  0  0  0  0  0  0  0  # atno 11005 bound_to 11000
  145.2402  139.2076  143.4996 LP  0  0  0  0  0  0  0  0  0  0  0  0  # atno 17320 bound_to 7965
  146.3411  140.2296  142.8593 LP  0  0  0  0  0  0  0  0  0  0  0  0  # atno 17321 bound_to 7965
  140.7777  143.4997  150.9787 LP  0  0  0  0  0  0  0  0  0  0  0  0  # atno 17342 bound_to 10162
  139.8685  143.7222  152.3168 LP  0  0  0  0  0  0  0  0  0  0  0  0  # atno 17343 bound_to 10162
  157.6028  130.8525  149.8829 LP  0  0  0  0  0  0  0  0  0  0  0  0  # atno 17370 bound_to 10713
  156.0584  130.3704  150.1039 LP  0  0  0  0  0  0  0  0  0  0  0  0  # atno 17371 bound_to 10713
  141.2226  133.7151  156.8444 LP  0  0  0  0  0  0  0  0  0  0  0  0  # atno 17394 bound_to 11000
  140.1934  134.8949  157.3086 LP  0  0  0  0  0  0  0  0  0  0  0  0  # atno 17395 bound_to 11000

$$$$
