AV-unprocessed.smi:2100|AV-procd|sdf|8574|dock8
  -GOLD-   2272011303D 1   1.00000     0.00000
 Structure written by MMmdl.
 41 42  0  0  0  0  0  0  0  0  1 V2000
  152.9964  137.4921  160.2993 C   0  0  0  0  0  0  0  0  0  0  0  0
  151.8423  137.9948  159.4254 C   0  0  1  0  0  0  0  0  0  0  0  0
  152.3031  138.3343  157.9963 C   0  0  0  0  0  0  0  0  0  0  0  0
  151.1578  138.6936  157.1418 N   0  0  0  0  0  0  0  0  0  0  0  0
  151.5045  139.3630  155.5836 S   0  0  0  0  0  0  0  0  0  0  0  0
  152.9565  139.5722  155.4766 O   0  0  0  0  0  0  0  0  0  0  0  0
  150.7750  138.5952  154.5627 O   0  0  0  0  0  0  0  0  0  0  0  0
  150.7296  140.8969  155.7525 N   0  0  0  0  0  0  0  0  0  0  0  0
  150.4828  141.4511  157.0853 C   0  0  0  0  0  0  0  0  0  0  0  0
  151.7764  141.5352  157.9111 C   0  0  0  0  0  0  0  0  0  0  0  0
  151.8069  142.7601  158.8054 C   0  0  0  0  0  0  0  0  0  0  0  0
  151.9030  144.0544  158.2512 C   0  0  0  0  0  0  0  0  0  0  0  0
  151.9305  145.1582  159.1254 C   0  0  0  0  0  0  0  0  0  0  0  0
  151.8636  144.9266  160.5128 C   0  0  0  0  0  0  0  0  0  0  0  0
  151.7722  143.5956  160.9661 C   0  0  0  0  0  0  0  0  0  0  0  0
  151.7443  142.5303  160.1364 N   0  0  0  0  0  0  0  0  0  0  0  0
  150.0570  137.7197  157.2116 C   0  0  0  0  0  0  0  0  0  0  0  0
  149.6888  137.4010  158.6725 C   0  0  1  0  0  0  0  0  0  0  0  0
  148.6390  136.2888  158.7726 C   0  0  0  0  0  0  0  0  0  0  0  0
  150.8500  136.9792  159.3742 O   0  0  0  0  0  0  0  0  0  0  0  0
  153.7860  138.2400  160.3754 H   0  0  0  0  0  0  0  0  0  0  0  0
  153.4352  136.5821  159.8892 H   0  0  0  0  0  0  0  0  0  0  0  0
  152.6515  137.2697  161.3093 H   0  0  0  0  0  0  0  0  0  0  0  0
  151.4204  138.8859  159.8938 H   0  0  0  0  0  0  0  0  0  0  0  0
  153.0194  139.1550  158.0262 H   0  0  0  0  0  0  0  0  0  0  0  0
  152.8165  137.4805  157.5518 H   0  0  0  0  0  0  0  0  0  0  0  0
  151.0830  141.5853  155.0887 H   0  0  0  0  0  0  0  0  0  0  0  0
  150.0180  142.4330  156.9876 H   0  0  0  0  0  0  0  0  0  0  0  0
  149.7640  140.8084  157.5942 H   0  0  0  0  0  0  0  0  0  0  0  0
  151.8883  140.6395  158.5235 H   0  0  0  0  0  0  0  0  0  0  0  0
  152.6469  141.5703  157.2554 H   0  0  0  0  0  0  0  0  0  0  0  0
  151.9547  144.2002  157.1823 H   0  0  0  0  0  0  0  0  0  0  0  0
  152.0027  146.1640  158.7387 H   0  0  0  0  0  0  0  0  0  0  0  0
  151.8827  145.7489  161.2126 H   0  0  0  0  0  0  0  0  0  0  0  0
  151.7206  143.3808  162.0233 H   0  0  0  0  0  0  0  0  0  0  0  0
  149.1851  138.1141  156.6892 H   0  0  0  0  0  0  0  0  0  0  0  0
  150.3600  136.8118  156.6882 H   0  0  0  0  0  0  0  0  0  0  0  0
  149.2869  138.2960  159.1509 H   0  0  0  0  0  0  0  0  0  0  0  0
  147.7177  136.5718  158.2629 H   0  0  0  0  0  0  0  0  0  0  0  0
  148.3915  136.0793  159.8135 H   0  0  0  0  0  0  0  0  0  0  0  0
  148.9999  135.3633  158.3231 H   0  0  0  0  0  0  0  0  0  0  0  0
  1  2  1  0  0  0  0
  1 21  1  0  0  0  0
  1 22  1  0  0  0  0
  1 23  1  0  0  0  0
  2 20  1  0  0  0  0
  2  3  1  0  0  0  0
  2 24  1  0  0  0  0
  3  4  1  0  0  0  0
  3 25  1  0  0  0  0
  3 26  1  0  0  0  0
  4  5  1  0  0  0  0
  4 17  1  0  0  0  0
  5  6  2  0  0  0  0
  5  7  2  0  0  0  0
  5  8  1  0  0  0  0
  8  9  1  0  0  0  0
  8 27  1  0  0  0  0
  9 10  1  0  0  0  0
  9 28  1  0  0  0  0
  9 29  1  0  0  0  0
 10 11  1  0  0  0  0
 10 30  1  0  0  0  0
 10 31  1  0  0  0  0
 11 16  1  0  0  0  0
 11 12  2  0  0  0  0
 12 13  1  0  0  0  0
 12 32  1  0  0  0  0
 13 14  2  0  0  0  0
 13 33  1  0  0  0  0
 14 15  1  0  0  0  0
 14 34  1  0  0  0  0
 15 16  2  0  0  0  0
 15 35  1  0  0  0  0
 17 18  1  0  0  0  0
 17 36  1  0  0  0  0
 17 37  1  0  0  0  0
 18 19  1  0  0  0  0
 18 20  1  0  0  0  0
 18 38  1  0  0  0  0
 19 39  1  0  0  0  0
 19 40  1  0  0  0  0
 19 41  1  0  0  0  0
M  END
> <s_m_source_file>
AV-unprocessed.smi

> <i_m_source_file_index>
2100

> <i_lp_mmshare_version>
43012

> <i_f3d_flags>
0

> <s_epik_input>
W0NIM11bQ0BASF0xW0NIMl1OKFtDSDJdW0NASF0oTzEpW0NIM10pUyg9TykoPU8pW05IXVtDSDJdW0NIMl1jMltjSF1bY0hdW2NIXVtjSF1uMg==

> <s_epik_cmdline>
J2VwaWtfcHl0aG9uJywgJy1waCcsICc3LjAnLCAnLXRuJywgJzgnLCAnLW1hJywgJzIwMCcsICctbWV0YWxfYmluZGluZycsICctaW1hZScsICc8aW5maWxlLm1hZT4nLCAnLW9tYWUnLCAnPG91dGZpbGUubWFlPic=

> <r_epik_Ionization_Penalty>
0.085378

> <r_epik_Ionization_Penalty_Charging>
0

> <r_epik_Ionization_Penalty_Neutral>
0.085378

> <r_epik_State_Penalty>
0.0441186

> <r_epik_Charging_Adjusted_Penalty>
0.0441186

> <i_epik_Tot_Q>
0

> <i_epik_Tot_abs_Q>
0

> <r_epik_Metal_State_Penalty>
0.24397

> <b_epik_Metal_Only>
0

> <s_lp_Force_Field>
OPLS_2005

> <r_lp_Energy>
5.36855

> <b_lp_Chiralities_Consistent>
1

> <s_lp_Variant>
AV-unprocessed.smi:2100-2

> <Gold.Version>
5.8.1

> <Gold.Id.Protein>
6NUR|6NUR_protein|mol2

> <Gold.PLP.Fitness>
43.9054

> <Gold.PLP.PLP>
-39.5317

> <Gold.PLP.part.hbond>
-2.2913

> <Gold.PLP.part.metal>
0.0000

> <Gold.PLP.part.buried>
-7.4206

> <Gold.PLP.part.nonpolar>
-30.1035

> <Gold.PLP.part.repulsive>
0.1642

> <Gold.PLP.ligand.clash>
0.0000

> <Gold.PLP.ligand.torsion>
1.1683

> <Gold.PLP.Chemscore.Hbond>
2.0000

> <Gold.PLP.Chemscore.CHOScore>
0.0000

> <Gold.PLP.Chemscore.Metal>
0.0000

> <Gold.Chemscore.Hbonds>
donor molecule, donor type, donor heavy atom, donor atom, acceptor molecule, acceptor atom, score
      P1  H  6896  6907       L1    20  1.00
      P1  H  7997  8010       L1     6  1.00

> <Gold.PLP.Chemscore.Internal.Correction>
0.7102

> <Gold.Rescore>
     Score         DG    S(hbond)    S(metal)    S(lipo)     H(rot)  DE(clash)    DE(int)     intcor
     18.27     -19.46       1.98        0.00     100.38       1.71       0.05       1.14       ----

> <Gold.Chemscore.Fitness>
18.2732

> <Gold.Chemscore.DG>
-19.4582

> <Gold.Chemscore.ZeroCoef>
-5.4800

> <Gold.Chemscore.Hbond>
1.9764

> <Gold.Chemscore.Metal>
0.0000

> <Gold.Chemscore.Lipo>
100.3799

> <Gold.Chemscore.Internal_Hbond>
0.0000

> <Gold.Chemscore.DEClash>
0.0485

> <Gold.Chemscore.DEInternal>
1.1365

> <Gold.Chemscore.Rot>
1.7060

> <Gold.Chemscore.Internal.Correction>
   9.000000E+99

> <Gold.Chemscore.Hbonds>
donor molecule, donor type, donor heavy atom, donor atom, acceptor molecule, acceptor atom, score
      P1  H  6896  6907       L1    20  0.96
      P1  H  7997  8010       L1     6  1.00

> <Gold.Chemscore.Hbond.Weighted>
-6.6011

> <Gold.Chemscore.Metal.Weighted>
-0.0000

> <Gold.Chemscore.Lipo.Weighted>
-11.7444

> <Gold.Chemscore.Internal_Hbond.Weighted>
0.0000

> <Gold.Chemscore.DEClash.Weighted>
0.0485

> <Gold.Chemscore.DEInternal.Weighted>
1.1365

> <Gold.Chemscore.Rot.Weighted>
4.3674

> <Gold.Chemscore.Internal.Correction.Weighted>
   9.000000E+99

> <Gold.Protein.RotatedTorsions>
[ 6907 6896 6895 6894 ] final  -17.08 input  -60.11 | X-H torsion
[ 7974 7965 7964 7962 ] final -119.39 input  175.53 | X-H torsion
[ 8008 7997 7996 7995 ] final   94.94 input   59.86 | X-H torsion
[ 10167 10162 10161 10158 ] final   -9.24 input  -65.29 | X-H torsion
[ 10718 10713 10712 10709 ] final -137.69 input   66.30 | X-H torsion
[ 10763 10752 10751 10750 ] final   13.31 input  -60.55 | X-H torsion
[ 11005 11000 10999 10996 ] final  -73.10 input  -57.11 | X-H torsion

> <Gold.Protein.ActiveResidues>
 VAL166  LYS551  ARG553  GLY616  TRP617  ASP618  TYR619  PRO620  LYS621  CYS622 
 ASP623  PHE694  ASN695  SER759  ASP760  ASP761  ALA762  ILE779  LEU786  VAL792 
 PHE793  MET794  SER795  GLU796  ALA797  LYS798  CYS799  TRP800  GLU811  SER814 

> <Gold.Protein.RotatedAtoms>
  151.2988  135.0762  159.9230 H   0  0  0  0  0  0  0  0  0  0  0  0  # atno 6907 bound_to 6896
  152.5302  133.9855  159.7837 H   0  0  0  0  0  0  0  0  0  0  0  0  # atno 6908 bound_to 6896
  151.0138  133.5889  159.2710 H   0  0  0  0  0  0  0  0  0  0  0  0  # atno 6909 bound_to 6896
  145.0631  140.8304  143.4140 H   0  0  0  0  0  0  0  0  0  0  0  0  # atno 7974 bound_to 7965
  156.0634  140.3293  155.7489 H   0  0  0  0  0  0  0  0  0  0  0  0  # atno 8008 bound_to 7997
  155.5418  140.0602  157.2886 H   0  0  0  0  0  0  0  0  0  0  0  0  # atno 8009 bound_to 7997
  154.4493  140.1909  156.0587 H   0  0  0  0  0  0  0  0  0  0  0  0  # atno 8010 bound_to 7997
  140.7082  143.5880  150.8923 H   0  0  0  0  0  0  0  0  0  0  0  0  # atno 10167 bound_to 10162
  156.2910  130.7375  151.1400 H   0  0  0  0  0  0  0  0  0  0  0  0  # atno 10718 bound_to 10713
  153.1734  135.6816  153.8577 H   0  0  0  0  0  0  0  0  0  0  0  0  # atno 10763 bound_to 10752
  153.7933  135.3166  155.3382 H   0  0  0  0  0  0  0  0  0  0  0  0  # atno 10764 bound_to 10752
  154.8013  135.4776  154.0375 H   0  0  0  0  0  0  0  0  0  0  0  0  # atno 10765 bound_to 10752
  141.1618  133.6867  156.7160 H   0  0  0  0  0  0  0  0  0  0  0  0  # atno 11005 bound_to 11000
  145.1384  139.2587  143.5503 LP  0  0  0  0  0  0  0  0  0  0  0  0  # atno 17320 bound_to 7965
  146.3525  140.1055  142.8606 LP  0  0  0  0  0  0  0  0  0  0  0  0  # atno 17321 bound_to 7965
  139.9605  143.6169  152.3003 LP  0  0  0  0  0  0  0  0  0  0  0  0  # atno 17342 bound_to 10162
  139.6720  144.7660  151.1766 LP  0  0  0  0  0  0  0  0  0  0  0  0  # atno 17343 bound_to 10162
  157.7342  131.0584  150.5535 LP  0  0  0  0  0  0  0  0  0  0  0  0  # atno 17370 bound_to 10713
  156.5652  130.4265  149.6045 LP  0  0  0  0  0  0  0  0  0  0  0  0  # atno 17371 bound_to 10713
  140.2851  134.8285  157.3968 LP  0  0  0  0  0  0  0  0  0  0  0  0  # atno 17394 bound_to 11000
  140.1397  134.4987  155.8041 LP  0  0  0  0  0  0  0  0  0  0  0  0  # atno 17395 bound_to 11000

$$$$
