AV-unprocessed.smi:671|AV-procd|sdf|3279|dock6
  -GOLD-   22720 0243D 1   1.00000     0.00000
 Structure written by MMmdl.
 49 50  0  0  0  0  0  0  0  0  1 V2000
  152.8949  138.4870  154.8164 C   0  0  0  0  0  0  0  0  0  0  0  0
  151.5451  137.8614  155.0258 C   0  0  0  0  0  0  0  0  0  0  0  0
  151.4647  136.5969  155.4048 N   0  0  0  0  0  0  0  0  0  0  0  0
  150.1426  136.3506  155.5011 N   0  0  0  0  0  0  0  0  0  0  0  0
  149.6929  135.0320  155.9035 C   0  0  0  0  0  0  0  0  0  0  0  0
  149.3860  137.4629  155.1865 C   0  0  0  0  0  0  0  0  0  0  0  0
  147.8918  137.4455  155.2249 C   0  0  0  0  0  0  0  0  0  0  0  0
  150.2636  138.4662  154.8729 C   0  0  0  0  0  0  0  0  0  0  0  0
  149.9787  139.8865  154.4602 C   0  0  0  0  0  0  0  0  0  0  0  0
  149.4673  140.7438  155.6386 C   0  0  2  0  0  0  0  0  0  0  0  0
  148.1832  141.5120  155.2904 C   0  0  0  0  0  0  0  0  0  0  0  0
  150.4959  141.7009  156.0528 N   0  0  0  0  0  0  0  0  0  0  0  0
  150.7704  142.1382  157.2960 C   0  0  0  0  0  0  0  0  0  0  0  0
  150.1369  141.7485  158.2748 O   0  0  0  0  0  0  0  0  0  0  0  0
  151.7791  143.0232  157.3680 N   0  0  0  0  0  0  0  0  0  0  0  0
  152.2478  143.6828  158.5827 C   0  0  1  0  0  0  0  0  0  0  0  0
  151.3151  144.8516  158.9560 C   0  0  0  0  0  0  0  0  0  0  0  0
  150.6491  144.4675  160.2786 C   0  0  0  0  0  0  0  0  0  0  0  0
  151.6484  143.5289  160.9459 C   0  0  0  0  0  0  0  0  0  0  0  0
  152.2280  142.7146  159.7862 C   0  0  2  0  0  0  0  0  0  0  0  0
  153.5919  142.0855  160.1022 C   0  0  0  0  0  0  0  0  0  0  0  0
  153.1512  139.1466  155.6453 H   0  0  0  0  0  0  0  0  0  0  0  0
  152.9122  139.0817  153.9030 H   0  0  0  0  0  0  0  0  0  0  0  0
  153.6810  137.7357  154.7338 H   0  0  0  0  0  0  0  0  0  0  0  0
  149.2555  135.0841  156.9009 H   0  0  0  0  0  0  0  0  0  0  0  0
  150.5268  134.3285  155.9186 H   0  0  0  0  0  0  0  0  0  0  0  0
  148.9408  134.6690  155.2026 H   0  0  0  0  0  0  0  0  0  0  0  0
  147.4785  138.4410  155.0651 H   0  0  0  0  0  0  0  0  0  0  0  0
  147.5326  137.0895  156.1907 H   0  0  0  0  0  0  0  0  0  0  0  0
  147.4931  136.7889  154.4514 H   0  0  0  0  0  0  0  0  0  0  0  0
  150.8874  140.3301  154.0523 H   0  0  0  0  0  0  0  0  0  0  0  0
  149.2591  139.9240  153.6419 H   0  0  0  0  0  0  0  0  0  0  0  0
  149.2349  140.0920  156.4825 H   0  0  0  0  0  0  0  0  0  0  0  0
  147.3685  140.8319  155.0411 H   0  0  0  0  0  0  0  0  0  0  0  0
  148.3348  142.1758  154.4386 H   0  0  0  0  0  0  0  0  0  0  0  0
  147.8504  142.1205  156.1319 H   0  0  0  0  0  0  0  0  0  0  0  0
  151.0857  142.0549  155.3137 H   0  0  0  0  0  0  0  0  0  0  0  0
  152.2435  143.2765  156.5082 H   0  0  0  0  0  0  0  0  0  0  0  0
  153.2515  144.0850  158.4312 H   0  0  0  0  0  0  0  0  0  0  0  0
  151.9109  145.7538  159.1006 H   0  0  0  0  0  0  0  0  0  0  0  0
  150.5766  145.0789  158.1856 H   0  0  0  0  0  0  0  0  0  0  0  0
  150.4109  145.3345  160.8952 H   0  0  0  0  0  0  0  0  0  0  0  0
  149.7187  143.9338  160.0829 H   0  0  0  0  0  0  0  0  0  0  0  0
  152.4338  144.1149  161.4254 H   0  0  0  0  0  0  0  0  0  0  0  0
  151.1873  142.9013  161.7094 H   0  0  0  0  0  0  0  0  0  0  0  0
  151.5209  141.9090  159.5791 H   0  0  0  0  0  0  0  0  0  0  0  0
  154.3395  142.8475  160.3246 H   0  0  0  0  0  0  0  0  0  0  0  0
  153.9559  141.4977  159.2591 H   0  0  0  0  0  0  0  0  0  0  0  0
  153.5250  141.4213  160.9642 H   0  0  0  0  0  0  0  0  0  0  0  0
  1  2  1  0  0  0  0
  1 22  1  0  0  0  0
  1 23  1  0  0  0  0
  1 24  1  0  0  0  0
  2  8  1  0  0  0  0
  2  3  2  0  0  0  0
  3  4  1  0  0  0  0
  4  5  1  0  0  0  0
  4  6  1  0  0  0  0
  5 25  1  0  0  0  0
  5 26  1  0  0  0  0
  5 27  1  0  0  0  0
  6  7  1  0  0  0  0
  6  8  2  0  0  0  0
  7 28  1  0  0  0  0
  7 29  1  0  0  0  0
  7 30  1  0  0  0  0
  8  9  1  0  0  0  0
  9 10  1  0  0  0  0
  9 31  1  0  0  0  0
  9 32  1  0  0  0  0
 10 11  1  0  0  0  0
 10 12  1  0  0  0  0
 10 33  1  0  0  0  0
 11 34  1  0  0  0  0
 11 35  1  0  0  0  0
 11 36  1  0  0  0  0
 12 13  1  0  0  0  0
 12 37  1  0  0  0  0
 13 14  2  0  0  0  0
 13 15  1  0  0  0  0
 15 16  1  0  0  0  0
 15 38  1  0  0  0  0
 16 20  1  0  0  0  0
 16 17  1  0  0  0  0
 16 39  1  0  0  0  0
 17 18  1  0  0  0  0
 17 40  1  0  0  0  0
 17 41  1  0  0  0  0
 18 19  1  0  0  0  0
 18 42  1  0  0  0  0
 18 43  1  0  0  0  0
 19 20  1  0  0  0  0
 19 44  1  0  0  0  0
 19 45  1  0  0  0  0
 20 21  1  0  0  0  0
 20 46  1  0  0  0  0
 21 47  1  0  0  0  0
 21 48  1  0  0  0  0
 21 49  1  0  0  0  0
M  END
> <s_m_source_file>
AV-unprocessed.smi

> <i_m_source_file_index>
671

> <i_lp_mmshare_version>
43012

> <i_f3d_flags>
0

> <s_epik_input>
W0NIM11jMW5uKFtDSDNdKWMoW0NIM10pYzFbQ0gyXVtDQEhdKFtDSDNdKVtOSF1DKD1PKVtOSF1bQ0BASF0yW0NIMl1bQ0gyXVtDSDJdW0NASF0yW0NIM10=

> <s_epik_cmdline>
J2VwaWtfcHl0aG9uJywgJy1waCcsICc3LjAnLCAnLXRuJywgJzgnLCAnLW1hJywgJzIwMCcsICctbWV0YWxfYmluZGluZycsICctaW1hZScsICc8aW5maWxlLm1hZT4nLCAnLW9tYWUnLCAnPG91dGZpbGUubWFlPic=

> <r_lp_tautomer_probability>
1

> <r_epik_Ionization_Penalty>
0.0126855

> <r_epik_Ionization_Penalty_Charging>
0

> <r_epik_Ionization_Penalty_Neutral>
0.0126855

> <r_epik_State_Penalty>
0.00977547

> <r_epik_Charging_Adjusted_Penalty>
0.00977547

> <i_epik_Tot_Q>
0

> <i_epik_Tot_abs_Q>
0

> <r_epik_Metal_State_Penalty>
0.00957132

> <b_epik_Metal_Only>
0

> <s_lp_Force_Field>
OPLS_2005

> <r_lp_Energy>
21.5891

> <b_lp_Chiralities_Consistent>
1

> <s_lp_Variant>
AV-unprocessed.smi:671-7

> <Gold.Version>
5.8.1

> <Gold.Id.Protein>
6NUR|6NUR_protein|mol2

> <Gold.PLP.Fitness>
42.6820

> <Gold.PLP.PLP>
-42.6087

> <Gold.PLP.part.hbond>
-1.0250

> <Gold.PLP.part.metal>
0.0000

> <Gold.PLP.part.buried>
-3.0566

> <Gold.PLP.part.nonpolar>
-39.4746

> <Gold.PLP.part.repulsive>
0.3094

> <Gold.PLP.ligand.clash>
0.0000

> <Gold.PLP.ligand.torsion>
1.4735

> <Gold.PLP.Chemscore.Hbond>
1.0000

> <Gold.PLP.Chemscore.CHOScore>
0.0000

> <Gold.PLP.Chemscore.Metal>
0.0000

> <Gold.Chemscore.Hbonds>
donor molecule, donor type, donor heavy atom, donor atom, acceptor molecule, acceptor atom, score
      P1  H 10752 10765       L1     3  1.00

> <Gold.PLP.Chemscore.Internal.Correction>
0.0202

> <Gold.Rescore>
     Score         DG    S(hbond)    S(metal)    S(lipo)     H(rot)  DE(clash)    DE(int)     intcor
     15.60     -19.22       0.98        0.00     121.26       1.45       0.97       2.65       ----

> <Gold.Chemscore.Fitness>
15.5995

> <Gold.Chemscore.DG>
-19.2198

> <Gold.Chemscore.ZeroCoef>
-5.4800

> <Gold.Chemscore.Hbond>
0.9772

> <Gold.Chemscore.Metal>
0.0000

> <Gold.Chemscore.Lipo>
121.2621

> <Gold.Chemscore.Internal_Hbond>
0.0000

> <Gold.Chemscore.DEClash>
0.9689

> <Gold.Chemscore.DEInternal>
2.6514

> <Gold.Chemscore.Rot>
1.4499

> <Gold.Chemscore.Internal.Correction>
   9.000000E+99

> <Gold.Chemscore.Hbonds>
donor molecule, donor type, donor heavy atom, donor atom, acceptor molecule, acceptor atom, score
      P1  H 10752 10765       L1     3  0.78

> <Gold.Chemscore.Hbond.Weighted>
-3.2640

> <Gold.Chemscore.Metal.Weighted>
-0.0000

> <Gold.Chemscore.Lipo.Weighted>
-14.1877

> <Gold.Chemscore.Internal_Hbond.Weighted>
0.0000

> <Gold.Chemscore.DEClash.Weighted>
0.9689

> <Gold.Chemscore.DEInternal.Weighted>
2.6514

> <Gold.Chemscore.Rot.Weighted>
3.7118

> <Gold.Chemscore.Internal.Correction.Weighted>
   9.000000E+99

> <Gold.Protein.RotatedTorsions>
[ 6907 6896 6895 6894 ] final    5.35 input  -60.11 | X-H torsion
[ 7974 7965 7964 7962 ] final -149.01 input  175.53 | X-H torsion
[ 8008 7997 7996 7995 ] final  135.14 input   59.86 | X-H torsion
[ 10167 10162 10161 10158 ] final  -24.47 input  -65.29 | X-H torsion
[ 10718 10713 10712 10709 ] final   29.42 input   66.30 | X-H torsion
[ 10763 10752 10751 10750 ] final -170.10 input  -60.55 | X-H torsion
[ 11005 11000 10999 10996 ] final  -91.81 input  -57.11 | X-H torsion

> <Gold.Protein.ActiveResidues>
 VAL166  LYS551  ARG553  GLY616  TRP617  ASP618  TYR619  PRO620  LYS621  CYS622 
 ASP623  PHE694  ASN695  SER759  ASP760  ASP761  ALA762  ILE779  LEU786  VAL792 
 PHE793  MET794  SER795  GLU796  ALA797  LYS798  CYS799  TRP800  GLU811  SER814 

> <Gold.Protein.RotatedAtoms>
  151.6561  135.0995  160.0170 H   0  0  0  0  0  0  0  0  0  0  0  0  # atno 6907 bound_to 6896
  152.3973  133.6761  159.6295 H   0  0  0  0  0  0  0  0  0  0  0  0  # atno 6908 bound_to 6896
  150.7878  133.8769  159.3315 H   0  0  0  0  0  0  0  0  0  0  0  0  # atno 6909 bound_to 6896
  144.7994  140.5121  143.5718 H   0  0  0  0  0  0  0  0  0  0  0  0  # atno 7974 bound_to 7965
  156.3002  140.2478  156.3533 H   0  0  0  0  0  0  0  0  0  0  0  0  # atno 8008 bound_to 7997
  154.8945  140.0408  157.1877 H   0  0  0  0  0  0  0  0  0  0  0  0  # atno 8009 bound_to 7997
  154.8563  140.2914  155.5570 H   0  0  0  0  0  0  0  0  0  0  0  0  # atno 8010 bound_to 7997
  140.7288  143.4351  151.0742 H   0  0  0  0  0  0  0  0  0  0  0  0  # atno 10167 bound_to 10162
  157.2463  130.7093  149.6383 H   0  0  0  0  0  0  0  0  0  0  0  0  # atno 10718 bound_to 10713
  154.6451  135.2904  155.0056 H   0  0  0  0  0  0  0  0  0  0  0  0  # atno 10763 bound_to 10752
  154.1168  135.6554  153.4899 H   0  0  0  0  0  0  0  0  0  0  0  0  # atno 10764 bound_to 10752
  153.0347  135.5278  154.7335 H   0  0  0  0  0  0  0  0  0  0  0  0  # atno 10765 bound_to 10752
  141.1536  133.7779  156.9931 H   0  0  0  0  0  0  0  0  0  0  0  0  # atno 11005 bound_to 11000
  145.5591  139.1479  143.3351 LP  0  0  0  0  0  0  0  0  0  0  0  0  # atno 17320 bound_to 7965
  146.2271  140.5728  142.8991 LP  0  0  0  0  0  0  0  0  0  0  0  0  # atno 17321 bound_to 7965
  139.8012  143.8081  152.3163 LP  0  0  0  0  0  0  0  0  0  0  0  0  # atno 17342 bound_to 10162
  139.8099  144.7340  150.9712 LP  0  0  0  0  0  0  0  0  0  0  0  0  # atno 17343 bound_to 10162
  155.9668  130.4442  150.5451 LP  0  0  0  0  0  0  0  0  0  0  0  0  # atno 17370 bound_to 10713
  157.3325  131.0702  151.1850 LP  0  0  0  0  0  0  0  0  0  0  0  0  # atno 17371 bound_to 10713
  140.0989  134.9547  157.1893 LP  0  0  0  0  0  0  0  0  0  0  0  0  # atno 17394 bound_to 11000
  140.3345  134.2773  155.7222 LP  0  0  0  0  0  0  0  0  0  0  0  0  # atno 17395 bound_to 11000

$$$$
