AV-unprocessed.smi:2065|AV-procd|sdf|8417|dock5
  -GOLD-   2272011113D 1   1.00000     0.00000
 Structure written by MMmdl.
 38 39  0  0  0  0  0  0  0  0  1 V2000
  153.9241  141.9058  160.5310 C   0  0  0  0  0  0  0  0  0  0  0  0
  152.8917  142.4301  159.5775 C   0  0  0  0  0  0  0  0  0  0  0  0
  152.1327  141.6993  158.6178 C   0  0  0  0  0  0  0  0  0  0  0  0
  151.3602  142.6708  158.0424 C   0  0  0  0  0  0  0  0  0  0  0  0
  150.4291  142.5523  157.0593 N   0  0  0  0  0  0  0  0  0  0  0  0
  149.8807  141.4349  156.5519 C   0  0  0  0  0  0  0  0  0  0  0  0
  150.1451  140.2851  156.9044 O   0  0  0  0  0  0  0  0  0  0  0  0
  148.9948  141.7284  155.5893 N   0  0  0  0  0  0  0  0  0  0  0  0
  148.1990  140.7597  154.8359 C   0  0  2  0  0  0  0  0  0  0  0  0
  147.0762  140.1644  155.7240 C   0  0  0  0  0  0  0  0  0  0  0  0
  146.5489  138.7750  155.3088 C   0  0  0  0  0  0  0  0  0  0  0  0
  146.0847  138.6509  153.8434 C   0  0  0  0  0  0  0  0  0  0  0  0
  147.1106  139.0423  152.7522 C   0  0  0  0  0  0  0  0  0  0  0  0
  148.5075  138.9551  153.1762 N   0  0  0  0  0  0  0  0  0  0  0  0
  149.0851  139.7276  154.1124 C   0  0  0  0  0  0  0  0  0  0  0  0
  150.2748  139.6051  154.4017 O   0  0  0  0  0  0  0  0  0  0  0  0
  151.6529  143.8801  158.6322 N   0  0  0  0  0  0  0  0  0  0  0  0
  151.0956  145.1921  158.3674 C   0  0  0  0  0  0  0  0  0  0  0  0
  152.6022  143.7265  159.5806 N   0  0  0  0  0  0  0  0  0  0  0  0
  154.0115  140.8214  160.4596 H   0  0  0  0  0  0  0  0  0  0  0  0
  153.6672  142.1498  161.5621 H   0  0  0  0  0  0  0  0  0  0  0  0
  154.9051  142.3319  160.3203 H   0  0  0  0  0  0  0  0  0  0  0  0
  152.1632  140.6410  158.4066 H   0  0  0  0  0  0  0  0  0  0  0  0
  150.1185  143.4231  156.6542 H   0  0  0  0  0  0  0  0  0  0  0  0
  148.8378  142.7011  155.3685 H   0  0  0  0  0  0  0  0  0  0  0  0
  147.7159  141.3256  154.0384 H   0  0  0  0  0  0  0  0  0  0  0  0
  147.4332  140.0841  156.7518 H   0  0  0  0  0  0  0  0  0  0  0  0
  146.2435  140.8681  155.7579 H   0  0  0  0  0  0  0  0  0  0  0  0
  147.3133  138.0227  155.5087 H   0  0  0  0  0  0  0  0  0  0  0  0
  145.7168  138.5098  155.9617 H   0  0  0  0  0  0  0  0  0  0  0  0
  145.7910  137.6134  153.6802 H   0  0  0  0  0  0  0  0  0  0  0  0
  145.1756  139.2356  153.6986 H   0  0  0  0  0  0  0  0  0  0  0  0
  146.9757  138.4016  151.8805 H   0  0  0  0  0  0  0  0  0  0  0  0
  146.9096  140.0534  152.3965 H   0  0  0  0  0  0  0  0  0  0  0  0
  149.0840  138.2689  152.7105 H   0  0  0  0  0  0  0  0  0  0  0  0
  151.1918  145.4238  157.3063 H   0  0  0  0  0  0  0  0  0  0  0  0
  151.6190  145.9561  158.9439 H   0  0  0  0  0  0  0  0  0  0  0  0
  150.0401  145.2024  158.6405 H   0  0  0  0  0  0  0  0  0  0  0  0
  1  2  1  0  0  0  0
  1 20  1  0  0  0  0
  1 21  1  0  0  0  0
  1 22  1  0  0  0  0
  2 19  2  0  0  0  0
  2  3  1  0  0  0  0
  3  4  2  0  0  0  0
  3 23  1  0  0  0  0
  4  5  1  0  0  0  0
  4 17  1  0  0  0  0
  5  6  1  0  0  0  0
  5 24  1  0  0  0  0
  6  7  2  0  0  0  0
  6  8  1  0  0  0  0
  8  9  1  0  0  0  0
  8 25  1  0  0  0  0
  9 15  1  0  0  0  0
  9 10  1  0  0  0  0
  9 26  1  0  0  0  0
 10 11  1  0  0  0  0
 10 27  1  0  0  0  0
 10 28  1  0  0  0  0
 11 12  1  0  0  0  0
 11 29  1  0  0  0  0
 11 30  1  0  0  0  0
 12 13  1  0  0  0  0
 12 31  1  0  0  0  0
 12 32  1  0  0  0  0
 13 14  1  0  0  0  0
 13 33  1  0  0  0  0
 13 34  1  0  0  0  0
 14 15  1  0  0  0  0
 14 35  1  0  0  0  0
 15 16  2  0  0  0  0
 17 18  1  0  0  0  0
 17 19  1  0  0  0  0
 18 36  1  0  0  0  0
 18 37  1  0  0  0  0
 18 38  1  0  0  0  0
M  END
> <s_m_source_file>
AV-unprocessed.smi

> <i_m_source_file_index>
2065

> <i_lp_mmshare_version>
43012

> <i_f3d_flags>
0

> <s_epik_input>
W0NIM11jMVtjSF1jKG4objEpW0NIM10pW05IXUMoPU8pW05IXVtDQEBIXTJbQ0gyXVtDSDJdW0NIMl1bQ0gyXVtOSF1DMj1P

> <s_epik_cmdline>
J2VwaWtfcHl0aG9uJywgJy1waCcsICc3LjAnLCAnLXRuJywgJzgnLCAnLW1hJywgJzIwMCcsICctbWV0YWxfYmluZGluZycsICctaW1hZScsICc8aW5maWxlLm1hZT4nLCAnLW9tYWUnLCAnPG91dGZpbGUubWFlPic=

> <r_lp_tautomer_probability>
1

> <r_epik_Ionization_Penalty>
8.1752e-05

> <r_epik_Ionization_Penalty_Charging>
0

> <r_epik_Ionization_Penalty_Neutral>
8.1752e-05

> <r_epik_State_Penalty>
-0

> <r_epik_Charging_Adjusted_Penalty>
0

> <i_epik_Tot_Q>
0

> <i_epik_Tot_abs_Q>
0

> <r_epik_Metal_State_Penalty>
-0

> <b_epik_Metal_Only>
0

> <s_lp_Force_Field>
OPLS_2005

> <r_lp_Energy>
15.6016

> <b_lp_Chiralities_Consistent>
1

> <s_lp_Variant>
AV-unprocessed.smi:2065-1

> <Gold.Version>
5.8.1

> <Gold.Id.Protein>
6NUR|6NUR_protein|mol2

> <Gold.PLP.Fitness>
42.9504

> <Gold.PLP.PLP>
-32.5607

> <Gold.PLP.part.hbond>
-4.9253

> <Gold.PLP.part.metal>
0.0000

> <Gold.PLP.part.buried>
-4.3270

> <Gold.PLP.part.nonpolar>
-24.3052

> <Gold.PLP.part.repulsive>
0.3628

> <Gold.PLP.ligand.clash>
0.0000

> <Gold.PLP.ligand.torsion>
0.1089

> <Gold.PLP.Chemscore.Hbond>
3.5185

> <Gold.PLP.Chemscore.CHOScore>
0.0000

> <Gold.PLP.Chemscore.Metal>
0.0000

> <Gold.Chemscore.Hbonds>
donor molecule, donor type, donor heavy atom, donor atom, acceptor molecule, acceptor atom, score
      L1  H     5    24       P1  8028  0.98
      L1  H     8    25       P1  8028  0.99
      L1  H    14    35       P1  7948  0.53
      P1  H  7989  7998       L1    16  0.93

> <Gold.PLP.Chemscore.Internal.Correction>
0.0519

> <Gold.Rescore>
     Score         DG    S(hbond)    S(metal)    S(lipo)     H(rot)  DE(clash)    DE(int)     intcor
     16.55     -20.53       3.20        0.00      59.20       1.00       0.20       3.78       ----

> <Gold.Chemscore.Fitness>
16.5523

> <Gold.Chemscore.DG>
-20.5346

> <Gold.Chemscore.ZeroCoef>
-5.4800

> <Gold.Chemscore.Hbond>
3.2000

> <Gold.Chemscore.Metal>
0.0000

> <Gold.Chemscore.Lipo>
59.2007

> <Gold.Chemscore.Internal_Hbond>
0.0000

> <Gold.Chemscore.DEClash>
0.1991

> <Gold.Chemscore.DEInternal>
3.7832

> <Gold.Chemscore.Rot>
1.0000

> <Gold.Chemscore.Internal.Correction>
   9.000000E+99

> <Gold.Chemscore.Hbonds>
donor molecule, donor type, donor heavy atom, donor atom, acceptor molecule, acceptor atom, score
      L1  H     5    24       P1  8028  0.91
      L1  H     8    25       P1  8028  0.92
      L1  H    14    35       P1  7948  0.53
      P1  H  7989  7998       L1    16  0.85

> <Gold.Chemscore.Hbond.Weighted>
-10.6881

> <Gold.Chemscore.Metal.Weighted>
-0.0000

> <Gold.Chemscore.Lipo.Weighted>
-6.9265

> <Gold.Chemscore.Internal_Hbond.Weighted>
0.0000

> <Gold.Chemscore.DEClash.Weighted>
0.1991

> <Gold.Chemscore.DEInternal.Weighted>
3.7832

> <Gold.Chemscore.Rot.Weighted>
2.5600

> <Gold.Chemscore.Internal.Correction.Weighted>
   9.000000E+99

> <Gold.Protein.RotatedTorsions>
[ 6907 6896 6895 6894 ] final   27.41 input  -60.11 | X-H torsion
[ 7974 7965 7964 7962 ] final  -72.27 input  175.53 | X-H torsion
[ 8008 7997 7996 7995 ] final -110.89 input   59.86 | X-H torsion
[ 10167 10162 10161 10158 ] final -164.00 input  -65.29 | X-H torsion
[ 10718 10713 10712 10709 ] final   33.44 input   66.30 | X-H torsion
[ 10763 10752 10751 10750 ] final  -21.98 input  -60.55 | X-H torsion
[ 11005 11000 10999 10996 ] final  -84.75 input  -57.11 | X-H torsion

> <Gold.Protein.ActiveResidues>
 VAL166  LYS551  ARG553  GLY616  TRP617  ASP618  TYR619  PRO620  LYS621  CYS622 
 ASP623  PHE694  ASN695  SER759  ASP760  ASP761  ALA762  ILE779  LEU786  VAL792 
 PHE793  MET794  SER795  GLU796  ALA797  LYS798  CYS799  TRP800  GLU811  SER814 

> <Gold.Protein.RotatedAtoms>
  152.0019  134.9923  160.0565 H   0  0  0  0  0  0  0  0  0  0  0  0  # atno 6907 bound_to 6896
  152.1511  133.4518  159.4822 H   0  0  0  0  0  0  0  0  0  0  0  0  # atno 6908 bound_to 6896
  150.6875  134.2106  159.4401 H   0  0  0  0  0  0  0  0  0  0  0  0  # atno 6909 bound_to 6896
  145.6673  140.9233  143.0901 H   0  0  0  0  0  0  0  0  0  0  0  0  # atno 7974 bound_to 7965
  154.9813  140.0396  157.2279 H   0  0  0  0  0  0  0  0  0  0  0  0  # atno 8008 bound_to 7997
  154.7711  140.2802  155.6115 H   0  0  0  0  0  0  0  0  0  0  0  0  # atno 8009 bound_to 7997
  156.2921  140.2610  156.2514 H   0  0  0  0  0  0  0  0  0  0  0  0  # atno 8010 bound_to 7997
  139.6281  144.0492  152.1992 H   0  0  0  0  0  0  0  0  0  0  0  0  # atno 10167 bound_to 10162
  157.2979  130.7336  149.6649 H   0  0  0  0  0  0  0  0  0  0  0  0  # atno 10718 bound_to 10713
  153.6447  135.6983  153.5229 H   0  0  0  0  0  0  0  0  0  0  0  0  # atno 10763 bound_to 10752
  153.2754  135.4202  155.1027 H   0  0  0  0  0  0  0  0  0  0  0  0  # atno 10764 bound_to 10752
  154.8491  135.3589  154.5992 H   0  0  0  0  0  0  0  0  0  0  0  0  # atno 10765 bound_to 10752
  141.1648  133.7362  156.8914 H   0  0  0  0  0  0  0  0  0  0  0  0  # atno 11005 bound_to 11000
  144.7068  139.8527  143.7427 LP  0  0  0  0  0  0  0  0  0  0  0  0  # atno 17320 bound_to 7965
  146.1075  139.4076  143.0308 LP  0  0  0  0  0  0  0  0  0  0  0  0  # atno 17321 bound_to 7965
  140.0151  144.6195  150.7614 LP  0  0  0  0  0  0  0  0  0  0  0  0  # atno 17342 bound_to 10162
  140.7423  143.2830  151.3543 LP  0  0  0  0  0  0  0  0  0  0  0  0  # atno 17343 bound_to 10162
  155.9670  130.4289  150.4808 LP  0  0  0  0  0  0  0  0  0  0  0  0  # atno 17370 bound_to 10713
  157.2783  131.0601  151.2215 LP  0  0  0  0  0  0  0  0  0  0  0  0  # atno 17371 bound_to 10713
  140.1646  134.9142  157.2758 LP  0  0  0  0  0  0  0  0  0  0  0  0  # atno 17394 bound_to 11000
  140.2572  134.3614  155.7420 LP  0  0  0  0  0  0  0  0  0  0  0  0  # atno 17395 bound_to 11000

$$$$
