AV-unprocessed.smi:1412|AV-procd|sdf|5747|dock10
  -GOLD-   22720 5383D 1   1.00000     0.00000
 Structure written by MMmdl.
 41 42  0  0  0  0  0  0  0  0  3 V2000
  150.4300  134.6467  155.5420 C   0  0  0  0  0  0  0  0  0  0  0  0
  149.7130  135.9356  155.1026 C   0  0  0  0  0  0  0  0  0  0  0  0
  148.1635  135.8478  154.9530 C   0  0  2  0  0  0  0  0  0  0  0  0
  147.5809  137.2775  154.7891 C   0  0  0  0  0  0  0  0  0  0  0  0
  147.5283  135.2441  156.2420 C   0  0  0  0  0  0  0  0  0  0  0  0
  147.7859  136.0683  157.4246 N   0  0  0  0  0  0  0  0  0  0  0  0
  148.5194  135.7288  158.4944 C   0  0  0  0  0  0  0  0  0  0  0  0
  149.1550  134.6729  158.5005 O   0  0  0  0  0  0  0  0  0  0  0  0
  148.4448  136.6211  159.5055 N   0  5  0  0  0  0  0  0  0  0  0  0
  147.9448  136.2428  160.6933 C   0  0  0  0  0  0  0  0  0  0  0  0
  147.7919  137.1036  161.7127 N   0  0  0  0  0  0  0  0  0  0  0  0
  147.2541  136.5139  162.8483 N   0  0  0  0  0  0  0  0  0  0  0  0
  147.0246  135.2146  162.6588 C   0  0  0  0  0  0  0  0  0  0  0  0
  147.4424  134.5943  161.0754 S   0  0  0  0  0  0  0  0  0  0  0  0
  147.7867  134.9831  153.7740 N   0  3  0  0  0  0  0  0  0  0  0  0
  148.2438  133.5657  153.7920 C   0  0  0  0  0  0  0  0  0  0  0  0
  147.9705  132.9044  152.4284 C   0  0  0  0  0  0  0  0  0  0  0  0
  146.5913  133.0034  152.0983 O   0  0  0  0  0  0  0  0  0  0  0  0
  146.1660  134.3567  152.0072 C   0  0  0  0  0  0  0  0  0  0  0  0
  146.3528  135.0287  153.3753 C   0  0  0  0  0  0  0  0  0  0  0  0
  151.5080  134.8065  155.5745 H   0  0  0  0  0  0  0  0  0  0  0  0
  150.2481  133.8234  154.8521 H   0  0  0  0  0  0  0  0  0  0  0  0
  150.1255  134.3297  156.5390 H   0  0  0  0  0  0  0  0  0  0  0  0
  149.9656  136.7197  155.8168 H   0  0  0  0  0  0  0  0  0  0  0  0
  150.1607  136.2384  154.1560 H   0  0  0  0  0  0  0  0  0  0  0  0
  147.6565  137.8528  155.7121 H   0  0  0  0  0  0  0  0  0  0  0  0
  146.5232  137.2562  154.5238 H   0  0  0  0  0  0  0  0  0  0  0  0
  148.1073  137.8478  154.0231 H   0  0  0  0  0  0  0  0  0  0  0  0
  146.4595  135.0708  156.1140 H   0  0  0  0  0  0  0  0  0  0  0  0
  147.9484  134.2598  156.4479 H   0  0  0  0  0  0  0  0  0  0  0  0
  147.3074  136.9567  157.4650 H   0  0  0  0  0  0  0  0  0  0  0  0
  146.6076  134.6179  163.4562 H   0  0  0  0  0  0  0  0  0  0  0  0
  149.3136  133.4832  153.9756 H   0  0  0  0  0  0  0  0  0  0  0  0
  147.7351  133.0202  154.5877 H   0  0  0  0  0  0  0  0  0  0  0  0
  148.5736  133.3690  151.6462 H   0  0  0  0  0  0  0  0  0  0  0  0
  148.2502  131.8512  152.4600 H   0  0  0  0  0  0  0  0  0  0  0  0
  146.7233  134.8831  151.2303 H   0  0  0  0  0  0  0  0  0  0  0  0
  145.1153  134.3773  151.7179 H   0  0  0  0  0  0  0  0  0  0  0  0
  145.7392  134.5086  154.1120 H   0  0  0  0  0  0  0  0  0  0  0  0
  145.9847  136.0513  153.3248 H   0  0  0  0  0  0  0  0  0  0  0  0
  148.2887  135.4010  153.0022 H   0  0  0  0  0  0  0  0  0  0  0  0
  1  2  1  0  0  0  0
  1 21  1  0  0  0  0
  1 22  1  0  0  0  0
  1 23  1  0  0  0  0
  2  3  1  0  0  0  0
  2 24  1  0  0  0  0
  2 25  1  0  0  0  0
  3  4  1  0  0  0  0
  3  5  1  0  0  0  0
  3 15  1  0  0  0  0
  4 26  1  0  0  0  0
  4 27  1  0  0  0  0
  4 28  1  0  0  0  0
  5  6  1  0  0  0  0
  5 29  1  0  0  0  0
  5 30  1  0  0  0  0
  6  7  1  0  0  0  0
  6 31  1  0  0  0  0
  7  8  2  0  0  0  0
  7  9  1  0  0  0  0
  9 10  1  0  0  0  0
 10 14  1  0  0  0  0
 10 11  2  0  0  0  0
 11 12  1  0  0  0  0
 12 13  2  0  0  0  0
 13 14  1  0  0  0  0
 13 32  1  0  0  0  0
 15 20  1  0  0  0  0
 15 16  1  0  0  0  0
 15 41  1  0  0  0  0
 16 17  1  0  0  0  0
 16 33  1  0  0  0  0
 16 34  1  0  0  0  0
 17 18  1  0  0  0  0
 17 35  1  0  0  0  0
 17 36  1  0  0  0  0
 18 19  1  0  0  0  0
 19 20  1  0  0  0  0
 19 37  1  0  0  0  0
 19 38  1  0  0  0  0
 20 39  1  0  0  0  0
 20 40  1  0  0  0  0
M  CHG  1   9  -1
M  CHG  1  15   1
M  END
> <s_m_source_file>
AV-unprocessed.smi

> <i_m_source_file_index>
1412

> <i_lp_mmshare_version>
43012

> <i_f3d_flags>
0

> <s_epik_input>
W0NIMl0xW0NIMl1PW0NIMl1bQ0gyXU4xW0NAQF0oW0NIM10pKFtDSDJdW0NIM10pW0NIMl1bTkhdQyg9TylbTkhdYzJubltjSF1zMg==

> <s_epik_cmdline>
J2VwaWtfcHl0aG9uJywgJy1waCcsICc3LjAnLCAnLXRuJywgJzgnLCAnLW1hJywgJzIwMCcsICctbWV0YWxfYmluZGluZycsICctaW1hZScsICc8aW5maWxlLm1hZT4nLCAnLW9tYWUnLCAnPG91dGZpbGUubWFlPic=

> <r_lp_tautomer_probability>
1

> <r_epik_Ionization_Penalty>
4.35651

> <r_epik_Ionization_Penalty_Charging>
4.3235

> <r_epik_Ionization_Penalty_Neutral>
0.0330098

> <r_epik_State_Penalty>
4.4846

> <r_epik_Charging_Adjusted_Penalty>
8.8081

> <i_epik_Tot_Q>
0

> <i_epik_Tot_abs_Q>
2

> <r_epik_Metal_State_Penalty>
1.11611

> <b_epik_Metal_Only>
1

> <s_lp_Force_Field>
OPLS_2005

> <r_lp_Energy>
23.2358

> <b_lp_Chiralities_Consistent>
1

> <s_lp_Variant>
AV-unprocessed.smi:1412-8

> <Gold.Version>
5.8.1

> <Gold.Id.Protein>
6NUR|6NUR_protein|mol2

> <Gold.PLP.Fitness>
39.8538

> <Gold.PLP.PLP>
-27.2223

> <Gold.PLP.part.hbond>
-4.0000

> <Gold.PLP.part.metal>
0.0000

> <Gold.PLP.part.buried>
-2.6208

> <Gold.PLP.part.nonpolar>
-20.4036

> <Gold.PLP.part.repulsive>
0.1453

> <Gold.PLP.ligand.clash>
0.0000

> <Gold.PLP.ligand.torsion>
0.7598

> <Gold.PLP.Chemscore.Hbond>
4.6373

> <Gold.PLP.Chemscore.CHOScore>
0.0000

> <Gold.PLP.Chemscore.Metal>
0.0000

> <Gold.Chemscore.Hbonds>
donor molecule, donor type, donor heavy atom, donor atom, acceptor molecule, acceptor atom, score
      L1  H    15    41       P1  7948  2.00
      P1  H  6896  6908       L1     8  1.00
      P1  H  6931  6943       L1    11  1.00
      P1  H  6934  6947       L1    11  0.48

> <Gold.PLP.Chemscore.Internal.Correction>
0.2393

> <Gold.Rescore>
     Score         DG    S(hbond)    S(metal)    S(lipo)     H(rot)  DE(clash)    DE(int)     intcor
     16.45     -17.48       3.34        0.00      48.30       1.88       0.04       0.99       ----

> <Gold.Chemscore.Fitness>
16.4546

> <Gold.Chemscore.DG>
-17.4843

> <Gold.Chemscore.ZeroCoef>
-5.4800

> <Gold.Chemscore.Hbond>
3.3414

> <Gold.Chemscore.Metal>
0.0000

> <Gold.Chemscore.Lipo>
48.3019

> <Gold.Chemscore.Internal_Hbond>
0.0000

> <Gold.Chemscore.DEClash>
0.0354

> <Gold.Chemscore.DEInternal>
0.9944

> <Gold.Chemscore.Rot>
1.8779

> <Gold.Chemscore.Internal.Correction>
   9.000000E+99

> <Gold.Chemscore.Hbonds>
donor molecule, donor type, donor heavy atom, donor atom, acceptor molecule, acceptor atom, score
      L1  H    15    41       P1  7948  0.94
      P1  H  6896  6908       L1     8  1.00
      P1  H  6931  6943       L1    11  0.87
      P1  H  6934  6947       L1    11  0.36

> <Gold.Chemscore.Hbond.Weighted>
-11.1604

> <Gold.Chemscore.Metal.Weighted>
-0.0000

> <Gold.Chemscore.Lipo.Weighted>
-5.6513

> <Gold.Chemscore.Internal_Hbond.Weighted>
0.0000

> <Gold.Chemscore.DEClash.Weighted>
0.0354

> <Gold.Chemscore.DEInternal.Weighted>
0.9944

> <Gold.Chemscore.Rot.Weighted>
4.8074

> <Gold.Chemscore.Internal.Correction.Weighted>
   9.000000E+99

> <Gold.Protein.RotatedTorsions>
[ 6907 6896 6895 6894 ] final  159.12 input  -60.11 | X-H torsion
[ 7974 7965 7964 7962 ] final -134.99 input  175.53 | X-H torsion
[ 8008 7997 7996 7995 ] final   43.98 input   59.86 | X-H torsion
[ 10167 10162 10161 10158 ] final -121.58 input  -65.29 | X-H torsion
[ 10718 10713 10712 10709 ] final  168.93 input   66.30 | X-H torsion
[ 10763 10752 10751 10750 ] final   -4.49 input  -60.55 | X-H torsion
[ 11005 11000 10999 10996 ] final   77.02 input  -57.11 | X-H torsion

> <Gold.Protein.ActiveResidues>
 VAL166  LYS551  ARG553  GLY616  TRP617  ASP618  TYR619  PRO620  LYS621  CYS622 
 ASP623  PHE694  ASN695  SER759  ASP760  ASP761  ALA762  ILE779  LEU786  VAL792 
 PHE793  MET794  SER795  GLU796  ALA797  LYS798  CYS799  TRP800  GLU811  SER814 

> <Gold.Protein.RotatedAtoms>
  151.9903  133.3788  159.4141 H   0  0  0  0  0  0  0  0  0  0  0  0  # atno 6907 bound_to 6896
  150.6922  134.3943  159.5100 H   0  0  0  0  0  0  0  0  0  0  0  0  # atno 6908 bound_to 6896
  152.1676  134.8861  160.0587 H   0  0  0  0  0  0  0  0  0  0  0  0  # atno 6909 bound_to 6896
  144.9053  140.6825  143.5059 H   0  0  0  0  0  0  0  0  0  0  0  0  # atno 7974 bound_to 7965
  155.3118  140.3391  155.4243 H   0  0  0  0  0  0  0  0  0  0  0  0  # atno 8008 bound_to 7997
  156.1952  140.1712  156.8050 H   0  0  0  0  0  0  0  0  0  0  0  0  # atno 8009 bound_to 7997
  154.5490  140.0709  156.8620 H   0  0  0  0  0  0  0  0  0  0  0  0  # atno 8010 bound_to 7997
  140.0235  143.5320  152.2210 H   0  0  0  0  0  0  0  0  0  0  0  0  # atno 10167 bound_to 10162
  157.0300  131.0256  151.2747 H   0  0  0  0  0  0  0  0  0  0  0  0  # atno 10718 bound_to 10713
  153.3856  135.7000  153.6533 H   0  0  0  0  0  0  0  0  0  0  0  0  # atno 10763 bound_to 10752
  153.5127  135.3628  155.2594 H   0  0  0  0  0  0  0  0  0  0  0  0  # atno 10764 bound_to 10752
  154.8697  135.4138  154.3162 H   0  0  0  0  0  0  0  0  0  0  0  0  # atno 10765 bound_to 10752
  139.9272  134.7649  156.1469 H   0  0  0  0  0  0  0  0  0  0  0  0  # atno 11005 bound_to 11000
  145.3546  139.1697  143.4416 LP  0  0  0  0  0  0  0  0  0  0  0  0  # atno 17320 bound_to 7965
  146.3130  140.3601  142.8664 LP  0  0  0  0  0  0  0  0  0  0  0  0  # atno 17321 bound_to 7965
  139.6124  144.7611  151.2923 LP  0  0  0  0  0  0  0  0  0  0  0  0  # atno 17342 bound_to 10162
  140.7332  143.6800  150.8009 LP  0  0  0  0  0  0  0  0  0  0  0  0  # atno 17343 bound_to 10162
  157.5185  130.7983  149.7782 LP  0  0  0  0  0  0  0  0  0  0  0  0  # atno 17370 bound_to 10713
  156.0073  130.3849  150.2387 LP  0  0  0  0  0  0  0  0  0  0  0  0  # atno 17371 bound_to 10713
  141.0838  133.6743  156.2393 LP  0  0  0  0  0  0  0  0  0  0  0  0  # atno 17394 bound_to 11000
  140.6302  134.5272  157.5558 LP  0  0  0  0  0  0  0  0  0  0  0  0  # atno 17395 bound_to 11000

$$$$
