AV-unprocessed.smi:101|AV-procd|sdf|928|dock4
  -GOLD-   2262017443D 1   1.00000     0.00000
 Structure written by MMmdl.
 44 46  0  0  0  0  0  0  0  0  1 V2000
  144.3837  145.1278  153.6948 C   0  0  0  0  0  0  0  0  0  0  0  0
  144.9236  143.8339  154.2820 C   0  0  0  0  0  0  0  0  0  0  0  0
  145.9649  143.1612  153.7272 C   0  0  0  0  0  0  0  0  0  0  0  0
  146.4812  141.9759  154.2412 N   0  0  0  0  0  0  0  0  0  0  0  0
  147.6346  141.2254  153.5962 C   0  0  1  0  0  0  0  0  0  0  0  0
  148.7548  141.2855  154.4311 O   0  0  0  0  0  0  0  0  0  0  0  0
  148.8651  140.0688  155.1581 C   0  0  2  0  0  0  0  0  0  0  0  0
  150.2349  139.9169  155.8438 C   0  0  0  0  0  0  0  0  0  0  0  0
  150.4759  140.9745  156.7587 O   0  0  0  0  0  0  0  0  0  0  0  0
  151.5758  140.9636  157.5345 C   0  0  0  0  0  0  0  0  0  0  0  0
  152.3951  140.0426  157.5443 O   0  0  0  0  0  0  0  0  0  0  0  0
  151.6970  142.1847  158.3823 C   0  0  0  0  0  0  0  0  0  0  0  0
  152.3795  142.1056  159.6186 C   0  0  0  0  0  0  0  0  0  0  0  0
  152.5081  143.2418  160.4409 C   0  0  0  0  0  0  0  0  0  0  0  0
  151.9569  144.4714  160.0362 C   0  0  0  0  0  0  0  0  0  0  0  0
  151.2768  144.5635  158.8078 C   0  0  0  0  0  0  0  0  0  0  0  0
  151.1463  143.4282  157.9844 C   0  0  0  0  0  0  0  0  0  0  0  0
  148.4226  139.0043  154.1491 C   0  0  2  0  0  0  0  0  0  0  0  0
  149.4799  138.6320  153.2801 O   0  0  0  0  0  0  0  0  0  0  0  0
  147.2862  139.7259  153.4203 C   0  0  2  0  0  0  0  0  0  0  0  0
  147.1651  139.3305  152.0662 O   0  0  0  0  0  0  0  0  0  0  0  0
  145.8804  141.4075  155.3844 C   0  0  0  0  0  0  0  0  0  0  0  0
  146.2609  140.3471  155.8787 O   0  0  0  0  0  0  0  0  0  0  0  0
  144.8144  142.0990  155.9555 N   0  0  0  0  0  0  0  0  0  0  0  0
  144.2796  143.2996  155.4849 C   0  0  0  0  0  0  0  0  0  0  0  0
  143.3354  143.8181  156.0787 O   0  0  0  0  0  0  0  0  0  0  0  0
  144.3890  141.6959  156.7777 H   0  0  0  0  0  0  0  0  0  0  0  0
  144.9490  145.4426  152.8171 H   0  0  0  0  0  0  0  0  0  0  0  0
  144.4351  145.9315  154.4302 H   0  0  0  0  0  0  0  0  0  0  0  0
  143.3427  145.0035  153.3946 H   0  0  0  0  0  0  0  0  0  0  0  0
  146.3977  143.5866  152.8351 H   0  0  0  0  0  0  0  0  0  0  0  0
  147.8477  141.7584  152.6674 H   0  0  0  0  0  0  0  0  0  0  0  0
  148.1135  140.0921  155.9487 H   0  0  0  0  0  0  0  0  0  0  0  0
  150.2650  138.9687  156.3823 H   0  0  0  0  0  0  0  0  0  0  0  0
  151.0263  139.8878  155.0936 H   0  0  0  0  0  0  0  0  0  0  0  0
  152.8107  141.1720  159.9506 H   0  0  0  0  0  0  0  0  0  0  0  0
  153.0303  143.1691  161.3835 H   0  0  0  0  0  0  0  0  0  0  0  0
  152.0561  145.3424  160.6671 H   0  0  0  0  0  0  0  0  0  0  0  0
  150.8535  145.5067  158.4953 H   0  0  0  0  0  0  0  0  0  0  0  0
  150.6182  143.5344  157.0478 H   0  0  0  0  0  0  0  0  0  0  0  0
  148.0672  138.1028  154.6491 H   0  0  0  0  0  0  0  0  0  0  0  0
  149.2916  137.7777  152.9230 H   0  0  0  0  0  0  0  0  0  0  0  0
  146.3479  139.5128  153.9350 H   0  0  0  0  0  0  0  0  0  0  0  0
  146.2741  139.0531  151.9155 H   0  0  0  0  0  0  0  0  0  0  0  0
  1  2  1  0  0  0  0
  1 28  1  0  0  0  0
  1 29  1  0  0  0  0
  1 30  1  0  0  0  0
  2 25  1  0  0  0  0
  2  3  2  0  0  0  0
  3  4  1  0  0  0  0
  3 31  1  0  0  0  0
  4  5  1  0  0  0  0
  4 22  1  0  0  0  0
  5 20  1  0  0  0  0
  5  6  1  0  0  0  0
  5 32  1  0  0  0  0
  6  7  1  0  0  0  0
  7  8  1  0  0  0  0
  7 18  1  0  0  0  0
  7 33  1  0  0  0  0
  8  9  1  0  0  0  0
  8 34  1  0  0  0  0
  8 35  1  0  0  0  0
  9 10  1  0  0  0  0
 10 11  2  0  0  0  0
 10 12  1  0  0  0  0
 12 17  1  0  0  0  0
 12 13  2  0  0  0  0
 13 14  1  0  0  0  0
 13 36  1  0  0  0  0
 14 15  2  0  0  0  0
 14 37  1  0  0  0  0
 15 16  1  0  0  0  0
 15 38  1  0  0  0  0
 16 17  2  0  0  0  0
 16 39  1  0  0  0  0
 17 40  1  0  0  0  0
 18 19  1  0  0  0  0
 18 20  1  0  0  0  0
 18 41  1  0  0  0  0
 19 42  1  0  0  0  0
 20 21  1  0  0  0  0
 20 43  1  0  0  0  0
 21 44  1  0  0  0  0
 22 23  2  0  0  0  0
 22 24  1  0  0  0  0
 24 27  1  0  0  0  0
 24 25  1  0  0  0  0
 25 26  2  0  0  0  0
M  END
> <s_m_source_file>
AV-unprocessed.smi

> <i_m_source_file_index>
101

> <i_lp_mmshare_version>
43012

> <i_f3d_flags>
0

> <s_epik_input>
Tz1jMVtuSF1jKD1PKW4oW2NIXWMxW0NIM10pW0NAQEhdMk9bQ0BIXShbQ0BASF0oW09IXSlbQ0BIXTJbT0hdKVtDSDJdT0MoPU8pYzNbY0hdW2NIXVtjSF1bY0hdW2NIXTM=

> <s_epik_cmdline>
J2VwaWtfcHl0aG9uJywgJy1waCcsICc3LjAnLCAnLXRuJywgJzgnLCAnLW1hJywgJzIwMCcsICctbWV0YWxfYmluZGluZycsICctaW1hZScsICc8aW5maWxlLm1hZT4nLCAnLW9tYWUnLCAnPG91dGZpbGUubWFlPic=

> <r_lp_tautomer_probability>
0.999537

> <r_epik_Ionization_Penalty>
0.00263537

> <r_epik_Ionization_Penalty_Charging>
0.00263428

> <r_epik_Ionization_Penalty_Neutral>
1.09111e-06

> <r_epik_State_Penalty>
0.00183335

> <r_epik_Charging_Adjusted_Penalty>
0.00446763

> <i_epik_Tot_Q>
0

> <i_epik_Tot_abs_Q>
0

> <r_epik_Metal_State_Penalty>
1.00528

> <b_epik_Metal_Only>
0

> <s_epik_Chemistry_Notes>
This compound has an ester and may undergo hydrolysis at high or low pH. This compound contains an acetal/aminal-like group ( X-CH(R)-Y where X, Y are N, S, or O) that may be acid/base labile, releasing an aldehyde.

> <s_lp_Force_Field>
OPLS_2005

> <r_lp_Energy>
40.8637

> <b_lp_Chiralities_Consistent>
1

> <s_lp_Variant>
AV-unprocessed.smi:101-16

> <Gold.Version>
5.8.1

> <Gold.Id.Protein>
6NUR|6NUR_protein|mol2

> <Gold.PLP.Fitness>
58.0135

> <Gold.PLP.PLP>
-54.9081

> <Gold.PLP.part.hbond>
-4.1913

> <Gold.PLP.part.metal>
0.0000

> <Gold.PLP.part.buried>
-8.5860

> <Gold.PLP.part.nonpolar>
-41.8843

> <Gold.PLP.part.repulsive>
0.2852

> <Gold.PLP.ligand.clash>
1.7555

> <Gold.PLP.ligand.torsion>
0.5461

> <Gold.PLP.Chemscore.Hbond>
1.9687

> <Gold.PLP.Chemscore.CHOScore>
0.0000

> <Gold.PLP.Chemscore.Metal>
0.0000

> <Gold.Chemscore.Hbonds>
donor molecule, donor type, donor heavy atom, donor atom, acceptor molecule, acceptor atom, score
      L1  H    19    42       P1  7948  1.00
      P1  H  7997  8010       L1    11  0.63

> <Gold.PLP.Chemscore.Internal.Correction>
0.0470

> <Gold.Rescore>
     Score         DG    S(hbond)    S(metal)    S(lipo)     H(rot)  DE(clash)    DE(int)     intcor
     13.60     -18.84       2.72        0.00     109.21       3.32       0.14       5.10       ----

> <Gold.Chemscore.Fitness>
13.5969

> <Gold.Chemscore.DG>
-18.8402

> <Gold.Chemscore.ZeroCoef>
-5.4800

> <Gold.Chemscore.Hbond>
2.7169

> <Gold.Chemscore.Metal>
0.0000

> <Gold.Chemscore.Lipo>
109.2107

> <Gold.Chemscore.Internal_Hbond>
0.0000

> <Gold.Chemscore.DEClash>
0.1387

> <Gold.Chemscore.DEInternal>
5.1046

> <Gold.Chemscore.Rot>
3.3172

> <Gold.Chemscore.Internal.Correction>
   9.000000E+99

> <Gold.Chemscore.Hbonds>
donor molecule, donor type, donor heavy atom, donor atom, acceptor molecule, acceptor atom, score
      L1  H    19    42       P1  7948  0.96
      P1  H  7997  8010       L1    11  0.61

> <Gold.Chemscore.Hbond.Weighted>
-9.0746

> <Gold.Chemscore.Metal.Weighted>
-0.0000

> <Gold.Chemscore.Lipo.Weighted>
-12.7777

> <Gold.Chemscore.Internal_Hbond.Weighted>
0.0000

> <Gold.Chemscore.DEClash.Weighted>
0.1387

> <Gold.Chemscore.DEInternal.Weighted>
5.1046

> <Gold.Chemscore.Rot.Weighted>
8.4920

> <Gold.Chemscore.Internal.Correction.Weighted>
   9.000000E+99

> <Gold.Protein.RotatedTorsions>
[ 6907 6896 6895 6894 ] final  123.70 input  -60.11 | X-H torsion
[ 7974 7965 7964 7962 ] final   80.85 input  175.53 | X-H torsion
[ 8008 7997 7996 7995 ] final   46.87 input   59.86 | X-H torsion
[ 10167 10162 10161 10158 ] final   82.02 input  -65.29 | X-H torsion
[ 10718 10713 10712 10709 ] final   91.81 input   66.30 | X-H torsion
[ 10763 10752 10751 10750 ] final   41.49 input  -60.55 | X-H torsion
[ 11005 11000 10999 10996 ] final  -35.50 input  -57.11 | X-H torsion

> <Gold.Protein.ActiveResidues>
 VAL166  LYS551  ARG553  GLY616  TRP617  ASP618  TYR619  PRO620  LYS621  CYS622 
 ASP623  PHE694  ASN695  SER759  ASP760  ASP761  ALA762  ILE779  LEU786  VAL792 
 PHE793  MET794  SER795  GLU796  ALA797  LYS798  CYS799  TRP800  GLU811  SER814 

> <Gold.Protein.RotatedAtoms>
  152.4140  133.7008  159.6422 H   0  0  0  0  0  0  0  0  0  0  0  0  # atno 6907 bound_to 6896
  150.8018  133.8573  159.3231 H   0  0  0  0  0  0  0  0  0  0  0  0  # atno 6908 bound_to 6896
  151.6308  135.1025  160.0173 H   0  0  0  0  0  0  0  0  0  0  0  0  # atno 6909 bound_to 6896
  145.6458  139.2436  143.2005 H   0  0  0  0  0  0  0  0  0  0  0  0  # atno 7974 bound_to 7965
  155.3597  140.3418  155.4240 H   0  0  0  0  0  0  0  0  0  0  0  0  # atno 8008 bound_to 7997
  156.1720  140.1635  156.8465 H   0  0  0  0  0  0  0  0  0  0  0  0  # atno 8009 bound_to 7997
  154.5243  140.0760  156.8212 H   0  0  0  0  0  0  0  0  0  0  0  0  # atno 8010 bound_to 7997
  139.9332  144.6138  150.8324 H   0  0  0  0  0  0  0  0  0  0  0  0  # atno 10167 bound_to 10162
  157.6960  131.0421  150.3786 H   0  0  0  0  0  0  0  0  0  0  0  0  # atno 10718 bound_to 10713
  152.9907  135.6160  154.2797 H   0  0  0  0  0  0  0  0  0  0  0  0  # atno 10763 bound_to 10752
  154.2526  135.2785  155.2812 H   0  0  0  0  0  0  0  0  0  0  0  0  # atno 10764 bound_to 10752
  154.5275  135.5797  153.6788 H   0  0  0  0  0  0  0  0  0  0  0  0  # atno 10765 bound_to 10752
  140.9801  133.7061  156.1669 H   0  0  0  0  0  0  0  0  0  0  0  0  # atno 11005 bound_to 11000
  146.1244  140.7267  142.9442 LP  0  0  0  0  0  0  0  0  0  0  0  0  # atno 17320 bound_to 7965
  144.7141  140.4145  143.7058 LP  0  0  0  0  0  0  0  0  0  0  0  0  # atno 17321 bound_to 7965
  140.7632  143.3216  151.2609 LP  0  0  0  0  0  0  0  0  0  0  0  0  # atno 17342 bound_to 10162
  139.6765  143.9928  152.2784 LP  0  0  0  0  0  0  0  0  0  0  0  0  # atno 17343 bound_to 10162
  156.4203  130.3951  149.6830 LP  0  0  0  0  0  0  0  0  0  0  0  0  # atno 17370 bound_to 10713
  156.4083  130.7709  151.2721 LP  0  0  0  0  0  0  0  0  0  0  0  0  # atno 17371 bound_to 10713
  140.7200  134.4369  157.5575 LP  0  0  0  0  0  0  0  0  0  0  0  0  # atno 17394 bound_to 11000
  139.8946  134.8701  156.2167 LP  0  0  0  0  0  0  0  0  0  0  0  0  # atno 17395 bound_to 11000

$$$$
