AV-unprocessed.smi:1634|AV-procd|sdf|6537|dock1
  -GOLD-   22720 7223D 1   1.00000     0.00000
 Structure written by MMmdl.
 38 38  0  0  0  0  0  0  0  0  1 V2000
  148.3045  132.7341  152.8467 C   0  0  0  0  0  0  0  0  0  0  0  0
  149.3644  132.8441  153.9542 C   0  0  0  0  0  0  0  0  0  0  0  0
  149.7623  131.4524  154.4676 C   0  0  0  0  0  0  0  0  0  0  0  0
  148.8842  133.7405  155.1069 C   0  0  0  0  0  0  0  0  0  0  0  0
  149.2006  135.0967  154.8097 O   0  0  0  0  0  0  0  0  0  0  0  0
  148.2534  136.0613  155.2605 C   0  0  1  0  0  0  0  0  0  0  0  0
  148.9005  137.4476  155.1241 C   0  0  0  0  0  0  0  0  0  0  0  0
  146.9599  135.9639  154.4354 C   0  0  0  0  0  0  0  0  0  0  0  0
  145.9019  136.3608  154.9228 O   0  0  0  0  0  0  0  0  0  0  0  0
  147.1075  135.4632  153.1927 N   0  0  0  0  0  0  0  0  0  0  0  0
  146.1513  135.2550  152.1838 C   0  0  0  0  0  0  0  0  0  0  0  0
  145.9191  134.0727  151.5550 C   0  0  0  0  0  0  0  0  0  0  0  0
  144.9108  133.9353  150.5173 C   0  0  0  0  0  0  0  0  0  0  0  0
  144.7003  132.6205  149.7823 C   0  0  0  0  0  0  0  0  0  0  0  0
  143.8272  132.7575  148.7835 F   0  0  0  0  0  0  0  0  0  0  0  0
  145.8473  132.1669  149.2762 F   0  0  0  0  0  0  0  0  0  0  0  0
  144.2274  131.7025  150.6241 F   0  0  0  0  0  0  0  0  0  0  0  0
  144.2321  135.0497  150.1881 C   0  0  0  0  0  0  0  0  0  0  0  0
  144.4622  136.2679  150.8308 N   0  0  0  0  0  0  0  0  0  0  0  0
  145.3782  136.4506  151.8079 C   0  0  0  0  0  0  0  0  0  0  0  0
  145.5239  137.5589  152.3225 O   0  0  0  0  0  0  0  0  0  0  0  0
  143.9044  137.0558  150.5344 H   0  0  0  0  0  0  0  0  0  0  0  0
  147.3826  132.2892  153.2229 H   0  0  0  0  0  0  0  0  0  0  0  0
  148.6605  132.1159  152.0222 H   0  0  0  0  0  0  0  0  0  0  0  0
  148.0571  133.7136  152.4366 H   0  0  0  0  0  0  0  0  0  0  0  0
  150.2557  133.3018  153.5230 H   0  0  0  0  0  0  0  0  0  0  0  0
  148.9125  130.9377  154.9170 H   0  0  0  0  0  0  0  0  0  0  0  0
  150.5469  131.5207  155.2217 H   0  0  0  0  0  0  0  0  0  0  0  0
  150.1395  130.8278  153.6575 H   0  0  0  0  0  0  0  0  0  0  0  0
  147.8127  133.6035  155.2572 H   0  0  0  0  0  0  0  0  0  0  0  0
  149.3808  133.4527  156.0347 H   0  0  0  0  0  0  0  0  0  0  0  0
  148.0361  135.8886  156.3164 H   0  0  0  0  0  0  0  0  0  0  0  0
  148.2132  138.2370  155.4302 H   0  0  0  0  0  0  0  0  0  0  0  0
  149.2076  137.6489  154.0970 H   0  0  0  0  0  0  0  0  0  0  0  0
  149.7881  137.5227  155.7526 H   0  0  0  0  0  0  0  0  0  0  0  0
  148.0522  135.2282  152.9234 H   0  0  0  0  0  0  0  0  0  0  0  0
  146.4828  133.1886  151.8000 H   0  0  0  0  0  0  0  0  0  0  0  0
  143.4759  135.0970  149.4183 H   0  0  0  0  0  0  0  0  0  0  0  0
  1  2  1  0  0  0  0
  1 23  1  0  0  0  0
  1 24  1  0  0  0  0
  1 25  1  0  0  0  0
  2  3  1  0  0  0  0
  2  4  1  0  0  0  0
  2 26  1  0  0  0  0
  3 27  1  0  0  0  0
  3 28  1  0  0  0  0
  3 29  1  0  0  0  0
  4  5  1  0  0  0  0
  4 30  1  0  0  0  0
  4 31  1  0  0  0  0
  5  6  1  0  0  0  0
  6  7  1  0  0  0  0
  6  8  1  0  0  0  0
  6 32  1  0  0  0  0
  7 33  1  0  0  0  0
  7 34  1  0  0  0  0
  7 35  1  0  0  0  0
  8  9  2  0  0  0  0
  8 10  1  0  0  0  0
 10 11  1  0  0  0  0
 10 36  1  0  0  0  0
 11 20  1  0  0  0  0
 11 12  2  0  0  0  0
 12 13  1  0  0  0  0
 12 37  1  0  0  0  0
 13 14  1  0  0  0  0
 13 18  2  0  0  0  0
 14 15  1  0  0  0  0
 14 16  1  0  0  0  0
 14 17  1  0  0  0  0
 18 19  1  0  0  0  0
 18 38  1  0  0  0  0
 19 22  1  0  0  0  0
 19 20  1  0  0  0  0
 20 21  2  0  0  0  0
M  END
> <s_m_source_file>
AV-unprocessed.smi

> <i_m_source_file_index>
1634

> <i_lp_mmshare_version>
43012

> <i_f3d_flags>
0

> <s_epik_input>
W0NIM11bQ0hdKFtDSDNdKVtDSDJdT1tDQEhdKFtDSDNdKUMoPU8pW05IXWMxW2NIXWMoQyhGKShGKUYpW2NIXVtuSF1jMT1P

> <s_epik_cmdline>
J2VwaWtfcHl0aG9uJywgJy1waCcsICc3LjAnLCAnLXRuJywgJzgnLCAnLW1hJywgJzIwMCcsICctbWV0YWxfYmluZGluZycsICctaW1hZScsICc8aW5maWxlLm1hZT4nLCAnLW9tYWUnLCAnPG91dGZpbGUubWFlPic=

> <r_lp_tautomer_probability>
0.999

> <r_epik_Ionization_Penalty>
0.00884964

> <r_epik_Ionization_Penalty_Charging>
0.00884955

> <r_epik_Ionization_Penalty_Neutral>
9.33956e-08

> <r_epik_State_Penalty>
0.00669049

> <r_epik_Charging_Adjusted_Penalty>
0.01554

> <i_epik_Tot_Q>
0

> <i_epik_Tot_abs_Q>
0

> <r_epik_Metal_State_Penalty>
0.320763

> <b_epik_Metal_Only>
0

> <s_lp_Force_Field>
OPLS_2005

> <r_lp_Energy>
19.8034

> <b_lp_Chiralities_Consistent>
1

> <s_lp_Variant>
AV-unprocessed.smi:1634-2

> <Gold.Version>
5.8.1

> <Gold.Id.Protein>
6NUR|6NUR_protein|mol2

> <Gold.PLP.Fitness>
40.7184

> <Gold.PLP.PLP>
-38.1963

> <Gold.PLP.part.hbond>
-1.5773

> <Gold.PLP.part.metal>
0.0000

> <Gold.PLP.part.buried>
-2.7469

> <Gold.PLP.part.nonpolar>
-33.2655

> <Gold.PLP.part.repulsive>
0.4878

> <Gold.PLP.ligand.clash>
1.1351

> <Gold.PLP.ligand.torsion>
1.9381

> <Gold.PLP.Chemscore.Hbond>
1.4240

> <Gold.PLP.Chemscore.CHOScore>
0.9960

> <Gold.PLP.Chemscore.Metal>
0.0000

> <Gold.Chemscore.Hbonds>
donor molecule, donor type, donor heavy atom, donor atom, acceptor molecule, acceptor atom, score
      L1  H    10    36       P1  7948  0.45
      L1  H    19    22       P1 10171  0.96
      L1  C    18    38       P1 10186  0.95

> <Gold.PLP.Chemscore.Internal.Correction>
0.2735

> <Gold.Rescore>
     Score         DG    S(hbond)    S(metal)    S(lipo)     H(rot)  DE(clash)    DE(int)     intcor
     10.82     -12.95       1.61        0.00      56.93       1.79       0.04       2.09       ----

> <Gold.Chemscore.Fitness>
10.8203

> <Gold.Chemscore.DG>
-12.9501

> <Gold.Chemscore.ZeroCoef>
-5.4800

> <Gold.Chemscore.Hbond>
1.6122

> <Gold.Chemscore.Metal>
0.0000

> <Gold.Chemscore.Lipo>
56.9292

> <Gold.Chemscore.Internal_Hbond>
0.0000

> <Gold.Chemscore.DEClash>
0.0432

> <Gold.Chemscore.DEInternal>
2.0866

> <Gold.Chemscore.Rot>
1.7873

> <Gold.Chemscore.Internal.Correction>
   9.000000E+99

> <Gold.Chemscore.Hbonds>
donor molecule, donor type, donor heavy atom, donor atom, acceptor molecule, acceptor atom, score
      L1  H    10    36       P1  7948  0.46
      L1  H    19    22       P1 10171  0.92

> <Gold.Chemscore.Hbond.Weighted>
-5.3848

> <Gold.Chemscore.Metal.Weighted>
-0.0000

> <Gold.Chemscore.Lipo.Weighted>
-6.6607

> <Gold.Chemscore.Internal_Hbond.Weighted>
0.0000

> <Gold.Chemscore.DEClash.Weighted>
0.0432

> <Gold.Chemscore.DEInternal.Weighted>
2.0866

> <Gold.Chemscore.Rot.Weighted>
4.5755

> <Gold.Chemscore.Internal.Correction.Weighted>
   9.000000E+99

> <Gold.Protein.RotatedTorsions>
[ 6907 6896 6895 6894 ] final   78.69 input  -60.11 | X-H torsion
[ 7974 7965 7964 7962 ] final  145.05 input  175.53 | X-H torsion
[ 8008 7997 7996 7995 ] final   17.50 input   59.86 | X-H torsion
[ 10167 10162 10161 10158 ] final   81.44 input  -65.29 | X-H torsion
[ 10718 10713 10712 10709 ] final  -14.22 input   66.30 | X-H torsion
[ 10763 10752 10751 10750 ] final  -50.80 input  -60.55 | X-H torsion
[ 11005 11000 10999 10996 ] final  132.20 input  -57.11 | X-H torsion

> <Gold.Protein.ActiveResidues>
 VAL166  LYS551  ARG553  GLY616  TRP617  ASP618  TYR619  PRO620  LYS621  CYS622 
 ASP623  PHE694  ASN695  SER759  ASP760  ASP761  ALA762  ILE779  LEU786  VAL792 
 PHE793  MET794  SER795  GLU796  ALA797  LYS798  CYS799  TRP800  GLU811  SER814 

> <Gold.Protein.RotatedAtoms>
  152.5169  134.3625  159.9289 H   0  0  0  0  0  0  0  0  0  0  0  0  # atno 6907 bound_to 6896
  151.3577  133.3895  159.2694 H   0  0  0  0  0  0  0  0  0  0  0  0  # atno 6908 bound_to 6896
  150.9676  134.9073  159.7827 H   0  0  0  0  0  0  0  0  0  0  0  0  # atno 6909 bound_to 6896
  144.8784  139.5736  143.5854 H   0  0  0  0  0  0  0  0  0  0  0  0  # atno 7974 bound_to 7965
  154.8923  140.2988  155.5364 H   0  0  0  0  0  0  0  0  0  0  0  0  # atno 8008 bound_to 7997
  156.3020  140.2422  156.3875 H   0  0  0  0  0  0  0  0  0  0  0  0  # atno 8009 bound_to 7997
  154.8606  140.0405  157.1651 H   0  0  0  0  0  0  0  0  0  0  0  0  # atno 8010 bound_to 7997
  139.9392  144.6101  150.8268 H   0  0  0  0  0  0  0  0  0  0  0  0  # atno 10167 bound_to 10162
  156.6190  130.4870  149.6172 H   0  0  0  0  0  0  0  0  0  0  0  0  # atno 10718 bound_to 10713
  154.1163  135.6541  153.4894 H   0  0  0  0  0  0  0  0  0  0  0  0  # atno 10763 bound_to 10752
  153.0240  135.5259  154.7142 H   0  0  0  0  0  0  0  0  0  0  0  0  # atno 10764 bound_to 10752
  154.6336  135.2979  155.0157 H   0  0  0  0  0  0  0  0  0  0  0  0  # atno 10765 bound_to 10752
  139.9775  134.9558  156.9547 H   0  0  0  0  0  0  0  0  0  0  0  0  # atno 11005 bound_to 11000
  146.2978  139.7332  142.9113 LP  0  0  0  0  0  0  0  0  0  0  0  0  # atno 17320 bound_to 7965
  145.3999  141.0384  143.3076 LP  0  0  0  0  0  0  0  0  0  0  0  0  # atno 17321 bound_to 7965
  140.7616  143.3177  151.2694 LP  0  0  0  0  0  0  0  0  0  0  0  0  # atno 17342 bound_to 10162
  139.6718  144.0006  152.2757 LP  0  0  0  0  0  0  0  0  0  0  0  0  # atno 17343 bound_to 10162
  156.2327  130.6804  151.1479 LP  0  0  0  0  0  0  0  0  0  0  0  0  # atno 17370 bound_to 10713
  157.7233  131.0667  150.6043 LP  0  0  0  0  0  0  0  0  0  0  0  0  # atno 17371 bound_to 10713
  140.5163  134.0951  155.7282 LP  0  0  0  0  0  0  0  0  0  0  0  0  # atno 17394 bound_to 11000
  141.1451  133.9069  157.2234 LP  0  0  0  0  0  0  0  0  0  0  0  0  # atno 17395 bound_to 11000

$$$$
