AV-unprocessed.smi:2319|AV-procd|sdf|9278|dock5
  -GOLD-   2272012503D 1   1.00000     0.00000
 Structure written by MMmdl.
 46 47  0  0  0  0  0  0  0  0  1 V2000
  153.0537  138.7549  154.5877 C   0  0  0  0  0  0  0  0  0  0  0  0
  151.6288  138.2332  154.3761 C   0  0  0  0  0  0  0  0  0  0  0  0
  150.5931  139.3051  154.4697 C   0  0  0  0  0  0  0  0  0  0  0  0
  150.9957  140.5169  154.9348 O   0  0  0  0  0  0  0  0  0  0  0  0
  149.8962  141.3891  154.9427 N   0  0  0  0  0  0  0  0  0  0  0  0
  148.8607  140.7007  154.4853 C   0  0  0  0  0  0  0  0  0  0  0  0
  147.5383  141.3955  154.3184 C   0  0  0  0  0  0  0  0  0  0  0  0
  149.2579  139.3615  154.1987 C   0  0  0  0  0  0  0  0  0  0  0  0
  148.4964  138.2897  153.6702 N   0  0  0  0  0  0  0  0  0  0  0  0
  147.2658  137.9157  154.0505 C   0  0  0  0  0  0  0  0  0  0  0  0
  146.6092  138.4566  154.9396 O   0  0  0  0  0  0  0  0  0  0  0  0
  146.8448  136.8490  153.3578 N   0  0  0  0  0  0  0  0  0  0  0  0
  145.5741  136.1583  153.5684 C   0  0  1  0  0  0  0  0  0  0  0  0
  144.8789  135.8541  152.2562 C   0  0  0  0  0  0  0  0  0  0  0  0
  143.9681  134.6719  152.6106 C   0  0  0  0  0  0  0  0  0  0  0  0
  142.5784  135.1370  153.0781 C   0  0  0  0  0  0  0  0  0  0  0  0
  143.8518  133.6605  151.4597 C   0  0  0  0  0  0  0  0  0  0  0  0
  144.5940  134.0271  153.7191 O   0  0  0  0  0  0  0  0  0  0  0  0
  145.7232  134.7562  154.1977 C   0  0  0  0  0  0  0  0  0  0  0  0
  146.9747  133.9809  153.7342 C   0  0  0  0  0  0  0  0  0  0  0  0
  145.6449  134.7926  155.7321 C   0  0  0  0  0  0  0  0  0  0  0  0
  153.7794  137.9445  154.5186 H   0  0  0  0  0  0  0  0  0  0  0  0
  153.1612  139.2165  155.5698 H   0  0  0  0  0  0  0  0  0  0  0  0
  153.3158  139.5009  153.8364 H   0  0  0  0  0  0  0  0  0  0  0  0
  151.5603  137.7524  153.3999 H   0  0  0  0  0  0  0  0  0  0  0  0
  151.4182  137.4567  155.1118 H   0  0  0  0  0  0  0  0  0  0  0  0
  146.9954  141.0093  153.4556 H   0  0  0  0  0  0  0  0  0  0  0  0
  147.6666  142.4679  154.1680 H   0  0  0  0  0  0  0  0  0  0  0  0
  146.9112  141.2596  155.1995 H   0  0  0  0  0  0  0  0  0  0  0  0
  148.9734  137.6860  153.0169 H   0  0  0  0  0  0  0  0  0  0  0  0
  147.4548  136.4705  152.6484 H   0  0  0  0  0  0  0  0  0  0  0  0
  144.9022  136.7721  154.1718 H   0  0  0  0  0  0  0  0  0  0  0  0
  144.3350  136.7107  151.8560 H   0  0  0  0  0  0  0  0  0  0  0  0
  145.6129  135.5553  151.5060 H   0  0  0  0  0  0  0  0  0  0  0  0
  142.0455  135.6529  152.2790 H   0  0  0  0  0  0  0  0  0  0  0  0
  142.6489  135.8200  153.9251 H   0  0  0  0  0  0  0  0  0  0  0  0
  141.9663  134.2908  153.3917 H   0  0  0  0  0  0  0  0  0  0  0  0
  143.3959  134.1153  150.5797 H   0  0  0  0  0  0  0  0  0  0  0  0
  143.2398  132.8053  151.7473 H   0  0  0  0  0  0  0  0  0  0  0  0
  144.8309  133.2785  151.1685 H   0  0  0  0  0  0  0  0  0  0  0  0
  147.8927  134.4465  154.0941 H   0  0  0  0  0  0  0  0  0  0  0  0
  147.0339  133.9235  152.6473 H   0  0  0  0  0  0  0  0  0  0  0  0
  146.9607  132.9584  154.1122 H   0  0  0  0  0  0  0  0  0  0  0  0
  146.4867  135.3381  156.1588 H   0  0  0  0  0  0  0  0  0  0  0  0
  145.6573  133.7860  156.1509 H   0  0  0  0  0  0  0  0  0  0  0  0
  144.7286  135.2770  156.0701 H   0  0  0  0  0  0  0  0  0  0  0  0
  1  2  1  0  0  0  0
  1 22  1  0  0  0  0
  1 23  1  0  0  0  0
  1 24  1  0  0  0  0
  2  3  1  0  0  0  0
  2 25  1  0  0  0  0
  2 26  1  0  0  0  0
  3  8  2  0  0  0  0
  3  4  1  0  0  0  0
  4  5  1  0  0  0  0
  5  6  2  0  0  0  0
  6  7  1  0  0  0  0
  6  8  1  0  0  0  0
  7 27  1  0  0  0  0
  7 28  1  0  0  0  0
  7 29  1  0  0  0  0
  8  9  1  0  0  0  0
  9 10  1  0  0  0  0
  9 30  1  0  0  0  0
 10 11  2  0  0  0  0
 10 12  1  0  0  0  0
 12 13  1  0  0  0  0
 12 31  1  0  0  0  0
 13 19  1  0  0  0  0
 13 14  1  0  0  0  0
 13 32  1  0  0  0  0
 14 15  1  0  0  0  0
 14 33  1  0  0  0  0
 14 34  1  0  0  0  0
 15 16  1  0  0  0  0
 15 17  1  0  0  0  0
 15 18  1  0  0  0  0
 16 35  1  0  0  0  0
 16 36  1  0  0  0  0
 16 37  1  0  0  0  0
 17 38  1  0  0  0  0
 17 39  1  0  0  0  0
 17 40  1  0  0  0  0
 18 19  1  0  0  0  0
 19 20  1  0  0  0  0
 19 21  1  0  0  0  0
 20 41  1  0  0  0  0
 20 42  1  0  0  0  0
 20 43  1  0  0  0  0
 21 44  1  0  0  0  0
 21 45  1  0  0  0  0
 21 46  1  0  0  0  0
M  END
> <s_m_source_file>
AV-unprocessed.smi

> <i_m_source_file_index>
2319

> <i_lp_mmshare_version>
43012

> <i_f3d_flags>
0

> <s_epik_input>
W0NIM11bQ0gyXWMxb25jKFtDSDNdKWMxW05IXUMoPU8pW05IXVtDQEBIXShDKE8yKShbQ0gzXSlbQ0gzXSlbQ0gyXUMyKFtDSDNdKVtDSDNd

> <s_epik_cmdline>
J2VwaWtfcHl0aG9uJywgJy1waCcsICc3LjAnLCAnLXRuJywgJzgnLCAnLW1hJywgJzIwMCcsICctbWV0YWxfYmluZGluZycsICctaW1hZScsICc8aW5maWxlLm1hZT4nLCAnLW9tYWUnLCAnPG91dGZpbGUubWFlPic=

> <r_lp_tautomer_probability>
1

> <r_epik_Ionization_Penalty>
3.17207e-05

> <r_epik_Ionization_Penalty_Charging>
0

> <r_epik_Ionization_Penalty_Neutral>
3.17207e-05

> <r_epik_State_Penalty>
-0

> <r_epik_Charging_Adjusted_Penalty>
0

> <i_epik_Tot_Q>
0

> <i_epik_Tot_abs_Q>
0

> <r_epik_Metal_State_Penalty>
-0

> <b_epik_Metal_Only>
0

> <s_lp_Force_Field>
OPLS_2005

> <r_lp_Energy>
19.7342

> <b_lp_Chiralities_Consistent>
1

> <s_lp_Variant>
AV-unprocessed.smi:2319-2

> <Gold.Version>
5.8.1

> <Gold.Id.Protein>
6NUR|6NUR_protein|mol2

> <Gold.PLP.Fitness>
38.9054

> <Gold.PLP.PLP>
-32.2079

> <Gold.PLP.part.hbond>
-4.3893

> <Gold.PLP.part.metal>
0.0000

> <Gold.PLP.part.buried>
-2.6591

> <Gold.PLP.part.nonpolar>
-25.3065

> <Gold.PLP.part.repulsive>
0.4075

> <Gold.PLP.ligand.clash>
0.0000

> <Gold.PLP.ligand.torsion>
0.5982

> <Gold.PLP.Chemscore.Hbond>
2.5400

> <Gold.PLP.Chemscore.CHOScore>
0.0000

> <Gold.PLP.Chemscore.Metal>
0.0000

> <Gold.Chemscore.Hbonds>
donor molecule, donor type, donor heavy atom, donor atom, acceptor molecule, acceptor atom, score
      L1  H     9    30       P1  7948  1.00
      L1  H    12    31       P1  7948  1.00
      P1  H  7989  7998       L1     4  0.55

> <Gold.PLP.Chemscore.Internal.Correction>
0.2740

> <Gold.Rescore>
     Score         DG    S(hbond)    S(metal)    S(lipo)     H(rot)  DE(clash)    DE(int)     intcor
     16.93     -17.52       1.96        0.00      72.25       1.16       0.04       0.55       ----

> <Gold.Chemscore.Fitness>
16.9298

> <Gold.Chemscore.DG>
-17.5228

> <Gold.Chemscore.ZeroCoef>
-5.4800

> <Gold.Chemscore.Hbond>
1.9629

> <Gold.Chemscore.Metal>
0.0000

> <Gold.Chemscore.Lipo>
72.2547

> <Gold.Chemscore.Internal_Hbond>
0.0000

> <Gold.Chemscore.DEClash>
0.0419

> <Gold.Chemscore.DEInternal>
0.5511

> <Gold.Chemscore.Rot>
1.1590

> <Gold.Chemscore.Internal.Correction>
   9.000000E+99

> <Gold.Chemscore.Hbonds>
donor molecule, donor type, donor heavy atom, donor atom, acceptor molecule, acceptor atom, score
      L1  H     9    30       P1  7948  0.95
      L1  H    12    31       P1  7948  0.98
      P1  H  7989  7998       L1     4  0.01

> <Gold.Chemscore.Hbond.Weighted>
-6.5561

> <Gold.Chemscore.Metal.Weighted>
-0.0000

> <Gold.Chemscore.Lipo.Weighted>
-8.4538

> <Gold.Chemscore.Internal_Hbond.Weighted>
0.0000

> <Gold.Chemscore.DEClash.Weighted>
0.0419

> <Gold.Chemscore.DEInternal.Weighted>
0.5511

> <Gold.Chemscore.Rot.Weighted>
2.9671

> <Gold.Chemscore.Internal.Correction.Weighted>
   9.000000E+99

> <Gold.Protein.RotatedTorsions>
[ 6907 6896 6895 6894 ] final    7.74 input  -60.11 | X-H torsion
[ 7974 7965 7964 7962 ] final  -18.26 input  175.53 | X-H torsion
[ 8008 7997 7996 7995 ] final -124.16 input   59.86 | X-H torsion
[ 10167 10162 10161 10158 ] final   18.35 input  -65.29 | X-H torsion
[ 10718 10713 10712 10709 ] final  -62.84 input   66.30 | X-H torsion
[ 10763 10752 10751 10750 ] final -117.36 input  -60.55 | X-H torsion
[ 11005 11000 10999 10996 ] final   48.52 input  -57.11 | X-H torsion

> <Gold.Protein.ActiveResidues>
 VAL166  LYS551  ARG553  GLY616  TRP617  ASP618  TYR619  PRO620  LYS621  CYS622 
 ASP623  PHE694  ASN695  SER759  ASP760  ASP761  ALA762  ILE779  LEU786  VAL792 
 PHE793  MET794  SER795  GLU796  ALA797  LYS798  CYS799  TRP800  GLU811  SER814 

> <Gold.Protein.RotatedAtoms>
  151.6947  135.0940  160.0239 H   0  0  0  0  0  0  0  0  0  0  0  0  # atno 6907 bound_to 6896
  152.3757  133.6474  159.6130 H   0  0  0  0  0  0  0  0  0  0  0  0  # atno 6908 bound_to 6896
  150.7707  133.9114  159.3412 H   0  0  0  0  0  0  0  0  0  0  0  0  # atno 6909 bound_to 6896
  146.1901  140.3895  142.8461 H   0  0  0  0  0  0  0  0  0  0  0  0  # atno 7974 bound_to 7965
  155.1924  140.0413  157.2903 H   0  0  0  0  0  0  0  0  0  0  0  0  # atno 8008 bound_to 7997
  154.6130  140.2481  155.7617 H   0  0  0  0  0  0  0  0  0  0  0  0  # atno 8009 bound_to 7997
  156.2390  140.2911  156.0401 H   0  0  0  0  0  0  0  0  0  0  0  0  # atno 8010 bound_to 7997
  140.5659  143.9251  150.6676 H   0  0  0  0  0  0  0  0  0  0  0  0  # atno 10167 bound_to 10162
  156.0829  130.4213  150.1192 H   0  0  0  0  0  0  0  0  0  0  0  0  # atno 10718 bound_to 10713
  154.8552  135.4312  154.1967 H   0  0  0  0  0  0  0  0  0  0  0  0  # atno 10763 bound_to 10752
  153.3023  135.6970  153.7198 H   0  0  0  0  0  0  0  0  0  0  0  0  # atno 10764 bound_to 10752
  153.6323  135.3482  155.3020 H   0  0  0  0  0  0  0  0  0  0  0  0  # atno 10765 bound_to 10752
  140.1183  134.4863  155.8619 H   0  0  0  0  0  0  0  0  0  0  0  0  # atno 11005 bound_to 11000
  144.8470  140.6945  143.6192 LP  0  0  0  0  0  0  0  0  0  0  0  0  # atno 17320 bound_to 7965
  145.3819  139.1635  143.4276 LP  0  0  0  0  0  0  0  0  0  0  0  0  # atno 17321 bound_to 7965
  140.2713  143.3454  152.1235 LP  0  0  0  0  0  0  0  0  0  0  0  0  # atno 17342 bound_to 10162
  139.5093  144.6865  151.5874 LP  0  0  0  0  0  0  0  0  0  0  0  0  # atno 17343 bound_to 10162
  156.9219  130.9686  151.3547 LP  0  0  0  0  0  0  0  0  0  0  0  0  # atno 17370 bound_to 10713
  157.5953  130.8473  149.8720 LP  0  0  0  0  0  0  0  0  0  0  0  0  # atno 17371 bound_to 10713
  141.2146  133.6751  156.6839 LP  0  0  0  0  0  0  0  0  0  0  0  0  # atno 17394 bound_to 11000
  140.2999  134.8172  157.4088 LP  0  0  0  0  0  0  0  0  0  0  0  0  # atno 17395 bound_to 11000

$$$$
