AV-unprocessed.smi:1311|AV-procd|sdf|5447|dock3
  -GOLD-   22720 5 13D 1   1.00000     0.00000
 Structure written by MMmdl.
 46 47  0  0  0  0  0  0  0  0  2 V2000
  148.6705  132.0041  153.7549 C   0  0  0  0  0  0  0  0  0  0  0  0
  148.8458  133.5190  153.9464 C   0  0  0  0  0  0  0  0  0  0  0  0
  147.5206  134.3199  154.0907 C   0  0  1  0  0  0  0  0  0  0  0  0
  147.7475  135.5580  155.0074 C   0  0  0  0  0  0  0  0  0  0  0  0
  148.5318  136.6261  154.3970 N   0  0  0  0  0  0  0  0  0  0  0  0
  148.6464  137.8735  154.8820 C   0  0  0  0  0  0  0  0  0  0  0  0
  148.0885  138.2467  155.9129 O   0  0  0  0  0  0  0  0  0  0  0  0
  149.4886  138.8624  154.0704 C   0  0  0  0  0  0  0  0  0  0  0  0
  150.6259  139.4121  154.8959 C   0  0  0  0  0  0  0  0  0  0  0  0
  150.6133  140.5364  155.7715 C   0  0  0  0  0  0  0  0  0  0  0  0
  149.4762  141.4617  156.0969 C   0  0  0  0  0  0  0  0  0  0  0  0
  151.7916  140.7324  156.3388 N   0  0  0  0  0  0  0  0  0  0  0  0
  152.6279  139.7266  155.8453 O   0  0  0  0  0  0  0  0  0  0  0  0
  151.9125  138.9562  154.9874 C   0  0  0  0  0  0  0  0  0  0  0  0
  152.6325  137.8140  154.3532 C   0  0  0  0  0  0  0  0  0  0  0  0
  146.9682  134.7289  152.7563 N   0  3  0  0  0  0  0  0  0  0  0  0
  146.4810  133.6418  151.8772 C   0  0  0  0  0  0  0  0  0  0  0  0
  145.6138  134.3320  150.8322 C   0  0  0  0  0  0  0  0  0  0  0  0
  144.9168  135.4231  151.6337 C   0  0  0  0  0  0  0  0  0  0  0  0
  145.8825  135.7446  152.7822 C   0  0  0  0  0  0  0  0  0  0  0  0
  149.6206  131.5418  153.4862 H   0  0  0  0  0  0  0  0  0  0  0  0
  147.9615  131.7857  152.9556 H   0  0  0  0  0  0  0  0  0  0  0  0
  148.3250  131.5085  154.6614 H   0  0  0  0  0  0  0  0  0  0  0  0
  149.4920  133.7054  154.8053 H   0  0  0  0  0  0  0  0  0  0  0  0
  149.3990  133.8572  153.0714 H   0  0  0  0  0  0  0  0  0  0  0  0
  146.7958  133.6518  154.5585 H   0  0  0  0  0  0  0  0  0  0  0  0
  146.8028  135.9991  155.3225 H   0  0  0  0  0  0  0  0  0  0  0  0
  148.2505  135.2502  155.9248 H   0  0  0  0  0  0  0  0  0  0  0  0
  149.0357  136.4009  153.5513 H   0  0  0  0  0  0  0  0  0  0  0  0
  149.8539  138.3495  153.1802 H   0  0  0  0  0  0  0  0  0  0  0  0
  148.8451  139.6662  153.7104 H   0  0  0  0  0  0  0  0  0  0  0  0
  148.5133  141.0004  155.8775 H   0  0  0  0  0  0  0  0  0  0  0  0
  149.5438  142.3816  155.5158 H   0  0  0  0  0  0  0  0  0  0  0  0
  149.4750  141.7335  157.1530 H   0  0  0  0  0  0  0  0  0  0  0  0
  152.3505  137.7104  153.3054 H   0  0  0  0  0  0  0  0  0  0  0  0
  152.3950  136.8798  154.8618 H   0  0  0  0  0  0  0  0  0  0  0  0
  153.7122  137.9582  154.3970 H   0  0  0  0  0  0  0  0  0  0  0  0
  147.2988  133.0869  151.4163 H   0  0  0  0  0  0  0  0  0  0  0  0
  145.8704  132.9456  152.4551 H   0  0  0  0  0  0  0  0  0  0  0  0
  146.2448  134.7806  150.0636 H   0  0  0  0  0  0  0  0  0  0  0  0
  144.9159  133.6522  150.3423 H   0  0  0  0  0  0  0  0  0  0  0  0
  144.6831  136.2976  151.0255 H   0  0  0  0  0  0  0  0  0  0  0  0
  143.9784  135.0415  152.0382 H   0  0  0  0  0  0  0  0  0  0  0  0
  145.3363  135.7227  153.7260 H   0  0  0  0  0  0  0  0  0  0  0  0
  146.3110  136.7402  152.6643 H   0  0  0  0  0  0  0  0  0  0  0  0
  147.7319  135.1511  152.2475 H   0  0  0  0  0  0  0  0  0  0  0  0
  1  2  1  0  0  0  0
  1 21  1  0  0  0  0
  1 22  1  0  0  0  0
  1 23  1  0  0  0  0
  2  3  1  0  0  0  0
  2 24  1  0  0  0  0
  2 25  1  0  0  0  0
  3  4  1  0  0  0  0
  3 16  1  0  0  0  0
  3 26  1  0  0  0  0
  4  5  1  0  0  0  0
  4 27  1  0  0  0  0
  4 28  1  0  0  0  0
  5  6  1  0  0  0  0
  5 29  1  0  0  0  0
  6  7  2  0  0  0  0
  6  8  1  0  0  0  0
  8  9  1  0  0  0  0
  8 30  1  0  0  0  0
  8 31  1  0  0  0  0
  9 14  2  0  0  0  0
  9 10  1  0  0  0  0
 10 11  1  0  0  0  0
 10 12  2  0  0  0  0
 11 32  1  0  0  0  0
 11 33  1  0  0  0  0
 11 34  1  0  0  0  0
 12 13  1  0  0  0  0
 13 14  1  0  0  0  0
 14 15  1  0  0  0  0
 15 35  1  0  0  0  0
 15 36  1  0  0  0  0
 15 37  1  0  0  0  0
 16 20  1  0  0  0  0
 16 17  1  0  0  0  0
 16 46  1  0  0  0  0
 17 18  1  0  0  0  0
 17 38  1  0  0  0  0
 17 39  1  0  0  0  0
 18 19  1  0  0  0  0
 18 40  1  0  0  0  0
 18 41  1  0  0  0  0
 19 20  1  0  0  0  0
 19 42  1  0  0  0  0
 19 43  1  0  0  0  0
 20 44  1  0  0  0  0
 20 45  1  0  0  0  0
M  CHG  1  16   1
M  END
> <s_m_source_file>
AV-unprocessed.smi

> <i_m_source_file_index>
1311

> <i_lp_mmshare_version>
43012

> <i_f3d_flags>
0

> <s_epik_input>
W0NIMl0xW0NIMl1bQ0gyXVtDSDJdTjFbQ0BIXShbQ0gyXVtDSDNdKVtDSDJdW05IXUMoPU8pW0NIMl1jMmMoW0NIM10pbm9jMltDSDNd

> <s_epik_cmdline>
J2VwaWtfcHl0aG9uJywgJy1waCcsICc3LjAnLCAnLXRuJywgJzgnLCAnLW1hJywgJzIwMCcsICctbWV0YWxfYmluZGluZycsICctaW1hZScsICc8aW5maWxlLm1hZT4nLCAnLW9tYWUnLCAnPG91dGZpbGUubWFlPic=

> <r_epik_Ionization_Penalty>
0.00366311

> <r_epik_Ionization_Penalty_Charging>
0.00366302

> <r_epik_Ionization_Penalty_Neutral>
9.25085e-08

> <r_epik_State_Penalty>
0.00260703

> <r_epik_Charging_Adjusted_Penalty>
0.00627005

> <i_epik_Tot_Q>
1

> <i_epik_Tot_abs_Q>
1

> <r_epik_Metal_State_Penalty>
-0

> <b_epik_Metal_Only>
0

> <s_lp_Force_Field>
OPLS_2005

> <r_lp_Energy>
34.8572

> <b_lp_Chiralities_Consistent>
1

> <s_lp_Variant>
AV-unprocessed.smi:1311-2

> <Gold.Version>
5.8.1

> <Gold.Id.Protein>
6NUR|6NUR_protein|mol2

> <Gold.PLP.Fitness>
42.7492

> <Gold.PLP.PLP>
-32.6210

> <Gold.PLP.part.hbond>
-3.0000

> <Gold.PLP.part.metal>
0.0000

> <Gold.PLP.part.buried>
-0.1653

> <Gold.PLP.part.nonpolar>
-28.0955

> <Gold.PLP.part.repulsive>
0.0220

> <Gold.PLP.ligand.clash>
0.0000

> <Gold.PLP.ligand.torsion>
0.9999

> <Gold.PLP.Chemscore.Hbond>
3.9920

> <Gold.PLP.Chemscore.CHOScore>
0.0000

> <Gold.PLP.Chemscore.Metal>
0.0000

> <Gold.Chemscore.Hbonds>
donor molecule, donor type, donor heavy atom, donor atom, acceptor molecule, acceptor atom, score
      L1  H     5    29       P1  7948  0.96
      L1  H    16    46       P1  7948  2.00
      P1  H  7997  8010       L1    13  1.00

> <Gold.PLP.Chemscore.Internal.Correction>
0.1520

> <Gold.Rescore>
     Score         DG    S(hbond)    S(metal)    S(lipo)     H(rot)  DE(clash)    DE(int)     intcor
     19.12     -19.85       2.93        0.00      78.57       1.80       0.09       0.65       ----

> <Gold.Chemscore.Fitness>
19.1164

> <Gold.Chemscore.DG>
-19.8546

> <Gold.Chemscore.ZeroCoef>
-5.4800

> <Gold.Chemscore.Hbond>
2.9313

> <Gold.Chemscore.Metal>
0.0000

> <Gold.Chemscore.Lipo>
78.5726

> <Gold.Chemscore.Internal_Hbond>
0.0000

> <Gold.Chemscore.DEClash>
0.0887

> <Gold.Chemscore.DEInternal>
0.6495

> <Gold.Chemscore.Rot>
1.8004

> <Gold.Chemscore.Internal.Correction>
   9.000000E+99

> <Gold.Chemscore.Hbonds>
donor molecule, donor type, donor heavy atom, donor atom, acceptor molecule, acceptor atom, score
      L1  H     5    29       P1  7948  0.91
      L1  H    16    46       P1  7948  0.96
      P1  H  7997  8010       L1    13  0.59

> <Gold.Chemscore.Hbond.Weighted>
-9.7906

> <Gold.Chemscore.Metal.Weighted>
-0.0000

> <Gold.Chemscore.Lipo.Weighted>
-9.1930

> <Gold.Chemscore.Internal_Hbond.Weighted>
0.0000

> <Gold.Chemscore.DEClash.Weighted>
0.0887

> <Gold.Chemscore.DEInternal.Weighted>
0.6495

> <Gold.Chemscore.Rot.Weighted>
4.6090

> <Gold.Chemscore.Internal.Correction.Weighted>
   9.000000E+99

> <Gold.Protein.RotatedTorsions>
[ 6907 6896 6895 6894 ] final  112.64 input  -60.11 | X-H torsion
[ 7974 7965 7964 7962 ] final   79.40 input  175.53 | X-H torsion
[ 8008 7997 7996 7995 ] final   69.87 input   59.86 | X-H torsion
[ 10167 10162 10161 10158 ] final -167.82 input  -65.29 | X-H torsion
[ 10718 10713 10712 10709 ] final  165.68 input   66.30 | X-H torsion
[ 10763 10752 10751 10750 ] final   53.36 input  -60.55 | X-H torsion
[ 11005 11000 10999 10996 ] final  -16.24 input  -57.11 | X-H torsion

> <Gold.Protein.ActiveResidues>
 VAL166  LYS551  ARG553  GLY616  TRP617  ASP618  TYR619  PRO620  LYS621  CYS622 
 ASP623  PHE694  ASN695  SER759  ASP760  ASP761  ALA762  ILE779  LEU786  VAL792 
 PHE793  MET794  SER795  GLU796  ALA797  LYS798  CYS799  TRP800  GLU811  SER814 

> <Gold.Protein.RotatedAtoms>
  152.4905  133.8488  159.7190 H   0  0  0  0  0  0  0  0  0  0  0  0  # atno 6907 bound_to 6896
  150.9031  133.7084  159.2880 H   0  0  0  0  0  0  0  0  0  0  0  0  # atno 6908 bound_to 6896
  151.4519  135.1034  159.9752 H   0  0  0  0  0  0  0  0  0  0  0  0  # atno 6909 bound_to 6896
  145.6647  139.2480  143.1903 H   0  0  0  0  0  0  0  0  0  0  0  0  # atno 7974 bound_to 7965
  155.7303  140.3492  155.5056 H   0  0  0  0  0  0  0  0  0  0  0  0  # atno 8008 bound_to 7997
  155.9189  140.1063  157.1244 H   0  0  0  0  0  0  0  0  0  0  0  0  # atno 8009 bound_to 7997
  154.4067  140.1253  156.4640 H   0  0  0  0  0  0  0  0  0  0  0  0  # atno 8010 bound_to 7997
  139.6024  144.0982  152.1757 H   0  0  0  0  0  0  0  0  0  0  0  0  # atno 10167 bound_to 10162
  157.0767  131.0381  151.2591 H   0  0  0  0  0  0  0  0  0  0  0  0  # atno 10718 bound_to 10713
  152.9795  135.5781  154.4728 H   0  0  0  0  0  0  0  0  0  0  0  0  # atno 10763 bound_to 10752
  154.4288  135.2773  155.1928 H   0  0  0  0  0  0  0  0  0  0  0  0  # atno 10764 bound_to 10752
  154.3645  135.6181  153.5761 H   0  0  0  0  0  0  0  0  0  0  0  0  # atno 10765 bound_to 10752
  140.8048  133.8186  155.9505 H   0  0  0  0  0  0  0  0  0  0  0  0  # atno 11005 bound_to 11000
  146.1096  140.7445  142.9509 LP  0  0  0  0  0  0  0  0  0  0  0  0  # atno 17320 bound_to 7965
  144.7077  140.3917  143.7105 LP  0  0  0  0  0  0  0  0  0  0  0  0  # atno 17321 bound_to 7965
  140.0581  144.5878  150.7284 LP  0  0  0  0  0  0  0  0  0  0  0  0  # atno 17342 bound_to 10162
  140.7260  143.2637  151.4119 LP  0  0  0  0  0  0  0  0  0  0  0  0  # atno 17343 bound_to 10162
  157.4833  130.7778  149.7436 LP  0  0  0  0  0  0  0  0  0  0  0  0  # atno 17370 bound_to 10713
  155.9935  130.3924  150.2898 LP  0  0  0  0  0  0  0  0  0  0  0  0  # atno 17371 bound_to 10713
  140.9258  134.2084  157.4897 LP  0  0  0  0  0  0  0  0  0  0  0  0  # atno 17394 bound_to 11000
  139.8718  134.9812  156.5106 LP  0  0  0  0  0  0  0  0  0  0  0  0  # atno 17395 bound_to 11000

$$$$
