AV-unprocessed.smi:35|AV-procd|sdf|253|dock7
  -GOLD-   2262016 13D 1   1.00000     0.00000
 Structure written by MMmdl.
 29 30  0  0  0  0  0  0  0  0  1 V2000
  149.5116  135.1095  158.1063 O   0  0  0  0  0  0  0  0  0  0  0  0
  149.5293  136.0445  157.3090 C   0  0  0  0  0  0  0  0  0  0  0  0
  150.5503  136.1455  156.3613 N   0  0  0  0  0  0  0  0  0  0  0  0
  150.6704  137.1525  155.4016 C   0  0  0  0  0  0  0  0  0  0  0  0
  151.6430  137.1623  154.6486 O   0  0  0  0  0  0  0  0  0  0  0  0
  149.6497  138.1316  155.3519 N   0  0  0  0  0  0  0  0  0  0  0  0
  149.7664  139.2669  154.3456 C   0  0  2  0  0  0  0  0  0  0  0  0
  150.7032  140.2017  154.8057 O   0  0  0  0  0  0  0  0  0  0  0  0
  150.0726  141.3769  155.3129 C   0  0  2  0  0  0  0  0  0  0  0  0
  149.7335  141.2208  156.8140 C   0  0  0  0  0  0  0  0  0  0  0  0
  149.0684  142.3755  157.2799 O   0  0  0  0  0  0  0  0  0  0  0  0
  148.8625  141.4905  154.3800 C   0  0  2  0  0  0  0  0  0  0  0  0
  147.8127  142.2703  154.9191 O   0  0  0  0  0  0  0  0  0  0  0  0
  148.4384  140.0436  154.1640 C   0  0  1  0  0  0  0  0  0  0  0  0
  147.9125  139.8995  152.8593 O   0  0  0  0  0  0  0  0  0  0  0  0
  148.6506  138.1037  156.3207 C   0  0  0  0  0  0  0  0  0  0  0  0
  148.5538  137.1260  157.2517 C   0  0  0  0  0  0  0  0  0  0  0  0
  147.0429  137.2635  158.5257 Br  0  0  0  0  0  0  0  0  0  0  0  0
  151.2704  135.4379  156.3819 H   0  0  0  0  0  0  0  0  0  0  0  0
  150.1405  138.7907  153.4372 H   0  0  0  0  0  0  0  0  0  0  0  0
  150.7275  142.2390  155.1786 H   0  0  0  0  0  0  0  0  0  0  0  0
  149.0436  140.3908  156.9651 H   0  0  0  0  0  0  0  0  0  0  0  0
  150.6106  141.0106  157.4240 H   0  0  0  0  0  0  0  0  0  0  0  0
  148.9191  142.9529  156.5466 H   0  0  0  0  0  0  0  0  0  0  0  0
  149.1915  141.9336  153.4381 H   0  0  0  0  0  0  0  0  0  0  0  0
  148.1344  143.1490  155.0540 H   0  0  0  0  0  0  0  0  0  0  0  0
  147.7122  139.7388  154.9193 H   0  0  0  0  0  0  0  0  0  0  0  0
  148.6349  139.8054  152.2568 H   0  0  0  0  0  0  0  0  0  0  0  0
  147.9054  138.8837  156.3566 H   0  0  0  0  0  0  0  0  0  0  0  0
  1  2  2  0  0  0  0
  2 17  1  0  0  0  0
  2  3  1  0  0  0  0
  3 19  1  0  0  0  0
  3  4  1  0  0  0  0
  4  5  2  0  0  0  0
  4  6  1  0  0  0  0
  6  7  1  0  0  0  0
  6 16  1  0  0  0  0
  7 14  1  0  0  0  0
  7  8  1  0  0  0  0
  7 20  1  0  0  0  0
  8  9  1  0  0  0  0
  9 10  1  0  0  0  0
  9 12  1  0  0  0  0
  9 21  1  0  0  0  0
 10 11  1  0  0  0  0
 10 22  1  0  0  0  0
 10 23  1  0  0  0  0
 11 24  1  0  0  0  0
 12 13  1  0  0  0  0
 12 14  1  0  0  0  0
 12 25  1  0  0  0  0
 13 26  1  0  0  0  0
 14 15  1  0  0  0  0
 14 27  1  0  0  0  0
 15 28  1  0  0  0  0
 16 17  2  0  0  0  0
 16 29  1  0  0  0  0
 17 18  1  0  0  0  0
M  END
> <s_m_source_file>
AV-unprocessed.smi

> <i_m_source_file_index>
35

> <i_lp_mmshare_version>
43012

> <i_f3d_flags>
0

> <s_epik_input>
Tz1jMVtuSF1jKD1PKW4oW2NIXWMxQnIpW0NAQEhdMk9bQ0BASF0oW0NIMl1bT0hdKVtDQEBIXShbT0hdKVtDQEhdMltPSF0=

> <s_epik_cmdline>
J2VwaWtfcHl0aG9uJywgJy1waCcsICc3LjAnLCAnLXRuJywgJzgnLCAnLW1hJywgJzIwMCcsICctbWV0YWxfYmluZGluZycsICctaW1hZScsICc8aW5maWxlLm1hZT4nLCAnLW9tYWUnLCAnPG91dGZpbGUubWFlPic=

> <r_lp_tautomer_probability>
0.999537

> <r_epik_Ionization_Penalty>
0.10812

> <r_epik_Ionization_Penalty_Charging>
0.108119

> <r_epik_Ionization_Penalty_Neutral>
4.93006e-07

> <r_epik_State_Penalty>
0.0979238

> <r_epik_Charging_Adjusted_Penalty>
0.206043

> <i_epik_Tot_Q>
0

> <i_epik_Tot_abs_Q>
0

> <r_epik_Metal_State_Penalty>
3.07911

> <b_epik_Metal_Only>
0

> <s_epik_Chemistry_Notes>
This compound contains an acetal/aminal-like group ( X-CH(R)-Y where X, Y are N, S, or O) that may be acid/base labile, releasing an aldehyde.

> <s_lp_Force_Field>
OPLS_2005

> <r_lp_Energy>
30.5173

> <b_lp_Chiralities_Consistent>
1

> <s_lp_Variant>
AV-unprocessed.smi:35-7

> <Gold.Version>
5.8.1

> <Gold.Id.Protein>
6NUR|6NUR_protein|mol2

> <Gold.PLP.Fitness>
40.9618

> <Gold.PLP.PLP>
-23.9274

> <Gold.PLP.part.hbond>
-5.6873

> <Gold.PLP.part.metal>
0.0000

> <Gold.PLP.part.buried>
-4.3284

> <Gold.PLP.part.nonpolar>
-13.4868

> <Gold.PLP.part.repulsive>
0.2907

> <Gold.PLP.ligand.clash>
0.0000

> <Gold.PLP.ligand.torsion>
0.5155

> <Gold.PLP.Chemscore.Hbond>
6.0000

> <Gold.PLP.Chemscore.CHOScore>
0.0000

> <Gold.PLP.Chemscore.Metal>
0.0000

> <Gold.Chemscore.Hbonds>
donor molecule, donor type, donor heavy atom, donor atom, acceptor molecule, acceptor atom, score
      L1  H    11    24       P1  8028  1.00
      L1  H    13    26       P1  8028  1.00
      L1  H    15    28       P1  7957  0.86
      P1  H  6896  6909       L1     1  1.00
      P1  H  7989  7998       L1     8  1.00
      P1  H 10752 10764       L1     5  1.00

> <Gold.PLP.Chemscore.Internal.Correction>
0.0653

> <Gold.Rescore>
     Score         DG    S(hbond)    S(metal)    S(lipo)     H(rot)  DE(clash)    DE(int)     intcor
     16.14     -16.77       5.10        0.00      31.28       3.67       0.07       0.56       ----

> <Gold.Chemscore.Fitness>
16.1370

> <Gold.Chemscore.DG>
-16.7711

> <Gold.Chemscore.ZeroCoef>
-5.4800

> <Gold.Chemscore.Hbond>
5.0977

> <Gold.Chemscore.Metal>
0.0000

> <Gold.Chemscore.Lipo>
31.2847

> <Gold.Chemscore.Internal_Hbond>
0.0000

> <Gold.Chemscore.DEClash>
0.0703

> <Gold.Chemscore.DEInternal>
0.5639

> <Gold.Chemscore.Rot>
3.6701

> <Gold.Chemscore.Internal.Correction>
   9.000000E+99

> <Gold.Chemscore.Hbonds>
donor molecule, donor type, donor heavy atom, donor atom, acceptor molecule, acceptor atom, score
      L1  H    11    24       P1  8028  0.94
      L1  H    13    26       P1  8028  0.94
      L1  H    15    28       P1  7957  0.84
      P1  H  6896  6909       L1     1  0.99
      P1  H  7989  7998       L1     8  0.21
      P1  H 10752 10764       L1     5  0.93

> <Gold.Chemscore.Hbond.Weighted>
-17.0263

> <Gold.Chemscore.Metal.Weighted>
-0.0000

> <Gold.Chemscore.Lipo.Weighted>
-3.6603

> <Gold.Chemscore.Internal_Hbond.Weighted>
0.0000

> <Gold.Chemscore.DEClash.Weighted>
0.0703

> <Gold.Chemscore.DEInternal.Weighted>
0.5639

> <Gold.Chemscore.Rot.Weighted>
9.3955

> <Gold.Chemscore.Internal.Correction.Weighted>
   9.000000E+99

> <Gold.Protein.RotatedTorsions>
[ 6907 6896 6895 6894 ] final   45.91 input  -60.11 | X-H torsion
[ 7974 7965 7964 7962 ] final -165.32 input  175.53 | X-H torsion
[ 8008 7997 7996 7995 ] final  -47.88 input   59.86 | X-H torsion
[ 10167 10162 10161 10158 ] final   -1.03 input  -65.29 | X-H torsion
[ 10718 10713 10712 10709 ] final    7.47 input   66.30 | X-H torsion
[ 10763 10752 10751 10750 ] final  -69.16 input  -60.55 | X-H torsion
[ 11005 11000 10999 10996 ] final   98.52 input  -57.11 | X-H torsion

> <Gold.Protein.ActiveResidues>
 VAL166  LYS551  ARG553  GLY616  TRP617  ASP618  TYR619  PRO620  LYS621  CYS622 
 ASP623  PHE694  ASN695  SER759  ASP760  ASP761  ALA762  ILE779  LEU786  VAL792 
 PHE793  MET794  SER795  GLU796  ALA797  LYS798  CYS799  TRP800  GLU811  SER814 

> <Gold.Protein.RotatedAtoms>
  152.2501  134.8141  160.0446 H   0  0  0  0  0  0  0  0  0  0  0  0  # atno 6907 bound_to 6896
  151.8824  133.3493  159.3779 H   0  0  0  0  0  0  0  0  0  0  0  0  # atno 6908 bound_to 6896
  150.7081  134.4932  159.5570 H   0  0  0  0  0  0  0  0  0  0  0  0  # atno 6909 bound_to 6896
  144.7273  140.2831  143.6232 H   0  0  0  0  0  0  0  0  0  0  0  0  # atno 7974 bound_to 7965
  154.4022  140.1335  156.4248 H   0  0  0  0  0  0  0  0  0  0  0  0  # atno 8008 bound_to 7997
  155.7608  140.3486  155.5177 H   0  0  0  0  0  0  0  0  0  0  0  0  # atno 8009 bound_to 7997
  155.8861  140.0995  157.1442 H   0  0  0  0  0  0  0  0  0  0  0  0  # atno 8010 bound_to 7997
  140.6793  143.6823  150.8095 H   0  0  0  0  0  0  0  0  0  0  0  0  # atno 10167 bound_to 10162
  156.9373  130.5848  149.5651 H   0  0  0  0  0  0  0  0  0  0  0  0  # atno 10718 bound_to 10713
  154.3994  135.6034  153.5888 H   0  0  0  0  0  0  0  0  0  0  0  0  # atno 10763 bound_to 10752
  152.9788  135.5903  154.4203 H   0  0  0  0  0  0  0  0  0  0  0  0  # atno 10764 bound_to 10752
  154.3999  135.2843  155.2081 H   0  0  0  0  0  0  0  0  0  0  0  0  # atno 10765 bound_to 10752
  139.8772  134.9053  156.4468 H   0  0  0  0  0  0  0  0  0  0  0  0  # atno 11005 bound_to 11000
  145.7930  139.1934  143.2092 LP  0  0  0  0  0  0  0  0  0  0  0  0  # atno 17320 bound_to 7965
  146.0740  140.7838  142.9674 LP  0  0  0  0  0  0  0  0  0  0  0  0  # atno 17321 bound_to 7965
  140.0521  143.5239  152.2668 LP  0  0  0  0  0  0  0  0  0  0  0  0  # atno 17342 bound_to 10162
  139.6105  144.7607  151.2963 LP  0  0  0  0  0  0  0  0  0  0  0  0  # atno 17343 bound_to 10162
  156.0420  130.5501  150.8792 LP  0  0  0  0  0  0  0  0  0  0  0  0  # atno 17370 bound_to 10713
  157.5808  131.0946  150.9275 LP  0  0  0  0  0  0  0  0  0  0  0  0  # atno 17371 bound_to 10713
  140.8960  133.7814  155.9625 LP  0  0  0  0  0  0  0  0  0  0  0  0  # atno 17394 bound_to 11000
  140.8702  134.2735  157.5194 LP  0  0  0  0  0  0  0  0  0  0  0  0  # atno 17395 bound_to 11000

$$$$
