AV-unprocessed.smi:2546|AV-procd|sdf|10000|dock7
  -GOLD-   2272014 53D 1   1.00000     0.00000
 Structure written by MMmdl.
 16 16  0  0  0  0  0  0  0  0  3 V2000
  142.3232  132.7799  148.3685 N   0  3  0  0  0  0  0  0  0  0  0  0
  143.7872  132.6959  148.4928 C   0  0  0  0  0  0  0  0  0  0  0  0
  144.2096  132.3952  149.9355 C   0  0  0  0  0  0  0  0  0  0  0  0
  144.6701  133.6452  150.6502 C   0  0  0  0  0  0  0  0  0  0  0  0
  145.1410  133.6712  151.9112 N   0  0  0  0  0  0  0  0  0  0  0  0
  145.4763  134.9251  152.1471 N   0  5  0  0  0  0  0  0  0  0  0  0
  145.2172  135.6355  151.0407 C   0  0  0  0  0  0  0  0  0  0  0  0
  144.7210  134.8615  150.0870 N   0  0  0  0  0  0  0  0  0  0  0  0
  141.9839  133.5499  148.9270 H   0  0  0  0  0  0  0  0  0  0  0  0
  141.9087  131.9185  148.6943 H   0  0  0  0  0  0  0  0  0  0  0  0
  144.1535  131.9184  147.8215 H   0  0  0  0  0  0  0  0  0  0  0  0
  144.2216  133.6395  148.1608 H   0  0  0  0  0  0  0  0  0  0  0  0
  143.3795  131.9586  150.4927 H   0  0  0  0  0  0  0  0  0  0  0  0
  145.0189  131.6641  149.9504 H   0  0  0  0  0  0  0  0  0  0  0  0
  145.4178  136.6989  150.9978 H   0  0  0  0  0  0  0  0  0  0  0  0
  142.0760  132.9293  147.4007 H   0  0  0  0  0  0  0  0  0  0  0  0
  1  2  1  0  0  0  0
  1  9  1  0  0  0  0
  1 10  1  0  0  0  0
  1 16  1  0  0  0  0
  2  3  1  0  0  0  0
  2 11  1  0  0  0  0
  2 12  1  0  0  0  0
  3 13  1  0  0  0  0
  3 14  1  0  0  0  0
  3  4  1  0  0  0  0
  4  8  1  0  0  0  0
  4  5  2  0  0  0  0
  5  6  1  0  0  0  0
  6  7  1  0  0  0  0
  7  8  2  0  0  0  0
  7 15  1  0  0  0  0
M  CHG  1   1   1
M  CHG  1   6  -1
M  END
> <s_m_source_file>
AV-unprocessed.smi

> <i_m_source_file_index>
2546

> <i_lp_mmshare_version>
43012

> <i_f3d_flags>
0

> <s_epik_input>
W05IMl1bQ0gyXVtDSDJdYzFubltjSF1bbkhdMQ==

> <s_epik_cmdline>
J2VwaWtfcHl0aG9uJywgJy1waCcsICc3LjAnLCAnLXRuJywgJzgnLCAnLW1hJywgJzIwMCcsICctbWV0YWxfYmluZGluZycsICctaW1hZScsICc8aW5maWxlLm1hZT4nLCAnLW9tYWUnLCAnPG91dGZpbGUubWFlPic=

> <r_lp_tautomer_probability>
0.948284

> <r_epik_Ionization_Penalty>
6.40664

> <r_epik_Ionization_Penalty_Charging>
6.40664

> <r_epik_Ionization_Penalty_Neutral>
1.41162e-13

> <r_epik_State_Penalty>
2.81126

> <r_epik_Charging_Adjusted_Penalty>
9.2179

> <i_epik_Tot_Q>
0

> <i_epik_Tot_abs_Q>
2

> <r_epik_Metal_State_Penalty>
0.674554

> <b_epik_Metal_Only>
1

> <s_lp_Force_Field>
OPLS_2005

> <r_lp_Energy>
-3.27829

> <b_lp_Chiralities_Consistent>
1

> <s_lp_Variant>
AV-unprocessed.smi:2546-4

> <Gold.Version>
5.8.1

> <Gold.Id.Protein>
6NUR|6NUR_protein|mol2

> <Gold.PLP.Fitness>
32.7071

> <Gold.PLP.PLP>
-18.2830

> <Gold.PLP.part.hbond>
-2.9785

> <Gold.PLP.part.metal>
0.0000

> <Gold.PLP.part.buried>
-4.3459

> <Gold.PLP.part.nonpolar>
-11.7106

> <Gold.PLP.part.repulsive>
1.0091

> <Gold.PLP.ligand.clash>
0.0000

> <Gold.PLP.ligand.torsion>
0.2908

> <Gold.PLP.Chemscore.Hbond>
4.0000

> <Gold.PLP.Chemscore.CHOScore>
1.0000

> <Gold.PLP.Chemscore.Metal>
0.0000

> <Gold.Chemscore.Hbonds>
donor molecule, donor type, donor heavy atom, donor atom, acceptor molecule, acceptor atom, score
      L1  H     1     9       P1 10186  1.53
      L1  H     1    10       P1 10952  0.88
      L1  H     1    16       P1 10195  1.00
      L1  C     7    15       P1 10171  0.51

> <Gold.PLP.Chemscore.Internal.Correction>
0.0056

> <Gold.Rescore>
     Score         DG    S(hbond)    S(metal)    S(lipo)     H(rot)  DE(clash)    DE(int)     intcor
     13.86     -14.22       2.99        0.00      25.58       1.66       0.11       0.24       ----

> <Gold.Chemscore.Fitness>
13.8617

> <Gold.Chemscore.DG>
-14.2159

> <Gold.Chemscore.ZeroCoef>
-5.4800

> <Gold.Chemscore.Hbond>
2.9916

> <Gold.Chemscore.Metal>
0.0000

> <Gold.Chemscore.Lipo>
25.5767

> <Gold.Chemscore.Internal_Hbond>
0.0000

> <Gold.Chemscore.DEClash>
0.1132

> <Gold.Chemscore.DEInternal>
0.2410

> <Gold.Chemscore.Rot>
1.6595

> <Gold.Chemscore.Internal.Correction>
   9.000000E+99

> <Gold.Chemscore.Hbonds>
donor molecule, donor type, donor heavy atom, donor atom, acceptor molecule, acceptor atom, score
      L1  H     1     9       P1 10186  0.74
      L1  H     1    10       P1 10952  0.84
      L1  H     1    16       P1 10195  0.97

> <Gold.Chemscore.Hbond.Weighted>
-9.9918

> <Gold.Chemscore.Metal.Weighted>
-0.0000

> <Gold.Chemscore.Lipo.Weighted>
-2.9925

> <Gold.Chemscore.Internal_Hbond.Weighted>
0.0000

> <Gold.Chemscore.DEClash.Weighted>
0.1132

> <Gold.Chemscore.DEInternal.Weighted>
0.2410

> <Gold.Chemscore.Rot.Weighted>
4.2484

> <Gold.Chemscore.Internal.Correction.Weighted>
   9.000000E+99

> <Gold.Protein.RotatedTorsions>
[ 6907 6896 6895 6894 ] final  100.21 input  -60.11 | X-H torsion
[ 7974 7965 7964 7962 ] final  -51.48 input  175.53 | X-H torsion
[ 8008 7997 7996 7995 ] final  141.99 input   59.86 | X-H torsion
[ 10167 10162 10161 10158 ] final  167.38 input  -65.29 | X-H torsion
[ 10718 10713 10712 10709 ] final  109.18 input   66.30 | X-H torsion
[ 10763 10752 10751 10750 ] final  104.44 input  -60.55 | X-H torsion
[ 11005 11000 10999 10996 ] final  -36.58 input  -57.11 | X-H torsion

> <Gold.Protein.ActiveResidues>
 VAL166  LYS551  ARG553  GLY616  TRP617  ASP618  TYR619  PRO620  LYS621  CYS622 
 ASP623  PHE694  ASN695  SER759  ASP760  ASP761  ALA762  ILE779  LEU786  VAL792 
 PHE793  MET794  SER795  GLU796  ALA797  LYS798  CYS799  TRP800  GLU811  SER814 

> <Gold.Protein.RotatedAtoms>
  152.5377  134.0311  159.8024 H   0  0  0  0  0  0  0  0  0  0  0  0  # atno 6907 bound_to 6896
  151.0482  133.5639  159.2652 H   0  0  0  0  0  0  0  0  0  0  0  0  # atno 6908 bound_to 6896
  151.2584  135.0653  159.9142 H   0  0  0  0  0  0  0  0  0  0  0  0  # atno 6909 bound_to 6896
  145.9185  140.7854  142.9659 H   0  0  0  0  0  0  0  0  0  0  0  0  # atno 7974 bound_to 7965
  156.2957  140.2300  156.4655 H   0  0  0  0  0  0  0  0  0  0  0  0  # atno 8008 bound_to 7997
  154.7981  140.0450  157.1273 H   0  0  0  0  0  0  0  0  0  0  0  0  # atno 8009 bound_to 7997
  154.9566  140.3049  155.5053 H   0  0  0  0  0  0  0  0  0  0  0  0  # atno 8010 bound_to 7997
  139.4944  144.3928  151.9498 H   0  0  0  0  0  0  0  0  0  0  0  0  # atno 10167 bound_to 10162
  157.6553  131.0908  150.6416 H   0  0  0  0  0  0  0  0  0  0  0  0  # atno 10718 bound_to 10713
  153.3660  135.3943  155.1753 H   0  0  0  0  0  0  0  0  0  0  0  0  # atno 10763 bound_to 10752
  154.8687  135.3691  154.5039 H   0  0  0  0  0  0  0  0  0  0  0  0  # atno 10764 bound_to 10752
  153.5502  135.7083  153.5655 H   0  0  0  0  0  0  0  0  0  0  0  0  # atno 10765 bound_to 10752
  140.9886  133.7017  156.1809 H   0  0  0  0  0  0  0  0  0  0  0  0  # atno 11005 bound_to 11000
  144.6750  140.1938  143.7394 LP  0  0  0  0  0  0  0  0  0  0  0  0  # atno 17320 bound_to 7965
  145.8580  139.2208  143.1733 LP  0  0  0  0  0  0  0  0  0  0  0  0  # atno 17321 bound_to 7965
  140.3365  144.3254  150.5976 LP  0  0  0  0  0  0  0  0  0  0  0  0  # atno 17342 bound_to 10162
  140.5601  143.2193  151.7779 LP  0  0  0  0  0  0  0  0  0  0  0  0  # atno 17343 bound_to 10162
  156.6723  130.4543  149.5653 LP  0  0  0  0  0  0  0  0  0  0  0  0  # atno 17370 bound_to 10713
  156.1988  130.6607  151.1145 LP  0  0  0  0  0  0  0  0  0  0  0  0  # atno 17371 bound_to 10713
  140.7076  134.4496  157.5583 LP  0  0  0  0  0  0  0  0  0  0  0  0  # atno 17394 bound_to 11000
  139.8982  134.8620  156.2013 LP  0  0  0  0  0  0  0  0  0  0  0  0  # atno 17395 bound_to 11000

$$$$
