AV-unprocessed.smi:1022|AV-procd|sdf|4459|dock10
  -GOLD-   22720 2433D 1   1.00000     0.00000
 Structure written by MMmdl.
 33 34  0  0  0  0  0  0  0  0  1 V2000
  140.9882  142.8640  154.9753 C   0  0  0  0  0  0  0  0  0  0  0  0
  141.0584  141.4519  154.8836 O   0  0  0  0  0  0  0  0  0  0  0  0
  140.0121  140.9049  154.0971 C   0  0  0  0  0  0  0  0  0  0  0  0
  140.1567  139.3763  154.0444 C   0  0  1  0  0  0  0  0  0  0  0  0
  139.0174  138.7317  153.2382 C   0  0  0  0  0  0  0  0  0  0  0  0
  141.4496  139.0283  153.4598 N   0  0  0  0  0  0  0  0  0  0  0  0
  141.8871  137.7813  153.2321 C   0  0  0  0  0  0  0  0  0  0  0  0
  141.2258  136.7732  153.4828 O   0  0  0  0  0  0  0  0  0  0  0  0
  143.1233  137.7892  152.7031 N   0  0  0  0  0  0  0  0  0  0  0  0
  143.9184  136.6808  152.3080 C   0  0  0  0  0  0  0  0  0  0  0  0
  145.2365  136.7543  152.0775 N   0  0  0  0  0  0  0  0  0  0  0  0
  145.7679  135.5253  151.7122 N   0  0  0  0  0  0  0  0  0  0  0  0
  144.8397  134.5615  151.6742 C   0  0  0  0  0  0  0  0  0  0  0  0
  145.1693  133.1527  151.3080 C   0  0  0  0  0  0  0  0  0  0  0  0
  144.6910  132.5601  150.0021 C   0  0  0  0  0  0  0  0  0  0  0  0
  144.1137  132.0685  151.3049 C   0  0  0  0  0  0  0  0  0  0  0  0
  143.2126  135.0881  152.0939 S   0  0  0  0  0  0  0  0  0  0  0  0
  141.8117  143.2326  155.5868 H   0  0  0  0  0  0  0  0  0  0  0  0
  140.0546  143.1843  155.4397 H   0  0  0  0  0  0  0  0  0  0  0  0
  141.0671  143.3274  153.9909 H   0  0  0  0  0  0  0  0  0  0  0  0
  139.0507  141.1718  154.5393 H   0  0  0  0  0  0  0  0  0  0  0  0
  140.0347  141.3245  153.0897 H   0  0  0  0  0  0  0  0  0  0  0  0
  140.1111  138.9985  155.0677 H   0  0  0  0  0  0  0  0  0  0  0  0
  138.0463  138.9767  153.6689 H   0  0  0  0  0  0  0  0  0  0  0  0
  139.1039  137.6448  153.2272 H   0  0  0  0  0  0  0  0  0  0  0  0
  139.0190  139.0763  152.2036 H   0  0  0  0  0  0  0  0  0  0  0  0
  142.0615  139.7971  153.2280 H   0  0  0  0  0  0  0  0  0  0  0  0
  143.5445  138.6956  152.5637 H   0  0  0  0  0  0  0  0  0  0  0  0
  146.1674  132.8894  151.6528 H   0  0  0  0  0  0  0  0  0  0  0  0
  144.0530  133.1759  149.3707 H   0  0  0  0  0  0  0  0  0  0  0  0
  145.3730  131.8982  149.4722 H   0  0  0  0  0  0  0  0  0  0  0  0
  144.4118  131.0789  151.6452 H   0  0  0  0  0  0  0  0  0  0  0  0
  143.0860  132.3479  151.5286 H   0  0  0  0  0  0  0  0  0  0  0  0
  1  2  1  0  0  0  0
  1 18  1  0  0  0  0
  1 19  1  0  0  0  0
  1 20  1  0  0  0  0
  2  3  1  0  0  0  0
  3  4  1  0  0  0  0
  3 21  1  0  0  0  0
  3 22  1  0  0  0  0
  4  5  1  0  0  0  0
  4  6  1  0  0  0  0
  4 23  1  0  0  0  0
  5 24  1  0  0  0  0
  5 25  1  0  0  0  0
  5 26  1  0  0  0  0
  6  7  1  0  0  0  0
  6 27  1  0  0  0  0
  7  8  2  0  0  0  0
  7  9  1  0  0  0  0
  9 10  1  0  0  0  0
  9 28  1  0  0  0  0
 10 17  1  0  0  0  0
 10 11  2  0  0  0  0
 11 12  1  0  0  0  0
 12 13  2  0  0  0  0
 13 14  1  0  0  0  0
 13 17  1  0  0  0  0
 14 16  1  0  0  0  0
 14 15  1  0  0  0  0
 14 29  1  0  0  0  0
 15 16  1  0  0  0  0
 15 30  1  0  0  0  0
 15 31  1  0  0  0  0
 16 32  1  0  0  0  0
 16 33  1  0  0  0  0
M  END
> <s_m_source_file>
AV-unprocessed.smi

> <i_m_source_file_index>
1022

> <i_lp_mmshare_version>
43012

> <i_f3d_flags>
0

> <s_epik_input>
W0NIM11PW0NIMl1bQ0BIXShbQ0gzXSlbTkhdQyg9TylbTkhdYzFubmMoczEpW0NIXTJbQ0gyXVtDSDJdMg==

> <s_epik_cmdline>
J2VwaWtfcHl0aG9uJywgJy1waCcsICc3LjAnLCAnLXRuJywgJzgnLCAnLW1hJywgJzIwMCcsICctbWV0YWxfYmluZGluZycsICctaW1hZScsICc8aW5maWxlLm1hZT4nLCAnLW9tYWUnLCAnPG91dGZpbGUubWFlPic=

> <r_lp_tautomer_probability>
1

> <r_epik_Ionization_Penalty>
0.00129266

> <r_epik_Ionization_Penalty_Charging>
0

> <r_epik_Ionization_Penalty_Neutral>
0.00129266

> <r_epik_State_Penalty>
-0

> <r_epik_Charging_Adjusted_Penalty>
0

> <i_epik_Tot_Q>
0

> <i_epik_Tot_abs_Q>
0

> <r_epik_Metal_State_Penalty>
0.30857

> <b_epik_Metal_Only>
0

> <s_lp_Force_Field>
OPLS_2005

> <r_lp_Energy>
1.4297

> <b_lp_Chiralities_Consistent>
1

> <s_lp_Variant>
AV-unprocessed.smi:1022-2

> <Gold.Version>
5.8.1

> <Gold.Id.Protein>
6NUR|6NUR_protein|mol2

> <Gold.PLP.Fitness>
33.6859

> <Gold.PLP.PLP>
-27.8683

> <Gold.PLP.part.hbond>
-3.7051

> <Gold.PLP.part.metal>
0.0000

> <Gold.PLP.part.buried>
-4.7044

> <Gold.PLP.part.nonpolar>
-20.0666

> <Gold.PLP.part.repulsive>
0.8214

> <Gold.PLP.ligand.clash>
0.0000

> <Gold.PLP.ligand.torsion>
0.1593

> <Gold.PLP.Chemscore.Hbond>
2.0000

> <Gold.PLP.Chemscore.CHOScore>
0.0000

> <Gold.PLP.Chemscore.Metal>
0.0000

> <Gold.Chemscore.Hbonds>
donor molecule, donor type, donor heavy atom, donor atom, acceptor molecule, acceptor atom, score
      L1  H     6    27       P1 10175  1.00
      L1  H     9    28       P1 10175  1.00

> <Gold.PLP.Chemscore.Internal.Correction>
0.1362

> <Gold.Rescore>
     Score         DG    S(hbond)    S(metal)    S(lipo)     H(rot)  DE(clash)    DE(int)     intcor
     11.79     -14.04       1.89        0.00      57.02       1.73       0.02       2.23       ----

> <Gold.Chemscore.Fitness>
11.7907

> <Gold.Chemscore.DG>
-14.0407

> <Gold.Chemscore.ZeroCoef>
-5.4800

> <Gold.Chemscore.Hbond>
1.8929

> <Gold.Chemscore.Metal>
0.0000

> <Gold.Chemscore.Lipo>
57.0240

> <Gold.Chemscore.Internal_Hbond>
0.0000

> <Gold.Chemscore.DEClash>
0.0202

> <Gold.Chemscore.DEInternal>
2.2298

> <Gold.Chemscore.Rot>
1.7318

> <Gold.Chemscore.Internal.Correction>
   9.000000E+99

> <Gold.Chemscore.Hbonds>
donor molecule, donor type, donor heavy atom, donor atom, acceptor molecule, acceptor atom, score
      L1  H     6    27       P1 10175  0.67
      L1  H     9    28       P1 10175  0.99

> <Gold.Chemscore.Hbond.Weighted>
-6.3224

> <Gold.Chemscore.Metal.Weighted>
-0.0000

> <Gold.Chemscore.Lipo.Weighted>
-6.6718

> <Gold.Chemscore.Internal_Hbond.Weighted>
0.0000

> <Gold.Chemscore.DEClash.Weighted>
0.0202

> <Gold.Chemscore.DEInternal.Weighted>
2.2298

> <Gold.Chemscore.Rot.Weighted>
4.4335

> <Gold.Chemscore.Internal.Correction.Weighted>
   9.000000E+99

> <Gold.Protein.RotatedTorsions>
[ 6907 6896 6895 6894 ] final   92.43 input  -60.11 | X-H torsion
[ 7974 7965 7964 7962 ] final  174.45 input  175.53 | X-H torsion
[ 8008 7997 7996 7995 ] final  172.01 input   59.86 | X-H torsion
[ 10167 10162 10161 10158 ] final   62.57 input  -65.29 | X-H torsion
[ 10718 10713 10712 10709 ] final -112.81 input   66.30 | X-H torsion
[ 10763 10752 10751 10750 ] final   11.41 input  -60.55 | X-H torsion
[ 11005 11000 10999 10996 ] final  -36.75 input  -57.11 | X-H torsion

> <Gold.Protein.ActiveResidues>
 VAL166  LYS551  ARG553  GLY616  TRP617  ASP618  TYR619  PRO620  LYS621  CYS622 
 ASP623  PHE694  ASN695  SER759  ASP760  ASP761  ALA762  ILE779  LEU786  VAL792 
 PHE793  MET794  SER795  GLU796  ALA797  LYS798  CYS799  TRP800  GLU811  SER814 

> <Gold.Protein.RotatedAtoms>
  152.5452  134.1503  159.8515 H   0  0  0  0  0  0  0  0  0  0  0  0  # atno 6907 bound_to 6896
  151.1530  133.4888  159.2602 H   0  0  0  0  0  0  0  0  0  0  0  0  # atno 6908 bound_to 6896
  151.1452  135.0210  159.8698 H   0  0  0  0  0  0  0  0  0  0  0  0  # atno 6909 bound_to 6896
  144.7221  139.9799  143.6438 H   0  0  0  0  0  0  0  0  0  0  0  0  # atno 7974 bound_to 7965
  156.1216  140.1497  156.9196 H   0  0  0  0  0  0  0  0  0  0  0  0  # atno 8008 bound_to 7997
  154.4840  140.0871  156.7485 H   0  0  0  0  0  0  0  0  0  0  0  0  # atno 8009 bound_to 7997
  155.4418  140.3431  155.4293 H   0  0  0  0  0  0  0  0  0  0  0  0  # atno 8010 bound_to 7997
  140.1424  144.4540  150.6803 H   0  0  0  0  0  0  0  0  0  0  0  0  # atno 10167 bound_to 10162
  156.0728  130.5939  150.8558 H   0  0  0  0  0  0  0  0  0  0  0  0  # atno 10718 bound_to 10713
  153.1929  135.6845  153.8329 H   0  0  0  0  0  0  0  0  0  0  0  0  # atno 10763 bound_to 10752
  153.7623  135.3208  155.3340 H   0  0  0  0  0  0  0  0  0  0  0  0  # atno 10764 bound_to 10752
  154.8127  135.4706  154.0660 H   0  0  0  0  0  0  0  0  0  0  0  0  # atno 10765 bound_to 10752
  140.9899  133.7010  156.1832 H   0  0  0  0  0  0  0  0  0  0  0  0  # atno 11005 bound_to 11000
  146.0496  139.3498  143.0647 LP  0  0  0  0  0  0  0  0  0  0  0  0  # atno 17320 bound_to 7965
  145.8232  140.9669  143.0888 LP  0  0  0  0  0  0  0  0  0  0  0  0  # atno 17321 bound_to 7965
  140.6752  143.2302  151.5525 LP  0  0  0  0  0  0  0  0  0  0  0  0  # atno 17342 bound_to 10162
  139.5465  144.2507  152.1452 LP  0  0  0  0  0  0  0  0  0  0  0  0  # atno 17343 bound_to 10162
  157.5808  131.0946  150.9274 LP  0  0  0  0  0  0  0  0  0  0  0  0  # atno 17370 bound_to 10713
  156.9470  130.5406  149.5281 LP  0  0  0  0  0  0  0  0  0  0  0  0  # atno 17371 bound_to 10713
  140.7056  134.4517  157.5584 LP  0  0  0  0  0  0  0  0  0  0  0  0  # atno 17394 bound_to 11000
  139.8987  134.8607  156.1989 LP  0  0  0  0  0  0  0  0  0  0  0  0  # atno 17395 bound_to 11000

$$$$
