AV-unprocessed.smi:2731|AV-procd|sdf|10530|dock7
  -GOLD-   2272014573D 1   1.00000     0.00000
 Structure written by MMmdl.
 45 46  0  0  0  0  0  0  0  0  1 V2000
  158.9739  139.3560  161.7885 C   0  0  0  0  0  0  0  0  0  0  0  0
  159.3372  140.2769  160.6597 C   0  0  0  0  0  0  0  0  0  0  0  0
  160.4951  140.9142  160.6993 N   0  0  0  0  0  0  0  0  0  0  0  0
  160.5170  141.6602  159.5771 N   0  0  0  0  0  0  0  0  0  0  0  0
  161.6728  142.4909  159.2997 C   0  0  0  0  0  0  0  0  0  0  0  0
  159.3674  141.4970  158.8285 C   0  0  0  0  0  0  0  0  0  0  0  0
  159.1432  142.2277  157.5436 C   0  0  0  0  0  0  0  0  0  0  0  0
  158.5774  140.5990  159.4964 C   0  0  0  0  0  0  0  0  0  0  0  0
  157.2106  140.0800  159.1160 C   0  0  0  0  0  0  0  0  0  0  0  0
  156.3550  139.6686  160.3307 C   0  0  0  0  0  0  0  0  0  0  0  0
  155.2586  140.6038  160.5729 N   0  0  0  0  0  0  0  0  0  0  0  0
  154.0811  140.6005  159.9287 C   0  0  0  0  0  0  0  0  0  0  0  0
  153.8252  139.8390  158.9947 O   0  0  0  0  0  0  0  0  0  0  0  0
  153.0369  141.6062  160.4300 C   0  0  0  0  0  0  0  0  0  0  0  0
  152.5625  142.4973  159.3632 N   0  0  0  0  0  0  0  0  0  0  0  0
  153.1134  143.8580  159.3347 C   0  0  0  0  0  0  0  0  0  0  0  0
  151.9863  144.8964  159.2075 C   0  0  0  0  0  0  0  0  0  0  0  0
  151.0453  144.5984  158.0226 C   0  0  0  0  0  0  0  0  0  0  0  0
  151.1900  143.1764  157.4347 C   0  0  0  0  0  0  0  0  0  0  0  0
  151.6068  142.1313  158.4779 C   0  0  0  0  0  0  0  0  0  0  0  0
  151.0797  141.0191  158.4645 O   0  0  0  0  0  0  0  0  0  0  0  0
  158.6094  139.9203  162.6471 H   0  0  0  0  0  0  0  0  0  0  0  0
  159.8332  138.7689  162.1142 H   0  0  0  0  0  0  0  0  0  0  0  0
  158.1910  138.6570  161.4954 H   0  0  0  0  0  0  0  0  0  0  0  0
  161.3568  143.5209  159.1328 H   0  0  0  0  0  0  0  0  0  0  0  0
  162.1797  142.1242  158.4067 H   0  0  0  0  0  0  0  0  0  0  0  0
  162.3720  142.4710  160.1374 H   0  0  0  0  0  0  0  0  0  0  0  0
  158.0935  142.2027  157.2520 H   0  0  0  0  0  0  0  0  0  0  0  0
  159.7281  141.7812  156.7395 H   0  0  0  0  0  0  0  0  0  0  0  0
  159.4310  143.2753  157.6314 H   0  0  0  0  0  0  0  0  0  0  0  0
  156.6632  140.8284  158.5431 H   0  0  0  0  0  0  0  0  0  0  0  0
  157.3013  139.2246  158.4463 H   0  0  0  0  0  0  0  0  0  0  0  0
  155.9341  138.6767  160.1646 H   0  0  0  0  0  0  0  0  0  0  0  0
  156.9875  139.5812  161.2156 H   0  0  0  0  0  0  0  0  0  0  0  0
  155.3868  141.2705  161.3202 H   0  0  0  0  0  0  0  0  0  0  0  0
  152.1851  141.0667  160.8475 H   0  0  0  0  0  0  0  0  0  0  0  0
  153.4631  142.1721  161.2599 H   0  0  0  0  0  0  0  0  0  0  0  0
  153.6937  144.0610  160.2353 H   0  0  0  0  0  0  0  0  0  0  0  0
  153.8039  143.9434  158.4946 H   0  0  0  0  0  0  0  0  0  0  0  0
  151.4054  144.8879  160.1310 H   0  0  0  0  0  0  0  0  0  0  0  0
  152.3992  145.9016  159.1210 H   0  0  0  0  0  0  0  0  0  0  0  0
  150.0135  144.7650  158.3344 H   0  0  0  0  0  0  0  0  0  0  0  0
  151.2321  145.3203  157.2268 H   0  0  0  0  0  0  0  0  0  0  0  0
  150.2630  142.8742  156.9459 H   0  0  0  0  0  0  0  0  0  0  0  0
  151.9583  143.1811  156.6609 H   0  0  0  0  0  0  0  0  0  0  0  0
  1  2  1  0  0  0  0
  1 22  1  0  0  0  0
  1 23  1  0  0  0  0
  1 24  1  0  0  0  0
  2  8  1  0  0  0  0
  2  3  2  0  0  0  0
  3  4  1  0  0  0  0
  4  5  1  0  0  0  0
  4  6  1  0  0  0  0
  5 25  1  0  0  0  0
  5 26  1  0  0  0  0
  5 27  1  0  0  0  0
  6  7  1  0  0  0  0
  6  8  2  0  0  0  0
  7 28  1  0  0  0  0
  7 29  1  0  0  0  0
  7 30  1  0  0  0  0
  8  9  1  0  0  0  0
  9 10  1  0  0  0  0
  9 31  1  0  0  0  0
  9 32  1  0  0  0  0
 10 11  1  0  0  0  0
 10 33  1  0  0  0  0
 10 34  1  0  0  0  0
 11 12  1  0  0  0  0
 11 35  1  0  0  0  0
 12 13  2  0  0  0  0
 12 14  1  0  0  0  0
 14 15  1  0  0  0  0
 14 36  1  0  0  0  0
 14 37  1  0  0  0  0
 15 20  1  0  0  0  0
 15 16  1  0  0  0  0
 16 17  1  0  0  0  0
 16 38  1  0  0  0  0
 16 39  1  0  0  0  0
 17 18  1  0  0  0  0
 17 40  1  0  0  0  0
 17 41  1  0  0  0  0
 18 19  1  0  0  0  0
 18 42  1  0  0  0  0
 18 43  1  0  0  0  0
 19 20  1  0  0  0  0
 19 44  1  0  0  0  0
 19 45  1  0  0  0  0
 20 21  2  0  0  0  0
M  END
> <s_m_source_file>
AV-unprocessed.smi

> <i_m_source_file_index>
2731

> <i_lp_mmshare_version>
43012

> <i_f3d_flags>
0

> <s_epik_input>
W0NIM11jMW5uKFtDSDNdKWMoW0NIM10pYzFbQ0gyXVtDSDJdW05IXUMoPU8pW0NIMl1OMltDSDJdW0NIMl1bQ0gyXVtDSDJdQzI9Tw==

> <s_epik_cmdline>
J2VwaWtfcHl0aG9uJywgJy1waCcsICc3LjAnLCAnLXRuJywgJzgnLCAnLW1hJywgJzIwMCcsICctbWV0YWxfYmluZGluZycsICctaW1hZScsICc8aW5maWxlLm1hZT4nLCAnLW9tYWUnLCAnPG91dGZpbGUubWFlPic=

> <r_lp_tautomer_probability>
1

> <r_epik_Ionization_Penalty>
0.0111965

> <r_epik_Ionization_Penalty_Charging>
0

> <r_epik_Ionization_Penalty_Neutral>
0.0111965

> <r_epik_State_Penalty>
0.00860379

> <r_epik_Charging_Adjusted_Penalty>
0.00860379

> <i_epik_Tot_Q>
0

> <i_epik_Tot_abs_Q>
0

> <r_epik_Metal_State_Penalty>
0.00844338

> <b_epik_Metal_Only>
0

> <s_lp_Force_Field>
OPLS_2005

> <r_lp_Energy>
7.02137

> <b_lp_Chiralities_Consistent>
1

> <s_lp_Variant>
AV-unprocessed.smi:2731-1

> <Gold.Version>
5.8.1

> <Gold.Id.Protein>
6NUR|6NUR_protein|mol2

> <Gold.PLP.Fitness>
43.3026

> <Gold.PLP.PLP>
-42.5781

> <Gold.PLP.part.hbond>
-1.3409

> <Gold.PLP.part.metal>
0.0000

> <Gold.PLP.part.buried>
-4.0840

> <Gold.PLP.part.nonpolar>
-37.8453

> <Gold.PLP.part.repulsive>
0.1006

> <Gold.PLP.ligand.clash>
0.0000

> <Gold.PLP.ligand.torsion>
1.1539

> <Gold.PLP.Chemscore.Hbond>
1.0000

> <Gold.PLP.Chemscore.CHOScore>
0.0000

> <Gold.PLP.Chemscore.Metal>
0.0000

> <Gold.Chemscore.Hbonds>
donor molecule, donor type, donor heavy atom, donor atom, acceptor molecule, acceptor atom, score
      P1  H  7997  8009       L1    13  0.94

> <Gold.PLP.Chemscore.Internal.Correction>
0.0323

> <Gold.Rescore>
     Score         DG    S(hbond)    S(metal)    S(lipo)     H(rot)  DE(clash)    DE(int)     intcor
     16.25     -17.55       0.96        0.00     114.50       1.78       0.14       1.17       ----

> <Gold.Chemscore.Fitness>
16.2452

> <Gold.Chemscore.DG>
-17.5491

> <Gold.Chemscore.ZeroCoef>
-5.4800

> <Gold.Chemscore.Hbond>
0.9641

> <Gold.Chemscore.Metal>
0.0000

> <Gold.Chemscore.Lipo>
114.5049

> <Gold.Chemscore.Internal_Hbond>
0.0000

> <Gold.Chemscore.DEClash>
0.1364

> <Gold.Chemscore.DEInternal>
1.1675

> <Gold.Chemscore.Rot>
1.7767

> <Gold.Chemscore.Internal.Correction>
   9.000000E+99

> <Gold.Chemscore.Hbonds>
donor molecule, donor type, donor heavy atom, donor atom, acceptor molecule, acceptor atom, score
      P1  H  7997  8009       L1    13  0.83

> <Gold.Chemscore.Hbond.Weighted>
-3.2203

> <Gold.Chemscore.Metal.Weighted>
-0.0000

> <Gold.Chemscore.Lipo.Weighted>
-13.3971

> <Gold.Chemscore.Internal_Hbond.Weighted>
0.0000

> <Gold.Chemscore.DEClash.Weighted>
0.1364

> <Gold.Chemscore.DEInternal.Weighted>
1.1675

> <Gold.Chemscore.Rot.Weighted>
4.5483

> <Gold.Chemscore.Internal.Correction.Weighted>
   9.000000E+99

> <Gold.Protein.RotatedTorsions>
[ 6907 6896 6895 6894 ] final   47.31 input  -60.11 | X-H torsion
[ 7974 7965 7964 7962 ] final -124.64 input  175.53 | X-H torsion
[ 8008 7997 7996 7995 ] final  128.83 input   59.86 | X-H torsion
[ 10167 10162 10161 10158 ] final  143.22 input  -65.29 | X-H torsion
[ 10718 10713 10712 10709 ] final   -4.42 input   66.30 | X-H torsion
[ 10763 10752 10751 10750 ] final  -11.56 input  -60.55 | X-H torsion
[ 11005 11000 10999 10996 ] final   61.77 input  -57.11 | X-H torsion

> <Gold.Protein.ActiveResidues>
 VAL166  LYS551  ARG553  GLY616  TRP617  ASP618  TYR619  PRO620  LYS621  CYS622 
 ASP623  PHE694  ASN695  SER759  ASP760  ASP761  ALA762  ILE779  LEU786  VAL792 
 PHE793  MET794  SER795  GLU796  ALA797  LYS798  CYS799  TRP800  GLU811  SER814 

> <Gold.Protein.RotatedAtoms>
  152.2666  134.7978  160.0421 H   0  0  0  0  0  0  0  0  0  0  0  0  # atno 6907 bound_to 6896
  151.8606  133.3451  159.3710 H   0  0  0  0  0  0  0  0  0  0  0  0  # atno 6908 bound_to 6896
  150.7136  134.5138  159.5664 H   0  0  0  0  0  0  0  0  0  0  0  0  # atno 6909 bound_to 6896
  145.0060  140.7863  143.4467 H   0  0  0  0  0  0  0  0  0  0  0  0  # atno 7974 bound_to 7965
  156.2923  140.2635  156.2499 H   0  0  0  0  0  0  0  0  0  0  0  0  # atno 8008 bound_to 7997
  154.9893  140.0389  157.2331 H   0  0  0  0  0  0  0  0  0  0  0  0  # atno 8009 bound_to 7997
  154.7701  140.2776  155.6150 H   0  0  0  0  0  0  0  0  0  0  0  0  # atno 8010 bound_to 7997
  139.4975  144.6055  151.6388 H   0  0  0  0  0  0  0  0  0  0  0  0  # atno 10167 bound_to 10162
  156.7616  130.5271  149.5784 H   0  0  0  0  0  0  0  0  0  0  0  0  # atno 10718 bound_to 10713
  153.4855  135.7017  153.5914 H   0  0  0  0  0  0  0  0  0  0  0  0  # atno 10763 bound_to 10752
  153.4109  135.3849  155.2049 H   0  0  0  0  0  0  0  0  0  0  0  0  # atno 10764 bound_to 10752
  154.8719  135.3904  154.4309 H   0  0  0  0  0  0  0  0  0  0  0  0  # atno 10765 bound_to 10752
  140.0138  134.6255  155.9740 H   0  0  0  0  0  0  0  0  0  0  0  0  # atno 11005 bound_to 11000
  145.2088  139.2215  143.5154 LP  0  0  0  0  0  0  0  0  0  0  0  0  # atno 17320 bound_to 7965
  146.3461  140.1922  142.8589 LP  0  0  0  0  0  0  0  0  0  0  0  0  # atno 17321 bound_to 7965
  140.5716  144.0100  150.6219 LP  0  0  0  0  0  0  0  0  0  0  0  0  # atno 17342 bound_to 10162
  140.3219  143.3132  152.0775 LP  0  0  0  0  0  0  0  0  0  0  0  0  # atno 17343 bound_to 10162
  156.1336  130.6195  151.0368 LP  0  0  0  0  0  0  0  0  0  0  0  0  # atno 17370 bound_to 10713
  157.6732  131.0856  150.7560 LP  0  0  0  0  0  0  0  0  0  0  0  0  # atno 17371 bound_to 10713
  141.1729  133.6538  156.4719 LP  0  0  0  0  0  0  0  0  0  0  0  0  # atno 17394 bound_to 11000
  140.4507  134.6932  157.5038 LP  0  0  0  0  0  0  0  0  0  0  0  0  # atno 17395 bound_to 11000

$$$$
