AV-unprocessed.smi:2524|AV-procd|sdf|9925|dock9
  -GOLD-   2272013563D 1   1.00000     0.00000
 Structure written by MMmdl.
 36 37  0  0  0  0  0  0  0  0  3 V2000
  146.4619  134.8234  162.5495 C   0  0  0  0  0  0  0  0  0  0  0  0
  147.3955  135.1149  161.6315 C   0  0  0  0  0  0  0  0  0  0  0  0
  147.4558  136.4116  160.8518 C   0  0  0  0  0  0  0  0  0  0  0  0
  147.5320  136.1660  159.3401 C   0  0  0  0  0  0  0  0  0  0  0  0
  149.2330  136.5023  158.6979 S   0  0  0  0  0  0  0  0  0  0  0  0
  149.9873  137.0937  159.8162 O   0  0  0  0  0  0  0  0  0  0  0  0
  149.7158  135.2082  158.1928 O   0  0  0  0  0  0  0  0  0  0  0  0
  148.9417  137.5367  157.4779 N   0  5  0  0  0  0  0  0  0  0  0  0
  149.3563  137.2320  156.1137 C   0  0  0  0  0  0  0  0  0  0  0  0
  150.5305  138.1121  155.6367 C   0  0  0  0  0  0  0  0  0  0  0  0
  150.1893  139.5775  155.7831 C   0  0  0  0  0  0  0  0  0  0  0  0
  151.1407  140.5024  156.2796 C   0  0  0  0  0  0  0  0  0  0  0  0
  150.7915  141.8609  156.4176 C   0  0  0  0  0  0  0  0  0  0  0  0
  149.5501  142.2730  156.0829 N   0  3  0  0  0  0  0  0  0  0  0  0
  148.6046  141.4317  155.6134 C   0  0  0  0  0  0  0  0  0  0  0  0
  148.8996  140.0626  155.4545 C   0  0  0  0  0  0  0  0  0  0  0  0
  151.9807  137.6997  155.8461 C   0  0  0  0  0  0  0  0  0  0  0  0
  151.3984  137.7109  154.4529 C   0  0  0  0  0  0  0  0  0  0  0  0
  145.6742  135.5223  162.7899 H   0  0  0  0  0  0  0  0  0  0  0  0
  146.4740  133.8789  163.0729 H   0  0  0  0  0  0  0  0  0  0  0  0
  148.1687  134.3917  161.4169 H   0  0  0  0  0  0  0  0  0  0  0  0
  146.5825  137.0219  161.0853 H   0  0  0  0  0  0  0  0  0  0  0  0
  148.3298  136.9717  161.1851 H   0  0  0  0  0  0  0  0  0  0  0  0
  147.2804  135.1319  159.1039 H   0  0  0  0  0  0  0  0  0  0  0  0
  146.8271  136.8108  158.8160 H   0  0  0  0  0  0  0  0  0  0  0  0
  149.6673  136.1912  156.0141 H   0  0  0  0  0  0  0  0  0  0  0  0
  148.5297  137.3625  155.4144 H   0  0  0  0  0  0  0  0  0  0  0  0
  152.1336  140.1706  156.5476 H   0  0  0  0  0  0  0  0  0  0  0  0
  151.4629  142.6240  156.7833 H   0  0  0  0  0  0  0  0  0  0  0  0
  147.6473  141.8749  155.3811 H   0  0  0  0  0  0  0  0  0  0  0  0
  148.1439  139.3877  155.0793 H   0  0  0  0  0  0  0  0  0  0  0  0
  152.7019  138.4785  156.0852 H   0  0  0  0  0  0  0  0  0  0  0  0
  152.2173  136.7201  156.2594 H   0  0  0  0  0  0  0  0  0  0  0  0
  151.2604  136.7394  153.9801 H   0  0  0  0  0  0  0  0  0  0  0  0
  151.7408  138.4971  153.7829 H   0  0  0  0  0  0  0  0  0  0  0  0
  149.3168  143.2605  156.1903 H   0  0  0  0  0  0  0  0  0  0  0  0
  1  2  2  0  0  0  0
  1 19  1  0  0  0  0
  1 20  1  0  0  0  0
  2  3  1  0  0  0  0
  2 21  1  0  0  0  0
  3  4  1  0  0  0  0
  3 22  1  0  0  0  0
  3 23  1  0  0  0  0
  4  5  1  0  0  0  0
  4 24  1  0  0  0  0
  4 25  1  0  0  0  0
  5  6  2  0  0  0  0
  5  7  2  0  0  0  0
  5  8  1  0  0  0  0
  8  9  1  0  0  0  0
  9 10  1  0  0  0  0
  9 26  1  0  0  0  0
  9 27  1  0  0  0  0
 10 18  1  0  0  0  0
 10 11  1  0  0  0  0
 10 17  1  0  0  0  0
 11 16  1  0  0  0  0
 11 12  2  0  0  0  0
 12 13  1  0  0  0  0
 12 28  1  0  0  0  0
 13 14  2  0  0  0  0
 13 29  1  0  0  0  0
 14 15  1  0  0  0  0
 14 36  1  0  0  0  0
 15 16  2  0  0  0  0
 15 30  1  0  0  0  0
 16 31  1  0  0  0  0
 17 18  1  0  0  0  0
 17 32  1  0  0  0  0
 17 33  1  0  0  0  0
 18 34  1  0  0  0  0
 18 35  1  0  0  0  0
M  CHG  1   8  -1
M  CHG  1  14   1
M  END
> <s_m_source_file>
AV-unprocessed.smi

> <i_m_source_file_index>
2524

> <i_lp_mmshare_version>
43012

> <i_f3d_flags>
0

> <s_epik_input>
W0NIMl09W0NIXVtDSDJdW0NIMl1TKD1PKSg9TylbTkhdW0NIMl1DMShbQ0gyXVtDSDJdMSljMltjSF1bY0hdbltjSF1bY0hdMg==

> <s_epik_cmdline>
J2VwaWtfcHl0aG9uJywgJy1waCcsICc3LjAnLCAnLXRuJywgJzgnLCAnLW1hJywgJzIwMCcsICctbWV0YWxfYmluZGluZycsICctaW1hZScsICc8aW5maWxlLm1hZT4nLCAnLW9tYWUnLCAnPG91dGZpbGUubWFlPic=

> <r_epik_Ionization_Penalty>
7.77019

> <r_epik_Ionization_Penalty_Charging>
7.77019

> <r_epik_Ionization_Penalty_Neutral>
0

> <r_epik_State_Penalty>
8.15763

> <r_epik_Charging_Adjusted_Penalty>
15.9278

> <i_epik_Tot_Q>
0

> <i_epik_Tot_abs_Q>
2

> <r_epik_Metal_State_Penalty>
4.11642

> <b_epik_Metal_Only>
1

> <s_lp_Force_Field>
OPLS_2005

> <r_lp_Energy>
17.0566

> <b_lp_Chiralities_Consistent>
1

> <s_lp_Variant>
AV-unprocessed.smi:2524-4

> <Gold.Version>
5.8.1

> <Gold.Id.Protein>
6NUR|6NUR_protein|mol2

> <Gold.PLP.Fitness>
38.9226

> <Gold.PLP.PLP>
-31.0776

> <Gold.PLP.part.hbond>
-2.9647

> <Gold.PLP.part.metal>
0.0000

> <Gold.PLP.part.buried>
-5.1707

> <Gold.PLP.part.nonpolar>
-24.2435

> <Gold.PLP.part.repulsive>
0.1267

> <Gold.PLP.ligand.clash>
0.0000

> <Gold.PLP.ligand.torsion>
1.8052

> <Gold.PLP.Chemscore.Hbond>
3.0000

> <Gold.PLP.Chemscore.CHOScore>
0.0000

> <Gold.PLP.Chemscore.Metal>
0.0000

> <Gold.Chemscore.Hbonds>
donor molecule, donor type, donor heavy atom, donor atom, acceptor molecule, acceptor atom, score
      L1  H    14    36       P1  8028  2.00
      P1  H  6896  6907       L1     7  1.00

> <Gold.PLP.Chemscore.Internal.Correction>
2.4554

> <Gold.Rescore>
     Score         DG    S(hbond)    S(metal)    S(lipo)     H(rot)  DE(clash)    DE(int)     intcor
     15.12     -16.89       2.05        0.00      76.37       1.70       0.00       1.77       ----

> <Gold.Chemscore.Fitness>
15.1211

> <Gold.Chemscore.DG>
-16.8948

> <Gold.Chemscore.ZeroCoef>
-5.4800

> <Gold.Chemscore.Hbond>
2.0469

> <Gold.Chemscore.Metal>
0.0000

> <Gold.Chemscore.Lipo>
76.3701

> <Gold.Chemscore.Internal_Hbond>
0.0000

> <Gold.Chemscore.DEClash>
0.0000

> <Gold.Chemscore.DEInternal>
1.7737

> <Gold.Chemscore.Rot>
1.7020

> <Gold.Chemscore.Internal.Correction>
   9.000000E+99

> <Gold.Chemscore.Hbonds>
donor molecule, donor type, donor heavy atom, donor atom, acceptor molecule, acceptor atom, score
      L1  H    14    36       P1  8028  0.97
      P1  H  6896  6907       L1     7  0.69

> <Gold.Chemscore.Hbond.Weighted>
-6.8367

> <Gold.Chemscore.Metal.Weighted>
-0.0000

> <Gold.Chemscore.Lipo.Weighted>
-8.9353

> <Gold.Chemscore.Internal_Hbond.Weighted>
0.0000

> <Gold.Chemscore.DEClash.Weighted>
0.0000

> <Gold.Chemscore.DEInternal.Weighted>
1.7737

> <Gold.Chemscore.Rot.Weighted>
4.3572

> <Gold.Chemscore.Internal.Correction.Weighted>
   9.000000E+99

> <Gold.Protein.RotatedTorsions>
[ 6907 6896 6895 6894 ] final  -81.05 input  -60.11 | X-H torsion
[ 7974 7965 7964 7962 ] final   50.38 input  175.53 | X-H torsion
[ 8008 7997 7996 7995 ] final  126.25 input   59.86 | X-H torsion
[ 10167 10162 10161 10158 ] final  100.53 input  -65.29 | X-H torsion
[ 10718 10713 10712 10709 ] final  -18.87 input   66.30 | X-H torsion
[ 10763 10752 10751 10750 ] final -165.37 input  -60.55 | X-H torsion
[ 11005 11000 10999 10996 ] final  -47.94 input  -57.11 | X-H torsion

> <Gold.Protein.ActiveResidues>
 VAL166  LYS551  ARG553  GLY616  TRP617  ASP618  TYR619  PRO620  LYS621  CYS622 
 ASP623  PHE694  ASN695  SER759  ASP760  ASP761  ALA762  ILE779  LEU786  VAL792 
 PHE793  MET794  SER795  GLU796  ALA797  LYS798  CYS799  TRP800  GLU811  SER814 

> <Gold.Protein.RotatedAtoms>
  150.6918  134.3877  159.5062 H   0  0  0  0  0  0  0  0  0  0  0  0  # atno 6907 bound_to 6896
  152.1670  134.8863  160.0546 H   0  0  0  0  0  0  0  0  0  0  0  0  # atno 6908 bound_to 6896
  151.9903  133.3754  159.4179 H   0  0  0  0  0  0  0  0  0  0  0  0  # atno 6909 bound_to 6896
  146.0017  139.4447  143.0011 H   0  0  0  0  0  0  0  0  0  0  0  0  # atno 7974 bound_to 7965
  156.2858  140.2697  156.2081 H   0  0  0  0  0  0  0  0  0  0  0  0  # atno 8008 bound_to 7997
  155.0293  140.0386  157.2486 H   0  0  0  0  0  0  0  0  0  0  0  0  # atno 8009 bound_to 7997
  154.7368  140.2717  155.6413 H   0  0  0  0  0  0  0  0  0  0  0  0  # atno 8010 bound_to 7997
  139.7519  144.6981  151.0420 H   0  0  0  0  0  0  0  0  0  0  0  0  # atno 10167 bound_to 10162
  156.5535  130.4707  149.6441 H   0  0  0  0  0  0  0  0  0  0  0  0  # atno 10718 bound_to 10713
  154.6939  135.2975  154.9440 H   0  0  0  0  0  0  0  0  0  0  0  0  # atno 10763 bound_to 10752
  154.0394  135.6659  153.4792 H   0  0  0  0  0  0  0  0  0  0  0  0  # atno 10764 bound_to 10752
  153.0631  135.5104  154.8046 H   0  0  0  0  0  0  0  0  0  0  0  0  # atno 10765 bound_to 10752
  141.0671  133.6690  156.3369 H   0  0  0  0  0  0  0  0  0  0  0  0  # atno 11005 bound_to 11000
  145.7477  140.9984  143.1267 LP  0  0  0  0  0  0  0  0  0  0  0  0  # atno 17320 bound_to 7965
  144.6922  139.9176  143.7466 LP  0  0  0  0  0  0  0  0  0  0  0  0  # atno 17321 bound_to 7965
  140.7798  143.4799  151.0032 LP  0  0  0  0  0  0  0  0  0  0  0  0  # atno 17342 bound_to 10162
  139.8487  143.7467  152.3178 LP  0  0  0  0  0  0  0  0  0  0  0  0  # atno 17343 bound_to 10162
  156.2863  130.7099  151.1937 LP  0  0  0  0  0  0  0  0  0  0  0  0  # atno 17370 bound_to 10713
  157.7383  131.0542  150.5304 LP  0  0  0  0  0  0  0  0  0  0  0  0  # atno 17371 bound_to 10713
  140.5751  134.5802  157.5467 LP  0  0  0  0  0  0  0  0  0  0  0  0  # atno 17394 bound_to 11000
  139.9487  134.7656  156.0500 LP  0  0  0  0  0  0  0  0  0  0  0  0  # atno 17395 bound_to 11000

$$$$
