AV-unprocessed.smi:104|AV-procd|sdf|1000|dock1
  -GOLD-   2262017583D 1   1.00000     0.00000
 Structure written by MMmdl.
 47 49  0  0  0  0  0  0  0  0  1 V2000
  157.5290  137.1917  159.5358 C   0  0  0  0  0  0  0  0  0  0  0  0
  156.2973  138.0876  159.5130 C   0  0  0  0  0  0  0  0  0  0  0  0
  156.3121  139.1842  158.9540 O   0  0  0  0  0  0  0  0  0  0  0  0
  155.2510  137.5402  160.1491 O   0  0  0  0  0  0  0  0  0  0  0  0
  153.9872  138.1838  160.1128 C   0  0  0  0  0  0  0  0  0  0  0  0
  153.6294  138.5585  158.6615 C   0  0  1  0  0  0  0  0  0  0  0  0
  153.0532  137.4169  158.0435 O   0  0  0  0  0  0  0  0  0  0  0  0
  151.6783  137.4009  158.2784 C   0  0  2  0  0  0  0  0  0  0  0  0
  151.0075  136.9151  157.0296 N   0  0  0  0  0  0  0  0  0  0  0  0
  151.0991  137.4069  155.7477 C   0  0  0  0  0  0  0  0  0  0  0  0
  152.1882  138.9055  155.3063 Br  0  0  0  0  0  0  0  0  0  0  0  0
  150.4178  136.7903  154.8228 N   0  0  0  0  0  0  0  0  0  0  0  0
  149.7999  135.7663  155.5301 C   0  0  0  0  0  0  0  0  0  0  0  0
  148.9253  134.7101  155.1713 C   0  0  0  0  0  0  0  0  0  0  0  0
  148.4951  134.5110  153.9179 N   0  0  0  0  0  0  0  0  0  0  0  0
  148.5071  133.8594  156.1374 N   0  0  0  0  0  0  0  0  0  0  0  0
  148.9248  134.0336  157.3953 C   0  0  0  0  0  0  0  0  0  0  0  0
  149.7398  134.9728  157.8830 N   0  0  0  0  0  0  0  0  0  0  0  0
  150.1591  135.8323  156.9080 C   0  0  0  0  0  0  0  0  0  0  0  0
  151.2457  138.8313  158.6709 C   0  0  2  0  0  0  0  0  0  0  0  0
  150.2183  139.3393  157.8245 O   0  0  0  0  0  0  0  0  0  0  0  0
  148.9506  138.9240  157.9669 C   0  0  0  0  0  0  0  0  0  0  0  0
  148.0225  139.5401  156.9288 C   0  0  0  0  0  0  0  0  0  0  0  0
  148.5340  138.1412  158.8205 O   0  0  0  0  0  0  0  0  0  0  0  0
  152.5348  139.6237  158.5071 C   0  0  1  0  0  0  0  0  0  0  0  0
  152.6082  140.6590  159.4796 O   0  0  0  0  0  0  0  0  0  0  0  0
  151.8137  141.7378  159.3790 C   0  0  0  0  0  0  0  0  0  0  0  0
  152.4606  142.9892  159.9566 C   0  0  0  0  0  0  0  0  0  0  0  0
  150.6901  141.7672  158.8775 O   0  0  0  0  0  0  0  0  0  0  0  0
  157.2737  136.1870  159.8745 H   0  0  0  0  0  0  0  0  0  0  0  0
  158.2817  137.6031  160.2081 H   0  0  0  0  0  0  0  0  0  0  0  0
  157.9596  137.1181  158.5372 H   0  0  0  0  0  0  0  0  0  0  0  0
  153.2436  137.4914  160.5095 H   0  0  0  0  0  0  0  0  0  0  0  0
  153.9763  139.0696  160.7497 H   0  0  0  0  0  0  0  0  0  0  0  0
  154.5337  138.8393  158.1206 H   0  0  0  0  0  0  0  0  0  0  0  0
  151.4382  136.6633  159.0433 H   0  0  0  0  0  0  0  0  0  0  0  0
  148.7953  135.1302  153.1789 H   0  0  0  0  0  0  0  0  0  0  0  0
  147.8714  133.7434  153.7148 H   0  0  0  0  0  0  0  0  0  0  0  0
  148.5537  133.3179  158.1140 H   0  0  0  0  0  0  0  0  0  0  0  0
  150.9350  138.7995  159.7167 H   0  0  0  0  0  0  0  0  0  0  0  0
  148.4174  139.3816  155.9252 H   0  0  0  0  0  0  0  0  0  0  0  0
  147.9264  140.6128  157.0978 H   0  0  0  0  0  0  0  0  0  0  0  0
  147.0310  139.0905  156.9852 H   0  0  0  0  0  0  0  0  0  0  0  0
  152.5689  140.0273  157.4935 H   0  0  0  0  0  0  0  0  0  0  0  0
  152.6026  142.8790  161.0318 H   0  0  0  0  0  0  0  0  0  0  0  0
  151.8327  143.8623  159.7778 H   0  0  0  0  0  0  0  0  0  0  0  0
  153.4319  143.1626  159.4933 H   0  0  0  0  0  0  0  0  0  0  0  0
  1  2  1  0  0  0  0
  1 30  1  0  0  0  0
  1 31  1  0  0  0  0
  1 32  1  0  0  0  0
  2  3  2  0  0  0  0
  2  4  1  0  0  0  0
  4  5  1  0  0  0  0
  5  6  1  0  0  0  0
  5 33  1  0  0  0  0
  5 34  1  0  0  0  0
  6 25  1  0  0  0  0
  6  7  1  0  0  0  0
  6 35  1  0  0  0  0
  7  8  1  0  0  0  0
  8  9  1  0  0  0  0
  8 20  1  0  0  0  0
  8 36  1  0  0  0  0
  9 19  1  0  0  0  0
  9 10  1  0  0  0  0
 10 11  1  0  0  0  0
 10 12  2  0  0  0  0
 12 13  1  0  0  0  0
 13 19  2  0  0  0  0
 13 14  1  0  0  0  0
 14 15  1  0  0  0  0
 14 16  2  0  0  0  0
 15 37  1  0  0  0  0
 15 38  1  0  0  0  0
 16 17  1  0  0  0  0
 17 18  2  0  0  0  0
 17 39  1  0  0  0  0
 18 19  1  0  0  0  0
 20 21  1  0  0  0  0
 20 25  1  0  0  0  0
 20 40  1  0  0  0  0
 21 22  1  0  0  0  0
 22 23  1  0  0  0  0
 22 24  2  0  0  0  0
 23 41  1  0  0  0  0
 23 42  1  0  0  0  0
 23 43  1  0  0  0  0
 25 26  1  0  0  0  0
 25 44  1  0  0  0  0
 26 27  1  0  0  0  0
 27 28  1  0  0  0  0
 27 29  2  0  0  0  0
 28 45  1  0  0  0  0
 28 46  1  0  0  0  0
 28 47  1  0  0  0  0
M  END
> <s_m_source_file>
AV-unprocessed.smi

> <i_m_source_file_index>
104

> <i_lp_mmshare_version>
43012

> <i_f3d_flags>
0

> <s_epik_input>
W0NIM11DKD1PKU9bQ0gyXVtDQEBIXTFPW0NASF0oW0NAQEhdKE9DKD1PKVtDSDNdKVtDQEhdMU9DKD1PKVtDSDNdKW4oYyhCciluMiljKGMyMyluW2NIXW5jM1tOSDJd

> <s_epik_cmdline>
J2VwaWtfcHl0aG9uJywgJy1waCcsICc3LjAnLCAnLXRuJywgJzgnLCAnLW1hJywgJzIwMCcsICctbWV0YWxfYmluZGluZycsICctaW1hZScsICc8aW5maWxlLm1hZT4nLCAnLW9tYWUnLCAnPG91dGZpbGUubWFlPic=

> <r_lp_tautomer_probability>
1

> <r_epik_Ionization_Penalty>
7.36622e-05

> <r_epik_Ionization_Penalty_Charging>
0

> <r_epik_Ionization_Penalty_Neutral>
7.36622e-05

> <r_epik_State_Penalty>
-0

> <r_epik_Charging_Adjusted_Penalty>
0

> <i_epik_Tot_Q>
0

> <i_epik_Tot_abs_Q>
0

> <r_epik_Metal_State_Penalty>
-0

> <b_epik_Metal_Only>
0

> <s_epik_Chemistry_Notes>
This compound has an ester and may undergo hydrolysis at high or low pH. This compound contains an acetal/aminal-like group ( X-CH(R)-Y where X, Y are N, S, or O) that may be acid/base labile, releasing an aldehyde.

> <s_lp_Force_Field>
OPLS_2005

> <r_lp_Energy>
18.9649

> <b_lp_Chiralities_Consistent>
1

> <s_lp_Variant>
AV-unprocessed.smi:104-8

> <Gold.Version>
5.8.1

> <Gold.Id.Protein>
6NUR|6NUR_protein|mol2

> <Gold.PLP.Fitness>
36.8490

> <Gold.PLP.PLP>
-29.5050

> <Gold.PLP.part.hbond>
-4.1045

> <Gold.PLP.part.metal>
0.0000

> <Gold.PLP.part.buried>
-5.9950

> <Gold.PLP.part.nonpolar>
-19.1649

> <Gold.PLP.part.repulsive>
0.2318

> <Gold.PLP.ligand.clash>
0.0000

> <Gold.PLP.ligand.torsion>
0.8191

> <Gold.PLP.Chemscore.Hbond>
2.9280

> <Gold.PLP.Chemscore.CHOScore>
0.0000

> <Gold.PLP.Chemscore.Metal>
0.0000

> <Gold.Chemscore.Hbonds>
donor molecule, donor type, donor heavy atom, donor atom, acceptor molecule, acceptor atom, score
      L1  H    15    37       P1  7948  1.00
      P1  H  6896  6909       L1    18  0.99
      P1  H  7997  8010       L1     3  1.00

> <Gold.PLP.Chemscore.Internal.Correction>
0.1983

> <Gold.Rescore>
     Score         DG    S(hbond)    S(metal)    S(lipo)     H(rot)  DE(clash)    DE(int)     intcor
      4.42      -9.18       2.88        0.00      43.76       4.31       0.08       4.68       ----

> <Gold.Chemscore.Fitness>
4.4209

> <Gold.Chemscore.DG>
-9.1848

> <Gold.Chemscore.ZeroCoef>
-5.4800

> <Gold.Chemscore.Hbond>
2.8776

> <Gold.Chemscore.Metal>
0.0000

> <Gold.Chemscore.Lipo>
43.7553

> <Gold.Chemscore.Internal_Hbond>
0.0000

> <Gold.Chemscore.DEClash>
0.0849

> <Gold.Chemscore.DEInternal>
4.6790

> <Gold.Chemscore.Rot>
4.3070

> <Gold.Chemscore.Internal.Correction>
   9.000000E+99

> <Gold.Chemscore.Hbonds>
donor molecule, donor type, donor heavy atom, donor atom, acceptor molecule, acceptor atom, score
      L1  H    15    37       P1  7948  0.55
      P1  H  6896  6909       L1    18  0.66
      P1  H  7997  8010       L1     3  0.99

> <Gold.Chemscore.Hbond.Weighted>
-9.6113

> <Gold.Chemscore.Metal.Weighted>
-0.0000

> <Gold.Chemscore.Lipo.Weighted>
-5.1194

> <Gold.Chemscore.Internal_Hbond.Weighted>
0.0000

> <Gold.Chemscore.DEClash.Weighted>
0.0849

> <Gold.Chemscore.DEInternal.Weighted>
4.6790

> <Gold.Chemscore.Rot.Weighted>
11.0259

> <Gold.Chemscore.Internal.Correction.Weighted>
   9.000000E+99

> <Gold.Protein.RotatedTorsions>
[ 6907 6896 6895 6894 ] final   29.50 input  -60.11 | X-H torsion
[ 7974 7965 7964 7962 ] final    1.42 input  175.53 | X-H torsion
[ 8008 7997 7996 7995 ] final  -34.89 input   59.86 | X-H torsion
[ 10167 10162 10161 10158 ] final   56.82 input  -65.29 | X-H torsion
[ 10718 10713 10712 10709 ] final   -4.84 input   66.30 | X-H torsion
[ 10763 10752 10751 10750 ] final   43.89 input  -60.55 | X-H torsion
[ 11005 11000 10999 10996 ] final  -24.73 input  -57.11 | X-H torsion

> <Gold.Protein.ActiveResidues>
 VAL166  LYS551  ARG553  GLY616  TRP617  ASP618  TYR619  PRO620  LYS621  CYS622 
 ASP623  PHE694  ASN695  SER759  ASP760  ASP761  ALA762  ILE779  LEU786  VAL792 
 PHE793  MET794  SER795  GLU796  ALA797  LYS798  CYS799  TRP800  GLU811  SER814 

> <Gold.Protein.RotatedAtoms>
  152.0324  134.9760  160.0572 H   0  0  0  0  0  0  0  0  0  0  0  0  # atno 6907 bound_to 6896
  152.1231  133.4360  159.4693 H   0  0  0  0  0  0  0  0  0  0  0  0  # atno 6908 bound_to 6896
  150.6850  134.2430  159.4523 H   0  0  0  0  0  0  0  0  0  0  0  0  # atno 6909 bound_to 6896
  146.2440  140.0989  142.8348 H   0  0  0  0  0  0  0  0  0  0  0  0  # atno 7974 bound_to 7965
  154.4109  140.1672  156.2123 H   0  0  0  0  0  0  0  0  0  0  0  0  # atno 8008 bound_to 7997
  155.9433  140.3406  155.6323 H   0  0  0  0  0  0  0  0  0  0  0  0  # atno 8009 bound_to 7997
  155.6961  140.0739  157.2419 H   0  0  0  0  0  0  0  0  0  0  0  0  # atno 8010 bound_to 7997
  140.2046  144.3953  150.6514 H   0  0  0  0  0  0  0  0  0  0  0  0  # atno 10167 bound_to 10162
  156.7554  130.5252  149.5795 H   0  0  0  0  0  0  0  0  0  0  0  0  # atno 10718 bound_to 10713
  152.9851  135.6087  154.3184 H   0  0  0  0  0  0  0  0  0  0  0  0  # atno 10763 bound_to 10752
  154.2896  135.2775  155.2663 H   0  0  0  0  0  0  0  0  0  0  0  0  # atno 10764 bound_to 10752
  154.4964  135.5878  153.6554 H   0  0  0  0  0  0  0  0  0  0  0  0  # atno 10765 bound_to 10752
  140.8873  133.7613  156.0376 H   0  0  0  0  0  0  0  0  0  0  0  0  # atno 11005 bound_to 11000
  145.0585  140.9070  143.4952 LP  0  0  0  0  0  0  0  0  0  0  0  0  # atno 17320 bound_to 7965
  145.1100  139.2763  143.5642 LP  0  0  0  0  0  0  0  0  0  0  0  0  # atno 17321 bound_to 7965
  140.6367  143.2196  151.6380 LP  0  0  0  0  0  0  0  0  0  0  0  0  # atno 17342 bound_to 10162
  139.5204  144.3225  152.0898 LP  0  0  0  0  0  0  0  0  0  0  0  0  # atno 17343 bound_to 10162
  156.1374  130.6221  151.0419 LP  0  0  0  0  0  0  0  0  0  0  0  0  # atno 17370 bound_to 10713
  157.6759  131.0850  150.7496 LP  0  0  0  0  0  0  0  0  0  0  0  0  # atno 17371 bound_to 10713
  140.8390  134.3089  157.5321 LP  0  0  0  0  0  0  0  0  0  0  0  0  # atno 17394 bound_to 11000
  139.8725  134.9405  156.3772 LP  0  0  0  0  0  0  0  0  0  0  0  0  # atno 17395 bound_to 11000

$$$$
