AV-unprocessed.smi:2712|AV-procd|sdf|10475|dock1
  -GOLD-   2272014513D 1   1.00000     0.00000
 Structure written by MMmdl.
 52 53  0  0  0  0  0  0  0  0  1 V2000
  146.1188  123.1010  149.3726 C   0  0  0  0  0  0  0  0  0  0  0  0
  147.5179  123.5071  149.7299 C   0  0  0  0  0  0  0  0  0  0  0  0
  148.5998  122.5541  149.8881 C   0  0  0  0  0  0  0  0  0  0  0  0
  149.8321  123.0001  150.2131 C   0  0  0  0  0  0  0  0  0  0  0  0
  150.1074  124.4217  150.4112 C   0  0  0  0  0  0  0  0  0  0  0  0
  151.2186  124.8591  150.7096 O   0  0  0  0  0  0  0  0  0  0  0  0
  149.0136  125.2223  150.2385 N   0  0  0  0  0  0  0  0  0  0  0  0
  149.0955  126.6789  150.4202 C   0  0  0  0  0  0  0  0  0  0  0  0
  148.2651  127.2000  151.6031 C   0  0  0  0  0  0  0  0  0  0  0  0
  147.8891  126.4443  152.5007 O   0  0  0  0  0  0  0  0  0  0  0  0
  147.9797  128.5113  151.5824 N   0  0  0  0  0  0  0  0  0  0  0  0
  147.2029  129.2284  152.5920 C   0  0  1  0  0  0  0  0  0  0  0  0
  147.9523  130.5190  152.9720 C   0  0  0  0  0  0  0  0  0  0  0  0
  147.1017  131.5541  153.7233 C   0  0  0  0  0  0  0  0  0  0  0  0
  146.3673  132.5309  152.7847 C   0  0  0  0  0  0  0  0  0  0  0  0
  145.1441  131.9616  152.0120 C   0  0  1  0  0  0  0  0  0  0  0  0
  144.4139  133.0374  151.1244 C   0  0  0  0  0  0  0  0  0  0  0  0
  143.4372  132.3882  150.1196 C   0  0  0  0  0  0  0  0  0  0  0  0
  145.4318  133.8891  150.3306 C   0  0  0  0  0  0  0  0  0  0  0  0
  143.6216  134.0299  152.0089 C   0  0  0  0  0  0  0  0  0  0  0  0
  145.5111  130.6691  151.2277 C   0  0  0  0  0  0  0  0  0  0  0  0
  145.7450  129.4427  152.1278 C   0  0  0  0  0  0  0  0  0  0  0  0
  147.7492  124.7672  149.9017 N   0  0  0  0  0  0  0  0  0  0  0  0
  146.0541  122.0292  149.1849 H   0  0  0  0  0  0  0  0  0  0  0  0
  145.7807  123.6178  148.4739 H   0  0  0  0  0  0  0  0  0  0  0  0
  145.4278  123.3413  150.1814 H   0  0  0  0  0  0  0  0  0  0  0  0
  148.4125  121.4999  149.7470 H   0  0  0  0  0  0  0  0  0  0  0  0
  150.6366  122.2892  150.3323 H   0  0  0  0  0  0  0  0  0  0  0  0
  150.1331  126.9902  150.5534 H   0  0  0  0  0  0  0  0  0  0  0  0
  148.7559  127.1819  149.5127 H   0  0  0  0  0  0  0  0  0  0  0  0
  148.3292  129.0573  150.8083 H   0  0  0  0  0  0  0  0  0  0  0  0
  147.1632  128.6043  153.4868 H   0  0  0  0  0  0  0  0  0  0  0  0
  148.8040  130.2423  153.5949 H   0  0  0  0  0  0  0  0  0  0  0  0
  148.3852  130.9862  152.0860 H   0  0  0  0  0  0  0  0  0  0  0  0
  146.4093  131.0721  154.4143 H   0  0  0  0  0  0  0  0  0  0  0  0
  147.7738  132.1447  154.3470 H   0  0  0  0  0  0  0  0  0  0  0  0
  146.0395  133.3541  153.4175 H   0  0  0  0  0  0  0  0  0  0  0  0
  147.0868  132.9612  152.0888 H   0  0  0  0  0  0  0  0  0  0  0  0
  144.4193  131.6721  152.7743 H   0  0  0  0  0  0  0  0  0  0  0  0
  142.9475  133.1448  149.5056 H   0  0  0  0  0  0  0  0  0  0  0  0
  142.6482  131.8283  150.6214 H   0  0  0  0  0  0  0  0  0  0  0  0
  143.9454  131.7060  149.4388 H   0  0  0  0  0  0  0  0  0  0  0  0
  145.9281  133.3160  149.5476 H   0  0  0  0  0  0  0  0  0  0  0  0
  146.2002  134.3040  150.9838 H   0  0  0  0  0  0  0  0  0  0  0  0
  144.9458  134.7271  149.8293 H   0  0  0  0  0  0  0  0  0  0  0  0
  143.2301  134.8597  151.4193 H   0  0  0  0  0  0  0  0  0  0  0  0
  144.2506  134.4587  152.7899 H   0  0  0  0  0  0  0  0  0  0  0  0
  142.7580  133.5738  152.4900 H   0  0  0  0  0  0  0  0  0  0  0  0
  144.6963  130.3946  150.5631 H   0  0  0  0  0  0  0  0  0  0  0  0
  146.3685  130.8347  150.5746 H   0  0  0  0  0  0  0  0  0  0  0  0
  145.4026  128.5502  151.6024 H   0  0  0  0  0  0  0  0  0  0  0  0
  145.0942  129.5054  153.0003 H   0  0  0  0  0  0  0  0  0  0  0  0
  1  2  1  0  0  0  0
  1 24  1  0  0  0  0
  1 25  1  0  0  0  0
  1 26  1  0  0  0  0
  2 23  2  0  0  0  0
  2  3  1  0  0  0  0
  3  4  2  0  0  0  0
  3 27  1  0  0  0  0
  4  5  1  0  0  0  0
  4 28  1  0  0  0  0
  5  6  2  0  0  0  0
  5  7  1  0  0  0  0
  7  8  1  0  0  0  0
  7 23  1  0  0  0  0
  8  9  1  0  0  0  0
  8 29  1  0  0  0  0
  8 30  1  0  0  0  0
  9 10  2  0  0  0  0
  9 11  1  0  0  0  0
 11 12  1  0  0  0  0
 11 31  1  0  0  0  0
 12 22  1  0  0  0  0
 12 13  1  0  0  0  0
 12 32  1  0  0  0  0
 13 14  1  0  0  0  0
 13 33  1  0  0  0  0
 13 34  1  0  0  0  0
 14 15  1  0  0  0  0
 14 35  1  0  0  0  0
 14 36  1  0  0  0  0
 15 16  1  0  0  0  0
 15 37  1  0  0  0  0
 15 38  1  0  0  0  0
 16 17  1  0  0  0  0
 16 21  1  0  0  0  0
 16 39  1  0  0  0  0
 17 18  1  0  0  0  0
 17 19  1  0  0  0  0
 17 20  1  0  0  0  0
 18 40  1  0  0  0  0
 18 41  1  0  0  0  0
 18 42  1  0  0  0  0
 19 43  1  0  0  0  0
 19 44  1  0  0  0  0
 19 45  1  0  0  0  0
 20 46  1  0  0  0  0
 20 47  1  0  0  0  0
 20 48  1  0  0  0  0
 21 22  1  0  0  0  0
 21 49  1  0  0  0  0
 21 50  1  0  0  0  0
 22 51  1  0  0  0  0
 22 52  1  0  0  0  0
M  END
> <s_m_source_file>
AV-unprocessed.smi

> <i_m_source_file_index>
2712

> <i_lp_mmshare_version>
43012

> <i_f3d_flags>
0

> <s_epik_input>
W0NIM11jMVtjSF1bY0hdYyg9TyluKG4xKVtDSDJdQyg9TylbTkhdW0NAQEhdMltDSDJdW0NIMl1bQ0gyXVtDQEBIXShDKFtDSDNdKShbQ0gzXSlbQ0gzXSlbQ0gyXVtDSDJdMg==

> <s_epik_cmdline>
J2VwaWtfcHl0aG9uJywgJy1waCcsICc3LjAnLCAnLXRuJywgJzgnLCAnLW1hJywgJzIwMCcsICctbWV0YWxfYmluZGluZycsICctaW1hZScsICc8aW5maWxlLm1hZT4nLCAnLW9tYWUnLCAnPG91dGZpbGUubWFlPic=

> <r_lp_tautomer_probability>
1

> <r_epik_Ionization_Penalty>
8.71758e-07

> <r_epik_Ionization_Penalty_Charging>
8.50442e-07

> <r_epik_Ionization_Penalty_Neutral>
2.13165e-08

> <r_epik_State_Penalty>
-0

> <r_epik_Charging_Adjusted_Penalty>
8.50442e-07

> <i_epik_Tot_Q>
0

> <i_epik_Tot_abs_Q>
0

> <r_epik_Metal_State_Penalty>
-0

> <b_epik_Metal_Only>
0

> <s_lp_Force_Field>
OPLS_2005

> <r_lp_Energy>
40.0092

> <b_lp_Chiralities_Consistent>
1

> <s_lp_Variant>
AV-unprocessed.smi:2712-2

> <Gold.Version>
5.8.1

> <Gold.Id.Protein>
6NUR|6NUR_protein|mol2

> <Gold.PLP.Fitness>
42.3680

> <Gold.PLP.PLP>
-42.1494

> <Gold.PLP.part.hbond>
-1.7377

> <Gold.PLP.part.metal>
0.0000

> <Gold.PLP.part.buried>
-3.4042

> <Gold.PLP.part.nonpolar>
-36.9689

> <Gold.PLP.part.repulsive>
1.2899

> <Gold.PLP.ligand.clash>
0.0000

> <Gold.PLP.ligand.torsion>
0.9904

> <Gold.PLP.Chemscore.Hbond>
0.7000

> <Gold.PLP.Chemscore.CHOScore>
0.0000

> <Gold.PLP.Chemscore.Metal>
0.0000

> <Gold.Chemscore.Hbonds>
donor molecule, donor type, donor heavy atom, donor atom, acceptor molecule, acceptor atom, score
      L1  H    11    31       P1 10747  0.59

> <Gold.PLP.Chemscore.Internal.Correction>
0.0994

> <Gold.Rescore>
     Score         DG    S(hbond)    S(metal)    S(lipo)     H(rot)  DE(clash)    DE(int)     intcor
     13.10     -14.31       0.00        0.00     108.60       1.52       0.45       0.76       ----

> <Gold.Chemscore.Fitness>
13.1008

> <Gold.Chemscore.DG>
-14.3052

> <Gold.Chemscore.ZeroCoef>
-5.4800

> <Gold.Chemscore.Hbond>
0.0002

> <Gold.Chemscore.Metal>
0.0000

> <Gold.Chemscore.Lipo>
108.5989

> <Gold.Chemscore.Internal_Hbond>
0.0000

> <Gold.Chemscore.DEClash>
0.4489

> <Gold.Chemscore.DEInternal>
0.7555

> <Gold.Chemscore.Rot>
1.5162

> <Gold.Chemscore.Internal.Correction>
   9.000000E+99

> <Gold.Chemscore.Hbonds>
donor molecule, donor type, donor heavy atom, donor atom, acceptor molecule, acceptor atom, score
      L1  H    11    31       P1 10747  0.05

> <Gold.Chemscore.Hbond.Weighted>
-0.0006

> <Gold.Chemscore.Metal.Weighted>
-0.0000

> <Gold.Chemscore.Lipo.Weighted>
-12.7061

> <Gold.Chemscore.Internal_Hbond.Weighted>
0.0000

> <Gold.Chemscore.DEClash.Weighted>
0.4489

> <Gold.Chemscore.DEInternal.Weighted>
0.7555

> <Gold.Chemscore.Rot.Weighted>
3.8814

> <Gold.Chemscore.Internal.Correction.Weighted>
   9.000000E+99

> <Gold.Protein.RotatedTorsions>
[ 6907 6896 6895 6894 ] final  -56.33 input  -60.11 | X-H torsion
[ 7974 7965 7964 7962 ] final  -69.02 input  175.53 | X-H torsion
[ 8008 7997 7996 7995 ] final -151.96 input   59.86 | X-H torsion
[ 10167 10162 10161 10158 ] final   92.13 input  -65.29 | X-H torsion
[ 10718 10713 10712 10709 ] final -123.94 input   66.30 | X-H torsion
[ 10763 10752 10751 10750 ] final -138.88 input  -60.55 | X-H torsion
[ 11005 11000 10999 10996 ] final  146.42 input  -57.11 | X-H torsion

> <Gold.Protein.ActiveResidues>
 VAL166  LYS551  ARG553  GLY616  TRP617  ASP618  TYR619  PRO620  LYS621  CYS622 
 ASP623  PHE694  ASN695  SER759  ASP760  ASP761  ALA762  ILE779  LEU786  VAL792 
 PHE793  MET794  SER795  GLU796  ALA797  LYS798  CYS799  TRP800  GLU811  SER814 

> <Gold.Protein.RotatedAtoms>
  150.8176  134.7367  159.6743 H   0  0  0  0  0  0  0  0  0  0  0  0  # atno 6907 bound_to 6896
  152.4294  134.5803  159.9956 H   0  0  0  0  0  0  0  0  0  0  0  0  # atno 6908 bound_to 6896
  151.5996  133.3320  159.3080 H   0  0  0  0  0  0  0  0  0  0  0  0  # atno 6909 bound_to 6896
  145.7092  140.9085  143.0690 H   0  0  0  0  0  0  0  0  0  0  0  0  # atno 7974 bound_to 7965
  155.6476  140.0708  157.2597 H   0  0  0  0  0  0  0  0  0  0  0  0  # atno 8008 bound_to 7997
  154.4169  140.1739  156.1690 H   0  0  0  0  0  0  0  0  0  0  0  0  # atno 8009 bound_to 7997
  155.9803  140.3354  155.6660 H   0  0  0  0  0  0  0  0  0  0  0  0  # atno 8010 bound_to 7997
  139.8306  144.6689  150.9404 H   0  0  0  0  0  0  0  0  0  0  0  0  # atno 10167 bound_to 10162
  156.1545  130.6558  150.9962 H   0  0  0  0  0  0  0  0  0  0  0  0  # atno 10718 bound_to 10713
  154.8625  135.3599  154.5457 H   0  0  0  0  0  0  0  0  0  0  0  0  # atno 10763 bound_to 10752
  153.6077  135.7010  153.5364 H   0  0  0  0  0  0  0  0  0  0  0  0  # atno 10764 bound_to 10752
  153.3236  135.4144  155.1398 H   0  0  0  0  0  0  0  0  0  0  0  0  # atno 10765 bound_to 10752
  140.0792  134.9107  157.1472 H   0  0  0  0  0  0  0  0  0  0  0  0  # atno 11005 bound_to 11000
  144.6947  139.9051  143.7460 LP  0  0  0  0  0  0  0  0  0  0  0  0  # atno 17320 bound_to 7965
  146.0728  139.3717  143.0512 LP  0  0  0  0  0  0  0  0  0  0  0  0  # atno 17321 bound_to 7965
  140.7807  143.4004  151.1158 LP  0  0  0  0  0  0  0  0  0  0  0  0  # atno 17342 bound_to 10162
  139.7658  143.8567  152.3110 LP  0  0  0  0  0  0  0  0  0  0  0  0  # atno 17343 bound_to 10162
  157.6684  131.0867  150.7673 LP  0  0  0  0  0  0  0  0  0  0  0  0  # atno 17370 bound_to 10713
  156.7739  130.4837  149.5413 LP  0  0  0  0  0  0  0  0  0  0  0  0  # atno 17371 bound_to 10713
  140.3513  134.2595  155.7198 LP  0  0  0  0  0  0  0  0  0  0  0  0  # atno 17394 bound_to 11000
  141.2040  133.7897  157.0308 LP  0  0  0  0  0  0  0  0  0  0  0  0  # atno 17395 bound_to 11000

$$$$
