AV-unprocessed.smi:1918|AV-procd|sdf|7771|dock1
  -GOLD-   22720 9513D 1   1.00000     0.00000
 Structure written by MMmdl.
 36 38  0  0  0  0  0  0  0  0  2 V2000
  151.8813  137.9502  154.5940 C   0  0  0  0  0  0  0  0  0  0  0  0
  150.6720  138.8107  154.4431 C   0  0  0  0  0  0  0  0  0  0  0  0
  149.5608  138.5066  153.7152 N   0  3  0  0  0  0  0  0  0  0  0  0
  148.6344  139.5459  153.8098 C   0  0  0  0  0  0  0  0  0  0  0  0
  147.3692  139.6932  153.2499 C   0  0  0  0  0  0  0  0  0  0  0  0
  146.6810  140.8879  153.5475 C   0  0  0  0  0  0  0  0  0  0  0  0
  147.2526  141.8790  154.3718 C   0  0  0  0  0  0  0  0  0  0  0  0
  148.5361  141.7181  154.9343 C   0  0  0  0  0  0  0  0  0  0  0  0
  149.2090  140.5338  154.6352 C   0  0  0  0  0  0  0  0  0  0  0  0
  150.4623  140.0354  155.0071 N   0  0  0  0  0  0  0  0  0  0  0  0
  151.3182  140.8373  155.8947 C   0  0  0  0  0  0  0  0  0  0  0  0
  151.7636  140.0662  157.1542 C   0  0  2  0  0  0  0  0  0  0  0  0
  150.7866  139.0834  157.4306 O   0  0  0  0  0  0  0  0  0  0  0  0
  152.0119  140.9920  158.3399 C   0  0  0  0  0  0  0  0  0  0  0  0
  151.5901  142.3399  158.2943 C   0  0  0  0  0  0  0  0  0  0  0  0
  151.8384  143.2010  159.3805 C   0  0  0  0  0  0  0  0  0  0  0  0
  152.5125  142.7219  160.5191 C   0  0  0  0  0  0  0  0  0  0  0  0
  152.7537  143.5502  161.5626 F   0  0  0  0  0  0  0  0  0  0  0  0
  152.9390  141.3814  160.5706 C   0  0  0  0  0  0  0  0  0  0  0  0
  152.6914  140.5181  159.4858 C   0  0  0  0  0  0  0  0  0  0  0  0
  153.1216  139.2346  159.5475 F   0  0  0  0  0  0  0  0  0  0  0  0
  151.8007  137.0633  153.9653 H   0  0  0  0  0  0  0  0  0  0  0  0
  151.9898  137.6298  155.6299 H   0  0  0  0  0  0  0  0  0  0  0  0
  152.7758  138.5007  154.3025 H   0  0  0  0  0  0  0  0  0  0  0  0
  146.9293  138.9353  152.6182 H   0  0  0  0  0  0  0  0  0  0  0  0
  145.6953  141.0477  153.1351 H   0  0  0  0  0  0  0  0  0  0  0  0
  146.6949  142.7813  154.5771 H   0  0  0  0  0  0  0  0  0  0  0  0
  148.9648  142.4823  155.5656 H   0  0  0  0  0  0  0  0  0  0  0  0
  152.1851  141.1682  155.3216 H   0  0  0  0  0  0  0  0  0  0  0  0
  150.7675  141.7394  156.1654 H   0  0  0  0  0  0  0  0  0  0  0  0
  152.6811  139.5189  156.9373 H   0  0  0  0  0  0  0  0  0  0  0  0
  149.9884  139.5178  157.6908 H   0  0  0  0  0  0  0  0  0  0  0  0
  151.0802  142.7224  157.4223 H   0  0  0  0  0  0  0  0  0  0  0  0
  151.5142  144.2305  159.3385 H   0  0  0  0  0  0  0  0  0  0  0  0
  153.4601  141.0155  161.4430 H   0  0  0  0  0  0  0  0  0  0  0  0
  149.4465  137.6478  153.1924 H   0  0  0  0  0  0  0  0  0  0  0  0
  1  2  1  0  0  0  0
  1 22  1  0  0  0  0
  1 23  1  0  0  0  0
  1 24  1  0  0  0  0
  2 10  1  0  0  0  0
  2  3  2  0  0  0  0
  3  4  1  0  0  0  0
  3 36  1  0  0  0  0
  4  9  2  0  0  0  0
  4  5  1  0  0  0  0
  5  6  2  0  0  0  0
  5 25  1  0  0  0  0
  6  7  1  0  0  0  0
  6 26  1  0  0  0  0
  7  8  2  0  0  0  0
  7 27  1  0  0  0  0
  8  9  1  0  0  0  0
  8 28  1  0  0  0  0
  9 10  1  0  0  0  0
 10 11  1  0  0  0  0
 11 12  1  0  0  0  0
 11 29  1  0  0  0  0
 11 30  1  0  0  0  0
 12 13  1  0  0  0  0
 12 14  1  0  0  0  0
 12 31  1  0  0  0  0
 13 32  1  0  0  0  0
 14 20  1  0  0  0  0
 14 15  2  0  0  0  0
 15 16  1  0  0  0  0
 15 33  1  0  0  0  0
 16 17  2  0  0  0  0
 16 34  1  0  0  0  0
 17 18  1  0  0  0  0
 17 19  1  0  0  0  0
 19 20  2  0  0  0  0
 19 35  1  0  0  0  0
 20 21  1  0  0  0  0
M  CHG  1   3   1
M  END
> <s_m_source_file>
AV-unprocessed.smi

> <i_m_source_file_index>
1918

> <i_lp_mmshare_version>
43012

> <i_f3d_flags>
0

> <s_epik_input>
W2NIXTFbY0hdW2NIXVtjSF1jKGMxMiluKGMobjIpW0NIM10pW0NIMl1bQ0BIXShbT0hdKWMzW2NIXVtjSF1jKEYpW2NIXWMzRg==

> <s_epik_cmdline>
J2VwaWtfcHl0aG9uJywgJy1waCcsICc3LjAnLCAnLXRuJywgJzgnLCAnLW1hJywgJzIwMCcsICctbWV0YWxfYmluZGluZycsICctaW1hZScsICc8aW5maWxlLm1hZT4nLCAnLW9tYWUnLCAnPG91dGZpbGUubWFlPic=

> <r_epik_Ionization_Penalty>
0.963869

> <r_epik_Ionization_Penalty_Charging>
0.963868

> <r_epik_Ionization_Penalty_Neutral>
1.79538e-06

> <r_epik_State_Penalty>
1.00924

> <r_epik_Charging_Adjusted_Penalty>
1.9731

> <i_epik_Tot_Q>
1

> <i_epik_Tot_abs_Q>
1

> <r_epik_Metal_State_Penalty>
4.98304

> <b_epik_Metal_Only>
0

> <s_lp_Force_Field>
OPLS_2005

> <r_lp_Energy>
15.6488

> <b_lp_Chiralities_Consistent>
1

> <s_lp_Variant>
AV-unprocessed.smi:1918-3

> <Gold.Version>
5.8.1

> <Gold.Id.Protein>
6NUR|6NUR_protein|mol2

> <Gold.PLP.Fitness>
51.7064

> <Gold.PLP.PLP>
-47.0416

> <Gold.PLP.part.hbond>
-2.0000

> <Gold.PLP.part.metal>
0.0000

> <Gold.PLP.part.buried>
0.9908

> <Gold.PLP.part.nonpolar>
-46.0554

> <Gold.PLP.part.repulsive>
0.0645

> <Gold.PLP.ligand.clash>
0.0000

> <Gold.PLP.ligand.torsion>
0.6759

> <Gold.PLP.Chemscore.Hbond>
2.0000

> <Gold.PLP.Chemscore.CHOScore>
0.0000

> <Gold.PLP.Chemscore.Metal>
0.0000

> <Gold.Chemscore.Hbonds>
donor molecule, donor type, donor heavy atom, donor atom, acceptor molecule, acceptor atom, score
      L1  H     3    36       P1  7948  2.00

> <Gold.PLP.Chemscore.Internal.Correction>
0.0167

> <Gold.Rescore>
     Score         DG    S(hbond)    S(metal)    S(lipo)     H(rot)  DE(clash)    DE(int)     intcor
     15.37     -16.64       0.85        0.00     113.52       1.94       0.72       0.55       ----

> <Gold.Chemscore.Fitness>
15.3733

> <Gold.Chemscore.DG>
-16.6386

> <Gold.Chemscore.ZeroCoef>
-5.4800

> <Gold.Chemscore.Hbond>
0.8493

> <Gold.Chemscore.Metal>
0.0000

> <Gold.Chemscore.Lipo>
113.5184

> <Gold.Chemscore.Internal_Hbond>
0.0000

> <Gold.Chemscore.DEClash>
0.7168

> <Gold.Chemscore.DEInternal>
0.5485

> <Gold.Chemscore.Rot>
1.9375

> <Gold.Chemscore.Internal.Correction>
   9.000000E+99

> <Gold.Chemscore.Hbonds>
donor molecule, donor type, donor heavy atom, donor atom, acceptor molecule, acceptor atom, score
      L1  H     3    36       P1  7948  0.91

> <Gold.Chemscore.Hbond.Weighted>
-2.8368

> <Gold.Chemscore.Metal.Weighted>
-0.0000

> <Gold.Chemscore.Lipo.Weighted>
-13.2816

> <Gold.Chemscore.Internal_Hbond.Weighted>
0.0000

> <Gold.Chemscore.DEClash.Weighted>
0.7168

> <Gold.Chemscore.DEInternal.Weighted>
0.5485

> <Gold.Chemscore.Rot.Weighted>
4.9599

> <Gold.Chemscore.Internal.Correction.Weighted>
   9.000000E+99

> <Gold.Protein.RotatedTorsions>
[ 6907 6896 6895 6894 ] final -171.70 input  -60.11 | X-H torsion
[ 7974 7965 7964 7962 ] final  -89.11 input  175.53 | X-H torsion
[ 8008 7997 7996 7995 ] final   42.01 input   59.86 | X-H torsion
[ 10167 10162 10161 10158 ] final -149.29 input  -65.29 | X-H torsion
[ 10718 10713 10712 10709 ] final  175.86 input   66.30 | X-H torsion
[ 10763 10752 10751 10750 ] final   20.12 input  -60.55 | X-H torsion
[ 11005 11000 10999 10996 ] final  109.37 input  -57.11 | X-H torsion

> <Gold.Protein.ActiveResidues>
 VAL166  LYS551  ARG553  GLY616  TRP617  ASP618  TYR619  PRO620  LYS621  CYS622 
 ASP623  PHE694  ASN695  SER759  ASP760  ASP761  ALA762  ILE779  LEU786  VAL792 
 PHE793  MET794  SER795  GLU796  ALA797  LYS798  CYS799  TRP800  GLU811  SER814 

> <Gold.Protein.RotatedAtoms>
  151.5281  133.3454  159.2912 H   0  0  0  0  0  0  0  0  0  0  0  0  # atno 6907 bound_to 6896
  150.8611  134.7965  159.7094 H   0  0  0  0  0  0  0  0  0  0  0  0  # atno 6908 bound_to 6896
  152.4630  134.5150  159.9817 H   0  0  0  0  0  0  0  0  0  0  0  0  # atno 6909 bound_to 6896
  145.4442  140.9559  143.2058 H   0  0  0  0  0  0  0  0  0  0  0  0  # atno 7974 bound_to 7965
  155.2790  140.3371  155.4259 H   0  0  0  0  0  0  0  0  0  0  0  0  # atno 8008 bound_to 7997
  156.2098  140.1765  156.7760 H   0  0  0  0  0  0  0  0  0  0  0  0  # atno 8009 bound_to 7997
  154.5671  140.0677  156.8892 H   0  0  0  0  0  0  0  0  0  0  0  0  # atno 8010 bound_to 7997
  139.7455  143.8597  152.2573 H   0  0  0  0  0  0  0  0  0  0  0  0  # atno 10167 bound_to 10162
  156.9286  130.9964  151.2991 H   0  0  0  0  0  0  0  0  0  0  0  0  # atno 10718 bound_to 10713
  153.1104  135.6695  153.9510 H   0  0  0  0  0  0  0  0  0  0  0  0  # atno 10763 bound_to 10752
  153.9055  135.3031  155.3450 H   0  0  0  0  0  0  0  0  0  0  0  0  # atno 10764 bound_to 10752
  154.7524  135.5028  153.9390 H   0  0  0  0  0  0  0  0  0  0  0  0  # atno 10765 bound_to 10752
  139.8861  134.9456  156.6115 H   0  0  0  0  0  0  0  0  0  0  0  0  # atno 11005 bound_to 11000
  144.8102  139.5976  143.7033 LP  0  0  0  0  0  0  0  0  0  0  0  0  # atno 17320 bound_to 7965
  146.2540  139.6261  142.9408 LP  0  0  0  0  0  0  0  0  0  0  0  0  # atno 17321 bound_to 7965
  139.8560  144.7141  150.9157 LP  0  0  0  0  0  0  0  0  0  0  0  0  # atno 17342 bound_to 10162
  140.7791  143.3858  151.1396 LP  0  0  0  0  0  0  0  0  0  0  0  0  # atno 17343 bound_to 10162
  157.5861  130.8411  149.8592 LP  0  0  0  0  0  0  0  0  0  0  0  0  # atno 17370 bound_to 10713
  156.0457  130.3728  150.1322 LP  0  0  0  0  0  0  0  0  0  0  0  0  # atno 17371 bound_to 10713
  140.7808  133.8662  155.8566 LP  0  0  0  0  0  0  0  0  0  0  0  0  # atno 17394 bound_to 11000
  140.9762  134.1466  157.4534 LP  0  0  0  0  0  0  0  0  0  0  0  0  # atno 17395 bound_to 11000

$$$$
