AV-unprocessed.smi:1849|AV-procd|sdf|7520|dock3
  -GOLD-   22720 9223D 1   1.00000     0.00000
 Structure written by MMmdl.
 41 42  0  0  0  0  0  0  0  0  2 V2000
  147.0662  133.3227  151.5309 C   0  0  0  0  0  0  0  0  0  0  0  0
  145.8461  133.1319  150.7435 N   0  0  0  0  0  0  0  0  0  0  0  0
  145.6117  132.1391  149.8269 C   0  0  0  0  0  0  0  0  0  0  0  0
  144.3495  132.3483  149.3350 C   0  0  0  0  0  0  0  0  0  0  0  0
  143.8657  133.4589  149.9716 N   0  3  0  0  0  0  0  0  0  0  0  0
  144.7730  133.9352  150.8321 C   0  0  0  0  0  0  0  0  0  0  0  0
  144.6017  135.1453  151.6955 C   0  0  0  0  0  0  0  0  0  0  0  0
  145.1697  136.4204  151.0506 C   0  0  0  0  0  0  0  0  0  0  0  0
  146.3597  136.8899  151.7493 N   0  0  0  0  0  0  0  0  0  0  0  0
  146.3829  137.9154  152.6121 C   0  0  0  0  0  0  0  0  0  0  0  0
  145.3930  138.5830  152.9133 O   0  0  0  0  0  0  0  0  0  0  0  0
  147.6134  138.1294  153.0987 N   0  0  0  0  0  0  0  0  0  0  0  0
  147.9735  139.1801  154.0459 C   0  0  0  0  0  0  0  0  0  0  0  0
  147.5348  140.5618  153.5165 C   0  0  0  0  0  0  0  0  0  0  0  0
  147.9796  141.6929  154.4575 C   0  0  0  0  0  0  0  0  0  0  0  0
  149.4962  141.6525  154.7017 C   0  0  0  0  0  0  0  0  0  0  0  0
  149.9335  140.2810  155.2389 C   0  0  0  0  0  0  0  0  0  0  0  0
  149.4932  139.1479  154.2980 C   0  0  0  0  0  0  0  0  0  0  0  0
  147.8158  132.5921  151.2253 H   0  0  0  0  0  0  0  0  0  0  0  0
  146.8381  133.1851  152.5883 H   0  0  0  0  0  0  0  0  0  0  0  0
  147.4553  134.3275  151.3641 H   0  0  0  0  0  0  0  0  0  0  0  0
  146.3421  131.3769  149.5971 H   0  0  0  0  0  0  0  0  0  0  0  0
  143.7752  131.8049  148.5987 H   0  0  0  0  0  0  0  0  0  0  0  0
  143.5333  135.2518  151.8875 H   0  0  0  0  0  0  0  0  0  0  0  0
  145.0801  134.9319  152.6517 H   0  0  0  0  0  0  0  0  0  0  0  0
  145.4051  136.2500  149.9989 H   0  0  0  0  0  0  0  0  0  0  0  0
  144.4233  137.2148  151.0761 H   0  0  0  0  0  0  0  0  0  0  0  0
  147.2236  136.4002  151.5656 H   0  0  0  0  0  0  0  0  0  0  0  0
  148.3600  137.5248  152.7881 H   0  0  0  0  0  0  0  0  0  0  0  0
  147.4693  138.9903  154.9957 H   0  0  0  0  0  0  0  0  0  0  0  0
  147.9592  140.7293  152.5254 H   0  0  0  0  0  0  0  0  0  0  0  0
  146.4512  140.5938  153.3970 H   0  0  0  0  0  0  0  0  0  0  0  0
  147.6962  142.6585  154.0379 H   0  0  0  0  0  0  0  0  0  0  0  0
  147.4542  141.6031  155.4091 H   0  0  0  0  0  0  0  0  0  0  0  0
  150.0228  141.8657  153.7705 H   0  0  0  0  0  0  0  0  0  0  0  0
  149.7807  142.4359  155.4047 H   0  0  0  0  0  0  0  0  0  0  0  0
  151.0164  140.2593  155.3649 H   0  0  0  0  0  0  0  0  0  0  0  0
  149.5036  140.1226  156.2288 H   0  0  0  0  0  0  0  0  0  0  0  0
  149.7817  138.1861  154.7238 H   0  0  0  0  0  0  0  0  0  0  0  0
  150.0277  139.2394  153.3512 H   0  0  0  0  0  0  0  0  0  0  0  0
  142.9511  133.8642  149.8166 H   0  0  0  0  0  0  0  0  0  0  0  0
  1  2  1  0  0  0  0
  1 19  1  0  0  0  0
  1 20  1  0  0  0  0
  1 21  1  0  0  0  0
  2  6  1  0  0  0  0
  2  3  1  0  0  0  0
  3  4  2  0  0  0  0
  3 22  1  0  0  0  0
  4  5  1  0  0  0  0
  4 23  1  0  0  0  0
  5  6  2  0  0  0  0
  5 41  1  0  0  0  0
  6  7  1  0  0  0  0
  7  8  1  0  0  0  0
  7 24  1  0  0  0  0
  7 25  1  0  0  0  0
  8  9  1  0  0  0  0
  8 26  1  0  0  0  0
  8 27  1  0  0  0  0
  9 10  1  0  0  0  0
  9 28  1  0  0  0  0
 10 11  2  0  0  0  0
 10 12  1  0  0  0  0
 12 13  1  0  0  0  0
 12 29  1  0  0  0  0
 13 18  1  0  0  0  0
 13 14  1  0  0  0  0
 13 30  1  0  0  0  0
 14 15  1  0  0  0  0
 14 31  1  0  0  0  0
 14 32  1  0  0  0  0
 15 16  1  0  0  0  0
 15 33  1  0  0  0  0
 15 34  1  0  0  0  0
 16 17  1  0  0  0  0
 16 35  1  0  0  0  0
 16 36  1  0  0  0  0
 17 18  1  0  0  0  0
 17 37  1  0  0  0  0
 17 38  1  0  0  0  0
 18 39  1  0  0  0  0
 18 40  1  0  0  0  0
M  CHG  1   5   1
M  END
> <s_m_source_file>
AV-unprocessed.smi

> <i_m_source_file_index>
1849

> <i_lp_mmshare_version>
43012

> <i_f3d_flags>
0

> <s_epik_input>
W0NIM11uMVtjSF1bY0hdbmMxW0NIMl1bQ0gyXVtOSF1DKD1PKVtOSF1bQ0hdMltDSDJdW0NIMl1bQ0gyXVtDSDJdW0NIMl0y

> <s_epik_cmdline>
J2VwaWtfcHl0aG9uJywgJy1waCcsICc3LjAnLCAnLXRuJywgJzgnLCAnLW1hJywgJzIwMCcsICctbWV0YWxfYmluZGluZycsICctaW1hZScsICc8aW5maWxlLm1hZT4nLCAnLW9tYWUnLCAnPG91dGZpbGUubWFlPic=

> <r_lp_tautomer_probability>
1

> <r_epik_Ionization_Penalty>
0.0507041

> <r_epik_Ionization_Penalty_Charging>
0

> <r_epik_Ionization_Penalty_Neutral>
0.0507041

> <r_epik_State_Penalty>
0.0433397

> <r_epik_Charging_Adjusted_Penalty>
0.0433397

> <i_epik_Tot_Q>
1

> <i_epik_Tot_abs_Q>
1

> <r_epik_Metal_State_Penalty>
0.385258

> <b_epik_Metal_Only>
0

> <s_lp_Force_Field>
OPLS_2005

> <r_lp_Energy>
7.33452

> <b_lp_Chiralities_Consistent>
1

> <s_lp_Variant>
AV-unprocessed.smi:1849-1

> <Gold.Version>
5.8.1

> <Gold.Id.Protein>
6NUR|6NUR_protein|mol2

> <Gold.PLP.Fitness>
44.8534

> <Gold.PLP.PLP>
-33.2346

> <Gold.PLP.part.hbond>
-2.9563

> <Gold.PLP.part.metal>
0.0000

> <Gold.PLP.part.buried>
-0.3453

> <Gold.PLP.part.nonpolar>
-33.1792

> <Gold.PLP.part.repulsive>
3.7962

> <Gold.PLP.ligand.clash>
0.0000

> <Gold.PLP.ligand.torsion>
0.8483

> <Gold.PLP.Chemscore.Hbond>
3.9825

> <Gold.PLP.Chemscore.CHOScore>
0.4487

> <Gold.PLP.Chemscore.Metal>
0.0000

> <Gold.Chemscore.Hbonds>
donor molecule, donor type, donor heavy atom, donor atom, acceptor molecule, acceptor atom, score
      L1  H     5    41       P1 10186  1.95
      L1  H     9    28       P1  7948  1.00
      L1  H    12    29       P1  7948  1.00
      L1  C     3    22       P1 10747  0.45

> <Gold.PLP.Chemscore.Internal.Correction>
0.0220

> <Gold.Rescore>
     Score         DG    S(hbond)    S(metal)    S(lipo)     H(rot)  DE(clash)    DE(int)     intcor
     17.47     -19.68       2.86        0.00      77.38       1.73       1.44       0.77       ----

> <Gold.Chemscore.Fitness>
17.4653

> <Gold.Chemscore.DG>
-19.6763

> <Gold.Chemscore.ZeroCoef>
-5.4800

> <Gold.Chemscore.Hbond>
2.8632

> <Gold.Chemscore.Metal>
0.0000

> <Gold.Chemscore.Lipo>
77.3772

> <Gold.Chemscore.Internal_Hbond>
0.0000

> <Gold.Chemscore.DEClash>
1.4445

> <Gold.Chemscore.DEInternal>
0.7665

> <Gold.Chemscore.Rot>
1.7265

> <Gold.Chemscore.Internal.Correction>
   9.000000E+99

> <Gold.Chemscore.Hbonds>
donor molecule, donor type, donor heavy atom, donor atom, acceptor molecule, acceptor atom, score
      L1  H     5    41       P1 10186  0.92
      L1  H     9    28       P1  7948  0.94
      L1  H    12    29       P1  7948  0.96

> <Gold.Chemscore.Hbond.Weighted>
-9.5631

> <Gold.Chemscore.Metal.Weighted>
-0.0000

> <Gold.Chemscore.Lipo.Weighted>
-9.0531

> <Gold.Chemscore.Internal_Hbond.Weighted>
0.0000

> <Gold.Chemscore.DEClash.Weighted>
1.4445

> <Gold.Chemscore.DEInternal.Weighted>
0.7665

> <Gold.Chemscore.Rot.Weighted>
4.4199

> <Gold.Chemscore.Internal.Correction.Weighted>
   9.000000E+99

> <Gold.Protein.RotatedTorsions>
[ 6907 6896 6895 6894 ] final    0.18 input  -60.11 | X-H torsion
[ 7974 7965 7964 7962 ] final  143.64 input  175.53 | X-H torsion
[ 8008 7997 7996 7995 ] final  -34.37 input   59.86 | X-H torsion
[ 10167 10162 10161 10158 ] final  -16.29 input  -65.29 | X-H torsion
[ 10718 10713 10712 10709 ] final   80.81 input   66.30 | X-H torsion
[ 10763 10752 10751 10750 ] final  104.39 input  -60.55 | X-H torsion
[ 11005 11000 10999 10996 ] final  163.76 input  -57.11 | X-H torsion

> <Gold.Protein.ActiveResidues>
 VAL166  LYS551  ARG553  GLY616  TRP617  ASP618  TYR619  PRO620  LYS621  CYS622 
 ASP623  PHE694  ASN695  SER759  ASP760  ASP761  ALA762  ILE779  LEU786  VAL792 
 PHE793  MET794  SER795  GLU796  ALA797  LYS798  CYS799  TRP800  GLU811  SER814 

> <Gold.Protein.RotatedAtoms>
  151.5722  135.1062  159.9997 H   0  0  0  0  0  0  0  0  0  0  0  0  # atno 6907 bound_to 6896
  152.4395  133.7418  159.6656 H   0  0  0  0  0  0  0  0  0  0  0  0  # atno 6908 bound_to 6896
  150.8298  133.8041  159.3126 H   0  0  0  0  0  0  0  0  0  0  0  0  # atno 6909 bound_to 6896
  144.8903  139.5568  143.5801 H   0  0  0  0  0  0  0  0  0  0  0  0  # atno 7974 bound_to 7965
  154.4123  140.1686  156.2039 H   0  0  0  0  0  0  0  0  0  0  0  0  # atno 8008 bound_to 7997
  155.9501  140.3401  155.6377 H   0  0  0  0  0  0  0  0  0  0  0  0  # atno 8009 bound_to 7997
  155.6880  140.0730  157.2450 H   0  0  0  0  0  0  0  0  0  0  0  0  # atno 8010 bound_to 7997
  140.7231  143.5131  150.9725 H   0  0  0  0  0  0  0  0  0  0  0  0  # atno 10167 bound_to 10162
  157.6816  130.9976  150.2134 H   0  0  0  0  0  0  0  0  0  0  0  0  # atno 10718 bound_to 10713
  153.3654  135.3944  155.1749 H   0  0  0  0  0  0  0  0  0  0  0  0  # atno 10763 bound_to 10752
  154.8686  135.3689  154.5046 H   0  0  0  0  0  0  0  0  0  0  0  0  # atno 10764 bound_to 10752
  153.5509  135.7083  153.5652 H   0  0  0  0  0  0  0  0  0  0  0  0  # atno 10765 bound_to 10752
  140.2391  134.8065  157.3393 H   0  0  0  0  0  0  0  0  0  0  0  0  # atno 11005 bound_to 11000
  146.3050  139.7549  142.9063 LP  0  0  0  0  0  0  0  0  0  0  0  0  # atno 17320 bound_to 7965
  145.3794  141.0356  143.3186 LP  0  0  0  0  0  0  0  0  0  0  0  0  # atno 17321 bound_to 7965
  139.8846  143.7029  152.3153 LP  0  0  0  0  0  0  0  0  0  0  0  0  # atno 17342 bound_to 10162
  139.7324  144.7579  151.0781 LP  0  0  0  0  0  0  0  0  0  0  0  0  # atno 17343 bound_to 10162
  156.2800  130.3732  149.7944 LP  0  0  0  0  0  0  0  0  0  0  0  0  # atno 17370 bound_to 10713
  156.5635  130.8394  151.3336 LP  0  0  0  0  0  0  0  0  0  0  0  0  # atno 17371 bound_to 10713
  140.1672  134.4654  155.7855 LP  0  0  0  0  0  0  0  0  0  0  0  0  # atno 17394 bound_to 11000
  141.2212  133.6926  156.7645 LP  0  0  0  0  0  0  0  0  0  0  0  0  # atno 17395 bound_to 11000

$$$$
