AV-unprocessed.smi:949|AV-procd|sdf|4242|dock1
  -GOLD-   22720 2153D 1   1.00000     0.00000
 Structure written by MMmdl.
 33 34  0  0  0  0  0  0  0  0  2 V2000
  151.9535  141.1008  157.4940 C   0  0  0  0  0  0  0  0  0  0  0  0
  150.5719  141.7804  157.4603 C   0  0  2  0  0  0  0  0  0  0  0  0
  150.1373  141.9751  156.0817 N   0  0  0  0  0  0  0  0  0  0  0  0
  149.8407  140.9097  155.2130 C   0  0  0  0  0  0  0  0  0  0  0  0
  150.6658  139.7618  155.1039 C   0  0  0  0  0  0  0  0  0  0  0  0
  150.3117  138.7286  154.2136 C   0  0  0  0  0  0  0  0  0  0  0  0
  149.1910  138.8356  153.4703 N   0  3  0  0  0  0  0  0  0  0  0  0
  148.3722  139.9061  153.5367 C   0  0  0  0  0  0  0  0  0  0  0  0
  148.6719  140.9735  154.4093 C   0  0  0  0  0  0  0  0  0  0  0  0
  147.8070  142.0694  154.4608 N   0  0  0  0  0  0  0  0  0  0  0  0
  150.5915  143.1377  158.1900 C   0  0  2  0  0  0  0  0  0  0  0  0
  151.6337  144.1307  157.6706 C   0  0  0  0  0  0  0  0  0  0  0  0
  151.9260  145.0157  158.8730 C   0  0  0  0  0  0  0  0  0  0  0  0
  151.3183  144.2543  160.0530 C   0  0  0  0  0  0  0  0  0  0  0  0
  151.0067  142.9680  159.5371 O   0  0  0  0  0  0  0  0  0  0  0  0
  152.2726  140.8991  158.5166 H   0  0  0  0  0  0  0  0  0  0  0  0
  152.7133  141.7291  157.0281 H   0  0  0  0  0  0  0  0  0  0  0  0
  151.9491  140.1466  156.9678 H   0  0  0  0  0  0  0  0  0  0  0  0
  149.8496  141.1445  157.9726 H   0  0  0  0  0  0  0  0  0  0  0  0
  149.9132  142.9154  155.7894 H   0  0  0  0  0  0  0  0  0  0  0  0
  151.5685  139.6537  155.6855 H   0  0  0  0  0  0  0  0  0  0  0  0
  150.8888  137.8262  154.0748 H   0  0  0  0  0  0  0  0  0  0  0  0
  147.5058  139.8749  152.8920 H   0  0  0  0  0  0  0  0  0  0  0  0
  147.9833  142.8543  155.0717 H   0  0  0  0  0  0  0  0  0  0  0  0
  147.0377  142.1625  153.8129 H   0  0  0  0  0  0  0  0  0  0  0  0
  149.6011  143.5983  158.1774 H   0  0  0  0  0  0  0  0  0  0  0  0
  152.5432  143.6037  157.3785 H   0  0  0  0  0  0  0  0  0  0  0  0
  151.2816  144.6963  156.8074 H   0  0  0  0  0  0  0  0  0  0  0  0
  152.9998  145.1590  158.9968 H   0  0  0  0  0  0  0  0  0  0  0  0
  151.4654  145.9988  158.7704 H   0  0  0  0  0  0  0  0  0  0  0  0
  151.9979  144.1834  160.9024 H   0  0  0  0  0  0  0  0  0  0  0  0
  150.4006  144.7383  160.3902 H   0  0  0  0  0  0  0  0  0  0  0  0
  148.9524  138.0759  152.8320 H   0  0  0  0  0  0  0  0  0  0  0  0
  1  2  1  0  0  0  0
  1 16  1  0  0  0  0
  1 17  1  0  0  0  0
  1 18  1  0  0  0  0
  2  3  1  0  0  0  0
  2 11  1  0  0  0  0
  2 19  1  0  0  0  0
  3  4  1  0  0  0  0
  3 20  1  0  0  0  0
  4  9  1  0  0  0  0
  4  5  2  0  0  0  0
  5  6  1  0  0  0  0
  5 21  1  0  0  0  0
  6  7  2  0  0  0  0
  6 22  1  0  0  0  0
  7  8  1  0  0  0  0
  7 33  1  0  0  0  0
  8  9  2  0  0  0  0
  8 23  1  0  0  0  0
  9 10  1  0  0  0  0
 10 24  1  0  0  0  0
 10 25  1  0  0  0  0
 11 15  1  0  0  0  0
 11 12  1  0  0  0  0
 11 26  1  0  0  0  0
 12 13  1  0  0  0  0
 12 27  1  0  0  0  0
 12 28  1  0  0  0  0
 13 14  1  0  0  0  0
 13 29  1  0  0  0  0
 13 30  1  0  0  0  0
 14 15  1  0  0  0  0
 14 31  1  0  0  0  0
 14 32  1  0  0  0  0
M  CHG  1   7   1
M  END
> <s_m_source_file>
AV-unprocessed.smi

> <i_m_source_file_index>
949

> <i_lp_mmshare_version>
43012

> <i_f3d_flags>
0

> <s_epik_input>
TzFbQ0gyXVtDSDJdW0NIMl1bQ0BIXTFbQ0BIXShbQ0gzXSlbTkhdYzJbY0hdW2NIXW5bY0hdYzJbTkgyXQ==

> <s_epik_cmdline>
J2VwaWtfcHl0aG9uJywgJy1waCcsICc3LjAnLCAnLXRuJywgJzgnLCAnLW1hJywgJzIwMCcsICctbWV0YWxfYmluZGluZycsICctaW1hZScsICc8aW5maWxlLm1hZT4nLCAnLW9tYWUnLCAnPG91dGZpbGUubWFlPic=

> <r_epik_Ionization_Penalty>
0.000849261

> <r_epik_Ionization_Penalty_Charging>
0.000847912

> <r_epik_Ionization_Penalty_Neutral>
1.34939e-06

> <r_epik_State_Penalty>
0.000546618

> <r_epik_Charging_Adjusted_Penalty>
0.00139453

> <i_epik_Tot_Q>
1

> <i_epik_Tot_abs_Q>
1

> <r_epik_Metal_State_Penalty>
0.526583

> <b_epik_Metal_Only>
0

> <s_lp_Force_Field>
OPLS_2005

> <r_lp_Energy>
30.4105

> <b_lp_Chiralities_Consistent>
1

> <s_lp_Variant>
AV-unprocessed.smi:949-1

> <Gold.Version>
5.8.1

> <Gold.Id.Protein>
6NUR|6NUR_protein|mol2

> <Gold.PLP.Fitness>
45.0771

> <Gold.PLP.PLP>
-34.7911

> <Gold.PLP.part.hbond>
-4.2786

> <Gold.PLP.part.metal>
0.0000

> <Gold.PLP.part.buried>
-0.8873

> <Gold.PLP.part.nonpolar>
-30.8331

> <Gold.PLP.part.repulsive>
0.4263

> <Gold.PLP.ligand.clash>
0.0000

> <Gold.PLP.ligand.torsion>
0.4427

> <Gold.PLP.Chemscore.Hbond>
3.7138

> <Gold.PLP.Chemscore.CHOScore>
0.0000

> <Gold.PLP.Chemscore.Metal>
0.0000

> <Gold.Chemscore.Hbonds>
donor molecule, donor type, donor heavy atom, donor atom, acceptor molecule, acceptor atom, score
      L1  H     3    20       P1  8028  0.88
      L1  H     7    33       P1  7948  1.89
      L1  H    10    24       P1  8028  0.76

> <Gold.PLP.Chemscore.Internal.Correction>
0.0303

> <Gold.Rescore>
     Score         DG    S(hbond)    S(metal)    S(lipo)     H(rot)  DE(clash)    DE(int)     intcor
     19.40     -20.77       2.25        0.00      93.58       1.23       0.81       0.56       ----

> <Gold.Chemscore.Fitness>
19.4000

> <Gold.Chemscore.DG>
-20.7686

> <Gold.Chemscore.ZeroCoef>
-5.4800

> <Gold.Chemscore.Hbond>
2.2457

> <Gold.Chemscore.Metal>
0.0000

> <Gold.Chemscore.Lipo>
93.5808

> <Gold.Chemscore.Internal_Hbond>
0.0000

> <Gold.Chemscore.DEClash>
0.8093

> <Gold.Chemscore.DEInternal>
0.5592

> <Gold.Chemscore.Rot>
1.2347

> <Gold.Chemscore.Internal.Correction>
   9.000000E+99

> <Gold.Chemscore.Hbonds>
donor molecule, donor type, donor heavy atom, donor atom, acceptor molecule, acceptor atom, score
      L1  H     3    20       P1  8028  0.85
      L1  H     7    33       P1  7948  0.90
      L1  H    10    24       P1  8028  0.68

> <Gold.Chemscore.Hbond.Weighted>
-7.5005

> <Gold.Chemscore.Metal.Weighted>
-0.0000

> <Gold.Chemscore.Lipo.Weighted>
-10.9490

> <Gold.Chemscore.Internal_Hbond.Weighted>
0.0000

> <Gold.Chemscore.DEClash.Weighted>
0.8093

> <Gold.Chemscore.DEInternal.Weighted>
0.5592

> <Gold.Chemscore.Rot.Weighted>
3.1609

> <Gold.Chemscore.Internal.Correction.Weighted>
   9.000000E+99

> <Gold.Protein.RotatedTorsions>
[ 6907 6896 6895 6894 ] final  -90.28 input  -60.11 | X-H torsion
[ 7974 7965 7964 7962 ] final  140.57 input  175.53 | X-H torsion
[ 8008 7997 7996 7995 ] final  140.74 input   59.86 | X-H torsion
[ 10167 10162 10161 10158 ] final  -52.50 input  -65.29 | X-H torsion
[ 10718 10713 10712 10709 ] final  153.38 input   66.30 | X-H torsion
[ 10763 10752 10751 10750 ] final   21.76 input  -60.55 | X-H torsion
[ 11005 11000 10999 10996 ] final -108.86 input  -57.11 | X-H torsion

> <Gold.Protein.ActiveResidues>
 VAL166  LYS551  ARG553  GLY616  TRP617  ASP618  TYR619  PRO620  LYS621  CYS622 
 ASP623  PHE694  ASN695  SER759  ASP760  ASP761  ALA762  ILE779  LEU786  VAL792 
 PHE793  MET794  SER795  GLU796  ALA797  LYS798  CYS799  TRP800  GLU811  SER814 

> <Gold.Protein.RotatedAtoms>
  150.6880  134.2456  159.4489 H   0  0  0  0  0  0  0  0  0  0  0  0  # atno 6907 bound_to 6896
  152.0397  134.9716  160.0583 H   0  0  0  0  0  0  0  0  0  0  0  0  # atno 6908 bound_to 6896
  152.1222  133.4325  159.4718 H   0  0  0  0  0  0  0  0  0  0  0  0  # atno 6909 bound_to 6896
  144.9174  139.5212  143.5679 H   0  0  0  0  0  0  0  0  0  0  0  0  # atno 7974 bound_to 7965
  156.2975  140.2333  156.4451 H   0  0  0  0  0  0  0  0  0  0  0  0  # atno 8008 bound_to 7997
  154.8152  140.0441  157.1391 H   0  0  0  0  0  0  0  0  0  0  0  0  # atno 8009 bound_to 7997
  154.9378  140.3025  155.5139 H   0  0  0  0  0  0  0  0  0  0  0  0  # atno 8010 bound_to 7997
  140.6534  143.2582  151.4657 H   0  0  0  0  0  0  0  0  0  0  0  0  # atno 10167 bound_to 10162
  157.2455  131.0768  151.1764 H   0  0  0  0  0  0  0  0  0  0  0  0  # atno 10718 bound_to 10713
  153.0969  135.6662  153.9745 H   0  0  0  0  0  0  0  0  0  0  0  0  # atno 10763 bound_to 10752
  153.9327  135.3002  155.3446 H   0  0  0  0  0  0  0  0  0  0  0  0  # atno 10764 bound_to 10752
  154.7388  135.5089  153.9162 H   0  0  0  0  0  0  0  0  0  0  0  0  # atno 10765 bound_to 10752
  141.0879  133.9107  157.2143 H   0  0  0  0  0  0  0  0  0  0  0  0  # atno 11005 bound_to 11000
  146.3188  139.8028  142.8962 LP  0  0  0  0  0  0  0  0  0  0  0  0  # atno 17320 bound_to 7965
  145.3352  141.0275  143.3424 LP  0  0  0  0  0  0  0  0  0  0  0  0  # atno 17321 bound_to 7965
  139.5752  144.1835  152.1893 LP  0  0  0  0  0  0  0  0  0  0  0  0  # atno 17342 bound_to 10162
  140.1143  144.5429  150.6904 LP  0  0  0  0  0  0  0  0  0  0  0  0  # atno 17343 bound_to 10162
  157.3333  130.6996  149.6337 LP  0  0  0  0  0  0  0  0  0  0  0  0  # atno 17370 bound_to 10713
  155.9668  130.4301  150.4861 LP  0  0  0  0  0  0  0  0  0  0  0  0  # atno 17371 bound_to 10713
  139.9700  135.0131  156.9487 LP  0  0  0  0  0  0  0  0  0  0  0  0  # atno 17394 bound_to 11000
  140.5320  134.0804  155.7318 LP  0  0  0  0  0  0  0  0  0  0  0  0  # atno 17395 bound_to 11000

$$$$
