AV-unprocessed.smi:2226|AV-procd|sdf|9009|dock6
  -GOLD-   2272012213D 1   1.00000     0.00000
 Structure written by MMmdl.
 40 42  0  0  0  0  0  0  0  0  2 V2000
  145.5112  139.7567  155.4170 C   0  0  0  0  0  0  0  0  0  0  0  0
  145.4599  138.9803  154.1553 N   0  3  2  0  0  0  0  0  0  0  0  0
  144.7604  137.6771  154.2539 C   0  0  2  0  0  0  0  0  0  0  0  0
  145.5779  136.6565  155.0851 C   0  0  0  0  0  0  0  0  0  0  0  0
  147.0423  136.5044  154.6350 C   0  0  0  0  0  0  0  0  0  0  0  0
  147.6932  137.8492  154.2661 C   0  0  0  0  0  0  0  0  0  0  0  0
  146.7661  138.8066  153.4761 C   0  0  1  0  0  0  0  0  0  0  0  0
  146.5196  138.4154  152.0003 C   0  0  0  0  0  0  0  0  0  0  0  0
  145.4878  137.2776  151.7662 C   0  0  1  0  0  0  0  0  0  0  0  0
  146.1133  135.9732  151.5620 N   0  0  0  0  0  0  0  0  0  0  0  0
  145.4868  134.8331  151.2323 C   0  0  0  0  0  0  0  0  0  0  0  0
  144.2637  134.7918  151.0658 O   0  0  0  0  0  0  0  0  0  0  0  0
  146.4105  133.8067  151.1037 N   0  0  0  0  0  0  0  0  0  0  0  0
  146.0406  132.5832  151.3243 C   0  0  0  0  0  0  0  0  0  0  0  0
  146.8189  131.4386  151.2586 N   0  0  0  0  0  0  0  0  0  0  0  0
  146.0251  130.3662  151.5597 C   0  0  0  0  0  0  0  0  0  0  0  0
  144.7973  130.8154  151.8031 C   0  0  0  0  0  0  0  0  0  0  0  0
  144.7731  132.1704  151.6660 O   0  0  0  0  0  0  0  0  0  0  0  0
  144.3660  137.2087  152.8338 C   0  0  0  0  0  0  0  0  0  0  0  0
  146.0939  139.2541  156.1884 H   0  0  0  0  0  0  0  0  0  0  0  0
  144.5051  139.9172  155.8050 H   0  0  0  0  0  0  0  0  0  0  0  0
  145.9561  140.7366  155.2423 H   0  0  0  0  0  0  0  0  0  0  0  0
  143.8241  137.8430  154.7891 H   0  0  0  0  0  0  0  0  0  0  0  0
  145.5728  136.9729  156.1285 H   0  0  0  0  0  0  0  0  0  0  0  0
  145.0856  135.6836  155.0763 H   0  0  0  0  0  0  0  0  0  0  0  0
  147.6180  136.0297  155.4301 H   0  0  0  0  0  0  0  0  0  0  0  0
  147.1130  135.8113  153.8035 H   0  0  0  0  0  0  0  0  0  0  0  0
  148.0038  138.3434  155.1869 H   0  0  0  0  0  0  0  0  0  0  0  0
  148.6137  137.6728  153.7085 H   0  0  0  0  0  0  0  0  0  0  0  0
  147.2602  139.7791  153.4541 H   0  0  0  0  0  0  0  0  0  0  0  0
  146.1320  139.3034  151.4989 H   0  0  0  0  0  0  0  0  0  0  0  0
  147.4657  138.2040  151.5006 H   0  0  0  0  0  0  0  0  0  0  0  0
  144.9847  137.4963  150.8219 H   0  0  0  0  0  0  0  0  0  0  0  0
  147.1155  135.9312  151.6787 H   0  0  0  0  0  0  0  0  0  0  0  0
  147.7998  131.3603  151.0317 H   0  0  0  0  0  0  0  0  0  0  0  0
  146.4354  129.3672  151.5677 H   0  0  0  0  0  0  0  0  0  0  0  0
  143.8750  130.3226  152.0729 H   0  0  0  0  0  0  0  0  0  0  0  0
  143.9202  136.2135  152.8682 H   0  0  0  0  0  0  0  0  0  0  0  0
  143.5623  137.8650  152.4968 H   0  0  0  0  0  0  0  0  0  0  0  0
  144.9007  139.5435  153.5306 H   0  0  0  0  0  0  0  0  0  0  0  0
  1  2  1  0  0  0  0
  1 20  1  0  0  0  0
  1 21  1  0  0  0  0
  1 22  1  0  0  0  0
  2  7  1  0  0  0  0
  2  3  1  0  0  0  0
  2 40  1  0  0  0  0
  3 19  1  0  0  0  0
  3  4  1  0  0  0  0
  3 23  1  0  0  0  0
  4  5  1  0  0  0  0
  4 24  1  0  0  0  0
  4 25  1  0  0  0  0
  5  6  1  0  0  0  0
  5 26  1  0  0  0  0
  5 27  1  0  0  0  0
  6  7  1  0  0  0  0
  6 28  1  0  0  0  0
  6 29  1  0  0  0  0
  7  8  1  0  0  0  0
  7 30  1  0  0  0  0
  8  9  1  0  0  0  0
  8 31  1  0  0  0  0
  8 32  1  0  0  0  0
  9 10  1  0  0  0  0
  9 19  1  0  0  0  0
  9 33  1  0  0  0  0
 10 34  1  0  0  0  0
 10 11  1  0  0  0  0
 11 13  1  0  0  0  0
 11 12  2  0  0  0  0
 13 14  2  0  0  0  0
 14 18  1  0  0  0  0
 14 15  1  0  0  0  0
 15 35  1  0  0  0  0
 15 16  1  0  0  0  0
 16 36  1  0  0  0  0
 16 17  2  0  0  0  0
 17 37  1  0  0  0  0
 17 18  1  0  0  0  0
 19 38  1  0  0  0  0
 19 39  1  0  0  0  0
M  CHG  1   2   1
M  END
> <s_m_source_file>
AV-unprocessed.smi

> <i_m_source_file_index>
2226

> <i_lp_mmshare_version>
43012

> <i_f3d_flags>
0

> <s_epik_input>
W0NIMl0xW0NIMl1bQ0gyXVtDQEhdKE4oW0NIM10pW0NIXTEyKVtDSDJdW0NASF0oW0NIMl0yKVtOSF1DKD1PKVtOSF1jM25bY0hdW2NIXW8z

> <s_epik_cmdline>
J2VwaWtfcHl0aG9uJywgJy1waCcsICc3LjAnLCAnLXRuJywgJzgnLCAnLW1hJywgJzIwMCcsICctbWV0YWxfYmluZGluZycsICctaW1hZScsICc8aW5maWxlLm1hZT4nLCAnLW9tYWUnLCAnPG91dGZpbGUubWFlPic=

> <r_lp_tautomer_probability>
0.107061

> <r_epik_Ionization_Penalty>
1.08307

> <r_epik_Ionization_Penalty_Charging>
1.08272

> <r_epik_Ionization_Penalty_Neutral>
0.000345913

> <r_epik_State_Penalty>
2.5744

> <r_epik_Charging_Adjusted_Penalty>
3.65713

> <i_epik_Tot_Q>
1

> <i_epik_Tot_abs_Q>
1

> <r_epik_Metal_State_Penalty>
3.72133

> <b_epik_Metal_Only>
0

> <s_lp_Force_Field>
OPLS_2005

> <r_lp_Energy>
58.5529

> <b_lp_Chiralities_Consistent>
1

> <s_lp_Variant>
AV-unprocessed.smi:2226-9

> <Gold.Version>
5.8.1

> <Gold.Id.Protein>
6NUR|6NUR_protein|mol2

> <Gold.PLP.Fitness>
34.2562

> <Gold.PLP.PLP>
-22.6903

> <Gold.PLP.part.hbond>
-2.6968

> <Gold.PLP.part.metal>
0.0000

> <Gold.PLP.part.buried>
-1.2519

> <Gold.PLP.part.nonpolar>
-20.2454

> <Gold.PLP.part.repulsive>
0.6640

> <Gold.PLP.ligand.clash>
0.0000

> <Gold.PLP.ligand.torsion>
0.1940

> <Gold.PLP.Chemscore.Hbond>
3.9672

> <Gold.PLP.Chemscore.CHOScore>
0.0000

> <Gold.PLP.Chemscore.Metal>
0.0000

> <Gold.Chemscore.Hbonds>
donor molecule, donor type, donor heavy atom, donor atom, acceptor molecule, acceptor atom, score
      L1  H     2    40       P1 10175  2.00
      L1  H    10    34       P1  7948  1.00
      L1  H    15    35       P1 10747  0.89

> <Gold.PLP.Chemscore.Internal.Correction>
0.0522

> <Gold.Rescore>
     Score         DG    S(hbond)    S(metal)    S(lipo)     H(rot)  DE(clash)    DE(int)     intcor
     14.78     -19.08       2.98        0.00      53.10       1.00       1.30       3.01       ----

> <Gold.Chemscore.Fitness>
14.7786

> <Gold.Chemscore.DG>
-19.0825

> <Gold.Chemscore.ZeroCoef>
-5.4800

> <Gold.Chemscore.Hbond>
2.9791

> <Gold.Chemscore.Metal>
0.0000

> <Gold.Chemscore.Lipo>
53.0965

> <Gold.Chemscore.Internal_Hbond>
0.0000

> <Gold.Chemscore.DEClash>
1.2964

> <Gold.Chemscore.DEInternal>
3.0075

> <Gold.Chemscore.Rot>
1.0000

> <Gold.Chemscore.Internal.Correction>
   9.000000E+99

> <Gold.Chemscore.Hbonds>
donor molecule, donor type, donor heavy atom, donor atom, acceptor molecule, acceptor atom, score
      L1  H     2    40       P1 10175  1.00
      L1  H    10    34       P1  7948  1.00
      L1  H    15    35       P1 10747  0.85

> <Gold.Chemscore.Hbond.Weighted>
-9.9502

> <Gold.Chemscore.Metal.Weighted>
-0.0000

> <Gold.Chemscore.Lipo.Weighted>
-6.2123

> <Gold.Chemscore.Internal_Hbond.Weighted>
0.0000

> <Gold.Chemscore.DEClash.Weighted>
1.2964

> <Gold.Chemscore.DEInternal.Weighted>
3.0075

> <Gold.Chemscore.Rot.Weighted>
2.5600

> <Gold.Chemscore.Internal.Correction.Weighted>
   9.000000E+99

> <Gold.Protein.RotatedTorsions>
[ 6907 6896 6895 6894 ] final   43.84 input  -60.11 | X-H torsion
[ 7974 7965 7964 7962 ] final   54.69 input  175.53 | X-H torsion
[ 8008 7997 7996 7995 ] final  -35.27 input   59.86 | X-H torsion
[ 10167 10162 10161 10158 ] final    5.15 input  -65.29 | X-H torsion
[ 10718 10713 10712 10709 ] final   36.64 input   66.30 | X-H torsion
[ 10763 10752 10751 10750 ] final   92.56 input  -60.55 | X-H torsion
[ 11005 11000 10999 10996 ] final  152.79 input  -57.11 | X-H torsion

> <Gold.Protein.ActiveResidues>
 VAL166  LYS551  ARG553  GLY616  TRP617  ASP618  TYR619  PRO620  LYS621  CYS622 
 ASP623  PHE694  ASN695  SER759  ASP760  ASP761  ALA762  ILE779  LEU786  VAL792 
 PHE793  MET794  SER795  GLU796  ALA797  LYS798  CYS799  TRP800  GLU811  SER814 

> <Gold.Protein.RotatedAtoms>
  152.2253  134.8374  160.0480 H   0  0  0  0  0  0  0  0  0  0  0  0  # atno 6907 bound_to 6896
  151.9143  133.3564  159.3883 H   0  0  0  0  0  0  0  0  0  0  0  0  # atno 6908 bound_to 6896
  150.7010  134.4625  159.5431 H   0  0  0  0  0  0  0  0  0  0  0  0  # atno 6909 bound_to 6896
  145.9583  139.4035  143.0264 H   0  0  0  0  0  0  0  0  0  0  0  0  # atno 7974 bound_to 7965
  154.4099  140.1661  156.2185 H   0  0  0  0  0  0  0  0  0  0  0  0  # atno 8008 bound_to 7997
  155.9384  140.3410  155.6284 H   0  0  0  0  0  0  0  0  0  0  0  0  # atno 8009 bound_to 7997
  155.7020  140.0746  157.2397 H   0  0  0  0  0  0  0  0  0  0  0  0  # atno 8010 bound_to 7997
  140.6497  143.7574  150.7556 H   0  0  0  0  0  0  0  0  0  0  0  0  # atno 10167 bound_to 10162
  157.3374  130.7529  149.6888 H   0  0  0  0  0  0  0  0  0  0  0  0  # atno 10718 bound_to 10713
  153.2206  135.4357  155.0484 H   0  0  0  0  0  0  0  0  0  0  0  0  # atno 10763 bound_to 10752
  154.8248  135.3355  154.6933 H   0  0  0  0  0  0  0  0  0  0  0  0  # atno 10764 bound_to 10752
  153.7366  135.7007  153.5033 H   0  0  0  0  0  0  0  0  0  0  0  0  # atno 10765 bound_to 10752
  140.1339  134.8783  157.2241 H   0  0  0  0  0  0  0  0  0  0  0  0  # atno 11005 bound_to 11000
  145.8076  140.9741  143.0966 LP  0  0  0  0  0  0  0  0  0  0  0  0  # atno 17320 bound_to 7965
  144.6809  139.9880  143.7484 LP  0  0  0  0  0  0  0  0  0  0  0  0  # atno 17321 bound_to 7965
  140.1223  143.4601  152.2306 LP  0  0  0  0  0  0  0  0  0  0  0  0  # atno 17342 bound_to 10162
  139.5711  144.7463  151.3888 LP  0  0  0  0  0  0  0  0  0  0  0  0  # atno 17343 bound_to 10162
  155.9703  130.4177  150.4295 LP  0  0  0  0  0  0  0  0  0  0  0  0  # atno 17370 bound_to 10713
  157.2337  131.0510  151.2477 LP  0  0  0  0  0  0  0  0  0  0  0  0  # atno 17371 bound_to 10713
  140.2807  134.3353  155.7344 LP  0  0  0  0  0  0  0  0  0  0  0  0  # atno 17394 bound_to 11000
  141.2175  133.7476  156.9359 LP  0  0  0  0  0  0  0  0  0  0  0  0  # atno 17395 bound_to 11000

$$$$
