AV-unprocessed.smi:1677|AV-procd|sdf|6726|dock7
  -GOLD-   22720 7473D 1   1.00000     0.00000
 Structure written by MMmdl.
 36 37  0  0  0  0  0  0  0  0  1 V2000
  152.1427  139.9297  155.5470 C   0  0  0  0  0  0  0  0  0  0  0  0
  150.7456  140.5176  155.7852 C   0  0  2  0  0  0  0  0  0  0  0  0
  150.1066  141.0013  154.4661 C   0  0  0  0  0  0  0  0  0  0  0  0
  148.6560  140.9561  154.4974 N   0  0  0  0  0  0  0  0  0  0  0  0
  147.8272  140.1317  153.7483 C   0  0  0  0  0  0  0  0  0  0  0  0
  146.5360  140.4305  154.1203 C   0  0  0  0  0  0  0  0  0  0  0  0
  146.5461  141.4338  155.0864 N   0  0  0  0  0  0  0  0  0  0  0  0
  147.8353  141.6961  155.2558 C   0  0  0  0  0  0  0  0  0  0  0  0
  150.8500  141.6169  156.7439 N   0  0  0  0  0  0  0  0  0  0  0  0
  151.4445  141.5551  157.9465 C   0  0  0  0  0  0  0  0  0  0  0  0
  152.0139  140.5489  158.3699 O   0  0  0  0  0  0  0  0  0  0  0  0
  151.3677  142.8195  158.8108 C   0  0  1  0  0  0  0  0  0  0  0  0
  152.1532  142.6334  160.1292 C   0  0  0  0  0  0  0  0  0  0  0  0
  152.3133  143.9383  160.8892 C   0  0  0  0  0  0  0  0  0  0  0  0
  152.1094  145.1459  160.3355 C   0  0  0  0  0  0  0  0  0  0  0  0
  151.7001  145.3430  158.8865 C   0  0  0  0  0  0  0  0  0  0  0  0
  151.8758  144.0611  158.0505 C   0  0  0  0  0  0  0  0  0  0  0  0
  152.0998  139.0841  154.8600 H   0  0  0  0  0  0  0  0  0  0  0  0
  152.5831  139.5729  156.4788 H   0  0  0  0  0  0  0  0  0  0  0  0
  152.8190  140.6711  155.1201 H   0  0  0  0  0  0  0  0  0  0  0  0
  150.1280  139.7190  156.2002 H   0  0  0  0  0  0  0  0  0  0  0  0
  150.4231  142.0198  154.2359 H   0  0  0  0  0  0  0  0  0  0  0  0
  150.4406  140.3764  153.6370 H   0  0  0  0  0  0  0  0  0  0  0  0
  148.2146  139.4161  153.0382 H   0  0  0  0  0  0  0  0  0  0  0  0
  145.6077  140.0042  153.7696 H   0  0  0  0  0  0  0  0  0  0  0  0
  148.1916  142.4372  155.9561 H   0  0  0  0  0  0  0  0  0  0  0  0
  150.4102  142.4878  156.4831 H   0  0  0  0  0  0  0  0  0  0  0  0
  150.3203  142.9960  159.0632 H   0  0  0  0  0  0  0  0  0  0  0  0
  151.6345  141.9188  160.7695 H   0  0  0  0  0  0  0  0  0  0  0  0
  153.1489  142.2273  159.9450 H   0  0  0  0  0  0  0  0  0  0  0  0
  152.6193  143.8659  161.9225 H   0  0  0  0  0  0  0  0  0  0  0  0
  152.2268  146.0377  160.9338 H   0  0  0  0  0  0  0  0  0  0  0  0
  150.6579  145.6631  158.8710 H   0  0  0  0  0  0  0  0  0  0  0  0
  152.2877  146.1523  158.4527 H   0  0  0  0  0  0  0  0  0  0  0  0
  152.9332  143.9348  157.8119 H   0  0  0  0  0  0  0  0  0  0  0  0
  151.3570  144.1711  157.0972 H   0  0  0  0  0  0  0  0  0  0  0  0
  1  2  1  0  0  0  0
  1 18  1  0  0  0  0
  1 19  1  0  0  0  0
  1 20  1  0  0  0  0
  2  3  1  0  0  0  0
  2  9  1  0  0  0  0
  2 21  1  0  0  0  0
  3  4  1  0  0  0  0
  3 22  1  0  0  0  0
  3 23  1  0  0  0  0
  4  8  1  0  0  0  0
  4  5  1  0  0  0  0
  5  6  2  0  0  0  0
  5 24  1  0  0  0  0
  6  7  1  0  0  0  0
  6 25  1  0  0  0  0
  7  8  2  0  0  0  0
  8 26  1  0  0  0  0
  9 10  1  0  0  0  0
  9 27  1  0  0  0  0
 10 11  2  0  0  0  0
 10 12  1  0  0  0  0
 12 17  1  0  0  0  0
 12 13  1  0  0  0  0
 12 28  1  0  0  0  0
 13 14  1  0  0  0  0
 13 29  1  0  0  0  0
 13 30  1  0  0  0  0
 14 15  2  0  0  0  0
 14 31  1  0  0  0  0
 15 16  1  0  0  0  0
 15 32  1  0  0  0  0
 16 17  1  0  0  0  0
 16 33  1  0  0  0  0
 16 34  1  0  0  0  0
 17 35  1  0  0  0  0
 17 36  1  0  0  0  0
M  END
> <s_m_source_file>
AV-unprocessed.smi

> <i_m_source_file_index>
1677

> <i_lp_mmshare_version>
43012

> <i_f3d_flags>
0

> <s_epik_input>
W2NIXTFuW2NIXVtjSF1uMVtDSDJdW0NAQEhdKFtDSDNdKVtOSF1DKD1PKVtDQEBIXTJbQ0gyXVtDSF09W0NIXVtDSDJdW0NIMl0y

> <s_epik_cmdline>
J2VwaWtfcHl0aG9uJywgJy1waCcsICc3LjAnLCAnLXRuJywgJzgnLCAnLW1hJywgJzIwMCcsICctbWV0YWxfYmluZGluZycsICctaW1hZScsICc8aW5maWxlLm1hZT4nLCAnLW9tYWUnLCAnPG91dGZpbGUubWFlPic=

> <r_lp_tautomer_probability>
1

> <r_epik_Ionization_Penalty>
0.640435

> <r_epik_Ionization_Penalty_Charging>
0.640435

> <r_epik_Ionization_Penalty_Neutral>
2.11108e-08

> <r_epik_State_Penalty>
0.658069

> <r_epik_Charging_Adjusted_Penalty>
1.2985

> <i_epik_Tot_Q>
0

> <i_epik_Tot_abs_Q>
0

> <r_epik_Metal_State_Penalty>
0.311689

> <b_epik_Metal_Only>
0

> <s_lp_Force_Field>
OPLS_2005

> <r_lp_Energy>
9.94345

> <b_lp_Chiralities_Consistent>
1

> <s_lp_Variant>
AV-unprocessed.smi:1677-7

> <Gold.Version>
5.8.1

> <Gold.Id.Protein>
6NUR|6NUR_protein|mol2

> <Gold.PLP.Fitness>
43.8589

> <Gold.PLP.PLP>
-36.1635

> <Gold.PLP.part.hbond>
0.0000

> <Gold.PLP.part.metal>
0.0000

> <Gold.PLP.part.buried>
-0.0506

> <Gold.PLP.part.nonpolar>
-34.7636

> <Gold.PLP.part.repulsive>
0.1657

> <Gold.PLP.ligand.clash>
0.0000

> <Gold.PLP.ligand.torsion>
0.4639

> <Gold.PLP.Chemscore.Hbond>
0.0000

> <Gold.PLP.Chemscore.CHOScore>
2.8656

> <Gold.PLP.Chemscore.Metal>
0.0000

> <Gold.Chemscore.Hbonds>
donor molecule, donor type, donor heavy atom, donor atom, acceptor molecule, acceptor atom, score
      L1  C     5    24       P1  7957  0.87
      L1  C     6    25       P1 10175  1.00
      L1  C     8    26       P1  8028  1.00

> <Gold.PLP.Chemscore.Internal.Correction>
0.0263

> <Gold.Rescore>
     Score         DG    S(hbond)    S(metal)    S(lipo)     H(rot)  DE(clash)    DE(int)     intcor
     10.50     -12.52       0.00        0.00      98.43       1.75       0.06       1.96       ----

> <Gold.Chemscore.Fitness>
10.5010

> <Gold.Chemscore.DG>
-12.5229

> <Gold.Chemscore.ZeroCoef>
-5.4800

> <Gold.Chemscore.Hbond>
0.0000

> <Gold.Chemscore.Metal>
0.0000

> <Gold.Chemscore.Lipo>
98.4307

> <Gold.Chemscore.Internal_Hbond>
0.0000

> <Gold.Chemscore.DEClash>
0.0573

> <Gold.Chemscore.DEInternal>
1.9645

> <Gold.Chemscore.Rot>
1.7475

> <Gold.Chemscore.Internal.Correction>
   9.000000E+99

> <Gold.Chemscore.Hbond.Weighted>
-0.0000

> <Gold.Chemscore.Metal.Weighted>
-0.0000

> <Gold.Chemscore.Lipo.Weighted>
-11.5164

> <Gold.Chemscore.Internal_Hbond.Weighted>
0.0000

> <Gold.Chemscore.DEClash.Weighted>
0.0573

> <Gold.Chemscore.DEInternal.Weighted>
1.9645

> <Gold.Chemscore.Rot.Weighted>
4.4735

> <Gold.Chemscore.Internal.Correction.Weighted>
   9.000000E+99

> <Gold.Protein.RotatedTorsions>
[ 6907 6896 6895 6894 ] final  111.53 input  -60.11 | X-H torsion
[ 7974 7965 7964 7962 ] final  -11.93 input  175.53 | X-H torsion
[ 8008 7997 7996 7995 ] final -140.74 input   59.86 | X-H torsion
[ 10167 10162 10161 10158 ] final -178.06 input  -65.29 | X-H torsion
[ 10718 10713 10712 10709 ] final   54.45 input   66.30 | X-H torsion
[ 10763 10752 10751 10750 ] final  176.11 input  -60.55 | X-H torsion
[ 11005 11000 10999 10996 ] final   26.72 input  -57.11 | X-H torsion

> <Gold.Protein.ActiveResidues>
 VAL166  LYS551  ARG553  GLY616  TRP617  ASP618  TYR619  PRO620  LYS621  CYS622 
 ASP623  PHE694  ASN695  SER759  ASP760  ASP761  ALA762  ILE779  LEU786  VAL792 
 PHE793  MET794  SER795  GLU796  ALA797  LYS798  CYS799  TRP800  GLU811  SER814 

> <Gold.Protein.RotatedAtoms>
  152.4964  133.8644  159.7266 H   0  0  0  0  0  0  0  0  0  0  0  0  # atno 6907 bound_to 6896
  150.9147  133.6945  159.2853 H   0  0  0  0  0  0  0  0  0  0  0  0  # atno 6908 bound_to 6896
  151.4342  135.1017  159.9703 H   0  0  0  0  0  0  0  0  0  0  0  0  # atno 6909 bound_to 6896
  146.2170  140.2983  142.8373 H   0  0  0  0  0  0  0  0  0  0  0  0  # atno 7974 bound_to 7965
  155.4663  140.0549  157.2985 H   0  0  0  0  0  0  0  0  0  0  0  0  # atno 8008 bound_to 7997
  154.4716  140.2043  155.9934 H   0  0  0  0  0  0  0  0  0  0  0  0  # atno 8009 bound_to 7997
  156.1066  140.3211  155.8019 H   0  0  0  0  0  0  0  0  0  0  0  0  # atno 8010 bound_to 7997
  139.5450  144.2259  152.0971 H   0  0  0  0  0  0  0  0  0  0  0  0  # atno 10167 bound_to 10162
  157.5258  130.8596  149.8620 H   0  0  0  0  0  0  0  0  0  0  0  0  # atno 10718 bound_to 10713
  154.4767  135.2773  155.1602 H   0  0  0  0  0  0  0  0  0  0  0  0  # atno 10763 bound_to 10752
  154.3328  135.6186  153.5563 H   0  0  0  0  0  0  0  0  0  0  0  0  # atno 10764 bound_to 10752
  152.9870  135.5770  154.5159 H   0  0  0  0  0  0  0  0  0  0  0  0  # atno 10765 bound_to 10752
  140.3340  134.2406  155.7698 H   0  0  0  0  0  0  0  0  0  0  0  0  # atno 11005 bound_to 11000
  144.9076  140.7718  143.5828 LP  0  0  0  0  0  0  0  0  0  0  0  0  # atno 17320 bound_to 7965
  145.2912  139.1883  143.4739 LP  0  0  0  0  0  0  0  0  0  0  0  0  # atno 17321 bound_to 7965
  140.1744  144.4905  150.6562 LP  0  0  0  0  0  0  0  0  0  0  0  0  # atno 17342 bound_to 10162
  140.6695  143.2280  151.5660 LP  0  0  0  0  0  0  0  0  0  0  0  0  # atno 17343 bound_to 10162
  156.0386  130.3745  150.1495 LP  0  0  0  0  0  0  0  0  0  0  0  0  # atno 17370 bound_to 10713
  156.9681  130.9826  151.3465 LP  0  0  0  0  0  0  0  0  0  0  0  0  # atno 17371 bound_to 10713
  141.2056  133.7856  157.0224 LP  0  0  0  0  0  0  0  0  0  0  0  0  # atno 17394 bound_to 11000
  140.0836  134.9633  157.1665 LP  0  0  0  0  0  0  0  0  0  0  0  0  # atno 17395 bound_to 11000

$$$$
