AV-unprocessed.smi:861|AV-procd|sdf|3974|dock1
  -GOLD-   22720 1453D 1   1.00000     0.00000
 Structure written by MMmdl.
 45 46  0  0  0  0  0  0  0  0  3 V2000
  143.8097  132.6752  149.2221 C   0  0  0  0  0  0  0  0  0  0  0  0
  144.4007  133.4527  150.4106 C   0  0  0  0  0  0  0  0  0  0  0  0
  145.6824  132.7669  150.9093 C   0  0  0  0  0  0  0  0  0  0  0  0
  143.3924  133.6300  151.5649 C   0  0  0  0  0  0  0  0  0  0  0  0
  143.8653  134.5929  152.6719 C   0  0  0  0  0  0  0  0  0  0  0  0
  142.8298  134.7954  153.7208 N   0  3  1  0  0  0  0  0  0  0  0  0
  143.3471  135.3188  155.0111 C   0  0  0  0  0  0  0  0  0  0  0  0
  143.6104  136.8348  154.9406 C   0  0  0  0  0  0  0  0  0  0  0  0
  142.4304  137.5079  154.5185 O   0  0  0  0  0  0  0  0  0  0  0  0
  142.0053  137.1052  153.2200 C   0  0  2  0  0  0  0  0  0  0  0  0
  140.7792  137.9470  152.8360 C   0  0  0  0  0  0  0  0  0  0  0  0
  141.0934  139.3672  152.7874 N   0  0  0  0  0  0  0  0  0  0  0  0
  140.1130  140.3253  153.0782 C   0  0  0  0  0  0  0  0  0  0  0  0
  138.7797  140.0134  153.4318 C   0  0  0  0  0  0  0  0  0  0  0  0
  137.8958  141.0729  153.6982 C   0  0  0  0  0  0  0  0  0  0  0  0
  138.3984  142.3822  153.5964 C   0  0  0  0  0  0  0  0  0  0  0  0
  139.6769  142.6597  153.2571 N   0  0  0  0  0  0  0  0  0  0  0  0
  140.4979  141.6244  153.0074 N   0  3  0  0  0  0  0  0  0  0  0  0
  141.6677  135.5996  153.2664 C   0  0  0  0  0  0  0  0  0  0  0  0
  143.4648  131.6867  149.5269 H   0  0  0  0  0  0  0  0  0  0  0  0
  144.5545  132.5370  148.4377 H   0  0  0  0  0  0  0  0  0  0  0  0
  142.9681  133.2001  148.7713 H   0  0  0  0  0  0  0  0  0  0  0  0
  144.6855  134.4438  150.0547 H   0  0  0  0  0  0  0  0  0  0  0  0
  145.4761  131.7627  151.2814 H   0  0  0  0  0  0  0  0  0  0  0  0
  146.1453  133.3332  151.7180 H   0  0  0  0  0  0  0  0  0  0  0  0
  146.4192  132.6800  150.1102 H   0  0  0  0  0  0  0  0  0  0  0  0
  142.4363  133.9716  151.1654 H   0  0  0  0  0  0  0  0  0  0  0  0
  143.2016  132.6495  151.9999 H   0  0  0  0  0  0  0  0  0  0  0  0
  144.7984  134.2429  153.1134 H   0  0  0  0  0  0  0  0  0  0  0  0
  144.0870  135.5570  152.2151 H   0  0  0  0  0  0  0  0  0  0  0  0
  142.5979  135.1240  155.7797 H   0  0  0  0  0  0  0  0  0  0  0  0
  144.2455  134.7891  155.3252 H   0  0  0  0  0  0  0  0  0  0  0  0
  143.8929  137.2088  155.9247 H   0  0  0  0  0  0  0  0  0  0  0  0
  144.4378  137.0669  154.2692 H   0  0  0  0  0  0  0  0  0  0  0  0
  142.8022  137.2843  152.4956 H   0  0  0  0  0  0  0  0  0  0  0  0
  140.4244  137.6404  151.8513 H   0  0  0  0  0  0  0  0  0  0  0  0
  139.9668  137.7721  153.5426 H   0  0  0  0  0  0  0  0  0  0  0  0
  142.0575  139.6501  152.6818 H   0  0  0  0  0  0  0  0  0  0  0  0
  138.4291  138.9943  153.4996 H   0  0  0  0  0  0  0  0  0  0  0  0
  136.8669  140.8902  153.9711 H   0  0  0  0  0  0  0  0  0  0  0  0
  137.7589  143.2306  153.7916 H   0  0  0  0  0  0  0  0  0  0  0  0
  141.3168  135.2474  152.2957 H   0  0  0  0  0  0  0  0  0  0  0  0
  140.8454  135.4329  153.9639 H   0  0  0  0  0  0  0  0  0  0  0  0
  142.4660  133.8717  153.9094 H   0  0  0  0  0  0  0  0  0  0  0  0
  141.4642  141.8277  152.7506 H   0  0  0  0  0  0  0  0  0  0  0  0
  1  2  1  0  0  0  0
  1 20  1  0  0  0  0
  1 21  1  0  0  0  0
  1 22  1  0  0  0  0
  2  3  1  0  0  0  0
  2  4  1  0  0  0  0
  2 23  1  0  0  0  0
  3 24  1  0  0  0  0
  3 25  1  0  0  0  0
  3 26  1  0  0  0  0
  4  5  1  0  0  0  0
  4 27  1  0  0  0  0
  4 28  1  0  0  0  0
  5  6  1  0  0  0  0
  5 29  1  0  0  0  0
  5 30  1  0  0  0  0
  6 19  1  0  0  0  0
  6  7  1  0  0  0  0
  6 44  1  0  0  0  0
  7  8  1  0  0  0  0
  7 31  1  0  0  0  0
  7 32  1  0  0  0  0
  8  9  1  0  0  0  0
  8 33  1  0  0  0  0
  8 34  1  0  0  0  0
  9 10  1  0  0  0  0
 10 11  1  0  0  0  0
 10 19  1  0  0  0  0
 10 35  1  0  0  0  0
 11 12  1  0  0  0  0
 11 36  1  0  0  0  0
 11 37  1  0  0  0  0
 12 13  1  0  0  0  0
 12 38  1  0  0  0  0
 13 18  1  0  0  0  0
 13 14  2  0  0  0  0
 14 15  1  0  0  0  0
 14 39  1  0  0  0  0
 15 16  2  0  0  0  0
 15 40  1  0  0  0  0
 16 17  1  0  0  0  0
 16 41  1  0  0  0  0
 17 18  2  0  0  0  0
 18 45  1  0  0  0  0
 19 42  1  0  0  0  0
 19 43  1  0  0  0  0
M  CHG  1   6   1
M  CHG  1  18   1
M  END
> <s_m_source_file>
AV-unprocessed.smi

> <i_m_source_file_index>
861

> <i_lp_mmshare_version>
43012

> <i_f3d_flags>
0

> <s_epik_input>
W0NIM11bQ0hdKFtDSDNdKVtDSDJdW0NIMl1OMVtDSDJdW0NIMl1PW0NASF0oW0NIMl0xKVtDSDJdW05IXWMyW2NIXVtjSF1bY0hdbm4y

> <s_epik_cmdline>
J2VwaWtfcHl0aG9uJywgJy1waCcsICc3LjAnLCAnLXRuJywgJzgnLCAnLW1hJywgJzIwMCcsICctbWV0YWxfYmluZGluZycsICctaW1hZScsICc8aW5maWxlLm1hZT4nLCAnLW9tYWUnLCAnPG91dGZpbGUubWFlPic=

> <r_lp_tautomer_probability>
0.966961

> <r_epik_Ionization_Penalty>
2.478

> <r_epik_Ionization_Penalty_Charging>
2.47799

> <r_epik_Ionization_Penalty_Neutral>
3.15286e-06

> <r_epik_State_Penalty>
2.10794

> <r_epik_Charging_Adjusted_Penalty>
4.58594

> <i_epik_Tot_Q>
2

> <i_epik_Tot_abs_Q>
2

> <r_epik_Metal_State_Penalty>
2.11378

> <b_epik_Metal_Only>
0

> <s_lp_Force_Field>
OPLS_2005

> <r_lp_Energy>
35.7333

> <b_lp_Chiralities_Consistent>
1

> <s_lp_Variant>
AV-unprocessed.smi:861-9

> <Gold.Version>
5.8.1

> <Gold.Id.Protein>
6NUR|6NUR_protein|mol2

> <Gold.PLP.Fitness>
53.0819

> <Gold.PLP.PLP>
-32.6757

> <Gold.PLP.part.hbond>
-6.3678

> <Gold.PLP.part.metal>
0.0000

> <Gold.PLP.part.buried>
-2.6099

> <Gold.PLP.part.nonpolar>
-23.6486

> <Gold.PLP.part.repulsive>
0.3010

> <Gold.PLP.ligand.clash>
0.0000

> <Gold.PLP.ligand.torsion>
0.3412

> <Gold.PLP.Chemscore.Hbond>
6.9920

> <Gold.PLP.Chemscore.CHOScore>
0.0000

> <Gold.PLP.Chemscore.Metal>
0.0000

> <Gold.Chemscore.Hbonds>
donor molecule, donor type, donor heavy atom, donor atom, acceptor molecule, acceptor atom, score
      L1  H     6    44       P1 10957  0.75
      L1  H    12    38       P1 10175  2.00
      L1  H    18    45       P1 10174  1.53
      P1  H 10162 10167       L1    17  0.49

> <Gold.PLP.Chemscore.Internal.Correction>
0.1126

> <Gold.Rescore>
     Score         DG    S(hbond)    S(metal)    S(lipo)     H(rot)  DE(clash)    DE(int)     intcor
     16.33     -16.60       2.39        0.00      65.59       1.78       0.01       0.26       ----

> <Gold.Chemscore.Fitness>
16.3321

> <Gold.Chemscore.DG>
-16.6037

> <Gold.Chemscore.ZeroCoef>
-5.4800

> <Gold.Chemscore.Hbond>
2.3940

> <Gold.Chemscore.Metal>
0.0000

> <Gold.Chemscore.Lipo>
65.5894

> <Gold.Chemscore.Internal_Hbond>
0.0000

> <Gold.Chemscore.DEClash>
0.0106

> <Gold.Chemscore.DEInternal>
0.2610

> <Gold.Chemscore.Rot>
1.7759

> <Gold.Chemscore.Internal.Correction>
   9.000000E+99

> <Gold.Chemscore.Hbonds>
donor molecule, donor type, donor heavy atom, donor atom, acceptor molecule, acceptor atom, score
      L1  H     6    44       P1 10957  0.36
      L1  H    12    38       P1 10175  0.45
      L1  H    18    45       P1 10174  0.26
      P1  H 10162 10167       L1    17  0.30

> <Gold.Chemscore.Hbond.Weighted>
-7.9959

> <Gold.Chemscore.Metal.Weighted>
-0.0000

> <Gold.Chemscore.Lipo.Weighted>
-7.6740

> <Gold.Chemscore.Internal_Hbond.Weighted>
0.0000

> <Gold.Chemscore.DEClash.Weighted>
0.0106

> <Gold.Chemscore.DEInternal.Weighted>
0.2610

> <Gold.Chemscore.Rot.Weighted>
4.5462

> <Gold.Chemscore.Internal.Correction.Weighted>
   9.000000E+99

> <Gold.Protein.RotatedTorsions>
[ 6907 6896 6895 6894 ] final  -37.70 input  -60.11 | X-H torsion
[ 7974 7965 7964 7962 ] final  116.88 input  175.53 | X-H torsion
[ 8008 7997 7996 7995 ] final   64.56 input   59.86 | X-H torsion
[ 10167 10162 10161 10158 ] final -132.03 input  -65.29 | X-H torsion
[ 10718 10713 10712 10709 ] final   21.18 input   66.30 | X-H torsion
[ 10763 10752 10751 10750 ] final -157.58 input  -60.55 | X-H torsion
[ 11005 11000 10999 10996 ] final  163.05 input  -57.11 | X-H torsion

> <Gold.Protein.ActiveResidues>
 VAL166  LYS551  ARG553  GLY616  TRP617  ASP618  TYR619  PRO620  LYS621  CYS622 
 ASP623  PHE694  ASN695  SER759  ASP760  ASP761  ALA762  ILE779  LEU786  VAL792 
 PHE793  MET794  SER795  GLU796  ALA797  LYS798  CYS799  TRP800  GLU811  SER814 

> <Gold.Protein.RotatedAtoms>
  151.0115  134.9400  159.8009 H   0  0  0  0  0  0  0  0  0  0  0  0  # atno 6907 bound_to 6896
  152.5303  134.3022  159.9092 H   0  0  0  0  0  0  0  0  0  0  0  0  # atno 6908 bound_to 6896
  151.3028  133.4073  159.2675 H   0  0  0  0  0  0  0  0  0  0  0  0  # atno 6909 bound_to 6896
  145.1742  139.3085  143.4452 H   0  0  0  0  0  0  0  0  0  0  0  0  # atno 7974 bound_to 7965
  155.6479  140.3497  155.4738 H   0  0  0  0  0  0  0  0  0  0  0  0  # atno 8008 bound_to 7997
  155.9872  140.1186  157.0695 H   0  0  0  0  0  0  0  0  0  0  0  0  # atno 8009 bound_to 7997
  154.4208  140.1126  156.5502 H   0  0  0  0  0  0  0  0  0  0  0  0  # atno 8010 bound_to 7997
  139.9128  143.6474  152.2571 H   0  0  0  0  0  0  0  0  0  0  0  0  # atno 10167 bound_to 10162
  157.1348  130.6607  149.5963 H   0  0  0  0  0  0  0  0  0  0  0  0  # atno 10718 bound_to 10713
  154.7625  135.3121  154.8351 H   0  0  0  0  0  0  0  0  0  0  0  0  # atno 10763 bound_to 10752
  153.9108  135.6806  153.4755 H   0  0  0  0  0  0  0  0  0  0  0  0  # atno 10764 bound_to 10752
  153.1227  135.4815  154.9153 H   0  0  0  0  0  0  0  0  0  0  0  0  # atno 10765 bound_to 10752
  140.2319  134.8117  157.3325 H   0  0  0  0  0  0  0  0  0  0  0  0  # atno 11005 bound_to 11000
  146.3464  140.1898  142.8589 LP  0  0  0  0  0  0  0  0  0  0  0  0  # atno 17320 bound_to 7965
  145.0202  140.8787  143.5171 LP  0  0  0  0  0  0  0  0  0  0  0  0  # atno 17321 bound_to 7965
  139.6928  144.7645  151.1409 LP  0  0  0  0  0  0  0  0  0  0  0  0  # atno 17342 bound_to 10162
  140.7681  143.5566  150.9145 LP  0  0  0  0  0  0  0  0  0  0  0  0  # atno 17343 bound_to 10162
  155.9800  130.4798  150.6750 LP  0  0  0  0  0  0  0  0  0  0  0  0  # atno 17370 bound_to 10713
  157.4360  131.0855  151.0991 LP  0  0  0  0  0  0  0  0  0  0  0  0  # atno 17371 bound_to 10713
  140.1742  134.4571  155.7812 LP  0  0  0  0  0  0  0  0  0  0  0  0  # atno 17394 bound_to 11000
  141.2217  133.6955  156.7758 LP  0  0  0  0  0  0  0  0  0  0  0  0  # atno 17395 bound_to 11000

$$$$
