AV-unprocessed.smi:1388|AV-procd|sdf|5644|dock4
  -GOLD-   22720 5263D 1   1.00000     0.00000
 Structure written by MMmdl.
 45 46  0  0  0  0  0  0  0  0  3 V2000
  144.2625  136.6532  152.3006 C   0  0  0  0  0  0  0  0  0  0  0  0
  143.9970  137.2687  153.5958 N   0  5  0  0  0  0  0  0  0  0  0  0
  144.9323  137.9614  154.3036 C   0  0  0  0  0  0  0  0  0  0  0  0
  144.9433  138.3229  155.4844 O   0  0  0  0  0  0  0  0  0  0  0  0
  146.1383  138.3203  153.4252 C   0  0  0  0  0  0  0  0  0  0  0  0
  147.0785  139.2158  154.1478 N   0  3  2  0  0  0  0  0  0  0  0  0
  146.5131  140.5698  154.3722 C   0  0  0  0  0  0  0  0  0  0  0  0
  147.4409  141.4197  155.2565 C   0  0  0  0  0  0  0  0  0  0  0  0
  148.8562  141.5089  154.6571 C   0  0  1  0  0  0  0  0  0  0  0  0
  149.7556  142.2290  155.5537 N   0  0  0  0  0  0  0  0  0  0  0  0
  150.3441  141.7066  156.6396 C   0  0  0  0  0  0  0  0  0  0  0  0
  150.1899  140.5385  156.9976 O   0  0  0  0  0  0  0  0  0  0  0  0
  151.1137  142.6178  157.2610 N   0  0  0  0  0  0  0  0  0  0  0  0
  151.8724  142.4680  158.4563 C   0  0  0  0  0  0  0  0  0  0  0  0
  152.3601  141.2704  158.8674 N   0  0  0  0  0  0  0  0  0  0  0  0
  153.0639  141.1970  160.0154 C   0  0  0  0  0  0  0  0  0  0  0  0
  153.3261  142.3135  160.8275 C   0  0  0  0  0  0  0  0  0  0  0  0
  152.8292  143.5620  160.4160 C   0  0  0  0  0  0  0  0  0  0  0  0
  152.0916  143.6484  159.2160 C   0  0  0  0  0  0  0  0  0  0  0  0
  151.5539  144.9985  158.7692 C   0  0  0  0  0  0  0  0  0  0  0  0
  149.3975  140.0934  154.4017 C   0  0  0  0  0  0  0  0  0  0  0  0
  148.4292  139.2798  153.5282 C   0  0  0  0  0  0  0  0  0  0  0  0
  143.3703  136.1855  151.8848 H   0  0  0  0  0  0  0  0  0  0  0  0
  145.0200  135.8714  152.3622 H   0  0  0  0  0  0  0  0  0  0  0  0
  144.6090  137.3729  151.5586 H   0  0  0  0  0  0  0  0  0  0  0  0
  146.6555  137.4192  153.0915 H   0  0  0  0  0  0  0  0  0  0  0  0
  145.7599  138.8133  152.5280 H   0  0  0  0  0  0  0  0  0  0  0  0
  146.3517  141.0614  153.4115 H   0  0  0  0  0  0  0  0  0  0  0  0
  145.5383  140.4860  154.8545 H   0  0  0  0  0  0  0  0  0  0  0  0
  147.0182  142.4179  155.3760 H   0  0  0  0  0  0  0  0  0  0  0  0
  147.4875  140.9821  156.2550 H   0  0  0  0  0  0  0  0  0  0  0  0
  148.8064  142.0327  153.7003 H   0  0  0  0  0  0  0  0  0  0  0  0
  149.9394  143.1968  155.3325 H   0  0  0  0  0  0  0  0  0  0  0  0
  151.1599  143.5304  156.8330 H   0  0  0  0  0  0  0  0  0  0  0  0
  153.4271  140.2190  160.2946 H   0  0  0  0  0  0  0  0  0  0  0  0
  153.8931  142.2141  161.7414 H   0  0  0  0  0  0  0  0  0  0  0  0
  153.0132  144.4404  161.0172 H   0  0  0  0  0  0  0  0  0  0  0  0
  151.8505  145.7909  159.4569 H   0  0  0  0  0  0  0  0  0  0  0  0
  150.4644  144.9802  158.7273 H   0  0  0  0  0  0  0  0  0  0  0  0
  151.9353  145.2541  157.7801 H   0  0  0  0  0  0  0  0  0  0  0  0
  150.3734  140.1464  153.9173 H   0  0  0  0  0  0  0  0  0  0  0  0
  149.5495  139.5749  155.3497 H   0  0  0  0  0  0  0  0  0  0  0  0
  148.8327  138.2758  153.3940 H   0  0  0  0  0  0  0  0  0  0  0  0
  148.3545  139.7243  152.5345 H   0  0  0  0  0  0  0  0  0  0  0  0
  147.1917  138.7962  155.0606 H   0  0  0  0  0  0  0  0  0  0  0  0
  1  2  1  0  0  0  0
  1 23  1  0  0  0  0
  1 24  1  0  0  0  0
  1 25  1  0  0  0  0
  2  3  1  0  0  0  0
  3  4  2  0  0  0  0
  3  5  1  0  0  0  0
  5  6  1  0  0  0  0
  5 26  1  0  0  0  0
  5 27  1  0  0  0  0
  6 22  1  0  0  0  0
  6  7  1  0  0  0  0
  6 45  1  0  0  0  0
  7  8  1  0  0  0  0
  7 28  1  0  0  0  0
  7 29  1  0  0  0  0
  8  9  1  0  0  0  0
  8 30  1  0  0  0  0
  8 31  1  0  0  0  0
  9 10  1  0  0  0  0
  9 21  1  0  0  0  0
  9 32  1  0  0  0  0
 10 11  1  0  0  0  0
 10 33  1  0  0  0  0
 11 12  2  0  0  0  0
 11 13  1  0  0  0  0
 13 14  1  0  0  0  0
 13 34  1  0  0  0  0
 14 19  1  0  0  0  0
 14 15  2  0  0  0  0
 15 16  1  0  0  0  0
 16 17  2  0  0  0  0
 16 35  1  0  0  0  0
 17 18  1  0  0  0  0
 17 36  1  0  0  0  0
 18 19  2  0  0  0  0
 18 37  1  0  0  0  0
 19 20  1  0  0  0  0
 20 38  1  0  0  0  0
 20 39  1  0  0  0  0
 20 40  1  0  0  0  0
 21 22  1  0  0  0  0
 21 41  1  0  0  0  0
 21 42  1  0  0  0  0
 22 43  1  0  0  0  0
 22 44  1  0  0  0  0
M  CHG  1   2  -1
M  CHG  1   6   1
M  END
> <s_m_source_file>
AV-unprocessed.smi

> <i_m_source_file_index>
1388

> <i_lp_mmshare_version>
43012

> <i_f3d_flags>
0

> <s_epik_input>
W0NIM11bTkhdQyg9TylbQ0gyXU4xW0NIMl1bQ0gyXVtDSF0oW0NIMl1bQ0gyXTEpW05IXUMoPU8pW05IXWMybltjSF1bY0hdW2NIXWMyW0NIM10=

> <s_epik_cmdline>
J2VwaWtfcHl0aG9uJywgJy1waCcsICc3LjAnLCAnLXRuJywgJzgnLCAnLW1hJywgJzIwMCcsICctbWV0YWxfYmluZGluZycsICctaW1hZScsICc8aW5maWxlLm1hZT4nLCAnLW9tYWUnLCAnPG91dGZpbGUubWFlPic=

> <r_epik_Ionization_Penalty>
6.13951

> <r_epik_Ionization_Penalty_Charging>
6.13946

> <r_epik_Ionization_Penalty_Neutral>
4.54304e-05

> <r_epik_State_Penalty>
6.9595

> <r_epik_Charging_Adjusted_Penalty>
13.099

> <i_epik_Tot_Q>
0

> <i_epik_Tot_abs_Q>
2

> <r_epik_Metal_State_Penalty>
2.89141

> <b_epik_Metal_Only>
1

> <s_lp_Force_Field>
OPLS_2005

> <r_lp_Energy>
12.447

> <b_lp_Chiralities_Consistent>
1

> <s_lp_Variant>
AV-unprocessed.smi:1388-4

> <Gold.Version>
5.8.1

> <Gold.Id.Protein>
6NUR|6NUR_protein|mol2

> <Gold.PLP.Fitness>
38.0157

> <Gold.PLP.PLP>
-37.0509

> <Gold.PLP.part.hbond>
-1.0000

> <Gold.PLP.part.metal>
0.0000

> <Gold.PLP.part.buried>
-3.2023

> <Gold.PLP.part.nonpolar>
-33.6956

> <Gold.PLP.part.repulsive>
0.3914

> <Gold.PLP.ligand.clash>
0.0010

> <Gold.PLP.ligand.torsion>
0.6027

> <Gold.PLP.Chemscore.Hbond>
0.7040

> <Gold.PLP.Chemscore.CHOScore>
0.0000

> <Gold.PLP.Chemscore.Metal>
0.0000

> <Gold.Chemscore.Hbonds>
donor molecule, donor type, donor heavy atom, donor atom, acceptor molecule, acceptor atom, score
      L1  H    10    33       P1  8028  0.61

> <Gold.PLP.Chemscore.Internal.Correction>
0.0592

> <Gold.Rescore>
     Score         DG    S(hbond)    S(metal)    S(lipo)     H(rot)  DE(clash)    DE(int)     intcor
     13.50     -17.20       1.62        0.00      89.50       1.63       0.33       3.37       ----

> <Gold.Chemscore.Fitness>
13.4961

> <Gold.Chemscore.DG>
-17.1986

> <Gold.Chemscore.ZeroCoef>
-5.4800

> <Gold.Chemscore.Hbond>
1.6229

> <Gold.Chemscore.Metal>
0.0000

> <Gold.Chemscore.Lipo>
89.4997

> <Gold.Chemscore.Internal_Hbond>
0.0000

> <Gold.Chemscore.DEClash>
0.3303

> <Gold.Chemscore.DEInternal>
3.3722

> <Gold.Chemscore.Rot>
1.6303

> <Gold.Chemscore.Internal.Correction>
   9.000000E+99

> <Gold.Chemscore.Hbonds>
donor molecule, donor type, donor heavy atom, donor atom, acceptor molecule, acceptor atom, score
      L1  H    10    33       P1  8028  0.60

> <Gold.Chemscore.Hbond.Weighted>
-5.4206

> <Gold.Chemscore.Metal.Weighted>
-0.0000

> <Gold.Chemscore.Lipo.Weighted>
-10.4715

> <Gold.Chemscore.Internal_Hbond.Weighted>
0.0000

> <Gold.Chemscore.DEClash.Weighted>
0.3303

> <Gold.Chemscore.DEInternal.Weighted>
3.3722

> <Gold.Chemscore.Rot.Weighted>
4.1735

> <Gold.Chemscore.Internal.Correction.Weighted>
   9.000000E+99

> <Gold.Protein.RotatedTorsions>
[ 6907 6896 6895 6894 ] final   68.84 input  -60.11 | X-H torsion
[ 7974 7965 7964 7962 ] final  166.59 input  175.53 | X-H torsion
[ 8008 7997 7996 7995 ] final  115.29 input   59.86 | X-H torsion
[ 10167 10162 10161 10158 ] final -104.69 input  -65.29 | X-H torsion
[ 10718 10713 10712 10709 ] final  169.47 input   66.30 | X-H torsion
[ 10763 10752 10751 10750 ] final  -56.01 input  -60.55 | X-H torsion
[ 11005 11000 10999 10996 ] final  159.24 input  -57.11 | X-H torsion

> <Gold.Protein.ActiveResidues>
 VAL166  LYS551  ARG553  GLY616  TRP617  ASP618  TYR619  PRO620  LYS621  CYS622 
 ASP623  PHE694  ASN695  SER759  ASP760  ASP761  ALA762  ILE779  LEU786  VAL792 
 PHE793  MET794  SER795  GLU796  ALA797  LYS798  CYS799  TRP800  GLU811  SER814 

> <Gold.Protein.RotatedAtoms>
  152.4647  134.5102  159.9751 H   0  0  0  0  0  0  0  0  0  0  0  0  # atno 6907 bound_to 6896
  151.5143  133.3473  159.2898 H   0  0  0  0  0  0  0  0  0  0  0  0  # atno 6908 bound_to 6896
  150.8626  134.8011  159.7156 H   0  0  0  0  0  0  0  0  0  0  0  0  # atno 6909 bound_to 6896
  144.7456  139.8637  143.6383 H   0  0  0  0  0  0  0  0  0  0  0  0  # atno 7974 bound_to 7965
  156.2373  140.2941  156.0346 H   0  0  0  0  0  0  0  0  0  0  0  0  # atno 8008 bound_to 7997
  155.2055  140.0411  157.2942 H   0  0  0  0  0  0  0  0  0  0  0  0  # atno 8009 bound_to 7997
  154.6102  140.2449  155.7686 H   0  0  0  0  0  0  0  0  0  0  0  0  # atno 8010 bound_to 7997
  140.2066  143.3778  152.1085 H   0  0  0  0  0  0  0  0  0  0  0  0  # atno 10167 bound_to 10162
  157.0221  131.0235  151.2771 H   0  0  0  0  0  0  0  0  0  0  0  0  # atno 10718 bound_to 10713
  154.1998  135.6413  153.5084 H   0  0  0  0  0  0  0  0  0  0  0  0  # atno 10763 bound_to 10752
  153.0014  135.5448  154.6327 H   0  0  0  0  0  0  0  0  0  0  0  0  # atno 10764 bound_to 10752
  154.5737  135.2919  155.0775 H   0  0  0  0  0  0  0  0  0  0  0  0  # atno 10765 bound_to 10752
  140.1943  134.8385  157.2947 H   0  0  0  0  0  0  0  0  0  0  0  0  # atno 11005 bound_to 11000
  146.1330  139.4369  143.0157 LP  0  0  0  0  0  0  0  0  0  0  0  0  # atno 17320 bound_to 7965
  145.7135  141.0098  143.1441 LP  0  0  0  0  0  0  0  0  0  0  0  0  # atno 17321 bound_to 7965
  139.5196  144.7022  151.5461 LP  0  0  0  0  0  0  0  0  0  0  0  0  # atno 17342 bound_to 10162
  140.6353  143.8996  150.6642 LP  0  0  0  0  0  0  0  0  0  0  0  0  # atno 17343 bound_to 10162
  157.5242  130.8017  149.7843 LP  0  0  0  0  0  0  0  0  0  0  0  0  # atno 17370 bound_to 10713
  156.0098  130.3838  150.2302 LP  0  0  0  0  0  0  0  0  0  0  0  0  # atno 17371 bound_to 10713
  140.2125  134.4121  155.7605 LP  0  0  0  0  0  0  0  0  0  0  0  0  # atno 17394 bound_to 11000
  141.2227  133.7125  156.8361 LP  0  0  0  0  0  0  0  0  0  0  0  0  # atno 17395 bound_to 11000

$$$$
