AV-unprocessed.smi:1801|AV-procd|sdf|7268|dock4
  -GOLD-   22720 8523D 1   1.00000     0.00000
 Structure written by MMmdl.
 38 39  0  0  0  0  0  0  0  0  2 V2000
  145.5288  134.1272  153.2447 C   0  0  0  0  0  0  0  0  0  0  0  0
  145.0531  135.1951  152.2446 C   0  0  1  0  0  0  0  0  0  0  0  0
  145.0668  136.6069  152.8767 C   0  0  0  0  0  0  0  0  0  0  0  0
  146.4111  137.1692  152.9538 N   0  0  0  0  0  0  0  0  0  0  0  0
  146.7331  138.2848  153.6245 C   0  0  0  0  0  0  0  0  0  0  0  0
  145.9116  138.9582  154.2475 O   0  0  0  0  0  0  0  0  0  0  0  0
  148.0450  138.5529  153.5249 N   0  0  0  0  0  0  0  0  0  0  0  0
  148.7609  139.6300  154.1052 C   0  0  0  0  0  0  0  0  0  0  0  0
  150.0888  139.5117  154.2208 N   0  0  0  0  0  0  0  0  0  0  0  0
  150.6625  140.6342  154.8055 N   0  0  0  0  0  0  0  0  0  0  0  0
  149.7434  141.5558  155.1087 C   0  0  0  0  0  0  0  0  0  0  0  0
  148.0845  141.1451  154.7106 S   0  0  0  0  0  0  0  0  0  0  0  0
  145.9029  135.1401  150.9571 C   0  0  0  0  0  0  0  0  0  0  0  0
  145.7329  133.8681  150.2135 N   0  3  0  0  0  0  0  0  0  0  0  0
  146.5825  132.7634  150.6988 C   0  0  0  0  0  0  0  0  0  0  0  0
  145.9026  131.4979  150.1878 C   0  0  0  0  0  0  0  0  0  0  0  0
  144.4187  131.8326  150.3118 C   0  0  0  0  0  0  0  0  0  0  0  0
  144.3435  133.3555  150.1325 C   0  0  0  0  0  0  0  0  0  0  0  0
  146.5556  134.3114  153.5626 H   0  0  0  0  0  0  0  0  0  0  0  0
  145.4918  133.1314  152.8023 H   0  0  0  0  0  0  0  0  0  0  0  0
  144.9032  134.1052  154.1373 H   0  0  0  0  0  0  0  0  0  0  0  0
  144.0255  134.9427  151.9811 H   0  0  0  0  0  0  0  0  0  0  0  0
  144.4447  137.2850  152.2918 H   0  0  0  0  0  0  0  0  0  0  0  0
  144.6358  136.5907  153.8789 H   0  0  0  0  0  0  0  0  0  0  0  0
  147.1441  136.6742  152.4663 H   0  0  0  0  0  0  0  0  0  0  0  0
  148.5984  137.9116  152.9757 H   0  0  0  0  0  0  0  0  0  0  0  0
  150.0448  142.4841  155.5710 H   0  0  0  0  0  0  0  0  0  0  0  0
  145.6244  135.9705  150.3065 H   0  0  0  0  0  0  0  0  0  0  0  0
  146.9603  135.2725  151.1922 H   0  0  0  0  0  0  0  0  0  0  0  0
  147.6103  132.8601  150.3476 H   0  0  0  0  0  0  0  0  0  0  0  0
  146.5951  132.7585  151.7903 H   0  0  0  0  0  0  0  0  0  0  0  0
  146.1610  131.3352  149.1404 H   0  0  0  0  0  0  0  0  0  0  0  0
  146.1861  130.6065  150.7484 H   0  0  0  0  0  0  0  0  0  0  0  0
  143.8076  131.2935  149.5874 H   0  0  0  0  0  0  0  0  0  0  0  0
  144.0649  131.5637  151.3081 H   0  0  0  0  0  0  0  0  0  0  0  0
  143.7028  133.7929  150.8997 H   0  0  0  0  0  0  0  0  0  0  0  0
  143.9248  133.6209  149.1611 H   0  0  0  0  0  0  0  0  0  0  0  0
  146.0232  134.0384  149.2611 H   0  0  0  0  0  0  0  0  0  0  0  0
  1  2  1  0  0  0  0
  1 19  1  0  0  0  0
  1 20  1  0  0  0  0
  1 21  1  0  0  0  0
  2  3  1  0  0  0  0
  2 13  1  0  0  0  0
  2 22  1  0  0  0  0
  3  4  1  0  0  0  0
  3 23  1  0  0  0  0
  3 24  1  0  0  0  0
  4  5  1  0  0  0  0
  4 25  1  0  0  0  0
  5  6  2  0  0  0  0
  5  7  1  0  0  0  0
  7  8  1  0  0  0  0
  7 26  1  0  0  0  0
  8 12  1  0  0  0  0
  8  9  2  0  0  0  0
  9 10  1  0  0  0  0
 10 11  2  0  0  0  0
 11 12  1  0  0  0  0
 11 27  1  0  0  0  0
 13 14  1  0  0  0  0
 13 28  1  0  0  0  0
 13 29  1  0  0  0  0
 14 18  1  0  0  0  0
 14 15  1  0  0  0  0
 14 38  1  0  0  0  0
 15 16  1  0  0  0  0
 15 30  1  0  0  0  0
 15 31  1  0  0  0  0
 16 17  1  0  0  0  0
 16 32  1  0  0  0  0
 16 33  1  0  0  0  0
 17 18  1  0  0  0  0
 17 34  1  0  0  0  0
 17 35  1  0  0  0  0
 18 36  1  0  0  0  0
 18 37  1  0  0  0  0
M  CHG  1  14   1
M  END
> <s_m_source_file>
AV-unprocessed.smi

> <i_m_source_file_index>
1801

> <i_lp_mmshare_version>
43012

> <i_f3d_flags>
0

> <s_epik_input>
W0NIMl0xW0NIMl1bQ0gyXVtDSDJdTjFbQ0gyXVtDQEhdKFtDSDNdKVtDSDJdW05IXUMoPU8pW05IXWMybm5bY0hdczI=

> <s_epik_cmdline>
J2VwaWtfcHl0aG9uJywgJy1waCcsICc3LjAnLCAnLXRuJywgJzgnLCAnLW1hJywgJzIwMCcsICctbWV0YWxfYmluZGluZycsICctaW1hZScsICc8aW5maWxlLm1hZT4nLCAnLW9tYWUnLCAnPG91dGZpbGUubWFlPic=

> <r_lp_tautomer_probability>
1

> <r_epik_Ionization_Penalty>
0.00281598

> <r_epik_Ionization_Penalty_Charging>
0.000371708

> <r_epik_Ionization_Penalty_Neutral>
0.00244427

> <r_epik_State_Penalty>
-0

> <r_epik_Charging_Adjusted_Penalty>
0.000371708

> <i_epik_Tot_Q>
1

> <i_epik_Tot_abs_Q>
1

> <r_epik_Metal_State_Penalty>
0.350595

> <b_epik_Metal_Only>
0

> <s_lp_Force_Field>
OPLS_2005

> <r_lp_Energy>
27.8609

> <b_lp_Chiralities_Consistent>
1

> <s_lp_Variant>
AV-unprocessed.smi:1801-2

> <Gold.Version>
5.8.1

> <Gold.Id.Protein>
6NUR|6NUR_protein|mol2

> <Gold.PLP.Fitness>
42.1714

> <Gold.PLP.PLP>
-29.0956

> <Gold.PLP.part.hbond>
-5.2263

> <Gold.PLP.part.metal>
0.0000

> <Gold.PLP.part.buried>
-2.3084

> <Gold.PLP.part.nonpolar>
-23.5561

> <Gold.PLP.part.repulsive>
1.6195

> <Gold.PLP.ligand.clash>
0.0000

> <Gold.PLP.ligand.torsion>
0.4831

> <Gold.PLP.Chemscore.Hbond>
3.7413

> <Gold.PLP.Chemscore.CHOScore>
0.8950

> <Gold.PLP.Chemscore.Metal>
0.0000

> <Gold.Chemscore.Hbonds>
donor molecule, donor type, donor heavy atom, donor atom, acceptor molecule, acceptor atom, score
      L1  H     4    25       P1  7948  1.00
      L1  H     7    26       P1  7948  1.00
      L1  H    14    38       P1  7921  0.85
      P1  H  7989  7998       L1    10  0.58
      L1  C    11    27       P1  8028  1.00

> <Gold.PLP.Chemscore.Internal.Correction>
0.1332

> <Gold.Rescore>
     Score         DG    S(hbond)    S(metal)    S(lipo)     H(rot)  DE(clash)    DE(int)     intcor
     17.41     -18.35       2.91        0.00      70.08       1.97       0.10       0.84       ----

> <Gold.Chemscore.Fitness>
17.4136

> <Gold.Chemscore.DG>
-18.3515

> <Gold.Chemscore.ZeroCoef>
-5.4800

> <Gold.Chemscore.Hbond>
2.9062

> <Gold.Chemscore.Metal>
0.0000

> <Gold.Chemscore.Lipo>
70.0813

> <Gold.Chemscore.Internal_Hbond>
0.0000

> <Gold.Chemscore.DEClash>
0.0961

> <Gold.Chemscore.DEInternal>
0.8418

> <Gold.Chemscore.Rot>
1.9667

> <Gold.Chemscore.Internal.Correction>
   9.000000E+99

> <Gold.Chemscore.Hbonds>
donor molecule, donor type, donor heavy atom, donor atom, acceptor molecule, acceptor atom, score
      L1  H     4    25       P1  7948  0.98
      L1  H     7    26       P1  7948  0.92
      L1  H    14    38       P1  7921  0.15
      P1  H  7989  7998       L1    10  0.04

> <Gold.Chemscore.Hbond.Weighted>
-9.7068

> <Gold.Chemscore.Metal.Weighted>
-0.0000

> <Gold.Chemscore.Lipo.Weighted>
-8.1995

> <Gold.Chemscore.Internal_Hbond.Weighted>
0.0000

> <Gold.Chemscore.DEClash.Weighted>
0.0961

> <Gold.Chemscore.DEInternal.Weighted>
0.8418

> <Gold.Chemscore.Rot.Weighted>
5.0348

> <Gold.Chemscore.Internal.Correction.Weighted>
   9.000000E+99

> <Gold.Protein.RotatedTorsions>
[ 6907 6896 6895 6894 ] final   10.38 input  -60.11 | X-H torsion
[ 7974 7965 7964 7962 ] final  142.32 input  175.53 | X-H torsion
[ 8008 7997 7996 7995 ] final  -30.36 input   59.86 | X-H torsion
[ 10167 10162 10161 10158 ] final -161.46 input  -65.29 | X-H torsion
[ 10718 10713 10712 10709 ] final  -82.22 input   66.30 | X-H torsion
[ 10763 10752 10751 10750 ] final  112.29 input  -60.55 | X-H torsion
[ 11005 11000 10999 10996 ] final -149.09 input  -57.11 | X-H torsion

> <Gold.Protein.ActiveResidues>
 VAL166  LYS551  ARG553  GLY616  TRP617  ASP618  TYR619  PRO620  LYS621  CYS622 
 ASP623  PHE694  ASN695  SER759  ASP760  ASP761  ALA762  ILE779  LEU786  VAL792 
 PHE793  MET794  SER795  GLU796  ALA797  LYS798  CYS799  TRP800  GLU811  SER814 

> <Gold.Protein.RotatedAtoms>
  151.7374  135.0862  160.0309 H   0  0  0  0  0  0  0  0  0  0  0  0  # atno 6907 bound_to 6896
  152.3502  133.6166  159.5948 H   0  0  0  0  0  0  0  0  0  0  0  0  # atno 6908 bound_to 6896
  150.7535  133.9502  159.3525 H   0  0  0  0  0  0  0  0  0  0  0  0  # atno 6909 bound_to 6896
  144.9018  139.5413  143.5750 H   0  0  0  0  0  0  0  0  0  0  0  0  # atno 7974 bound_to 7965
  154.4253  140.1793  156.1395 H   0  0  0  0  0  0  0  0  0  0  0  0  # atno 8008 bound_to 7997
  156.0003  140.3360  155.6814 H   0  0  0  0  0  0  0  0  0  0  0  0  # atno 8009 bound_to 7997
  155.6252  140.0664  157.2657 H   0  0  0  0  0  0  0  0  0  0  0  0  # atno 8010 bound_to 7997
  139.6464  144.0165  152.2130 H   0  0  0  0  0  0  0  0  0  0  0  0  # atno 10167 bound_to 10162
  156.0036  130.4628  150.4072 H   0  0  0  0  0  0  0  0  0  0  0  0  # atno 10718 bound_to 10713
  153.4757  135.3691  155.2415 H   0  0  0  0  0  0  0  0  0  0  0  0  # atno 10763 bound_to 10752
  154.8756  135.3942  154.3760 H   0  0  0  0  0  0  0  0  0  0  0  0  # atno 10764 bound_to 10752
  153.4355  135.7083  153.6267 H   0  0  0  0  0  0  0  0  0  0  0  0  # atno 10765 bound_to 10752
  140.7544  134.3370  157.5118 H   0  0  0  0  0  0  0  0  0  0  0  0  # atno 11005 bound_to 11000
  146.3112  139.7754  142.9018 LP  0  0  0  0  0  0  0  0  0  0  0  0  # atno 17320 bound_to 7965
  145.3604  141.0324  143.3288 LP  0  0  0  0  0  0  0  0  0  0  0  0  # atno 17321 bound_to 7965
  139.9868  144.6390  150.7851 LP  0  0  0  0  0  0  0  0  0  0  0  0  # atno 17342 bound_to 10162
  140.7516  143.2976  151.3164 LP  0  0  0  0  0  0  0  0  0  0  0  0  # atno 17343 bound_to 10162
  157.2137  131.0466  151.2585 LP  0  0  0  0  0  0  0  0  0  0  0  0  # atno 17370 bound_to 10713
  157.3864  130.7259  149.6666 LP  0  0  0  0  0  0  0  0  0  0  0  0  # atno 17371 bound_to 10713
  139.8782  134.9162  156.3149 LP  0  0  0  0  0  0  0  0  0  0  0  0  # atno 17394 bound_to 11000
  140.9721  133.7320  156.0550 LP  0  0  0  0  0  0  0  0  0  0  0  0  # atno 17395 bound_to 11000

$$$$
