AV-unprocessed.smi:2469|AV-procd|sdf|9734|dock2
  -GOLD-   2272013373D 1   1.00000     0.00000
 Structure written by MMmdl.
 32 33  0  0  0  0  0  0  0  0  1 V2000
  145.0764  138.1841  151.3293 O   0  0  0  0  0  0  0  0  0  0  0  0
  146.4625  138.0383  151.5544 C   0  0  0  0  0  0  0  0  0  0  0  0
  147.0356  139.3113  152.1894 C   0  0  0  0  0  0  0  0  0  0  0  0
  148.2286  138.9809  152.8954 O   0  0  0  0  0  0  0  0  0  0  0  0
  148.7820  139.9262  153.7346 C   0  0  0  0  0  0  0  0  0  0  0  0
  150.0327  139.6549  154.3240 C   0  0  0  0  0  0  0  0  0  0  0  0
  150.6055  140.6163  155.1783 C   0  0  0  0  0  0  0  0  0  0  0  0
  149.9104  141.8246  155.4171 C   0  0  0  0  0  0  0  0  0  0  0  0
  150.3914  142.8464  156.2497 N   0  0  0  0  0  0  0  0  0  0  0  0
  151.3214  142.5764  157.3390 C   0  0  1  0  0  0  0  0  0  0  0  0
  151.7260  143.8136  158.1171 C   0  0  0  0  0  0  0  0  0  0  0  0
  152.2256  143.2055  159.4245 C   0  0  0  0  0  0  0  0  0  0  0  0
  151.4756  142.0074  159.6113 O   0  0  0  0  0  0  0  0  0  0  0  0
  150.7003  141.7314  158.4488 C   0  0  0  0  0  0  0  0  0  0  0  0
  148.6630  141.9967  154.7804 C   0  0  0  0  0  0  0  0  0  0  0  0
  148.1068  141.0801  153.9605 N   0  0  0  0  0  0  0  0  0  0  0  0
  144.7626  138.9100  151.8468 H   0  0  0  0  0  0  0  0  0  0  0  0
  146.6596  137.1621  152.1728 H   0  0  0  0  0  0  0  0  0  0  0  0
  146.9358  137.8643  150.5876 H   0  0  0  0  0  0  0  0  0  0  0  0
  147.2823  140.0166  151.3941 H   0  0  0  0  0  0  0  0  0  0  0  0
  146.2991  139.7882  152.8388 H   0  0  0  0  0  0  0  0  0  0  0  0
  150.5442  138.7249  154.1246 H   0  0  0  0  0  0  0  0  0  0  0  0
  151.5627  140.4110  155.6328 H   0  0  0  0  0  0  0  0  0  0  0  0
  150.2211  143.8090  155.9948 H   0  0  0  0  0  0  0  0  0  0  0  0
  152.2075  142.0620  156.9646 H   0  0  0  0  0  0  0  0  0  0  0  0
  152.4824  144.4177  157.6156 H   0  0  0  0  0  0  0  0  0  0  0  0
  150.8577  144.4458  158.3105 H   0  0  0  0  0  0  0  0  0  0  0  0
  153.2814  142.9438  159.3444 H   0  0  0  0  0  0  0  0  0  0  0  0
  152.1082  143.8849  160.2691 H   0  0  0  0  0  0  0  0  0  0  0  0
  149.6723  142.0407  158.6453 H   0  0  0  0  0  0  0  0  0  0  0  0
  150.6943  140.6669  158.2131 H   0  0  0  0  0  0  0  0  0  0  0  0
  148.0909  142.9007  154.9312 H   0  0  0  0  0  0  0  0  0  0  0  0
  1  2  1  0  0  0  0
  1 17  1  0  0  0  0
  2  3  1  0  0  0  0
  2 18  1  0  0  0  0
  2 19  1  0  0  0  0
  3  4  1  0  0  0  0
  3 20  1  0  0  0  0
  3 21  1  0  0  0  0
  4  5  1  0  0  0  0
  5 16  1  0  0  0  0
  5  6  2  0  0  0  0
  6  7  1  0  0  0  0
  6 22  1  0  0  0  0
  7  8  2  0  0  0  0
  7 23  1  0  0  0  0
  8  9  1  0  0  0  0
  8 15  1  0  0  0  0
  9 10  1  0  0  0  0
  9 24  1  0  0  0  0
 10 14  1  0  0  0  0
 10 11  1  0  0  0  0
 10 25  1  0  0  0  0
 11 12  1  0  0  0  0
 11 26  1  0  0  0  0
 11 27  1  0  0  0  0
 12 13  1  0  0  0  0
 12 28  1  0  0  0  0
 12 29  1  0  0  0  0
 13 14  1  0  0  0  0
 14 30  1  0  0  0  0
 14 31  1  0  0  0  0
 15 16  2  0  0  0  0
 15 32  1  0  0  0  0
M  END
> <s_m_source_file>
AV-unprocessed.smi

> <i_m_source_file_index>
2469

> <i_lp_mmshare_version>
43012

> <i_f3d_flags>
0

> <s_epik_input>
W09IXVtDSDJdW0NIMl1PYzFbY0hdW2NIXWMoW2NIXW4xKVtOSF1bQ0BASF0yW0NIMl1bQ0gyXU9bQ0gyXTI=

> <s_epik_cmdline>
J2VwaWtfcHl0aG9uJywgJy1waCcsICc3LjAnLCAnLXRuJywgJzgnLCAnLW1hJywgJzIwMCcsICctbWV0YWxfYmluZGluZycsICctaW1hZScsICc8aW5maWxlLm1hZT4nLCAnLW9tYWUnLCAnPG91dGZpbGUubWFlPic=

> <r_lp_tautomer_probability>
1

> <r_epik_Ionization_Penalty>
0.000432265

> <r_epik_Ionization_Penalty_Charging>
0

> <r_epik_Ionization_Penalty_Neutral>
0.000432265

> <r_epik_State_Penalty>
-0

> <r_epik_Charging_Adjusted_Penalty>
0

> <i_epik_Tot_Q>
0

> <i_epik_Tot_abs_Q>
0

> <r_epik_Metal_State_Penalty>
-0

> <b_epik_Metal_Only>
0

> <s_lp_Force_Field>
OPLS_2005

> <r_lp_Energy>
23.2185

> <b_lp_Chiralities_Consistent>
1

> <s_lp_Variant>
AV-unprocessed.smi:2469-2

> <Gold.Version>
5.8.1

> <Gold.Id.Protein>
6NUR|6NUR_protein|mol2

> <Gold.PLP.Fitness>
39.0482

> <Gold.PLP.PLP>
-31.5903

> <Gold.PLP.part.hbond>
-3.2170

> <Gold.PLP.part.metal>
0.0000

> <Gold.PLP.part.buried>
-0.6925

> <Gold.PLP.part.nonpolar>
-28.6837

> <Gold.PLP.part.repulsive>
1.6059

> <Gold.PLP.ligand.clash>
0.0000

> <Gold.PLP.ligand.torsion>
0.3616

> <Gold.PLP.Chemscore.Hbond>
1.7680

> <Gold.PLP.Chemscore.CHOScore>
0.9421

> <Gold.PLP.Chemscore.Metal>
0.0000

> <Gold.Chemscore.Hbonds>
donor molecule, donor type, donor heavy atom, donor atom, acceptor molecule, acceptor atom, score
      L1  H     1    17       P1 10175  1.00
      L1  H     9    24       P1  8028  0.74
      L1  C    15    32       P1  8028  0.92

> <Gold.PLP.Chemscore.Internal.Correction>
0.0508

> <Gold.Rescore>
     Score         DG    S(hbond)    S(metal)    S(lipo)     H(rot)  DE(clash)    DE(int)     intcor
     14.23     -15.44       1.87        0.00      82.44       2.32       0.95       0.26       ----

> <Gold.Chemscore.Fitness>
14.2298

> <Gold.Chemscore.DG>
-15.4377

> <Gold.Chemscore.ZeroCoef>
-5.4800

> <Gold.Chemscore.Hbond>
1.8735

> <Gold.Chemscore.Metal>
0.0000

> <Gold.Chemscore.Lipo>
82.4424

> <Gold.Chemscore.Internal_Hbond>
0.0000

> <Gold.Chemscore.DEClash>
0.9514

> <Gold.Chemscore.DEInternal>
0.2564

> <Gold.Chemscore.Rot>
2.3225

> <Gold.Chemscore.Internal.Correction>
   9.000000E+99

> <Gold.Chemscore.Hbonds>
donor molecule, donor type, donor heavy atom, donor atom, acceptor molecule, acceptor atom, score
      L1  H     1    17       P1 10175  0.97
      L1  H     9    24       P1  8028  0.74

> <Gold.Chemscore.Hbond.Weighted>
-6.2576

> <Gold.Chemscore.Metal.Weighted>
-0.0000

> <Gold.Chemscore.Lipo.Weighted>
-9.6458

> <Gold.Chemscore.Internal_Hbond.Weighted>
0.0000

> <Gold.Chemscore.DEClash.Weighted>
0.9514

> <Gold.Chemscore.DEInternal.Weighted>
0.2564

> <Gold.Chemscore.Rot.Weighted>
5.9456

> <Gold.Chemscore.Internal.Correction.Weighted>
   9.000000E+99

> <Gold.Protein.RotatedTorsions>
[ 6907 6896 6895 6894 ] final  129.53 input  -60.11 | X-H torsion
[ 7974 7965 7964 7962 ] final  -60.79 input  175.53 | X-H torsion
[ 8008 7997 7996 7995 ] final  170.75 input   59.86 | X-H torsion
[ 10167 10162 10161 10158 ] final  176.23 input  -65.29 | X-H torsion
[ 10718 10713 10712 10709 ] final   98.13 input   66.30 | X-H torsion
[ 10763 10752 10751 10750 ] final  -15.70 input  -60.55 | X-H torsion
[ 11005 11000 10999 10996 ] final  153.50 input  -57.11 | X-H torsion

> <Gold.Protein.ActiveResidues>
 VAL166  LYS551  ARG553  GLY616  TRP617  ASP618  TYR619  PRO620  LYS621  CYS622 
 ASP623  PHE694  ASN695  SER759  ASP760  ASP761  ALA762  ILE779  LEU786  VAL792 
 PHE793  MET794  SER795  GLU796  ALA797  LYS798  CYS799  TRP800  GLU811  SER814 

> <Gold.Protein.RotatedAtoms>
  152.3615  133.6303  159.6018 H   0  0  0  0  0  0  0  0  0  0  0  0  # atno 6907 bound_to 6896
  150.7604  133.9416  159.3467 H   0  0  0  0  0  0  0  0  0  0  0  0  # atno 6908 bound_to 6896
  151.7253  135.0887  160.0342 H   0  0  0  0  0  0  0  0  0  0  0  0  # atno 6909 bound_to 6896
  145.8113  140.8597  143.0180 H   0  0  0  0  0  0  0  0  0  0  0  0  # atno 7974 bound_to 7965
  156.1336  140.1530  156.9028 H   0  0  0  0  0  0  0  0  0  0  0  0  # atno 8008 bound_to 7997
  154.4929  140.0846  156.7673 H   0  0  0  0  0  0  0  0  0  0  0  0  # atno 8009 bound_to 7997
  155.4210  140.3423  155.4273 H   0  0  0  0  0  0  0  0  0  0  0  0  # atno 8010 bound_to 7997
  139.5206  144.2939  152.0439 H   0  0  0  0  0  0  0  0  0  0  0  0  # atno 10167 bound_to 10162
  157.6901  131.0630  150.4749 H   0  0  0  0  0  0  0  0  0  0  0  0  # atno 10718 bound_to 10713
  153.5473  135.7012  153.5608 H   0  0  0  0  0  0  0  0  0  0  0  0  # atno 10763 bound_to 10752
  153.3547  135.3986  155.1673 H   0  0  0  0  0  0  0  0  0  0  0  0  # atno 10764 bound_to 10752
  154.8666  135.3774  154.4982 H   0  0  0  0  0  0  0  0  0  0  0  0  # atno 10765 bound_to 10752
  140.1403  134.8743  157.2322 H   0  0  0  0  0  0  0  0  0  0  0  0  # atno 11005 bound_to 11000
  144.6757  140.0399  143.7481 LP  0  0  0  0  0  0  0  0  0  0  0  0  # atno 17320 bound_to 7965
  145.9774  139.2915  143.1062 LP  0  0  0  0  0  0  0  0  0  0  0  0  # atno 17321 bound_to 7965
  140.2389  144.4290  150.6268 LP  0  0  0  0  0  0  0  0  0  0  0  0  # atno 17342 bound_to 10162
  140.6304  143.2187  151.6508 LP  0  0  0  0  0  0  0  0  0  0  0  0  # atno 17343 bound_to 10162
  156.5084  130.4133  149.6314 LP  0  0  0  0  0  0  0  0  0  0  0  0  # atno 17370 bound_to 10713
  156.3263  130.7307  151.2229 LP  0  0  0  0  0  0  0  0  0  0  0  0  # atno 17371 bound_to 10713
  140.2730  134.3438  155.7367 LP  0  0  0  0  0  0  0  0  0  0  0  0  # atno 17394 bound_to 11000
  141.2185  133.7434  156.9251 LP  0  0  0  0  0  0  0  0  0  0  0  0  # atno 17395 bound_to 11000

$$$$
