AV-unprocessed.smi:342|AV-procd|sdf|2386|dock2
  -GOLD-   2262022313D 1   1.00000     0.00000
 Structure written by MMmdl.
 42 44  0  0  0  0  0  0  0  0  2 V2000
  148.6483  138.1585  153.1086 O   0  0  0  0  0  0  0  0  0  0  0  0
  147.4236  138.7040  153.5552 C   0  0  2  0  0  0  0  0  0  0  0  0
  146.2882  138.1961  152.6395 C   0  0  0  0  0  0  0  0  0  0  0  0
  146.4435  136.7638  152.2807 N   0  3  0  0  0  0  0  0  0  0  0  0
  146.3737  135.8471  153.4463 C   0  0  0  0  0  0  0  0  0  0  0  0
  146.5850  134.3916  152.9965 C   0  0  0  0  0  0  0  0  0  0  0  0
  145.6150  134.0499  152.0143 O   0  0  0  0  0  0  0  0  0  0  0  0
  145.7243  134.8642  150.8536 C   0  0  0  0  0  0  0  0  0  0  0  0
  145.4876  136.3364  151.2314 C   0  0  0  0  0  0  0  0  0  0  0  0
  147.5695  140.2402  153.5757 C   0  0  0  0  0  0  0  0  0  0  0  0
  148.1438  140.7385  154.8195 N   0  0  0  0  0  0  0  0  0  0  0  0
  147.5634  141.5135  155.7744 C   0  0  0  0  0  0  0  0  0  0  0  0
  146.1491  142.0130  155.6612 C   0  0  0  0  0  0  0  0  0  0  0  0
  145.8362  142.7986  156.6927 F   0  0  0  0  0  0  0  0  0  0  0  0
  145.9911  142.7238  154.5448 F   0  0  0  0  0  0  0  0  0  0  0  0
  145.2864  140.9974  155.6508 F   0  0  0  0  0  0  0  0  0  0  0  0
  148.3379  141.8126  156.8196 N   0  0  0  0  0  0  0  0  0  0  0  0
  149.5316  141.1948  156.5078 C   0  0  0  0  0  0  0  0  0  0  0  0
  150.7528  141.1465  157.2171 C   0  0  0  0  0  0  0  0  0  0  0  0
  151.8580  140.4484  156.6884 C   0  0  0  0  0  0  0  0  0  0  0  0
  151.7582  139.7915  155.4451 C   0  0  0  0  0  0  0  0  0  0  0  0
  150.5498  139.8266  154.7230 C   0  0  0  0  0  0  0  0  0  0  0  0
  149.4474  140.5210  155.2572 C   0  0  0  0  0  0  0  0  0  0  0  0
  149.0884  138.8000  152.5714 H   0  0  0  0  0  0  0  0  0  0  0  0
  147.2650  138.3591  154.5754 H   0  0  0  0  0  0  0  0  0  0  0  0
  145.3122  138.3332  153.1065 H   0  0  0  0  0  0  0  0  0  0  0  0
  146.2792  138.8024  151.7326 H   0  0  0  0  0  0  0  0  0  0  0  0
  147.1291  136.1069  154.1863 H   0  0  0  0  0  0  0  0  0  0  0  0
  145.4027  135.9467  153.9342 H   0  0  0  0  0  0  0  0  0  0  0  0
  147.5909  134.2485  152.5983 H   0  0  0  0  0  0  0  0  0  0  0  0
  146.4802  133.7167  153.8462 H   0  0  0  0  0  0  0  0  0  0  0  0
  146.7042  134.7317  150.3920 H   0  0  0  0  0  0  0  0  0  0  0  0
  144.9826  134.5398  150.1238 H   0  0  0  0  0  0  0  0  0  0  0  0
  144.4660  136.4709  151.5905 H   0  0  0  0  0  0  0  0  0  0  0  0
  145.6026  136.9636  150.3465 H   0  0  0  0  0  0  0  0  0  0  0  0
  148.2153  140.5629  152.7578 H   0  0  0  0  0  0  0  0  0  0  0  0
  146.6034  140.7111  153.4005 H   0  0  0  0  0  0  0  0  0  0  0  0
  150.8408  141.6503  158.1683 H   0  0  0  0  0  0  0  0  0  0  0  0
  152.7875  140.4196  157.2379 H   0  0  0  0  0  0  0  0  0  0  0  0
  152.6111  139.2622  155.0457 H   0  0  0  0  0  0  0  0  0  0  0  0
  150.4757  139.3281  153.7681 H   0  0  0  0  0  0  0  0  0  0  0  0
  147.3661  136.6677  151.8801 H   0  0  0  0  0  0  0  0  0  0  0  0
  1  2  1  0  0  0  0
  1 24  1  0  0  0  0
  2  3  1  0  0  0  0
  2 10  1  0  0  0  0
  2 25  1  0  0  0  0
  3  4  1  0  0  0  0
  3 26  1  0  0  0  0
  3 27  1  0  0  0  0
  4  9  1  0  0  0  0
  4  5  1  0  0  0  0
  4 42  1  0  0  0  0
  5  6  1  0  0  0  0
  5 28  1  0  0  0  0
  5 29  1  0  0  0  0
  6  7  1  0  0  0  0
  6 30  1  0  0  0  0
  6 31  1  0  0  0  0
  7  8  1  0  0  0  0
  8  9  1  0  0  0  0
  8 32  1  0  0  0  0
  8 33  1  0  0  0  0
  9 34  1  0  0  0  0
  9 35  1  0  0  0  0
 10 11  1  0  0  0  0
 10 36  1  0  0  0  0
 10 37  1  0  0  0  0
 11 23  1  0  0  0  0
 11 12  1  0  0  0  0
 12 13  1  0  0  0  0
 12 17  2  0  0  0  0
 13 14  1  0  0  0  0
 13 15  1  0  0  0  0
 13 16  1  0  0  0  0
 17 18  1  0  0  0  0
 18 23  2  0  0  0  0
 18 19  1  0  0  0  0
 19 20  2  0  0  0  0
 19 38  1  0  0  0  0
 20 21  1  0  0  0  0
 20 39  1  0  0  0  0
 21 22  2  0  0  0  0
 21 40  1  0  0  0  0
 22 23  1  0  0  0  0
 22 41  1  0  0  0  0
M  CHG  1   4   1
M  END
> <s_m_source_file>
AV-unprocessed.smi

> <i_m_source_file_index>
342

> <i_lp_mmshare_version>
43012

> <i_f3d_flags>
0

> <s_epik_input>
W2NIXTFbY0hdW2NIXVtjSF1jKGMxMiluKGMobjIpQyhGKShGKUYpW0NIMl1bQ0BIXShbT0hdKVtDSDJdTjNbQ0gyXVtDSDJdT1tDSDJdW0NIMl0z

> <s_epik_cmdline>
J2VwaWtfcHl0aG9uJywgJy1waCcsICc3LjAnLCAnLXRuJywgJzgnLCAnLW1hJywgJzIwMCcsICctbWV0YWxfYmluZGluZycsICctaW1hZScsICc8aW5maWxlLm1hZT4nLCAnLW9tYWUnLCAnPG91dGZpbGUubWFlPic=

> <r_epik_Ionization_Penalty>
0.608409

> <r_epik_Ionization_Penalty_Charging>
0.608065

> <r_epik_Ionization_Penalty_Neutral>
0.000344684

> <r_epik_State_Penalty>
0.623026

> <r_epik_Charging_Adjusted_Penalty>
1.23109

> <i_epik_Tot_Q>
1

> <i_epik_Tot_abs_Q>
1

> <r_epik_Metal_State_Penalty>
0.623013

> <b_epik_Metal_Only>
0

> <s_lp_Force_Field>
OPLS_2005

> <r_lp_Energy>
26.0931

> <b_lp_Chiralities_Consistent>
1

> <s_lp_Variant>
AV-unprocessed.smi:342-3

> <Gold.Version>
5.8.1

> <Gold.Id.Protein>
6NUR|6NUR_protein|mol2

> <Gold.PLP.Fitness>
44.5681

> <Gold.PLP.PLP>
-36.6416

> <Gold.PLP.part.hbond>
-2.4160

> <Gold.PLP.part.metal>
0.0000

> <Gold.PLP.part.buried>
-2.2988

> <Gold.PLP.part.nonpolar>
-34.0537

> <Gold.PLP.part.repulsive>
1.7129

> <Gold.PLP.ligand.clash>
0.0000

> <Gold.PLP.ligand.torsion>
0.5692

> <Gold.PLP.Chemscore.Hbond>
3.0000

> <Gold.PLP.Chemscore.CHOScore>
0.0000

> <Gold.PLP.Chemscore.Metal>
0.0000

> <Gold.Chemscore.Hbonds>
donor molecule, donor type, donor heavy atom, donor atom, acceptor molecule, acceptor atom, score
      L1  H     1    24       P1  7957  1.00
      L1  H     4    42       P1  7948  2.00

> <Gold.PLP.Chemscore.Internal.Correction>
0.0648

> <Gold.Rescore>
     Score         DG    S(hbond)    S(metal)    S(lipo)     H(rot)  DE(clash)    DE(int)     intcor
     13.97     -14.87       1.99        0.00      74.26       2.32       0.17       0.73       ----

> <Gold.Chemscore.Fitness>
13.9657

> <Gold.Chemscore.DG>
-14.8744

> <Gold.Chemscore.ZeroCoef>
-5.4800

> <Gold.Chemscore.Hbond>
1.9901

> <Gold.Chemscore.Metal>
0.0000

> <Gold.Chemscore.Lipo>
74.2584

> <Gold.Chemscore.Internal_Hbond>
0.0000

> <Gold.Chemscore.DEClash>
0.1749

> <Gold.Chemscore.DEInternal>
0.7338

> <Gold.Chemscore.Rot>
2.3206

> <Gold.Chemscore.Internal.Correction>
   9.000000E+99

> <Gold.Chemscore.Hbonds>
donor molecule, donor type, donor heavy atom, donor atom, acceptor molecule, acceptor atom, score
      L1  H     1    24       P1  7957  0.95
      L1  H     4    42       P1  7948  0.98

> <Gold.Chemscore.Hbond.Weighted>
-6.6469

> <Gold.Chemscore.Metal.Weighted>
-0.0000

> <Gold.Chemscore.Lipo.Weighted>
-8.6882

> <Gold.Chemscore.Internal_Hbond.Weighted>
0.0000

> <Gold.Chemscore.DEClash.Weighted>
0.1749

> <Gold.Chemscore.DEInternal.Weighted>
0.7338

> <Gold.Chemscore.Rot.Weighted>
5.9407

> <Gold.Chemscore.Internal.Correction.Weighted>
   9.000000E+99

> <Gold.Protein.RotatedTorsions>
[ 6907 6896 6895 6894 ] final  -52.17 input  -60.11 | X-H torsion
[ 7974 7965 7964 7962 ] final  146.89 input  175.53 | X-H torsion
[ 8008 7997 7996 7995 ] final  -29.65 input   59.86 | X-H torsion
[ 10167 10162 10161 10158 ] final  -59.11 input  -65.29 | X-H torsion
[ 10718 10713 10712 10709 ] final  138.51 input   66.30 | X-H torsion
[ 10763 10752 10751 10750 ] final  123.39 input  -60.55 | X-H torsion
[ 11005 11000 10999 10996 ] final -147.27 input  -57.11 | X-H torsion

> <Gold.Protein.ActiveResidues>
 VAL166  LYS551  ARG553  GLY616  TRP617  ASP618  TYR619  PRO620  LYS621  CYS622 
 ASP623  PHE694  ASN695  SER759  ASP760  ASP761  ALA762  ILE779  LEU786  VAL792 
 PHE793  MET794  SER795  GLU796  ALA797  LYS798  CYS799  TRP800  GLU811  SER814 

> <Gold.Protein.RotatedAtoms>
  150.8543  134.7877  159.7032 H   0  0  0  0  0  0  0  0  0  0  0  0  # atno 6907 bound_to 6896
  152.4599  134.5205  159.9791 H   0  0  0  0  0  0  0  0  0  0  0  0  # atno 6908 bound_to 6896
  151.5320  133.3409  159.2955 H   0  0  0  0  0  0  0  0  0  0  0  0  # atno 6909 bound_to 6896
  144.8634  139.5961  143.5920 H   0  0  0  0  0  0  0  0  0  0  0  0  # atno 7974 bound_to 7965
  154.4281  140.1812  156.1282 H   0  0  0  0  0  0  0  0  0  0  0  0  # atno 8008 bound_to 7997
  156.0089  140.3352  155.6895 H   0  0  0  0  0  0  0  0  0  0  0  0  # atno 8009 bound_to 7997
  155.6139  140.0653  157.2689 H   0  0  0  0  0  0  0  0  0  0  0  0  # atno 8010 bound_to 7997
  140.6156  143.2401  151.5606 H   0  0  0  0  0  0  0  0  0  0  0  0  # atno 10167 bound_to 10162
  157.4245  131.1042  151.0318 H   0  0  0  0  0  0  0  0  0  0  0  0  # atno 10718 bound_to 10713
  153.6447  135.3373  155.3082 H   0  0  0  0  0  0  0  0  0  0  0  0  # atno 10763 bound_to 10752
  154.8551  135.4327  154.1967 H   0  0  0  0  0  0  0  0  0  0  0  0  # atno 10764 bound_to 10752
  153.2895  135.7016  153.7381 H   0  0  0  0  0  0  0  0  0  0  0  0  # atno 10765 bound_to 10752
  140.7734  134.3163  157.5068 H   0  0  0  0  0  0  0  0  0  0  0  0  # atno 11005 bound_to 11000
  146.2878  139.7053  142.9183 LP  0  0  0  0  0  0  0  0  0  0  0  0  # atno 17320 bound_to 7965
  145.4267  141.0411  143.2933 LP  0  0  0  0  0  0  0  0  0  0  0  0  # atno 17321 bound_to 7965
  139.5395  144.2686  152.1322 LP  0  0  0  0  0  0  0  0  0  0  0  0  # atno 17342 bound_to 10162
  140.1894  144.4766  150.6487 LP  0  0  0  0  0  0  0  0  0  0  0  0  # atno 17343 bound_to 10162
  157.1236  130.6072  149.5511 LP  0  0  0  0  0  0  0  0  0  0  0  0  # atno 17370 bound_to 10713
  155.9892  130.4938  150.7202 LP  0  0  0  0  0  0  0  0  0  0  0  0  # atno 17371 bound_to 10713
  139.8752  134.9274  156.3425 LP  0  0  0  0  0  0  0  0  0  0  0  0  # atno 17394 bound_to 11000
  140.9552  133.7424  156.0326 LP  0  0  0  0  0  0  0  0  0  0  0  0  # atno 17395 bound_to 11000

$$$$
