AV-unprocessed.smi:44|AV-procd|sdf|400|dock9
  -GOLD-   2262016253D 1   1.00000     0.00000
 Structure written by MMmdl.
 29 31  0  0  0  0  0  0  0  0  3 V2000
  142.1698  138.3532  154.0353 O   0  0  0  0  0  0  0  0  0  0  0  0
  142.3360  137.1756  153.7245 C   0  0  0  0  0  0  0  0  0  0  0  0
  141.6187  136.0830  154.1418 N   0  5  0  0  0  0  0  0  0  0  0  0
  141.9220  134.7978  153.7056 C   0  0  0  0  0  0  0  0  0  0  0  0
  142.8584  134.4474  152.8967 N   0  0  0  0  0  0  0  0  0  0  0  0
  143.6498  135.4996  152.4121 C   0  0  0  0  0  0  0  0  0  0  0  0
  143.4401  136.8091  152.7767 C   0  0  0  0  0  0  0  0  0  0  0  0
  144.3587  137.6119  152.1551 N   0  3  0  0  0  0  0  0  0  0  0  0
  145.0848  136.7518  151.4411 C   0  0  0  0  0  0  0  0  0  0  0  0
  144.7129  135.4409  151.5471 N   0  0  0  0  0  0  0  0  0  0  0  0
  145.3344  134.2653  150.8694 C   0  0  2  0  0  0  0  0  0  0  0  0
  144.2853  133.5082  150.0469 C   0  0  0  0  0  0  0  0  0  0  0  0
  144.6276  132.0697  150.3670 C   0  0  0  0  0  0  0  0  0  0  0  0
  145.0609  132.1826  151.8275 C   0  0  1  0  0  0  0  0  0  0  0  0
  145.9191  131.0135  152.3305 C   0  0  0  0  0  0  0  0  0  0  0  0
  147.2757  131.3983  152.3911 O   0  0  0  0  0  0  0  0  0  0  0  0
  145.8147  133.3904  151.8491 O   0  0  0  0  0  0  0  0  0  0  0  0
  144.4614  138.6165  152.2208 H   0  0  0  0  0  0  0  0  0  0  0  0
  146.1574  134.6690  150.2782 H   0  0  0  0  0  0  0  0  0  0  0  0
  144.1861  132.3126  152.4671 H   0  0  0  0  0  0  0  0  0  0  0  0
  141.2503  134.0517  154.1375 H   0  0  0  0  0  0  0  0  0  0  0  0
  145.9069  137.0644  150.8235 H   0  0  0  0  0  0  0  0  0  0  0  0
  143.2797  133.7473  150.3970 H   0  0  0  0  0  0  0  0  0  0  0  0
  144.3623  133.7535  148.9874 H   0  0  0  0  0  0  0  0  0  0  0  0
  143.7880  131.3894  150.2226 H   0  0  0  0  0  0  0  0  0  0  0  0
  145.4559  131.7316  149.7424 H   0  0  0  0  0  0  0  0  0  0  0  0
  145.5882  130.6779  153.3137 H   0  0  0  0  0  0  0  0  0  0  0  0
  145.8320  130.1645  151.6522 H   0  0  0  0  0  0  0  0  0  0  0  0
  147.7215  131.0474  151.6353 H   0  0  0  0  0  0  0  0  0  0  0  0
  1  2  2  0  0  0  0
  2  7  1  0  0  0  0
  2  3  1  0  0  0  0
  3  4  1  0  0  0  0
  4 21  1  0  0  0  0
  4  5  2  0  0  0  0
  5  6  1  0  0  0  0
  6 10  1  0  0  0  0
  6  7  2  0  0  0  0
  7  8  1  0  0  0  0
  8  9  2  0  0  0  0
  8 18  1  0  0  0  0
  9 10  1  0  0  0  0
  9 22  1  0  0  0  0
 10 11  1  0  0  0  0
 11 19  1  0  0  0  0
 11 17  1  0  0  0  0
 11 12  1  0  0  0  0
 12 13  1  0  0  0  0
 12 23  1  0  0  0  0
 12 24  1  0  0  0  0
 13 14  1  0  0  0  0
 13 25  1  0  0  0  0
 13 26  1  0  0  0  0
 14 20  1  0  0  0  0
 14 15  1  0  0  0  0
 14 17  1  0  0  0  0
 15 16  1  0  0  0  0
 15 27  1  0  0  0  0
 15 28  1  0  0  0  0
 16 29  1  0  0  0  0
M  CHG  1   3  -1
M  CHG  1   8   1
M  END
> <s_m_source_file>
AV-unprocessed.smi

> <i_m_source_file_index>
44

> <i_lp_mmshare_version>
43012

> <i_f3d_flags>
0

> <s_epik_input>
bjFbY0hdW25IXWMoPU8pYyhjMTIpbltjSF1uMltDQEhdM1tDSDJdW0NIMl1bQ0BIXShPMylbQ0gyXVtPSF0=

> <s_epik_cmdline>
J2VwaWtfcHl0aG9uJywgJy1waCcsICc3LjAnLCAnLXRuJywgJzgnLCAnLW1hJywgJzIwMCcsICctbWV0YWxfYmluZGluZycsICctaW1hZScsICc8aW5maWxlLm1hZT4nLCAnLW9tYWUnLCAnPG91dGZpbGUubWFlPic=

> <r_lp_tautomer_probability>
0.144281

> <r_epik_Ionization_Penalty>
5.63685

> <r_epik_Ionization_Penalty_Charging>
5.58669

> <r_epik_Ionization_Penalty_Neutral>
0.0501585

> <r_epik_State_Penalty>
1.20809

> <r_epik_Charging_Adjusted_Penalty>
6.79478

> <i_epik_Tot_Q>
0

> <i_epik_Tot_abs_Q>
2

> <r_epik_Metal_State_Penalty>
1.52487

> <b_epik_Metal_Only>
0

> <s_epik_Chemistry_Notes>
This compound contains an acetal/aminal-like group ( X-CH(R)-Y where X, Y are N, S, or O) that may be acid/base labile, releasing an aldehyde.

> <s_lp_Force_Field>
OPLS_2005

> <r_lp_Energy>
45.8443

> <b_lp_Chiralities_Consistent>
1

> <s_lp_Variant>
AV-unprocessed.smi:44-6

> <Gold.Version>
5.8.1

> <Gold.Id.Protein>
6NUR|6NUR_protein|mol2

> <Gold.PLP.Fitness>
37.8545

> <Gold.PLP.PLP>
-25.7559

> <Gold.PLP.part.hbond>
-3.0000

> <Gold.PLP.part.metal>
0.0000

> <Gold.PLP.part.buried>
-3.1218

> <Gold.PLP.part.nonpolar>
-22.7129

> <Gold.PLP.part.repulsive>
1.5524

> <Gold.PLP.ligand.clash>
0.0000

> <Gold.PLP.ligand.torsion>
0.6495

> <Gold.PLP.Chemscore.Hbond>
3.0000

> <Gold.PLP.Chemscore.CHOScore>
1.4623

> <Gold.PLP.Chemscore.Metal>
0.0000

> <Gold.Chemscore.Hbonds>
donor molecule, donor type, donor heavy atom, donor atom, acceptor molecule, acceptor atom, score
      L1  H     8    18       P1 10175  2.00
      L1  H    16    29       P1 10747  1.00
      L1  C     4    21       P1 10957  0.30
      L1  C     4    21       P1 11000  0.59

> <Gold.PLP.Chemscore.Internal.Correction>
0.0106

> <Gold.Rescore>
     Score         DG    S(hbond)    S(metal)    S(lipo)     H(rot)  DE(clash)    DE(int)     intcor
      8.36     -10.38       1.99        0.00      34.62       2.27       1.26       0.76       ----

> <Gold.Chemscore.Fitness>
8.3560

> <Gold.Chemscore.DG>
-10.3760

> <Gold.Chemscore.ZeroCoef>
-5.4800

> <Gold.Chemscore.Hbond>
1.9947

> <Gold.Chemscore.Metal>
0.0000

> <Gold.Chemscore.Lipo>
34.6161

> <Gold.Chemscore.Internal_Hbond>
0.0000

> <Gold.Chemscore.DEClash>
1.2589

> <Gold.Chemscore.DEInternal>
0.7611

> <Gold.Chemscore.Rot>
2.2720

> <Gold.Chemscore.Internal.Correction>
   9.000000E+99

> <Gold.Chemscore.Hbonds>
donor molecule, donor type, donor heavy atom, donor atom, acceptor molecule, acceptor atom, score
      L1  H     8    18       P1 10175  0.91
      L1  H    16    29       P1 10747  1.00

> <Gold.Chemscore.Hbond.Weighted>
-6.6624

> <Gold.Chemscore.Metal.Weighted>
-0.0000

> <Gold.Chemscore.Lipo.Weighted>
-4.0501

> <Gold.Chemscore.Internal_Hbond.Weighted>
0.0000

> <Gold.Chemscore.DEClash.Weighted>
1.2589

> <Gold.Chemscore.DEInternal.Weighted>
0.7611

> <Gold.Chemscore.Rot.Weighted>
5.8164

> <Gold.Chemscore.Internal.Correction.Weighted>
   9.000000E+99

> <Gold.Protein.RotatedTorsions>
[ 6907 6896 6895 6894 ] final   38.01 input  -60.11 | X-H torsion
[ 7974 7965 7964 7962 ] final  120.72 input  175.53 | X-H torsion
[ 8008 7997 7996 7995 ] final -135.35 input   59.86 | X-H torsion
[ 10167 10162 10161 10158 ] final   21.05 input  -65.29 | X-H torsion
[ 10718 10713 10712 10709 ] final   36.21 input   66.30 | X-H torsion
[ 10763 10752 10751 10750 ] final -125.89 input  -60.55 | X-H torsion
[ 11005 11000 10999 10996 ] final  171.74 input  -57.11 | X-H torsion

> <Gold.Protein.ActiveResidues>
 VAL166  LYS551  ARG553  GLY616  TRP617  ASP618  TYR619  PRO620  LYS621  CYS622 
 ASP623  PHE694  ASN695  SER759  ASP760  ASP761  ALA762  ILE779  LEU786  VAL792 
 PHE793  MET794  SER795  GLU796  ALA797  LYS798  CYS799  TRP800  GLU811  SER814 

> <Gold.Protein.RotatedAtoms>
  152.1507  134.8990  160.0547 H   0  0  0  0  0  0  0  0  0  0  0  0  # atno 6907 bound_to 6896
  152.0023  133.3825  159.4195 H   0  0  0  0  0  0  0  0  0  0  0  0  # atno 6908 bound_to 6896
  150.6875  134.3743  159.5049 H   0  0  0  0  0  0  0  0  0  0  0  0  # atno 6909 bound_to 6896
  145.1278  139.3347  143.4681 H   0  0  0  0  0  0  0  0  0  0  0  0  # atno 7974 bound_to 7965
  155.3771  140.0492  157.3044 H   0  0  0  0  0  0  0  0  0  0  0  0  # atno 8008 bound_to 7997
  154.5101  140.2188  155.9136 H   0  0  0  0  0  0  0  0  0  0  0  0  # atno 8009 bound_to 7997
  156.1572  140.3124  155.8751 H   0  0  0  0  0  0  0  0  0  0  0  0  # atno 8010 bound_to 7997
  140.5457  143.9599  150.6546 H   0  0  0  0  0  0  0  0  0  0  0  0  # atno 10167 bound_to 10162
  157.3322  130.7503  149.6855 H   0  0  0  0  0  0  0  0  0  0  0  0  # atno 10718 bound_to 10713
  154.8740  135.4014  154.3341 H   0  0  0  0  0  0  0  0  0  0  0  0  # atno 10763 bound_to 10752
  153.4150  135.7021  153.6338 H   0  0  0  0  0  0  0  0  0  0  0  0  # atno 10764 bound_to 10752
  153.5024  135.3725  155.2517 H   0  0  0  0  0  0  0  0  0  0  0  0  # atno 10765 bound_to 10752
  140.3222  134.7428  157.4072 H   0  0  0  0  0  0  0  0  0  0  0  0  # atno 11005 bound_to 11000
  146.3516  140.1264  142.8598 LP  0  0  0  0  0  0  0  0  0  0  0  0  # atno 17320 bound_to 7965
  145.0669  140.9128  143.4905 LP  0  0  0  0  0  0  0  0  0  0  0  0  # atno 17321 bound_to 7965
  140.3011  143.3259  152.0970 LP  0  0  0  0  0  0  0  0  0  0  0  0  # atno 17342 bound_to 10162
  139.5006  144.6696  151.6275 LP  0  0  0  0  0  0  0  0  0  0  0  0  # atno 17343 bound_to 10162
  155.9697  130.4192  150.4364 LP  0  0  0  0  0  0  0  0  0  0  0  0  # atno 17370 bound_to 10713
  157.2397  131.0523  151.2443 LP  0  0  0  0  0  0  0  0  0  0  0  0  # atno 17371 bound_to 10713
  140.0932  134.5573  155.8424 LP  0  0  0  0  0  0  0  0  0  0  0  0  # atno 17394 bound_to 11000
  141.2084  133.6673  156.6367 LP  0  0  0  0  0  0  0  0  0  0  0  0  # atno 17395 bound_to 11000

$$$$
