AV-unprocessed.smi:1884|AV-procd|sdf|7648|dock6
  -GOLD-   22720 9373D 1   1.00000     0.00000
 Structure written by MMmdl.
 41 43  0  0  0  0  0  0  0  0  2 V2000
  149.5209  132.7046  154.0217 C   0  0  0  0  0  0  0  0  0  0  0  0
  148.2908  132.5605  153.1900 C   0  0  0  0  0  0  0  0  0  0  0  0
  147.6709  133.5553  152.4950 N   0  3  0  0  0  0  0  0  0  0  0  0
  146.5519  133.0442  151.8360 C   0  0  0  0  0  0  0  0  0  0  0  0
  145.6175  133.6656  151.0131 C   0  0  0  0  0  0  0  0  0  0  0  0
  144.5907  132.8505  150.4934 C   0  0  0  0  0  0  0  0  0  0  0  0
  144.5209  131.4752  150.7962 C   0  0  0  0  0  0  0  0  0  0  0  0
  145.4735  130.8563  151.6325 C   0  0  0  0  0  0  0  0  0  0  0  0
  146.4852  131.6695  152.1440 C   0  0  0  0  0  0  0  0  0  0  0  0
  147.5776  131.4168  152.9834 N   0  0  0  0  0  0  0  0  0  0  0  0
  147.8046  130.0590  153.5036 C   0  0  0  0  0  0  0  0  0  0  0  0
  149.2585  129.5822  153.3156 C   0  0  2  0  0  0  0  0  0  0  0  0
  149.2731  128.2677  152.7970 O   0  0  0  0  0  0  0  0  0  0  0  0
  150.0566  129.5978  154.6272 C   0  0  0  0  0  0  0  0  0  0  0  0
  151.3736  129.1289  154.3692 O   0  0  0  0  0  0  0  0  0  0  0  0
  152.4303  129.8009  154.9446 C   0  0  0  0  0  0  0  0  0  0  0  0
  153.7258  129.4346  154.5253 C   0  0  0  0  0  0  0  0  0  0  0  0
  154.8642  130.0685  155.0599 C   0  0  0  0  0  0  0  0  0  0  0  0
  154.7172  131.0828  156.0264 C   0  0  0  0  0  0  0  0  0  0  0  0
  155.8893  131.7404  156.5794 C   0  0  0  0  0  0  0  0  0  0  0  0
  156.8225  132.2642  157.0194 N   0  0  0  0  0  0  0  0  0  0  0  0
  153.4284  131.4573  156.4543 C   0  0  0  0  0  0  0  0  0  0  0  0
  152.2911  130.8221  155.9183 C   0  0  0  0  0  0  0  0  0  0  0  0
  149.8907  133.7297  153.9854 H   0  0  0  0  0  0  0  0  0  0  0  0
  150.3037  132.0406  153.6552 H   0  0  0  0  0  0  0  0  0  0  0  0
  149.3052  132.4503  155.0595 H   0  0  0  0  0  0  0  0  0  0  0  0
  145.6698  134.7187  150.7784 H   0  0  0  0  0  0  0  0  0  0  0  0
  143.8422  133.2883  149.8486 H   0  0  0  0  0  0  0  0  0  0  0  0
  143.7208  130.8818  150.3777 H   0  0  0  0  0  0  0  0  0  0  0  0
  145.4118  129.8009  151.8527 H   0  0  0  0  0  0  0  0  0  0  0  0
  147.5529  130.0772  154.5646 H   0  0  0  0  0  0  0  0  0  0  0  0
  147.0983  129.3701  153.0404 H   0  0  0  0  0  0  0  0  0  0  0  0
  149.7625  130.2222  152.5906 H   0  0  0  0  0  0  0  0  0  0  0  0
  150.1279  128.1012  152.4304 H   0  0  0  0  0  0  0  0  0  0  0  0
  150.0783  130.6071  155.0423 H   0  0  0  0  0  0  0  0  0  0  0  0
  149.5760  128.9415  155.3553 H   0  0  0  0  0  0  0  0  0  0  0  0
  153.8489  128.6585  153.7841 H   0  0  0  0  0  0  0  0  0  0  0  0
  155.8470  129.7714  154.7229 H   0  0  0  0  0  0  0  0  0  0  0  0
  153.3036  132.2335  157.1957 H   0  0  0  0  0  0  0  0  0  0  0  0
  151.3215  131.1374  156.2726 H   0  0  0  0  0  0  0  0  0  0  0  0
  147.9925  134.5146  152.4752 H   0  0  0  0  0  0  0  0  0  0  0  0
  1  2  1  0  0  0  0
  1 24  1  0  0  0  0
  1 25  1  0  0  0  0
  1 26  1  0  0  0  0
  2 10  1  0  0  0  0
  2  3  2  0  0  0  0
  3  4  1  0  0  0  0
  3 41  1  0  0  0  0
  4  9  2  0  0  0  0
  4  5  1  0  0  0  0
  5  6  2  0  0  0  0
  5 27  1  0  0  0  0
  6  7  1  0  0  0  0
  6 28  1  0  0  0  0
  7  8  2  0  0  0  0
  7 29  1  0  0  0  0
  8  9  1  0  0  0  0
  8 30  1  0  0  0  0
  9 10  1  0  0  0  0
 10 11  1  0  0  0  0
 11 12  1  0  0  0  0
 11 31  1  0  0  0  0
 11 32  1  0  0  0  0
 12 13  1  0  0  0  0
 12 14  1  0  0  0  0
 12 33  1  0  0  0  0
 13 34  1  0  0  0  0
 14 15  1  0  0  0  0
 14 35  1  0  0  0  0
 14 36  1  0  0  0  0
 15 16  1  0  0  0  0
 16 23  1  0  0  0  0
 16 17  2  0  0  0  0
 17 18  1  0  0  0  0
 17 37  1  0  0  0  0
 18 19  2  0  0  0  0
 18 38  1  0  0  0  0
 19 20  1  0  0  0  0
 19 22  1  0  0  0  0
 20 21  3  0  0  0  0
 22 23  2  0  0  0  0
 22 39  1  0  0  0  0
 23 40  1  0  0  0  0
M  CHG  1   3   1
M  END
> <s_m_source_file>
AV-unprocessed.smi

> <i_m_source_file_index>
1884

> <i_lp_mmshare_version>
43012

> <i_f3d_flags>
0

> <s_epik_input>
W2NIXTFbY0hdW2NIXVtjSF1jKGMxMiluKGMobjIpW0NIM10pW0NIMl1bQ0BIXShbT0hdKVtDSDJdT2MzW2NIXVtjSF1jKEMjTilbY0hdW2NIXTM=

> <s_epik_cmdline>
J2VwaWtfcHl0aG9uJywgJy1waCcsICc3LjAnLCAnLXRuJywgJzgnLCAnLW1hJywgJzIwMCcsICctbWV0YWxfYmluZGluZycsICctaW1hZScsICc8aW5maWxlLm1hZT4nLCAnLW9tYWUnLCAnPG91dGZpbGUubWFlPic=

> <r_epik_Ionization_Penalty>
1.04791

> <r_epik_Ionization_Penalty_Charging>
1.04791

> <r_epik_Ionization_Penalty_Neutral>
2.3993e-06

> <r_epik_State_Penalty>
1.10051

> <r_epik_Charging_Adjusted_Penalty>
2.14841

> <i_epik_Tot_Q>
1

> <i_epik_Tot_abs_Q>
1

> <r_epik_Metal_State_Penalty>
5.09283

> <b_epik_Metal_Only>
0

> <s_lp_Force_Field>
OPLS_2005

> <r_lp_Energy>
18.2912

> <b_lp_Chiralities_Consistent>
1

> <s_lp_Variant>
AV-unprocessed.smi:1884-3

> <Gold.Version>
5.8.1

> <Gold.Id.Protein>
6NUR|6NUR_protein|mol2

> <Gold.PLP.Fitness>
47.4431

> <Gold.PLP.PLP>
-41.0354

> <Gold.PLP.part.hbond>
-2.0000

> <Gold.PLP.part.metal>
0.0000

> <Gold.PLP.part.buried>
-4.5400

> <Gold.PLP.part.nonpolar>
-33.5749

> <Gold.PLP.part.repulsive>
0.4508

> <Gold.PLP.ligand.clash>
0.0000

> <Gold.PLP.ligand.torsion>
1.1448

> <Gold.PLP.Chemscore.Hbond>
2.8775

> <Gold.PLP.Chemscore.CHOScore>
0.0000

> <Gold.PLP.Chemscore.Metal>
0.0000

> <Gold.Chemscore.Hbonds>
donor molecule, donor type, donor heavy atom, donor atom, acceptor molecule, acceptor atom, score
      L1  H     3    41       P1  7948  2.00
      L1  H    13    34       P1 10737  0.89

> <Gold.PLP.Chemscore.Internal.Correction>
0.0648

> <Gold.Rescore>
     Score         DG    S(hbond)    S(metal)    S(lipo)     H(rot)  DE(clash)    DE(int)     intcor
     14.62     -15.97       1.45        0.00     100.63       2.39       0.34       1.01       ----

> <Gold.Chemscore.Fitness>
14.6202

> <Gold.Chemscore.DG>
-15.9691

> <Gold.Chemscore.ZeroCoef>
-5.4800

> <Gold.Chemscore.Hbond>
1.4485

> <Gold.Chemscore.Metal>
0.0000

> <Gold.Chemscore.Lipo>
100.6318

> <Gold.Chemscore.Internal_Hbond>
0.0000

> <Gold.Chemscore.DEClash>
0.3381

> <Gold.Chemscore.DEInternal>
1.0108

> <Gold.Chemscore.Rot>
2.3917

> <Gold.Chemscore.Internal.Correction>
   9.000000E+99

> <Gold.Chemscore.Hbonds>
donor molecule, donor type, donor heavy atom, donor atom, acceptor molecule, acceptor atom, score
      L1  H     3    41       P1  7948  0.42
      L1  H    13    34       P1 10737  0.87

> <Gold.Chemscore.Hbond.Weighted>
-4.8381

> <Gold.Chemscore.Metal.Weighted>
-0.0000

> <Gold.Chemscore.Lipo.Weighted>
-11.7739

> <Gold.Chemscore.Internal_Hbond.Weighted>
0.0000

> <Gold.Chemscore.DEClash.Weighted>
0.3381

> <Gold.Chemscore.DEInternal.Weighted>
1.0108

> <Gold.Chemscore.Rot.Weighted>
6.1229

> <Gold.Chemscore.Internal.Correction.Weighted>
   9.000000E+99

> <Gold.Protein.RotatedTorsions>
[ 6907 6896 6895 6894 ] final   28.90 input  -60.11 | X-H torsion
[ 7974 7965 7964 7962 ] final   23.80 input  175.53 | X-H torsion
[ 8008 7997 7996 7995 ] final   83.07 input   59.86 | X-H torsion
[ 10167 10162 10161 10158 ] final  176.95 input  -65.29 | X-H torsion
[ 10718 10713 10712 10709 ] final -110.38 input   66.30 | X-H torsion
[ 10763 10752 10751 10750 ] final -116.53 input  -60.55 | X-H torsion
[ 11005 11000 10999 10996 ] final  -98.25 input  -57.11 | X-H torsion

> <Gold.Protein.ActiveResidues>
 VAL166  LYS551  ARG553  GLY616  TRP617  ASP618  TYR619  PRO620  LYS621  CYS622 
 ASP623  PHE694  ASN695  SER759  ASP760  ASP761  ALA762  ILE779  LEU786  VAL792 
 PHE793  MET794  SER795  GLU796  ALA797  LYS798  CYS799  TRP800  GLU811  SER814 

> <Gold.Protein.RotatedAtoms>
  152.0237  134.9808  160.0570 H   0  0  0  0  0  0  0  0  0  0  0  0  # atno 6907 bound_to 6896
  152.1312  133.4404  159.4730 H   0  0  0  0  0  0  0  0  0  0  0  0  # atno 6908 bound_to 6896
  150.6856  134.2337  159.4488 H   0  0  0  0  0  0  0  0  0  0  0  0  # atno 6909 bound_to 6896
  146.1967  139.7693  142.8792 H   0  0  0  0  0  0  0  0  0  0  0  0  # atno 7974 bound_to 7965
  155.9191  140.3422  155.6158 H   0  0  0  0  0  0  0  0  0  0  0  0  # atno 8008 bound_to 7997
  155.7295  140.0793  157.2314 H   0  0  0  0  0  0  0  0  0  0  0  0  # atno 8009 bound_to 7997
  154.4067  140.1590  156.2480 H   0  0  0  0  0  0  0  0  0  0  0  0  # atno 8010 bound_to 7997
  139.5234  144.2855  152.0510 H   0  0  0  0  0  0  0  0  0  0  0  0  # atno 10167 bound_to 10162
  156.0588  130.5813  150.8230 H   0  0  0  0  0  0  0  0  0  0  0  0  # atno 10718 bound_to 10713
  154.8523  135.4342  154.1836 H   0  0  0  0  0  0  0  0  0  0  0  0  # atno 10763 bound_to 10752
  153.2921  135.6962  153.7289 H   0  0  0  0  0  0  0  0  0  0  0  0  # atno 10764 bound_to 10752
  153.6452  135.3461  155.3058 H   0  0  0  0  0  0  0  0  0  0  0  0  # atno 10765 bound_to 10752
  141.1351  133.8231  157.0814 H   0  0  0  0  0  0  0  0  0  0  0  0  # atno 11005 bound_to 11000
  145.3619  141.0327  143.3280 LP  0  0  0  0  0  0  0  0  0  0  0  0  # atno 17320 bound_to 7965
  144.8596  139.5197  143.6818 LP  0  0  0  0  0  0  0  0  0  0  0  0  # atno 17321 bound_to 7965
  140.2308  144.4370  150.6301 LP  0  0  0  0  0  0  0  0  0  0  0  0  # atno 17342 bound_to 10162
  140.6356  143.2194  151.6401 LP  0  0  0  0  0  0  0  0  0  0  0  0  # atno 17343 bound_to 10162
  157.5580  131.0945  150.9600 LP  0  0  0  0  0  0  0  0  0  0  0  0  # atno 17370 bound_to 10713
  156.9845  130.5539  149.5298 LP  0  0  0  0  0  0  0  0  0  0  0  0  # atno 17371 bound_to 10713
  140.0449  134.9835  157.1030 LP  0  0  0  0  0  0  0  0  0  0  0  0  # atno 17394 bound_to 11000
  140.4078  134.2014  155.7163 LP  0  0  0  0  0  0  0  0  0  0  0  0  # atno 17395 bound_to 11000

$$$$
