AV-unprocessed.smi:2510|AV-procd|sdf|9871|dock2
  -GOLD-   2272013503D 1   1.00000     0.00000
 Structure written by MMmdl.
 48 49  0  0  0  0  0  0  0  0  1 V2000
  150.6679  138.5007  154.7411 C   0  0  0  0  0  0  0  0  0  0  0  0
  149.5049  139.1366  153.9665 C   0  0  0  0  0  0  0  0  0  0  0  0
  148.5277  139.9888  154.8063 C   0  0  0  0  0  0  0  0  0  0  0  0
  148.6350  139.5218  156.2913 C   0  0  0  0  0  0  0  0  0  0  0  0
  147.5186  139.9963  157.2380 C   0  0  0  0  0  0  0  0  0  0  0  0
  148.6568  141.5188  154.5508 C   0  0  2  0  0  0  0  0  0  0  0  0
  149.4138  142.2569  155.5560 N   0  0  0  0  0  0  0  0  0  0  0  0
  150.6722  141.9682  155.9187 C   0  0  0  0  0  0  0  0  0  0  0  0
  151.3461  141.0868  155.3858 O   0  0  0  0  0  0  0  0  0  0  0  0
  151.2516  142.7828  157.0752 C   0  0  0  0  0  0  0  0  0  0  0  0
  152.0403  141.8802  157.9863 C   0  0  0  0  0  0  0  0  0  0  0  0
  152.8693  142.2492  159.0878 C   0  0  0  0  0  0  0  0  0  0  0  0
  153.3304  141.0603  159.5784 C   0  0  0  0  0  0  0  0  0  0  0  0
  154.2282  140.7485  160.7269 C   0  0  0  0  0  0  0  0  0  0  0  0
  152.7928  140.0801  158.7768 N   0  0  0  0  0  0  0  0  0  0  0  0
  152.0054  140.5678  157.8006 N   0  0  0  0  0  0  0  0  0  0  0  0
  147.1394  141.6411  154.7249 C   0  0  1  0  0  0  0  0  0  0  0  0
  146.3814  142.7421  153.9941 C   0  0  0  0  0  0  0  0  0  0  0  0
  147.0906  140.1802  154.2341 C   0  0  1  0  0  0  0  0  0  0  0  0
  147.0685  140.0791  152.8129 O   0  0  0  0  0  0  0  0  0  0  0  0
  146.8498  138.7578  152.3484 C   0  0  0  0  0  0  0  0  0  0  0  0
  152.9516  139.0880  158.8831 H   0  0  0  0  0  0  0  0  0  0  0  0
  151.1946  137.7816  154.1138 H   0  0  0  0  0  0  0  0  0  0  0  0
  150.3187  137.9704  155.6273 H   0  0  0  0  0  0  0  0  0  0  0  0
  151.3998  139.2458  155.0495 H   0  0  0  0  0  0  0  0  0  0  0  0
  149.9075  139.7240  153.1406 H   0  0  0  0  0  0  0  0  0  0  0  0
  148.9572  138.3280  153.4816 H   0  0  0  0  0  0  0  0  0  0  0  0
  148.6928  138.4338  156.3429 H   0  0  0  0  0  0  0  0  0  0  0  0
  149.5661  139.8611  156.7428 H   0  0  0  0  0  0  0  0  0  0  0  0
  147.5952  139.4860  158.1982 H   0  0  0  0  0  0  0  0  0  0  0  0
  146.5218  139.8068  156.8458 H   0  0  0  0  0  0  0  0  0  0  0  0
  147.5982  141.0639  157.4417 H   0  0  0  0  0  0  0  0  0  0  0  0
  148.9569  141.7545  153.5264 H   0  0  0  0  0  0  0  0  0  0  0  0
  148.9328  142.9999  156.0416 H   0  0  0  0  0  0  0  0  0  0  0  0
  151.8780  143.5806  156.6732 H   0  0  0  0  0  0  0  0  0  0  0  0
  150.4459  143.2693  157.6263 H   0  0  0  0  0  0  0  0  0  0  0  0
  153.0833  143.2381  159.4650 H   0  0  0  0  0  0  0  0  0  0  0  0
  154.3344  141.6124  161.3834 H   0  0  0  0  0  0  0  0  0  0  0  0
  155.2211  140.4668  160.3758 H   0  0  0  0  0  0  0  0  0  0  0  0
  153.8310  139.9237  161.3192 H   0  0  0  0  0  0  0  0  0  0  0  0
  146.8857  141.6601  155.7870 H   0  0  0  0  0  0  0  0  0  0  0  0
  146.6262  142.7616  152.9319 H   0  0  0  0  0  0  0  0  0  0  0  0
  146.6259  143.7226  154.4028 H   0  0  0  0  0  0  0  0  0  0  0  0
  145.3038  142.6076  154.0851 H   0  0  0  0  0  0  0  0  0  0  0  0
  146.3244  139.5696  154.7109 H   0  0  0  0  0  0  0  0  0  0  0  0
  146.8026  138.7563  151.2595 H   0  0  0  0  0  0  0  0  0  0  0  0
  145.9136  138.3471  152.7261 H   0  0  0  0  0  0  0  0  0  0  0  0
  147.6654  138.0994  152.6495 H   0  0  0  0  0  0  0  0  0  0  0  0
  1  2  1  0  0  0  0
  1 23  1  0  0  0  0
  1 24  1  0  0  0  0
  1 25  1  0  0  0  0
  2  3  1  0  0  0  0
  2 26  1  0  0  0  0
  2 27  1  0  0  0  0
  3 19  1  0  0  0  0
  3  4  1  0  0  0  0
  3  6  1  0  0  0  0
  4  5  1  0  0  0  0
  4 28  1  0  0  0  0
  4 29  1  0  0  0  0
  5 30  1  0  0  0  0
  5 31  1  0  0  0  0
  5 32  1  0  0  0  0
  6  7  1  0  0  0  0
  6 17  1  0  0  0  0
  6 33  1  0  0  0  0
  7  8  1  0  0  0  0
  7 34  1  0  0  0  0
  8  9  2  0  0  0  0
  8 10  1  0  0  0  0
 10 11  1  0  0  0  0
 10 35  1  0  0  0  0
 10 36  1  0  0  0  0
 11 16  2  0  0  0  0
 11 12  1  0  0  0  0
 12 13  2  0  0  0  0
 12 37  1  0  0  0  0
 13 14  1  0  0  0  0
 13 15  1  0  0  0  0
 14 38  1  0  0  0  0
 14 39  1  0  0  0  0
 14 40  1  0  0  0  0
 15 22  1  0  0  0  0
 15 16  1  0  0  0  0
 17 18  1  0  0  0  0
 17 19  1  0  0  0  0
 17 41  1  0  0  0  0
 18 42  1  0  0  0  0
 18 43  1  0  0  0  0
 18 44  1  0  0  0  0
 19 20  1  0  0  0  0
 19 45  1  0  0  0  0
 20 21  1  0  0  0  0
 21 46  1  0  0  0  0
 21 47  1  0  0  0  0
 21 48  1  0  0  0  0
M  END
> <s_m_source_file>
AV-unprocessed.smi

> <i_m_source_file_index>
2510

> <i_lp_mmshare_version>
43012

> <i_f3d_flags>
0

> <s_epik_input>
W0NIM11PW0NAQEhdMVtDQEhdKFtDSDNdKVtDQEBIXShDMShbQ0gyXVtDSDNdKVtDSDJdW0NIM10pW05IXUMoPU8pW0NIMl1jMltjSF1jKFtDSDNdKVtuSF1uMg==

> <s_epik_cmdline>
J2VwaWtfcHl0aG9uJywgJy1waCcsICc3LjAnLCAnLXRuJywgJzgnLCAnLW1hJywgJzIwMCcsICctbWV0YWxfYmluZGluZycsICctaW1hZScsICc8aW5maWxlLm1hZT4nLCAnLW9tYWUnLCAnPG91dGZpbGUubWFlPic=

> <r_lp_tautomer_probability>
0.5

> <r_epik_Ionization_Penalty>
9.73156e-05

> <r_epik_Ionization_Penalty_Charging>
0

> <r_epik_Ionization_Penalty_Neutral>
9.73156e-05

> <r_epik_State_Penalty>
0.41068

> <r_epik_Charging_Adjusted_Penalty>
0.41068

> <i_epik_Tot_Q>
0

> <i_epik_Tot_abs_Q>
0

> <r_epik_Metal_State_Penalty>
0.410699

> <b_epik_Metal_Only>
0

> <s_lp_Force_Field>
OPLS_2005

> <r_lp_Energy>
28.8176

> <b_lp_Chiralities_Consistent>
1

> <s_lp_Variant>
AV-unprocessed.smi:2510-2

> <Gold.Version>
5.8.1

> <Gold.Id.Protein>
6NUR|6NUR_protein|mol2

> <Gold.PLP.Fitness>
39.9284

> <Gold.PLP.PLP>
-38.1969

> <Gold.PLP.part.hbond>
-1.9989

> <Gold.PLP.part.metal>
0.0000

> <Gold.PLP.part.buried>
-5.3612

> <Gold.PLP.part.nonpolar>
-30.4051

> <Gold.PLP.part.repulsive>
1.3690

> <Gold.PLP.ligand.clash>
0.0000

> <Gold.PLP.ligand.torsion>
1.6553

> <Gold.PLP.Chemscore.Hbond>
1.4080

> <Gold.PLP.Chemscore.CHOScore>
0.0000

> <Gold.PLP.Chemscore.Metal>
0.0000

> <Gold.Chemscore.Hbonds>
donor molecule, donor type, donor heavy atom, donor atom, acceptor molecule, acceptor atom, score
      L1  H     7    34       P1  8028  0.58
      P1  H  7989  7998       L1     9  0.58

> <Gold.PLP.Chemscore.Internal.Correction>
0.8179

> <Gold.Rescore>
     Score         DG    S(hbond)    S(metal)    S(lipo)     H(rot)  DE(clash)    DE(int)     intcor
     10.85     -15.84       1.26        0.00      92.12       1.81       0.25       4.73       ----

> <Gold.Chemscore.Fitness>
10.8546

> <Gold.Chemscore.DG>
-15.8373

> <Gold.Chemscore.ZeroCoef>
-5.4800

> <Gold.Chemscore.Hbond>
1.2614

> <Gold.Chemscore.Metal>
0.0000

> <Gold.Chemscore.Lipo>
92.1226

> <Gold.Chemscore.Internal_Hbond>
0.0000

> <Gold.Chemscore.DEClash>
0.2497

> <Gold.Chemscore.DEInternal>
4.7330

> <Gold.Chemscore.Rot>
1.8102

> <Gold.Chemscore.Internal.Correction>
   9.000000E+99

> <Gold.Chemscore.Hbonds>
donor molecule, donor type, donor heavy atom, donor atom, acceptor molecule, acceptor atom, score
      L1  H     7    34       P1  8028  0.58
      P1  H  7989  7998       L1     9  0.58

> <Gold.Chemscore.Hbond.Weighted>
-4.2131

> <Gold.Chemscore.Metal.Weighted>
-0.0000

> <Gold.Chemscore.Lipo.Weighted>
-10.7783

> <Gold.Chemscore.Internal_Hbond.Weighted>
0.0000

> <Gold.Chemscore.DEClash.Weighted>
0.2497

> <Gold.Chemscore.DEInternal.Weighted>
4.7330

> <Gold.Chemscore.Rot.Weighted>
4.6341

> <Gold.Chemscore.Internal.Correction.Weighted>
   9.000000E+99

> <Gold.Protein.RotatedTorsions>
[ 6907 6896 6895 6894 ] final -143.92 input  -60.11 | X-H torsion
[ 7974 7965 7964 7962 ] final  -86.80 input  175.53 | X-H torsion
[ 8008 7997 7996 7995 ] final  104.63 input   59.86 | X-H torsion
[ 10167 10162 10161 10158 ] final  120.19 input  -65.29 | X-H torsion
[ 10718 10713 10712 10709 ] final  -17.31 input   66.30 | X-H torsion
[ 10763 10752 10751 10750 ] final   19.72 input  -60.55 | X-H torsion
[ 11005 11000 10999 10996 ] final  -28.85 input  -57.11 | X-H torsion

> <Gold.Protein.ActiveResidues>
 VAL166  LYS551  ARG553  GLY616  TRP617  ASP618  TYR619  PRO620  LYS621  CYS622 
 ASP623  PHE694  ASN695  SER759  ASP760  ASP761  ALA762  ILE779  LEU786  VAL792 
 PHE793  MET794  SER795  GLU796  ALA797  LYS798  CYS799  TRP800  GLU811  SER814 

> <Gold.Protein.RotatedAtoms>
  151.1070  133.5201  159.2607 H   0  0  0  0  0  0  0  0  0  0  0  0  # atno 6907 bound_to 6896
  151.2009  135.0442  159.8882 H   0  0  0  0  0  0  0  0  0  0  0  0  # atno 6908 bound_to 6896
  152.5447  134.0899  159.8325 H   0  0  0  0  0  0  0  0  0  0  0  0  # atno 6909 bound_to 6896
  145.4751  140.9558  143.1895 H   0  0  0  0  0  0  0  0  0  0  0  0  # atno 7974 bound_to 7965
  156.1589  140.3144  155.8773 H   0  0  0  0  0  0  0  0  0  0  0  0  # atno 8008 bound_to 7997
  155.3822  140.0488  157.3060 H   0  0  0  0  0  0  0  0  0  0  0  0  # atno 8009 bound_to 7997
  154.5128  140.2170  155.9135 H   0  0  0  0  0  0  0  0  0  0  0  0  # atno 8010 bound_to 7997
  139.5998  144.7053  151.3090 H   0  0  0  0  0  0  0  0  0  0  0  0  # atno 10167 bound_to 10162
  156.5754  130.4760  149.6344 H   0  0  0  0  0  0  0  0  0  0  0  0  # atno 10718 bound_to 10713
  153.1138  135.6703  153.9454 H   0  0  0  0  0  0  0  0  0  0  0  0  # atno 10763 bound_to 10752
  153.8989  135.3038  155.3449 H   0  0  0  0  0  0  0  0  0  0  0  0  # atno 10764 bound_to 10752
  154.7556  135.5013  153.9446 H   0  0  0  0  0  0  0  0  0  0  0  0  # atno 10765 bound_to 10752
  140.9245  133.7377  156.0848 H   0  0  0  0  0  0  0  0  0  0  0  0  # atno 11005 bound_to 11000
  144.7922  139.6305  143.7108 LP  0  0  0  0  0  0  0  0  0  0  0  0  # atno 17320 bound_to 7965
  146.2374  139.5933  142.9514 LP  0  0  0  0  0  0  0  0  0  0  0  0  # atno 17321 bound_to 7965
  140.7240  143.7055  150.7811 LP  0  0  0  0  0  0  0  0  0  0  0  0  # atno 17342 bound_to 10162
  140.0629  143.5137  152.2618 LP  0  0  0  0  0  0  0  0  0  0  0  0  # atno 17343 bound_to 10162
  156.2678  130.6999  151.1788 LP  0  0  0  0  0  0  0  0  0  0  0  0  # atno 17370 bound_to 10713
  157.7339  131.0587  150.5554 LP  0  0  0  0  0  0  0  0  0  0  0  0  # atno 17371 bound_to 10713
  140.7944  134.3580  157.5456 LP  0  0  0  0  0  0  0  0  0  0  0  0  # atno 17394 bound_to 11000
  139.8782  134.9160  156.3144 LP  0  0  0  0  0  0  0  0  0  0  0  0  # atno 17395 bound_to 11000

$$$$
