AV-unprocessed.smi:227|AV-procd|sdf|1730|dock1
  -GOLD-   2262020223D 1   1.00000     0.00000
 Structure written by MMmdl.
 54 58  0  0  0  0  0  0  0  0  1 V2000
  151.3264  136.6385  154.2401 O   0  0  0  0  0  0  0  0  0  0  0  0
  150.4097  135.9968  155.1029 C   0  0  0  0  0  0  0  0  0  0  0  0
  150.0891  136.8710  156.3403 C   0  0  1  0  0  0  0  0  0  0  0  0
  149.0970  138.0176  156.0226 C   0  0  0  0  0  0  0  0  0  0  0  0
  149.3572  139.2247  156.7876 N   0  0  0  0  0  0  0  0  0  0  0  0
  148.5180  140.3055  156.9212 C   0  0  0  0  0  0  0  0  0  0  0  0
  148.9752  141.2720  157.6684 N   0  0  0  0  0  0  0  0  0  0  0  0
  150.2259  140.8283  158.0855 C   0  0  0  0  0  0  0  0  0  0  0  0
  151.2565  141.3663  158.9128 C   0  0  0  0  0  0  0  0  0  0  0  0
  151.1945  142.5764  159.5357 N   0  0  0  0  0  0  0  0  0  0  0  0
  152.2725  143.0337  160.3980 C   0  0  1  0  0  0  0  0  0  0  0  0
  153.4016  143.4091  159.4182 C   0  0  0  0  0  0  0  0  0  0  0  0
  152.5962  143.9544  158.2280 C   0  0  0  0  0  0  0  0  0  0  0  0
  151.1499  143.8019  158.7470 C   0  0  2  0  0  0  0  0  0  0  0  0
  150.8851  144.8888  159.8094 C   0  0  1  0  0  0  0  0  0  0  0  0
  149.3857  145.0818  160.0991 C   0  0  0  0  0  0  0  0  0  0  0  0
  148.7208  143.8364  160.0860 O   0  0  0  0  0  0  0  0  0  0  0  0
  151.6787  144.3171  161.0025 C   0  0  0  0  0  0  0  0  0  0  0  0
  152.3834  140.6198  159.0618 N   0  0  0  0  0  0  0  0  0  0  0  0
  152.4934  139.4262  158.4732 C   0  0  0  0  0  0  0  0  0  0  0  0
  151.6120  138.7974  157.6957 N   0  0  0  0  0  0  0  0  0  0  0  0
  150.4844  139.5436  157.5245 C   0  0  0  0  0  0  0  0  0  0  0  0
  149.6167  136.0243  157.5491 C   0  0  2  0  0  0  0  0  0  0  0  0
  148.2774  135.3339  157.3606 C   0  0  0  0  0  0  0  0  0  0  0  0
  147.8828  135.0055  158.7957 C   0  0  0  0  0  0  0  0  0  0  0  0
  148.4040  136.0673  159.5862 O   0  0  0  0  0  0  0  0  0  0  0  0
  149.3400  136.8259  158.8260 C   0  0  0  0  0  0  0  0  0  0  0  0
  151.1531  136.3582  153.3544 H   0  0  0  0  0  0  0  0  0  0  0  0
  149.5034  135.7714  154.5412 H   0  0  0  0  0  0  0  0  0  0  0  0
  150.8233  135.0328  155.3993 H   0  0  0  0  0  0  0  0  0  0  0  0
  151.0294  137.3431  156.6297 H   0  0  0  0  0  0  0  0  0  0  0  0
  149.1274  138.2619  154.9600 H   0  0  0  0  0  0  0  0  0  0  0  0
  148.0734  137.7100  156.2363 H   0  0  0  0  0  0  0  0  0  0  0  0
  147.5484  140.3519  156.4469 H   0  0  0  0  0  0  0  0  0  0  0  0
  152.5878  142.3383  161.1733 H   0  0  0  0  0  0  0  0  0  0  0  0
  154.0931  144.1422  159.8349 H   0  0  0  0  0  0  0  0  0  0  0  0
  153.9753  142.5290  159.1245 H   0  0  0  0  0  0  0  0  0  0  0  0
  152.8514  144.9845  157.9779 H   0  0  0  0  0  0  0  0  0  0  0  0
  152.7627  143.3428  157.3403 H   0  0  0  0  0  0  0  0  0  0  0  0
  150.4075  143.8106  157.9479 H   0  0  0  0  0  0  0  0  0  0  0  0
  151.3033  145.8424  159.4832 H   0  0  0  0  0  0  0  0  0  0  0  0
  149.2466  145.5349  161.0811 H   0  0  0  0  0  0  0  0  0  0  0  0
  148.9245  145.7481  159.3691 H   0  0  0  0  0  0  0  0  0  0  0  0
  147.9052  143.9367  159.6191 H   0  0  0  0  0  0  0  0  0  0  0  0
  151.0218  144.0727  161.8385 H   0  0  0  0  0  0  0  0  0  0  0  0
  152.4436  145.0029  161.3683 H   0  0  0  0  0  0  0  0  0  0  0  0
  153.4202  138.9007  158.6505 H   0  0  0  0  0  0  0  0  0  0  0  0
  150.3636  135.2612  157.7741 H   0  0  0  0  0  0  0  0  0  0  0  0
  147.5515  136.0189  156.9199 H   0  0  0  0  0  0  0  0  0  0  0  0
  148.3343  134.4440  156.7329 H   0  0  0  0  0  0  0  0  0  0  0  0
  146.8046  134.9046  158.9212 H   0  0  0  0  0  0  0  0  0  0  0  0
  148.3507  134.0730  159.1143 H   0  0  0  0  0  0  0  0  0  0  0  0
  150.2463  137.0161  159.4015 H   0  0  0  0  0  0  0  0  0  0  0  0
  148.8839  137.7880  158.5893 H   0  0  0  0  0  0  0  0  0  0  0  0
  1  2  1  0  0  0  0
  1 28  1  0  0  0  0
  2  3  1  0  0  0  0
  2 29  1  0  0  0  0
  2 30  1  0  0  0  0
  3  4  1  0  0  0  0
  3 23  1  0  0  0  0
  3 31  1  0  0  0  0
  4  5  1  0  0  0  0
  4 32  1  0  0  0  0
  4 33  1  0  0  0  0
  5 22  1  0  0  0  0
  5  6  1  0  0  0  0
  6  7  2  0  0  0  0
  6 34  1  0  0  0  0
  7  8  1  0  0  0  0
  8 22  2  0  0  0  0
  8  9  1  0  0  0  0
  9 10  1  0  0  0  0
  9 19  2  0  0  0  0
 10 14  1  0  0  0  0
 10 11  1  0  0  0  0
 11 18  1  0  0  0  0
 11 12  1  0  0  0  0
 11 35  1  0  0  0  0
 12 13  1  0  0  0  0
 12 36  1  0  0  0  0
 12 37  1  0  0  0  0
 13 14  1  0  0  0  0
 13 38  1  0  0  0  0
 13 39  1  0  0  0  0
 14 15  1  0  0  0  0
 14 40  1  0  0  0  0
 15 16  1  0  0  0  0
 15 18  1  0  0  0  0
 15 41  1  0  0  0  0
 16 17  1  0  0  0  0
 16 42  1  0  0  0  0
 16 43  1  0  0  0  0
 17 44  1  0  0  0  0
 18 45  1  0  0  0  0
 18 46  1  0  0  0  0
 19 20  1  0  0  0  0
 20 21  2  0  0  0  0
 20 47  1  0  0  0  0
 21 22  1  0  0  0  0
 23 27  1  0  0  0  0
 23 24  1  0  0  0  0
 23 48  1  0  0  0  0
 24 25  1  0  0  0  0
 24 49  1  0  0  0  0
 24 50  1  0  0  0  0
 25 26  1  0  0  0  0
 25 51  1  0  0  0  0
 25 52  1  0  0  0  0
 26 27  1  0  0  0  0
 27 53  1  0  0  0  0
 27 54  1  0  0  0  0
M  END
> <s_m_source_file>
AV-unprocessed.smi

> <i_m_source_file_index>
227

> <i_lp_mmshare_version>
43012

> <i_f3d_flags>
0

> <s_epik_input>
W0NIMl0xT1tDSDJdW0NIMl1bQ0BIXTFbQ0BIXShbQ0gyXVtPSF0pW0NIMl1uKFtjSF1uMiljKGMyMyluW2NIXW5jM04oW0NASF00NSlbQ0BASF0oW0NIMl1bQ0gyXTQpW0NASF0oW0NIMl01KVtDSDJdW09IXQ==

> <s_epik_cmdline>
J2VwaWtfcHl0aG9uJywgJy1waCcsICc3LjAnLCAnLXRuJywgJzgnLCAnLW1hJywgJzIwMCcsICctbWV0YWxfYmluZGluZycsICctaW1hZScsICc8aW5maWxlLm1hZT4nLCAnLW9tYWUnLCAnPG91dGZpbGUubWFlPic=

> <r_lp_tautomer_probability>
1

> <r_epik_Ionization_Penalty>
0.0055791

> <r_epik_Ionization_Penalty_Charging>
0

> <r_epik_Ionization_Penalty_Neutral>
0.0055791

> <r_epik_State_Penalty>
0.00401299

> <r_epik_Charging_Adjusted_Penalty>
0.00401299

> <i_epik_Tot_Q>
0

> <i_epik_Tot_abs_Q>
0

> <r_epik_Metal_State_Penalty>
-0

> <b_epik_Metal_Only>
0

> <s_lp_Force_Field>
OPLS_2005

> <r_lp_Energy>
89.0098

> <b_lp_Chiralities_Consistent>
1

> <s_lp_Variant>
AV-unprocessed.smi:227-4

> <Gold.Version>
5.8.1

> <Gold.Id.Protein>
6NUR|6NUR_protein|mol2

> <Gold.PLP.Fitness>
47.3353

> <Gold.PLP.PLP>
-40.5580

> <Gold.PLP.part.hbond>
-3.5961

> <Gold.PLP.part.metal>
0.0000

> <Gold.PLP.part.buried>
-8.3729

> <Gold.PLP.part.nonpolar>
-29.4331

> <Gold.PLP.part.repulsive>
0.0579

> <Gold.PLP.ligand.clash>
0.0000

> <Gold.PLP.ligand.torsion>
0.9802

> <Gold.PLP.Chemscore.Hbond>
2.7360

> <Gold.PLP.Chemscore.CHOScore>
0.0000

> <Gold.PLP.Chemscore.Metal>
0.0000

> <Gold.Chemscore.Hbonds>
donor molecule, donor type, donor heavy atom, donor atom, acceptor molecule, acceptor atom, score
      L1  H     1    28       P1  7949  1.00
      P1  H  6933  6944       L1    17  0.72
      P1  H 10752 10763       L1     1  1.00

> <Gold.PLP.Chemscore.Internal.Correction>
0.5298

> <Gold.Rescore>
     Score         DG    S(hbond)    S(metal)    S(lipo)     H(rot)  DE(clash)    DE(int)     intcor
     10.38     -13.87       1.78        0.00      99.86       3.61       0.00       3.48       ----

> <Gold.Chemscore.Fitness>
10.3812

> <Gold.Chemscore.DG>
-13.8665

> <Gold.Chemscore.ZeroCoef>
-5.4800

> <Gold.Chemscore.Hbond>
1.7774

> <Gold.Chemscore.Metal>
0.0000

> <Gold.Chemscore.Lipo>
99.8639

> <Gold.Chemscore.Internal_Hbond>
0.0000

> <Gold.Chemscore.DEClash>
0.0018

> <Gold.Chemscore.DEInternal>
3.4835

> <Gold.Chemscore.Rot>
3.6071

> <Gold.Chemscore.Internal.Correction>
   9.000000E+99

> <Gold.Chemscore.Hbonds>
donor molecule, donor type, donor heavy atom, donor atom, acceptor molecule, acceptor atom, score
      L1  H     1    28       P1  7949  0.45
      P1  H  6933  6944       L1    17  0.48
      P1  H 10752 10763       L1     1  0.06

> <Gold.Chemscore.Hbond.Weighted>
-5.9367

> <Gold.Chemscore.Metal.Weighted>
-0.0000

> <Gold.Chemscore.Lipo.Weighted>
-11.6841

> <Gold.Chemscore.Internal_Hbond.Weighted>
0.0000

> <Gold.Chemscore.DEClash.Weighted>
0.0018

> <Gold.Chemscore.DEInternal.Weighted>
3.4835

> <Gold.Chemscore.Rot.Weighted>
9.2342

> <Gold.Chemscore.Internal.Correction.Weighted>
   9.000000E+99

> <Gold.Protein.RotatedTorsions>
[ 6907 6896 6895 6894 ] final  -87.77 input  -60.11 | X-H torsion
[ 7974 7965 7964 7962 ] final  102.17 input  175.53 | X-H torsion
[ 8008 7997 7996 7995 ] final  -59.79 input   59.86 | X-H torsion
[ 10167 10162 10161 10158 ] final  143.07 input  -65.29 | X-H torsion
[ 10718 10713 10712 10709 ] final    7.70 input   66.30 | X-H torsion
[ 10763 10752 10751 10750 ] final   63.60 input  -60.55 | X-H torsion
[ 11005 11000 10999 10996 ] final   26.97 input  -57.11 | X-H torsion

> <Gold.Protein.ActiveResidues>
 VAL166  LYS551  ARG553  GLY616  TRP617  ASP618  TYR619  PRO620  LYS621  CYS622 
 ASP623  PHE694  ASN695  SER759  ASP760  ASP761  ALA762  ILE779  LEU786  VAL792 
 PHE793  MET794  SER795  GLU796  ALA797  LYS798  CYS799  TRP800  GLU811  SER814 

> <Gold.Protein.RotatedAtoms>
  150.6867  134.2844  159.4640 H   0  0  0  0  0  0  0  0  0  0  0  0  # atno 6907 bound_to 6896
  152.0755  134.9503  160.0583 H   0  0  0  0  0  0  0  0  0  0  0  0  # atno 6908 bound_to 6896
  152.0876  133.4149  159.4566 H   0  0  0  0  0  0  0  0  0  0  0  0  # atno 6909 bound_to 6896
  145.3627  139.2414  143.3498 H   0  0  0  0  0  0  0  0  0  0  0  0  # atno 7974 bound_to 7965
  154.4369  140.1054  156.6172 H   0  0  0  0  0  0  0  0  0  0  0  0  # atno 8008 bound_to 7997
  155.5746  140.3490  155.4505 H   0  0  0  0  0  0  0  0  0  0  0  0  # atno 8009 bound_to 7997
  156.0364  140.1272  157.0193 H   0  0  0  0  0  0  0  0  0  0  0  0  # atno 8010 bound_to 7997
  139.4978  144.6065  151.6368 H   0  0  0  0  0  0  0  0  0  0  0  0  # atno 10167 bound_to 10162
  156.9408  130.5861  149.5652 H   0  0  0  0  0  0  0  0  0  0  0  0  # atno 10718 bound_to 10713
  153.0024  135.5423  154.6377 H   0  0  0  0  0  0  0  0  0  0  0  0  # atno 10763 bound_to 10752
  154.5639  135.2836  155.0894 H   0  0  0  0  0  0  0  0  0  0  0  0  # atno 10764 bound_to 10752
  154.2086  135.6471  153.5161 H   0  0  0  0  0  0  0  0  0  0  0  0  # atno 10765 bound_to 10752
  140.3313  134.2434  155.7702 H   0  0  0  0  0  0  0  0  0  0  0  0  # atno 11005 bound_to 11000
  146.2920  140.4264  142.8736 LP  0  0  0  0  0  0  0  0  0  0  0  0  # atno 17320 bound_to 7965
  144.8635  140.7172  143.6092 LP  0  0  0  0  0  0  0  0  0  0  0  0  # atno 17321 bound_to 7965
  140.5728  144.0080  150.6225 LP  0  0  0  0  0  0  0  0  0  0  0  0  # atno 17342 bound_to 10162
  140.3203  143.3141  152.0790 LP  0  0  0  0  0  0  0  0  0  0  0  0  # atno 17343 bound_to 10162
  156.0405  130.5488  150.8759 LP  0  0  0  0  0  0  0  0  0  0  0  0  # atno 17370 bound_to 10713
  157.5786  131.0946  150.9307 LP  0  0  0  0  0  0  0  0  0  0  0  0  # atno 17371 bound_to 10713
  141.2062  133.7838  157.0188 LP  0  0  0  0  0  0  0  0  0  0  0  0  # atno 17394 bound_to 11000
  140.0858  134.9622  157.1697 LP  0  0  0  0  0  0  0  0  0  0  0  0  # atno 17395 bound_to 11000

$$$$
