AV-unprocessed.smi:763|AV-procd|sdf|3639|dock8
  -GOLD-   22720 1 43D 1   1.00000     0.00000
 Structure written by MMmdl.
 43 44  0  0  0  0  0  0  0  0  2 V2000
  148.7781  145.6014  160.9781 C   0  0  0  0  0  0  0  0  0  0  0  0
  149.6876  144.6235  160.5061 O   0  0  0  0  0  0  0  0  0  0  0  0
  150.4863  145.0976  159.4344 C   0  0  0  0  0  0  0  0  0  0  0  0
  151.7267  144.2096  159.2999 C   0  0  0  0  0  0  0  0  0  0  0  0
  151.3014  142.8596  159.1475 O   0  0  0  0  0  0  0  0  0  0  0  0
  152.1291  141.8418  159.5850 C   0  0  0  0  0  0  0  0  0  0  0  0
  153.1520  142.1663  160.4166 N   0  0  0  0  0  0  0  0  0  0  0  0
  153.9649  141.1835  160.8496 C   0  0  0  0  0  0  0  0  0  0  0  0
  153.8044  139.8385  160.4789 C   0  0  0  0  0  0  0  0  0  0  0  0
  152.7432  139.5078  159.6173 C   0  0  0  0  0  0  0  0  0  0  0  0
  151.8692  140.5187  159.1465 C   0  0  0  0  0  0  0  0  0  0  0  0
  150.8336  140.2700  158.3265 N   0  5  0  0  0  0  0  0  0  0  0  0
  150.7205  140.6843  156.7662 S   0  0  0  0  0  0  0  0  0  0  0  0
  150.7007  142.1465  156.6024 O   0  0  0  0  0  0  0  0  0  0  0  0
  151.6890  139.9423  155.9453 O   0  0  0  0  0  0  0  0  0  0  0  0
  149.0006  140.0570  156.3660 C   0  0  1  0  0  0  0  0  0  0  0  0
  147.9389  140.7059  157.2792 C   0  0  0  0  0  0  0  0  0  0  0  0
  147.6842  142.1778  156.9119 C   0  0  0  0  0  0  0  0  0  0  0  0
  147.2323  142.3069  155.4485 C   0  0  0  0  0  0  0  0  0  0  0  0
  148.2508  141.6767  154.4848 C   0  0  0  0  0  0  0  0  0  0  0  0
  148.5771  140.2213  154.8823 C   0  0  1  0  0  0  0  0  0  0  0  0
  149.5347  139.6716  154.0005 O   0  0  0  0  0  0  0  0  0  0  0  0
  148.1932  145.1909  161.8009 H   0  0  0  0  0  0  0  0  0  0  0  0
  148.0855  145.9061  160.1922 H   0  0  0  0  0  0  0  0  0  0  0  0
  149.3024  146.4846  161.3452 H   0  0  0  0  0  0  0  0  0  0  0  0
  149.9236  145.1083  158.4995 H   0  0  0  0  0  0  0  0  0  0  0  0
  150.7931  146.1234  159.6444 H   0  0  0  0  0  0  0  0  0  0  0  0
  152.2908  144.5155  158.4175 H   0  0  0  0  0  0  0  0  0  0  0  0
  152.3729  144.3275  160.1714 H   0  0  0  0  0  0  0  0  0  0  0  0
  154.7667  141.4780  161.5104 H   0  0  0  0  0  0  0  0  0  0  0  0
  154.4767  139.0776  160.8459 H   0  0  0  0  0  0  0  0  0  0  0  0
  152.6142  138.4756  159.3275 H   0  0  0  0  0  0  0  0  0  0  0  0
  149.0108  138.9929  156.6043 H   0  0  0  0  0  0  0  0  0  0  0  0
  147.0034  140.1531  157.1856 H   0  0  0  0  0  0  0  0  0  0  0  0
  148.2253  140.6196  158.3273 H   0  0  0  0  0  0  0  0  0  0  0  0
  146.9230  142.5959  157.5709 H   0  0  0  0  0  0  0  0  0  0  0  0
  148.5876  142.7672  157.0721 H   0  0  0  0  0  0  0  0  0  0  0  0
  146.2650  141.8187  155.3240 H   0  0  0  0  0  0  0  0  0  0  0  0
  147.0832  143.3568  155.1956 H   0  0  0  0  0  0  0  0  0  0  0  0
  147.8510  141.6991  153.4705 H   0  0  0  0  0  0  0  0  0  0  0  0
  149.1488  142.2906  154.4596 H   0  0  0  0  0  0  0  0  0  0  0  0
  147.6688  139.6347  154.7390 H   0  0  0  0  0  0  0  0  0  0  0  0
  149.1414  139.5831  153.1456 H   0  0  0  0  0  0  0  0  0  0  0  0
  1  2  1  0  0  0  0
  1 23  1  0  0  0  0
  1 24  1  0  0  0  0
  1 25  1  0  0  0  0
  2  3  1  0  0  0  0
  3  4  1  0  0  0  0
  3 26  1  0  0  0  0
  3 27  1  0  0  0  0
  4  5  1  0  0  0  0
  4 28  1  0  0  0  0
  4 29  1  0  0  0  0
  5  6  1  0  0  0  0
  6 11  1  0  0  0  0
  6  7  2  0  0  0  0
  7  8  1  0  0  0  0
  8  9  2  0  0  0  0
  8 30  1  0  0  0  0
  9 10  1  0  0  0  0
  9 31  1  0  0  0  0
 10 11  2  0  0  0  0
 10 32  1  0  0  0  0
 11 12  1  0  0  0  0
 12 13  1  0  0  0  0
 13 14  2  0  0  0  0
 13 15  2  0  0  0  0
 13 16  1  0  0  0  0
 16 21  1  0  0  0  0
 16 17  1  0  0  0  0
 16 33  1  0  0  0  0
 17 18  1  0  0  0  0
 17 34  1  0  0  0  0
 17 35  1  0  0  0  0
 18 19  1  0  0  0  0
 18 36  1  0  0  0  0
 18 37  1  0  0  0  0
 19 20  1  0  0  0  0
 19 38  1  0  0  0  0
 19 39  1  0  0  0  0
 20 21  1  0  0  0  0
 20 40  1  0  0  0  0
 20 41  1  0  0  0  0
 21 22  1  0  0  0  0
 21 42  1  0  0  0  0
 22 43  1  0  0  0  0
M  CHG  1  12  -1
M  END
> <s_m_source_file>
AV-unprocessed.smi

> <i_m_source_file_index>
763

> <i_lp_mmshare_version>
43012

> <i_f3d_flags>
0

> <s_epik_input>
W0NIM11PW0NIMl1bQ0gyXU9jMW5bY0hdW2NIXVtjSF1jMVtOSF1TKD1PKSg9TylbQ0BASF0yW0NIMl1bQ0gyXVtDSDJdW0NIMl1bQ0BIXTJbT0hd

> <s_epik_cmdline>
J2VwaWtfcHl0aG9uJywgJy1waCcsICc3LjAnLCAnLXRuJywgJzgnLCAnLW1hJywgJzIwMCcsICctbWV0YWxfYmluZGluZycsICctaW1hZScsICc8aW5maWxlLm1hZT4nLCAnLW9tYWUnLCAnPG91dGZpbGUubWFlPic=

> <r_epik_Ionization_Penalty>
0.985866

> <r_epik_Ionization_Penalty_Charging>
0.984689

> <r_epik_Ionization_Penalty_Neutral>
0.00117669

> <r_epik_State_Penalty>
1.03185

> <r_epik_Charging_Adjusted_Penalty>
2.01654

> <i_epik_Tot_Q>
-1

> <i_epik_Tot_abs_Q>
1

> <r_epik_Metal_State_Penalty>
0.379327

> <b_epik_Metal_Only>
0

> <s_lp_Force_Field>
OPLS_2005

> <r_lp_Energy>
9.05773

> <b_lp_Chiralities_Consistent>
1

> <s_lp_Variant>
AV-unprocessed.smi:763-6

> <Gold.Version>
5.8.1

> <Gold.Id.Protein>
6NUR|6NUR_protein|mol2

> <Gold.PLP.Fitness>
45.2458

> <Gold.PLP.PLP>
-38.5636

> <Gold.PLP.part.hbond>
-4.0000

> <Gold.PLP.part.metal>
0.0000

> <Gold.PLP.part.buried>
-5.2439

> <Gold.PLP.part.nonpolar>
-29.0277

> <Gold.PLP.part.repulsive>
0.2596

> <Gold.PLP.ligand.clash>
0.0000

> <Gold.PLP.ligand.torsion>
1.7991

> <Gold.PLP.Chemscore.Hbond>
3.0326

> <Gold.PLP.Chemscore.CHOScore>
0.0000

> <Gold.PLP.Chemscore.Metal>
0.0000

> <Gold.Chemscore.Hbonds>
donor molecule, donor type, donor heavy atom, donor atom, acceptor molecule, acceptor atom, score
      L1  H    22    43       P1  7957  0.66

> <Gold.PLP.Chemscore.Internal.Correction>
1.1827

> <Gold.Rescore>
     Score         DG    S(hbond)    S(metal)    S(lipo)     H(rot)  DE(clash)    DE(int)     intcor
     13.65     -17.22       2.42        0.00      82.55       2.35       0.12       3.45       ----

> <Gold.Chemscore.Fitness>
13.6474

> <Gold.Chemscore.DG>
-17.2169

> <Gold.Chemscore.ZeroCoef>
-5.4800

> <Gold.Chemscore.Hbond>
2.4241

> <Gold.Chemscore.Metal>
0.0000

> <Gold.Chemscore.Lipo>
82.5539

> <Gold.Chemscore.Internal_Hbond>
0.0000

> <Gold.Chemscore.DEClash>
0.1211

> <Gold.Chemscore.DEInternal>
3.4484

> <Gold.Chemscore.Rot>
2.3509

> <Gold.Chemscore.Internal.Correction>
   9.000000E+99

> <Gold.Chemscore.Hbonds>
donor molecule, donor type, donor heavy atom, donor atom, acceptor molecule, acceptor atom, score
      L1  H    22    43       P1  7957  0.64
      P1  H  7989  7998       L1    22  0.01

> <Gold.Chemscore.Hbond.Weighted>
-8.0963

> <Gold.Chemscore.Metal.Weighted>
-0.0000

> <Gold.Chemscore.Lipo.Weighted>
-9.6588

> <Gold.Chemscore.Internal_Hbond.Weighted>
0.0000

> <Gold.Chemscore.DEClash.Weighted>
0.1211

> <Gold.Chemscore.DEInternal.Weighted>
3.4484

> <Gold.Chemscore.Rot.Weighted>
6.0182

> <Gold.Chemscore.Internal.Correction.Weighted>
   9.000000E+99

> <Gold.Protein.RotatedTorsions>
[ 6907 6896 6895 6894 ] final    1.94 input  -60.11 | X-H torsion
[ 7974 7965 7964 7962 ] final    1.03 input  175.53 | X-H torsion
[ 8008 7997 7996 7995 ] final  -24.99 input   59.86 | X-H torsion
[ 10167 10162 10161 10158 ] final -178.87 input  -65.29 | X-H torsion
[ 10718 10713 10712 10709 ] final  100.95 input   66.30 | X-H torsion
[ 10763 10752 10751 10750 ] final   33.86 input  -60.55 | X-H torsion
[ 11005 11000 10999 10996 ] final  115.66 input  -57.11 | X-H torsion

> <Gold.Protein.ActiveResidues>
 VAL166  LYS551  ARG553  GLY616  TRP617  ASP618  TYR619  PRO620  LYS621  CYS622 
 ASP623  PHE694  ASN695  SER759  ASP760  ASP761  ALA762  ILE779  LEU786  VAL792 
 PHE793  MET794  SER795  GLU796  ALA797  LYS798  CYS799  TRP800  GLU811  SER814 

> <Gold.Protein.RotatedAtoms>
  151.6008  135.1047  160.0059 H   0  0  0  0  0  0  0  0  0  0  0  0  # atno 6907 bound_to 6896
  152.4259  133.7190  159.6533 H   0  0  0  0  0  0  0  0  0  0  0  0  # atno 6908 bound_to 6896
  150.8148  133.8285  159.3188 H   0  0  0  0  0  0  0  0  0  0  0  0  # atno 6909 bound_to 6896
  146.2438  140.1048  142.8346 H   0  0  0  0  0  0  0  0  0  0  0  0  # atno 7974 bound_to 7965
  154.4499  140.1938  156.0550 H   0  0  0  0  0  0  0  0  0  0  0  0  # atno 8008 bound_to 7997
  156.0626  140.3295  155.7452 H   0  0  0  0  0  0  0  0  0  0  0  0  # atno 8009 bound_to 7997
  155.5388  140.0584  157.2865 H   0  0  0  0  0  0  0  0  0  0  0  0  # atno 8010 bound_to 7997
  139.5412  144.2358  152.0899 H   0  0  0  0  0  0  0  0  0  0  0  0  # atno 10167 bound_to 10162
  157.6841  131.0712  150.5178 H   0  0  0  0  0  0  0  0  0  0  0  0  # atno 10718 bound_to 10713
  153.0191  135.6376  154.1577 H   0  0  0  0  0  0  0  0  0  0  0  0  # atno 10763 bound_to 10752
  154.1314  135.2840  155.3186 H   0  0  0  0  0  0  0  0  0  0  0  0  # atno 10764 bound_to 10752
  154.6192  135.5530  153.7618 H   0  0  0  0  0  0  0  0  0  0  0  0  # atno 10765 bound_to 10752
  139.9017  134.9587  156.7080 H   0  0  0  0  0  0  0  0  0  0  0  0  # atno 11005 bound_to 11000
  145.0538  140.9037  143.4980 LP  0  0  0  0  0  0  0  0  0  0  0  0  # atno 17320 bound_to 7965
  145.1150  139.2731  143.5617 LP  0  0  0  0  0  0  0  0  0  0  0  0  # atno 17321 bound_to 7965
  140.1837  144.4820  150.6515 LP  0  0  0  0  0  0  0  0  0  0  0  0  # atno 17342 bound_to 10162
  140.6642  143.2262  151.5782 LP  0  0  0  0  0  0  0  0  0  0  0  0  # atno 17343 bound_to 10162
  156.5492  130.4227  149.6116 LP  0  0  0  0  0  0  0  0  0  0  0  0  # atno 17370 bound_to 10713
  156.2917  130.7128  151.1978 LP  0  0  0  0  0  0  0  0  0  0  0  0  # atno 17371 bound_to 10713
  140.7098  133.9233  155.8077 LP  0  0  0  0  0  0  0  0  0  0  0  0  # atno 17394 bound_to 11000
  141.0308  134.0758  157.4016 LP  0  0  0  0  0  0  0  0  0  0  0  0  # atno 17395 bound_to 11000

$$$$
