AV-unprocessed.smi:2183|AV-procd|sdf|8865|dock4
  -GOLD-   2272012 63D 1   1.00000     0.00000
 Structure written by MMmdl.
 40 42  0  0  0  0  0  0  0  0  1 V2000
  150.2170  139.9055  154.2234 O   0  0  0  0  0  0  0  0  0  0  0  0
  149.9299  139.5482  155.5579 C   0  0  0  0  0  0  0  0  0  0  0  0
  150.6600  140.3926  156.5577 C   0  0  0  0  0  0  0  0  0  0  0  0
  150.5999  141.7244  156.5221 N   0  0  0  0  0  0  0  0  0  0  0  0
  151.3755  142.0945  157.6028 C   0  0  0  0  0  0  0  0  0  0  0  0
  151.7004  143.3753  158.1042 C   0  0  0  0  0  0  0  0  0  0  0  0
  152.5174  143.5085  159.2461 C   0  0  0  0  0  0  0  0  0  0  0  0
  153.0193  142.3656  159.9017 C   0  0  0  0  0  0  0  0  0  0  0  0
  152.7089  141.0804  159.4172 C   0  0  0  0  0  0  0  0  0  0  0  0
  151.8954  140.9528  158.2751 C   0  0  0  0  0  0  0  0  0  0  0  0
  151.4161  139.8628  157.5544 N   0  0  0  0  0  0  0  0  0  0  0  0
  151.6790  138.4610  157.8577 C   0  0  0  0  0  0  0  0  0  0  0  0
  151.1623  138.0439  159.2500 C   0  0  2  0  0  0  0  0  0  0  0  0
  152.0878  137.1733  159.8681 O   0  0  0  0  0  0  0  0  0  0  0  0
  149.8019  137.3360  159.1796 C   0  0  0  0  0  0  0  0  0  0  0  0
  149.1534  137.4651  160.4377 O   0  0  0  0  0  0  0  0  0  0  0  0
  148.4242  136.3956  160.9099 C   0  0  0  0  0  0  0  0  0  0  0  0
  147.9735  136.4696  162.2441 C   0  0  0  0  0  0  0  0  0  0  0  0
  147.2227  135.4220  162.8109 C   0  0  0  0  0  0  0  0  0  0  0  0
  146.9134  134.2838  162.0433 C   0  0  0  0  0  0  0  0  0  0  0  0
  145.9933  132.9985  162.7344 Cl  0  0  0  0  0  0  0  0  0  0  0  0
  147.3566  134.1965  160.7104 C   0  0  0  0  0  0  0  0  0  0  0  0
  148.1077  135.2449  160.1439 C   0  0  0  0  0  0  0  0  0  0  0  0
  149.7791  139.2968  153.6486 H   0  0  0  0  0  0  0  0  0  0  0  0
  148.8559  139.6505  155.7174 H   0  0  0  0  0  0  0  0  0  0  0  0
  150.1657  138.4961  155.7180 H   0  0  0  0  0  0  0  0  0  0  0  0
  151.3188  144.2566  157.6107 H   0  0  0  0  0  0  0  0  0  0  0  0
  152.7589  144.4921  159.6214 H   0  0  0  0  0  0  0  0  0  0  0  0
  153.6425  142.4762  160.7769 H   0  0  0  0  0  0  0  0  0  0  0  0
  153.0912  140.2035  159.9183 H   0  0  0  0  0  0  0  0  0  0  0  0
  151.1955  137.8605  157.0865 H   0  0  0  0  0  0  0  0  0  0  0  0
  152.7449  138.2533  157.7757 H   0  0  0  0  0  0  0  0  0  0  0  0
  151.0679  138.9223  159.8889 H   0  0  0  0  0  0  0  0  0  0  0  0
  152.9550  137.3899  159.5605 H   0  0  0  0  0  0  0  0  0  0  0  0
  149.1950  137.7702  158.3832 H   0  0  0  0  0  0  0  0  0  0  0  0
  149.9491  136.2778  158.9560 H   0  0  0  0  0  0  0  0  0  0  0  0
  148.2065  137.3401  162.8400 H   0  0  0  0  0  0  0  0  0  0  0  0
  146.8855  135.4942  163.8345 H   0  0  0  0  0  0  0  0  0  0  0  0
  147.1209  133.3241  160.1188 H   0  0  0  0  0  0  0  0  0  0  0  0
  148.4298  135.1412  159.1191 H   0  0  0  0  0  0  0  0  0  0  0  0
  1  2  1  0  0  0  0
  1 24  1  0  0  0  0
  2  3  1  0  0  0  0
  2 25  1  0  0  0  0
  2 26  1  0  0  0  0
  3 11  1  0  0  0  0
  3  4  2  0  0  0  0
  4  5  1  0  0  0  0
  5 10  2  0  0  0  0
  5  6  1  0  0  0  0
  6  7  2  0  0  0  0
  6 27  1  0  0  0  0
  7  8  1  0  0  0  0
  7 28  1  0  0  0  0
  8  9  2  0  0  0  0
  8 29  1  0  0  0  0
  9 10  1  0  0  0  0
  9 30  1  0  0  0  0
 10 11  1  0  0  0  0
 11 12  1  0  0  0  0
 12 13  1  0  0  0  0
 12 31  1  0  0  0  0
 12 32  1  0  0  0  0
 13 14  1  0  0  0  0
 13 15  1  0  0  0  0
 13 33  1  0  0  0  0
 14 34  1  0  0  0  0
 15 16  1  0  0  0  0
 15 35  1  0  0  0  0
 15 36  1  0  0  0  0
 16 17  1  0  0  0  0
 17 23  1  0  0  0  0
 17 18  2  0  0  0  0
 18 19  1  0  0  0  0
 18 37  1  0  0  0  0
 19 20  2  0  0  0  0
 19 38  1  0  0  0  0
 20 21  1  0  0  0  0
 20 22  1  0  0  0  0
 22 23  2  0  0  0  0
 22 39  1  0  0  0  0
 23 40  1  0  0  0  0
M  END
> <s_m_source_file>
AV-unprocessed.smi

> <i_m_source_file_index>
2183

> <i_lp_mmshare_version>
43012

> <i_f3d_flags>
0

> <s_epik_input>
W2NIXTFbY0hdW2NIXVtjSF1jKGMxMiluKGMobjIpW0NIMl1bT0hdKVtDSDJdW0NASF0oW09IXSlbQ0gyXU9jM1tjSF1bY0hdYyhDbClbY0hdW2NIXTM=

> <s_epik_cmdline>
J2VwaWtfcHl0aG9uJywgJy1waCcsICc3LjAnLCAnLXRuJywgJzgnLCAnLW1hJywgJzIwMCcsICctbWV0YWxfYmluZGluZycsICctaW1hZScsICc8aW5maWxlLm1hZT4nLCAnLW9tYWUnLCAnPG91dGZpbGUubWFlPic=

> <r_lp_tautomer_probability>
1

> <r_epik_Ionization_Penalty>
0.0586933

> <r_epik_Ionization_Penalty_Charging>
0

> <r_epik_Ionization_Penalty_Neutral>
0.0586933

> <r_epik_State_Penalty>
0.0507031

> <r_epik_Charging_Adjusted_Penalty>
0.0507031

> <i_epik_Tot_Q>
0

> <i_epik_Tot_abs_Q>
0

> <r_epik_Metal_State_Penalty>
5.29335e-05

> <b_epik_Metal_Only>
0

> <s_lp_Force_Field>
OPLS_2005

> <r_lp_Energy>
13.44

> <b_lp_Chiralities_Consistent>
1

> <s_lp_Variant>
AV-unprocessed.smi:2183-1

> <Gold.Version>
5.8.1

> <Gold.Id.Protein>
6NUR|6NUR_protein|mol2

> <Gold.PLP.Fitness>
53.4275

> <Gold.PLP.PLP>
-48.3958

> <Gold.PLP.part.hbond>
-4.5776

> <Gold.PLP.part.metal>
0.0000

> <Gold.PLP.part.buried>
-6.5445

> <Gold.PLP.part.nonpolar>
-39.1171

> <Gold.PLP.part.repulsive>
0.0786

> <Gold.PLP.ligand.clash>
0.0000

> <Gold.PLP.ligand.torsion>
1.1772

> <Gold.PLP.Chemscore.Hbond>
2.4032

> <Gold.PLP.Chemscore.CHOScore>
0.0000

> <Gold.PLP.Chemscore.Metal>
0.0000

> <Gold.Chemscore.Hbonds>
donor molecule, donor type, donor heavy atom, donor atom, acceptor molecule, acceptor atom, score
      P1  H  6896  6907       L1    14  0.93
      P1  H  6931  6943       L1    16  0.27
      P1  H  7989  7998       L1     1  1.00

> <Gold.PLP.Chemscore.Internal.Correction>
0.1766

> <Gold.Rescore>
     Score         DG    S(hbond)    S(metal)    S(lipo)     H(rot)  DE(clash)    DE(int)     intcor
     18.71     -19.74       2.26        0.00     123.67       3.04       0.02       1.01       ----

> <Gold.Chemscore.Fitness>
18.7099

> <Gold.Chemscore.DG>
-19.7387

> <Gold.Chemscore.ZeroCoef>
-5.4800

> <Gold.Chemscore.Hbond>
2.2636

> <Gold.Chemscore.Metal>
0.0000

> <Gold.Chemscore.Lipo>
123.6742

> <Gold.Chemscore.Internal_Hbond>
0.0000

> <Gold.Chemscore.DEClash>
0.0212

> <Gold.Chemscore.DEInternal>
1.0076

> <Gold.Chemscore.Rot>
3.0358

> <Gold.Chemscore.Internal.Correction>
   9.000000E+99

> <Gold.Chemscore.Hbonds>
donor molecule, donor type, donor heavy atom, donor atom, acceptor molecule, acceptor atom, score
      P1  H  6896  6907       L1    14  0.81
      P1  H  6931  6943       L1    16  0.02
      P1  H  7989  7998       L1     1  0.91

> <Gold.Chemscore.Hbond.Weighted>
-7.5604

> <Gold.Chemscore.Metal.Weighted>
-0.0000

> <Gold.Chemscore.Lipo.Weighted>
-14.4699

> <Gold.Chemscore.Internal_Hbond.Weighted>
0.0000

> <Gold.Chemscore.DEClash.Weighted>
0.0212

> <Gold.Chemscore.DEInternal.Weighted>
1.0076

> <Gold.Chemscore.Rot.Weighted>
7.7716

> <Gold.Chemscore.Internal.Correction.Weighted>
   9.000000E+99

> <Gold.Protein.RotatedTorsions>
[ 6907 6896 6895 6894 ] final    2.79 input  -60.11 | X-H torsion
[ 7974 7965 7964 7962 ] final  -60.95 input  175.53 | X-H torsion
[ 8008 7997 7996 7995 ] final -159.95 input   59.86 | X-H torsion
[ 10167 10162 10161 10158 ] final  171.53 input  -65.29 | X-H torsion
[ 10718 10713 10712 10709 ] final -107.64 input   66.30 | X-H torsion
[ 10763 10752 10751 10750 ] final   72.49 input  -60.55 | X-H torsion
[ 11005 11000 10999 10996 ] final -130.12 input  -57.11 | X-H torsion

> <Gold.Protein.ActiveResidues>
 VAL166  LYS551  ARG553  GLY616  TRP617  ASP618  TYR619  PRO620  LYS621  CYS622 
 ASP623  PHE694  ASN695  SER759  ASP760  ASP761  ALA762  ILE779  LEU786  VAL792 
 PHE793  MET794  SER795  GLU796  ALA797  LYS798  CYS799  TRP800  GLU811  SER814 

> <Gold.Protein.RotatedAtoms>
  151.6145  135.1037  160.0088 H   0  0  0  0  0  0  0  0  0  0  0  0  # atno 6907 bound_to 6896
  152.4191  133.7082  159.6474 H   0  0  0  0  0  0  0  0  0  0  0  0  # atno 6908 bound_to 6896
  150.8078  133.8404  159.3218 H   0  0  0  0  0  0  0  0  0  0  0  0  # atno 6909 bound_to 6896
  145.8094  140.8608  143.0190 H   0  0  0  0  0  0  0  0  0  0  0  0  # atno 7974 bound_to 7965
  155.7703  140.0851  157.2111 H   0  0  0  0  0  0  0  0  0  0  0  0  # atno 8008 bound_to 7997
  154.3997  140.1526  156.2991 H   0  0  0  0  0  0  0  0  0  0  0  0  # atno 8009 bound_to 7997
  155.8754  140.3423  155.5853 H   0  0  0  0  0  0  0  0  0  0  0  0  # atno 8010 bound_to 7997
  139.5049  144.3475  151.9956 H   0  0  0  0  0  0  0  0  0  0  0  0  # atno 10167 bound_to 10162
  156.0446  130.5673  150.7850 H   0  0  0  0  0  0  0  0  0  0  0  0  # atno 10718 bound_to 10713
  153.0462  135.5098  154.7752 H   0  0  0  0  0  0  0  0  0  0  0  0  # atno 10763 bound_to 10752
  154.6650  135.2944  154.9819 H   0  0  0  0  0  0  0  0  0  0  0  0  # atno 10764 bound_to 10752
  154.0657  135.6684  153.4870 H   0  0  0  0  0  0  0  0  0  0  0  0  # atno 10765 bound_to 10752
  140.9373  134.1240  157.4182 H   0  0  0  0  0  0  0  0  0  0  0  0  # atno 11005 bound_to 11000
  144.6759  140.0373  143.7481 LP  0  0  0  0  0  0  0  0  0  0  0  0  # atno 17320 bound_to 7965
  145.9794  139.2929  143.1051 LP  0  0  0  0  0  0  0  0  0  0  0  0  # atno 17321 bound_to 7965
  140.2913  144.3751  150.6088 LP  0  0  0  0  0  0  0  0  0  0  0  0  # atno 17342 bound_to 10162
  140.5944  143.2167  151.7191 LP  0  0  0  0  0  0  0  0  0  0  0  0  # atno 17343 bound_to 10162
  157.5307  131.0936  150.9959 LP  0  0  0  0  0  0  0  0  0  0  0  0  # atno 17370 bound_to 10713
  157.0266  130.5695  149.5338 LP  0  0  0  0  0  0  0  0  0  0  0  0  # atno 17371 bound_to 10713
  139.8811  135.0025  156.6131 LP  0  0  0  0  0  0  0  0  0  0  0  0  # atno 17394 bound_to 11000
  140.7782  133.8682  155.8546 LP  0  0  0  0  0  0  0  0  0  0  0  0  # atno 17395 bound_to 11000

$$$$
