AV-unprocessed.smi:623|AV-procd|sdf|3093|dock6
  -GOLD-   22720 0 13D 1   1.00000     0.00000
 Structure written by MMmdl.
 45 47  0  0  0  0  0  0  0  0  1 V2000
  144.8226  135.7224  160.5279 C   0  0  0  0  0  0  0  0  0  0  0  0
  145.6172  134.8692  161.5574 C   0  0  0  0  0  0  0  0  0  0  0  0
  144.6755  134.7382  162.7879 C   0  0  0  0  0  0  0  0  0  0  0  0
  146.1304  133.5242  161.0049 C   0  0  2  0  0  0  0  0  0  0  0  0
  146.9591  132.9450  162.1742 C   0  0  0  0  0  0  0  0  0  0  0  0
  147.5928  134.2081  162.7934 C   0  0  0  0  0  0  0  0  0  0  0  0
  147.0644  135.3413  161.8758 C   0  0  2  0  0  0  0  0  0  0  0  0
  147.1914  136.7338  162.5249 C   0  0  0  0  0  0  0  0  0  0  0  0
  147.8398  135.1609  160.5337 C   0  0  2  0  0  0  0  0  0  0  0  0
  147.7778  136.3399  159.6748 N   0  0  0  0  0  0  0  0  0  0  0  0
  148.7795  136.8888  158.9690 C   0  0  0  0  0  0  0  0  0  0  0  0
  149.9138  136.4146  158.9280 O   0  0  0  0  0  0  0  0  0  0  0  0
  148.4773  138.1882  158.2023 C   0  0  0  0  0  0  0  0  0  0  0  0
  149.6011  138.6807  157.3870 N   0  0  0  0  0  0  0  0  0  0  0  0
  149.4494  138.8291  156.0153 C   0  0  0  0  0  0  0  0  0  0  0  0
  150.4480  139.2290  155.1934 C   0  0  0  0  0  0  0  0  0  0  0  0
  151.7702  139.5306  155.7308 C   0  0  0  0  0  0  0  0  0  0  0  0
  152.7383  139.8963  155.0682 O   0  0  0  0  0  0  0  0  0  0  0  0
  151.8830  139.3704  157.1142 N   0  0  0  0  0  0  0  0  0  0  0  0
  150.8583  138.9579  157.9671 C   0  0  0  0  0  0  0  0  0  0  0  0
  151.0701  138.8339  159.1725 O   0  0  0  0  0  0  0  0  0  0  0  0
  147.1376  133.9363  159.9066 C   0  0  0  0  0  0  0  0  0  0  0  0
  152.7814  139.5661  157.5315 H   0  0  0  0  0  0  0  0  0  0  0  0
  143.8464  135.2770  160.3337 H   0  0  0  0  0  0  0  0  0  0  0  0
  145.2915  135.8367  159.5549 H   0  0  0  0  0  0  0  0  0  0  0  0
  144.6431  136.7274  160.9105 H   0  0  0  0  0  0  0  0  0  0  0  0
  145.0771  134.1663  163.6212 H   0  0  0  0  0  0  0  0  0  0  0  0
  143.7410  134.2518  162.5059 H   0  0  0  0  0  0  0  0  0  0  0  0
  144.4172  135.7211  163.1828 H   0  0  0  0  0  0  0  0  0  0  0  0
  145.3547  132.8466  160.6471 H   0  0  0  0  0  0  0  0  0  0  0  0
  146.3289  132.4236  162.8948 H   0  0  0  0  0  0  0  0  0  0  0  0
  147.7119  132.2328  161.8342 H   0  0  0  0  0  0  0  0  0  0  0  0
  147.2746  134.3393  163.8278 H   0  0  0  0  0  0  0  0  0  0  0  0
  148.6820  134.1531  162.8125 H   0  0  0  0  0  0  0  0  0  0  0  0
  148.2379  136.9913  162.6888 H   0  0  0  0  0  0  0  0  0  0  0  0
  146.6889  136.7674  163.4916 H   0  0  0  0  0  0  0  0  0  0  0  0
  146.7526  137.5140  161.9028 H   0  0  0  0  0  0  0  0  0  0  0  0
  148.8860  134.9183  160.7275 H   0  0  0  0  0  0  0  0  0  0  0  0
  146.8842  136.8082  159.6357 H   0  0  0  0  0  0  0  0  0  0  0  0
  147.6131  138.0098  157.5607 H   0  0  0  0  0  0  0  0  0  0  0  0
  148.1492  138.9468  158.9150 H   0  0  0  0  0  0  0  0  0  0  0  0
  148.4882  138.6071  155.5735 H   0  0  0  0  0  0  0  0  0  0  0  0
  150.2689  139.3226  154.1321 H   0  0  0  0  0  0  0  0  0  0  0  0
  147.8441  133.1383  159.6750 H   0  0  0  0  0  0  0  0  0  0  0  0
  146.6304  134.1819  158.9732 H   0  0  0  0  0  0  0  0  0  0  0  0
  1  2  1  0  0  0  0
  1 24  1  0  0  0  0
  1 25  1  0  0  0  0
  1 26  1  0  0  0  0
  2  7  1  0  0  0  0
  2  3  1  0  0  0  0
  2  4  1  0  0  0  0
  3 27  1  0  0  0  0
  3 28  1  0  0  0  0
  3 29  1  0  0  0  0
  4 22  1  0  0  0  0
  4  5  1  0  0  0  0
  4 30  1  0  0  0  0
  5  6  1  0  0  0  0
  5 31  1  0  0  0  0
  5 32  1  0  0  0  0
  6  7  1  0  0  0  0
  6 33  1  0  0  0  0
  6 34  1  0  0  0  0
  7  8  1  0  0  0  0
  7  9  1  0  0  0  0
  8 35  1  0  0  0  0
  8 36  1  0  0  0  0
  8 37  1  0  0  0  0
  9 10  1  0  0  0  0
  9 22  1  0  0  0  0
  9 38  1  0  0  0  0
 10 11  1  0  0  0  0
 10 39  1  0  0  0  0
 11 12  2  0  0  0  0
 11 13  1  0  0  0  0
 13 14  1  0  0  0  0
 13 40  1  0  0  0  0
 13 41  1  0  0  0  0
 14 20  1  0  0  0  0
 14 15  1  0  0  0  0
 15 16  2  0  0  0  0
 15 42  1  0  0  0  0
 16 17  1  0  0  0  0
 16 43  1  0  0  0  0
 17 18  2  0  0  0  0
 17 19  1  0  0  0  0
 19 23  1  0  0  0  0
 19 20  1  0  0  0  0
 20 21  2  0  0  0  0
 22 44  1  0  0  0  0
 22 45  1  0  0  0  0
M  END
> <s_m_source_file>
AV-unprocessed.smi

> <i_m_source_file_index>
623

> <i_lp_mmshare_version>
43012

> <i_f3d_flags>
0

> <s_epik_input>
W0NIM11bQ0BdMTJDKFtDSDNdKShbQ0gzXSlbQ0BIXShbQ0gyXVtDSDJdMSlbQ0gyXVtDQEBIXTJbTkhdQyg9TylbQ0gyXW4zW2NIXVtjSF1jKD1PKVtuSF1jMz1P

> <s_epik_cmdline>
J2VwaWtfcHl0aG9uJywgJy1waCcsICc3LjAnLCAnLXRuJywgJzgnLCAnLW1hJywgJzIwMCcsICctbWV0YWxfYmluZGluZycsICctaW1hZScsICc8aW5maWxlLm1hZT4nLCAnLW9tYWUnLCAnPG91dGZpbGUubWFlPic=

> <r_lp_tautomer_probability>
0.999537

> <r_epik_Ionization_Penalty>
0.00303563

> <r_epik_Ionization_Penalty_Charging>
0.00303561

> <r_epik_Ionization_Penalty_Neutral>
2.03238e-08

> <r_epik_State_Penalty>
0.00213308

> <r_epik_Charging_Adjusted_Penalty>
0.00516869

> <i_epik_Tot_Q>
0

> <i_epik_Tot_abs_Q>
0

> <r_epik_Metal_State_Penalty>
0.361714

> <b_epik_Metal_Only>
0

> <s_lp_Force_Field>
OPLS_2005

> <r_lp_Energy>
55.1954

> <b_lp_Chiralities_Consistent>
1

> <s_lp_Variant>
AV-unprocessed.smi:623-3

> <Gold.Version>
5.8.1

> <Gold.Id.Protein>
6NUR|6NUR_protein|mol2

> <Gold.PLP.Fitness>
39.4474

> <Gold.PLP.PLP>
-32.3064

> <Gold.PLP.part.hbond>
-3.1475

> <Gold.PLP.part.metal>
0.0000

> <Gold.PLP.part.buried>
-5.2969

> <Gold.PLP.part.nonpolar>
-24.5456

> <Gold.PLP.part.repulsive>
0.2435

> <Gold.PLP.ligand.clash>
0.0000

> <Gold.PLP.ligand.torsion>
0.2095

> <Gold.PLP.Chemscore.Hbond>
2.5148

> <Gold.PLP.Chemscore.CHOScore>
0.0000

> <Gold.PLP.Chemscore.Metal>
0.0000

> <Gold.Chemscore.Hbonds>
donor molecule, donor type, donor heavy atom, donor atom, acceptor molecule, acceptor atom, score
      P1  H  6896  6907       L1    12  1.00
      P1  H  7989  7998       L1    18  0.37
      P1  H  7997  8009       L1    18  1.00

> <Gold.PLP.Chemscore.Internal.Correction>
0.0155

> <Gold.Rescore>
     Score         DG    S(hbond)    S(metal)    S(lipo)     H(rot)  DE(clash)    DE(int)     intcor
     16.54     -16.95       1.98        0.00      78.02       1.66       0.05       0.37       ----

> <Gold.Chemscore.Fitness>
16.5363

> <Gold.Chemscore.DG>
-16.9534

> <Gold.Chemscore.ZeroCoef>
-5.4800

> <Gold.Chemscore.Hbond>
1.9782

> <Gold.Chemscore.Metal>
0.0000

> <Gold.Chemscore.Lipo>
78.0176

> <Gold.Chemscore.Internal_Hbond>
0.0000

> <Gold.Chemscore.DEClash>
0.0502

> <Gold.Chemscore.DEInternal>
0.3669

> <Gold.Chemscore.Rot>
1.6647

> <Gold.Chemscore.Internal.Correction>
   9.000000E+99

> <Gold.Chemscore.Hbonds>
donor molecule, donor type, donor heavy atom, donor atom, acceptor molecule, acceptor atom, score
      P1  H  6896  6907       L1    12  0.92
      P1  H  7989  7998       L1    18  0.08
      P1  H  7997  8009       L1    18  0.94

> <Gold.Chemscore.Hbond.Weighted>
-6.6071

> <Gold.Chemscore.Metal.Weighted>
-0.0000

> <Gold.Chemscore.Lipo.Weighted>
-9.1281

> <Gold.Chemscore.Internal_Hbond.Weighted>
0.0000

> <Gold.Chemscore.DEClash.Weighted>
0.0502

> <Gold.Chemscore.DEInternal.Weighted>
0.3669

> <Gold.Chemscore.Rot.Weighted>
4.2617

> <Gold.Chemscore.Internal.Correction.Weighted>
   9.000000E+99

> <Gold.Protein.RotatedTorsions>
[ 6907 6896 6895 6894 ] final  -62.57 input  -60.11 | X-H torsion
[ 7974 7965 7964 7962 ] final   76.73 input  175.53 | X-H torsion
[ 8008 7997 7996 7995 ] final -144.25 input   59.86 | X-H torsion
[ 10167 10162 10161 10158 ] final  -68.01 input  -65.29 | X-H torsion
[ 10718 10713 10712 10709 ] final -101.62 input   66.30 | X-H torsion
[ 10763 10752 10751 10750 ] final   93.79 input  -60.55 | X-H torsion
[ 11005 11000 10999 10996 ] final -125.03 input  -57.11 | X-H torsion

> <Gold.Protein.ActiveResidues>
 VAL166  LYS551  ARG553  GLY616  TRP617  ASP618  TYR619  PRO620  LYS621  CYS622 
 ASP623  PHE694  ASN695  SER759  ASP760  ASP761  ALA762  ILE779  LEU786  VAL792 
 PHE793  MET794  SER795  GLU796  ALA797  LYS798  CYS799  TRP800  GLU811  SER814 

> <Gold.Protein.RotatedAtoms>
  150.7706  134.6552  159.6309 H   0  0  0  0  0  0  0  0  0  0  0  0  # atno 6907 bound_to 6896
  152.3757  134.6663  160.0169 H   0  0  0  0  0  0  0  0  0  0  0  0  # atno 6908 bound_to 6896
  151.7009  133.3275  159.3302 H   0  0  0  0  0  0  0  0  0  0  0  0  # atno 6909 bound_to 6896
  145.6990  139.2576  143.1716 H   0  0  0  0  0  0  0  0  0  0  0  0  # atno 7974 bound_to 7965
  155.5239  140.0594  157.2901 H   0  0  0  0  0  0  0  0  0  0  0  0  # atno 8008 bound_to 7997
  154.4508  140.1947  156.0472 H   0  0  0  0  0  0  0  0  0  0  0  0  # atno 8009 bound_to 7997
  156.0699  140.3261  155.7567 H   0  0  0  0  0  0  0  0  0  0  0  0  # atno 8010 bound_to 7997
  140.5540  143.2312  151.6857 H   0  0  0  0  0  0  0  0  0  0  0  0  # atno 10167 bound_to 10162
  156.0201  130.5382  150.6989 H   0  0  0  0  0  0  0  0  0  0  0  0  # atno 10718 bound_to 10713
  153.2343  135.4313  155.0629 H   0  0  0  0  0  0  0  0  0  0  0  0  # atno 10763 bound_to 10752
  154.8311  135.3387  154.6742 H   0  0  0  0  0  0  0  0  0  0  0  0  # atno 10764 bound_to 10752
  153.7168  135.7019  153.5079 H   0  0  0  0  0  0  0  0  0  0  0  0  # atno 10765 bound_to 10752
  140.9795  134.0694  157.3781 H   0  0  0  0  0  0  0  0  0  0  0  0  # atno 11005 bound_to 11000
  146.0814  140.7759  142.9639 LP  0  0  0  0  0  0  0  0  0  0  0  0  # atno 17320 bound_to 7965
  144.6974  140.3495  143.7184 LP  0  0  0  0  0  0  0  0  0  0  0  0  # atno 17321 bound_to 7965
  139.5040  144.3772  152.0412 LP  0  0  0  0  0  0  0  0  0  0  0  0  # atno 17342 bound_to 10162
  140.2891  144.3774  150.6094 LP  0  0  0  0  0  0  0  0  0  0  0  0  # atno 17343 bound_to 10162
  157.4654  131.0887  151.0700 LP  0  0  0  0  0  0  0  0  0  0  0  0  # atno 17370 bound_to 10713
  157.1176  130.6048  149.5497 LP  0  0  0  0  0  0  0  0  0  0  0  0  # atno 17371 bound_to 10713
  139.8944  135.0136  156.6949 LP  0  0  0  0  0  0  0  0  0  0  0  0  # atno 17394 bound_to 11000
  140.7209  133.9142  155.8146 LP  0  0  0  0  0  0  0  0  0  0  0  0  # atno 17395 bound_to 11000

$$$$
