AV-unprocessed.smi:2230|AV-procd|sdf|9035|dock3
  -GOLD-   2272012243D 1   1.00000     0.00000
 Structure written by MMmdl.
 29 30  0  0  0  0  0  0  0  0  2 V2000
  149.1850  135.7235  159.4816 O   0  0  0  0  0  0  0  0  0  0  0  0
  149.3029  136.9675  159.4123 C   0  0  0  0  0  0  0  0  0  0  0  0
  148.3683  137.7840  159.5711 O   0  5  0  0  0  0  0  0  0  0  0  0
  150.6882  137.5394  159.0734 C   0  0  2  0  0  0  0  0  0  0  0  0
  150.6326  139.0700  158.8584 C   0  0  0  0  0  0  0  0  0  0  0  0
  151.9435  139.5697  158.4624 N   0  0  0  0  0  0  0  0  0  0  0  0
  152.0080  140.9719  158.4156 C   0  0  0  0  0  0  0  0  0  0  0  0
  151.1622  141.6025  157.5640 N   0  0  0  0  0  0  0  0  0  0  0  0
  151.1824  142.9496  157.5088 C   0  0  0  0  0  0  0  0  0  0  0  0
  152.0406  143.7381  158.2956 C   0  0  0  0  0  0  0  0  0  0  0  0
  152.9207  143.0873  159.1793 C   0  0  0  0  0  0  0  0  0  0  0  0
  152.9175  141.6756  159.2494 C   0  0  0  0  0  0  0  0  0  0  0  0
  153.8748  140.9471  160.1914 C   0  0  0  0  0  0  0  0  0  0  0  0
  153.5618  139.6556  160.3031 F   0  0  0  0  0  0  0  0  0  0  0  0
  155.1228  141.0298  159.7321 F   0  0  0  0  0  0  0  0  0  0  0  0
  153.8236  141.4852  161.4103 F   0  0  0  0  0  0  0  0  0  0  0  0
  152.4783  138.8785  157.2961 C   0  0  0  0  0  0  0  0  0  0  0  0
  152.5088  137.3650  157.5601 C   0  0  0  0  0  0  0  0  0  0  0  0
  151.1989  136.9164  157.8927 O   0  0  0  0  0  0  0  0  0  0  0  0
  151.3495  137.3086  159.9104 H   0  0  0  0  0  0  0  0  0  0  0  0
  149.9041  139.3159  158.0839 H   0  0  0  0  0  0  0  0  0  0  0  0
  150.3105  139.5722  159.7713 H   0  0  0  0  0  0  0  0  0  0  0  0
  150.4937  143.4123  156.8176 H   0  0  0  0  0  0  0  0  0  0  0  0
  152.0250  144.8154  158.2218 H   0  0  0  0  0  0  0  0  0  0  0  0
  153.5881  143.6761  159.7908 H   0  0  0  0  0  0  0  0  0  0  0  0
  151.8585  139.0864  156.4226 H   0  0  0  0  0  0  0  0  0  0  0  0
  153.4826  139.2435  157.0781 H   0  0  0  0  0  0  0  0  0  0  0  0
  152.8507  136.8347  156.6715 H   0  0  0  0  0  0  0  0  0  0  0  0
  153.2042  137.1225  158.3654 H   0  0  0  0  0  0  0  0  0  0  0  0
  1  2  2  0  0  0  0
  2  3  1  0  0  0  0
  2  4  1  0  0  0  0
  4 19  1  0  0  0  0
  4  5  1  0  0  0  0
  4 20  1  0  0  0  0
  5  6  1  0  0  0  0
  5 21  1  0  0  0  0
  5 22  1  0  0  0  0
  6  7  1  0  0  0  0
  6 17  1  0  0  0  0
  7 12  1  0  0  0  0
  7  8  2  0  0  0  0
  8  9  1  0  0  0  0
  9 10  2  0  0  0  0
  9 23  1  0  0  0  0
 10 11  1  0  0  0  0
 10 24  1  0  0  0  0
 11 12  2  0  0  0  0
 11 25  1  0  0  0  0
 12 13  1  0  0  0  0
 13 14  1  0  0  0  0
 13 15  1  0  0  0  0
 13 16  1  0  0  0  0
 17 18  1  0  0  0  0
 17 26  1  0  0  0  0
 17 27  1  0  0  0  0
 18 19  1  0  0  0  0
 18 28  1  0  0  0  0
 18 29  1  0  0  0  0
M  CHG  1   3  -1
M  END
> <s_m_source_file>
AV-unprocessed.smi

> <i_m_source_file_index>
2230

> <i_lp_mmshare_version>
43012

> <i_f3d_flags>
0

> <s_epik_input>
Tz1DKFtPSF0pW0NAQEhdMVtDSDJdTihbQ0gyXVtDSDJdTzEpYzJuW2NIXVtjSF1bY0hdYzJDKEYpKEYpRg==

> <s_epik_cmdline>
J2VwaWtfcHl0aG9uJywgJy1waCcsICc3LjAnLCAnLXRuJywgJzgnLCAnLW1hJywgJzIwMCcsICctbWV0YWxfYmluZGluZycsICctaW1hZScsICc8aW5maWxlLm1hZT4nLCAnLW9tYWUnLCAnPG91dGZpbGUubWFlPic=

> <r_lp_tautomer_probability>
1

> <r_epik_Ionization_Penalty>
0.000150991

> <r_epik_Ionization_Penalty_Charging>
0.000148814

> <r_epik_Ionization_Penalty_Neutral>
2.17728e-06

> <r_epik_State_Penalty>
-0

> <r_epik_Charging_Adjusted_Penalty>
0.000148814

> <i_epik_Tot_Q>
-1

> <i_epik_Tot_abs_Q>
1

> <r_epik_Metal_State_Penalty>
-0

> <b_epik_Metal_Only>
0

> <s_lp_Force_Field>
OPLS_2005

> <r_lp_Energy>
24.3661

> <b_lp_Chiralities_Consistent>
1

> <s_lp_Variant>
AV-unprocessed.smi:2230-1

> <Gold.Version>
5.8.1

> <Gold.Id.Protein>
6NUR|6NUR_protein|mol2

> <Gold.PLP.Fitness>
42.7654

> <Gold.PLP.PLP>
-34.7389

> <Gold.PLP.part.hbond>
-2.9722

> <Gold.PLP.part.metal>
0.0000

> <Gold.PLP.part.buried>
-4.2469

> <Gold.PLP.part.nonpolar>
-29.2851

> <Gold.PLP.part.repulsive>
0.0335

> <Gold.PLP.ligand.clash>
1.8825

> <Gold.PLP.ligand.torsion>
0.5842

> <Gold.PLP.Chemscore.Hbond>
2.4118

> <Gold.PLP.Chemscore.CHOScore>
1.0000

> <Gold.PLP.Chemscore.Metal>
0.0000

> <Gold.Chemscore.Hbonds>
donor molecule, donor type, donor heavy atom, donor atom, acceptor molecule, acceptor atom, score
      P1  H  6896  6907       L1     1  2.00
      P1  H  6934  6947       L1     3  0.48
      L1  C     9    23       P1  8028  1.00

> <Gold.PLP.Chemscore.Internal.Correction>
0.8421

> <Gold.Rescore>
     Score         DG    S(hbond)    S(metal)    S(lipo)     H(rot)  DE(clash)    DE(int)     intcor
     12.21     -14.27       1.29        0.00      70.82       1.49       0.08       1.98       ----

> <Gold.Chemscore.Fitness>
12.2111

> <Gold.Chemscore.DG>
-14.2654

> <Gold.Chemscore.ZeroCoef>
-5.4800

> <Gold.Chemscore.Hbond>
1.2927

> <Gold.Chemscore.Metal>
0.0000

> <Gold.Chemscore.Lipo>
70.8221

> <Gold.Chemscore.Internal_Hbond>
0.0000

> <Gold.Chemscore.DEClash>
0.0793

> <Gold.Chemscore.DEInternal>
1.9751

> <Gold.Chemscore.Rot>
1.4916

> <Gold.Chemscore.Internal.Correction>
   9.000000E+99

> <Gold.Chemscore.Hbonds>
donor molecule, donor type, donor heavy atom, donor atom, acceptor molecule, acceptor atom, score
      P1  H  6896  6907       L1     1  0.94
      P1  H  6934  6947       L1     3  0.23

> <Gold.Chemscore.Hbond.Weighted>
-4.3177

> <Gold.Chemscore.Metal.Weighted>
-0.0000

> <Gold.Chemscore.Lipo.Weighted>
-8.2862

> <Gold.Chemscore.Internal_Hbond.Weighted>
0.0000

> <Gold.Chemscore.DEClash.Weighted>
0.0793

> <Gold.Chemscore.DEInternal.Weighted>
1.9751

> <Gold.Chemscore.Rot.Weighted>
3.8185

> <Gold.Chemscore.Internal.Correction.Weighted>
   9.000000E+99

> <Gold.Protein.RotatedTorsions>
[ 6907 6896 6895 6894 ] final  -59.65 input  -60.11 | X-H torsion
[ 7974 7965 7964 7962 ] final  -42.55 input  175.53 | X-H torsion
[ 8008 7997 7996 7995 ] final  177.55 input   59.86 | X-H torsion
[ 10167 10162 10161 10158 ] final  139.45 input  -65.29 | X-H torsion
[ 10718 10713 10712 10709 ] final  141.14 input   66.30 | X-H torsion
[ 10763 10752 10751 10750 ] final  -44.73 input  -60.55 | X-H torsion
[ 11005 11000 10999 10996 ] final   57.91 input  -57.11 | X-H torsion

> <Gold.Protein.ActiveResidues>
 VAL166  LYS551  ARG553  GLY616  TRP617  ASP618  TYR619  PRO620  LYS621  CYS622 
 ASP623  PHE694  ASN695  SER759  ASP760  ASP761  ALA762  ILE779  LEU786  VAL792 
 PHE793  MET794  SER795  GLU796  ALA797  LYS798  CYS799  TRP800  GLU811  SER814 

> <Gold.Protein.RotatedAtoms>
  150.7914  134.6941  159.6512 H   0  0  0  0  0  0  0  0  0  0  0  0  # atno 6907 bound_to 6896
  152.4020  134.6267  160.0074 H   0  0  0  0  0  0  0  0  0  0  0  0  # atno 6908 bound_to 6896
  151.6535  133.3283  159.3193 H   0  0  0  0  0  0  0  0  0  0  0  0  # atno 6909 bound_to 6896
  146.0105  140.6969  142.9226 H   0  0  0  0  0  0  0  0  0  0  0  0  # atno 7974 bound_to 7965
  156.0644  140.1355  156.9903 H   0  0  0  0  0  0  0  0  0  0  0  0  # atno 8008 bound_to 7997
  154.4498  140.0985  156.6636 H   0  0  0  0  0  0  0  0  0  0  0  0  # atno 8009 bound_to 7997
  155.5327  140.3459  155.4432 H   0  0  0  0  0  0  0  0  0  0  0  0  # atno 8010 bound_to 7997
  139.5078  144.6294  151.5856 H   0  0  0  0  0  0  0  0  0  0  0  0  # atno 10167 bound_to 10162
  157.3954  131.1010  151.0605 H   0  0  0  0  0  0  0  0  0  0  0  0  # atno 10718 bound_to 10713
  154.0170  135.6674  153.4769 H   0  0  0  0  0  0  0  0  0  0  0  0  # atno 10763 bound_to 10752
  153.0596  135.5035  154.8059 H   0  0  0  0  0  0  0  0  0  0  0  0  # atno 10764 bound_to 10752
  154.6961  135.3070  154.9374 H   0  0  0  0  0  0  0  0  0  0  0  0  # atno 10765 bound_to 10752
  140.0417  134.5864  155.9374 H   0  0  0  0  0  0  0  0  0  0  0  0  # atno 11005 bound_to 11000
  144.6951  140.3390  143.7202 LP  0  0  0  0  0  0  0  0  0  0  0  0  # atno 17320 bound_to 7965
  145.7349  139.1747  143.2409 LP  0  0  0  0  0  0  0  0  0  0  0  0  # atno 17321 bound_to 7965
  140.6021  143.9590  150.6393 LP  0  0  0  0  0  0  0  0  0  0  0  0  # atno 17342 bound_to 10162
  140.2806  143.3392  152.1155 LP  0  0  0  0  0  0  0  0  0  0  0  0  # atno 17343 bound_to 10162
  157.1623  130.6231  149.5614 LP  0  0  0  0  0  0  0  0  0  0  0  0  # atno 17370 bound_to 10713
  155.9809  130.4813  150.6798 LP  0  0  0  0  0  0  0  0  0  0  0  0  # atno 17371 bound_to 10713
  141.1886  133.6563  156.5332 LP  0  0  0  0  0  0  0  0  0  0  0  0  # atno 17394 bound_to 11000
  140.4059  134.7315  157.4807 LP  0  0  0  0  0  0  0  0  0  0  0  0  # atno 17395 bound_to 11000

$$$$
