AV-unprocessed.smi:81|AV-procd|sdf|793|dock7
  -GOLD-   2262017173D 1   1.00000     0.00000
 Structure written by MMmdl.
 64 67  0  0  0  0  0  0  0  0  2 V2000
  150.1968  139.4753  154.5773 C   0  0  0  0  0  0  0  0  0  0  0  0
  148.9887  140.1953  155.1987 C   0  0  0  0  0  0  0  0  0  0  0  0
  148.4810  141.3004  154.2623 C   0  0  0  0  0  0  0  0  0  0  0  0
  149.3221  140.7801  156.5910 C   0  0  0  0  0  0  0  0  0  0  0  0
  150.6416  140.4019  157.1095 N   0  0  0  0  0  0  0  0  0  0  0  0
  150.6806  139.2645  157.8460 C   0  0  0  0  0  0  0  0  0  0  0  0
  151.9038  138.7778  158.1731 N   0  0  0  0  0  0  0  0  0  0  0  0
  152.0106  137.6462  158.8746 C   0  0  0  0  0  0  0  0  0  0  0  0
  151.0394  136.8542  159.3315 N   0  0  0  0  0  0  0  0  0  0  0  0
  149.8066  137.3254  158.9853 C   0  0  0  0  0  0  0  0  0  0  0  0
  149.5389  138.5142  158.2504 C   0  0  0  0  0  0  0  0  0  0  0  0
  148.1676  138.6766  158.1038 N   0  0  0  0  0  0  0  0  0  0  0  0
  147.6553  137.6446  158.7156 C   0  0  0  0  0  0  0  0  0  0  0  0
  148.5688  136.7624  159.2525 N   0  0  0  0  0  0  0  0  0  0  0  0
  148.2989  135.5386  160.0016 C   0  0  0  0  0  0  0  0  0  0  0  0
  147.0519  135.5759  160.9280 C   0  0  2  0  0  0  0  0  0  0  0  0
  147.0682  136.8081  161.6288 O   0  0  0  0  0  0  0  0  0  0  0  0
  147.0589  134.4601  161.9608 C   0  0  0  0  0  0  0  0  0  0  0  0
  145.6035  134.4107  162.4043 C   0  0  0  0  0  0  0  0  0  0  0  0
  144.8627  134.6900  161.2247 O   0  0  0  0  0  0  0  0  0  0  0  0
  145.6509  135.4187  160.2802 C   0  0  2  0  0  0  0  0  0  0  0  0
  145.5896  134.5843  158.9904 C   0  0  0  0  0  0  0  0  0  0  0  0
  151.5558  141.5010  157.4652 C   0  0  2  0  0  0  0  0  0  0  0  0
  152.1851  141.4214  158.8767 C   0  0  0  0  0  0  0  0  0  0  0  0
  151.3500  142.0994  159.9806 C   0  0  0  0  0  0  0  0  0  0  0  0
  150.9942  143.4880  159.6073 N   0  3  2  0  0  0  0  0  0  0  0  0
  150.3201  144.2087  160.7085 C   0  0  0  0  0  0  0  0  0  0  0  0
  150.2170  143.5334  158.3472 C   0  0  0  0  0  0  0  0  0  0  0  0
  151.0108  142.9206  157.1789 C   0  0  0  0  0  0  0  0  0  0  0  0
  151.0410  140.1539  154.4520 H   0  0  0  0  0  0  0  0  0  0  0  0
  149.9487  139.0683  153.5968 H   0  0  0  0  0  0  0  0  0  0  0  0
  150.5289  138.6437  155.1991 H   0  0  0  0  0  0  0  0  0  0  0  0
  148.1783  139.4723  155.2935 H   0  0  0  0  0  0  0  0  0  0  0  0
  149.2424  142.0638  154.0988 H   0  0  0  0  0  0  0  0  0  0  0  0
  147.5998  141.7915  154.6763 H   0  0  0  0  0  0  0  0  0  0  0  0
  148.2022  140.8941  153.2896 H   0  0  0  0  0  0  0  0  0  0  0  0
  149.2661  141.8678  156.5347 H   0  0  0  0  0  0  0  0  0  0  0  0
  148.5547  140.4854  157.3058 H   0  0  0  0  0  0  0  0  0  0  0  0
  153.0182  137.3276  159.0986 H   0  0  0  0  0  0  0  0  0  0  0  0
  146.5868  137.5093  158.7883 H   0  0  0  0  0  0  0  0  0  0  0  0
  148.1945  134.7202  159.2889 H   0  0  0  0  0  0  0  0  0  0  0  0
  149.1891  135.3046  160.5869 H   0  0  0  0  0  0  0  0  0  0  0  0
  146.8646  136.6376  162.5360 H   0  0  0  0  0  0  0  0  0  0  0  0
  147.3244  133.5121  161.4907 H   0  0  0  0  0  0  0  0  0  0  0  0
  147.7522  134.6289  162.7858 H   0  0  0  0  0  0  0  0  0  0  0  0
  145.3262  133.4470  162.8318 H   0  0  0  0  0  0  0  0  0  0  0  0
  145.3980  135.1837  163.1461 H   0  0  0  0  0  0  0  0  0  0  0  0
  145.1895  136.3897  160.0923 H   0  0  0  0  0  0  0  0  0  0  0  0
  146.0237  135.1130  158.1451 H   0  0  0  0  0  0  0  0  0  0  0  0
  144.5551  134.3678  158.7232 H   0  0  0  0  0  0  0  0  0  0  0  0
  146.1066  133.6311  159.1031 H   0  0  0  0  0  0  0  0  0  0  0  0
  152.3905  141.3591  156.7777 H   0  0  0  0  0  0  0  0  0  0  0  0
  152.4106  140.3881  159.1420 H   0  0  0  0  0  0  0  0  0  0  0  0
  153.1506  141.9277  158.8401 H   0  0  0  0  0  0  0  0  0  0  0  0
  150.4394  141.5414  160.1934 H   0  0  0  0  0  0  0  0  0  0  0  0
  151.9266  142.1100  160.9063 H   0  0  0  0  0  0  0  0  0  0  0  0
  149.3682  143.7381  160.9586 H   0  0  0  0  0  0  0  0  0  0  0  0
  150.1275  145.2454  160.4306 H   0  0  0  0  0  0  0  0  0  0  0  0
  150.9439  144.2154  161.6027 H   0  0  0  0  0  0  0  0  0  0  0  0
  149.2674  143.0226  158.4923 H   0  0  0  0  0  0  0  0  0  0  0  0
  149.9755  144.5697  158.1080 H   0  0  0  0  0  0  0  0  0  0  0  0
  151.8628  143.5727  156.9824 H   0  0  0  0  0  0  0  0  0  0  0  0
  150.4150  142.9388  156.2664 H   0  0  0  0  0  0  0  0  0  0  0  0
  151.8618  143.9749  159.4325 H   0  0  0  0  0  0  0  0  0  0  0  0
  1  2  1  0  0  0  0
  1 30  1  0  0  0  0
  1 31  1  0  0  0  0
  1 32  1  0  0  0  0
  2  3  1  0  0  0  0
  2  4  1  0  0  0  0
  2 33  1  0  0  0  0
  3 34  1  0  0  0  0
  3 35  1  0  0  0  0
  3 36  1  0  0  0  0
  4  5  1  0  0  0  0
  4 37  1  0  0  0  0
  4 38  1  0  0  0  0
  5  6  1  0  0  0  0
  5 23  1  0  0  0  0
  6 11  1  0  0  0  0
  6  7  2  0  0  0  0
  7  8  1  0  0  0  0
  8  9  2  0  0  0  0
  8 39  1  0  0  0  0
  9 10  1  0  0  0  0
 10 14  1  0  0  0  0
 10 11  2  0  0  0  0
 11 12  1  0  0  0  0
 12 13  2  0  0  0  0
 13 14  1  0  0  0  0
 13 40  1  0  0  0  0
 14 15  1  0  0  0  0
 15 16  1  0  0  0  0
 15 41  1  0  0  0  0
 15 42  1  0  0  0  0
 16 21  1  0  0  0  0
 16 17  1  0  0  0  0
 16 18  1  0  0  0  0
 17 43  1  0  0  0  0
 18 19  1  0  0  0  0
 18 44  1  0  0  0  0
 18 45  1  0  0  0  0
 19 20  1  0  0  0  0
 19 46  1  0  0  0  0
 19 47  1  0  0  0  0
 20 21  1  0  0  0  0
 21 22  1  0  0  0  0
 21 48  1  0  0  0  0
 22 49  1  0  0  0  0
 22 50  1  0  0  0  0
 22 51  1  0  0  0  0
 23 29  1  0  0  0  0
 23 24  1  0  0  0  0
 23 52  1  0  0  0  0
 24 25  1  0  0  0  0
 24 53  1  0  0  0  0
 24 54  1  0  0  0  0
 25 26  1  0  0  0  0
 25 55  1  0  0  0  0
 25 56  1  0  0  0  0
 26 27  1  0  0  0  0
 26 28  1  0  0  0  0
 26 64  1  0  0  0  0
 27 57  1  0  0  0  0
 27 58  1  0  0  0  0
 27 59  1  0  0  0  0
 28 29  1  0  0  0  0
 28 60  1  0  0  0  0
 28 61  1  0  0  0  0
 29 62  1  0  0  0  0
 29 63  1  0  0  0  0
M  CHG  1  26   1
M  END
> <s_m_source_file>
AV-unprocessed.smi

> <i_m_source_file_index>
81

> <i_lp_mmshare_version>
43012

> <i_f3d_flags>
0

> <s_epik_input>
W0NIMl0xW0NIMl1OKFtDSDNdKVtDSDJdW0NIMl1bQ0hdMU4oW0NIMl1bQ0hdKFtDSDNdKVtDSDNdKWMobltjSF1uMiljKGMyMyluW2NIXW4zW0NIMl1bQ0BAXTQoW09IXSlbQ0gyXVtDSDJdT1tDQEhdNFtDSDNd

> <s_epik_cmdline>
J2VwaWtfcHl0aG9uJywgJy1waCcsICc3LjAnLCAnLXRuJywgJzgnLCAnLW1hJywgJzIwMCcsICctbWV0YWxfYmluZGluZycsICctaW1hZScsICc8aW5maWxlLm1hZT4nLCAnLW9tYWUnLCAnPG91dGZpbGUubWFlPic=

> <r_lp_tautomer_probability>
1

> <r_epik_Ionization_Penalty>
0.00272708

> <r_epik_Ionization_Penalty_Charging>
0.00158983

> <r_epik_Ionization_Penalty_Neutral>
0.00113725

> <r_epik_State_Penalty>
-0

> <r_epik_Charging_Adjusted_Penalty>
0.00158983

> <i_epik_Tot_Q>
1

> <i_epik_Tot_abs_Q>
1

> <r_epik_Metal_State_Penalty>
-0

> <b_epik_Metal_Only>
0

> <s_lp_Force_Field>
OPLS_2005

> <r_lp_Energy>
52.2974

> <b_lp_Chiralities_Consistent>
1

> <s_lp_Variant>
AV-unprocessed.smi:81-8

> <Gold.Version>
5.8.1

> <Gold.Id.Protein>
6NUR|6NUR_protein|mol2

> <Gold.PLP.Fitness>
48.0013

> <Gold.PLP.PLP>
-42.9956

> <Gold.PLP.part.hbond>
-3.7486

> <Gold.PLP.part.metal>
0.0000

> <Gold.PLP.part.buried>
-4.5381

> <Gold.PLP.part.nonpolar>
-34.3983

> <Gold.PLP.part.repulsive>
0.0565

> <Gold.PLP.ligand.clash>
0.0000

> <Gold.PLP.ligand.torsion>
2.1161

> <Gold.PLP.Chemscore.Hbond>
2.6199

> <Gold.PLP.Chemscore.CHOScore>
0.0000

> <Gold.PLP.Chemscore.Metal>
0.0000

> <Gold.Chemscore.Hbonds>
donor molecule, donor type, donor heavy atom, donor atom, acceptor molecule, acceptor atom, score
      P1  H  6896  6908       L1     9  1.00
      P1  H  6934  6947       L1    17  0.28

> <Gold.PLP.Chemscore.Internal.Correction>
1.3782

> <Gold.Rescore>
     Score         DG    S(hbond)    S(metal)    S(lipo)     H(rot)  DE(clash)    DE(int)     intcor
     14.09     -19.99       2.34        0.00     107.95       2.32       1.54       4.37       ----

> <Gold.Chemscore.Fitness>
14.0897

> <Gold.Chemscore.DG>
-19.9941

> <Gold.Chemscore.ZeroCoef>
-5.4800

> <Gold.Chemscore.Hbond>
2.3393

> <Gold.Chemscore.Metal>
0.0000

> <Gold.Chemscore.Lipo>
107.9526

> <Gold.Chemscore.Internal_Hbond>
0.0000

> <Gold.Chemscore.DEClash>
1.5368

> <Gold.Chemscore.DEInternal>
4.3676

> <Gold.Chemscore.Rot>
2.3163

> <Gold.Chemscore.Internal.Correction>
   9.000000E+99

> <Gold.Chemscore.Hbonds>
donor molecule, donor type, donor heavy atom, donor atom, acceptor molecule, acceptor atom, score
      P1  H  6896  6908       L1     9  0.94
      P1  H  6931  6943       L1    17  0.01
      P1  H  6934  6947       L1    17  0.26

> <Gold.Chemscore.Hbond.Weighted>
-7.8133

> <Gold.Chemscore.Metal.Weighted>
-0.0000

> <Gold.Chemscore.Lipo.Weighted>
-12.6305

> <Gold.Chemscore.Internal_Hbond.Weighted>
0.0000

> <Gold.Chemscore.DEClash.Weighted>
1.5368

> <Gold.Chemscore.DEInternal.Weighted>
4.3676

> <Gold.Chemscore.Rot.Weighted>
5.9297

> <Gold.Chemscore.Internal.Correction.Weighted>
   9.000000E+99

> <Gold.Protein.RotatedTorsions>
[ 6907 6896 6895 6894 ] final -146.76 input  -60.11 | X-H torsion
[ 7974 7965 7964 7962 ] final  -24.43 input  175.53 | X-H torsion
[ 8008 7997 7996 7995 ] final   43.60 input   59.86 | X-H torsion
[ 10167 10162 10161 10158 ] final  -98.67 input  -65.29 | X-H torsion
[ 10718 10713 10712 10709 ] final -163.53 input   66.30 | X-H torsion
[ 10763 10752 10751 10750 ] final  156.69 input  -60.55 | X-H torsion
[ 11005 11000 10999 10996 ] final  -88.54 input  -57.11 | X-H torsion

> <Gold.Protein.ActiveResidues>
 VAL166  LYS551  ARG553  GLY616  TRP617  ASP618  TYR619  PRO620  LYS621  CYS622 
 ASP623  PHE694  ASN695  SER759  ASP760  ASP761  ALA762  ILE779  LEU786  VAL792 
 PHE793  MET794  SER795  GLU796  ALA797  LYS798  CYS799  TRP800  GLU811  SER814 

> <Gold.Protein.RotatedAtoms>
  151.1461  133.4938  159.2595 H   0  0  0  0  0  0  0  0  0  0  0  0  # atno 6907 bound_to 6896
  151.1603  135.0270  159.8717 H   0  0  0  0  0  0  0  0  0  0  0  0  # atno 6908 bound_to 6896
  152.5463  134.1336  159.8502 H   0  0  0  0  0  0  0  0  0  0  0  0  # atno 6909 bound_to 6896
  146.1555  140.4750  142.8593 H   0  0  0  0  0  0  0  0  0  0  0  0  # atno 7974 bound_to 7965
  155.3054  140.3387  155.4246 H   0  0  0  0  0  0  0  0  0  0  0  0  # atno 8008 bound_to 7997
  156.1981  140.1722  156.7995 H   0  0  0  0  0  0  0  0  0  0  0  0  # atno 8009 bound_to 7997
  154.5524  140.0703  156.8673 H   0  0  0  0  0  0  0  0  0  0  0  0  # atno 8010 bound_to 7997
  140.2705  143.3347  152.0539 H   0  0  0  0  0  0  0  0  0  0  0  0  # atno 10167 bound_to 10162
  156.6260  130.8910  151.2967 H   0  0  0  0  0  0  0  0  0  0  0  0  # atno 10718 bound_to 10713
  154.1883  135.2796  155.3030 H   0  0  0  0  0  0  0  0  0  0  0  0  # atno 10763 bound_to 10752
  154.5949  135.5548  153.7319 H   0  0  0  0  0  0  0  0  0  0  0  0  # atno 10764 bound_to 10752
  153.0119  135.6377  154.2021 H   0  0  0  0  0  0  0  0  0  0  0  0  # atno 10765 bound_to 10752
  141.1600  133.7576  156.9465 H   0  0  0  0  0  0  0  0  0  0  0  0  # atno 11005 bound_to 11000
  144.7958  140.6120  143.6511 LP  0  0  0  0  0  0  0  0  0  0  0  0  # atno 17320 bound_to 7965
  145.4719  139.1503  143.3810 LP  0  0  0  0  0  0  0  0  0  0  0  0  # atno 17321 bound_to 7965
  139.4990  144.6659  151.6357 LP  0  0  0  0  0  0  0  0  0  0  0  0  # atno 17342 bound_to 10162
  140.5893  143.9808  150.6315 LP  0  0  0  0  0  0  0  0  0  0  0  0  # atno 17343 bound_to 10162
  157.7214  130.9563  150.1453 LP  0  0  0  0  0  0  0  0  0  0  0  0  # atno 17370 bound_to 10713
  156.2273  130.3679  149.8486 LP  0  0  0  0  0  0  0  0  0  0  0  0  # atno 17371 bound_to 10713
  140.1286  134.9371  157.2305 LP  0  0  0  0  0  0  0  0  0  0  0  0  # atno 17394 bound_to 11000
  140.2982  134.3162  155.7297 LP  0  0  0  0  0  0  0  0  0  0  0  0  # atno 17395 bound_to 11000

$$$$
