AV-unprocessed.smi:1721|AV-procd|sdf|6940|dock10
  -GOLD-   22720 8153D 1   1.00000     0.00000
 Structure written by MMmdl.
 44 46  0  0  0  0  0  0  0  0  2 V2000
  151.9670  138.4029  154.5050 C   0  0  0  0  0  0  0  0  0  0  0  0
  150.5750  138.2983  154.2257 O   0  0  0  0  0  0  0  0  0  0  0  0
  149.7793  139.4139  154.4068 C   0  0  0  0  0  0  0  0  0  0  0  0
  150.3597  140.5492  154.8704 N   0  0  0  0  0  0  0  0  0  0  0  0
  149.5868  141.6391  155.0500 C   0  0  0  0  0  0  0  0  0  0  0  0
  148.2067  141.6560  154.7803 C   0  0  0  0  0  0  0  0  0  0  0  0
  147.6020  140.4802  154.2988 C   0  0  0  0  0  0  0  0  0  0  0  0
  148.3998  139.3251  154.1030 C   0  0  0  0  0  0  0  0  0  0  0  0
  147.9102  138.0752  153.6254 N   0  0  0  0  0  0  0  0  0  0  0  0
  146.6802  137.5402  153.7119 C   0  0  0  0  0  0  0  0  0  0  0  0
  145.7037  138.0616  154.2483 O   0  0  0  0  0  0  0  0  0  0  0  0
  146.6394  136.3336  153.1292 N   0  0  0  0  0  0  0  0  0  0  0  0
  145.4564  135.4819  153.0424 C   0  0  1  0  0  0  0  0  0  0  0  0
  144.1937  136.2512  152.6169 C   0  0  0  0  0  0  0  0  0  0  0  0
  143.4100  135.2809  151.7109 C   0  0  0  0  0  0  0  0  0  0  0  0
  144.1828  134.0241  151.7221 N   0  3  1  0  0  0  0  0  0  0  0  0
  144.0196  133.1213  150.5620 C   0  0  0  0  0  0  0  0  0  0  0  0
  144.8333  131.8338  150.8019 C   0  0  0  0  0  0  0  0  0  0  0  0
  146.3058  132.1425  151.1405 C   0  0  0  0  0  0  0  0  0  0  0  0
  146.4103  133.1586  152.2944 C   0  0  0  0  0  0  0  0  0  0  0  0
  145.5827  134.4104  151.9562 C   0  0  2  0  0  0  0  0  0  0  0  0
  152.4459  137.4434  154.3109 H   0  0  0  0  0  0  0  0  0  0  0  0
  152.1463  138.6563  155.5509 H   0  0  0  0  0  0  0  0  0  0  0  0
  152.4480  139.1467  153.8683 H   0  0  0  0  0  0  0  0  0  0  0  0
  150.0830  142.5235  155.4215 H   0  0  0  0  0  0  0  0  0  0  0  0
  147.6237  142.5510  154.9401 H   0  0  0  0  0  0  0  0  0  0  0  0
  146.5439  140.5005  154.0967 H   0  0  0  0  0  0  0  0  0  0  0  0
  148.5972  137.5137  153.1430 H   0  0  0  0  0  0  0  0  0  0  0  0
  147.4880  135.9803  152.7115 H   0  0  0  0  0  0  0  0  0  0  0  0
  145.2569  135.0031  154.0037 H   0  0  0  0  0  0  0  0  0  0  0  0
  143.6093  136.5588  153.4847 H   0  0  0  0  0  0  0  0  0  0  0  0
  144.4469  137.1527  152.0567 H   0  0  0  0  0  0  0  0  0  0  0  0
  142.3937  135.1102  152.0668 H   0  0  0  0  0  0  0  0  0  0  0  0
  143.3520  135.6793  150.6967 H   0  0  0  0  0  0  0  0  0  0  0  0
  142.9642  132.8807  150.4306 H   0  0  0  0  0  0  0  0  0  0  0  0
  144.3537  133.6211  149.6513 H   0  0  0  0  0  0  0  0  0  0  0  0
  144.3866  131.2738  151.6245 H   0  0  0  0  0  0  0  0  0  0  0  0
  144.7786  131.1876  149.9253 H   0  0  0  0  0  0  0  0  0  0  0  0
  146.8327  131.2240  151.4005 H   0  0  0  0  0  0  0  0  0  0  0  0
  146.8037  132.5450  150.2574 H   0  0  0  0  0  0  0  0  0  0  0  0
  146.0508  132.7083  153.2207 H   0  0  0  0  0  0  0  0  0  0  0  0
  147.4544  133.4250  152.4587 H   0  0  0  0  0  0  0  0  0  0  0  0
  145.9743  134.8684  151.0448 H   0  0  0  0  0  0  0  0  0  0  0  0
  143.8878  133.5147  152.5430 H   0  0  0  0  0  0  0  0  0  0  0  0
  1  2  1  0  0  0  0
  1 22  1  0  0  0  0
  1 23  1  0  0  0  0
  1 24  1  0  0  0  0
  2  3  1  0  0  0  0
  3  8  1  0  0  0  0
  3  4  2  0  0  0  0
  4  5  1  0  0  0  0
  5  6  2  0  0  0  0
  5 25  1  0  0  0  0
  6  7  1  0  0  0  0
  6 26  1  0  0  0  0
  7  8  2  0  0  0  0
  7 27  1  0  0  0  0
  8  9  1  0  0  0  0
  9 10  1  0  0  0  0
  9 28  1  0  0  0  0
 10 11  2  0  0  0  0
 10 12  1  0  0  0  0
 12 13  1  0  0  0  0
 12 29  1  0  0  0  0
 13 21  1  0  0  0  0
 13 14  1  0  0  0  0
 13 30  1  0  0  0  0
 14 15  1  0  0  0  0
 14 31  1  0  0  0  0
 14 32  1  0  0  0  0
 15 16  1  0  0  0  0
 15 33  1  0  0  0  0
 15 34  1  0  0  0  0
 16 21  1  0  0  0  0
 16 17  1  0  0  0  0
 16 44  1  0  0  0  0
 17 18  1  0  0  0  0
 17 35  1  0  0  0  0
 17 36  1  0  0  0  0
 18 19  1  0  0  0  0
 18 37  1  0  0  0  0
 18 38  1  0  0  0  0
 19 20  1  0  0  0  0
 19 39  1  0  0  0  0
 19 40  1  0  0  0  0
 20 21  1  0  0  0  0
 20 41  1  0  0  0  0
 20 42  1  0  0  0  0
 21 43  1  0  0  0  0
M  CHG  1  16   1
M  END
> <s_m_source_file>
AV-unprocessed.smi

> <i_m_source_file_index>
1721

> <i_lp_mmshare_version>
43012

> <i_f3d_flags>
0

> <s_epik_input>
W0NIM11PYzFuW2NIXVtjSF1bY0hdYzFbTkhdQyg9TylbTkhdW0NASF0oW0NIMl1bQ0gyXTIpW0NAQEhdKE4yMylbQ0gyXVtDSDJdW0NIMl1bQ0gyXTM=

> <s_epik_cmdline>
J2VwaWtfcHl0aG9uJywgJy1waCcsICc3LjAnLCAnLXRuJywgJzgnLCAnLW1hJywgJzIwMCcsICctbWV0YWxfYmluZGluZycsICctaW1hZScsICc8aW5maWxlLm1hZT4nLCAnLW9tYWUnLCAnPG91dGZpbGUubWFlPic=

> <r_lp_tautomer_probability>
1

> <r_epik_Ionization_Penalty>
0.00104793

> <r_epik_Ionization_Penalty_Charging>
0.000974069

> <r_epik_Ionization_Penalty_Neutral>
7.38649e-05

> <r_epik_State_Penalty>
0.000633842

> <r_epik_Charging_Adjusted_Penalty>
0.00160791

> <i_epik_Tot_Q>
1

> <i_epik_Tot_abs_Q>
1

> <r_epik_Metal_State_Penalty>
-0

> <b_epik_Metal_Only>
0

> <s_lp_Force_Field>
OPLS_2005

> <r_lp_Energy>
37.3569

> <b_lp_Chiralities_Consistent>
1

> <s_lp_Variant>
AV-unprocessed.smi:1721-6

> <Gold.Version>
5.8.1

> <Gold.Id.Protein>
6NUR|6NUR_protein|mol2

> <Gold.PLP.Fitness>
44.1291

> <Gold.PLP.PLP>
-33.6507

> <Gold.PLP.part.hbond>
-3.0000

> <Gold.PLP.part.metal>
0.0000

> <Gold.PLP.part.buried>
-3.4577

> <Gold.PLP.part.nonpolar>
-27.3936

> <Gold.PLP.part.repulsive>
0.4425

> <Gold.PLP.ligand.clash>
0.0000

> <Gold.PLP.ligand.torsion>
0.3739

> <Gold.PLP.Chemscore.Hbond>
2.8640

> <Gold.PLP.Chemscore.CHOScore>
0.8749

> <Gold.PLP.Chemscore.Metal>
0.0000

> <Gold.Chemscore.Hbonds>
donor molecule, donor type, donor heavy atom, donor atom, acceptor molecule, acceptor atom, score
      L1  H     9    28       P1  7948  0.98
      L1  H    12    29       P1  7948  1.00
      P1  H  7989  7998       L1     4  0.96
      L1  C     5    25       P1  8028  0.84

> <Gold.PLP.Chemscore.Internal.Correction>
0.0096

> <Gold.Rescore>
     Score         DG    S(hbond)    S(metal)    S(lipo)     H(rot)  DE(clash)    DE(int)     intcor
     16.86     -19.44       2.35        0.00      79.65       1.25       0.21       2.36       ----

> <Gold.Chemscore.Fitness>
16.8607

> <Gold.Chemscore.DG>
-19.4390

> <Gold.Chemscore.ZeroCoef>
-5.4800

> <Gold.Chemscore.Hbond>
2.3453

> <Gold.Chemscore.Metal>
0.0000

> <Gold.Chemscore.Lipo>
79.6513

> <Gold.Chemscore.Internal_Hbond>
0.0000

> <Gold.Chemscore.DEClash>
0.2138

> <Gold.Chemscore.DEInternal>
2.3645

> <Gold.Chemscore.Rot>
1.2474

> <Gold.Chemscore.Internal.Correction>
   9.000000E+99

> <Gold.Chemscore.Hbonds>
donor molecule, donor type, donor heavy atom, donor atom, acceptor molecule, acceptor atom, score
      L1  H     9    28       P1  7948  0.93
      L1  H    12    29       P1  7948  0.96
      P1  H  7989  7998       L1     4  0.19

> <Gold.Chemscore.Hbond.Weighted>
-7.8333

> <Gold.Chemscore.Metal.Weighted>
-0.0000

> <Gold.Chemscore.Lipo.Weighted>
-9.3192

> <Gold.Chemscore.Internal_Hbond.Weighted>
0.0000

> <Gold.Chemscore.DEClash.Weighted>
0.2138

> <Gold.Chemscore.DEInternal.Weighted>
2.3645

> <Gold.Chemscore.Rot.Weighted>
3.1934

> <Gold.Chemscore.Internal.Correction.Weighted>
   9.000000E+99

> <Gold.Protein.RotatedTorsions>
[ 6907 6896 6895 6894 ] final -105.65 input  -60.11 | X-H torsion
[ 7974 7965 7964 7962 ] final  131.83 input  175.53 | X-H torsion
[ 8008 7997 7996 7995 ] final   71.59 input   59.86 | X-H torsion
[ 10167 10162 10161 10158 ] final   53.11 input  -65.29 | X-H torsion
[ 10718 10713 10712 10709 ] final   22.74 input   66.30 | X-H torsion
[ 10763 10752 10751 10750 ] final   46.30 input  -60.55 | X-H torsion
[ 11005 11000 10999 10996 ] final -114.77 input  -57.11 | X-H torsion

> <Gold.Protein.ActiveResidues>
 VAL166  LYS551  ARG553  GLY616  TRP617  ASP618  TYR619  PRO620  LYS621  CYS622 
 ASP623  PHE694  ASN695  SER759  ASP760  ASP761  ALA762  ILE779  LEU786  VAL792 
 PHE793  MET794  SER795  GLU796  ALA797  LYS798  CYS799  TRP800  GLU811  SER814 

> <Gold.Protein.RotatedAtoms>
  150.7348  134.0095  159.3664 H   0  0  0  0  0  0  0  0  0  0  0  0  # atno 6907 bound_to 6896
  151.8054  135.0694  160.0415 H   0  0  0  0  0  0  0  0  0  0  0  0  # atno 6908 bound_to 6896
  152.3111  133.5717  159.5718 H   0  0  0  0  0  0  0  0  0  0  0  0  # atno 6909 bound_to 6896
  145.0032  139.4292  143.5282 H   0  0  0  0  0  0  0  0  0  0  0  0  # atno 7974 bound_to 7965
  155.7562  140.3487  155.5175 H   0  0  0  0  0  0  0  0  0  0  0  0  # atno 8008 bound_to 7997
  155.8958  140.1025  157.1407 H   0  0  0  0  0  0  0  0  0  0  0  0  # atno 8009 bound_to 7997
  154.4038  140.1295  156.4360 H   0  0  0  0  0  0  0  0  0  0  0  0  # atno 8010 bound_to 7997
  140.2442  144.3550  150.6369 H   0  0  0  0  0  0  0  0  0  0  0  0  # atno 10167 bound_to 10162
  157.1566  130.6698  149.6029 H   0  0  0  0  0  0  0  0  0  0  0  0  # atno 10718 bound_to 10713
  152.9812  135.6012  154.3576 H   0  0  0  0  0  0  0  0  0  0  0  0  # atno 10763 bound_to 10752
  154.3261  135.2769  155.2497 H   0  0  0  0  0  0  0  0  0  0  0  0  # atno 10764 bound_to 10752
  154.4642  135.5958  153.6332 H   0  0  0  0  0  0  0  0  0  0  0  0  # atno 10765 bound_to 10752
  141.0531  133.9656  157.2802 H   0  0  0  0  0  0  0  0  0  0  0  0  # atno 11005 bound_to 11000
  146.3456  139.9432  142.8738 LP  0  0  0  0  0  0  0  0  0  0  0  0  # atno 17320 bound_to 7965
  145.2125  140.9901  143.4092 LP  0  0  0  0  0  0  0  0  0  0  0  0  # atno 17321 bound_to 7965
  140.6090  143.2168  151.6924 LP  0  0  0  0  0  0  0  0  0  0  0  0  # atno 17342 bound_to 10162
  139.5067  144.3672  152.0505 LP  0  0  0  0  0  0  0  0  0  0  0  0  # atno 17343 bound_to 10162
  155.9761  130.4726  150.6505 LP  0  0  0  0  0  0  0  0  0  0  0  0  # atno 17370 bound_to 10713
  157.4172  131.0832  151.1166 LP  0  0  0  0  0  0  0  0  0  0  0  0  # atno 17371 bound_to 10713
  139.9367  135.0196  156.8577 LP  0  0  0  0  0  0  0  0  0  0  0  0  # atno 17394 bound_to 11000
  140.6017  134.0165  155.7540 LP  0  0  0  0  0  0  0  0  0  0  0  0  # atno 17395 bound_to 11000

$$$$
