AV-unprocessed.smi:1208|AV-procd|sdf|5064|dock9
  -GOLD-   22720 4103D 1   1.00000     0.00000
 Structure written by MMmdl.
 35 36  0  0  0  0  0  0  0  0  2 V2000
  153.0033  138.2953  159.0015 C   0  0  0  0  0  0  0  0  0  0  0  0
  151.9400  138.3954  157.8957 C   0  0  1  0  0  0  0  0  0  0  0  0
  150.5993  138.2936  158.4621 N   0  0  0  0  0  0  0  0  0  0  0  0
  149.8606  137.1789  158.5780 C   0  0  0  0  0  0  0  0  0  0  0  0
  150.2803  136.0610  158.2800 O   0  0  0  0  0  0  0  0  0  0  0  0
  148.4141  137.3394  159.0779 C   0  0  0  0  0  0  0  0  0  0  0  0
  148.0802  136.5067  160.2467 N   0  0  0  0  0  0  0  0  0  0  0  0
  147.7038  137.2708  161.4326 N   0  5  0  0  0  0  0  0  0  0  0  0
  147.3289  136.6062  162.5578 C   0  0  0  0  0  0  0  0  0  0  0  0
  146.9812  137.1808  163.5866 O   0  0  0  0  0  0  0  0  0  0  0  0
  147.3439  135.1530  162.5314 C   0  0  0  0  0  0  0  0  0  0  0  0
  147.7077  134.4730  161.4264 C   0  0  0  0  0  0  0  0  0  0  0  0
  148.1019  135.1438  160.1936 C   0  0  0  0  0  0  0  0  0  0  0  0
  148.4176  134.5286  159.1754 O   0  0  0  0  0  0  0  0  0  0  0  0
  152.0664  139.7003  157.0802 C   0  0  1  0  0  0  0  0  0  0  0  0
  151.1147  139.8056  155.8753 C   0  0  0  0  0  0  0  0  0  0  0  0
  150.6710  141.2522  155.9131 C   0  0  0  0  0  0  0  0  0  0  0  0
  150.6514  141.5265  157.4095 C   0  0  0  0  0  0  0  0  0  0  0  0
  151.7927  140.8377  157.9010 O   0  0  0  0  0  0  0  0  0  0  0  0
  154.0085  138.3631  158.5854 H   0  0  0  0  0  0  0  0  0  0  0  0
  152.9321  137.3458  159.5329 H   0  0  0  0  0  0  0  0  0  0  0  0
  152.8918  139.0952  159.7343 H   0  0  0  0  0  0  0  0  0  0  0  0
  152.0909  137.5629  157.2063 H   0  0  0  0  0  0  0  0  0  0  0  0
  150.1685  139.1603  158.7529 H   0  0  0  0  0  0  0  0  0  0  0  0
  148.2355  138.3906  159.3105 H   0  0  0  0  0  0  0  0  0  0  0  0
  147.7446  137.1090  158.2475 H   0  0  0  0  0  0  0  0  0  0  0  0
  147.0579  134.6063  163.4178 H   0  0  0  0  0  0  0  0  0  0  0  0
  147.7042  133.3937  161.4516 H   0  0  0  0  0  0  0  0  0  0  0  0
  153.0922  139.8060  156.7245 H   0  0  0  0  0  0  0  0  0  0  0  0
  151.5978  139.5385  154.9352 H   0  0  0  0  0  0  0  0  0  0  0  0
  150.2441  139.1593  155.9912 H   0  0  0  0  0  0  0  0  0  0  0  0
  151.4100  141.8877  155.4236 H   0  0  0  0  0  0  0  0  0  0  0  0
  149.7034  141.4162  155.4380 H   0  0  0  0  0  0  0  0  0  0  0  0
  150.6873  142.5894  157.6475 H   0  0  0  0  0  0  0  0  0  0  0  0
  149.7567  141.1030  157.8662 H   0  0  0  0  0  0  0  0  0  0  0  0
  1  2  1  0  0  0  0
  1 20  1  0  0  0  0
  1 21  1  0  0  0  0
  1 22  1  0  0  0  0
  2  3  1  0  0  0  0
  2 15  1  0  0  0  0
  2 23  1  0  0  0  0
  3  4  1  0  0  0  0
  3 24  1  0  0  0  0
  4  5  2  0  0  0  0
  4  6  1  0  0  0  0
  6 25  1  0  0  0  0
  6 26  1  0  0  0  0
  6  7  1  0  0  0  0
  7  8  1  0  0  0  0
  7 13  1  0  0  0  0
  8  9  1  0  0  0  0
  9 10  2  0  0  0  0
  9 11  1  0  0  0  0
 11 27  1  0  0  0  0
 11 12  2  0  0  0  0
 12 28  1  0  0  0  0
 12 13  1  0  0  0  0
 13 14  2  0  0  0  0
 15 19  1  0  0  0  0
 15 16  1  0  0  0  0
 15 29  1  0  0  0  0
 16 17  1  0  0  0  0
 16 30  1  0  0  0  0
 16 31  1  0  0  0  0
 17 18  1  0  0  0  0
 17 32  1  0  0  0  0
 17 33  1  0  0  0  0
 18 19  1  0  0  0  0
 18 34  1  0  0  0  0
 18 35  1  0  0  0  0
M  CHG  1   8  -1
M  END
> <s_m_source_file>
AV-unprocessed.smi

> <i_m_source_file_index>
1208

> <i_lp_mmshare_version>
43012

> <i_f3d_flags>
0

> <s_epik_input>
TzFbQ0gyXVtDSDJdW0NIMl1bQ0BIXTFbQ0BIXShbQ0gzXSlbTkhdQyg9TylbQ0gyXW4yW25IXWMoPU8pW2NIXVtjSF1jMj1P

> <s_epik_cmdline>
J2VwaWtfcHl0aG9uJywgJy1waCcsICc3LjAnLCAnLXRuJywgJzgnLCAnLW1hJywgJzIwMCcsICctbWV0YWxfYmluZGluZycsICctaW1hZScsICc8aW5maWxlLm1hZT4nLCAnLW9tYWUnLCAnPG91dGZpbGUubWFlPic=

> <r_lp_tautomer_probability>
1

> <r_epik_Ionization_Penalty>
0.0975494

> <r_epik_Ionization_Penalty_Charging>
0.0975494

> <r_epik_Ionization_Penalty_Neutral>
2.30132e-08

> <r_epik_State_Penalty>
0.034345

> <r_epik_Charging_Adjusted_Penalty>
0.131894

> <i_epik_Tot_Q>
-1

> <i_epik_Tot_abs_Q>
1

> <r_epik_Metal_State_Penalty>
0.034345

> <b_epik_Metal_Only>
0

> <s_lp_Force_Field>
OPLS_2005

> <r_lp_Energy>
31.4648

> <b_lp_Chiralities_Consistent>
1

> <s_lp_Variant>
AV-unprocessed.smi:1208-4

> <Gold.Version>
5.8.1

> <Gold.Id.Protein>
6NUR|6NUR_protein|mol2

> <Gold.PLP.Fitness>
42.3613

> <Gold.PLP.PLP>
-29.7606

> <Gold.PLP.part.hbond>
-3.4610

> <Gold.PLP.part.metal>
0.0000

> <Gold.PLP.part.buried>
-2.1592

> <Gold.PLP.part.nonpolar>
-24.3852

> <Gold.PLP.part.repulsive>
0.1459

> <Gold.PLP.ligand.clash>
0.0000

> <Gold.PLP.ligand.torsion>
0.3812

> <Gold.PLP.Chemscore.Hbond>
4.4480

> <Gold.PLP.Chemscore.CHOScore>
0.0000

> <Gold.PLP.Chemscore.Metal>
0.0000

> <Gold.Chemscore.Hbonds>
donor molecule, donor type, donor heavy atom, donor atom, acceptor molecule, acceptor atom, score
      P1  H  6896  6908       L1     5  0.86
      P1  H  6931  6943       L1     8  1.92
      P1  H  6934  6947       L1     8  1.54

> <Gold.PLP.Chemscore.Internal.Correction>
0.0190

> <Gold.Rescore>
     Score         DG    S(hbond)    S(metal)    S(lipo)     H(rot)  DE(clash)    DE(int)     intcor
     10.58     -13.13       2.00        0.00      51.91       1.99       0.73       1.81       ----

> <Gold.Chemscore.Fitness>
10.5803

> <Gold.Chemscore.DG>
-13.1263

> <Gold.Chemscore.ZeroCoef>
-5.4800

> <Gold.Chemscore.Hbond>
1.9991

> <Gold.Chemscore.Metal>
0.0000

> <Gold.Chemscore.Lipo>
51.9130

> <Gold.Chemscore.Internal_Hbond>
0.0000

> <Gold.Chemscore.DEClash>
0.7336

> <Gold.Chemscore.DEInternal>
1.8124

> <Gold.Chemscore.Rot>
1.9940

> <Gold.Chemscore.Internal.Correction>
   9.000000E+99

> <Gold.Chemscore.Hbonds>
donor molecule, donor type, donor heavy atom, donor atom, acceptor molecule, acceptor atom, score
      P1  H  6896  6908       L1     5  0.84
      P1  H  6931  6943       L1     8  0.32
      P1  H  6934  6947       L1     8  0.58

> <Gold.Chemscore.Hbond.Weighted>
-6.6772

> <Gold.Chemscore.Metal.Weighted>
-0.0000

> <Gold.Chemscore.Lipo.Weighted>
-6.0738

> <Gold.Chemscore.Internal_Hbond.Weighted>
0.0000

> <Gold.Chemscore.DEClash.Weighted>
0.7336

> <Gold.Chemscore.DEInternal.Weighted>
1.8124

> <Gold.Chemscore.Rot.Weighted>
5.1047

> <Gold.Chemscore.Internal.Correction.Weighted>
   9.000000E+99

> <Gold.Protein.RotatedTorsions>
[ 6907 6896 6895 6894 ] final  178.36 input  -60.11 | X-H torsion
[ 7974 7965 7964 7962 ] final -111.43 input  175.53 | X-H torsion
[ 8008 7997 7996 7995 ] final   -3.11 input   59.86 | X-H torsion
[ 10167 10162 10161 10158 ] final  128.28 input  -65.29 | X-H torsion
[ 10718 10713 10712 10709 ] final -122.86 input   66.30 | X-H torsion
[ 10763 10752 10751 10750 ] final  130.94 input  -60.55 | X-H torsion
[ 11005 11000 10999 10996 ] final   76.90 input  -57.11 | X-H torsion

> <Gold.Protein.ActiveResidues>
 VAL166  LYS551  ARG553  GLY616  TRP617  ASP618  TYR619  PRO620  LYS621  CYS622 
 ASP623  PHE694  ASN695  SER759  ASP760  ASP761  ALA762  ILE779  LEU786  VAL792 
 PHE793  MET794  SER795  GLU796  ALA797  LYS798  CYS799  TRP800  GLU811  SER814 

> <Gold.Protein.RotatedAtoms>
  151.6891  133.3311  159.3238 H   0  0  0  0  0  0  0  0  0  0  0  0  # atno 6907 bound_to 6896
  150.7787  134.6714  159.6403 H   0  0  0  0  0  0  0  0  0  0  0  0  # atno 6908 bound_to 6896
  152.3837  134.6553  160.0185 H   0  0  0  0  0  0  0  0  0  0  0  0  # atno 6909 bound_to 6896
  145.1561  140.8854  143.3618 H   0  0  0  0  0  0  0  0  0  0  0  0  # atno 7974 bound_to 7965
  154.6285  140.2517  155.7463 H   0  0  0  0  0  0  0  0  0  0  0  0  # atno 8008 bound_to 7997
  156.2466  140.2912  156.0545 H   0  0  0  0  0  0  0  0  0  0  0  0  # atno 8009 bound_to 7997
  155.1783  140.0388  157.2867 H   0  0  0  0  0  0  0  0  0  0  0  0  # atno 8010 bound_to 7997
  139.5535  144.6831  151.4252 H   0  0  0  0  0  0  0  0  0  0  0  0  # atno 10167 bound_to 10162
  156.1453  130.6496  150.9833 H   0  0  0  0  0  0  0  0  0  0  0  0  # atno 10718 bound_to 10713
  153.7662  135.3188  155.3345 H   0  0  0  0  0  0  0  0  0  0  0  0  # atno 10763 bound_to 10752
  154.8212  135.4601  154.0789 H   0  0  0  0  0  0  0  0  0  0  0  0  # atno 10764 bound_to 10752
  153.2035  135.6926  153.8286 H   0  0  0  0  0  0  0  0  0  0  0  0  # atno 10765 bound_to 10752
  139.9278  134.7639  156.1453 H   0  0  0  0  0  0  0  0  0  0  0  0  # atno 11005 bound_to 11000
  145.0379  139.3285  143.5991 LP  0  0  0  0  0  0  0  0  0  0  0  0  # atno 17320 bound_to 7965
  146.3488  139.9742  142.8703 LP  0  0  0  0  0  0  0  0  0  0  0  0  # atno 17321 bound_to 7965
  140.6803  143.8096  150.7113 LP  0  0  0  0  0  0  0  0  0  0  0  0  # atno 17342 bound_to 10162
  140.1548  143.4326  152.2107 LP  0  0  0  0  0  0  0  0  0  0  0  0  # atno 17343 bound_to 10162
  157.6611  131.0880  150.7835 LP  0  0  0  0  0  0  0  0  0  0  0  0  # atno 17370 bound_to 10713
  156.7907  130.4889  149.5385 LP  0  0  0  0  0  0  0  0  0  0  0  0  # atno 17371 bound_to 10713
  141.0847  133.6739  156.2411 LP  0  0  0  0  0  0  0  0  0  0  0  0  # atno 17394 bound_to 11000
  140.6287  134.5286  157.5557 LP  0  0  0  0  0  0  0  0  0  0  0  0  # atno 17395 bound_to 11000

$$$$
