AV-unprocessed.smi:114|AV-procd|sdf|1117|dock9
  -GOLD-   2262018243D 1   1.00000     0.00000
 Structure written by MMmdl.
 32 34  0  0  0  0  0  0  0  0  1 V2000
  152.8344  137.6983  159.5158 N   0  0  0  0  0  0  0  0  0  0  0  0
  151.8539  137.7573  158.6033 C   0  0  0  0  0  0  0  0  0  0  0  0
  150.9118  136.7862  158.6078 N   0  0  0  0  0  0  0  0  0  0  0  0
  149.9148  136.8085  157.7154 C   0  0  0  0  0  0  0  0  0  0  0  0
  149.0175  135.7976  157.7901 F   0  0  0  0  0  0  0  0  0  0  0  0
  149.7065  137.7163  156.7561 N   0  0  0  0  0  0  0  0  0  0  0  0
  150.6530  138.6988  156.7454 C   0  0  0  0  0  0  0  0  0  0  0  0
  151.7570  138.7879  157.6362 C   0  0  0  0  0  0  0  0  0  0  0  0
  152.5155  139.9115  157.3407 N   0  0  0  0  0  0  0  0  0  0  0  0
  151.8876  140.4561  156.3334 C   0  0  0  0  0  0  0  0  0  0  0  0
  150.7601  139.7901  155.9038 N   0  0  0  0  0  0  0  0  0  0  0  0
  149.8435  140.1999  154.7918 C   0  0  2  0  0  0  0  0  0  0  0  0
  149.0752  141.2792  155.2357 O   0  0  0  0  0  0  0  0  0  0  0  0
  147.6904  140.9362  155.2684 C   0  0  1  0  0  0  0  0  0  0  0  0
  146.8073  142.1765  155.0430 C   0  0  0  0  0  0  0  0  0  0  0  0
  147.3749  143.0019  154.0483 O   0  0  0  0  0  0  0  0  0  0  0  0
  147.5701  139.8329  154.2093 C   0  0  1  0  0  0  0  0  0  0  0  0
  147.4474  140.3978  152.9127 O   0  0  0  0  0  0  0  0  0  0  0  0
  148.8796  139.0720  154.3926 C   0  0  1  0  0  0  0  0  0  0  0  0
  149.2616  138.3938  153.2104 O   0  0  0  0  0  0  0  0  0  0  0  0
  150.4970  140.5264  153.9817 H   0  0  0  0  0  0  0  0  0  0  0  0
  147.4551  140.4948  156.2367 H   0  0  0  0  0  0  0  0  0  0  0  0
  146.7045  139.1935  154.3863 H   0  0  0  0  0  0  0  0  0  0  0  0
  148.7773  138.3567  155.2087 H   0  0  0  0  0  0  0  0  0  0  0  0
  153.5489  138.4117  159.5335 H   0  0  0  0  0  0  0  0  0  0  0  0
  152.8524  136.9450  160.1880 H   0  0  0  0  0  0  0  0  0  0  0  0
  152.2338  141.3697  155.8720 H   0  0  0  0  0  0  0  0  0  0  0  0
  145.7901  141.8971  154.7665 H   0  0  0  0  0  0  0  0  0  0  0  0
  146.7469  142.7661  155.9583 H   0  0  0  0  0  0  0  0  0  0  0  0
  148.0335  143.5475  154.4503 H   0  0  0  0  0  0  0  0  0  0  0  0
  148.2817  140.3184  152.4754 H   0  0  0  0  0  0  0  0  0  0  0  0
  149.4611  139.0378  152.5479 H   0  0  0  0  0  0  0  0  0  0  0  0
  1  2  1  0  0  0  0
  1 25  1  0  0  0  0
  1 26  1  0  0  0  0
  2  8  1  0  0  0  0
  2  3  2  0  0  0  0
  3  4  1  0  0  0  0
  4  5  1  0  0  0  0
  4  6  2  0  0  0  0
  6  7  1  0  0  0  0
  7 11  1  0  0  0  0
  7  8  2  0  0  0  0
  8  9  1  0  0  0  0
  9 10  2  0  0  0  0
 10 11  1  0  0  0  0
 10 27  1  0  0  0  0
 11 12  1  0  0  0  0
 12 21  1  0  0  0  0
 12 19  1  0  0  0  0
 12 13  1  0  0  0  0
 13 14  1  0  0  0  0
 14 22  1  0  0  0  0
 14 15  1  0  0  0  0
 14 17  1  0  0  0  0
 15 16  1  0  0  0  0
 15 28  1  0  0  0  0
 15 29  1  0  0  0  0
 16 30  1  0  0  0  0
 17 23  1  0  0  0  0
 17 18  1  0  0  0  0
 17 19  1  0  0  0  0
 18 31  1  0  0  0  0
 19 24  1  0  0  0  0
 19 20  1  0  0  0  0
 20 32  1  0  0  0  0
M  END
> <s_m_source_file>
AV-unprocessed.smi

> <i_m_source_file_index>
114

> <i_lp_mmshare_version>
43012

> <i_f3d_flags>
0

> <s_epik_input>
RmMobjEpbmMoW05IMl0pYyhjMTIpbltjSF1uMltDQEBIXTNPW0NASF0oW0NIMl1bT0hdKVtDQEBIXShbT0hdKVtDQEBIXTNbT0hd

> <s_epik_cmdline>
J2VwaWtfcHl0aG9uJywgJy1waCcsICc3LjAnLCAnLXRuJywgJzgnLCAnLW1hJywgJzIwMCcsICctbWV0YWxfYmluZGluZycsICctaW1hZScsICc8aW5maWxlLm1hZT4nLCAnLW9tYWUnLCAnPG91dGZpbGUubWFlPic=

> <r_lp_tautomer_probability>
1

> <r_epik_Ionization_Penalty>
1.13199e-05

> <r_epik_Ionization_Penalty_Charging>
0

> <r_epik_Ionization_Penalty_Neutral>
1.13199e-05

> <r_epik_State_Penalty>
-0

> <r_epik_Charging_Adjusted_Penalty>
0

> <i_epik_Tot_Q>
0

> <i_epik_Tot_abs_Q>
0

> <r_epik_Metal_State_Penalty>
-0

> <b_epik_Metal_Only>
0

> <s_epik_Chemistry_Notes>
This compound contains an acetal/aminal-like group ( X-CH(R)-Y where X, Y are N, S, or O) that may be acid/base labile, releasing an aldehyde.

> <s_lp_Force_Field>
OPLS_2005

> <r_lp_Energy>
42.9568

> <b_lp_Chiralities_Consistent>
1

> <s_lp_Variant>
AV-unprocessed.smi:114-11

> <Gold.Version>
5.8.1

> <Gold.Id.Protein>
6NUR|6NUR_protein|mol2

> <Gold.PLP.Fitness>
37.5129

> <Gold.PLP.PLP>
-24.4470

> <Gold.PLP.part.hbond>
-7.1794

> <Gold.PLP.part.metal>
0.0000

> <Gold.PLP.part.buried>
-4.6972

> <Gold.PLP.part.nonpolar>
-13.5511

> <Gold.PLP.part.repulsive>
0.2172

> <Gold.PLP.ligand.clash>
0.0000

> <Gold.PLP.ligand.torsion>
0.5114

> <Gold.PLP.Chemscore.Hbond>
4.6937

> <Gold.PLP.Chemscore.CHOScore>
0.0000

> <Gold.PLP.Chemscore.Metal>
0.0000

> <Gold.Chemscore.Hbonds>
donor molecule, donor type, donor heavy atom, donor atom, acceptor molecule, acceptor atom, score
      L1  H    16    30       P1  8028  1.00
      L1  H    18    31       P1  7957  1.00
      L1  H    20    32       P1  7957  1.00
      P1  H  6896  6907       L1     3  0.68
      P1  H  7997  8010       L1     9  1.00

> <Gold.PLP.Chemscore.Internal.Correction>
0.0076

> <Gold.Rescore>
     Score         DG    S(hbond)    S(metal)    S(lipo)     H(rot)  DE(clash)    DE(int)     intcor
      9.38     -11.30       4.01        0.00      23.36       4.03       0.07       1.85       ----

> <Gold.Chemscore.Fitness>
9.3810

> <Gold.Chemscore.DG>
-11.2982

> <Gold.Chemscore.ZeroCoef>
-5.4800

> <Gold.Chemscore.Hbond>
4.0107

> <Gold.Chemscore.Metal>
0.0000

> <Gold.Chemscore.Lipo>
23.3634

> <Gold.Chemscore.Internal_Hbond>
0.0000

> <Gold.Chemscore.DEClash>
0.0655

> <Gold.Chemscore.DEInternal>
1.8518

> <Gold.Chemscore.Rot>
4.0277

> <Gold.Chemscore.Internal.Correction>
   9.000000E+99

> <Gold.Chemscore.Hbonds>
donor molecule, donor type, donor heavy atom, donor atom, acceptor molecule, acceptor atom, score
      L1  H    16    30       P1  8028  0.82
      L1  H    18    31       P1  7957  1.00
      L1  H    20    32       P1  7957  0.94
      P1  H  6896  6907       L1     3  0.59
      P1  H  7997  8010       L1     9  0.25

> <Gold.Chemscore.Hbond.Weighted>
-13.3957

> <Gold.Chemscore.Metal.Weighted>
-0.0000

> <Gold.Chemscore.Lipo.Weighted>
-2.7335

> <Gold.Chemscore.Internal_Hbond.Weighted>
0.0000

> <Gold.Chemscore.DEClash.Weighted>
0.0655

> <Gold.Chemscore.DEInternal.Weighted>
1.8518

> <Gold.Chemscore.Rot.Weighted>
10.3110

> <Gold.Chemscore.Internal.Correction.Weighted>
   9.000000E+99

> <Gold.Protein.RotatedTorsions>
[ 6907 6896 6895 6894 ] final  -36.37 input  -60.11 | X-H torsion
[ 7974 7965 7964 7962 ] final   90.58 input  175.53 | X-H torsion
[ 8008 7997 7996 7995 ] final   55.18 input   59.86 | X-H torsion
[ 10167 10162 10161 10158 ] final   72.07 input  -65.29 | X-H torsion
[ 10718 10713 10712 10709 ] final   54.44 input   66.30 | X-H torsion
[ 10763 10752 10751 10750 ] final   73.75 input  -60.55 | X-H torsion
[ 11005 11000 10999 10996 ] final  -20.01 input  -57.11 | X-H torsion

> <Gold.Protein.ActiveResidues>
 VAL166  LYS551  ARG553  GLY616  TRP617  ASP618  TYR619  PRO620  LYS621  CYS622 
 ASP623  PHE694  ASN695  SER759  ASP760  ASP761  ALA762  ILE779  LEU786  VAL792 
 PHE793  MET794  SER795  GLU796  ALA797  LYS798  CYS799  TRP800  GLU811  SER814 

> <Gold.Protein.RotatedAtoms>
  151.0280  134.9518  159.8095 H   0  0  0  0  0  0  0  0  0  0  0  0  # atno 6907 bound_to 6896
  152.5339  134.2817  159.9020 H   0  0  0  0  0  0  0  0  0  0  0  0  # atno 6908 bound_to 6896
  151.2826  133.4160  159.2662 H   0  0  0  0  0  0  0  0  0  0  0  0  # atno 6909 bound_to 6896
  145.5171  139.2278  143.2692 H   0  0  0  0  0  0  0  0  0  0  0  0  # atno 7974 bound_to 7965
  155.4969  140.3473  155.4364 H   0  0  0  0  0  0  0  0  0  0  0  0  # atno 8008 bound_to 7997
  156.0940  140.1418  156.9583 H   0  0  0  0  0  0  0  0  0  0  0  0  # atno 8009 bound_to 7997
  154.4652  140.0920  156.6978 H   0  0  0  0  0  0  0  0  0  0  0  0  # atno 8010 bound_to 7997
  140.0392  144.5403  150.7447 H   0  0  0  0  0  0  0  0  0  0  0  0  # atno 10167 bound_to 10162
  157.5257  130.8595  149.8618 H   0  0  0  0  0  0  0  0  0  0  0  0  # atno 10718 bound_to 10713
  153.0541  135.5051  154.7939 H   0  0  0  0  0  0  0  0  0  0  0  0  # atno 10763 bound_to 10752
  154.6779  135.2963  154.9656 H   0  0  0  0  0  0  0  0  0  0  0  0  # atno 10764 bound_to 10752
  154.0452  135.6711  153.4847 H   0  0  0  0  0  0  0  0  0  0  0  0  # atno 10765 bound_to 10752
  140.8423  133.7917  155.9874 H   0  0  0  0  0  0  0  0  0  0  0  0  # atno 11005 bound_to 11000
  146.2130  140.5981  142.9051 LP  0  0  0  0  0  0  0  0  0  0  0  0  # atno 17320 bound_to 7965
  144.7696  140.5608  143.6679 LP  0  0  0  0  0  0  0  0  0  0  0  0  # atno 17321 bound_to 7965
  140.7267  143.2644  151.4094 LP  0  0  0  0  0  0  0  0  0  0  0  0  # atno 17342 bound_to 10162
  139.6025  144.1266  152.2213 LP  0  0  0  0  0  0  0  0  0  0  0  0  # atno 17343 bound_to 10162
  156.0385  130.3745  150.1497 LP  0  0  0  0  0  0  0  0  0  0  0  0  # atno 17370 bound_to 10713
  156.9683  130.9827  151.3464 LP  0  0  0  0  0  0  0  0  0  0  0  0  # atno 17371 bound_to 10713
  140.8882  134.2528  157.5109 LP  0  0  0  0  0  0  0  0  0  0  0  0  # atno 17394 bound_to 11000
  139.8703  134.9648  156.4508 LP  0  0  0  0  0  0  0  0  0  0  0  0  # atno 17395 bound_to 11000

$$$$
