AV-unprocessed.smi:861|AV-procd|sdf|3971|dock1
  -GOLD-   22720 1443D 1   1.00000     0.00000
 Structure written by MMmdl.
 43 44  0  0  0  0  0  0  0  0  1 V2000
  153.6521  141.8350  161.1724 C   0  0  0  0  0  0  0  0  0  0  0  0
  153.1035  142.3979  159.8501 C   0  0  0  0  0  0  0  0  0  0  0  0
  152.3793  143.7299  160.0996 C   0  0  0  0  0  0  0  0  0  0  0  0
  152.1785  141.4026  159.1194 C   0  0  0  0  0  0  0  0  0  0  0  0
  151.6157  141.9364  157.7869 C   0  0  0  0  0  0  0  0  0  0  0  0
  150.9622  140.9357  156.9430 N   0  0  0  0  0  0  0  0  0  0  0  0
  151.9455  140.1984  156.1572 C   0  0  0  0  0  0  0  0  0  0  0  0
  151.2857  139.1429  155.2554 C   0  0  0  0  0  0  0  0  0  0  0  0
  150.3307  139.7764  154.4121 O   0  0  0  0  0  0  0  0  0  0  0  0
  149.3096  140.4585  155.1362 C   0  0  2  0  0  0  0  0  0  0  0  0
  148.3286  141.1004  154.1400 C   0  0  0  0  0  0  0  0  0  0  0  0
  148.0693  140.2467  152.9860 N   0  0  0  0  0  0  0  0  0  0  0  0
  147.0174  139.3189  152.9905 C   0  0  0  0  0  0  0  0  0  0  0  0
  146.7631  138.5760  151.8202 C   0  0  0  0  0  0  0  0  0  0  0  0
  145.7065  137.6496  151.8510 C   0  0  0  0  0  0  0  0  0  0  0  0
  144.9844  137.5347  153.0529 C   0  0  0  0  0  0  0  0  0  0  0  0
  145.2736  138.2707  154.1492 N   0  0  0  0  0  0  0  0  0  0  0  0
  146.2807  139.1508  154.1177 N   0  0  0  0  0  0  0  0  0  0  0  0
  149.9763  141.5198  156.0348 C   0  0  0  0  0  0  0  0  0  0  0  0
  152.8445  141.5650  161.8537 H   0  0  0  0  0  0  0  0  0  0  0  0
  154.2793  142.5696  161.6784 H   0  0  0  0  0  0  0  0  0  0  0  0
  154.2659  140.9490  161.0130 H   0  0  0  0  0  0  0  0  0  0  0  0
  153.9521  142.6104  159.1986 H   0  0  0  0  0  0  0  0  0  0  0  0
  151.5070  143.5921  160.7395 H   0  0  0  0  0  0  0  0  0  0  0  0
  152.0392  144.1761  159.1645 H   0  0  0  0  0  0  0  0  0  0  0  0
  153.0375  144.4514  160.5844 H   0  0  0  0  0  0  0  0  0  0  0  0
  152.7106  140.4662  158.9452 H   0  0  0  0  0  0  0  0  0  0  0  0
  151.3511  141.1610  159.7859 H   0  0  0  0  0  0  0  0  0  0  0  0
  150.9251  142.7574  157.9853 H   0  0  0  0  0  0  0  0  0  0  0  0
  152.4406  142.3700  157.2222 H   0  0  0  0  0  0  0  0  0  0  0  0
  152.5188  140.8904  155.5382 H   0  0  0  0  0  0  0  0  0  0  0  0
  152.6594  139.7085  156.8202 H   0  0  0  0  0  0  0  0  0  0  0  0
  152.0354  138.6496  154.6365 H   0  0  0  0  0  0  0  0  0  0  0  0
  150.8013  138.3691  155.8526 H   0  0  0  0  0  0  0  0  0  0  0  0
  148.7713  139.7456  155.7641 H   0  0  0  0  0  0  0  0  0  0  0  0
  147.3697  141.2553  154.6352 H   0  0  0  0  0  0  0  0  0  0  0  0
  148.6716  142.0902  153.8371 H   0  0  0  0  0  0  0  0  0  0  0  0
  148.4580  140.5277  152.0976 H   0  0  0  0  0  0  0  0  0  0  0  0
  147.3554  138.7110  150.9269 H   0  0  0  0  0  0  0  0  0  0  0  0
  145.4587  137.0501  150.9880 H   0  0  0  0  0  0  0  0  0  0  0  0
  144.1620  136.8400  153.1384 H   0  0  0  0  0  0  0  0  0  0  0  0
  149.1968  142.0278  156.6009 H   0  0  0  0  0  0  0  0  0  0  0  0
  150.4536  142.2765  155.4102 H   0  0  0  0  0  0  0  0  0  0  0  0
  1  2  1  0  0  0  0
  1 20  1  0  0  0  0
  1 21  1  0  0  0  0
  1 22  1  0  0  0  0
  2  3  1  0  0  0  0
  2  4  1  0  0  0  0
  2 23  1  0  0  0  0
  3 24  1  0  0  0  0
  3 25  1  0  0  0  0
  3 26  1  0  0  0  0
  4  5  1  0  0  0  0
  4 27  1  0  0  0  0
  4 28  1  0  0  0  0
  5  6  1  0  0  0  0
  5 29  1  0  0  0  0
  5 30  1  0  0  0  0
  6 19  1  0  0  0  0
  6  7  1  0  0  0  0
  7  8  1  0  0  0  0
  7 31  1  0  0  0  0
  7 32  1  0  0  0  0
  8  9  1  0  0  0  0
  8 33  1  0  0  0  0
  8 34  1  0  0  0  0
  9 10  1  0  0  0  0
 10 11  1  0  0  0  0
 10 19  1  0  0  0  0
 10 35  1  0  0  0  0
 11 12  1  0  0  0  0
 11 36  1  0  0  0  0
 11 37  1  0  0  0  0
 12 13  1  0  0  0  0
 12 38  1  0  0  0  0
 13 18  1  0  0  0  0
 13 14  2  0  0  0  0
 14 15  1  0  0  0  0
 14 39  1  0  0  0  0
 15 16  2  0  0  0  0
 15 40  1  0  0  0  0
 16 17  1  0  0  0  0
 16 41  1  0  0  0  0
 17 18  2  0  0  0  0
 19 42  1  0  0  0  0
 19 43  1  0  0  0  0
M  END
> <s_m_source_file>
AV-unprocessed.smi

> <i_m_source_file_index>
861

> <i_lp_mmshare_version>
43012

> <i_f3d_flags>
0

> <s_epik_input>
W0NIM11bQ0hdKFtDSDNdKVtDSDJdW0NIMl1OMVtDSDJdW0NIMl1PW0NASF0oW0NIMl0xKVtDSDJdW05IXWMyW2NIXVtjSF1bY0hdbm4y

> <s_epik_cmdline>
J2VwaWtfcHl0aG9uJywgJy1waCcsICc3LjAnLCAnLXRuJywgJzgnLCAnLW1hJywgJzIwMCcsICctbWV0YWxfYmluZGluZycsICctaW1hZScsICc8aW5maWxlLm1hZT4nLCAnLW9tYWUnLCAnPG91dGZpbGUubWFlPic=

> <r_lp_tautomer_probability>
0.999978

> <r_epik_Ionization_Penalty>
1.1508

> <r_epik_Ionization_Penalty_Charging>
0

> <r_epik_Ionization_Penalty_Neutral>
1.1508

> <r_epik_State_Penalty>
1.22808

> <r_epik_Charging_Adjusted_Penalty>
1.22808

> <i_epik_Tot_Q>
0

> <i_epik_Tot_abs_Q>
0

> <r_epik_Metal_State_Penalty>
1.22149

> <b_epik_Metal_Only>
0

> <s_lp_Force_Field>
OPLS_2005

> <r_lp_Energy>
31.1204

> <b_lp_Chiralities_Consistent>
1

> <s_lp_Variant>
AV-unprocessed.smi:861-6

> <Gold.Version>
5.8.1

> <Gold.Id.Protein>
6NUR|6NUR_protein|mol2

> <Gold.PLP.Fitness>
42.2135

> <Gold.PLP.PLP>
-38.8039

> <Gold.PLP.part.hbond>
-1.4532

> <Gold.PLP.part.metal>
0.0000

> <Gold.PLP.part.buried>
-1.8519

> <Gold.PLP.part.nonpolar>
-36.6854

> <Gold.PLP.part.repulsive>
0.5348

> <Gold.PLP.ligand.clash>
0.0000

> <Gold.PLP.ligand.torsion>
0.6956

> <Gold.PLP.Chemscore.Hbond>
1.5488

> <Gold.PLP.Chemscore.CHOScore>
0.0000

> <Gold.PLP.Chemscore.Metal>
0.0000

> <Gold.Chemscore.Hbonds>
donor molecule, donor type, donor heavy atom, donor atom, acceptor molecule, acceptor atom, score
      L1  H    12    38       P1  7957  0.75
      P1  H  7989  7998       L1     9  0.75

> <Gold.PLP.Chemscore.Internal.Correction>
0.1544

> <Gold.Rescore>
     Score         DG    S(hbond)    S(metal)    S(lipo)     H(rot)  DE(clash)    DE(int)     intcor
     16.91     -17.66       1.39        0.00     100.76       1.66       0.14       0.61       ----

> <Gold.Chemscore.Fitness>
16.9107

> <Gold.Chemscore.DG>
-17.6637

> <Gold.Chemscore.ZeroCoef>
-5.4800

> <Gold.Chemscore.Hbond>
1.3900

> <Gold.Chemscore.Metal>
0.0000

> <Gold.Chemscore.Lipo>
100.7562

> <Gold.Chemscore.Internal_Hbond>
0.0000

> <Gold.Chemscore.DEClash>
0.1416

> <Gold.Chemscore.DEInternal>
0.6113

> <Gold.Chemscore.Rot>
1.6591

> <Gold.Chemscore.Internal.Correction>
   9.000000E+99

> <Gold.Chemscore.Hbonds>
donor molecule, donor type, donor heavy atom, donor atom, acceptor molecule, acceptor atom, score
      L1  H    12    38       P1  7957  0.72
      P1  H  7989  7998       L1     9  0.09

> <Gold.Chemscore.Hbond.Weighted>
-4.6427

> <Gold.Chemscore.Metal.Weighted>
-0.0000

> <Gold.Chemscore.Lipo.Weighted>
-11.7885

> <Gold.Chemscore.Internal_Hbond.Weighted>
0.0000

> <Gold.Chemscore.DEClash.Weighted>
0.1416

> <Gold.Chemscore.DEInternal.Weighted>
0.6113

> <Gold.Chemscore.Rot.Weighted>
4.2474

> <Gold.Chemscore.Internal.Correction.Weighted>
   9.000000E+99

> <Gold.Protein.RotatedTorsions>
[ 6907 6896 6895 6894 ] final  178.59 input  -60.11 | X-H torsion
[ 7974 7965 7964 7962 ] final  -56.25 input  175.53 | X-H torsion
[ 8008 7997 7996 7995 ] final -113.06 input   59.86 | X-H torsion
[ 10167 10162 10161 10158 ] final -132.95 input  -65.29 | X-H torsion
[ 10718 10713 10712 10709 ] final  -10.31 input   66.30 | X-H torsion
[ 10763 10752 10751 10750 ] final  -33.44 input  -60.55 | X-H torsion
[ 11005 11000 10999 10996 ] final  -60.26 input  -57.11 | X-H torsion

> <Gold.Protein.ActiveResidues>
 VAL166  LYS551  ARG553  GLY616  TRP617  ASP618  TYR619  PRO620  LYS621  CYS622 
 ASP623  PHE694  ASN695  SER759  ASP760  ASP761  ALA762  ILE779  LEU786  VAL792 
 PHE793  MET794  SER795  GLU796  ALA797  LYS798  CYS799  TRP800  GLU811  SER814 

> <Gold.Protein.RotatedAtoms>
  151.6853  133.3311  159.3229 H   0  0  0  0  0  0  0  0  0  0  0  0  # atno 6907 bound_to 6896
  150.7804  134.6745  159.6419 H   0  0  0  0  0  0  0  0  0  0  0  0  # atno 6908 bound_to 6896
  152.3859  134.6521  160.0178 H   0  0  0  0  0  0  0  0  0  0  0  0  # atno 6909 bound_to 6896
  145.8648  140.8259  142.9918 H   0  0  0  0  0  0  0  0  0  0  0  0  # atno 7974 bound_to 7965
  155.0148  140.0393  157.2414 H   0  0  0  0  0  0  0  0  0  0  0  0  # atno 8008 bound_to 7997
  154.7429  140.2752  155.6335 H   0  0  0  0  0  0  0  0  0  0  0  0  # atno 8009 bound_to 7997
  156.2868  140.2662  156.2161 H   0  0  0  0  0  0  0  0  0  0  0  0  # atno 8010 bound_to 7997
  139.9033  143.6581  152.2590 H   0  0  0  0  0  0  0  0  0  0  0  0  # atno 10167 bound_to 10162
  156.6754  130.5021  149.5987 H   0  0  0  0  0  0  0  0  0  0  0  0  # atno 10718 bound_to 10713
  153.8303  135.6866  153.4815 H   0  0  0  0  0  0  0  0  0  0  0  0  # atno 10763 bound_to 10752
  153.1515  135.4616  154.9641 H   0  0  0  0  0  0  0  0  0  0  0  0  # atno 10764 bound_to 10752
  154.7889  135.3295  154.7767 H   0  0  0  0  0  0  0  0  0  0  0  0  # atno 10765 bound_to 10752
  141.1280  133.6621  156.5196 H   0  0  0  0  0  0  0  0  0  0  0  0  # atno 11005 bound_to 11000
  144.6726  140.1150  143.7453 LP  0  0  0  0  0  0  0  0  0  0  0  0  # atno 17320 bound_to 7965
  145.9206  139.2543  143.1384 LP  0  0  0  0  0  0  0  0  0  0  0  0  # atno 17321 bound_to 7965
  139.7006  144.7635  151.1280 LP  0  0  0  0  0  0  0  0  0  0  0  0  # atno 17342 bound_to 10162
  140.7702  143.5463  150.9255 LP  0  0  0  0  0  0  0  0  0  0  0  0  # atno 17343 bound_to 10162
  156.1907  130.6558  151.1058 LP  0  0  0  0  0  0  0  0  0  0  0  0  # atno 17370 bound_to 10713
  157.7062  131.0755  150.6657 LP  0  0  0  0  0  0  0  0  0  0  0  0  # atno 17371 bound_to 10713
  140.4303  134.7108  157.4938 LP  0  0  0  0  0  0  0  0  0  0  0  0  # atno 17394 bound_to 11000
  140.0299  134.6422  155.9121 LP  0  0  0  0  0  0  0  0  0  0  0  0  # atno 17395 bound_to 11000

$$$$
