AV-unprocessed.smi:1803|AV-procd|sdf|7280|dock2
  -GOLD-   22720 8543D 1   1.00000     0.00000
 Structure written by MMmdl.
 36 38  0  0  0  0  0  0  0  0  2 V2000
  146.0124  137.9337  154.5399 O   0  0  0  0  0  0  0  0  0  0  0  0
  146.8702  137.2706  153.9597 C   0  0  0  0  0  0  0  0  0  0  0  0
  148.1108  137.7590  153.7507 N   0  0  0  0  0  0  0  0  0  0  0  0
  148.6937  139.0123  154.0983 C   0  0  0  0  0  0  0  0  0  0  0  0
  149.9906  139.1847  154.4029 N   0  0  0  0  0  0  0  0  0  0  0  0
  150.2801  140.5024  154.7290 N   0  0  0  0  0  0  0  0  0  0  0  0
  149.1895  141.2718  154.6717 C   0  0  0  0  0  0  0  0  0  0  0  0
  147.7027  140.4598  154.2139 S   0  0  0  0  0  0  0  0  0  0  0  0
  146.6378  136.0306  153.4987 N   0  0  0  0  0  0  0  0  0  0  0  0
  145.3977  135.2845  153.6842 C   0  0  1  0  0  0  0  0  0  0  0  0
  144.1649  136.0289  153.1883 C   0  0  0  0  0  0  0  0  0  0  0  0
  143.1296  134.9111  153.0268 C   0  0  0  0  0  0  0  0  0  0  0  0
  143.8842  133.6601  152.7685 N   0  3  1  0  0  0  0  0  0  0  0  0
  143.4904  132.9643  151.5139 C   0  0  0  0  0  0  0  0  0  0  0  0
  144.5475  131.9282  151.1043 C   0  0  0  0  0  0  0  0  0  0  0  0
  145.9070  132.5928  150.8176 C   0  0  0  0  0  0  0  0  0  0  0  0
  146.0680  133.9432  151.5413 C   0  0  0  0  0  0  0  0  0  0  0  0
  145.3387  133.9553  152.9078 C   0  0  1  0  0  0  0  0  0  0  0  0
  148.7010  137.1728  153.1780 H   0  0  0  0  0  0  0  0  0  0  0  0
  149.2606  142.3240  154.9044 H   0  0  0  0  0  0  0  0  0  0  0  0
  147.3930  135.5547  153.0255 H   0  0  0  0  0  0  0  0  0  0  0  0
  145.2558  135.0792  154.7475 H   0  0  0  0  0  0  0  0  0  0  0  0
  143.8365  136.8114  153.8733 H   0  0  0  0  0  0  0  0  0  0  0  0
  144.3644  136.4907  152.2200 H   0  0  0  0  0  0  0  0  0  0  0  0
  142.5744  134.7795  153.9562 H   0  0  0  0  0  0  0  0  0  0  0  0
  142.4041  135.1457  152.2467 H   0  0  0  0  0  0  0  0  0  0  0  0
  142.5215  132.4870  151.6622 H   0  0  0  0  0  0  0  0  0  0  0  0
  143.3663  133.6867  150.7051 H   0  0  0  0  0  0  0  0  0  0  0  0
  144.6598  131.2000  151.9086 H   0  0  0  0  0  0  0  0  0  0  0  0
  144.2158  131.3671  150.2304 H   0  0  0  0  0  0  0  0  0  0  0  0
  146.7050  131.9116  151.1151 H   0  0  0  0  0  0  0  0  0  0  0  0
  146.0281  132.7510  149.7454 H   0  0  0  0  0  0  0  0  0  0  0  0
  147.1308  134.1566  151.6572 H   0  0  0  0  0  0  0  0  0  0  0  0
  145.6679  134.7398  150.9125 H   0  0  0  0  0  0  0  0  0  0  0  0
  145.7832  133.1710  153.5226 H   0  0  0  0  0  0  0  0  0  0  0  0
  143.6589  133.0332  153.5278 H   0  0  0  0  0  0  0  0  0  0  0  0
  1  2  2  0  0  0  0
  2  3  1  0  0  0  0
  2  9  1  0  0  0  0
  3  4  1  0  0  0  0
  3 19  1  0  0  0  0
  4  8  1  0  0  0  0
  4  5  2  0  0  0  0
  5  6  1  0  0  0  0
  6  7  2  0  0  0  0
  7  8  1  0  0  0  0
  7 20  1  0  0  0  0
  9 10  1  0  0  0  0
  9 21  1  0  0  0  0
 10 18  1  0  0  0  0
 10 11  1  0  0  0  0
 10 22  1  0  0  0  0
 11 12  1  0  0  0  0
 11 23  1  0  0  0  0
 11 24  1  0  0  0  0
 12 13  1  0  0  0  0
 12 25  1  0  0  0  0
 12 26  1  0  0  0  0
 13 18  1  0  0  0  0
 13 14  1  0  0  0  0
 13 36  1  0  0  0  0
 14 15  1  0  0  0  0
 14 27  1  0  0  0  0
 14 28  1  0  0  0  0
 15 16  1  0  0  0  0
 15 29  1  0  0  0  0
 15 30  1  0  0  0  0
 16 17  1  0  0  0  0
 16 31  1  0  0  0  0
 16 32  1  0  0  0  0
 17 18  1  0  0  0  0
 17 33  1  0  0  0  0
 17 34  1  0  0  0  0
 18 35  1  0  0  0  0
M  CHG  1  13   1
M  END
> <s_m_source_file>
AV-unprocessed.smi

> <i_m_source_file_index>
1803

> <i_lp_mmshare_version>
43012

> <i_f3d_flags>
0

> <s_epik_input>
czFbY0hdbm5jMVtOSF1DKD1PKVtOSF1bQ0BIXShbQ0gyXVtDSDJdMilbQ0BASF0oTjIzKVtDSDJdW0NIMl1bQ0gyXVtDSDJdMw==

> <s_epik_cmdline>
J2VwaWtfcHl0aG9uJywgJy1waCcsICc3LjAnLCAnLXRuJywgJzgnLCAnLW1hJywgJzIwMCcsICctbWV0YWxfYmluZGluZycsICctaW1hZScsICc8aW5maWxlLm1hZT4nLCAnLW9tYWUnLCAnPG91dGZpbGUubWFlPic=

> <r_lp_tautomer_probability>
1

> <r_epik_Ionization_Penalty>
0.00213286

> <r_epik_Ionization_Penalty_Charging>
0.00107044

> <r_epik_Ionization_Penalty_Neutral>
0.00106242

> <r_epik_State_Penalty>
-0

> <r_epik_Charging_Adjusted_Penalty>
0.00107044

> <i_epik_Tot_Q>
1

> <i_epik_Tot_abs_Q>
1

> <r_epik_Metal_State_Penalty>
0.292783

> <b_epik_Metal_Only>
0

> <s_lp_Force_Field>
OPLS_2005

> <r_lp_Energy>
41.8675

> <b_lp_Chiralities_Consistent>
1

> <s_lp_Variant>
AV-unprocessed.smi:1803-2

> <Gold.Version>
5.8.1

> <Gold.Id.Protein>
6NUR|6NUR_protein|mol2

> <Gold.PLP.Fitness>
42.7030

> <Gold.PLP.PLP>
-26.3627

> <Gold.PLP.part.hbond>
-4.0000

> <Gold.PLP.part.metal>
0.0000

> <Gold.PLP.part.buried>
-5.4948

> <Gold.PLP.part.nonpolar>
-18.2001

> <Gold.PLP.part.repulsive>
0.3528

> <Gold.PLP.ligand.clash>
0.0000

> <Gold.PLP.ligand.torsion>
0.2311

> <Gold.PLP.Chemscore.Hbond>
4.6028

> <Gold.PLP.Chemscore.CHOScore>
0.9969

> <Gold.PLP.Chemscore.Metal>
0.0000

> <Gold.Chemscore.Hbonds>
donor molecule, donor type, donor heavy atom, donor atom, acceptor molecule, acceptor atom, score
      L1  H     3    19       P1  7948  1.00
      L1  H     9    21       P1  7948  0.64
      L1  H    13    36       P1 10957  1.95
      P1  H  7989  7998       L1     6  0.96
      L1  C     7    20       P1  8028  1.00

> <Gold.PLP.Chemscore.Internal.Correction>
0.0037

> <Gold.Rescore>
     Score         DG    S(hbond)    S(metal)    S(lipo)     H(rot)  DE(clash)    DE(int)     intcor
     17.45     -19.23       2.99        0.00      53.94       1.00       0.10       1.68       ----

> <Gold.Chemscore.Fitness>
17.4487

> <Gold.Chemscore.DG>
-19.2337

> <Gold.Chemscore.ZeroCoef>
-5.4800

> <Gold.Chemscore.Hbond>
2.9947

> <Gold.Chemscore.Metal>
0.0000

> <Gold.Chemscore.Lipo>
53.9447

> <Gold.Chemscore.Internal_Hbond>
0.0000

> <Gold.Chemscore.DEClash>
0.1022

> <Gold.Chemscore.DEInternal>
1.6828

> <Gold.Chemscore.Rot>
1.0000

> <Gold.Chemscore.Internal.Correction>
   9.000000E+99

> <Gold.Chemscore.Hbonds>
donor molecule, donor type, donor heavy atom, donor atom, acceptor molecule, acceptor atom, score
      L1  H     3    19       P1  7948  0.96
      L1  H     9    21       P1  7948  0.59
      L1  H    13    36       P1 10957  0.81
      P1  H  7989  7998       L1     6  0.26

> <Gold.Chemscore.Hbond.Weighted>
-10.0022

> <Gold.Chemscore.Metal.Weighted>
-0.0000

> <Gold.Chemscore.Lipo.Weighted>
-6.3115

> <Gold.Chemscore.Internal_Hbond.Weighted>
0.0000

> <Gold.Chemscore.DEClash.Weighted>
0.1022

> <Gold.Chemscore.DEInternal.Weighted>
1.6828

> <Gold.Chemscore.Rot.Weighted>
2.5600

> <Gold.Chemscore.Internal.Correction.Weighted>
   9.000000E+99

> <Gold.Protein.RotatedTorsions>
[ 6907 6896 6895 6894 ] final -167.04 input  -60.11 | X-H torsion
[ 7974 7965 7964 7962 ] final   28.66 input  175.53 | X-H torsion
[ 8008 7997 7996 7995 ] final  -10.14 input   59.86 | X-H torsion
[ 10167 10162 10161 10158 ] final  -43.58 input  -65.29 | X-H torsion
[ 10718 10713 10712 10709 ] final  -91.72 input   66.30 | X-H torsion
[ 10763 10752 10751 10750 ] final   99.80 input  -60.55 | X-H torsion
[ 11005 11000 10999 10996 ] final  -86.64 input  -57.11 | X-H torsion

> <Gold.Protein.ActiveResidues>
 VAL166  LYS551  ARG553  GLY616  TRP617  ASP618  TYR619  PRO620  LYS621  CYS622 
 ASP623  PHE694  ASN695  SER759  ASP760  ASP761  ALA762  ILE779  LEU786  VAL792 
 PHE793  MET794  SER795  GLU796  ALA797  LYS798  CYS799  TRP800  GLU811  SER814 

> <Gold.Protein.RotatedAtoms>
  151.4532  133.3612  159.2798 H   0  0  0  0  0  0  0  0  0  0  0  0  # atno 6907 bound_to 6896
  150.9076  134.8494  159.7414 H   0  0  0  0  0  0  0  0  0  0  0  0  # atno 6908 bound_to 6896
  152.4915  134.4459  159.9610 H   0  0  0  0  0  0  0  0  0  0  0  0  # atno 6909 bound_to 6896
  146.1716  139.7026  142.8963 H   0  0  0  0  0  0  0  0  0  0  0  0  # atno 7974 bound_to 7965
  154.5582  140.2337  155.8377 H   0  0  0  0  0  0  0  0  0  0  0  0  # atno 8008 bound_to 7997
  156.2006  140.3053  155.9479 H   0  0  0  0  0  0  0  0  0  0  0  0  # atno 8009 bound_to 7997
  155.2939  140.0428  157.3015 H   0  0  0  0  0  0  0  0  0  0  0  0  # atno 8010 bound_to 7997
  140.6928  143.2975  151.3373 H   0  0  0  0  0  0  0  0  0  0  0  0  # atno 10167 bound_to 10162
  155.9996  130.4959  150.5517 H   0  0  0  0  0  0  0  0  0  0  0  0  # atno 10718 bound_to 10713
  153.3059  135.4101  155.1294 H   0  0  0  0  0  0  0  0  0  0  0  0  # atno 10763 bound_to 10752
  154.8562  135.3553  154.5788 H   0  0  0  0  0  0  0  0  0  0  0  0  # atno 10764 bound_to 10752
  153.6215  135.7064  153.5367 H   0  0  0  0  0  0  0  0  0  0  0  0  # atno 10765 bound_to 10752
  141.1627  133.7466  156.9191 H   0  0  0  0  0  0  0  0  0  0  0  0  # atno 11005 bound_to 11000
  145.4324  141.0416  143.2903 LP  0  0  0  0  0  0  0  0  0  0  0  0  # atno 17320 bound_to 7965
  144.8172  139.5856  143.7003 LP  0  0  0  0  0  0  0  0  0  0  0  0  # atno 17321 bound_to 7965
  139.6350  144.0648  152.2508 LP  0  0  0  0  0  0  0  0  0  0  0  0  # atno 17342 bound_to 10162
  140.0135  144.6206  150.7627 LP  0  0  0  0  0  0  0  0  0  0  0  0  # atno 17343 bound_to 10162
  157.3439  131.0721  151.1766 LP  0  0  0  0  0  0  0  0  0  0  0  0  # atno 17370 bound_to 10713
  157.2605  130.6657  149.5972 LP  0  0  0  0  0  0  0  0  0  0  0  0  # atno 17371 bound_to 10713
  140.1464  134.9259  157.2535 LP  0  0  0  0  0  0  0  0  0  0  0  0  # atno 17394 bound_to 11000
  140.2775  134.3388  155.7353 LP  0  0  0  0  0  0  0  0  0  0  0  0  # atno 17395 bound_to 11000

$$$$
