AV-unprocessed.smi:2002|AV-procd|sdf|8113|dock6
  -GOLD-   2272010343D 1   1.00000     0.00000
 Structure written by MMmdl.
 39 40  0  0  0  0  0  0  0  0  2 V2000
  146.1164  129.1042  151.7045 C   0  0  0  0  0  0  0  0  0  0  0  0
  146.8904  129.6857  152.8950 C   0  0  0  0  0  0  0  0  0  0  0  0
  147.6249  130.9193  152.5303 N   0  3  1  0  0  0  0  0  0  0  0  0
  146.7760  132.1054  152.2625 C   0  0  0  0  0  0  0  0  0  0  0  0
  147.4236  133.2889  152.9931 C   0  0  0  0  0  0  0  0  0  0  0  0
  148.8480  132.8245  153.2927 C   0  0  1  0  0  0  0  0  0  0  0  0
  149.5116  133.5798  154.4607 C   0  0  0  0  0  0  0  0  0  0  0  0
  149.6961  134.9980  154.1680 N   0  0  0  0  0  0  0  0  0  0  0  0
  150.3964  135.8618  154.9178 C   0  0  0  0  0  0  0  0  0  0  0  0
  150.9889  135.5406  155.9486 O   0  0  0  0  0  0  0  0  0  0  0  0
  150.3673  137.0990  154.3946 N   0  0  0  0  0  0  0  0  0  0  0  0
  151.0067  138.2626  154.8933 C   0  0  0  0  0  0  0  0  0  0  0  0
  150.2497  139.3940  155.2978 C   0  0  0  0  0  0  0  0  0  0  0  0
  151.2101  140.2782  155.7020 C   0  0  0  0  0  0  0  0  0  0  0  0
  151.1478  141.6634  156.2486 C   0  0  0  0  0  0  0  0  0  0  0  0
  152.4481  139.7323  155.5562 O   0  0  0  0  0  0  0  0  0  0  0  0
  152.3112  138.4402  155.0356 N   0  0  0  0  0  0  0  0  0  0  0  0
  148.6496  131.3232  153.5136 C   0  0  0  0  0  0  0  0  0  0  0  0
  145.6168  128.1771  151.9862 H   0  0  0  0  0  0  0  0  0  0  0  0
  146.7841  128.8802  150.8719 H   0  0  0  0  0  0  0  0  0  0  0  0
  145.3511  129.7928  151.3456 H   0  0  0  0  0  0  0  0  0  0  0  0
  146.2172  129.8846  153.7302 H   0  0  0  0  0  0  0  0  0  0  0  0
  147.6083  128.9411  153.2419 H   0  0  0  0  0  0  0  0  0  0  0  0
  146.7496  132.2777  151.1861 H   0  0  0  0  0  0  0  0  0  0  0  0
  145.7480  131.9654  152.6001 H   0  0  0  0  0  0  0  0  0  0  0  0
  147.3960  134.2086  152.4080 H   0  0  0  0  0  0  0  0  0  0  0  0
  146.8886  133.4749  153.9257 H   0  0  0  0  0  0  0  0  0  0  0  0
  149.4468  132.9646  152.3910 H   0  0  0  0  0  0  0  0  0  0  0  0
  148.8775  133.5084  155.3447 H   0  0  0  0  0  0  0  0  0  0  0  0
  150.4618  133.1156  154.7315 H   0  0  0  0  0  0  0  0  0  0  0  0
  149.2414  135.3515  153.3386 H   0  0  0  0  0  0  0  0  0  0  0  0
  149.8340  137.2225  153.5466 H   0  0  0  0  0  0  0  0  0  0  0  0
  149.1792  139.5370  155.2943 H   0  0  0  0  0  0  0  0  0  0  0  0
  150.2427  142.1721  155.9162 H   0  0  0  0  0  0  0  0  0  0  0  0
  152.0047  142.2513  155.9189 H   0  0  0  0  0  0  0  0  0  0  0  0
  151.1467  141.6475  157.3385 H   0  0  0  0  0  0  0  0  0  0  0  0
  148.2785  131.1410  154.5239 H   0  0  0  0  0  0  0  0  0  0  0  0
  149.5698  130.7526  153.3837 H   0  0  0  0  0  0  0  0  0  0  0  0
  148.1246  130.7279  151.6736 H   0  0  0  0  0  0  0  0  0  0  0  0
  1  2  1  0  0  0  0
  1 19  1  0  0  0  0
  1 20  1  0  0  0  0
  1 21  1  0  0  0  0
  2  3  1  0  0  0  0
  2 22  1  0  0  0  0
  2 23  1  0  0  0  0
  3 18  1  0  0  0  0
  3  4  1  0  0  0  0
  3 39  1  0  0  0  0
  4  5  1  0  0  0  0
  4 24  1  0  0  0  0
  4 25  1  0  0  0  0
  5  6  1  0  0  0  0
  5 26  1  0  0  0  0
  5 27  1  0  0  0  0
  6  7  1  0  0  0  0
  6 18  1  0  0  0  0
  6 28  1  0  0  0  0
  7  8  1  0  0  0  0
  7 29  1  0  0  0  0
  7 30  1  0  0  0  0
  8  9  1  0  0  0  0
  8 31  1  0  0  0  0
  9 10  2  0  0  0  0
  9 11  1  0  0  0  0
 11 12  1  0  0  0  0
 11 32  1  0  0  0  0
 12 17  2  0  0  0  0
 12 13  1  0  0  0  0
 13 14  2  0  0  0  0
 13 33  1  0  0  0  0
 14 15  1  0  0  0  0
 14 16  1  0  0  0  0
 15 34  1  0  0  0  0
 15 35  1  0  0  0  0
 15 36  1  0  0  0  0
 16 17  1  0  0  0  0
 18 37  1  0  0  0  0
 18 38  1  0  0  0  0
M  CHG  1   3   1
M  END
> <s_m_source_file>
AV-unprocessed.smi

> <i_m_source_file_index>
2002

> <i_lp_mmshare_version>
43012

> <i_f3d_flags>
0

> <s_epik_input>
W0NIM11bQ0gyXU4xW0NIMl1bQ0gyXVtDQEhdKFtDSDJdMSlbQ0gyXVtOSF1DKD1PKVtOSF1jMltjSF1jKFtDSDNdKW9uMg==

> <s_epik_cmdline>
J2VwaWtfcHl0aG9uJywgJy1waCcsICc3LjAnLCAnLXRuJywgJzgnLCAnLW1hJywgJzIwMCcsICctbWV0YWxfYmluZGluZycsICctaW1hZScsICc8aW5maWxlLm1hZT4nLCAnLW9tYWUnLCAnPG91dGZpbGUubWFlPic=

> <r_epik_Ionization_Penalty>
0.000632871

> <r_epik_Ionization_Penalty_Charging>
0.000610951

> <r_epik_Ionization_Penalty_Neutral>
2.19198e-05

> <r_epik_State_Penalty>
0.000385263

> <r_epik_Charging_Adjusted_Penalty>
0.000996214

> <i_epik_Tot_Q>
1

> <i_epik_Tot_abs_Q>
1

> <r_epik_Metal_State_Penalty>
-0

> <b_epik_Metal_Only>
0

> <s_lp_Force_Field>
OPLS_2005

> <r_lp_Energy>
24.2793

> <b_lp_Chiralities_Consistent>
1

> <s_lp_Variant>
AV-unprocessed.smi:2002-1

> <Gold.Version>
5.8.1

> <Gold.Id.Protein>
6NUR|6NUR_protein|mol2

> <Gold.PLP.Fitness>
43.2680

> <Gold.PLP.PLP>
-33.5161

> <Gold.PLP.part.hbond>
-5.2815

> <Gold.PLP.part.metal>
0.0000

> <Gold.PLP.part.buried>
-3.7226

> <Gold.PLP.part.nonpolar>
-25.2187

> <Gold.PLP.part.repulsive>
0.1784

> <Gold.PLP.ligand.clash>
0.0000

> <Gold.PLP.ligand.torsion>
0.7086

> <Gold.PLP.Chemscore.Hbond>
3.7193

> <Gold.PLP.Chemscore.CHOScore>
0.0000

> <Gold.PLP.Chemscore.Metal>
0.0000

> <Gold.Chemscore.Hbonds>
donor molecule, donor type, donor heavy atom, donor atom, acceptor molecule, acceptor atom, score
      L1  H     3    39       P1 10747  1.00
      L1  H     8    31       P1  7948  0.95
      L1  H    11    32       P1  7948  0.73
      P1  H  7997  8008       L1    16  0.96

> <Gold.PLP.Chemscore.Internal.Correction>
0.0113

> <Gold.Rescore>
     Score         DG    S(hbond)    S(metal)    S(lipo)     H(rot)  DE(clash)    DE(int)     intcor
     18.51     -19.42       2.98        0.00      67.31       1.52       0.23       0.69       ----

> <Gold.Chemscore.Fitness>
18.5065

> <Gold.Chemscore.DG>
-19.4244

> <Gold.Chemscore.ZeroCoef>
-5.4800

> <Gold.Chemscore.Hbond>
2.9840

> <Gold.Chemscore.Metal>
0.0000

> <Gold.Chemscore.Lipo>
67.3069

> <Gold.Chemscore.Internal_Hbond>
0.0000

> <Gold.Chemscore.DEClash>
0.2322

> <Gold.Chemscore.DEInternal>
0.6857

> <Gold.Chemscore.Rot>
1.5223

> <Gold.Chemscore.Internal.Correction>
   9.000000E+99

> <Gold.Chemscore.Hbonds>
donor molecule, donor type, donor heavy atom, donor atom, acceptor molecule, acceptor atom, score
      L1  H     3    39       P1 10747  0.99
      L1  H     8    31       P1  7948  0.21
      L1  H    11    32       P1  7948  0.43
      P1  H  7997  8008       L1    16  0.78

> <Gold.Chemscore.Hbond.Weighted>
-9.9666

> <Gold.Chemscore.Metal.Weighted>
-0.0000

> <Gold.Chemscore.Lipo.Weighted>
-7.8749

> <Gold.Chemscore.Internal_Hbond.Weighted>
0.0000

> <Gold.Chemscore.DEClash.Weighted>
0.2322

> <Gold.Chemscore.DEInternal.Weighted>
0.6857

> <Gold.Chemscore.Rot.Weighted>
3.8971

> <Gold.Chemscore.Internal.Correction.Weighted>
   9.000000E+99

> <Gold.Protein.RotatedTorsions>
[ 6907 6896 6895 6894 ] final   10.41 input  -60.11 | X-H torsion
[ 7974 7965 7964 7962 ] final   82.05 input  175.53 | X-H torsion
[ 8008 7997 7996 7995 ] final  -35.19 input   59.86 | X-H torsion
[ 10167 10162 10161 10158 ] final  149.34 input  -65.29 | X-H torsion
[ 10718 10713 10712 10709 ] final  174.77 input   66.30 | X-H torsion
[ 10763 10752 10751 10750 ] final   47.57 input  -60.55 | X-H torsion
[ 11005 11000 10999 10996 ] final  -52.32 input  -57.11 | X-H torsion

> <Gold.Protein.ActiveResidues>
 VAL166  LYS551  ARG553  GLY616  TRP617  ASP618  TYR619  PRO620  LYS621  CYS622 
 ASP623  PHE694  ASN695  SER759  ASP760  ASP761  ALA762  ILE779  LEU786  VAL792 
 PHE793  MET794  SER795  GLU796  ALA797  LYS798  CYS799  TRP800  GLU811  SER814 

> <Gold.Protein.RotatedAtoms>
  151.7378  135.0861  160.0310 H   0  0  0  0  0  0  0  0  0  0  0  0  # atno 6907 bound_to 6896
  152.3499  133.6163  159.5946 H   0  0  0  0  0  0  0  0  0  0  0  0  # atno 6908 bound_to 6896
  150.7533  133.9506  159.3526 H   0  0  0  0  0  0  0  0  0  0  0  0  # atno 6909 bound_to 6896
  145.6301  139.2403  143.2089 H   0  0  0  0  0  0  0  0  0  0  0  0  # atno 7974 bound_to 7965
  154.4101  140.1664  156.2171 H   0  0  0  0  0  0  0  0  0  0  0  0  # atno 8008 bound_to 7997
  155.9395  140.3409  155.6292 H   0  0  0  0  0  0  0  0  0  0  0  0  # atno 8009 bound_to 7997
  155.7007  140.0745  157.2402 H   0  0  0  0  0  0  0  0  0  0  0  0  # atno 8010 bound_to 7997
  139.4863  144.5609  151.7232 H   0  0  0  0  0  0  0  0  0  0  0  0  # atno 10167 bound_to 10162
  156.9447  131.0012  151.2961 H   0  0  0  0  0  0  0  0  0  0  0  0  # atno 10718 bound_to 10713
  152.9799  135.5972  154.3784 H   0  0  0  0  0  0  0  0  0  0  0  0  # atno 10763 bound_to 10752
  154.3450  135.2767  155.2404 H   0  0  0  0  0  0  0  0  0  0  0  0  # atno 10764 bound_to 10752
  154.4468  135.5999  153.6221 H   0  0  0  0  0  0  0  0  0  0  0  0  # atno 10765 bound_to 10752
  141.0918  133.6631  156.4006 H   0  0  0  0  0  0  0  0  0  0  0  0  # atno 11005 bound_to 11000
  146.1363  140.7118  142.9388 LP  0  0  0  0  0  0  0  0  0  0  0  0  # atno 17320 bound_to 7965
  144.7197  140.4331  143.7017 LP  0  0  0  0  0  0  0  0  0  0  0  0  # atno 17321 bound_to 7965
  140.5179  144.0924  150.6014 LP  0  0  0  0  0  0  0  0  0  0  0  0  # atno 17342 bound_to 10162
  140.3872  143.2771  152.0102 LP  0  0  0  0  0  0  0  0  0  0  0  0  # atno 17343 bound_to 10162
  157.5761  130.8344  149.8458 LP  0  0  0  0  0  0  0  0  0  0  0  0  # atno 17370 bound_to 10713
  156.0389  130.3744  150.1488 LP  0  0  0  0  0  0  0  0  0  0  0  0  # atno 17371 bound_to 10713
  140.5234  134.6282  157.5326 LP  0  0  0  0  0  0  0  0  0  0  0  0  # atno 17394 bound_to 11000
  139.9745  134.7237  155.9976 LP  0  0  0  0  0  0  0  0  0  0  0  0  # atno 17395 bound_to 11000

$$$$
