AV-unprocessed.smi:2643|AV-procd|sdf|10276|dock3
  -GOLD-   2272014283D 1   1.00000     0.00000
 Structure written by MMmdl.
 34 35  0  0  0  0  0  0  0  0  1 V2000
  146.8428  138.3450  151.8184 C   0  0  0  0  0  0  0  0  0  0  0  0
  147.0315  139.8607  151.9498 C   0  0  0  0  0  0  0  0  0  0  0  0
  147.8966  140.1999  153.0628 N   0  0  0  0  0  0  0  0  0  0  0  0
  148.2411  141.4548  153.5241 C   0  0  0  0  0  0  0  0  0  0  0  0
  149.0696  141.2420  154.5893 C   0  0  0  0  0  0  0  0  0  0  0  0
  149.7125  142.1833  155.4318 N   0  0  0  0  0  0  0  0  0  0  0  0
  150.6473  141.9416  156.3705 C   0  0  0  0  0  0  0  0  0  0  0  0
  151.0925  140.8274  156.6385 O   0  0  0  0  0  0  0  0  0  0  0  0
  151.0812  143.0403  157.0141 N   0  0  0  0  0  0  0  0  0  0  0  0
  152.0829  143.1276  158.0794 C   0  0  0  0  0  0  0  0  0  0  0  0
  151.4436  143.0255  159.4809 C   0  0  0  0  0  0  0  0  0  0  0  0
  151.9970  144.2008  160.2885 C   0  0  0  0  0  0  0  0  0  0  0  0
  152.2795  145.2754  159.2440 C   0  0  0  0  0  0  0  0  0  0  0  0
  152.7944  144.4926  158.0360 C   0  0  0  0  0  0  0  0  0  0  0  0
  149.1829  139.8332  154.7165 C   0  0  0  0  0  0  0  0  0  0  0  0
  148.4707  139.2096  153.7903 N   0  0  0  0  0  0  0  0  0  0  0  0
  146.1816  138.1071  150.9853 H   0  0  0  0  0  0  0  0  0  0  0  0
  146.4039  137.9235  152.7233 H   0  0  0  0  0  0  0  0  0  0  0  0
  147.7938  137.8420  151.6413 H   0  0  0  0  0  0  0  0  0  0  0  0
  147.4583  140.2716  151.0339 H   0  0  0  0  0  0  0  0  0  0  0  0
  146.0673  140.3489  152.0965 H   0  0  0  0  0  0  0  0  0  0  0  0
  147.8708  142.3574  153.0609 H   0  0  0  0  0  0  0  0  0  0  0  0
  149.4359  143.1463  155.3076 H   0  0  0  0  0  0  0  0  0  0  0  0
  150.6754  143.9184  156.7243 H   0  0  0  0  0  0  0  0  0  0  0  0
  152.8321  142.3452  157.9442 H   0  0  0  0  0  0  0  0  0  0  0  0
  150.3585  143.1208  159.4163 H   0  0  0  0  0  0  0  0  0  0  0  0
  151.6533  142.0686  159.9600 H   0  0  0  0  0  0  0  0  0  0  0  0
  151.3093  144.5383  161.0645 H   0  0  0  0  0  0  0  0  0  0  0  0
  152.9292  143.9075  160.7732 H   0  0  0  0  0  0  0  0  0  0  0  0
  151.3526  145.7879  158.9831 H   0  0  0  0  0  0  0  0  0  0  0  0
  152.9897  146.0256  159.5930 H   0  0  0  0  0  0  0  0  0  0  0  0
  153.8693  144.3400  158.1419 H   0  0  0  0  0  0  0  0  0  0  0  0
  152.6407  145.0336  157.1010 H   0  0  0  0  0  0  0  0  0  0  0  0
  149.7453  139.2543  155.4345 H   0  0  0  0  0  0  0  0  0  0  0  0
  1  2  1  0  0  0  0
  1 17  1  0  0  0  0
  1 18  1  0  0  0  0
  1 19  1  0  0  0  0
  2  3  1  0  0  0  0
  2 20  1  0  0  0  0
  2 21  1  0  0  0  0
  3 16  1  0  0  0  0
  3  4  1  0  0  0  0
  4  5  2  0  0  0  0
  4 22  1  0  0  0  0
  5  6  1  0  0  0  0
  5 15  1  0  0  0  0
  6  7  1  0  0  0  0
  6 23  1  0  0  0  0
  7  8  2  0  0  0  0
  7  9  1  0  0  0  0
  9 10  1  0  0  0  0
  9 24  1  0  0  0  0
 10 14  1  0  0  0  0
 10 11  1  0  0  0  0
 10 25  1  0  0  0  0
 11 12  1  0  0  0  0
 11 26  1  0  0  0  0
 11 27  1  0  0  0  0
 12 13  1  0  0  0  0
 12 28  1  0  0  0  0
 12 29  1  0  0  0  0
 13 14  1  0  0  0  0
 13 30  1  0  0  0  0
 13 31  1  0  0  0  0
 14 32  1  0  0  0  0
 14 33  1  0  0  0  0
 15 16  2  0  0  0  0
 15 34  1  0  0  0  0
M  END
> <s_m_source_file>
AV-unprocessed.smi

> <i_m_source_file_index>
2643

> <i_lp_mmshare_version>
43012

> <i_f3d_flags>
0

> <s_epik_input>
W0NIM11bQ0gyXW4xW2NIXWMoW2NIXW4xKVtOSF1DKD1PKVtOSF1bQ0hdMltDSDJdW0NIMl1bQ0gyXVtDSDJdMg==

> <s_epik_cmdline>
J2VwaWtfcHl0aG9uJywgJy1waCcsICc3LjAnLCAnLXRuJywgJzgnLCAnLW1hJywgJzIwMCcsICctbWV0YWxfYmluZGluZycsICctaW1hZScsICc8aW5maWxlLm1hZT4nLCAnLW9tYWUnLCAnPG91dGZpbGUubWFlPic=

> <r_lp_tautomer_probability>
1

> <r_epik_Ionization_Penalty>
0.000191398

> <r_epik_Ionization_Penalty_Charging>
0

> <r_epik_Ionization_Penalty_Neutral>
0.000191398

> <r_epik_State_Penalty>
-0

> <r_epik_Charging_Adjusted_Penalty>
0

> <i_epik_Tot_Q>
0

> <i_epik_Tot_abs_Q>
0

> <r_epik_Metal_State_Penalty>
-0

> <b_epik_Metal_Only>
0

> <s_lp_Force_Field>
OPLS_2005

> <r_lp_Energy>
32.4137

> <b_lp_Chiralities_Consistent>
1

> <s_lp_Variant>
AV-unprocessed.smi:2643-1

> <Gold.Version>
5.8.1

> <Gold.Id.Protein>
6NUR|6NUR_protein|mol2

> <Gold.PLP.Fitness>
42.9147

> <Gold.PLP.PLP>
-38.2671

> <Gold.PLP.part.hbond>
-1.9167

> <Gold.PLP.part.metal>
0.0000

> <Gold.PLP.part.buried>
-1.0965

> <Gold.PLP.part.nonpolar>
-36.7685

> <Gold.PLP.part.repulsive>
1.1098

> <Gold.PLP.ligand.clash>
0.0000

> <Gold.PLP.ligand.torsion>
0.4023

> <Gold.PLP.Chemscore.Hbond>
1.8160

> <Gold.PLP.Chemscore.CHOScore>
0.0000

> <Gold.PLP.Chemscore.Metal>
0.0000

> <Gold.Chemscore.Hbonds>
donor molecule, donor type, donor heavy atom, donor atom, acceptor molecule, acceptor atom, score
      L1  H     6    23       P1  8028  1.00
      L1  H     9    24       P1  8028  0.46

> <Gold.PLP.Chemscore.Internal.Correction>
0.0042

> <Gold.Rescore>
     Score         DG    S(hbond)    S(metal)    S(lipo)     H(rot)  DE(clash)    DE(int)     intcor
     16.57     -18.75       1.61        0.00      93.03       1.17       0.48       1.69       ----

> <Gold.Chemscore.Fitness>
16.5706

> <Gold.Chemscore.DG>
-18.7492

> <Gold.Chemscore.ZeroCoef>
-5.4800

> <Gold.Chemscore.Hbond>
1.6138

> <Gold.Chemscore.Metal>
0.0000

> <Gold.Chemscore.Lipo>
93.0307

> <Gold.Chemscore.Internal_Hbond>
0.0000

> <Gold.Chemscore.DEClash>
0.4838

> <Gold.Chemscore.DEInternal>
1.6947

> <Gold.Chemscore.Rot>
1.1741

> <Gold.Chemscore.Internal.Correction>
   9.000000E+99

> <Gold.Chemscore.Hbonds>
donor molecule, donor type, donor heavy atom, donor atom, acceptor molecule, acceptor atom, score
      L1  H     6    23       P1  8028  1.00
      L1  H     9    24       P1  8028  0.45

> <Gold.Chemscore.Hbond.Weighted>
-5.3902

> <Gold.Chemscore.Metal.Weighted>
-0.0000

> <Gold.Chemscore.Lipo.Weighted>
-10.8846

> <Gold.Chemscore.Internal_Hbond.Weighted>
0.0000

> <Gold.Chemscore.DEClash.Weighted>
0.4838

> <Gold.Chemscore.DEInternal.Weighted>
1.6947

> <Gold.Chemscore.Rot.Weighted>
3.0056

> <Gold.Chemscore.Internal.Correction.Weighted>
   9.000000E+99

> <Gold.Protein.RotatedTorsions>
[ 6907 6896 6895 6894 ] final   51.47 input  -60.11 | X-H torsion
[ 7974 7965 7964 7962 ] final   47.02 input  175.53 | X-H torsion
[ 8008 7997 7996 7995 ] final -146.12 input   59.86 | X-H torsion
[ 10167 10162 10161 10158 ] final -139.60 input  -65.29 | X-H torsion
[ 10718 10713 10712 10709 ] final  130.34 input   66.30 | X-H torsion
[ 10763 10752 10751 10750 ] final  121.00 input  -60.55 | X-H torsion
[ 11005 11000 10999 10996 ] final  -64.24 input  -57.11 | X-H torsion

> <Gold.Protein.ActiveResidues>
 VAL166  LYS551  ARG553  GLY616  TRP617  ASP618  TYR619  PRO620  LYS621  CYS622 
 ASP623  PHE694  ASN695  SER759  ASP760  ASP761  ALA762  ILE779  LEU786  VAL792 
 PHE793  MET794  SER795  GLU796  ALA797  LYS798  CYS799  TRP800  GLU811  SER814 

> <Gold.Protein.RotatedAtoms>
  152.3130  134.7474  160.0331 H   0  0  0  0  0  0  0  0  0  0  0  0  # atno 6907 bound_to 6896
  151.7948  133.3358  159.3518 H   0  0  0  0  0  0  0  0  0  0  0  0  # atno 6908 bound_to 6896
  150.7330  134.5739  159.5948 H   0  0  0  0  0  0  0  0  0  0  0  0  # atno 6909 bound_to 6896
  146.0336  139.4794  142.9822 H   0  0  0  0  0  0  0  0  0  0  0  0  # atno 7974 bound_to 7965
  155.5542  140.0619  157.2843 H   0  0  0  0  0  0  0  0  0  0  0  0  # atno 8008 bound_to 7997
  154.4411  140.1897  156.0762 H   0  0  0  0  0  0  0  0  0  0  0  0  # atno 8009 bound_to 7997
  156.0494  140.3286  155.7337 H   0  0  0  0  0  0  0  0  0  0  0  0  # atno 8010 bound_to 7997
  139.8364  143.7379  152.2664 H   0  0  0  0  0  0  0  0  0  0  0  0  # atno 10167 bound_to 10162
  157.5071  131.1096  150.9346 H   0  0  0  0  0  0  0  0  0  0  0  0  # atno 10718 bound_to 10713
  153.6072  135.3437  155.2966 H   0  0  0  0  0  0  0  0  0  0  0  0  # atno 10763 bound_to 10752
  154.8625  135.4241  154.2349 H   0  0  0  0  0  0  0  0  0  0  0  0  # atno 10764 bound_to 10752
  153.3191  135.7037  153.7118 H   0  0  0  0  0  0  0  0  0  0  0  0  # atno 10765 bound_to 10752
  141.1418  133.6663  156.5803 H   0  0  0  0  0  0  0  0  0  0  0  0  # atno 11005 bound_to 11000
  145.7000  141.0139  143.1509 LP  0  0  0  0  0  0  0  0  0  0  0  0  # atno 17320 bound_to 7965
  144.7041  139.8633  143.7435 LP  0  0  0  0  0  0  0  0  0  0  0  0  # atno 17321 bound_to 7965
  139.7603  144.7508  151.0374 LP  0  0  0  0  0  0  0  0  0  0  0  0  # atno 17342 bound_to 10162
  140.7802  143.4759  151.0083 LP  0  0  0  0  0  0  0  0  0  0  0  0  # atno 17343 bound_to 10162
  156.9998  130.5595  149.5310 LP  0  0  0  0  0  0  0  0  0  0  0  0  # atno 17370 bound_to 10713
  156.0265  130.5358  150.8420 LP  0  0  0  0  0  0  0  0  0  0  0  0  # atno 17371 bound_to 10713
  140.3843  134.7496  157.4681 LP  0  0  0  0  0  0  0  0  0  0  0  0  # atno 17394 bound_to 11000
  140.0614  134.5990  155.8745 LP  0  0  0  0  0  0  0  0  0  0  0  0  # atno 17395 bound_to 11000

$$$$
