AV-unprocessed.smi:2926|AV-procd|sdf|11228|dock3
  -GOLD-   2272016123D 1   1.00000     0.00000
 Structure written by MMmdl.
 31 31  0  0  0  0  0  0  0  0  2 V2000
  147.6558  141.9680  154.6722 C   0  0  0  0  0  0  0  0  0  0  0  0
  148.2540  140.7411  153.9418 C   0  0  0  0  0  0  0  0  0  0  0  0
  147.1081  139.9818  153.2349 C   0  0  0  0  0  0  0  0  0  0  0  0
  149.1168  139.8369  154.8793 C   0  0  1  0  0  0  0  0  0  0  0  0
  149.3253  138.3906  154.3729 C   0  0  0  0  0  0  0  0  0  0  0  0
  150.0974  138.3421  153.1879 O   0  0  0  0  0  0  0  0  0  0  0  0
  150.4195  140.4546  155.1017 N   0  5  0  0  0  0  0  0  0  0  0  0
  151.0112  140.5633  156.6078 S   0  0  0  0  0  0  0  0  0  0  0  0
  150.0750  140.0496  157.6215 O   0  0  0  0  0  0  0  0  0  0  0  0
  152.4074  140.1035  156.6890 O   0  0  0  0  0  0  0  0  0  0  0  0
  151.0744  142.3965  156.8255 C   0  0  0  0  0  0  0  0  0  0  0  0
  151.5205  142.7527  158.2178 C   0  0  0  0  0  0  0  0  0  0  0  0
  152.5565  143.6438  158.6142 C   0  0  0  0  0  0  0  0  0  0  0  0
  152.5258  143.5845  159.9772 C   0  0  0  0  0  0  0  0  0  0  0  0
  151.5643  142.7224  160.3936 O   0  0  0  0  0  0  0  0  0  0  0  0
  150.9308  142.1929  159.2635 N   0  0  0  0  0  0  0  0  0  0  0  0
  148.5660  139.7551  155.8175 H   0  0  0  0  0  0  0  0  0  0  0  0
  146.9852  141.6771  155.4831 H   0  0  0  0  0  0  0  0  0  0  0  0
  147.0749  142.5801  153.9819 H   0  0  0  0  0  0  0  0  0  0  0  0
  148.4203  142.6236  155.0925 H   0  0  0  0  0  0  0  0  0  0  0  0
  148.9059  141.1257  153.1557 H   0  0  0  0  0  0  0  0  0  0  0  0
  146.4115  139.5303  153.9440 H   0  0  0  0  0  0  0  0  0  0  0  0
  147.4730  139.1964  152.5716 H   0  0  0  0  0  0  0  0  0  0  0  0
  146.5289  140.6608  152.6083 H   0  0  0  0  0  0  0  0  0  0  0  0
  149.8254  137.7915  155.1348 H   0  0  0  0  0  0  0  0  0  0  0  0
  148.3684  137.9029  154.1893 H   0  0  0  0  0  0  0  0  0  0  0  0
  149.8234  137.5919  152.6837 H   0  0  0  0  0  0  0  0  0  0  0  0
  151.7721  142.7894  156.0856 H   0  0  0  0  0  0  0  0  0  0  0  0
  150.0922  142.8103  156.5984 H   0  0  0  0  0  0  0  0  0  0  0  0
  153.2099  144.2390  157.9933 H   0  0  0  0  0  0  0  0  0  0  0  0
  153.0978  144.0698  160.7540 H   0  0  0  0  0  0  0  0  0  0  0  0
  1  2  1  0  0  0  0
  1 18  1  0  0  0  0
  1 19  1  0  0  0  0
  1 20  1  0  0  0  0
  2  3  1  0  0  0  0
  2  4  1  0  0  0  0
  2 21  1  0  0  0  0
  3 22  1  0  0  0  0
  3 23  1  0  0  0  0
  3 24  1  0  0  0  0
  4 17  1  0  0  0  0
  4  5  1  0  0  0  0
  4  7  1  0  0  0  0
  5  6  1  0  0  0  0
  5 25  1  0  0  0  0
  5 26  1  0  0  0  0
  6 27  1  0  0  0  0
  7  8  1  0  0  0  0
  8  9  2  0  0  0  0
  8 10  2  0  0  0  0
  8 11  1  0  0  0  0
 11 12  1  0  0  0  0
 11 28  1  0  0  0  0
 11 29  1  0  0  0  0
 12 16  2  0  0  0  0
 12 13  1  0  0  0  0
 13 14  2  0  0  0  0
 13 30  1  0  0  0  0
 14 15  1  0  0  0  0
 14 31  1  0  0  0  0
 15 16  1  0  0  0  0
M  CHG  1   7  -1
M  END
> <s_m_source_file>
AV-unprocessed.smi

> <i_m_source_file_index>
2926

> <i_lp_mmshare_version>
43012

> <i_f3d_flags>
0

> <s_epik_input>
W0NIM11bQ0hdKFtDSDNdKVtDQEBIXShbQ0gyXVtPSF0pW05IXVMoPU8pKD1PKVtDSDJdYzFbY0hdW2NIXW9uMQ==

> <s_epik_cmdline>
J2VwaWtfcHl0aG9uJywgJy1waCcsICc3LjAnLCAnLXRuJywgJzgnLCAnLW1hJywgJzIwMCcsICctbWV0YWxfYmluZGluZycsICctaW1hZScsICc8aW5maWxlLm1hZT4nLCAnLW9tYWUnLCAnPG91dGZpbGUubWFlPic=

> <r_lp_tautomer_probability>
1

> <r_epik_Ionization_Penalty>
4.75719

> <r_epik_Ionization_Penalty_Charging>
4.75718

> <r_epik_Ionization_Penalty_Neutral>
1.48962e-06

> <r_epik_State_Penalty>
4.75699

> <r_epik_Charging_Adjusted_Penalty>
9.51417

> <i_epik_Tot_Q>
-1

> <i_epik_Tot_abs_Q>
1

> <r_epik_Metal_State_Penalty>
0.961449

> <b_epik_Metal_Only>
1

> <s_lp_Force_Field>
OPLS_2005

> <r_lp_Energy>
4.17098

> <b_lp_Chiralities_Consistent>
1

> <s_lp_Variant>
AV-unprocessed.smi:2926-3

> <Gold.Version>
5.8.1

> <Gold.Id.Protein>
6NUR|6NUR_protein|mol2

> <Gold.PLP.Fitness>
39.6753

> <Gold.PLP.PLP>
-31.9983

> <Gold.PLP.part.hbond>
-6.2446

> <Gold.PLP.part.metal>
0.0000

> <Gold.PLP.part.buried>
0.9772

> <Gold.PLP.part.nonpolar>
-25.2178

> <Gold.PLP.part.repulsive>
0.1308

> <Gold.PLP.ligand.clash>
0.0000

> <Gold.PLP.ligand.torsion>
1.2354

> <Gold.PLP.Chemscore.Hbond>
2.9920

> <Gold.PLP.Chemscore.CHOScore>
0.0000

> <Gold.PLP.Chemscore.Metal>
0.0000

> <Gold.Chemscore.Hbonds>
donor molecule, donor type, donor heavy atom, donor atom, acceptor molecule, acceptor atom, score
      L1  H     6    27       P1  7948  1.00
      P1  H  7989  7998       L1     7  0.96
      P1  H  7997  8009       L1    10  1.00

> <Gold.PLP.Chemscore.Internal.Correction>
1.1717

> <Gold.Rescore>
     Score         DG    S(hbond)    S(metal)    S(lipo)     H(rot)  DE(clash)    DE(int)     intcor
     13.44     -16.54       2.61        0.00      76.53       2.58       0.13       2.96       ----

> <Gold.Chemscore.Fitness>
13.4442

> <Gold.Chemscore.DG>
-16.5376

> <Gold.Chemscore.ZeroCoef>
-5.4800

> <Gold.Chemscore.Hbond>
2.6056

> <Gold.Chemscore.Metal>
0.0000

> <Gold.Chemscore.Lipo>
76.5274

> <Gold.Chemscore.Internal_Hbond>
0.0000

> <Gold.Chemscore.DEClash>
0.1321

> <Gold.Chemscore.DEInternal>
2.9613

> <Gold.Chemscore.Rot>
2.5776

> <Gold.Chemscore.Internal.Correction>
   9.000000E+99

> <Gold.Chemscore.Hbonds>
donor molecule, donor type, donor heavy atom, donor atom, acceptor molecule, acceptor atom, score
      L1  H     6    27       P1  7948  0.26
      P1  H  7989  7998       L1     7  0.82
      P1  H  7997  8009       L1    10  0.97

> <Gold.Chemscore.Hbond.Weighted>
-8.7026

> <Gold.Chemscore.Metal.Weighted>
-0.0000

> <Gold.Chemscore.Lipo.Weighted>
-8.9537

> <Gold.Chemscore.Internal_Hbond.Weighted>
0.0000

> <Gold.Chemscore.DEClash.Weighted>
0.1321

> <Gold.Chemscore.DEInternal.Weighted>
2.9613

> <Gold.Chemscore.Rot.Weighted>
6.5987

> <Gold.Chemscore.Internal.Correction.Weighted>
   9.000000E+99

> <Gold.Protein.RotatedTorsions>
[ 6907 6896 6895 6894 ] final   97.49 input  -60.11 | X-H torsion
[ 7974 7965 7964 7962 ] final  -43.92 input  175.53 | X-H torsion
[ 8008 7997 7996 7995 ] final -162.57 input   59.86 | X-H torsion
[ 10167 10162 10161 10158 ] final   98.88 input  -65.29 | X-H torsion
[ 10718 10713 10712 10709 ] final  -30.22 input   66.30 | X-H torsion
[ 10763 10752 10751 10750 ] final -115.07 input  -60.55 | X-H torsion
[ 11005 11000 10999 10996 ] final   39.93 input  -57.11 | X-H torsion

> <Gold.Protein.ActiveResidues>
 VAL166  LYS551  ARG553  GLY616  TRP617  ASP618  TYR619  PRO620  LYS621  CYS622 
 ASP623  PHE694  ASN695  SER759  ASP760  ASP761  ALA762  ILE779  LEU786  VAL792 
 PHE793  MET794  SER795  GLU796  ALA797  LYS798  CYS799  TRP800  GLU811  SER814 

> <Gold.Protein.RotatedAtoms>
  152.5422  134.0725  159.8199 H   0  0  0  0  0  0  0  0  0  0  0  0  # atno 6907 bound_to 6896
  151.0837  133.5362  159.2626 H   0  0  0  0  0  0  0  0  0  0  0  0  # atno 6908 bound_to 6896
  151.2179  135.0516  159.8992 H   0  0  0  0  0  0  0  0  0  0  0  0  # atno 6909 bound_to 6896
  145.9971  140.7116  142.9288 H   0  0  0  0  0  0  0  0  0  0  0  0  # atno 7974 bound_to 7965
  155.8088  140.0902  157.1916 H   0  0  0  0  0  0  0  0  0  0  0  0  # atno 8008 bound_to 7997
  154.3980  140.1458  156.3421 H   0  0  0  0  0  0  0  0  0  0  0  0  # atno 8009 bound_to 7997
  155.8387  140.3439  155.5620 H   0  0  0  0  0  0  0  0  0  0  0  0  # atno 8010 bound_to 7997
  139.7668  144.6936  151.0213 H   0  0  0  0  0  0  0  0  0  0  0  0  # atno 10167 bound_to 10162
  156.4026  130.4393  149.7311 H   0  0  0  0  0  0  0  0  0  0  0  0  # atno 10718 bound_to 10713
  154.8466  135.4395  154.1606 H   0  0  0  0  0  0  0  0  0  0  0  0  # atno 10763 bound_to 10752
  153.2743  135.6948  153.7455 H   0  0  0  0  0  0  0  0  0  0  0  0  # atno 10764 bound_to 10752
  153.6683  135.3423  155.3121 H   0  0  0  0  0  0  0  0  0  0  0  0  # atno 10765 bound_to 10752
  140.1980  134.3905  155.8111 H   0  0  0  0  0  0  0  0  0  0  0  0  # atno 11005 bound_to 11000
  144.6907  140.3169  143.7239 LP  0  0  0  0  0  0  0  0  0  0  0  0  # atno 17320 bound_to 7965
  145.7543  139.1804  143.2303 LP  0  0  0  0  0  0  0  0  0  0  0  0  # atno 17321 bound_to 7965
  140.7811  143.4634  151.0246 LP  0  0  0  0  0  0  0  0  0  0  0  0  # atno 17342 bound_to 10162
  139.8319  143.7680  152.3180 LP  0  0  0  0  0  0  0  0  0  0  0  0  # atno 17343 bound_to 10162
  156.4321  130.7820  151.2840 LP  0  0  0  0  0  0  0  0  0  0  0  0  # atno 17370 bound_to 10713
  157.7504  131.0151  150.3489 LP  0  0  0  0  0  0  0  0  0  0  0  0  # atno 17371 bound_to 10713
  141.2227  133.7079  156.8209 LP  0  0  0  0  0  0  0  0  0  0  0  0  # atno 17394 bound_to 11000
  140.2086  134.8844  157.3249 LP  0  0  0  0  0  0  0  0  0  0  0  0  # atno 17395 bound_to 11000

$$$$
