AV-unprocessed.smi:3227|AV-procd|sdf|12317|dock2
  -GOLD-   2272018163D 1   1.00000     0.00000
 Structure written by MMmdl.
 37 38  0  0  0  0  0  0  0  0  1 V2000
  154.2379  138.3117  165.6984 C   0  0  0  0  0  0  0  0  0  0  0  0
  154.8094  139.6263  165.4415 N   0  0  0  0  0  0  0  0  0  0  0  0
  156.2033  139.8074  165.8273 C   0  0  0  0  0  0  0  0  0  0  0  0
  153.9304  140.6807  165.7607 C   0  0  0  0  0  0  0  0  0  0  0  0
  153.6131  140.8464  167.0685 N   0  0  0  0  0  0  0  0  0  0  0  0
  152.7596  141.8317  167.4130 C   0  0  0  0  0  0  0  0  0  0  0  0
  152.1807  142.7085  166.4793 C   0  0  0  0  0  0  0  0  0  0  0  0
  152.5055  142.5466  165.1207 C   0  0  0  0  0  0  0  0  0  0  0  0
  153.3885  141.5071  164.7389 C   0  0  0  0  0  0  0  0  0  0  0  0
  153.7988  141.3135  163.3887 N   0  0  0  0  0  0  0  0  0  0  0  0
  153.1461  141.6482  162.2609 C   0  0  0  0  0  0  0  0  0  0  0  0
  152.0359  142.1783  162.2257 O   0  0  0  0  0  0  0  0  0  0  0  0
  153.8522  141.3008  160.9520 C   0  0  0  0  0  0  0  0  0  0  0  0
  153.0614  141.7711  159.8733 O   0  0  0  0  0  0  0  0  0  0  0  0
  153.2062  143.1645  159.6607 C   0  0  0  0  0  0  0  0  0  0  0  0
  151.9671  143.6906  158.9686 C   0  0  0  0  0  0  0  0  0  0  0  0
  151.8691  145.1412  158.5535 C   0  0  0  0  0  0  0  0  0  0  0  0
  151.0298  144.6285  159.6956 C   0  0  0  0  0  0  0  0  0  0  0  0
  153.3054  138.1666  165.1529 H   0  0  0  0  0  0  0  0  0  0  0  0
  154.0348  138.1855  166.7625 H   0  0  0  0  0  0  0  0  0  0  0  0
  154.9302  137.5283  165.3893 H   0  0  0  0  0  0  0  0  0  0  0  0
  156.5463  140.8152  165.5900 H   0  0  0  0  0  0  0  0  0  0  0  0
  156.8374  139.1030  165.2884 H   0  0  0  0  0  0  0  0  0  0  0  0
  156.3371  139.6371  166.8961 H   0  0  0  0  0  0  0  0  0  0  0  0
  152.5367  141.9276  168.4654 H   0  0  0  0  0  0  0  0  0  0  0  0
  151.5102  143.4925  166.7985 H   0  0  0  0  0  0  0  0  0  0  0  0
  152.0885  143.2329  164.3999 H   0  0  0  0  0  0  0  0  0  0  0  0
  154.6512  140.7857  163.2676 H   0  0  0  0  0  0  0  0  0  0  0  0
  154.8340  141.7765  160.9422 H   0  0  0  0  0  0  0  0  0  0  0  0
  154.0034  140.2227  160.8701 H   0  0  0  0  0  0  0  0  0  0  0  0
  153.3248  143.6824  160.6136 H   0  0  0  0  0  0  0  0  0  0  0  0
  154.0879  143.3724  159.0524 H   0  0  0  0  0  0  0  0  0  0  0  0
  151.4902  142.9665  158.3107 H   0  0  0  0  0  0  0  0  0  0  0  0
  152.7027  145.7967  158.7977 H   0  0  0  0  0  0  0  0  0  0  0  0
  151.3631  145.3607  157.6156 H   0  0  0  0  0  0  0  0  0  0  0  0
  149.9626  144.5068  159.5207 H   0  0  0  0  0  0  0  0  0  0  0  0
  151.3046  144.9443  160.7002 H   0  0  0  0  0  0  0  0  0  0  0  0
  1  2  1  0  0  0  0
  1 19  1  0  0  0  0
  1 20  1  0  0  0  0
  1 21  1  0  0  0  0
  2  3  1  0  0  0  0
  2  4  1  0  0  0  0
  3 22  1  0  0  0  0
  3 23  1  0  0  0  0
  3 24  1  0  0  0  0
  4  9  1  0  0  0  0
  4  5  2  0  0  0  0
  5  6  1  0  0  0  0
  6  7  2  0  0  0  0
  6 25  1  0  0  0  0
  7  8  1  0  0  0  0
  7 26  1  0  0  0  0
  8  9  2  0  0  0  0
  8 27  1  0  0  0  0
  9 10  1  0  0  0  0
 10 11  1  0  0  0  0
 10 28  1  0  0  0  0
 11 12  2  0  0  0  0
 11 13  1  0  0  0  0
 13 14  1  0  0  0  0
 13 29  1  0  0  0  0
 13 30  1  0  0  0  0
 14 15  1  0  0  0  0
 15 16  1  0  0  0  0
 15 31  1  0  0  0  0
 15 32  1  0  0  0  0
 16 18  1  0  0  0  0
 16 17  1  0  0  0  0
 16 33  1  0  0  0  0
 17 18  1  0  0  0  0
 17 34  1  0  0  0  0
 17 35  1  0  0  0  0
 18 36  1  0  0  0  0
 18 37  1  0  0  0  0
M  END
> <s_m_source_file>
AV-unprocessed.smi

> <i_m_source_file_index>
3227

> <i_lp_mmshare_version>
43012

> <i_f3d_flags>
0

> <s_epik_input>
W0NIM11OKFtDSDNdKWMxbltjSF1bY0hdW2NIXWMxW05IXUMoPU8pW0NIMl1PW0NIMl1bQ0hdMltDSDJdW0NIMl0y

> <s_epik_cmdline>
J2VwaWtfcHl0aG9uJywgJy1waCcsICc3LjAnLCAnLXRuJywgJzgnLCAnLW1hJywgJzIwMCcsICctbWV0YWxfYmluZGluZycsICctaW1hZScsICc8aW5maWxlLm1hZT4nLCAnLW9tYWUnLCAnPG91dGZpbGUubWFlPic=

> <r_lp_tautomer_probability>
1

> <r_epik_Ionization_Penalty>
0.25353

> <r_epik_Ionization_Penalty_Charging>
0

> <r_epik_Ionization_Penalty_Neutral>
0.25353

> <r_epik_State_Penalty>
0.244789

> <r_epik_Charging_Adjusted_Penalty>
0.244789

> <i_epik_Tot_Q>
0

> <i_epik_Tot_abs_Q>
0

> <r_epik_Metal_State_Penalty>
0.170372

> <b_epik_Metal_Only>
0

> <s_lp_Force_Field>
OPLS_2005

> <r_lp_Energy>
22.5303

> <b_lp_Chiralities_Consistent>
1

> <s_lp_Variant>
AV-unprocessed.smi:3227-1

> <Gold.Version>
5.8.1

> <Gold.Id.Protein>
6NUR|6NUR_protein|mol2

> <Gold.PLP.Fitness>
40.7228

> <Gold.PLP.PLP>
-41.6278

> <Gold.PLP.part.hbond>
-1.0000

> <Gold.PLP.part.metal>
0.0000

> <Gold.PLP.part.buried>
-4.8808

> <Gold.PLP.part.nonpolar>
-34.4992

> <Gold.PLP.part.repulsive>
0.1036

> <Gold.PLP.ligand.clash>
0.0000

> <Gold.PLP.ligand.torsion>
0.8853

> <Gold.PLP.Chemscore.Hbond>
0.0000

> <Gold.PLP.Chemscore.CHOScore>
0.0000

> <Gold.PLP.Chemscore.Metal>
0.0000

> <Gold.Chemscore.Hbonds>
donor molecule, donor type, donor heavy atom, donor atom, acceptor molecule, acceptor atom, score
      P1  H  6933  6945       L1    12  1.00

> <Gold.PLP.Chemscore.Internal.Correction>
0.8657

> <Gold.Rescore>
     Score         DG    S(hbond)    S(metal)    S(lipo)     H(rot)  DE(clash)    DE(int)     intcor
     11.47     -13.90       0.00        0.00     108.64       1.68       0.48       1.95       ----

> <Gold.Chemscore.Fitness>
11.4667

> <Gold.Chemscore.DG>
-13.8975

> <Gold.Chemscore.ZeroCoef>
-5.4800

> <Gold.Chemscore.Hbond>
0.0000

> <Gold.Chemscore.Metal>
0.0000

> <Gold.Chemscore.Lipo>
108.6405

> <Gold.Chemscore.Internal_Hbond>
0.0000

> <Gold.Chemscore.DEClash>
0.4817

> <Gold.Chemscore.DEInternal>
1.9491

> <Gold.Chemscore.Rot>
1.6771

> <Gold.Chemscore.Internal.Correction>
   9.000000E+99

> <Gold.Chemscore.Hbonds>
donor molecule, donor type, donor heavy atom, donor atom, acceptor molecule, acceptor atom, score
      P1  H  6933  6945       L1    12  0.90

> <Gold.Chemscore.Hbond.Weighted>
-0.0000

> <Gold.Chemscore.Metal.Weighted>
-0.0000

> <Gold.Chemscore.Lipo.Weighted>
-12.7109

> <Gold.Chemscore.Internal_Hbond.Weighted>
0.0000

> <Gold.Chemscore.DEClash.Weighted>
0.4817

> <Gold.Chemscore.DEInternal.Weighted>
1.9491

> <Gold.Chemscore.Rot.Weighted>
4.2935

> <Gold.Chemscore.Internal.Correction.Weighted>
   9.000000E+99

> <Gold.Protein.RotatedTorsions>
[ 6907 6896 6895 6894 ] final   19.36 input  -60.11 | X-H torsion
[ 7974 7965 7964 7962 ] final  -57.14 input  175.53 | X-H torsion
[ 8008 7997 7996 7995 ] final   19.69 input   59.86 | X-H torsion
[ 10167 10162 10161 10158 ] final -169.17 input  -65.29 | X-H torsion
[ 10718 10713 10712 10709 ] final  171.80 input   66.30 | X-H torsion
[ 10763 10752 10751 10750 ] final -100.77 input  -60.55 | X-H torsion
[ 11005 11000 10999 10996 ] final  129.52 input  -57.11 | X-H torsion

> <Gold.Protein.ActiveResidues>
 VAL166  LYS551  ARG553  GLY616  TRP617  ASP618  TYR619  PRO620  LYS621  CYS622 
 ASP623  PHE694  ASN695  SER759  ASP760  ASP761  ALA762  ILE779  LEU786  VAL792 
 PHE793  MET794  SER795  GLU796  ALA797  LYS798  CYS799  TRP800  GLU811  SER814 

> <Gold.Protein.RotatedAtoms>
  151.8796  135.0458  160.0487 H   0  0  0  0  0  0  0  0  0  0  0  0  # atno 6907 bound_to 6896
  152.2523  133.5221  159.5341 H   0  0  0  0  0  0  0  0  0  0  0  0  # atno 6908 bound_to 6896
  150.7088  134.0859  159.3957 H   0  0  0  0  0  0  0  0  0  0  0  0  # atno 6909 bound_to 6896
  145.8545  140.8329  142.9969 H   0  0  0  0  0  0  0  0  0  0  0  0  # atno 7974 bound_to 7965
  154.9245  140.3032  155.5199 H   0  0  0  0  0  0  0  0  0  0  0  0  # atno 8008 bound_to 7997
  156.3007  140.2365  156.4235 H   0  0  0  0  0  0  0  0  0  0  0  0  # atno 8009 bound_to 7997
  154.8297  140.0419  157.1457 H   0  0  0  0  0  0  0  0  0  0  0  0  # atno 8010 bound_to 7997
  139.5939  144.1153  152.1667 H   0  0  0  0  0  0  0  0  0  0  0  0  # atno 10167 bound_to 10162
  156.9883  131.0140  151.2863 H   0  0  0  0  0  0  0  0  0  0  0  0  # atno 10718 bound_to 10713
  154.7605  135.4923  153.9455 H   0  0  0  0  0  0  0  0  0  0  0  0  # atno 10763 bound_to 10752
  153.1246  135.6739  153.9286 H   0  0  0  0  0  0  0  0  0  0  0  0  # atno 10764 bound_to 10752
  153.9008  135.3110  155.3427 H   0  0  0  0  0  0  0  0  0  0  0  0  # atno 10765 bound_to 10752
  139.9620  134.9600  156.9160 H   0  0  0  0  0  0  0  0  0  0  0  0  # atno 11005 bound_to 11000
  144.6728  140.1002  143.7461 LP  0  0  0  0  0  0  0  0  0  0  0  0  # atno 17320 bound_to 7965
  145.9320  139.2612  143.1319 LP  0  0  0  0  0  0  0  0  0  0  0  0  # atno 17321 bound_to 7965
  140.0734  144.5760  150.7175 LP  0  0  0  0  0  0  0  0  0  0  0  0  # atno 17342 bound_to 10162
  140.7196  143.2576  151.4322 LP  0  0  0  0  0  0  0  0  0  0  0  0  # atno 17343 bound_to 10162
  157.5477  130.8161  149.8106 LP  0  0  0  0  0  0  0  0  0  0  0  0  # atno 17370 bound_to 10713
  156.0217  130.3793  150.1942 LP  0  0  0  0  0  0  0  0  0  0  0  0  # atno 17371 bound_to 10713
  140.5479  134.0656  155.7360 LP  0  0  0  0  0  0  0  0  0  0  0  0  # atno 17394 bound_to 11000
  141.1298  133.9322  157.2560 LP  0  0  0  0  0  0  0  0  0  0  0  0  # atno 17395 bound_to 11000

$$$$
