AV-unprocessed.smi:160|AV-procd|sdf|1346|dock1
  -GOLD-   2262019 43D 1   1.00000     0.00000
 Structure written by MMmdl.
 29 30  0  0  0  0  0  0  0  0  1 V2000
  152.3187  138.1712  154.7610 N   0  0  0  0  0  0  0  0  0  0  0  0
  152.3637  139.0655  155.7540 C   0  0  0  0  0  0  0  0  0  0  0  0
  153.2093  139.0179  156.6460 O   0  0  0  0  0  0  0  0  0  0  0  0
  151.3156  140.1433  155.7236 C   0  0  0  0  0  0  0  0  0  0  0  0
  151.2921  141.1336  156.6646 N   0  0  0  0  0  0  0  0  0  0  0  0
  150.2351  141.8079  156.2301 C   0  0  0  0  0  0  0  0  0  0  0  0
  149.6612  141.2847  155.1420 N   0  0  0  0  0  0  0  0  0  0  0  0
  148.4742  141.7538  154.3608 C   0  0  1  0  0  0  0  0  0  0  0  0
  148.4020  140.9779  153.2021 O   0  0  0  0  0  0  0  0  0  0  0  0
  147.0766  140.4874  153.0135 C   0  0  1  0  0  0  0  0  0  0  0  0
  147.0800  139.1857  152.1927 C   0  0  0  0  0  0  0  0  0  0  0  0
  145.7742  138.6538  152.1189 O   0  0  0  0  0  0  0  0  0  0  0  0
  146.5142  140.3717  154.4373 C   0  0  1  0  0  0  0  0  0  0  0  0
  146.8871  139.1440  155.0403 O   0  0  0  0  0  0  0  0  0  0  0  0
  147.1434  141.5794  155.1212 C   0  0  1  0  0  0  0  0  0  0  0  0
  147.2435  141.4451  156.5296 O   0  0  0  0  0  0  0  0  0  0  0  0
  150.3690  140.1847  154.7849 N   0  0  0  0  0  0  0  0  0  0  0  0
  148.6980  142.7946  154.1239 H   0  0  0  0  0  0  0  0  0  0  0  0
  146.5043  141.2571  152.4917 H   0  0  0  0  0  0  0  0  0  0  0  0
  145.4254  140.4316  154.4455 H   0  0  0  0  0  0  0  0  0  0  0  0
  146.5365  142.4591  154.9029 H   0  0  0  0  0  0  0  0  0  0  0  0
  152.9957  137.4234  154.7243 H   0  0  0  0  0  0  0  0  0  0  0  0
  151.6043  138.2523  154.0515 H   0  0  0  0  0  0  0  0  0  0  0  0
  149.8701  142.7004  156.7166 H   0  0  0  0  0  0  0  0  0  0  0  0
  147.4796  139.3487  151.1911 H   0  0  0  0  0  0  0  0  0  0  0  0
  147.7082  138.4374  152.6769 H   0  0  0  0  0  0  0  0  0  0  0  0
  145.1692  139.3643  151.9700 H   0  0  0  0  0  0  0  0  0  0  0  0
  147.4715  138.6910  154.4513 H   0  0  0  0  0  0  0  0  0  0  0  0
  146.4444  141.0583  156.8531 H   0  0  0  0  0  0  0  0  0  0  0  0
  1  2  1  0  0  0  0
  1 22  1  0  0  0  0
  1 23  1  0  0  0  0
  2  3  2  0  0  0  0
  2  4  1  0  0  0  0
  4 17  2  0  0  0  0
  4  5  1  0  0  0  0
  5  6  2  0  0  0  0
  6  7  1  0  0  0  0
  6 24  1  0  0  0  0
  7  8  1  0  0  0  0
  7 17  1  0  0  0  0
  8 18  1  0  0  0  0
  8 15  1  0  0  0  0
  8  9  1  0  0  0  0
  9 10  1  0  0  0  0
 10 19  1  0  0  0  0
 10 11  1  0  0  0  0
 10 13  1  0  0  0  0
 11 12  1  0  0  0  0
 11 25  1  0  0  0  0
 11 26  1  0  0  0  0
 12 27  1  0  0  0  0
 13 20  1  0  0  0  0
 13 14  1  0  0  0  0
 13 15  1  0  0  0  0
 14 28  1  0  0  0  0
 15 21  1  0  0  0  0
 15 16  1  0  0  0  0
 16 29  1  0  0  0  0
M  END
> <s_m_source_file>
AV-unprocessed.smi

> <i_m_source_file_index>
160

> <i_lp_mmshare_version>
43012

> <i_f3d_flags>
0

> <s_epik_input>
W05IMl1DKD1PKWMxbltjSF1uKG4xKVtDQEBIXTJPW0NASF0oW0NIMl1bT0hdKVtDQEBIXShbT0hdKVtDQEhdMltPSF0=

> <s_epik_cmdline>
J2VwaWtfcHl0aG9uJywgJy1waCcsICc3LjAnLCAnLXRuJywgJzgnLCAnLW1hJywgJzIwMCcsICctbWV0YWxfYmluZGluZycsICctaW1hZScsICc8aW5maWxlLm1hZT4nLCAnLW9tYWUnLCAnPG91dGZpbGUubWFlPic=

> <r_lp_tautomer_probability>
1

> <r_epik_Ionization_Penalty>
1.06932e-05

> <r_epik_Ionization_Penalty_Charging>
0

> <r_epik_Ionization_Penalty_Neutral>
1.06932e-05

> <r_epik_State_Penalty>
-0

> <r_epik_Charging_Adjusted_Penalty>
0

> <i_epik_Tot_Q>
0

> <i_epik_Tot_abs_Q>
0

> <r_epik_Metal_State_Penalty>
0.0142097

> <b_epik_Metal_Only>
0

> <s_epik_Chemistry_Notes>
This compound contains an acetal/aminal-like group ( X-CH(R)-Y where X, Y are N, S, or O) that may be acid/base labile, releasing an aldehyde.

> <s_lp_Force_Field>
OPLS_2005

> <r_lp_Energy>
47.6591

> <b_lp_Chiralities_Consistent>
1

> <s_lp_Variant>
AV-unprocessed.smi:160-4

> <Gold.Version>
5.8.1

> <Gold.Id.Protein>
6NUR|6NUR_protein|mol2

> <Gold.PLP.Fitness>
35.7151

> <Gold.PLP.PLP>
-25.2131

> <Gold.PLP.part.hbond>
-4.7872

> <Gold.PLP.part.metal>
0.0000

> <Gold.PLP.part.buried>
0.4178

> <Gold.PLP.part.nonpolar>
-23.7460

> <Gold.PLP.part.repulsive>
3.9597

> <Gold.PLP.ligand.clash>
0.0000

> <Gold.PLP.ligand.torsion>
0.1627

> <Gold.PLP.Chemscore.Hbond>
2.6996

> <Gold.PLP.Chemscore.CHOScore>
0.9072

> <Gold.PLP.Chemscore.Metal>
0.0000

> <Gold.Chemscore.Hbonds>
donor molecule, donor type, donor heavy atom, donor atom, acceptor molecule, acceptor atom, score
      L1  H    12    27       P1 10175  1.00
      P1  H  7989  7998       L1    17  0.55
      P1  H  7997  8010       L1     3  1.00
      P1  H  8011  8017       L1     9  0.22
      L1  C     6    24       P1  8028  0.96

> <Gold.PLP.Chemscore.Internal.Correction>
0.0072

> <Gold.Rescore>
     Score         DG    S(hbond)    S(metal)    S(lipo)     H(rot)  DE(clash)    DE(int)     intcor
      2.73      -4.50       1.96        0.00      24.42       4.06       1.34       0.43       ----

> <Gold.Chemscore.Fitness>
2.7314

> <Gold.Chemscore.DG>
-4.4961

> <Gold.Chemscore.ZeroCoef>
-5.4800

> <Gold.Chemscore.Hbond>
1.9620

> <Gold.Chemscore.Metal>
0.0000

> <Gold.Chemscore.Lipo>
24.4157

> <Gold.Chemscore.Internal_Hbond>
0.0000

> <Gold.Chemscore.DEClash>
1.3370

> <Gold.Chemscore.DEInternal>
0.4278

> <Gold.Chemscore.Rot>
4.0600

> <Gold.Chemscore.Internal.Correction>
   9.000000E+99

> <Gold.Chemscore.Hbonds>
donor molecule, donor type, donor heavy atom, donor atom, acceptor molecule, acceptor atom, score
      L1  H    12    27       P1 10175  0.95
      P1  H  7989  7998       L1    17  0.01
      P1  H  7997  8010       L1     3  0.62

> <Gold.Chemscore.Hbond.Weighted>
-6.5531

> <Gold.Chemscore.Metal.Weighted>
-0.0000

> <Gold.Chemscore.Lipo.Weighted>
-2.8566

> <Gold.Chemscore.Internal_Hbond.Weighted>
0.0000

> <Gold.Chemscore.DEClash.Weighted>
1.3370

> <Gold.Chemscore.DEInternal.Weighted>
0.4278

> <Gold.Chemscore.Rot.Weighted>
10.3936

> <Gold.Chemscore.Internal.Correction.Weighted>
   9.000000E+99

> <Gold.Protein.RotatedTorsions>
[ 6907 6896 6895 6894 ] final -145.11 input  -60.11 | X-H torsion
[ 7974 7965 7964 7962 ] final -153.83 input  175.53 | X-H torsion
[ 8008 7997 7996 7995 ] final   80.39 input   59.86 | X-H torsion
[ 10167 10162 10161 10158 ] final   55.52 input  -65.29 | X-H torsion
[ 10718 10713 10712 10709 ] final   68.80 input   66.30 | X-H torsion
[ 10763 10752 10751 10750 ] final  -83.80 input  -60.55 | X-H torsion
[ 11005 11000 10999 10996 ] final -169.07 input  -57.11 | X-H torsion

> <Gold.Protein.ActiveResidues>
 VAL166  LYS551  ARG553  GLY616  TRP617  ASP618  TYR619  PRO620  LYS621  CYS622 
 ASP623  PHE694  ASN695  SER759  ASP760  ASP761  ALA762  ILE779  LEU786  VAL792 
 PHE793  MET794  SER795  GLU796  ALA797  LYS798  CYS799  TRP800  GLU811  SER814 

> <Gold.Protein.RotatedAtoms>
  151.1233  133.5089  159.2601 H   0  0  0  0  0  0  0  0  0  0  0  0  # atno 6907 bound_to 6896
  151.1838  135.0372  159.8813 H   0  0  0  0  0  0  0  0  0  0  0  0  # atno 6908 bound_to 6896
  152.5457  134.1081  159.8400 H   0  0  0  0  0  0  0  0  0  0  0  0  # atno 6909 bound_to 6896
  144.7720  140.4472  143.5900 H   0  0  0  0  0  0  0  0  0  0  0  0  # atno 7974 bound_to 7965
  155.8828  140.3443  155.5900 H   0  0  0  0  0  0  0  0  0  0  0  0  # atno 8008 bound_to 7997
  155.7700  140.0844  157.2132 H   0  0  0  0  0  0  0  0  0  0  0  0  # atno 8009 bound_to 7997
  154.4026  140.1520  156.2918 H   0  0  0  0  0  0  0  0  0  0  0  0  # atno 8010 bound_to 7997
  140.2186  144.3813  150.6460 H   0  0  0  0  0  0  0  0  0  0  0  0  # atno 10167 bound_to 10162
  157.6310  130.9393  150.0427 H   0  0  0  0  0  0  0  0  0  0  0  0  # atno 10718 bound_to 10713
  154.5920  135.5543  153.7288 H   0  0  0  0  0  0  0  0  0  0  0  0  # atno 10763 bound_to 10752
  153.0120  135.6345  154.1835 H   0  0  0  0  0  0  0  0  0  0  0  0  # atno 10764 bound_to 10752
  154.1776  135.2889  155.3042 H   0  0  0  0  0  0  0  0  0  0  0  0  # atno 10765 bound_to 10752
  140.5348  134.5580  157.5084 H   0  0  0  0  0  0  0  0  0  0  0  0  # atno 11005 bound_to 11000
  145.6294  139.1534  143.2977 LP  0  0  0  0  0  0  0  0  0  0  0  0  # atno 17320 bound_to 7965
  146.1874  140.6399  142.9161 LP  0  0  0  0  0  0  0  0  0  0  0  0  # atno 17321 bound_to 7965
  140.6272  143.2183  151.6572 LP  0  0  0  0  0  0  0  0  0  0  0  0  # atno 17342 bound_to 10162
  139.5153  144.3384  152.0763 LP  0  0  0  0  0  0  0  0  0  0  0  0  # atno 17343 bound_to 10162
  156.1514  130.3642  149.9433 LP  0  0  0  0  0  0  0  0  0  0  0  0  # atno 17370 bound_to 10713
  156.7452  130.9094  151.3634 LP  0  0  0  0  0  0  0  0  0  0  0  0  # atno 17371 bound_to 10713
  139.9535  134.7576  156.0395 LP  0  0  0  0  0  0  0  0  0  0  0  0  # atno 17394 bound_to 11000
  141.1261  133.6599  156.3339 LP  0  0  0  0  0  0  0  0  0  0  0  0  # atno 17395 bound_to 11000

$$$$
