AV-unprocessed.smi:2898|AV-procd|sdf|11142|dock3
  -GOLD-   2272016 23D 1   1.00000     0.00000
 Structure written by MMmdl.
 44 45  0  0  0  0  0  0  0  0  1 V2000
  149.3111  140.0766  154.3628 C   0  0  0  0  0  0  0  0  0  0  0  0
  150.5228  139.8495  155.2212 C   0  0  0  0  0  0  0  0  0  0  0  0
  151.7278  139.9663  154.6909 N   0  0  0  0  0  0  0  0  0  0  0  0
  152.6269  139.7072  155.7283 O   0  0  0  0  0  0  0  0  0  0  0  0
  151.9209  139.4428  156.8571 C   0  0  0  0  0  0  0  0  0  0  0  0
  152.7267  139.1473  158.0780 C   0  0  0  0  0  0  0  0  0  0  0  0
  150.5753  139.5098  156.6044 C   0  0  0  0  0  0  0  0  0  0  0  0
  149.3981  139.2989  157.5290 C   0  0  1  0  0  0  0  0  0  0  0  0
  148.4503  140.5122  157.5226 C   0  0  0  0  0  0  0  0  0  0  0  0
  148.6779  137.9757  157.1920 C   0  0  0  0  0  0  0  0  0  0  0  0
  147.9358  137.4396  158.3278 N   0  0  0  0  0  0  0  0  0  0  0  0
  148.3513  136.4384  159.1224 C   0  0  0  0  0  0  0  0  0  0  0  0
  149.4206  135.8540  158.9386 O   0  0  0  0  0  0  0  0  0  0  0  0
  147.4431  136.0298  160.3045 C   0  0  0  0  0  0  0  0  0  0  0  0
  146.2076  136.8410  160.3392 C   0  0  0  0  0  0  0  0  0  0  0  0
  145.2401  137.4763  160.3666 N   0  0  0  0  0  0  0  0  0  0  0  0
  147.0709  134.5317  160.1666 C   0  0  0  0  0  0  0  0  0  0  0  0
  146.2662  134.0173  161.3736 C   0  0  0  0  0  0  0  0  0  0  0  0
  147.0317  134.2482  162.6851 C   0  0  0  0  0  0  0  0  0  0  0  0
  147.4254  135.7237  162.8510 C   0  0  0  0  0  0  0  0  0  0  0  0
  148.2205  136.2229  161.6314 C   0  0  0  0  0  0  0  0  0  0  0  0
  148.6717  140.8493  154.7904 H   0  0  0  0  0  0  0  0  0  0  0  0
  148.7187  139.1655  154.2780 H   0  0  0  0  0  0  0  0  0  0  0  0
  149.5806  140.3914  153.3541 H   0  0  0  0  0  0  0  0  0  0  0  0
  152.2616  139.5699  158.9678 H   0  0  0  0  0  0  0  0  0  0  0  0
  153.7290  139.5680  157.9954 H   0  0  0  0  0  0  0  0  0  0  0  0
  152.8237  138.0717  158.2247 H   0  0  0  0  0  0  0  0  0  0  0  0
  149.7701  139.2115  158.5503 H   0  0  0  0  0  0  0  0  0  0  0  0
  148.9893  141.4284  157.7649 H   0  0  0  0  0  0  0  0  0  0  0  0
  147.6561  140.4012  158.2612 H   0  0  0  0  0  0  0  0  0  0  0  0
  147.9754  140.6513  156.5520 H   0  0  0  0  0  0  0  0  0  0  0  0
  147.9749  138.1248  156.3727 H   0  0  0  0  0  0  0  0  0  0  0  0
  149.3972  137.2319  156.8444 H   0  0  0  0  0  0  0  0  0  0  0  0
  147.0472  137.8729  158.5349 H   0  0  0  0  0  0  0  0  0  0  0  0
  146.4908  134.3746  159.2560 H   0  0  0  0  0  0  0  0  0  0  0  0
  147.9704  133.9225  160.0621 H   0  0  0  0  0  0  0  0  0  0  0  0
  145.2994  134.5197  161.4194 H   0  0  0  0  0  0  0  0  0  0  0  0
  146.0531  132.9551  161.2514 H   0  0  0  0  0  0  0  0  0  0  0  0
  146.4247  133.9270  163.5322 H   0  0  0  0  0  0  0  0  0  0  0  0
  147.9292  133.6284  162.6956 H   0  0  0  0  0  0  0  0  0  0  0  0
  146.5297  136.3303  162.9874 H   0  0  0  0  0  0  0  0  0  0  0  0
  148.0198  135.8481  163.7564 H   0  0  0  0  0  0  0  0  0  0  0  0
  149.1732  135.6918  161.5965 H   0  0  0  0  0  0  0  0  0  0  0  0
  148.4662  137.2769  161.7692 H   0  0  0  0  0  0  0  0  0  0  0  0
  1  2  1  0  0  0  0
  1 22  1  0  0  0  0
  1 23  1  0  0  0  0
  1 24  1  0  0  0  0
  2  7  1  0  0  0  0
  2  3  2  0  0  0  0
  3  4  1  0  0  0  0
  4  5  1  0  0  0  0
  5  6  1  0  0  0  0
  5  7  2  0  0  0  0
  6 25  1  0  0  0  0
  6 26  1  0  0  0  0
  6 27  1  0  0  0  0
  7  8  1  0  0  0  0
  8  9  1  0  0  0  0
  8 10  1  0  0  0  0
  8 28  1  0  0  0  0
  9 29  1  0  0  0  0
  9 30  1  0  0  0  0
  9 31  1  0  0  0  0
 10 11  1  0  0  0  0
 10 32  1  0  0  0  0
 10 33  1  0  0  0  0
 11 12  1  0  0  0  0
 11 34  1  0  0  0  0
 12 13  2  0  0  0  0
 12 14  1  0  0  0  0
 14 21  1  0  0  0  0
 14 15  1  0  0  0  0
 14 17  1  0  0  0  0
 15 16  3  0  0  0  0
 17 18  1  0  0  0  0
 17 35  1  0  0  0  0
 17 36  1  0  0  0  0
 18 19  1  0  0  0  0
 18 37  1  0  0  0  0
 18 38  1  0  0  0  0
 19 20  1  0  0  0  0
 19 39  1  0  0  0  0
 19 40  1  0  0  0  0
 20 21  1  0  0  0  0
 20 41  1  0  0  0  0
 20 42  1  0  0  0  0
 21 43  1  0  0  0  0
 21 44  1  0  0  0  0
M  END
> <s_m_source_file>
AV-unprocessed.smi

> <i_m_source_file_index>
2898

> <i_lp_mmshare_version>
43012

> <i_f3d_flags>
0

> <s_epik_input>
W0NIM11jMW5vYyhbQ0gzXSljMVtDQEhdKFtDSDNdKVtDSDJdW05IXUMoPU8pQzIoQyNOKVtDSDJdW0NIMl1bQ0gyXVtDSDJdW0NIMl0y

> <s_epik_cmdline>
J2VwaWtfcHl0aG9uJywgJy1waCcsICc3LjAnLCAnLXRuJywgJzgnLCAnLW1hJywgJzIwMCcsICctbWV0YWxfYmluZGluZycsICctaW1hZScsICc8aW5maWxlLm1hZT4nLCAnLW9tYWUnLCAnPG91dGZpbGUubWFlPic=

> <r_lp_tautomer_probability>
1

> <r_epik_Ionization_Penalty>
4.33734e-07

> <r_epik_Ionization_Penalty_Charging>
0

> <r_epik_Ionization_Penalty_Neutral>
4.33734e-07

> <r_epik_State_Penalty>
-0

> <r_epik_Charging_Adjusted_Penalty>
0

> <i_epik_Tot_Q>
0

> <i_epik_Tot_abs_Q>
0

> <r_epik_Metal_State_Penalty>
-0

> <b_epik_Metal_Only>
0

> <s_lp_Force_Field>
OPLS_2005

> <r_lp_Energy>
8.6026

> <b_lp_Chiralities_Consistent>
1

> <s_lp_Variant>
AV-unprocessed.smi:2898-2

> <Gold.Version>
5.8.1

> <Gold.Id.Protein>
6NUR|6NUR_protein|mol2

> <Gold.PLP.Fitness>
38.4129

> <Gold.PLP.PLP>
-31.6536

> <Gold.PLP.part.hbond>
-3.0000

> <Gold.PLP.part.metal>
0.0000

> <Gold.PLP.part.buried>
-2.7633

> <Gold.PLP.part.nonpolar>
-26.2061

> <Gold.PLP.part.repulsive>
0.1606

> <Gold.PLP.ligand.clash>
1.1347

> <Gold.PLP.ligand.torsion>
0.4971

> <Gold.PLP.Chemscore.Hbond>
2.9440

> <Gold.PLP.Chemscore.CHOScore>
0.0000

> <Gold.PLP.Chemscore.Metal>
0.0000

> <Gold.Chemscore.Hbonds>
donor molecule, donor type, donor heavy atom, donor atom, acceptor molecule, acceptor atom, score
      P1  H  6896  6909       L1    13  1.00
      P1  H  7989  7998       L1     3  0.89
      P1  H  7997  8009       L1     4  1.00

> <Gold.PLP.Chemscore.Internal.Correction>
0.0561

> <Gold.Rescore>
     Score         DG    S(hbond)    S(metal)    S(lipo)     H(rot)  DE(clash)    DE(int)     intcor
     19.04     -19.47       2.64        0.00      77.51       1.52       0.02       0.41       ----

> <Gold.Chemscore.Fitness>
19.0367

> <Gold.Chemscore.DG>
-19.4693

> <Gold.Chemscore.ZeroCoef>
-5.4800

> <Gold.Chemscore.Hbond>
2.6415

> <Gold.Chemscore.Metal>
0.0000

> <Gold.Chemscore.Lipo>
77.5107

> <Gold.Chemscore.Internal_Hbond>
0.0000

> <Gold.Chemscore.DEClash>
0.0201

> <Gold.Chemscore.DEInternal>
0.4125

> <Gold.Chemscore.Rot>
1.5243

> <Gold.Chemscore.Internal.Correction>
   9.000000E+99

> <Gold.Chemscore.Hbonds>
donor molecule, donor type, donor heavy atom, donor atom, acceptor molecule, acceptor atom, score
      P1  H  6896  6909       L1    13  1.00
      P1  H  7989  7998       L1     3  0.62
      P1  H  7997  8009       L1     4  0.34

> <Gold.Chemscore.Hbond.Weighted>
-8.8228

> <Gold.Chemscore.Metal.Weighted>
-0.0000

> <Gold.Chemscore.Lipo.Weighted>
-9.0688

> <Gold.Chemscore.Internal_Hbond.Weighted>
0.0000

> <Gold.Chemscore.DEClash.Weighted>
0.0201

> <Gold.Chemscore.DEInternal.Weighted>
0.4125

> <Gold.Chemscore.Rot.Weighted>
3.9022

> <Gold.Chemscore.Internal.Correction.Weighted>
   9.000000E+99

> <Gold.Protein.RotatedTorsions>
[ 6907 6896 6895 6894 ] final   54.47 input  -60.11 | X-H torsion
[ 7974 7965 7964 7962 ] final -155.90 input  175.53 | X-H torsion
[ 8008 7997 7996 7995 ] final -170.07 input   59.86 | X-H torsion
[ 10167 10162 10161 10158 ] final   43.54 input  -65.29 | X-H torsion
[ 10718 10713 10712 10709 ] final -155.27 input   66.30 | X-H torsion
[ 10763 10752 10751 10750 ] final  156.98 input  -60.55 | X-H torsion
[ 11005 11000 10999 10996 ] final    0.00 input  -57.11 | X-H torsion

> <Gold.Protein.ActiveResidues>
 VAL166  LYS551  ARG553  GLY616  TRP617  ASP618  TYR619  PRO620  LYS621  CYS622 
 ASP623  PHE694  ASN695  SER759  ASP760  ASP761  ALA762  ILE779  LEU786  VAL792 
 PHE793  MET794  SER795  GLU796  ALA797  LYS798  CYS799  TRP800  GLU811  SER814 

> <Gold.Protein.RotatedAtoms>
  152.3442  134.7094  160.0254 H   0  0  0  0  0  0  0  0  0  0  0  0  # atno 6907 bound_to 6896
  151.7469  133.3319  159.3389 H   0  0  0  0  0  0  0  0  0  0  0  0  # atno 6908 bound_to 6896
  150.7498  134.6160  159.6156 H   0  0  0  0  0  0  0  0  0  0  0  0  # atno 6909 bound_to 6896
  144.7618  140.4185  143.5971 H   0  0  0  0  0  0  0  0  0  0  0  0  # atno 7974 bound_to 7965
  155.9134  140.1061  157.1262 H   0  0  0  0  0  0  0  0  0  0  0  0  # atno 8008 bound_to 7997
  154.4043  140.1270  156.4651 H   0  0  0  0  0  0  0  0  0  0  0  0  # atno 8009 bound_to 7997
  155.7283  140.3469  155.5050 H   0  0  0  0  0  0  0  0  0  0  0  0  # atno 8010 bound_to 7997
  140.3433  144.2443  150.6153 H   0  0  0  0  0  0  0  0  0  0  0  0  # atno 10167 bound_to 10162
  156.5106  130.8433  151.2645 H   0  0  0  0  0  0  0  0  0  0  0  0  # atno 10718 bound_to 10713
  154.1929  135.2794  155.3016 H   0  0  0  0  0  0  0  0  0  0  0  0  # atno 10763 bound_to 10752
  154.5914  135.5558  153.7286 H   0  0  0  0  0  0  0  0  0  0  0  0  # atno 10764 bound_to 10752
  153.0107  135.6369  154.2068 H   0  0  0  0  0  0  0  0  0  0  0  0  # atno 10765 bound_to 10752
  140.6314  133.9572  155.8276 H   0  0  0  0  0  0  0  0  0  0  0  0  # atno 11005 bound_to 11000
  145.6595  139.1579  143.2816 LP  0  0  0  0  0  0  0  0  0  0  0  0  # atno 17320 bound_to 7965
  146.1688  140.6677  142.9243 LP  0  0  0  0  0  0  0  0  0  0  0  0  # atno 17321 bound_to 7965
  140.5288  143.2248  151.8271 LP  0  0  0  0  0  0  0  0  0  0  0  0  # atno 17342 bound_to 10162
  139.4837  144.4746  151.9383 LP  0  0  0  0  0  0  0  0  0  0  0  0  # atno 17343 bound_to 10162
  157.7451  130.9951  150.2731 LP  0  0  0  0  0  0  0  0  0  0  0  0  # atno 17370 bound_to 10713
  156.3244  130.3791  149.7546 LP  0  0  0  0  0  0  0  0  0  0  0  0  # atno 17371 bound_to 10713
  141.0672  134.0258  157.3576 LP  0  0  0  0  0  0  0  0  0  0  0  0  # atno 17394 bound_to 11000
  139.9115  135.0190  156.7709 LP  0  0  0  0  0  0  0  0  0  0  0  0  # atno 17395 bound_to 11000

$$$$
