AV-unprocessed.smi:1414|AV-procd|sdf|5761|dock3
  -GOLD-   22720 5403D 1   1.00000     0.00000
 Structure written by MMmdl.
 45 46  0  0  0  0  0  0  0  0  1 V2000
  151.2948  143.0049  157.6185 C   0  0  0  0  0  0  0  0  0  0  0  0
  150.8078  141.9709  156.5978 C   0  0  2  0  0  0  0  0  0  0  0  0
  149.3515  141.5391  156.8616 C   0  0  0  0  0  0  0  0  0  0  0  0
  148.9523  140.4356  155.9719 N   0  0  0  0  0  0  0  0  0  0  0  0
  147.9297  140.7526  154.6018 S   0  0  0  0  0  0  0  0  0  0  0  0
  146.5467  140.8724  155.0885 O   0  0  0  0  0  0  0  0  0  0  0  0
  148.5256  141.8601  153.8387 O   0  0  0  0  0  0  0  0  0  0  0  0
  148.0495  139.2209  153.5848 C   0  0  0  0  0  0  0  0  0  0  0  0
  146.6582  138.6172  153.3430 C   0  0  0  0  0  0  0  0  0  0  0  0
  146.7338  137.3866  152.5632 N   0  0  0  0  0  0  0  0  0  0  0  0
  145.7190  136.5311  152.3752 C   0  0  0  0  0  0  0  0  0  0  0  0
  144.5956  136.6990  152.8488 O   0  0  0  0  0  0  0  0  0  0  0  0
  146.1007  135.4824  151.6258 N   0  0  0  0  0  0  0  0  0  0  0  0
  145.3272  134.3704  151.1938 C   0  0  0  0  0  0  0  0  0  0  0  0
  145.8200  133.3220  150.3792 C   0  0  0  0  0  0  0  0  0  0  0  0
  144.9550  132.2660  150.0333 C   0  0  0  0  0  0  0  0  0  0  0  0
  143.6331  132.2923  150.5182 C   0  0  0  0  0  0  0  0  0  0  0  0
  143.1538  133.2775  151.3063 N   0  0  0  0  0  0  0  0  0  0  0  0
  143.9893  134.2861  151.6346 C   0  0  0  0  0  0  0  0  0  0  0  0
  149.9240  139.3307  155.9210 C   0  0  0  0  0  0  0  0  0  0  0  0
  151.3544  139.8575  155.6920 C   0  0  2  0  0  0  0  0  0  0  0  0
  152.4003  138.7415  155.7880 C   0  0  0  0  0  0  0  0  0  0  0  0
  151.6612  140.8367  156.6760 O   0  0  0  0  0  0  0  0  0  0  0  0
  150.6787  143.9039  157.5906 H   0  0  0  0  0  0  0  0  0  0  0  0
  152.3234  143.3011  157.4119 H   0  0  0  0  0  0  0  0  0  0  0  0
  151.2603  142.6061  158.6327 H   0  0  0  0  0  0  0  0  0  0  0  0
  150.8945  142.4117  155.6048 H   0  0  0  0  0  0  0  0  0  0  0  0
  149.2520  141.1959  157.8921 H   0  0  0  0  0  0  0  0  0  0  0  0
  148.6731  142.3845  156.7491 H   0  0  0  0  0  0  0  0  0  0  0  0
  148.5219  139.4774  152.6380 H   0  0  0  0  0  0  0  0  0  0  0  0
  148.6896  138.5109  154.1065 H   0  0  0  0  0  0  0  0  0  0  0  0
  146.1850  138.3847  154.2971 H   0  0  0  0  0  0  0  0  0  0  0  0
  146.0096  139.3383  152.8426 H   0  0  0  0  0  0  0  0  0  0  0  0
  147.6260  137.1675  152.1444 H   0  0  0  0  0  0  0  0  0  0  0  0
  147.0780  135.4503  151.3754 H   0  0  0  0  0  0  0  0  0  0  0  0
  146.8385  133.2964  150.0257 H   0  0  0  0  0  0  0  0  0  0  0  0
  145.2990  131.4520  149.4126 H   0  0  0  0  0  0  0  0  0  0  0  0
  142.9445  131.4979  150.2713 H   0  0  0  0  0  0  0  0  0  0  0  0
  143.5724  135.0549  152.2689 H   0  0  0  0  0  0  0  0  0  0  0  0
  149.8778  138.7941  156.8694 H   0  0  0  0  0  0  0  0  0  0  0  0
  149.6485  138.6160  155.1457 H   0  0  0  0  0  0  0  0  0  0  0  0
  151.4336  140.3107  154.7038 H   0  0  0  0  0  0  0  0  0  0  0  0
  152.2151  137.9649  155.0455 H   0  0  0  0  0  0  0  0  0  0  0  0
  152.3900  138.2733  156.7727 H   0  0  0  0  0  0  0  0  0  0  0  0
  153.4031  139.1329  155.6163 H   0  0  0  0  0  0  0  0  0  0  0  0
  1  2  1  0  0  0  0
  1 24  1  0  0  0  0
  1 25  1  0  0  0  0
  1 26  1  0  0  0  0
  2 23  1  0  0  0  0
  2  3  1  0  0  0  0
  2 27  1  0  0  0  0
  3  4  1  0  0  0  0
  3 28  1  0  0  0  0
  3 29  1  0  0  0  0
  4  5  1  0  0  0  0
  4 20  1  0  0  0  0
  5  6  2  0  0  0  0
  5  7  2  0  0  0  0
  5  8  1  0  0  0  0
  8  9  1  0  0  0  0
  8 30  1  0  0  0  0
  8 31  1  0  0  0  0
  9 10  1  0  0  0  0
  9 32  1  0  0  0  0
  9 33  1  0  0  0  0
 10 11  1  0  0  0  0
 10 34  1  0  0  0  0
 11 12  2  0  0  0  0
 11 13  1  0  0  0  0
 13 14  1  0  0  0  0
 13 35  1  0  0  0  0
 14 19  1  0  0  0  0
 14 15  2  0  0  0  0
 15 16  1  0  0  0  0
 15 36  1  0  0  0  0
 16 17  2  0  0  0  0
 16 37  1  0  0  0  0
 17 18  1  0  0  0  0
 17 38  1  0  0  0  0
 18 19  2  0  0  0  0
 19 39  1  0  0  0  0
 20 21  1  0  0  0  0
 20 40  1  0  0  0  0
 20 41  1  0  0  0  0
 21 22  1  0  0  0  0
 21 23  1  0  0  0  0
 21 42  1  0  0  0  0
 22 43  1  0  0  0  0
 22 44  1  0  0  0  0
 22 45  1  0  0  0  0
M  END
> <s_m_source_file>
AV-unprocessed.smi

> <i_m_source_file_index>
1414

> <i_lp_mmshare_version>
43012

> <i_f3d_flags>
0

> <s_epik_input>
W0NIM11bQ0BASF0xW0NIMl1OKFtDSDJdW0NASF0oTzEpW0NIM10pUyg9TykoPU8pW0NIMl1bQ0gyXVtOSF1DKD1PKVtOSF1jMltjSF1bY0hdW2NIXW5bY0hdMg==

> <s_epik_cmdline>
J2VwaWtfcHl0aG9uJywgJy1waCcsICc3LjAnLCAnLXRuJywgJzgnLCAnLW1hJywgJzIwMCcsICctbWV0YWxfYmluZGluZycsICctaW1hZScsICc8aW5maWxlLm1hZT4nLCAnLW9tYWUnLCAnPG91dGZpbGUubWFlPic=

> <r_epik_Ionization_Penalty>
0.00437531

> <r_epik_Ionization_Penalty_Charging>
0

> <r_epik_Ionization_Penalty_Neutral>
0.00437531

> <r_epik_State_Penalty>
0.00312896

> <r_epik_Charging_Adjusted_Penalty>
0.00312896

> <i_epik_Tot_Q>
0

> <i_epik_Tot_abs_Q>
0

> <r_epik_Metal_State_Penalty>
-0

> <b_epik_Metal_Only>
0

> <s_lp_Force_Field>
OPLS_2005

> <r_lp_Energy>
4.57438

> <b_lp_Chiralities_Consistent>
1

> <s_lp_Variant>
AV-unprocessed.smi:1414-2

> <Gold.Version>
5.8.1

> <Gold.Id.Protein>
6NUR|6NUR_protein|mol2

> <Gold.PLP.Fitness>
45.2875

> <Gold.PLP.PLP>
-35.5188

> <Gold.PLP.part.hbond>
-3.0000

> <Gold.PLP.part.metal>
0.0000

> <Gold.PLP.part.buried>
-4.8971

> <Gold.PLP.part.nonpolar>
-29.2825

> <Gold.PLP.part.repulsive>
1.2452

> <Gold.PLP.ligand.clash>
0.0000

> <Gold.PLP.ligand.torsion>
1.3220

> <Gold.PLP.Chemscore.Hbond>
2.4160

> <Gold.PLP.Chemscore.CHOScore>
0.9971

> <Gold.PLP.Chemscore.Metal>
0.0000

> <Gold.Chemscore.Hbonds>
donor molecule, donor type, donor heavy atom, donor atom, acceptor molecule, acceptor atom, score
      L1  H    10    34       P1  7948  1.00
      L1  H    13    35       P1  7948  0.87
      P1  H  8011  8017       L1     7  0.48
      L1  C    17    38       P1 10952  1.00

> <Gold.PLP.Chemscore.Internal.Correction>
2.1733

> <Gold.Rescore>
     Score         DG    S(hbond)    S(metal)    S(lipo)     H(rot)  DE(clash)    DE(int)     intcor
     16.52     -19.39       2.31        0.00      87.25       1.57       0.13       2.74       ----

> <Gold.Chemscore.Fitness>
16.5200

> <Gold.Chemscore.DG>
-19.3909

> <Gold.Chemscore.ZeroCoef>
-5.4800

> <Gold.Chemscore.Hbond>
2.3110

> <Gold.Chemscore.Metal>
0.0000

> <Gold.Chemscore.Lipo>
87.2496

> <Gold.Chemscore.Internal_Hbond>
0.0000

> <Gold.Chemscore.DEClash>
0.1322

> <Gold.Chemscore.DEInternal>
2.7387

> <Gold.Chemscore.Rot>
1.5687

> <Gold.Chemscore.Internal.Correction>
   9.000000E+99

> <Gold.Chemscore.Hbonds>
donor molecule, donor type, donor heavy atom, donor atom, acceptor molecule, acceptor atom, score
      L1  H    10    34       P1  7948  0.98
      L1  H    13    35       P1  7948  0.77
      P1  H  8011  8017       L1     7  0.46

> <Gold.Chemscore.Hbond.Weighted>
-7.7187

> <Gold.Chemscore.Metal.Weighted>
-0.0000

> <Gold.Chemscore.Lipo.Weighted>
-10.2082

> <Gold.Chemscore.Internal_Hbond.Weighted>
0.0000

> <Gold.Chemscore.DEClash.Weighted>
0.1322

> <Gold.Chemscore.DEInternal.Weighted>
2.7387

> <Gold.Chemscore.Rot.Weighted>
4.0160

> <Gold.Chemscore.Internal.Correction.Weighted>
   9.000000E+99

> <Gold.Protein.RotatedTorsions>
[ 6907 6896 6895 6894 ] final  -29.18 input  -60.11 | X-H torsion
[ 7974 7965 7964 7962 ] final  106.22 input  175.53 | X-H torsion
[ 8008 7997 7996 7995 ] final   75.32 input   59.86 | X-H torsion
[ 10167 10162 10161 10158 ] final -123.51 input  -65.29 | X-H torsion
[ 10718 10713 10712 10709 ] final   50.44 input   66.30 | X-H torsion
[ 10763 10752 10751 10750 ] final -154.19 input  -60.55 | X-H torsion
[ 11005 11000 10999 10996 ] final  -35.53 input  -57.11 | X-H torsion

> <Gold.Protein.ActiveResidues>
 VAL166  LYS551  ARG553  GLY616  TRP617  ASP618  TYR619  PRO620  LYS621  CYS622 
 ASP623  PHE694  ASN695  SER759  ASP760  ASP761  ALA762  ILE779  LEU786  VAL792 
 PHE793  MET794  SER795  GLU796  ALA797  LYS798  CYS799  TRP800  GLU811  SER814 

> <Gold.Protein.RotatedAtoms>
  151.1228  135.0088  159.8545 H   0  0  0  0  0  0  0  0  0  0  0  0  # atno 6907 bound_to 6896
  152.5448  134.1703  159.8604 H   0  0  0  0  0  0  0  0  0  0  0  0  # atno 6908 bound_to 6896
  151.1762  133.4708  159.2627 H   0  0  0  0  0  0  0  0  0  0  0  0  # atno 6909 bound_to 6896
  145.3094  139.2545  143.3771 H   0  0  0  0  0  0  0  0  0  0  0  0  # atno 7974 bound_to 7965
  155.8113  140.3473  155.5459 H   0  0  0  0  0  0  0  0  0  0  0  0  # atno 8008 bound_to 7997
  155.8438  140.0945  157.1738 H   0  0  0  0  0  0  0  0  0  0  0  0  # atno 8009 bound_to 7997
  154.4006  140.1389  156.3748 H   0  0  0  0  0  0  0  0  0  0  0  0  # atno 8010 bound_to 7997
  140.0028  143.5523  152.2296 H   0  0  0  0  0  0  0  0  0  0  0  0  # atno 10167 bound_to 10162
  157.4885  130.8361  149.8175 H   0  0  0  0  0  0  0  0  0  0  0  0  # atno 10718 bound_to 10713
  154.7876  135.3195  154.7851 H   0  0  0  0  0  0  0  0  0  0  0  0  # atno 10763 bound_to 10752
  153.8548  135.6859  153.4793 H   0  0  0  0  0  0  0  0  0  0  0  0  # atno 10764 bound_to 10752
  153.1533  135.4690  154.9607 H   0  0  0  0  0  0  0  0  0  0  0  0  # atno 10765 bound_to 10752
  140.9803  133.7060  156.1672 H   0  0  0  0  0  0  0  0  0  0  0  0  # atno 11005 bound_to 11000
  146.3123  140.3627  142.8666 LP  0  0  0  0  0  0  0  0  0  0  0  0  # atno 17320 bound_to 7965
  144.9028  140.7663  143.5856 LP  0  0  0  0  0  0  0  0  0  0  0  0  # atno 17321 bound_to 7965
  139.6260  144.7637  151.2638 LP  0  0  0  0  0  0  0  0  0  0  0  0  # atno 17342 bound_to 10162
  140.7412  143.6563  150.8203 LP  0  0  0  0  0  0  0  0  0  0  0  0  # atno 17343 bound_to 10162
  156.0160  130.3813  150.2109 LP  0  0  0  0  0  0  0  0  0  0  0  0  # atno 17370 bound_to 10713
  157.0297  131.0004  151.3315 LP  0  0  0  0  0  0  0  0  0  0  0  0  # atno 17371 bound_to 10713
  140.7196  134.4372  157.5576 LP  0  0  0  0  0  0  0  0  0  0  0  0  # atno 17394 bound_to 11000
  139.8947  134.8699  156.2163 LP  0  0  0  0  0  0  0  0  0  0  0  0  # atno 17395 bound_to 11000

$$$$
