AV-unprocessed.smi:3287|AV-procd|sdf|12601|dock8
  -GOLD-   2272018523D 1   1.00000     0.00000
 Structure written by MMmdl.
 43 44  0  0  0  0  0  0  0  0  2 V2000
  152.9253  142.9442  161.5420 C   0  0  0  0  0  0  0  0  0  0  0  0
  152.5991  142.9843  160.0385 C   0  0  1  0  0  0  0  0  0  0  0  0
  152.2626  141.5648  159.5386 C   0  0  0  0  0  0  0  0  0  0  0  0
  151.9389  141.5395  158.0382 C   0  0  0  0  0  0  0  0  0  0  0  0
  150.7841  142.5016  157.7044 C   0  0  2  0  0  0  0  0  0  0  0  0
  150.4948  142.5207  156.2535 N   0  3  0  0  0  0  0  0  0  0  0  0
  149.3965  141.6316  155.8174 C   0  0  0  0  0  0  0  0  0  0  0  0
  149.7267  140.9422  154.4822 C   0  0  2  0  0  0  0  0  0  0  0  0
  148.5179  140.6446  153.8105 O   0  0  0  0  0  0  0  0  0  0  0  0
  150.5696  139.6960  154.7039 C   0  0  0  0  0  0  0  0  0  0  0  0
  151.7291  139.7493  155.5054 C   0  0  0  0  0  0  0  0  0  0  0  0
  152.4749  138.5677  155.6912 C   0  0  0  0  0  0  0  0  0  0  0  0
  152.1345  137.3821  155.1423 N   0  0  0  0  0  0  0  0  0  0  0  0
  151.0231  137.3358  154.3775 C   0  0  0  0  0  0  0  0  0  0  0  0
  150.2083  138.4582  154.1289 C   0  0  0  0  0  0  0  0  0  0  0  0
  151.1290  143.9216  158.1851 C   0  0  0  0  0  0  0  0  0  0  0  0
  151.4513  143.9697  159.6932 C   0  0  2  0  0  0  0  0  0  0  0  0
  151.7566  145.4180  160.1157 C   0  0  0  0  0  0  0  0  0  0  0  0
  152.0464  142.6830  162.1320 H   0  0  0  0  0  0  0  0  0  0  0  0
  153.2993  143.9023  161.9021 H   0  0  0  0  0  0  0  0  0  0  0  0
  153.6977  142.2045  161.7544 H   0  0  0  0  0  0  0  0  0  0  0  0
  153.4988  143.3145  159.5166 H   0  0  0  0  0  0  0  0  0  0  0  0
  153.0985  140.8929  159.7377 H   0  0  0  0  0  0  0  0  0  0  0  0
  151.4131  141.1698  160.0979 H   0  0  0  0  0  0  0  0  0  0  0  0
  152.8286  141.8134  157.4693 H   0  0  0  0  0  0  0  0  0  0  0  0
  151.6879  140.5193  157.7481 H   0  0  0  0  0  0  0  0  0  0  0  0
  149.8833  142.1782  158.2288 H   0  0  0  0  0  0  0  0  0  0  0  0
  150.2232  143.4623  156.0077 H   0  0  0  0  0  0  0  0  0  0  0  0
  149.2270  140.8733  156.5818 H   0  0  0  0  0  0  0  0  0  0  0  0
  148.4736  142.2069  155.7268 H   0  0  0  0  0  0  0  0  0  0  0  0
  150.2891  141.6313  153.8503 H   0  0  0  0  0  0  0  0  0  0  0  0
  148.7263  140.3290  152.9439 H   0  0  0  0  0  0  0  0  0  0  0  0
  152.0454  140.6713  155.9708 H   0  0  0  0  0  0  0  0  0  0  0  0
  153.3676  138.5755  156.2988 H   0  0  0  0  0  0  0  0  0  0  0  0
  150.7739  136.3749  153.9521 H   0  0  0  0  0  0  0  0  0  0  0  0
  149.3265  138.3648  153.5122 H   0  0  0  0  0  0  0  0  0  0  0  0
  151.9798  144.3048  157.6191 H   0  0  0  0  0  0  0  0  0  0  0  0
  150.2930  144.5889  157.9698 H   0  0  0  0  0  0  0  0  0  0  0  0
  150.5574  143.6530  160.2330 H   0  0  0  0  0  0  0  0  0  0  0  0
  152.6876  145.7731  159.6729 H   0  0  0  0  0  0  0  0  0  0  0  0
  151.8407  145.5150  161.1976 H   0  0  0  0  0  0  0  0  0  0  0  0
  150.9613  146.0940  159.8003 H   0  0  0  0  0  0  0  0  0  0  0  0
  151.3367  142.2892  155.7460 H   0  0  0  0  0  0  0  0  0  0  0  0
  1  2  1  0  0  0  0
  1 19  1  0  0  0  0
  1 20  1  0  0  0  0
  1 21  1  0  0  0  0
  2 17  1  0  0  0  0
  2  3  1  0  0  0  0
  2 22  1  0  0  0  0
  3  4  1  0  0  0  0
  3 23  1  0  0  0  0
  3 24  1  0  0  0  0
  4  5  1  0  0  0  0
  4 25  1  0  0  0  0
  4 26  1  0  0  0  0
  5  6  1  0  0  0  0
  5 16  1  0  0  0  0
  5 27  1  0  0  0  0
  6  7  1  0  0  0  0
  6 28  1  0  0  0  0
  6 43  1  0  0  0  0
  7  8  1  0  0  0  0
  7 29  1  0  0  0  0
  7 30  1  0  0  0  0
  8  9  1  0  0  0  0
  8 10  1  0  0  0  0
  8 31  1  0  0  0  0
  9 32  1  0  0  0  0
 10 15  1  0  0  0  0
 10 11  2  0  0  0  0
 11 12  1  0  0  0  0
 11 33  1  0  0  0  0
 12 13  2  0  0  0  0
 12 34  1  0  0  0  0
 13 14  1  0  0  0  0
 14 15  2  0  0  0  0
 14 35  1  0  0  0  0
 15 36  1  0  0  0  0
 16 17  1  0  0  0  0
 16 37  1  0  0  0  0
 16 38  1  0  0  0  0
 17 18  1  0  0  0  0
 17 39  1  0  0  0  0
 18 40  1  0  0  0  0
 18 41  1  0  0  0  0
 18 42  1  0  0  0  0
M  CHG  1   6   1
M  END
> <s_m_source_file>
AV-unprocessed.smi

> <i_m_source_file_index>
3287

> <i_lp_mmshare_version>
43012

> <i_f3d_flags>
0

> <s_epik_input>
W0NIM11bQ0BASF0xW0NIMl1bQ0gyXVtDQEhdKFtDSDJdW0NASF0xW0NIM10pW05IXVtDSDJdW0NASF0oW09IXSljMltjSF1bY0hdbltjSF1bY0hdMg==

> <s_epik_cmdline>
J2VwaWtfcHl0aG9uJywgJy1waCcsICc3LjAnLCAnLXRuJywgJzgnLCAnLW1hJywgJzIwMCcsICctbWV0YWxfYmluZGluZycsICctaW1hZScsICc8aW5maWxlLm1hZT4nLCAnLW9tYWUnLCAnPG91dGZpbGUubWFlPic=

> <r_lp_tautomer_probability>
1

> <r_epik_Ionization_Penalty>
0.00537262

> <r_epik_Ionization_Penalty_Charging>
0.00321624

> <r_epik_Ionization_Penalty_Neutral>
0.00215638

> <r_epik_State_Penalty>
-0

> <r_epik_Charging_Adjusted_Penalty>
0.00321624

> <i_epik_Tot_Q>
1

> <i_epik_Tot_abs_Q>
1

> <r_epik_Metal_State_Penalty>
-0

> <b_epik_Metal_Only>
0

> <s_lp_Force_Field>
OPLS_2005

> <r_lp_Energy>
15.7848

> <b_lp_Chiralities_Consistent>
1

> <s_lp_Variant>
AV-unprocessed.smi:3287-12

> <Gold.Version>
5.8.1

> <Gold.Id.Protein>
6NUR|6NUR_protein|mol2

> <Gold.PLP.Fitness>
55.9480

> <Gold.PLP.PLP>
-44.9021

> <Gold.PLP.part.hbond>
-3.0000

> <Gold.PLP.part.metal>
0.0000

> <Gold.PLP.part.buried>
-0.4068

> <Gold.PLP.part.nonpolar>
-41.2824

> <Gold.PLP.part.repulsive>
0.1624

> <Gold.PLP.ligand.clash>
0.0000

> <Gold.PLP.ligand.torsion>
1.2227

> <Gold.PLP.Chemscore.Hbond>
3.7840

> <Gold.PLP.Chemscore.CHOScore>
0.7087

> <Gold.PLP.Chemscore.Metal>
0.0000

> <Gold.Chemscore.Hbonds>
donor molecule, donor type, donor heavy atom, donor atom, acceptor molecule, acceptor atom, score
      L1  H     6    28       P1  8028  2.00
      L1  H     9    32       P1  7957  1.00
      P1  H 10752 10763       L1    13  0.78
      L1  C    14    35       P1  7948  0.12
      L1  C    14    35       P1  7949  0.59

> <Gold.PLP.Chemscore.Internal.Correction>
0.0133

> <Gold.Rescore>
     Score         DG    S(hbond)    S(metal)    S(lipo)     H(rot)  DE(clash)    DE(int)     intcor
     23.45     -24.85       2.77        0.00     128.02       1.90       0.07       1.33       ----

> <Gold.Chemscore.Fitness>
23.4496

> <Gold.Chemscore.DG>
-24.8539

> <Gold.Chemscore.ZeroCoef>
-5.4800

> <Gold.Chemscore.Hbond>
2.7749

> <Gold.Chemscore.Metal>
0.0000

> <Gold.Chemscore.Lipo>
128.0216

> <Gold.Chemscore.Internal_Hbond>
0.0000

> <Gold.Chemscore.DEClash>
0.0713

> <Gold.Chemscore.DEInternal>
1.3330

> <Gold.Chemscore.Rot>
1.9035

> <Gold.Chemscore.Internal.Correction>
   9.000000E+99

> <Gold.Chemscore.Hbonds>
donor molecule, donor type, donor heavy atom, donor atom, acceptor molecule, acceptor atom, score
      L1  H     6    28       P1  8028  0.95
      L1  H     9    32       P1  7957  0.95
      P1  H 10752 10763       L1    13  0.22

> <Gold.Chemscore.Hbond.Weighted>
-9.2683

> <Gold.Chemscore.Metal.Weighted>
-0.0000

> <Gold.Chemscore.Lipo.Weighted>
-14.9785

> <Gold.Chemscore.Internal_Hbond.Weighted>
0.0000

> <Gold.Chemscore.DEClash.Weighted>
0.0713

> <Gold.Chemscore.DEInternal.Weighted>
1.3330

> <Gold.Chemscore.Rot.Weighted>
4.8729

> <Gold.Chemscore.Internal.Correction.Weighted>
   9.000000E+99

> <Gold.Protein.RotatedTorsions>
[ 6907 6896 6895 6894 ] final  -53.03 input  -60.11 | X-H torsion
[ 7974 7965 7964 7962 ] final  134.06 input  175.53 | X-H torsion
[ 8008 7997 7996 7995 ] final   43.96 input   59.86 | X-H torsion
[ 10167 10162 10161 10158 ] final  160.62 input  -65.29 | X-H torsion
[ 10718 10713 10712 10709 ] final  156.87 input   66.30 | X-H torsion
[ 10763 10752 10751 10750 ] final   66.96 input  -60.55 | X-H torsion
[ 11005 11000 10999 10996 ] final -108.75 input  -57.11 | X-H torsion

> <Gold.Protein.ActiveResidues>
 VAL166  LYS551  ARG553  GLY616  TRP617  ASP618  TYR619  PRO620  LYS621  CYS622 
 ASP623  PHE694  ASN695  SER759  ASP760  ASP761  ALA762  ILE779  LEU786  VAL792 
 PHE793  MET794  SER795  GLU796  ALA797  LYS798  CYS799  TRP800  GLU811  SER814 

> <Gold.Protein.RotatedAtoms>
  150.8464  134.7774  159.6973 H   0  0  0  0  0  0  0  0  0  0  0  0  # atno 6907 bound_to 6896
  152.4540  134.5330  159.9826 H   0  0  0  0  0  0  0  0  0  0  0  0  # atno 6908 bound_to 6896
  151.5459  133.3387  159.2980 H   0  0  0  0  0  0  0  0  0  0  0  0  # atno 6909 bound_to 6896
  144.9801  139.4513  143.5390 H   0  0  0  0  0  0  0  0  0  0  0  0  # atno 7974 bound_to 7965
  155.3113  140.3391  155.4244 H   0  0  0  0  0  0  0  0  0  0  0  0  # atno 8008 bound_to 7997
  156.1954  140.1713  156.8046 H   0  0  0  0  0  0  0  0  0  0  0  0  # atno 8009 bound_to 7997
  154.5492  140.0709  156.8624 H   0  0  0  0  0  0  0  0  0  0  0  0  # atno 8010 bound_to 7997
  139.4841  144.4616  151.8696 H   0  0  0  0  0  0  0  0  0  0  0  0  # atno 10167 bound_to 10162
  157.1991  131.0672  151.2035 H   0  0  0  0  0  0  0  0  0  0  0  0  # atno 10718 bound_to 10713
  153.0164  135.5301  154.6906 H   0  0  0  0  0  0  0  0  0  0  0  0  # atno 10763 bound_to 10752
  154.6041  135.2871  155.0505 H   0  0  0  0  0  0  0  0  0  0  0  0  # atno 10764 bound_to 10752
  154.1551  135.6556  153.5025 H   0  0  0  0  0  0  0  0  0  0  0  0  # atno 10765 bound_to 10752
  141.0885  133.9097  157.2131 H   0  0  0  0  0  0  0  0  0  0  0  0  # atno 11005 bound_to 11000
  146.3406  139.9069  142.8786 LP  0  0  0  0  0  0  0  0  0  0  0  0  # atno 17320 bound_to 7965
  145.2433  141.0017  143.3923 LP  0  0  0  0  0  0  0  0  0  0  0  0  # atno 17321 bound_to 7965
  140.4079  144.2407  150.5890 LP  0  0  0  0  0  0  0  0  0  0  0  0  # atno 17342 bound_to 10162
  140.4994  143.2322  151.8701 LP  0  0  0  0  0  0  0  0  0  0  0  0  # atno 17343 bound_to 10162
  157.3785  130.7218  149.6613 LP  0  0  0  0  0  0  0  0  0  0  0  0  # atno 17370 bound_to 10713
  155.9702  130.4179  150.4301 LP  0  0  0  0  0  0  0  0  0  0  0  0  # atno 17371 bound_to 10713
  139.9706  135.0129  156.9503 LP  0  0  0  0  0  0  0  0  0  0  0  0  # atno 17394 bound_to 11000
  140.5308  134.0815  155.7315 LP  0  0  0  0  0  0  0  0  0  0  0  0  # atno 17395 bound_to 11000

$$$$
