AV-unprocessed.smi:2999|AV-procd|sdf|11426|dock2
  -GOLD-   2272016353D 1   1.00000     0.00000
 Structure written by MMmdl.
 37 39  0  0  0  0  0  0  0  0  3 V2000
  151.2958  136.7108  155.8516 O   0  0  0  0  0  0  0  0  0  0  0  0
  150.6923  136.7742  154.7783 C   0  0  0  0  0  0  0  0  0  0  0  0
  150.0665  135.6924  154.2956 N   0  0  0  0  0  0  0  0  0  0  0  0
  150.0620  134.3606  154.8943 C   0  0  0  0  0  0  0  0  0  0  0  0
  148.8929  133.4810  154.4026 C   0  0  1  0  0  0  0  0  0  0  0  0
  149.0559  132.9837  152.9458 C   0  0  0  0  0  0  0  0  0  0  0  0
  147.9416  132.0923  152.5470 N   0  3  2  0  0  0  0  0  0  0  0  0
  146.6904  132.8184  152.2277 C   0  0  0  0  0  0  0  0  0  0  0  0
  145.6483  131.9588  151.5512 C   0  0  0  0  0  0  0  0  0  0  0  0
  146.4386  132.9656  150.7455 C   0  0  0  0  0  0  0  0  0  0  0  0
  147.7564  131.0022  153.5336 C   0  0  0  0  0  0  0  0  0  0  0  0
  147.6218  131.5585  154.9622 C   0  0  0  0  0  0  0  0  0  0  0  0
  148.7519  132.3623  155.2725 O   0  0  0  0  0  0  0  0  0  0  0  0
  150.5859  137.8597  153.9800 N   0  5  0  0  0  0  0  0  0  0  0  0
  150.7038  139.0913  154.5025 C   0  0  0  0  0  0  0  0  0  0  0  0
  151.8107  139.5161  155.1225 N   0  0  0  0  0  0  0  0  0  0  0  0
  151.7187  140.8308  155.5834 C   0  0  0  0  0  0  0  0  0  0  0  0
  150.5163  141.4229  155.3014 C   0  0  0  0  0  0  0  0  0  0  0  0
  149.4576  140.3409  154.4423 S   0  0  0  0  0  0  0  0  0  0  0  0
  149.5754  135.7998  153.4202 H   0  0  0  0  0  0  0  0  0  0  0  0
  151.0168  133.8602  154.7254 H   0  0  0  0  0  0  0  0  0  0  0  0
  149.9781  134.4962  155.9727 H   0  0  0  0  0  0  0  0  0  0  0  0
  147.9857  134.0821  154.4811 H   0  0  0  0  0  0  0  0  0  0  0  0
  149.1333  133.8241  152.2552 H   0  0  0  0  0  0  0  0  0  0  0  0
  149.9791  132.4123  152.8428 H   0  0  0  0  0  0  0  0  0  0  0  0
  146.3884  133.6059  152.9152 H   0  0  0  0  0  0  0  0  0  0  0  0
  145.8712  130.9049  151.3954 H   0  0  0  0  0  0  0  0  0  0  0  0
  144.6031  132.1885  151.7480 H   0  0  0  0  0  0  0  0  0  0  0  0
  145.9150  133.8594  150.4120 H   0  0  0  0  0  0  0  0  0  0  0  0
  147.1860  132.5796  150.0543 H   0  0  0  0  0  0  0  0  0  0  0  0
  146.8889  130.3959  153.2707 H   0  0  0  0  0  0  0  0  0  0  0  0
  148.6237  130.3426  153.4842 H   0  0  0  0  0  0  0  0  0  0  0  0
  146.7042  132.1366  155.0795 H   0  0  0  0  0  0  0  0  0  0  0  0
  147.5703  130.7381  155.6781 H   0  0  0  0  0  0  0  0  0  0  0  0
  152.5593  141.2666  156.1023 H   0  0  0  0  0  0  0  0  0  0  0  0
  150.1902  142.4230  155.5434 H   0  0  0  0  0  0  0  0  0  0  0  0
  148.2250  131.6513  151.6835 H   0  0  0  0  0  0  0  0  0  0  0  0
  1  2  2  0  0  0  0
  2  3  1  0  0  0  0
  2 14  1  0  0  0  0
  3  4  1  0  0  0  0
  3 20  1  0  0  0  0
  4  5  1  0  0  0  0
  4 21  1  0  0  0  0
  4 22  1  0  0  0  0
  5 13  1  0  0  0  0
  5  6  1  0  0  0  0
  5 23  1  0  0  0  0
  6  7  1  0  0  0  0
  6 24  1  0  0  0  0
  6 25  1  0  0  0  0
  7  8  1  0  0  0  0
  7 11  1  0  0  0  0
  7 37  1  0  0  0  0
  8 10  1  0  0  0  0
  8  9  1  0  0  0  0
  8 26  1  0  0  0  0
  9 10  1  0  0  0  0
  9 27  1  0  0  0  0
  9 28  1  0  0  0  0
 10 29  1  0  0  0  0
 10 30  1  0  0  0  0
 11 12  1  0  0  0  0
 11 31  1  0  0  0  0
 11 32  1  0  0  0  0
 12 13  1  0  0  0  0
 12 33  1  0  0  0  0
 12 34  1  0  0  0  0
 14 15  1  0  0  0  0
 15 19  1  0  0  0  0
 15 16  2  0  0  0  0
 16 17  1  0  0  0  0
 17 18  2  0  0  0  0
 17 35  1  0  0  0  0
 18 19  1  0  0  0  0
 18 36  1  0  0  0  0
M  CHG  1   7   1
M  CHG  1  14  -1
M  END
> <s_m_source_file>
AV-unprocessed.smi

> <i_m_source_file_index>
2999

> <i_lp_mmshare_version>
43012

> <i_f3d_flags>
0

> <s_epik_input>
czFbY0hdW2NIXW5jMVtOSF1DKD1PKVtOSF1bQ0gyXVtDQEBIXTJbQ0gyXU4oW0NIMl1bQ0gyXU8yKVtDSF0zW0NIMl1bQ0gyXTM=

> <s_epik_cmdline>
J2VwaWtfcHl0aG9uJywgJy1waCcsICc3LjAnLCAnLXRuJywgJzgnLCAnLW1hJywgJzIwMCcsICctbWV0YWxfYmluZGluZycsICctaW1hZScsICc8aW5maWxlLm1hZT4nLCAnLW9tYWUnLCAnPG91dGZpbGUubWFlPic=

> <r_lp_tautomer_probability>
0.999

> <r_epik_Ionization_Penalty>
7.79196

> <r_epik_Ionization_Penalty_Charging>
6.93299

> <r_epik_Ionization_Penalty_Neutral>
0.858963

> <r_epik_State_Penalty>
7.05108

> <r_epik_Charging_Adjusted_Penalty>
13.9841

> <i_epik_Tot_Q>
0

> <i_epik_Tot_abs_Q>
2

> <r_epik_Metal_State_Penalty>
3.05936

> <b_epik_Metal_Only>
1

> <s_lp_Force_Field>
OPLS_2005

> <r_lp_Energy>
16.0159

> <b_lp_Chiralities_Consistent>
1

> <s_lp_Variant>
AV-unprocessed.smi:2999-10

> <Gold.Version>
5.8.1

> <Gold.Id.Protein>
6NUR|6NUR_protein|mol2

> <Gold.PLP.Fitness>
39.9412

> <Gold.PLP.PLP>
-32.9095

> <Gold.PLP.part.hbond>
-2.3546

> <Gold.PLP.part.metal>
0.0000

> <Gold.PLP.part.buried>
-4.7843

> <Gold.PLP.part.nonpolar>
-26.2759

> <Gold.PLP.part.repulsive>
0.5551

> <Gold.PLP.ligand.clash>
0.0000

> <Gold.PLP.ligand.torsion>
1.6176

> <Gold.PLP.Chemscore.Hbond>
2.0000

> <Gold.PLP.Chemscore.CHOScore>
1.0000

> <Gold.PLP.Chemscore.Metal>
0.0000

> <Gold.Chemscore.Hbonds>
donor molecule, donor type, donor heavy atom, donor atom, acceptor molecule, acceptor atom, score
      L1  H     3    20       P1  7948  0.90
      L1  H     7    37       P1 10747  1.00
      P1  H 10752 10763       L1     1  0.11
      L1  C    18    36       P1  8028  0.72

> <Gold.PLP.Chemscore.Internal.Correction>
1.2670

> <Gold.Rescore>
     Score         DG    S(hbond)    S(metal)    S(lipo)     H(rot)  DE(clash)    DE(int)     intcor
     13.35     -16.18       1.94        0.00      70.06       1.55       0.00       2.82       ----

> <Gold.Chemscore.Fitness>
13.3527

> <Gold.Chemscore.DG>
-16.1778

> <Gold.Chemscore.ZeroCoef>
-5.4800

> <Gold.Chemscore.Hbond>
1.9371

> <Gold.Chemscore.Metal>
0.0000

> <Gold.Chemscore.Lipo>
70.0594

> <Gold.Chemscore.Internal_Hbond>
0.0000

> <Gold.Chemscore.DEClash>
0.0029

> <Gold.Chemscore.DEInternal>
2.8221

> <Gold.Chemscore.Rot>
1.5504

> <Gold.Chemscore.Internal.Correction>
   9.000000E+99

> <Gold.Chemscore.Hbonds>
donor molecule, donor type, donor heavy atom, donor atom, acceptor molecule, acceptor atom, score
      L1  H     3    20       P1  7948  0.18
      L1  H     7    37       P1 10747  1.00
      P1  H 10752 10763       L1     1  0.02

> <Gold.Chemscore.Hbond.Weighted>
-6.4698

> <Gold.Chemscore.Metal.Weighted>
-0.0000

> <Gold.Chemscore.Lipo.Weighted>
-8.1969

> <Gold.Chemscore.Internal_Hbond.Weighted>
0.0000

> <Gold.Chemscore.DEClash.Weighted>
0.0029

> <Gold.Chemscore.DEInternal.Weighted>
2.8221

> <Gold.Chemscore.Rot.Weighted>
3.9690

> <Gold.Chemscore.Internal.Correction.Weighted>
   9.000000E+99

> <Gold.Protein.RotatedTorsions>
[ 6907 6896 6895 6894 ] final   81.52 input  -60.11 | X-H torsion
[ 7974 7965 7964 7962 ] final -119.36 input  175.53 | X-H torsion
[ 8008 7997 7996 7995 ] final  163.88 input   59.86 | X-H torsion
[ 10167 10162 10161 10158 ] final  -59.11 input  -65.29 | X-H torsion
[ 10718 10713 10712 10709 ] final -127.39 input   66.30 | X-H torsion
[ 10763 10752 10751 10750 ] final   92.90 input  -60.55 | X-H torsion
[ 11005 11000 10999 10996 ] final -146.26 input  -57.11 | X-H torsion

> <Gold.Protein.ActiveResidues>
 VAL166  LYS551  ARG553  GLY616  TRP617  ASP618  TYR619  PRO620  LYS621  CYS622 
 ASP623  PHE694  ASN695  SER759  ASP760  ASP761  ALA762  ILE779  LEU786  VAL792 
 PHE793  MET794  SER795  GLU796  ALA797  LYS798  CYS799  TRP800  GLU811  SER814 

> <Gold.Protein.RotatedAtoms>
  152.5271  134.3190  159.9141 H   0  0  0  0  0  0  0  0  0  0  0  0  # atno 6907 bound_to 6896
  151.3140  133.4062  159.2657 H   0  0  0  0  0  0  0  0  0  0  0  0  # atno 6908 bound_to 6896
  151.0015  134.9342  159.8014 H   0  0  0  0  0  0  0  0  0  0  0  0  # atno 6909 bound_to 6896
  145.0634  140.8307  143.4139 H   0  0  0  0  0  0  0  0  0  0  0  0  # atno 7974 bound_to 7965
  156.1923  140.1711  156.8067 H   0  0  0  0  0  0  0  0  0  0  0  0  # atno 8008 bound_to 7997
  154.5486  140.0722  156.8663 H   0  0  0  0  0  0  0  0  0  0  0  0  # atno 8009 bound_to 7997
  155.3072  140.3365  155.4247 H   0  0  0  0  0  0  0  0  0  0  0  0  # atno 8010 bound_to 7997
  140.6155  143.2401  151.5607 H   0  0  0  0  0  0  0  0  0  0  0  0  # atno 10167 bound_to 10162
  156.1853  130.6759  151.0356 H   0  0  0  0  0  0  0  0  0  0  0  0  # atno 10718 bound_to 10713
  153.2243  135.4344  155.0525 H   0  0  0  0  0  0  0  0  0  0  0  0  # atno 10763 bound_to 10752
  154.8266  135.3364  154.6880 H   0  0  0  0  0  0  0  0  0  0  0  0  # atno 10764 bound_to 10752
  153.7311  135.7011  153.5045 H   0  0  0  0  0  0  0  0  0  0  0  0  # atno 10765 bound_to 10752
  140.7838  134.3048  157.5036 H   0  0  0  0  0  0  0  0  0  0  0  0  # atno 11005 bound_to 11000
  145.1381  139.2589  143.5504 LP  0  0  0  0  0  0  0  0  0  0  0  0  # atno 17320 bound_to 7965
  146.3525  140.1050  142.8606 LP  0  0  0  0  0  0  0  0  0  0  0  0  # atno 17321 bound_to 7965
  139.5395  144.2686  152.1322 LP  0  0  0  0  0  0  0  0  0  0  0  0  # atno 17342 bound_to 10162
  140.1895  144.4766  150.6486 LP  0  0  0  0  0  0  0  0  0  0  0  0  # atno 17343 bound_to 10162
  157.6894  131.0814  150.7149 LP  0  0  0  0  0  0  0  0  0  0  0  0  # atno 17370 bound_to 10713
  156.7206  130.4679  149.5524 LP  0  0  0  0  0  0  0  0  0  0  0  0  # atno 17371 bound_to 10713
  139.8739  134.9334  156.3580 LP  0  0  0  0  0  0  0  0  0  0  0  0  # atno 17394 bound_to 11000
  140.9456  133.7485  156.0204 LP  0  0  0  0  0  0  0  0  0  0  0  0  # atno 17395 bound_to 11000

$$$$
