AV-unprocessed.smi:22|AV-procd|sdf|172|dock8
  -GOLD-   2262015423D 1   1.00000     0.00000
 Structure written by MMmdl.
 56 59  0  0  0  0  0  0  0  0  2 V2000
  144.6353  135.5280  151.4591 C   0  0  0  0  0  0  0  0  0  0  0  0
  144.3438  136.9852  151.4143 N   0  3  1  0  0  0  0  0  0  0  0  0
  142.8806  137.2713  151.5088 C   0  0  0  0  0  0  0  0  0  0  0  0
  142.2012  136.6826  152.7605 C   0  0  0  0  0  0  0  0  0  0  0  0
  140.8354  137.0409  152.7906 O   0  0  0  0  0  0  0  0  0  0  0  0
  145.2179  137.7441  152.3682 C   0  0  0  0  0  0  0  0  0  0  0  0
  146.7400  137.6398  152.0922 C   0  0  0  0  0  0  0  0  0  0  0  0
  147.5616  138.4148  153.1353 C   0  0  0  0  0  0  0  0  0  0  0  0
  147.2388  137.9743  154.4901 N   0  0  0  0  0  0  0  0  0  0  0  0
  148.1345  138.3562  155.4371 C   0  0  0  0  0  0  0  0  0  0  0  0
  148.1037  137.7823  156.6701 N   0  0  0  0  0  0  0  0  0  0  0  0
  148.9719  138.1588  157.6134 C   0  0  0  0  0  0  0  0  0  0  0  0
  149.9396  139.0736  157.5385 N   0  0  0  0  0  0  0  0  0  0  0  0
  149.9850  139.6461  156.3018 C   0  0  0  0  0  0  0  0  0  0  0  0
  149.1269  139.3510  155.2044 C   0  0  0  0  0  0  0  0  0  0  0  0
  149.4784  140.1308  154.1087 N   0  0  0  0  0  0  0  0  0  0  0  0
  150.4777  140.8528  154.5375 C   0  0  0  0  0  0  0  0  0  0  0  0
  150.8547  140.6193  155.8408 N   0  0  0  0  0  0  0  0  0  0  0  0
  151.9304  141.2719  156.5727 C   0  0  0  0  0  0  0  0  0  0  0  0
  151.4394  142.3230  157.5980 C   0  0  2  0  0  0  0  0  0  0  0  0
  150.7092  143.3268  156.9166 O   0  0  0  0  0  0  0  0  0  0  0  0
  152.5935  142.9790  158.3599 C   0  0  0  0  0  0  0  0  0  0  0  0
  152.4639  142.4138  159.7692 C   0  0  0  0  0  0  0  0  0  0  0  0
  151.0623  142.2845  159.9244 O   0  0  0  0  0  0  0  0  0  0  0  0
  150.5601  141.7303  158.7172 C   0  0  0  0  0  0  0  0  0  0  0  0
  145.8189  138.0490  154.8320 C   0  0  0  0  0  0  0  0  0  0  0  0
  144.9665  137.2693  153.8187 C   0  0  0  0  0  0  0  0  0  0  0  0
  144.2099  135.0752  152.3555 H   0  0  0  0  0  0  0  0  0  0  0  0
  145.7044  135.3226  151.4625 H   0  0  0  0  0  0  0  0  0  0  0  0
  144.2323  135.0130  150.5880 H   0  0  0  0  0  0  0  0  0  0  0  0
  142.7232  138.3504  151.4783 H   0  0  0  0  0  0  0  0  0  0  0  0
  142.3575  136.8487  150.6517 H   0  0  0  0  0  0  0  0  0  0  0  0
  142.3089  135.6005  152.8255 H   0  0  0  0  0  0  0  0  0  0  0  0
  142.6756  137.0885  153.6544 H   0  0  0  0  0  0  0  0  0  0  0  0
  140.3844  136.4627  153.3879 H   0  0  0  0  0  0  0  0  0  0  0  0
  144.9544  138.8009  152.2919 H   0  0  0  0  0  0  0  0  0  0  0  0
  147.0521  136.5944  152.0986 H   0  0  0  0  0  0  0  0  0  0  0  0
  146.9876  138.0429  151.1101 H   0  0  0  0  0  0  0  0  0  0  0  0
  148.6218  138.2905  152.9175 H   0  0  0  0  0  0  0  0  0  0  0  0
  147.3520  139.4822  153.0555 H   0  0  0  0  0  0  0  0  0  0  0  0
  148.8783  137.6542  158.5637 H   0  0  0  0  0  0  0  0  0  0  0  0
  150.9714  141.5783  153.9075 H   0  0  0  0  0  0  0  0  0  0  0  0
  152.5160  140.5014  157.0760 H   0  0  0  0  0  0  0  0  0  0  0  0
  152.6008  141.7378  155.8491 H   0  0  0  0  0  0  0  0  0  0  0  0
  150.9282  143.2854  155.9982 H   0  0  0  0  0  0  0  0  0  0  0  0
  153.5727  142.7795  157.9231 H   0  0  0  0  0  0  0  0  0  0  0  0
  152.4706  144.0627  158.4008 H   0  0  0  0  0  0  0  0  0  0  0  0
  152.9367  141.4331  159.8441 H   0  0  0  0  0  0  0  0  0  0  0  0
  152.8968  143.0668  160.5274 H   0  0  0  0  0  0  0  0  0  0  0  0
  149.4956  141.9343  158.5941 H   0  0  0  0  0  0  0  0  0  0  0  0
  150.6824  140.6486  158.7809 H   0  0  0  0  0  0  0  0  0  0  0  0
  145.6540  137.6406  155.8302 H   0  0  0  0  0  0  0  0  0  0  0  0
  145.5058  139.0939  154.8546 H   0  0  0  0  0  0  0  0  0  0  0  0
  143.9192  137.3744  154.0982 H   0  0  0  0  0  0  0  0  0  0  0  0
  145.1961  136.2056  153.8991 H   0  0  0  0  0  0  0  0  0  0  0  0
  144.6118  137.3030  150.4932 H   0  0  0  0  0  0  0  0  0  0  0  0
  1  2  1  0  0  0  0
  1 28  1  0  0  0  0
  1 29  1  0  0  0  0
  1 30  1  0  0  0  0
  2  3  1  0  0  0  0
  2  6  1  0  0  0  0
  2 56  1  0  0  0  0
  3  4  1  0  0  0  0
  3 31  1  0  0  0  0
  3 32  1  0  0  0  0
  4  5  1  0  0  0  0
  4 33  1  0  0  0  0
  4 34  1  0  0  0  0
  5 35  1  0  0  0  0
  6 27  1  0  0  0  0
  6  7  1  0  0  0  0
  6 36  1  0  0  0  0
  7  8  1  0  0  0  0
  7 37  1  0  0  0  0
  7 38  1  0  0  0  0
  8  9  1  0  0  0  0
  8 39  1  0  0  0  0
  8 40  1  0  0  0  0
  9 10  1  0  0  0  0
  9 26  1  0  0  0  0
 10 15  1  0  0  0  0
 10 11  2  0  0  0  0
 11 12  1  0  0  0  0
 12 13  2  0  0  0  0
 12 41  1  0  0  0  0
 13 14  1  0  0  0  0
 14 18  1  0  0  0  0
 14 15  2  0  0  0  0
 15 16  1  0  0  0  0
 16 17  2  0  0  0  0
 17 18  1  0  0  0  0
 17 42  1  0  0  0  0
 18 19  1  0  0  0  0
 19 20  1  0  0  0  0
 19 43  1  0  0  0  0
 19 44  1  0  0  0  0
 20 25  1  0  0  0  0
 20 21  1  0  0  0  0
 20 22  1  0  0  0  0
 21 45  1  0  0  0  0
 22 23  1  0  0  0  0
 22 46  1  0  0  0  0
 22 47  1  0  0  0  0
 23 24  1  0  0  0  0
 23 48  1  0  0  0  0
 23 49  1  0  0  0  0
 24 25  1  0  0  0  0
 25 50  1  0  0  0  0
 25 51  1  0  0  0  0
 26 27  1  0  0  0  0
 26 52  1  0  0  0  0
 26 53  1  0  0  0  0
 27 54  1  0  0  0  0
 27 55  1  0  0  0  0
M  CHG  1   2   1
M  END
> <s_m_source_file>
AV-unprocessed.smi

> <i_m_source_file_index>
22

> <i_lp_mmshare_version>
43012

> <i_f3d_flags>
0

> <s_epik_input>
W09IXVtDSDJdW0NIMl1OKFtDSDNdKVtDSF0xW0NIMl1bQ0gyXU4oW0NIMl1bQ0gyXTEpYyhuW2NIXW4yKWMoYzIzKW5bY0hdbjNbQ0gyXVtDQEBdNChbT0hdKVtDSDJdW0NIMl1PW0NIMl00

> <s_epik_cmdline>
J2VwaWtfcHl0aG9uJywgJy1waCcsICc3LjAnLCAnLXRuJywgJzgnLCAnLW1hJywgJzIwMCcsICctbWV0YWxfYmluZGluZycsICctaW1hZScsICc8aW5maWxlLm1hZT4nLCAnLW9tYWUnLCAnPG91dGZpbGUubWFlPic=

> <r_lp_tautomer_probability>
1

> <r_epik_Ionization_Penalty>
0.00317524

> <r_epik_Ionization_Penalty_Charging>
0.00191487

> <r_epik_Ionization_Penalty_Neutral>
0.00126037

> <r_epik_State_Penalty>
-0

> <r_epik_Charging_Adjusted_Penalty>
0.00191487

> <i_epik_Tot_Q>
1

> <i_epik_Tot_abs_Q>
1

> <r_epik_Metal_State_Penalty>
-0

> <b_epik_Metal_Only>
0

> <s_lp_Force_Field>
OPLS_2005

> <r_lp_Energy>
50.3895

> <b_lp_Chiralities_Consistent>
1

> <s_lp_Variant>
AV-unprocessed.smi:22-4

> <Gold.Version>
5.8.1

> <Gold.Id.Protein>
6NUR|6NUR_protein|mol2

> <Gold.PLP.Fitness>
50.3978

> <Gold.PLP.PLP>
-38.9163

> <Gold.PLP.part.hbond>
-3.4095

> <Gold.PLP.part.metal>
0.0000

> <Gold.PLP.part.buried>
-3.9855

> <Gold.PLP.part.nonpolar>
-31.7126

> <Gold.PLP.part.repulsive>
0.8635

> <Gold.PLP.ligand.clash>
0.0000

> <Gold.PLP.ligand.torsion>
0.4808

> <Gold.PLP.Chemscore.Hbond>
3.0000

> <Gold.PLP.Chemscore.CHOScore>
0.9773

> <Gold.PLP.Chemscore.Metal>
0.0000

> <Gold.Chemscore.Hbonds>
donor molecule, donor type, donor heavy atom, donor atom, acceptor molecule, acceptor atom, score
      L1  H     2    56       P1 10171  0.42

> <Gold.PLP.Chemscore.Internal.Correction>
0.5111

> <Gold.Rescore>
     Score         DG    S(hbond)    S(metal)    S(lipo)     H(rot)  DE(clash)    DE(int)     intcor
     11.00     -15.89       2.84        0.00      89.98       3.76       2.61       2.28       ----

> <Gold.Chemscore.Fitness>
10.9951

> <Gold.Chemscore.DG>
-15.8877

> <Gold.Chemscore.ZeroCoef>
-5.4800

> <Gold.Chemscore.Hbond>
2.8446

> <Gold.Chemscore.Metal>
0.0000

> <Gold.Chemscore.Lipo>
89.9829

> <Gold.Chemscore.Internal_Hbond>
0.0000

> <Gold.Chemscore.DEClash>
2.6145

> <Gold.Chemscore.DEInternal>
2.2780

> <Gold.Chemscore.Rot>
3.7583

> <Gold.Chemscore.Internal.Correction>
   9.000000E+99

> <Gold.Chemscore.Hbonds>
donor molecule, donor type, donor heavy atom, donor atom, acceptor molecule, acceptor atom, score
      L1  H     2    56       P1 10171  0.42

> <Gold.Chemscore.Hbond.Weighted>
-9.5010

> <Gold.Chemscore.Metal.Weighted>
-0.0000

> <Gold.Chemscore.Lipo.Weighted>
-10.5280

> <Gold.Chemscore.Internal_Hbond.Weighted>
0.0000

> <Gold.Chemscore.DEClash.Weighted>
2.6145

> <Gold.Chemscore.DEInternal.Weighted>
2.2780

> <Gold.Chemscore.Rot.Weighted>
9.6213

> <Gold.Chemscore.Internal.Correction.Weighted>
   9.000000E+99

> <Gold.Protein.RotatedTorsions>
[ 6907 6896 6895 6894 ] final   86.40 input  -60.11 | X-H torsion
[ 7974 7965 7964 7962 ] final   50.13 input  175.53 | X-H torsion
[ 8008 7997 7996 7995 ] final  -77.85 input   59.86 | X-H torsion
[ 10167 10162 10161 10158 ] final  -91.15 input  -65.29 | X-H torsion
[ 10718 10713 10712 10709 ] final  -46.32 input   66.30 | X-H torsion
[ 10763 10752 10751 10750 ] final -112.98 input  -60.55 | X-H torsion
[ 11005 11000 10999 10996 ] final   26.94 input  -57.11 | X-H torsion

> <Gold.Protein.ActiveResidues>
 VAL166  LYS551  ARG553  GLY616  TRP617  ASP618  TYR619  PRO620  LYS621  CYS622 
 ASP623  PHE694  ASN695  SER759  ASP760  ASP761  ALA762  ILE779  LEU786  VAL792 
 PHE793  MET794  SER795  GLU796  ALA797  LYS798  CYS799  TRP800  GLU811  SER814 

> <Gold.Protein.RotatedAtoms>
  152.5393  134.2437  159.8871 H   0  0  0  0  0  0  0  0  0  0  0  0  # atno 6907 bound_to 6896
  151.2403  133.4396  159.2614 H   0  0  0  0  0  0  0  0  0  0  0  0  # atno 6908 bound_to 6896
  151.0633  134.9764  159.8327 H   0  0  0  0  0  0  0  0  0  0  0  0  # atno 6909 bound_to 6896
  146.0042  139.4472  142.9996 H   0  0  0  0  0  0  0  0  0  0  0  0  # atno 7974 bound_to 7965
  154.5634  140.0704  156.8855 H   0  0  0  0  0  0  0  0  0  0  0  0  # atno 8008 bound_to 7997
  155.2768  140.3369  155.4243 H   0  0  0  0  0  0  0  0  0  0  0  0  # atno 8009 bound_to 7997
  156.2061  140.1740  156.7782 H   0  0  0  0  0  0  0  0  0  0  0  0  # atno 8010 bound_to 7997
  140.3478  143.2907  151.9761 H   0  0  0  0  0  0  0  0  0  0  0  0  # atno 10167 bound_to 10162
  156.2195  130.4165  149.9011 H   0  0  0  0  0  0  0  0  0  0  0  0  # atno 10718 bound_to 10713
  154.8375  135.4471  154.1278 H   0  0  0  0  0  0  0  0  0  0  0  0  # atno 10763 bound_to 10752
  153.2496  135.6925  153.7699 H   0  0  0  0  0  0  0  0  0  0  0  0  # atno 10764 bound_to 10752
  153.7017  135.3371  155.3202 H   0  0  0  0  0  0  0  0  0  0  0  0  # atno 10765 bound_to 10752
  140.3316  134.2431  155.7701 H   0  0  0  0  0  0  0  0  0  0  0  0  # atno 11005 bound_to 11000
  145.7441  140.9997  143.1285 LP  0  0  0  0  0  0  0  0  0  0  0  0  # atno 17320 bound_to 7965
  144.6930  139.9134  143.7464 LP  0  0  0  0  0  0  0  0  0  0  0  0  # atno 17321 bound_to 7965
  139.4831  144.6102  151.7448 LP  0  0  0  0  0  0  0  0  0  0  0  0  # atno 17342 bound_to 10162
  140.5248  144.0823  150.6034 LP  0  0  0  0  0  0  0  0  0  0  0  0  # atno 17343 bound_to 10162
  156.6663  130.8802  151.3555 LP  0  0  0  0  0  0  0  0  0  0  0  0  # atno 17370 bound_to 10713
  157.7080  130.9407  150.0994 LP  0  0  0  0  0  0  0  0  0  0  0  0  # atno 17371 bound_to 10713
  141.2062  133.7840  157.0191 LP  0  0  0  0  0  0  0  0  0  0  0  0  # atno 17394 bound_to 11000
  140.0856  134.9623  157.1694 LP  0  0  0  0  0  0  0  0  0  0  0  0  # atno 17395 bound_to 11000

$$$$
