AV-unprocessed.smi:1691|AV-procd|sdf|6777|dock5
  -GOLD-   22720 7533D 1   1.00000     0.00000
 Structure written by MMmdl.
 43 44  0  0  0  0  0  0  0  0  1 V2000
  146.7533  139.8005  157.4662 C   0  0  0  0  0  0  0  0  0  0  0  0
  146.5088  140.0027  155.9576 C   0  0  0  0  0  0  0  0  0  0  0  0
  145.0096  139.9188  155.6230 C   0  0  0  0  0  0  0  0  0  0  0  0
  147.3839  139.1520  154.9825 C   0  0  1  0  0  0  0  0  0  0  0  0
  146.9753  139.2915  153.4881 C   0  0  0  0  0  0  0  0  0  0  0  0
  147.0123  138.0223  152.7681 N   0  0  0  0  0  0  0  0  0  0  0  0
  145.9339  137.3454  152.3496 C   0  0  0  0  0  0  0  0  0  0  0  0
  144.7774  137.7238  152.5381 O   0  0  0  0  0  0  0  0  0  0  0  0
  146.2837  136.2198  151.7058 N   0  0  0  0  0  0  0  0  0  0  0  0
  145.4205  135.2619  151.1159 C   0  0  0  0  0  0  0  0  0  0  0  0
  145.7518  133.8962  150.9036 C   0  0  0  0  0  0  0  0  0  0  0  0
  144.7519  133.2389  150.3336 N   0  0  0  0  0  0  0  0  0  0  0  0
  143.7856  134.1721  150.1798 N   0  0  0  0  0  0  0  0  0  0  0  0
  144.1481  135.4181  150.6420 C   0  0  0  0  0  0  0  0  0  0  0  0
  148.8375  139.2151  155.2328 N   0  0  0  0  0  0  0  0  0  0  0  0
  149.3756  140.5499  155.4917 C   0  0  0  0  0  0  0  0  0  0  0  0
  150.8756  140.5017  155.8316 C   0  0  0  0  0  0  0  0  0  0  0  0
  151.5875  139.8558  154.7813 O   0  0  0  0  0  0  0  0  0  0  0  0
  151.1215  138.5331  154.5357 C   0  0  0  0  0  0  0  0  0  0  0  0
  149.6254  138.5733  154.1820 C   0  0  0  0  0  0  0  0  0  0  0  0
  142.8936  133.9456  149.7632 H   0  0  0  0  0  0  0  0  0  0  0  0
  146.3439  138.8632  157.8358 H   0  0  0  0  0  0  0  0  0  0  0  0
  146.2636  140.5923  158.0336 H   0  0  0  0  0  0  0  0  0  0  0  0
  147.8106  139.8385  157.7245 H   0  0  0  0  0  0  0  0  0  0  0  0
  146.7830  141.0407  155.7660 H   0  0  0  0  0  0  0  0  0  0  0  0
  144.6058  138.9290  155.8386 H   0  0  0  0  0  0  0  0  0  0  0  0
  144.8292  140.1306  154.5688 H   0  0  0  0  0  0  0  0  0  0  0  0
  144.4370  140.6410  156.2053 H   0  0  0  0  0  0  0  0  0  0  0  0
  147.1018  138.1322  155.2479 H   0  0  0  0  0  0  0  0  0  0  0  0
  145.9653  139.6903  153.3993 H   0  0  0  0  0  0  0  0  0  0  0  0
  147.6199  140.0007  152.9686 H   0  0  0  0  0  0  0  0  0  0  0  0
  147.9245  137.6380  152.5696 H   0  0  0  0  0  0  0  0  0  0  0  0
  147.2716  136.0290  151.6257 H   0  0  0  0  0  0  0  0  0  0  0  0
  146.6655  133.3708  151.1396 H   0  0  0  0  0  0  0  0  0  0  0  0
  143.4857  136.2693  150.5901 H   0  0  0  0  0  0  0  0  0  0  0  0
  149.2330  141.1886  154.6196 H   0  0  0  0  0  0  0  0  0  0  0  0
  148.8559  141.0238  156.3177 H   0  0  0  0  0  0  0  0  0  0  0  0
  151.2675  141.5109  155.9596 H   0  0  0  0  0  0  0  0  0  0  0  0
  151.0411  139.9724  156.7712 H   0  0  0  0  0  0  0  0  0  0  0  0
  151.6935  138.0996  153.7154 H   0  0  0  0  0  0  0  0  0  0  0  0
  151.2947  137.9089  155.4138 H   0  0  0  0  0  0  0  0  0  0  0  0
  149.2705  137.5555  154.0176 H   0  0  0  0  0  0  0  0  0  0  0  0
  149.5038  139.1045  153.2381 H   0  0  0  0  0  0  0  0  0  0  0  0
  1  2  1  0  0  0  0
  1 22  1  0  0  0  0
  1 23  1  0  0  0  0
  1 24  1  0  0  0  0
  2  3  1  0  0  0  0
  2  4  1  0  0  0  0
  2 25  1  0  0  0  0
  3 26  1  0  0  0  0
  3 27  1  0  0  0  0
  3 28  1  0  0  0  0
  4  5  1  0  0  0  0
  4 15  1  0  0  0  0
  4 29  1  0  0  0  0
  5  6  1  0  0  0  0
  5 30  1  0  0  0  0
  5 31  1  0  0  0  0
  6  7  1  0  0  0  0
  6 32  1  0  0  0  0
  7  8  2  0  0  0  0
  7  9  1  0  0  0  0
  9 10  1  0  0  0  0
  9 33  1  0  0  0  0
 10 14  2  0  0  0  0
 10 11  1  0  0  0  0
 11 12  2  0  0  0  0
 11 34  1  0  0  0  0
 12 13  1  0  0  0  0
 13 21  1  0  0  0  0
 13 14  1  0  0  0  0
 14 35  1  0  0  0  0
 15 20  1  0  0  0  0
 15 16  1  0  0  0  0
 16 17  1  0  0  0  0
 16 36  1  0  0  0  0
 16 37  1  0  0  0  0
 17 18  1  0  0  0  0
 17 38  1  0  0  0  0
 17 39  1  0  0  0  0
 18 19  1  0  0  0  0
 19 20  1  0  0  0  0
 19 40  1  0  0  0  0
 19 41  1  0  0  0  0
 20 42  1  0  0  0  0
 20 43  1  0  0  0  0
M  END
> <s_m_source_file>
AV-unprocessed.smi

> <i_m_source_file_index>
1691

> <i_lp_mmshare_version>
43012

> <i_f3d_flags>
0

> <s_epik_input>
W0NIMl0xW0NIMl1PW0NIMl1bQ0gyXU4xW0NASF0oW0NIXShbQ0gzXSlbQ0gzXSlbQ0gyXVtOSF1DKD1PKVtOSF1jMltjSF1uW25IXVtjSF0y

> <s_epik_cmdline>
J2VwaWtfcHl0aG9uJywgJy1waCcsICc3LjAnLCAnLXRuJywgJzgnLCAnLW1hJywgJzIwMCcsICctbWV0YWxfYmluZGluZycsICctaW1hZScsICc8aW5maWxlLm1hZT4nLCAnLW9tYWUnLCAnPG91dGZpbGUubWFlPic=

> <r_lp_tautomer_probability>
0.5

> <r_epik_Ionization_Penalty>
0.462189

> <r_epik_Ionization_Penalty_Charging>
0

> <r_epik_Ionization_Penalty_Neutral>
0.462189

> <r_epik_State_Penalty>
0.465733

> <r_epik_Charging_Adjusted_Penalty>
0.465733

> <i_epik_Tot_Q>
0

> <i_epik_Tot_abs_Q>
0

> <r_epik_Metal_State_Penalty>
0.465732

> <b_epik_Metal_Only>
0

> <s_lp_Force_Field>
OPLS_2005

> <r_lp_Energy>
41.1245

> <b_lp_Chiralities_Consistent>
1

> <s_lp_Variant>
AV-unprocessed.smi:1691-4

> <Gold.Version>
5.8.1

> <Gold.Id.Protein>
6NUR|6NUR_protein|mol2

> <Gold.PLP.Fitness>
40.2563

> <Gold.PLP.PLP>
-27.3600

> <Gold.PLP.part.hbond>
-3.8867

> <Gold.PLP.part.metal>
0.0000

> <Gold.PLP.part.buried>
-6.5319

> <Gold.PLP.part.nonpolar>
-20.0476

> <Gold.PLP.part.repulsive>
1.9236

> <Gold.PLP.ligand.clash>
0.0000

> <Gold.PLP.ligand.torsion>
1.1085

> <Gold.PLP.Chemscore.Hbond>
3.9040

> <Gold.PLP.Chemscore.CHOScore>
1.0000

> <Gold.PLP.Chemscore.Metal>
0.0000

> <Gold.Chemscore.Hbonds>
donor molecule, donor type, donor heavy atom, donor atom, acceptor molecule, acceptor atom, score
      L1  H     6    32       P1  7948  0.98
      L1  H     9    33       P1  7948  1.00
      L1  H    13    21       P1 10186  0.94
      P1  H  7989  7998       L1    18  1.00
      L1  C    14    35       P1 10171  1.00

> <Gold.PLP.Chemscore.Internal.Correction>
0.4014

> <Gold.Rescore>
     Score         DG    S(hbond)    S(metal)    S(lipo)     H(rot)  DE(clash)    DE(int)     intcor
     16.69     -19.24       3.61        0.00      53.68       1.79       0.47       2.07       ----

> <Gold.Chemscore.Fitness>
16.6918

> <Gold.Chemscore.DG>
-19.2360

> <Gold.Chemscore.ZeroCoef>
-5.4800

> <Gold.Chemscore.Hbond>
3.6096

> <Gold.Chemscore.Metal>
0.0000

> <Gold.Chemscore.Lipo>
53.6786

> <Gold.Chemscore.Internal_Hbond>
0.0000

> <Gold.Chemscore.DEClash>
0.4741

> <Gold.Chemscore.DEInternal>
2.0701

> <Gold.Chemscore.Rot>
1.7893

> <Gold.Chemscore.Internal.Correction>
   9.000000E+99

> <Gold.Chemscore.Hbonds>
donor molecule, donor type, donor heavy atom, donor atom, acceptor molecule, acceptor atom, score
      L1  H     6    32       P1  7948  0.93
      L1  H     9    33       P1  7948  0.99
      L1  H    13    21       P1 10186  0.90
      P1  H  7989  7998       L1    18  0.65

> <Gold.Chemscore.Hbond.Weighted>
-12.0562

> <Gold.Chemscore.Metal.Weighted>
-0.0000

> <Gold.Chemscore.Lipo.Weighted>
-6.2804

> <Gold.Chemscore.Internal_Hbond.Weighted>
0.0000

> <Gold.Chemscore.DEClash.Weighted>
0.4741

> <Gold.Chemscore.DEInternal.Weighted>
2.0701

> <Gold.Chemscore.Rot.Weighted>
4.5805

> <Gold.Chemscore.Internal.Correction.Weighted>
   9.000000E+99

> <Gold.Protein.RotatedTorsions>
[ 6907 6896 6895 6894 ] final  -37.79 input  -60.11 | X-H torsion
[ 7974 7965 7964 7962 ] final   50.14 input  175.53 | X-H torsion
[ 8008 7997 7996 7995 ] final   41.33 input   59.86 | X-H torsion
[ 10167 10162 10161 10158 ] final   56.19 input  -65.29 | X-H torsion
[ 10718 10713 10712 10709 ] final   53.48 input   66.30 | X-H torsion
[ 10763 10752 10751 10750 ] final  -51.71 input  -60.55 | X-H torsion
[ 11005 11000 10999 10996 ] final -138.03 input  -57.11 | X-H torsion

> <Gold.Protein.ActiveResidues>
 VAL166  LYS551  ARG553  GLY616  TRP617  ASP618  TYR619  PRO620  LYS621  CYS622 
 ASP623  PHE694  ASN695  SER759  ASP760  ASP761  ALA762  ILE779  LEU786  VAL792 
 PHE793  MET794  SER795  GLU796  ALA797  LYS798  CYS799  TRP800  GLU811  SER814 

> <Gold.Protein.RotatedAtoms>
  151.0104  134.9392  159.8003 H   0  0  0  0  0  0  0  0  0  0  0  0  # atno 6907 bound_to 6896
  152.5301  134.3036  159.9097 H   0  0  0  0  0  0  0  0  0  0  0  0  # atno 6908 bound_to 6896
  151.3042  133.4067  159.2676 H   0  0  0  0  0  0  0  0  0  0  0  0  # atno 6909 bound_to 6896
  146.0041  139.4470  142.9997 H   0  0  0  0  0  0  0  0  0  0  0  0  # atno 7974 bound_to 7965
  155.2678  140.3364  155.4267 H   0  0  0  0  0  0  0  0  0  0  0  0  # atno 8008 bound_to 7997
  156.2146  140.1784  156.7660 H   0  0  0  0  0  0  0  0  0  0  0  0  # atno 8009 bound_to 7997
  154.5735  140.0666  156.8984 H   0  0  0  0  0  0  0  0  0  0  0  0  # atno 8010 bound_to 7997
  140.2113  144.3885  150.6487 H   0  0  0  0  0  0  0  0  0  0  0  0  # atno 10167 bound_to 10162
  157.5170  130.8539  149.8509 H   0  0  0  0  0  0  0  0  0  0  0  0  # atno 10718 bound_to 10713
  154.1310  135.6520  153.4922 H   0  0  0  0  0  0  0  0  0  0  0  0  # atno 10763 bound_to 10752
  153.0195  135.5293  154.7001 H   0  0  0  0  0  0  0  0  0  0  0  0  # atno 10764 bound_to 10752
  154.6236  135.2967  155.0268 H   0  0  0  0  0  0  0  0  0  0  0  0  # atno 10765 bound_to 10752
  140.8654  134.2117  157.4683 H   0  0  0  0  0  0  0  0  0  0  0  0  # atno 11005 bound_to 11000
  145.7443  140.9996  143.1284 LP  0  0  0  0  0  0  0  0  0  0  0  0  # atno 17320 bound_to 7965
  144.6929  139.9137  143.7464 LP  0  0  0  0  0  0  0  0  0  0  0  0  # atno 17321 bound_to 7965
  140.6321  143.2189  151.6473 LP  0  0  0  0  0  0  0  0  0  0  0  0  # atno 17342 bound_to 10162
  139.5179  144.3302  152.0833 LP  0  0  0  0  0  0  0  0  0  0  0  0  # atno 17343 bound_to 10162
  156.0327  130.3760  150.1643 LP  0  0  0  0  0  0  0  0  0  0  0  0  # atno 17370 bound_to 10713
  156.9832  130.9870  151.3432 LP  0  0  0  0  0  0  0  0  0  0  0  0  # atno 17371 bound_to 10713
  139.8709  134.9749  156.4865 LP  0  0  0  0  0  0  0  0  0  0  0  0  # atno 17394 bound_to 11000
  140.8634  133.8042  155.9289 LP  0  0  0  0  0  0  0  0  0  0  0  0  # atno 17395 bound_to 11000

$$$$
