AV-unprocessed.smi:1550|AV-procd|sdf|6231|dock7
  -GOLD-   22720 6413D 1   1.00000     0.00000
 Structure written by MMmdl.
 42 43  0  0  0  0  0  0  0  0  2 V2000
  151.2775  138.3945  154.2485 C   0  0  0  0  0  0  0  0  0  0  0  0
  151.5281  138.1779  155.7482 C   0  0  1  0  0  0  0  0  0  0  0  0
  152.3585  137.0277  155.8827 O   0  0  0  0  0  0  0  0  0  0  0  0
  152.2117  136.3083  157.1023 C   0  0  0  0  0  0  0  0  0  0  0  0
  151.2374  135.1450  156.8775 C   0  0  1  0  0  0  0  0  0  0  0  0
  151.5315  134.3827  155.5700 C   0  0  0  0  0  0  0  0  0  0  0  0
  150.5976  133.1761  155.4263 C   0  0  0  0  0  0  0  0  0  0  0  0
  150.6708  132.3142  156.6908 C   0  0  0  0  0  0  0  0  0  0  0  0
  150.4165  133.1751  157.9384 C   0  0  0  0  0  0  0  0  0  0  0  0
  151.3480  134.2520  157.9841 O   0  0  0  0  0  0  0  0  0  0  0  0
  152.2088  139.4018  156.3824 C   0  0  0  0  0  0  0  0  0  0  0  0
  153.2116  139.8771  155.8501 O   0  0  0  0  0  0  0  0  0  0  0  0
  151.6470  139.8446  157.5244 N   0  0  0  0  0  0  0  0  0  0  0  0
  152.0108  140.9246  158.3471 C   0  0  0  0  0  0  0  0  0  0  0  0
  151.2237  142.0036  158.6147 C   0  0  0  0  0  0  0  0  0  0  0  0
  151.6565  143.0883  159.4870 C   0  0  0  0  0  0  0  0  0  0  0  0
  150.8489  144.3521  159.7247 C   0  0  0  0  0  0  0  0  0  0  0  0
  151.4297  145.3833  159.1128 F   0  0  0  0  0  0  0  0  0  0  0  0
  149.6110  144.2278  159.2452 F   0  0  0  0  0  0  0  0  0  0  0  0
  150.7700  144.6313  161.0258 F   0  0  0  0  0  0  0  0  0  0  0  0
  152.9301  142.8861  159.9821 C   0  0  0  0  0  0  0  0  0  0  0  0
  153.7605  141.8377  159.7916 N   0  5  0  0  0  0  0  0  0  0  0  0
  153.3456  140.8295  158.9740 C   0  0  0  0  0  0  0  0  0  0  0  0
  154.0554  139.8480  158.7510 O   0  0  0  0  0  0  0  0  0  0  0  0
  150.6574  139.2745  154.0738 H   0  0  0  0  0  0  0  0  0  0  0  0
  150.7607  137.5374  153.8162 H   0  0  0  0  0  0  0  0  0  0  0  0
  152.2108  138.5265  153.6996 H   0  0  0  0  0  0  0  0  0  0  0  0
  150.5673  137.9903  156.2321 H   0  0  0  0  0  0  0  0  0  0  0  0
  153.1659  135.9293  157.4705 H   0  0  0  0  0  0  0  0  0  0  0  0
  151.8135  136.9795  157.8644 H   0  0  0  0  0  0  0  0  0  0  0  0
  150.2209  135.5417  156.8549 H   0  0  0  0  0  0  0  0  0  0  0  0
  151.4190  135.0446  154.7107 H   0  0  0  0  0  0  0  0  0  0  0  0
  152.5680  134.0425  155.5680 H   0  0  0  0  0  0  0  0  0  0  0  0
  149.5738  133.5199  155.2744 H   0  0  0  0  0  0  0  0  0  0  0  0
  150.8663  132.5888  154.5480 H   0  0  0  0  0  0  0  0  0  0  0  0
  149.9456  131.5018  156.6368 H   0  0  0  0  0  0  0  0  0  0  0  0
  151.6559  131.8511  156.7625 H   0  0  0  0  0  0  0  0  0  0  0  0
  149.3963  133.5621  157.9431 H   0  0  0  0  0  0  0  0  0  0  0  0
  150.5311  132.5723  158.8394 H   0  0  0  0  0  0  0  0  0  0  0  0
  150.8648  139.3082  157.8712 H   0  0  0  0  0  0  0  0  0  0  0  0
  150.2333  142.0854  158.1995 H   0  0  0  0  0  0  0  0  0  0  0  0
  153.3471  143.6911  160.6242 H   0  0  0  0  0  0  0  0  0  0  0  0
  1  2  1  0  0  0  0
  1 25  1  0  0  0  0
  1 26  1  0  0  0  0
  1 27  1  0  0  0  0
  2  3  1  0  0  0  0
  2 11  1  0  0  0  0
  2 28  1  0  0  0  0
  3  4  1  0  0  0  0
  4  5  1  0  0  0  0
  4 29  1  0  0  0  0
  4 30  1  0  0  0  0
  5 10  1  0  0  0  0
  5  6  1  0  0  0  0
  5 31  1  0  0  0  0
  6  7  1  0  0  0  0
  6 32  1  0  0  0  0
  6 33  1  0  0  0  0
  7  8  1  0  0  0  0
  7 34  1  0  0  0  0
  7 35  1  0  0  0  0
  8  9  1  0  0  0  0
  8 36  1  0  0  0  0
  8 37  1  0  0  0  0
  9 10  1  0  0  0  0
  9 38  1  0  0  0  0
  9 39  1  0  0  0  0
 11 12  2  0  0  0  0
 11 13  1  0  0  0  0
 13 14  1  0  0  0  0
 13 40  1  0  0  0  0
 14 23  1  0  0  0  0
 14 15  2  0  0  0  0
 15 16  1  0  0  0  0
 15 41  1  0  0  0  0
 16 17  1  0  0  0  0
 16 21  2  0  0  0  0
 17 18  1  0  0  0  0
 17 19  1  0  0  0  0
 17 20  1  0  0  0  0
 21 22  1  0  0  0  0
 21 42  1  0  0  0  0
 22 23  1  0  0  0  0
 23 24  2  0  0  0  0
M  CHG  1  22  -1
M  END
> <s_m_source_file>
AV-unprocessed.smi

> <i_m_source_file_index>
1550

> <i_lp_mmshare_version>
43012

> <i_f3d_flags>
0

> <s_epik_input>
TzFbQ0gyXVtDSDJdW0NIMl1bQ0gyXVtDQEhdMVtDSDJdT1tDQEBIXShbQ0gzXSlDKD1PKVtOSF1jMltjSF1jKEMoRikoRilGKVtjSF1bbkhdYzI9Tw==

> <s_epik_cmdline>
J2VwaWtfcHl0aG9uJywgJy1waCcsICc3LjAnLCAnLXRuJywgJzgnLCAnLW1hJywgJzIwMCcsICctbWV0YWxfYmluZGluZycsICctaW1hZScsICc8aW5maWxlLm1hZT4nLCAnLW9tYWUnLCAnPG91dGZpbGUubWFlPic=

> <r_epik_Ionization_Penalty>
2.54933

> <r_epik_Ionization_Penalty_Charging>
0.0583423

> <r_epik_Ionization_Penalty_Neutral>
2.49099

> <r_epik_State_Penalty>
2.65532

> <r_epik_Charging_Adjusted_Penalty>
2.71366

> <i_epik_Tot_Q>
-1

> <i_epik_Tot_abs_Q>
1

> <r_epik_Metal_State_Penalty>
0.516364

> <b_epik_Metal_Only>
0

> <s_lp_Force_Field>
OPLS_2005

> <r_lp_Energy>
27.8976

> <b_lp_Chiralities_Consistent>
1

> <s_lp_Variant>
AV-unprocessed.smi:1550-8

> <Gold.Version>
5.8.1

> <Gold.Id.Protein>
6NUR|6NUR_protein|mol2

> <Gold.PLP.Fitness>
49.2908

> <Gold.PLP.PLP>
-42.9713

> <Gold.PLP.part.hbond>
-4.0000

> <Gold.PLP.part.metal>
0.0000

> <Gold.PLP.part.buried>
-6.1430

> <Gold.PLP.part.nonpolar>
-33.0103

> <Gold.PLP.part.repulsive>
0.1299

> <Gold.PLP.ligand.clash>
0.0000

> <Gold.PLP.ligand.torsion>
1.7005

> <Gold.PLP.Chemscore.Hbond>
3.1896

> <Gold.PLP.Chemscore.CHOScore>
0.0000

> <Gold.PLP.Chemscore.Metal>
0.0000

> <Gold.Chemscore.Hbonds>
donor molecule, donor type, donor heavy atom, donor atom, acceptor molecule, acceptor atom, score
      P1  H  7997  8008       L1    12  0.44
      P1  H  7997  8010       L1    24  0.80
      P1  H 10752 10765       L1     3  0.40

> <Gold.PLP.Chemscore.Internal.Correction>
0.1517

> <Gold.Rescore>
     Score         DG    S(hbond)    S(metal)    S(lipo)     H(rot)  DE(clash)    DE(int)     intcor
     17.90     -19.66       2.72        0.00      83.53       1.82       0.04       1.71       ----

> <Gold.Chemscore.Fitness>
17.9044

> <Gold.Chemscore.DG>
-19.6586

> <Gold.Chemscore.ZeroCoef>
-5.4800

> <Gold.Chemscore.Hbond>
2.7167

> <Gold.Chemscore.Metal>
0.0000

> <Gold.Chemscore.Lipo>
83.5316

> <Gold.Chemscore.Internal_Hbond>
0.0000

> <Gold.Chemscore.DEClash>
0.0420

> <Gold.Chemscore.DEInternal>
1.7121

> <Gold.Chemscore.Rot>
1.8236

> <Gold.Chemscore.Internal.Correction>
   9.000000E+99

> <Gold.Chemscore.Hbonds>
donor molecule, donor type, donor heavy atom, donor atom, acceptor molecule, acceptor atom, score
      P1  H  7997  8008       L1    12  0.44
      P1  H  7997  8010       L1    24  0.72
      P1  H 10752 10765       L1     3  0.23

> <Gold.Chemscore.Hbond.Weighted>
-9.0738

> <Gold.Chemscore.Metal.Weighted>
-0.0000

> <Gold.Chemscore.Lipo.Weighted>
-9.7732

> <Gold.Chemscore.Internal_Hbond.Weighted>
0.0000

> <Gold.Chemscore.DEClash.Weighted>
0.0420

> <Gold.Chemscore.DEInternal.Weighted>
1.7121

> <Gold.Chemscore.Rot.Weighted>
4.6684

> <Gold.Chemscore.Internal.Correction.Weighted>
   9.000000E+99

> <Gold.Protein.RotatedTorsions>
[ 6907 6896 6895 6894 ] final -129.15 input  -60.11 | X-H torsion
[ 7974 7965 7964 7962 ] final  -22.41 input  175.53 | X-H torsion
[ 8008 7997 7996 7995 ] final   -7.90 input   59.86 | X-H torsion
[ 10167 10162 10161 10158 ] final  171.86 input  -65.29 | X-H torsion
[ 10718 10713 10712 10709 ] final  -52.35 input   66.30 | X-H torsion
[ 10763 10752 10751 10750 ] final  166.98 input  -60.55 | X-H torsion
[ 11005 11000 10999 10996 ] final   72.64 input  -57.11 | X-H torsion

> <Gold.Protein.ActiveResidues>
 VAL166  LYS551  ARG553  GLY616  TRP617  ASP618  TYR619  PRO620  LYS621  CYS622 
 ASP623  PHE694  ASN695  SER759  ASP760  ASP761  ALA762  ILE779  LEU786  VAL792 
 PHE793  MET794  SER795  GLU796  ALA797  LYS798  CYS799  TRP800  GLU811  SER814 

> <Gold.Protein.RotatedAtoms>
  150.9256  133.6828  159.2822 H   0  0  0  0  0  0  0  0  0  0  0  0  # atno 6907 bound_to 6896
  151.4268  135.1003  159.9640 H   0  0  0  0  0  0  0  0  0  0  0  0  # atno 6908 bound_to 6896
  152.5001  133.8695  159.7346 H   0  0  0  0  0  0  0  0  0  0  0  0  # atno 6909 bound_to 6896
  146.1677  140.4476  142.8545 H   0  0  0  0  0  0  0  0  0  0  0  0  # atno 7974 bound_to 7965
  154.5793  140.2395  155.8077 H   0  0  0  0  0  0  0  0  0  0  0  0  # atno 8008 bound_to 7997
  156.2167  140.3010  155.9812 H   0  0  0  0  0  0  0  0  0  0  0  0  # atno 8009 bound_to 7997
  155.2570  140.0413  157.2983 H   0  0  0  0  0  0  0  0  0  0  0  0  # atno 8010 bound_to 7997
  139.5059  144.3438  151.9991 H   0  0  0  0  0  0  0  0  0  0  0  0  # atno 10167 bound_to 10162
  156.1629  130.4149  149.9765 H   0  0  0  0  0  0  0  0  0  0  0  0  # atno 10718 bound_to 10713
  154.3470  135.2753  155.2392 H   0  0  0  0  0  0  0  0  0  0  0  0  # atno 10763 bound_to 10752
  154.4638  135.5900  153.6277 H   0  0  0  0  0  0  0  0  0  0  0  0  # atno 10764 bound_to 10752
  152.9853  135.6071  154.3677 H   0  0  0  0  0  0  0  0  0  0  0  0  # atno 10765 bound_to 10752
  139.9481  134.7277  156.0930 H   0  0  0  0  0  0  0  0  0  0  0  0  # atno 11005 bound_to 11000
  144.8116  140.6396  143.6411 LP  0  0  0  0  0  0  0  0  0  0  0  0  # atno 17320 bound_to 7965
  145.4424  139.1534  143.3963 LP  0  0  0  0  0  0  0  0  0  0  0  0  # atno 17321 bound_to 7965
  140.2876  144.3790  150.6099 LP  0  0  0  0  0  0  0  0  0  0  0  0  # atno 17342 bound_to 10162
  140.5971  143.2167  151.7144 LP  0  0  0  0  0  0  0  0  0  0  0  0  # atno 17343 bound_to 10162
  156.7589  130.9143  151.3640 LP  0  0  0  0  0  0  0  0  0  0  0  0  # atno 17370 bound_to 10713
  157.6746  130.9082  150.0120 LP  0  0  0  0  0  0  0  0  0  0  0  0  # atno 17371 bound_to 10713
  141.1136  133.6635  156.3040 LP  0  0  0  0  0  0  0  0  0  0  0  0  # atno 17394 bound_to 11000
  140.5786  134.5768  157.5474 LP  0  0  0  0  0  0  0  0  0  0  0  0  # atno 17395 bound_to 11000

$$$$
