AV-unprocessed.smi:54|AV-procd|sdf|549|dock6
  -GOLD-   2262016443D 1   1.00000     0.00000
 Structure written by MMmdl.
 43 45  0  0  0  0  0  0  0  0  2 V2000
  147.3615  134.1177  162.2979 C   0  0  0  0  0  0  0  0  0  0  0  0
  146.8151  134.9533  161.1281 C   0  0  0  0  0  0  0  0  0  0  0  0
  146.6911  134.1093  159.8490 C   0  0  0  0  0  0  0  0  0  0  0  0
  147.6954  136.1870  160.8820 C   0  0  0  0  0  0  0  0  0  0  0  0
  147.4946  137.2088  161.5423 O   0  0  0  0  0  0  0  0  0  0  0  0
  148.6542  136.0341  159.9421 N   0  0  0  0  0  0  0  0  0  0  0  0
  149.6064  136.9586  159.4992 C   0  0  0  0  0  0  0  0  0  0  0  0
  149.1288  137.8164  158.6306 N   0  0  0  0  0  0  0  0  0  0  0  0
  150.0692  138.7445  158.2244 C   0  0  0  0  0  0  0  0  0  0  0  0
  151.3754  138.8367  158.6210 C   0  0  0  0  0  0  0  0  0  0  0  0
  152.0313  139.8749  157.9724 N   0  0  0  0  0  0  0  0  0  0  0  0
  151.0679  140.3703  157.1986 C   0  0  0  0  0  0  0  0  0  0  0  0
  149.8604  139.7778  157.3141 N   0  0  0  0  0  0  0  0  0  0  0  0
  148.6083  140.0863  156.5434 C   0  0  2  0  0  0  0  0  0  0  0  0
  148.2810  138.9755  155.7567 O   0  0  0  0  0  0  0  0  0  0  0  0
  148.6687  139.1835  154.4020 C   0  0  2  0  0  0  0  0  0  0  0  0
  150.1126  138.6790  154.1796 C   0  0  0  0  0  0  0  0  0  0  0  0
  150.1638  137.2676  154.2185 O   0  0  0  0  0  0  0  0  0  0  0  0
  148.4393  140.6905  154.2263 C   0  0  2  0  0  0  0  0  0  0  0  0
  149.2157  141.2508  153.1859 O   0  0  0  0  0  0  0  0  0  0  0  0
  148.8160  141.2758  155.5831 C   0  0  1  0  0  0  0  0  0  0  0  0
  147.9541  142.3523  155.8943 O   0  0  0  0  0  0  0  0  0  0  0  0
  151.8489  137.8410  159.6108 C   0  0  0  0  0  0  0  0  0  0  0  0
  153.0155  137.8881  159.9963 O   0  0  0  0  0  0  0  0  0  0  0  0
  150.9156  136.9306  160.0195 N   0  5  0  0  0  0  0  0  0  0  0  0
  147.8565  140.2522  157.3162 H   0  0  0  0  0  0  0  0  0  0  0  0
  147.9915  138.6132  153.7648 H   0  0  0  0  0  0  0  0  0  0  0  0
  147.3812  140.8579  154.0178 H   0  0  0  0  0  0  0  0  0  0  0  0
  149.8584  141.5981  155.5939 H   0  0  0  0  0  0  0  0  0  0  0  0
  147.4653  134.7204  163.2010 H   0  0  0  0  0  0  0  0  0  0  0  0
  148.3391  133.6932  162.0664 H   0  0  0  0  0  0  0  0  0  0  0  0
  146.6906  133.2909  162.5326 H   0  0  0  0  0  0  0  0  0  0  0  0
  145.8149  135.2934  161.4016 H   0  0  0  0  0  0  0  0  0  0  0  0
  146.3144  134.7046  159.0160 H   0  0  0  0  0  0  0  0  0  0  0  0
  145.9998  133.2792  159.9963 H   0  0  0  0  0  0  0  0  0  0  0  0
  147.6522  133.6890  159.5503 H   0  0  0  0  0  0  0  0  0  0  0  0
  148.7294  135.1027  159.5605 H   0  0  0  0  0  0  0  0  0  0  0  0
  151.2528  141.1923  156.5234 H   0  0  0  0  0  0  0  0  0  0  0  0
  150.5283  139.0410  153.2388 H   0  0  0  0  0  0  0  0  0  0  0  0
  150.7586  139.0422  154.9785 H   0  0  0  0  0  0  0  0  0  0  0  0
  149.4968  136.9604  154.8135 H   0  0  0  0  0  0  0  0  0  0  0  0
  149.4219  140.5678  152.5660 H   0  0  0  0  0  0  0  0  0  0  0  0
  148.4635  143.1477  155.9120 H   0  0  0  0  0  0  0  0  0  0  0  0
  1  2  1  0  0  0  0
  1 30  1  0  0  0  0
  1 31  1  0  0  0  0
  1 32  1  0  0  0  0
  2  3  1  0  0  0  0
  2  4  1  0  0  0  0
  2 33  1  0  0  0  0
  3 34  1  0  0  0  0
  3 35  1  0  0  0  0
  3 36  1  0  0  0  0
  4  5  2  0  0  0  0
  4  6  1  0  0  0  0
  6 37  1  0  0  0  0
  6  7  1  0  0  0  0
  7 25  1  0  0  0  0
  7  8  2  0  0  0  0
  8  9  1  0  0  0  0
  9 13  1  0  0  0  0
  9 10  2  0  0  0  0
 10 11  1  0  0  0  0
 10 23  1  0  0  0  0
 11 12  2  0  0  0  0
 12 13  1  0  0  0  0
 12 38  1  0  0  0  0
 13 14  1  0  0  0  0
 14 26  1  0  0  0  0
 14 21  1  0  0  0  0
 14 15  1  0  0  0  0
 15 16  1  0  0  0  0
 16 27  1  0  0  0  0
 16 17  1  0  0  0  0
 16 19  1  0  0  0  0
 17 18  1  0  0  0  0
 17 39  1  0  0  0  0
 17 40  1  0  0  0  0
 18 41  1  0  0  0  0
 19 28  1  0  0  0  0
 19 20  1  0  0  0  0
 19 21  1  0  0  0  0
 20 42  1  0  0  0  0
 21 29  1  0  0  0  0
 21 22  1  0  0  0  0
 22 43  1  0  0  0  0
 23 24  2  0  0  0  0
 23 25  1  0  0  0  0
M  CHG  1  25  -1
M  END
> <s_m_source_file>
AV-unprocessed.smi

> <i_m_source_file_index>
54

> <i_lp_mmshare_version>
43012

> <i_f3d_flags>
0

> <s_epik_input>
W0NIM11bQ0hdKFtDSDNdKUMoPU8pW05IXWMobjEpW25IXWMoPU8pYyhjMTIpbltjSF1uMltDQEBIXTNPW0NASF0oW0NIMl1bT0hdKVtDQEBIXShbT0hdKVtDQEhdM1tPSF0=

> <s_epik_cmdline>
J2VwaWtfcHl0aG9uJywgJy1waCcsICc3LjAnLCAnLXRuJywgJzgnLCAnLW1hJywgJzIwMCcsICctbWV0YWxfYmluZGluZycsICctaW1hZScsICc8aW5maWxlLm1hZT4nLCAnLW9tYWUnLCAnPG91dGZpbGUubWFlPic=

> <r_lp_tautomer_probability>
0.85571

> <r_epik_Ionization_Penalty>
1.75936

> <r_epik_Ionization_Penalty_Charging>
4.55893e-11

> <r_epik_Ionization_Penalty_Neutral>
1.75936

> <r_epik_State_Penalty>
1.72072

> <r_epik_Charging_Adjusted_Penalty>
1.72072

> <i_epik_Tot_Q>
-1

> <i_epik_Tot_abs_Q>
1

> <r_epik_Metal_State_Penalty>
0.400338

> <b_epik_Metal_Only>
1

> <s_epik_Chemistry_Notes>
This compound contains an acetal/aminal-like group ( X-CH(R)-Y where X, Y are N, S, or O) that may be acid/base labile, releasing an aldehyde.

> <s_lp_Force_Field>
OPLS_2005

> <r_lp_Energy>
58.7514

> <b_lp_Chiralities_Consistent>
1

> <s_lp_Variant>
AV-unprocessed.smi:54-21

> <Gold.Version>
5.8.1

> <Gold.Id.Protein>
6NUR|6NUR_protein|mol2

> <Gold.PLP.Fitness>
51.1308

> <Gold.PLP.PLP>
-34.5375

> <Gold.PLP.part.hbond>
-7.9997

> <Gold.PLP.part.metal>
0.0000

> <Gold.PLP.part.buried>
-5.4610

> <Gold.PLP.part.nonpolar>
-22.8978

> <Gold.PLP.part.repulsive>
0.1936

> <Gold.PLP.ligand.clash>
0.0000

> <Gold.PLP.ligand.torsion>
1.5245

> <Gold.PLP.Chemscore.Hbond>
6.5198

> <Gold.PLP.Chemscore.CHOScore>
0.0000

> <Gold.PLP.Chemscore.Metal>
0.0000

> <Gold.Chemscore.Hbonds>
donor molecule, donor type, donor heavy atom, donor atom, acceptor molecule, acceptor atom, score
      L1  H    20    42       P1  7957  0.94
      L1  H    22    43       P1  8028  1.00
      P1  H  6896  6908       L1    25  2.00
      P1  H  6931  6943       L1     5  0.93
      P1  H  6934  6947       L1     5  0.85
      P1  H  8011  8017       L1    20  0.75

> <Gold.PLP.Chemscore.Internal.Correction>
0.0830

> <Gold.Rescore>
     Score         DG    S(hbond)    S(metal)    S(lipo)     H(rot)  DE(clash)    DE(int)     intcor
     14.56     -16.17       4.72        0.00      44.49       4.02       0.06       1.54       ----

> <Gold.Chemscore.Fitness>
14.5617

> <Gold.Chemscore.DG>
-16.1691

> <Gold.Chemscore.ZeroCoef>
-5.4800

> <Gold.Chemscore.Hbond>
4.7225

> <Gold.Chemscore.Metal>
0.0000

> <Gold.Chemscore.Lipo>
44.4890

> <Gold.Chemscore.Internal_Hbond>
0.0000

> <Gold.Chemscore.DEClash>
0.0631

> <Gold.Chemscore.DEInternal>
1.5443

> <Gold.Chemscore.Rot>
4.0192

> <Gold.Chemscore.Internal.Correction>
   9.000000E+99

> <Gold.Chemscore.Hbonds>
donor molecule, donor type, donor heavy atom, donor atom, acceptor molecule, acceptor atom, score
      L1  H    20    42       P1  7957  0.87
      L1  H    22    43       P1  8028  0.95
      P1  H  6896  6908       L1    25  0.38
      P1  H  6931  6943       L1     5  0.84
      P1  H  6934  6947       L1     5  0.83
      P1  H  8011  8017       L1    20  0.09

> <Gold.Chemscore.Hbond.Weighted>
-15.7732

> <Gold.Chemscore.Metal.Weighted>
-0.0000

> <Gold.Chemscore.Lipo.Weighted>
-5.2052

> <Gold.Chemscore.Internal_Hbond.Weighted>
0.0000

> <Gold.Chemscore.DEClash.Weighted>
0.0631

> <Gold.Chemscore.DEInternal.Weighted>
1.5443

> <Gold.Chemscore.Rot.Weighted>
10.2893

> <Gold.Chemscore.Internal.Correction.Weighted>
   9.000000E+99

> <Gold.Protein.RotatedTorsions>
[ 6907 6896 6895 6894 ] final -132.37 input  -60.11 | X-H torsion
[ 7974 7965 7964 7962 ] final   55.91 input  175.53 | X-H torsion
[ 8008 7997 7996 7995 ] final -149.65 input   59.86 | X-H torsion
[ 10167 10162 10161 10158 ] final  149.77 input  -65.29 | X-H torsion
[ 10718 10713 10712 10709 ] final  161.22 input   66.30 | X-H torsion
[ 10763 10752 10751 10750 ] final  -28.09 input  -60.55 | X-H torsion
[ 11005 11000 10999 10996 ] final  -79.88 input  -57.11 | X-H torsion

> <Gold.Protein.ActiveResidues>
 VAL166  LYS551  ARG553  GLY616  TRP617  ASP618  TYR619  PRO620  LYS621  CYS622 
 ASP623  PHE694  ASN695  SER759  ASP760  ASP761  ALA762  ILE779  LEU786  VAL792 
 PHE793  MET794  SER795  GLU796  ALA797  LYS798  CYS799  TRP800  GLU811  SER814 

> <Gold.Protein.RotatedAtoms>
  150.9616  133.6439  159.2753 H   0  0  0  0  0  0  0  0  0  0  0  0  # atno 6907 bound_to 6896
  151.3760  135.0930  159.9490 H   0  0  0  0  0  0  0  0  0  0  0  0  # atno 6908 bound_to 6896
  152.5149  133.9160  159.7566 H   0  0  0  0  0  0  0  0  0  0  0  0  # atno 6909 bound_to 6896
  145.9453  139.3924  143.0338 H   0  0  0  0  0  0  0  0  0  0  0  0  # atno 7974 bound_to 7965
  155.6111  140.0672  157.2706 H   0  0  0  0  0  0  0  0  0  0  0  0  # atno 8008 bound_to 7997
  154.4253  140.1801  156.1321 H   0  0  0  0  0  0  0  0  0  0  0  0  # atno 8009 bound_to 7997
  156.0084  140.3329  155.6919 H   0  0  0  0  0  0  0  0  0  0  0  0  # atno 8010 bound_to 7997
  139.4857  144.5576  151.7290 H   0  0  0  0  0  0  0  0  0  0  0  0  # atno 10167 bound_to 10162
  157.1396  131.0537  151.2333 H   0  0  0  0  0  0  0  0  0  0  0  0  # atno 10718 bound_to 10713
  153.7427  135.6931  153.4963 H   0  0  0  0  0  0  0  0  0  0  0  0  # atno 10763 bound_to 10752
  153.2058  135.4420  155.0320 H   0  0  0  0  0  0  0  0  0  0  0  0  # atno 10764 bound_to 10752
  154.8215  135.3424  154.6951 H   0  0  0  0  0  0  0  0  0  0  0  0  # atno 10765 bound_to 10752
  141.1668  133.7125  156.8189 H   0  0  0  0  0  0  0  0  0  0  0  0  # atno 11005 bound_to 11000
  145.8244  140.9663  143.0882 LP  0  0  0  0  0  0  0  0  0  0  0  0  # atno 17320 bound_to 7965
  144.6786  140.0082  143.7484 LP  0  0  0  0  0  0  0  0  0  0  0  0  # atno 17321 bound_to 7965
  140.5140  144.0982  150.6003 LP  0  0  0  0  0  0  0  0  0  0  0  0  # atno 17342 bound_to 10162
  140.3917  143.2749  152.0052 LP  0  0  0  0  0  0  0  0  0  0  0  0  # atno 17343 bound_to 10162
  157.4319  130.7495  149.6997 LP  0  0  0  0  0  0  0  0  0  0  0  0  # atno 17370 bound_to 10713
  155.9791  130.4043  150.3607 LP  0  0  0  0  0  0  0  0  0  0  0  0  # atno 17371 bound_to 10713
  140.2133  134.8811  157.3298 LP  0  0  0  0  0  0  0  0  0  0  0  0  # atno 17394 bound_to 11000
  140.2064  134.4192  155.7635 LP  0  0  0  0  0  0  0  0  0  0  0  0  # atno 17395 bound_to 11000

$$$$
