AV-unprocessed.smi:3043|AV-procd|sdf|11603|dock10
  -GOLD-   2272016583D 1   1.00000     0.00000
 Structure written by MMmdl.
 44 45  0  0  0  0  0  0  0  0  2 V2000
  150.3479  141.7938  157.1395 C   0  0  0  0  0  0  0  0  0  0  0  0
  150.7195  140.5233  156.3714 C   0  0  0  0  0  0  0  0  0  0  0  0
  151.4567  139.7081  156.9256 O   0  0  0  0  0  0  0  0  0  0  0  0
  150.2285  140.3352  155.1227 N   0  0  0  0  0  0  0  0  0  0  0  0
  150.4796  139.1145  154.3474 C   0  0  0  0  0  0  0  0  0  0  0  0
  149.1657  138.3215  154.2279 C   0  0  0  0  0  0  0  0  0  0  0  0
  148.0473  139.1758  153.5906 C   0  0  0  0  0  0  0  0  0  0  0  0
  146.7141  138.4072  153.5525 C   0  0  0  0  0  0  0  0  0  0  0  0
  146.5220  137.7216  152.2562 N   0  3  0  0  0  0  0  0  0  0  0  0
  145.5615  136.5957  152.2671 C   0  0  2  0  0  0  0  0  0  0  0  0
  145.9978  135.5098  153.2703 C   0  0  0  0  0  0  0  0  0  0  0  0
  145.4061  136.0518  150.8318 C   0  0  0  0  0  0  0  0  0  0  0  0
  145.1765  134.6185  150.7885 N   0  0  0  0  0  0  0  0  0  0  0  0
  143.9759  133.9457  150.7014 C   0  0  0  0  0  0  0  0  0  0  0  0
  144.2588  132.6099  150.6929 C   0  0  0  0  0  0  0  0  0  0  0  0
  145.6788  132.5642  150.7751 C   0  0  0  0  0  0  0  0  0  0  0  0
  146.2250  133.7684  150.8307 N   0  0  0  0  0  0  0  0  0  0  0  0
  147.9255  140.5341  154.3213 C   0  0  0  0  0  0  0  0  0  0  0  0
  149.2929  141.2322  154.4329 C   0  0  0  0  0  0  0  0  0  0  0  0
  149.2667  141.8760  157.2540 H   0  0  0  0  0  0  0  0  0  0  0  0
  150.7201  142.6800  156.6248 H   0  0  0  0  0  0  0  0  0  0  0  0
  150.7865  141.7800  158.1377 H   0  0  0  0  0  0  0  0  0  0  0  0
  150.8484  139.3845  153.3568 H   0  0  0  0  0  0  0  0  0  0  0  0
  151.2528  138.4842  154.7890 H   0  0  0  0  0  0  0  0  0  0  0  0
  149.3341  137.4214  153.6355 H   0  0  0  0  0  0  0  0  0  0  0  0
  148.8563  137.9849  155.2187 H   0  0  0  0  0  0  0  0  0  0  0  0
  148.3473  139.3779  152.5606 H   0  0  0  0  0  0  0  0  0  0  0  0
  146.7015  137.6679  154.3532 H   0  0  0  0  0  0  0  0  0  0  0  0
  145.8813  139.0877  153.7359 H   0  0  0  0  0  0  0  0  0  0  0  0
  146.1762  138.4119  151.6050 H   0  0  0  0  0  0  0  0  0  0  0  0
  144.5904  136.9840  152.5783 H   0  0  0  0  0  0  0  0  0  0  0  0
  145.2705  134.6994  153.3239 H   0  0  0  0  0  0  0  0  0  0  0  0
  146.0980  135.9046  154.2806 H   0  0  0  0  0  0  0  0  0  0  0  0
  146.9567  135.0745  152.9872 H   0  0  0  0  0  0  0  0  0  0  0  0
  144.5673  136.5403  150.3340 H   0  0  0  0  0  0  0  0  0  0  0  0
  146.2938  136.2841  150.2403 H   0  0  0  0  0  0  0  0  0  0  0  0
  143.0309  134.4670  150.6550 H   0  0  0  0  0  0  0  0  0  0  0  0
  143.5586  131.7896  150.6351 H   0  0  0  0  0  0  0  0  0  0  0  0
  146.3242  131.6983  150.7959 H   0  0  0  0  0  0  0  0  0  0  0  0
  147.2275  141.1866  153.7963 H   0  0  0  0  0  0  0  0  0  0  0  0
  147.5155  140.3831  155.3212 H   0  0  0  0  0  0  0  0  0  0  0  0
  149.1756  142.1993  154.9194 H   0  0  0  0  0  0  0  0  0  0  0  0
  149.6798  141.4546  153.4374 H   0  0  0  0  0  0  0  0  0  0  0  0
  147.4133  137.3848  151.9208 H   0  0  0  0  0  0  0  0  0  0  0  0
  1  2  1  0  0  0  0
  1 20  1  0  0  0  0
  1 21  1  0  0  0  0
  1 22  1  0  0  0  0
  2  3  2  0  0  0  0
  2  4  1  0  0  0  0
  4 19  1  0  0  0  0
  4  5  1  0  0  0  0
  5  6  1  0  0  0  0
  5 23  1  0  0  0  0
  5 24  1  0  0  0  0
  6  7  1  0  0  0  0
  6 25  1  0  0  0  0
  6 26  1  0  0  0  0
  7  8  1  0  0  0  0
  7 18  1  0  0  0  0
  7 27  1  0  0  0  0
  8  9  1  0  0  0  0
  8 28  1  0  0  0  0
  8 29  1  0  0  0  0
  9 10  1  0  0  0  0
  9 30  1  0  0  0  0
  9 44  1  0  0  0  0
 10 11  1  0  0  0  0
 10 12  1  0  0  0  0
 10 31  1  0  0  0  0
 11 32  1  0  0  0  0
 11 33  1  0  0  0  0
 11 34  1  0  0  0  0
 12 13  1  0  0  0  0
 12 35  1  0  0  0  0
 12 36  1  0  0  0  0
 13 17  1  0  0  0  0
 13 14  1  0  0  0  0
 14 15  2  0  0  0  0
 14 37  1  0  0  0  0
 15 16  1  0  0  0  0
 15 38  1  0  0  0  0
 16 17  2  0  0  0  0
 16 39  1  0  0  0  0
 18 19  1  0  0  0  0
 18 40  1  0  0  0  0
 18 41  1  0  0  0  0
 19 42  1  0  0  0  0
 19 43  1  0  0  0  0
M  CHG  1   9   1
M  END
> <s_m_source_file>
AV-unprocessed.smi

> <i_m_source_file_index>
3043

> <i_lp_mmshare_version>
43012

> <i_f3d_flags>
0

> <s_epik_input>
W0NIM11DKD1PKU4xW0NIMl1bQ0gyXVtDSF0oW0NIMl1bQ0gyXTEpW0NIMl1bTkhdW0NASF0oW0NIM10pW0NIMl1uMltjSF1bY0hdW2NIXW4y

> <s_epik_cmdline>
J2VwaWtfcHl0aG9uJywgJy1waCcsICc3LjAnLCAnLXRuJywgJzgnLCAnLW1hJywgJzIwMCcsICctbWV0YWxfYmluZGluZycsICctaW1hZScsICc8aW5maWxlLm1hZT4nLCAnLW9tYWUnLCAnPG91dGZpbGUubWFlPic=

> <r_lp_tautomer_probability>
1

> <r_epik_Ionization_Penalty>
0.00300549

> <r_epik_Ionization_Penalty_Charging>
0.00299781

> <r_epik_Ionization_Penalty_Neutral>
7.6831e-06

> <r_epik_State_Penalty>
0.00210473

> <r_epik_Charging_Adjusted_Penalty>
0.00510254

> <i_epik_Tot_Q>
1

> <i_epik_Tot_abs_Q>
1

> <r_epik_Metal_State_Penalty>
-0

> <b_epik_Metal_Only>
0

> <s_lp_Force_Field>
OPLS_2005

> <r_lp_Energy>
29.3743

> <b_lp_Chiralities_Consistent>
1

> <s_lp_Variant>
AV-unprocessed.smi:3043-1

> <Gold.Version>
5.8.1

> <Gold.Id.Protein>
6NUR|6NUR_protein|mol2

> <Gold.PLP.Fitness>
44.7934

> <Gold.PLP.PLP>
-35.6101

> <Gold.PLP.part.hbond>
-1.0000

> <Gold.PLP.part.metal>
0.0000

> <Gold.PLP.part.buried>
-0.5884

> <Gold.PLP.part.nonpolar>
-32.4905

> <Gold.PLP.part.repulsive>
0.2781

> <Gold.PLP.ligand.clash>
0.0000

> <Gold.PLP.ligand.torsion>
1.4303

> <Gold.PLP.Chemscore.Hbond>
2.0000

> <Gold.PLP.Chemscore.CHOScore>
2.0000

> <Gold.PLP.Chemscore.Metal>
0.0000

> <Gold.Chemscore.Hbonds>
donor molecule, donor type, donor heavy atom, donor atom, acceptor molecule, acceptor atom, score
      L1  H     9    44       P1  7948  2.00
      L1  C    14    37       P1 10186  1.00
      L1  C    16    39       P1 10747  0.26

> <Gold.PLP.Chemscore.Internal.Correction>
0.0439

> <Gold.Rescore>
     Score         DG    S(hbond)    S(metal)    S(lipo)     H(rot)  DE(clash)    DE(int)     intcor
     13.02     -14.20       1.00        0.00      84.16       1.74       0.21       0.97       ----

> <Gold.Chemscore.Fitness>
13.0200

> <Gold.Chemscore.DG>
-14.2033

> <Gold.Chemscore.ZeroCoef>
-5.4800

> <Gold.Chemscore.Hbond>
0.9991

> <Gold.Chemscore.Metal>
0.0000

> <Gold.Chemscore.Lipo>
84.1566

> <Gold.Chemscore.Internal_Hbond>
0.0000

> <Gold.Chemscore.DEClash>
0.2111

> <Gold.Chemscore.DEInternal>
0.9723

> <Gold.Chemscore.Rot>
1.7422

> <Gold.Chemscore.Internal.Correction>
   9.000000E+99

> <Gold.Chemscore.Hbonds>
donor molecule, donor type, donor heavy atom, donor atom, acceptor molecule, acceptor atom, score
      L1  H     9    44       P1  7948  0.99

> <Gold.Chemscore.Hbond.Weighted>
-3.3369

> <Gold.Chemscore.Metal.Weighted>
-0.0000

> <Gold.Chemscore.Lipo.Weighted>
-9.8463

> <Gold.Chemscore.Internal_Hbond.Weighted>
0.0000

> <Gold.Chemscore.DEClash.Weighted>
0.2111

> <Gold.Chemscore.DEInternal.Weighted>
0.9723

> <Gold.Chemscore.Rot.Weighted>
4.4600

> <Gold.Chemscore.Internal.Correction.Weighted>
   9.000000E+99

> <Gold.Protein.RotatedTorsions>
[ 6907 6896 6895 6894 ] final  116.87 input  -60.11 | X-H torsion
[ 7974 7965 7964 7962 ] final    4.21 input  175.53 | X-H torsion
[ 8008 7997 7996 7995 ] final -163.46 input   59.86 | X-H torsion
[ 10167 10162 10161 10158 ] final  134.94 input  -65.29 | X-H torsion
[ 10718 10713 10712 10709 ] final -127.73 input   66.30 | X-H torsion
[ 10763 10752 10751 10750 ] final  161.36 input  -60.55 | X-H torsion
[ 11005 11000 10999 10996 ] final   77.67 input  -57.11 | X-H torsion

> <Gold.Protein.ActiveResidues>
 VAL166  LYS551  ARG553  GLY616  TRP617  ASP618  TYR619  PRO620  LYS621  CYS622 
 ASP623  PHE694  ASN695  SER759  ASP760  ASP761  ALA762  ILE779  LEU786  VAL792 
 PHE793  MET794  SER795  GLU796  ALA797  LYS798  CYS799  TRP800  GLU811  SER814 

> <Gold.Protein.RotatedAtoms>
  152.4650  133.7903  159.6897 H   0  0  0  0  0  0  0  0  0  0  0  0  # atno 6907 bound_to 6896
  150.8610  133.7634  159.2999 H   0  0  0  0  0  0  0  0  0  0  0  0  # atno 6908 bound_to 6896
  151.5199  135.1070  159.9928 H   0  0  0  0  0  0  0  0  0  0  0  0  # atno 6909 bound_to 6896
  146.2444  140.0569  142.8371 H   0  0  0  0  0  0  0  0  0  0  0  0  # atno 7974 bound_to 7965
  155.8215  140.0920  157.1846 H   0  0  0  0  0  0  0  0  0  0  0  0  # atno 8008 bound_to 7997
  154.3979  140.1436  156.3566 H   0  0  0  0  0  0  0  0  0  0  0  0  # atno 8009 bound_to 7997
  155.8261  140.3444  155.5546 H   0  0  0  0  0  0  0  0  0  0  0  0  # atno 8010 bound_to 7997
  139.5236  144.6542  151.5212 H   0  0  0  0  0  0  0  0  0  0  0  0  # atno 10167 bound_to 10162
  156.1884  130.6779  151.0394 H   0  0  0  0  0  0  0  0  0  0  0  0  # atno 10718 bound_to 10713
  154.2617  135.2768  155.2775 H   0  0  0  0  0  0  0  0  0  0  0  0  # atno 10763 bound_to 10752
  154.5378  135.5711  153.6817 H   0  0  0  0  0  0  0  0  0  0  0  0  # atno 10764 bound_to 10752
  152.9961  135.6243  154.2768 H   0  0  0  0  0  0  0  0  0  0  0  0  # atno 10765 bound_to 10752
  139.9245  134.7702  156.1551 H   0  0  0  0  0  0  0  0  0  0  0  0  # atno 11005 bound_to 11000
  145.0934  140.9299  143.4755 LP  0  0  0  0  0  0  0  0  0  0  0  0  # atno 17320 bound_to 7965
  145.0747  139.3005  143.5814 LP  0  0  0  0  0  0  0  0  0  0  0  0  # atno 17321 bound_to 7965
  140.6360  143.8983  150.6648 LP  0  0  0  0  0  0  0  0  0  0  0  0  # atno 17342 bound_to 10162
  140.2302  143.3741  152.1572 LP  0  0  0  0  0  0  0  0  0  0  0  0  # atno 17343 bound_to 10162
  157.6914  131.0809  150.7097 LP  0  0  0  0  0  0  0  0  0  0  0  0  # atno 17370 bound_to 10713
  156.7154  130.4664  149.5536 LP  0  0  0  0  0  0  0  0  0  0  0  0  # atno 17371 bound_to 10713
  141.0791  133.6762  156.2299 LP  0  0  0  0  0  0  0  0  0  0  0  0  # atno 17394 bound_to 11000
  140.6378  134.5198  157.5566 LP  0  0  0  0  0  0  0  0  0  0  0  0  # atno 17395 bound_to 11000

$$$$
