AV-unprocessed.smi:72|AV-procd|sdf|750|dock10
  -GOLD-   2262017 83D 1   1.00000     0.00000
 Structure written by MMmdl.
 29 30  0  0  0  0  0  0  0  0  1 V2000
  155.8929  136.1722  157.7012 N   0  0  0  0  0  0  0  0  0  0  0  0
  154.6384  136.6094  157.3308 C   0  0  0  0  0  0  0  0  0  0  0  0
  153.5494  135.9050  157.8631 N   0  0  0  0  0  0  0  0  0  0  0  0
  152.3700  136.3096  157.5120 C   0  0  0  0  0  0  0  0  0  0  0  0
  152.1966  137.4308  156.6058 N   0  0  0  0  0  0  0  0  0  0  0  0
  150.8165  137.9035  156.1984 C   0  0  1  0  0  0  0  0  0  0  0  0
  150.7295  139.2759  156.4205 O   0  0  0  0  0  0  0  0  0  0  0  0
  149.8309  139.8315  155.4734 C   0  0  1  0  0  0  0  0  0  0  0  0
  150.0742  141.3429  155.3475 C   0  0  0  0  0  0  0  0  0  0  0  0
  149.0220  141.9424  154.6225 O   0  0  0  0  0  0  0  0  0  0  0  0
  150.1607  139.0491  154.1972 C   0  0  2  0  0  0  0  0  0  0  0  0
  149.0392  139.0221  153.3366 O   0  0  0  0  0  0  0  0  0  0  0  0
  150.4835  137.6479  154.7102 C   0  0  1  0  0  0  0  0  0  0  0  0
  151.5381  137.0712  153.9610 O   0  0  0  0  0  0  0  0  0  0  0  0
  153.3447  138.1136  156.1198 C   0  0  0  0  0  0  0  0  0  0  0  0
  153.2198  139.0899  155.3806 O   0  0  0  0  0  0  0  0  0  0  0  0
  154.5952  137.6328  156.5263 N   0  0  0  0  0  0  0  0  0  0  0  0
  150.1063  137.4223  156.8726 H   0  0  0  0  0  0  0  0  0  0  0  0
  148.8066  139.6184  155.7874 H   0  0  0  0  0  0  0  0  0  0  0  0
  151.0232  139.4913  153.6949 H   0  0  0  0  0  0  0  0  0  0  0  0
  149.6117  136.9927  154.6743 H   0  0  0  0  0  0  0  0  0  0  0  0
  156.7484  136.6025  157.3818 H   0  0  0  0  0  0  0  0  0  0  0  0
  156.0490  135.3886  158.3185 H   0  0  0  0  0  0  0  0  0  0  0  0
  151.4475  135.8498  157.8698 H   0  0  0  0  0  0  0  0  0  0  0  0
  150.1786  141.8118  156.3264 H   0  0  0  0  0  0  0  0  0  0  0  0
  150.9974  141.5298  154.7984 H   0  0  0  0  0  0  0  0  0  0  0  0
  148.9313  142.8373  154.9129 H   0  0  0  0  0  0  0  0  0  0  0  0
  149.1683  139.6642  152.6554 H   0  0  0  0  0  0  0  0  0  0  0  0
  151.2563  136.9864  153.0630 H   0  0  0  0  0  0  0  0  0  0  0  0
  1  2  1  0  0  0  0
  1 22  1  0  0  0  0
  1 23  1  0  0  0  0
  2 17  2  0  0  0  0
  2  3  1  0  0  0  0
  3  4  2  0  0  0  0
  4  5  1  0  0  0  0
  4 24  1  0  0  0  0
  5  6  1  0  0  0  0
  5 15  1  0  0  0  0
  6 18  1  0  0  0  0
  6 13  1  0  0  0  0
  6  7  1  0  0  0  0
  7  8  1  0  0  0  0
  8 19  1  0  0  0  0
  8  9  1  0  0  0  0
  8 11  1  0  0  0  0
  9 10  1  0  0  0  0
  9 25  1  0  0  0  0
  9 26  1  0  0  0  0
 10 27  1  0  0  0  0
 11 20  1  0  0  0  0
 11 12  1  0  0  0  0
 11 13  1  0  0  0  0
 12 28  1  0  0  0  0
 13 21  1  0  0  0  0
 13 14  1  0  0  0  0
 14 29  1  0  0  0  0
 15 16  2  0  0  0  0
 15 17  1  0  0  0  0
M  END
> <s_m_source_file>
AV-unprocessed.smi

> <i_m_source_file_index>
72

> <i_lp_mmshare_version>
43012

> <i_f3d_flags>
0

> <s_epik_input>
W05IMl1jMW5bY0hdbihjKD1PKW4xKVtDQEBIXTJPW0NASF0oW0NIMl1bT0hdKVtDQEBIXShbT0hdKVtDQEhdMltPSF0=

> <s_epik_cmdline>
J2VwaWtfcHl0aG9uJywgJy1waCcsICc3LjAnLCAnLXRuJywgJzgnLCAnLW1hJywgJzIwMCcsICctbWV0YWxfYmluZGluZycsICctaW1hZScsICc8aW5maWxlLm1hZT4nLCAnLW9tYWUnLCAnPG91dGZpbGUubWFlPic=

> <r_lp_tautomer_probability>
4.77166e-05

> <r_epik_Ionization_Penalty>
1.3546

> <r_epik_Ionization_Penalty_Charging>
1.46833e-10

> <r_epik_Ionization_Penalty_Neutral>
1.3546

> <r_epik_State_Penalty>
3.51908

> <r_epik_Charging_Adjusted_Penalty>
3.51908

> <i_epik_Tot_Q>
0

> <i_epik_Tot_abs_Q>
0

> <r_epik_Metal_State_Penalty>
3.44088

> <b_epik_Metal_Only>
1

> <s_epik_Chemistry_Notes>
This compound contains an acetal/aminal-like group ( X-CH(R)-Y where X, Y are N, S, or O) that may be acid/base labile, releasing an aldehyde.

> <s_lp_Force_Field>
OPLS_2005

> <r_lp_Energy>
31.5358

> <b_lp_Chiralities_Consistent>
1

> <s_lp_Variant>
AV-unprocessed.smi:72-88

> <Gold.Version>
5.8.1

> <Gold.Id.Protein>
6NUR|6NUR_protein|mol2

> <Gold.PLP.Fitness>
36.7296

> <Gold.PLP.PLP>
-21.9280

> <Gold.PLP.part.hbond>
-7.4947

> <Gold.PLP.part.metal>
0.0000

> <Gold.PLP.part.buried>
-2.7240

> <Gold.PLP.part.nonpolar>
-11.5699

> <Gold.PLP.part.repulsive>
0.0764

> <Gold.PLP.ligand.clash>
0.0000

> <Gold.PLP.ligand.torsion>
0.2638

> <Gold.PLP.Chemscore.Hbond>
5.0303

> <Gold.PLP.Chemscore.CHOScore>
0.0000

> <Gold.PLP.Chemscore.Metal>
0.0000

> <Gold.Chemscore.Hbonds>
donor molecule, donor type, donor heavy atom, donor atom, acceptor molecule, acceptor atom, score
      L1  H    10    27       P1  8028  1.00
      L1  H    12    28       P1  7957  0.99
      L1  H    14    29       P1  7949  0.99
      P1  H  7997  8008       L1    16  1.00
      P1  H 10752 10765       L1    14  0.99

> <Gold.PLP.Chemscore.Internal.Correction>
0.2382

> <Gold.Rescore>
     Score         DG    S(hbond)    S(metal)    S(lipo)     H(rot)  DE(clash)    DE(int)     intcor
      8.90     -11.41       3.90        0.00      28.20       4.06       0.14       2.37       ----

> <Gold.Chemscore.Fitness>
8.8966

> <Gold.Chemscore.DG>
-11.4097

> <Gold.Chemscore.ZeroCoef>
-5.4800

> <Gold.Chemscore.Hbond>
3.8995

> <Gold.Chemscore.Metal>
0.0000

> <Gold.Chemscore.Lipo>
28.1953

> <Gold.Chemscore.Internal_Hbond>
0.0000

> <Gold.Chemscore.DEClash>
0.1401

> <Gold.Chemscore.DEInternal>
2.3731

> <Gold.Chemscore.Rot>
4.0600

> <Gold.Chemscore.Internal.Correction>
   9.000000E+99

> <Gold.Chemscore.Hbonds>
donor molecule, donor type, donor heavy atom, donor atom, acceptor molecule, acceptor atom, score
      L1  H    10    27       P1  8028  0.95
      L1  H    12    28       P1  7957  0.93
      L1  H    14    29       P1  7949  0.62
      P1  H  7997  8008       L1    16  0.30
      P1  H 10752 10765       L1    14  0.24

> <Gold.Chemscore.Hbond.Weighted>
-13.0245

> <Gold.Chemscore.Metal.Weighted>
-0.0000

> <Gold.Chemscore.Lipo.Weighted>
-3.2988

> <Gold.Chemscore.Internal_Hbond.Weighted>
0.0000

> <Gold.Chemscore.DEClash.Weighted>
0.1401

> <Gold.Chemscore.DEInternal.Weighted>
2.3731

> <Gold.Chemscore.Rot.Weighted>
10.3936

> <Gold.Chemscore.Internal.Correction.Weighted>
   9.000000E+99

> <Gold.Protein.RotatedTorsions>
[ 6907 6896 6895 6894 ] final   -0.46 input  -60.11 | X-H torsion
[ 7974 7965 7964 7962 ] final   62.71 input  175.53 | X-H torsion
[ 8008 7997 7996 7995 ] final  -26.09 input   59.86 | X-H torsion
[ 10167 10162 10161 10158 ] final -115.17 input  -65.29 | X-H torsion
[ 10718 10713 10712 10709 ] final   18.90 input   66.30 | X-H torsion
[ 10763 10752 10751 10750 ] final  141.18 input  -60.55 | X-H torsion
[ 11005 11000 10999 10996 ] final -150.62 input  -57.11 | X-H torsion

> <Gold.Protein.ActiveResidues>
 VAL166  LYS551  ARG553  GLY616  TRP617  ASP618  TYR619  PRO620  LYS621  CYS622 
 ASP623  PHE694  ASN695  SER759  ASP760  ASP761  ALA762  ILE779  LEU786  VAL792 
 PHE793  MET794  SER795  GLU796  ALA797  LYS798  CYS799  TRP800  GLU811  SER814 

> <Gold.Protein.RotatedAtoms>
  151.5619  135.1065  159.9974 H   0  0  0  0  0  0  0  0  0  0  0  0  # atno 6907 bound_to 6896
  152.4443  133.7502  159.6700 H   0  0  0  0  0  0  0  0  0  0  0  0  # atno 6908 bound_to 6896
  150.8354  133.7953  159.3105 H   0  0  0  0  0  0  0  0  0  0  0  0  # atno 6909 bound_to 6896
  145.8702  139.3373  143.0767 H   0  0  0  0  0  0  0  0  0  0  0  0  # atno 7974 bound_to 7965
  154.4442  140.1908  156.0722 H   0  0  0  0  0  0  0  0  0  0  0  0  # atno 8008 bound_to 7997
  156.0503  140.3309  155.7316 H   0  0  0  0  0  0  0  0  0  0  0  0  # atno 8009 bound_to 7997
  155.5568  140.0600  157.2828 H   0  0  0  0  0  0  0  0  0  0  0  0  # atno 8010 bound_to 7997
  140.0930  143.4682  152.1858 H   0  0  0  0  0  0  0  0  0  0  0  0  # atno 10167 bound_to 10162
  157.1028  130.6475  149.5877 H   0  0  0  0  0  0  0  0  0  0  0  0  # atno 10718 bound_to 10713
  153.9349  135.2986  155.3444 H   0  0  0  0  0  0  0  0  0  0  0  0  # atno 10763 bound_to 10752
  154.7507  135.4981  153.9287 H   0  0  0  0  0  0  0  0  0  0  0  0  # atno 10764 bound_to 10752
  153.1072  135.6750  153.9670 H   0  0  0  0  0  0  0  0  0  0  0  0  # atno 10765 bound_to 10752
  140.7383  134.3543  157.5153 H   0  0  0  0  0  0  0  0  0  0  0  0  # atno 11005 bound_to 11000
  145.9146  140.9157  143.0436 LP  0  0  0  0  0  0  0  0  0  0  0  0  # atno 17320 bound_to 7965
  144.6726  140.1206  143.7450 LP  0  0  0  0  0  0  0  0  0  0  0  0  # atno 17321 bound_to 7965
  139.5714  144.7464  151.3881 LP  0  0  0  0  0  0  0  0  0  0  0  0  # atno 17342 bound_to 10162
  140.7018  143.7612  150.7416 LP  0  0  0  0  0  0  0  0  0  0  0  0  # atno 17343 bound_to 10162
  155.9869  130.4906  150.7101 LP  0  0  0  0  0  0  0  0  0  0  0  0  # atno 17370 bound_to 10713
  157.4626  131.0885  151.0729 LP  0  0  0  0  0  0  0  0  0  0  0  0  # atno 17371 bound_to 10713
  139.8811  134.9064  156.2921 LP  0  0  0  0  0  0  0  0  0  0  0  0  # atno 17394 bound_to 11000
  140.9860  133.7238  156.0742 LP  0  0  0  0  0  0  0  0  0  0  0  0  # atno 17395 bound_to 11000

$$$$
