AV-unprocessed.smi:2410|AV-procd|sdf|9527|dock4
  -GOLD-   2272013153D 1   1.00000     0.00000
 Structure written by MMmdl.
 46 48  0  0  0  0  0  0  0  0  1 V2000
  151.3770  143.9006  160.0264 C   0  0  0  0  0  0  0  0  0  0  0  0
  151.4182  142.7831  158.9990 C   0  0  0  0  0  0  0  0  0  0  0  0
  150.7413  142.9543  157.7701 C   0  0  0  0  0  0  0  0  0  0  0  0
  150.7525  141.9383  156.7894 C   0  0  0  0  0  0  0  0  0  0  0  0
  150.1668  141.8912  155.5356 N   0  0  0  0  0  0  0  0  0  0  0  0
  150.5374  140.6859  155.1119 C   0  0  0  0  0  0  0  0  0  0  0  0
  151.2944  139.9461  155.9448 N   0  0  0  0  0  0  0  0  0  0  0  0
  151.8202  138.6137  155.7108 C   0  0  0  0  0  0  0  0  0  0  0  0
  151.1589  137.9292  154.4991 C   0  0  1  0  0  0  0  0  0  0  0  0
  152.1124  137.0768  153.8945 O   0  0  0  0  0  0  0  0  0  0  0  0
  149.9308  137.0901  154.9134 C   0  0  0  0  0  0  0  0  0  0  0  0
  150.3041  135.7211  155.3057 N   0  0  0  0  0  0  0  0  0  0  0  0
  151.2197  135.6045  156.3639 C   0  0  0  0  0  0  0  0  0  0  0  0
  151.6102  134.4517  156.7999 N   0  0  0  0  0  0  0  0  0  0  0  0
  151.1252  133.2814  156.2088 C   0  0  0  0  0  0  0  0  0  0  0  0
  151.6441  131.9834  156.8016 C   0  0  0  0  0  0  0  0  0  0  0  0
  150.2479  133.3259  155.1689 C   0  0  0  0  0  0  0  0  0  0  0  0
  149.6913  132.0857  154.4810 C   0  0  0  0  0  0  0  0  0  0  0  0
  149.7957  134.6312  154.6607 C   0  0  0  0  0  0  0  0  0  0  0  0
  149.0112  134.7466  153.7166 O   0  0  0  0  0  0  0  0  0  0  0  0
  151.4663  140.7380  157.0741 C   0  0  0  0  0  0  0  0  0  0  0  0
  152.1450  140.5560  158.2920 C   0  0  0  0  0  0  0  0  0  0  0  0
  152.1217  141.5800  159.2617 C   0  0  0  0  0  0  0  0  0  0  0  0
  152.8535  141.3722  160.5758 C   0  0  0  0  0  0  0  0  0  0  0  0
  150.8402  144.7706  159.6473 H   0  0  0  0  0  0  0  0  0  0  0  0
  152.3865  144.2197  160.2863 H   0  0  0  0  0  0  0  0  0  0  0  0
  150.8745  143.5654  160.9339 H   0  0  0  0  0  0  0  0  0  0  0  0
  150.2047  143.8700  157.5701 H   0  0  0  0  0  0  0  0  0  0  0  0
  150.2401  140.3189  154.1405 H   0  0  0  0  0  0  0  0  0  0  0  0
  152.9016  138.6757  155.5787 H   0  0  0  0  0  0  0  0  0  0  0  0
  151.6487  138.0266  156.6137 H   0  0  0  0  0  0  0  0  0  0  0  0
  150.8697  138.6940  153.7772 H   0  0  0  0  0  0  0  0  0  0  0  0
  151.8728  136.9505  152.9892 H   0  0  0  0  0  0  0  0  0  0  0  0
  149.3566  137.6035  155.6876 H   0  0  0  0  0  0  0  0  0  0  0  0
  149.2377  137.0206  154.0729 H   0  0  0  0  0  0  0  0  0  0  0  0
  151.5749  136.5470  156.7845 H   0  0  0  0  0  0  0  0  0  0  0  0
  150.8196  131.3811  157.1840 H   0  0  0  0  0  0  0  0  0  0  0  0
  152.3310  132.1705  157.6281 H   0  0  0  0  0  0  0  0  0  0  0  0
  152.1793  131.4055  156.0474 H   0  0  0  0  0  0  0  0  0  0  0  0
  149.9626  132.0883  153.4248 H   0  0  0  0  0  0  0  0  0  0  0  0
  148.6031  132.0734  154.5506 H   0  0  0  0  0  0  0  0  0  0  0  0
  150.0574  131.1550  154.9110 H   0  0  0  0  0  0  0  0  0  0  0  0
  152.6756  139.6338  158.4786 H   0  0  0  0  0  0  0  0  0  0  0  0
  153.3214  140.3884  160.6196 H   0  0  0  0  0  0  0  0  0  0  0  0
  152.1621  141.4508  161.4151 H   0  0  0  0  0  0  0  0  0  0  0  0
  153.6367  142.1203  160.6996 H   0  0  0  0  0  0  0  0  0  0  0  0
  1  2  1  0  0  0  0
  1 25  1  0  0  0  0
  1 26  1  0  0  0  0
  1 27  1  0  0  0  0
  2 23  1  0  0  0  0
  2  3  2  0  0  0  0
  3  4  1  0  0  0  0
  3 28  1  0  0  0  0
  4 21  2  0  0  0  0
  4  5  1  0  0  0  0
  5  6  2  0  0  0  0
  6  7  1  0  0  0  0
  6 29  1  0  0  0  0
  7  8  1  0  0  0  0
  7 21  1  0  0  0  0
  8  9  1  0  0  0  0
  8 30  1  0  0  0  0
  8 31  1  0  0  0  0
  9 10  1  0  0  0  0
  9 11  1  0  0  0  0
  9 32  1  0  0  0  0
 10 33  1  0  0  0  0
 11 12  1  0  0  0  0
 11 34  1  0  0  0  0
 11 35  1  0  0  0  0
 12 19  1  0  0  0  0
 12 13  1  0  0  0  0
 13 14  2  0  0  0  0
 13 36  1  0  0  0  0
 14 15  1  0  0  0  0
 15 16  1  0  0  0  0
 15 17  2  0  0  0  0
 16 37  1  0  0  0  0
 16 38  1  0  0  0  0
 16 39  1  0  0  0  0
 17 18  1  0  0  0  0
 17 19  1  0  0  0  0
 18 40  1  0  0  0  0
 18 41  1  0  0  0  0
 18 42  1  0  0  0  0
 19 20  2  0  0  0  0
 21 22  1  0  0  0  0
 22 23  2  0  0  0  0
 22 43  1  0  0  0  0
 23 24  1  0  0  0  0
 24 44  1  0  0  0  0
 24 45  1  0  0  0  0
 24 46  1  0  0  0  0
M  END
> <s_m_source_file>
AV-unprocessed.smi

> <i_m_source_file_index>
2410

> <i_lp_mmshare_version>
43012

> <i_f3d_flags>
0

> <s_epik_input>
W0NIM11jKFtjSF0xKWMoW0NIM10pW2NIXWMoYzEyKW4oW2NIXW4yKVtDSDJdW0NASF0oW09IXSlbQ0gyXW4zW2NIXW5jKFtDSDNdKWMoW0NIM10pYzM9Tw==

> <s_epik_cmdline>
J2VwaWtfcHl0aG9uJywgJy1waCcsICc3LjAnLCAnLXRuJywgJzgnLCAnLW1hJywgJzIwMCcsICctbWV0YWxfYmluZGluZycsICctaW1hZScsICc8aW5maWxlLm1hZT4nLCAnLW9tYWUnLCAnPG91dGZpbGUubWFlPic=

> <r_lp_tautomer_probability>
1

> <r_epik_Ionization_Penalty>
0.113377

> <r_epik_Ionization_Penalty_Charging>
7.56033e-08

> <r_epik_Ionization_Penalty_Neutral>
0.113377

> <r_epik_State_Penalty>
0.103025

> <r_epik_Charging_Adjusted_Penalty>
0.103025

> <i_epik_Tot_Q>
0

> <i_epik_Tot_abs_Q>
0

> <r_epik_Metal_State_Penalty>
0.0863476

> <b_epik_Metal_Only>
0

> <s_lp_Force_Field>
OPLS_2005

> <r_lp_Energy>
18.3765

> <b_lp_Chiralities_Consistent>
1

> <s_lp_Variant>
AV-unprocessed.smi:2410-2

> <Gold.Version>
5.8.1

> <Gold.Id.Protein>
6NUR|6NUR_protein|mol2

> <Gold.PLP.Fitness>
50.9359

> <Gold.PLP.PLP>
-46.6591

> <Gold.PLP.part.hbond>
-3.5389

> <Gold.PLP.part.metal>
0.0000

> <Gold.PLP.part.buried>
-4.9369

> <Gold.PLP.part.nonpolar>
-38.7588

> <Gold.PLP.part.repulsive>
0.8905

> <Gold.PLP.ligand.clash>
0.0000

> <Gold.PLP.ligand.torsion>
0.8854

> <Gold.PLP.Chemscore.Hbond>
2.0000

> <Gold.PLP.Chemscore.CHOScore>
0.0000

> <Gold.PLP.Chemscore.Metal>
0.0000

> <Gold.Chemscore.Hbonds>
donor molecule, donor type, donor heavy atom, donor atom, acceptor molecule, acceptor atom, score
      L1  H    10    33       P1  7949  1.00
      P1  H 10752 10765       L1    10  0.75

> <Gold.PLP.Chemscore.Internal.Correction>
0.0476

> <Gold.Rescore>
     Score         DG    S(hbond)    S(metal)    S(lipo)     H(rot)  DE(clash)    DE(int)     intcor
     16.18     -17.55       1.52        0.00     111.26       2.35       0.42       0.95       ----

> <Gold.Chemscore.Fitness>
16.1792

> <Gold.Chemscore.DG>
-17.5528

> <Gold.Chemscore.ZeroCoef>
-5.4800

> <Gold.Chemscore.Hbond>
1.5168

> <Gold.Chemscore.Metal>
0.0000

> <Gold.Chemscore.Lipo>
111.2597

> <Gold.Chemscore.Internal_Hbond>
0.0000

> <Gold.Chemscore.DEClash>
0.4222

> <Gold.Chemscore.DEInternal>
0.9514

> <Gold.Chemscore.Rot>
2.3479

> <Gold.Chemscore.Internal.Correction>
   9.000000E+99

> <Gold.Chemscore.Hbonds>
donor molecule, donor type, donor heavy atom, donor atom, acceptor molecule, acceptor atom, score
      L1  H    10    33       P1  7949  0.98
      P1  H 10752 10765       L1    10  0.09

> <Gold.Chemscore.Hbond.Weighted>
-5.0661

> <Gold.Chemscore.Metal.Weighted>
-0.0000

> <Gold.Chemscore.Lipo.Weighted>
-13.0174

> <Gold.Chemscore.Internal_Hbond.Weighted>
0.0000

> <Gold.Chemscore.DEClash.Weighted>
0.4222

> <Gold.Chemscore.DEInternal.Weighted>
0.9514

> <Gold.Chemscore.Rot.Weighted>
6.0106

> <Gold.Chemscore.Internal.Correction.Weighted>
   9.000000E+99

> <Gold.Protein.RotatedTorsions>
[ 6907 6896 6895 6894 ] final  120.11 input  -60.11 | X-H torsion
[ 7974 7965 7964 7962 ] final  169.26 input  175.53 | X-H torsion
[ 8008 7997 7996 7995 ] final  150.09 input   59.86 | X-H torsion
[ 10167 10162 10161 10158 ] final  152.56 input  -65.29 | X-H torsion
[ 10718 10713 10712 10709 ] final  119.48 input   66.30 | X-H torsion
[ 10763 10752 10751 10750 ] final  142.06 input  -60.55 | X-H torsion
[ 11005 11000 10999 10996 ] final  127.04 input  -57.11 | X-H torsion

> <Gold.Protein.ActiveResidues>
 VAL166  LYS551  ARG553  GLY616  TRP617  ASP618  TYR619  PRO620  LYS621  CYS622 
 ASP623  PHE694  ASN695  SER759  ASP760  ASP761  ALA762  ILE779  LEU786  VAL792 
 PHE793  MET794  SER795  GLU796  ALA797  LYS798  CYS799  TRP800  GLU811  SER814 

> <Gold.Protein.RotatedAtoms>
  152.4422  133.7470  159.6672 H   0  0  0  0  0  0  0  0  0  0  0  0  # atno 6907 bound_to 6896
  150.8315  133.8073  159.3103 H   0  0  0  0  0  0  0  0  0  0  0  0  # atno 6908 bound_to 6896
  151.5725  135.1064  160.0050 H   0  0  0  0  0  0  0  0  0  0  0  0  # atno 6909 bound_to 6896
  144.7361  139.9028  143.6410 H   0  0  0  0  0  0  0  0  0  0  0  0  # atno 7974 bound_to 7965
  156.2729  140.2084  156.5962 H   0  0  0  0  0  0  0  0  0  0  0  0  # atno 8008 bound_to 7997
  154.6943  140.0527  157.0418 H   0  0  0  0  0  0  0  0  0  0  0  0  # atno 8009 bound_to 7997
  155.0823  140.3188  155.4601 H   0  0  0  0  0  0  0  0  0  0  0  0  # atno 8010 bound_to 7997
  139.4832  144.5348  151.7664 H   0  0  0  0  0  0  0  0  0  0  0  0  # atno 10167 bound_to 10162
  157.5958  131.1058  150.7902 H   0  0  0  0  0  0  0  0  0  0  0  0  # atno 10718 bound_to 10713
  153.9495  135.2971  155.3439 H   0  0  0  0  0  0  0  0  0  0  0  0  # atno 10763 bound_to 10752
  154.7434  135.5014  153.9165 H   0  0  0  0  0  0  0  0  0  0  0  0  # atno 10764 bound_to 10752
  153.1001  135.6732  153.9796 H   0  0  0  0  0  0  0  0  0  0  0  0  # atno 10765 bound_to 10752
  139.9487  134.9625  156.8796 H   0  0  0  0  0  0  0  0  0  0  0  0  # atno 11005 bound_to 11000
  146.1059  139.4059  143.0318 LP  0  0  0  0  0  0  0  0  0  0  0  0  # atno 17320 bound_to 7965
  145.7512  140.9971  143.1249 LP  0  0  0  0  0  0  0  0  0  0  0  0  # atno 17321 bound_to 7965
  140.4879  144.1354  150.5944 LP  0  0  0  0  0  0  0  0  0  0  0  0  # atno 17342 bound_to 10162
  140.4205  143.2614  151.9722 LP  0  0  0  0  0  0  0  0  0  0  0  0  # atno 17343 bound_to 10162
  156.8313  130.5017  149.5331 LP  0  0  0  0  0  0  0  0  0  0  0  0  # atno 17370 bound_to 10713
  156.1021  130.5977  150.9911 LP  0  0  0  0  0  0  0  0  0  0  0  0  # atno 17371 bound_to 10713
  140.5772  134.0387  155.7451 LP  0  0  0  0  0  0  0  0  0  0  0  0  # atno 17394 bound_to 11000
  141.1144  133.9564  157.2850 LP  0  0  0  0  0  0  0  0  0  0  0  0  # atno 17395 bound_to 11000

$$$$
