AV-unprocessed.smi:1036|AV-procd|sdf|4518|dock8
  -GOLD-   22720 2533D 1   1.00000     0.00000
 Structure written by MMmdl.
 41 43  0  0  0  0  0  0  0  0  1 V2000
  149.7117  133.6332  154.7051 O   0  0  0  0  0  0  0  0  0  0  0  0
  149.5615  135.0230  154.8946 C   0  0  0  0  0  0  0  0  0  0  0  0
  150.2532  135.4498  156.1971 C   0  0  0  0  0  0  0  0  0  0  0  0
  150.1790  136.8829  156.4166 N   0  0  0  0  0  0  0  0  0  0  0  0
  149.5151  137.8939  155.7316 C   0  0  0  0  0  0  0  0  0  0  0  0
  148.7606  137.6847  154.6544 N   0  0  0  0  0  0  0  0  0  0  0  0
  148.3275  138.9605  154.3462 C   0  0  0  0  0  0  0  0  0  0  0  0
  147.4879  139.4186  153.3057 C   0  0  0  0  0  0  0  0  0  0  0  0
  147.1793  140.7899  153.1890 C   0  0  0  0  0  0  0  0  0  0  0  0
  147.7049  141.7212  154.1080 C   0  0  0  0  0  0  0  0  0  0  0  0
  148.5430  141.2865  155.1526 C   0  0  0  0  0  0  0  0  0  0  0  0
  148.8478  139.9171  155.2655 C   0  0  0  0  0  0  0  0  0  0  0  0
  149.6163  139.1761  156.1581 N   0  0  0  0  0  0  0  0  0  0  0  0
  150.3505  139.7025  157.3016 C   0  0  0  0  0  0  0  0  0  0  0  0
  151.4236  140.7257  156.8810 C   0  0  2  0  0  0  0  0  0  0  0  0
  152.4900  140.0199  156.2792 O   0  0  0  0  0  0  0  0  0  0  0  0
  151.8866  141.5960  158.0443 C   0  0  0  0  0  0  0  0  0  0  0  0
  151.6949  142.9954  158.0087 C   0  0  0  0  0  0  0  0  0  0  0  0
  152.1272  143.8010  159.0792 C   0  0  0  0  0  0  0  0  0  0  0  0
  151.9393  145.1408  159.0363 F   0  0  0  0  0  0  0  0  0  0  0  0
  152.7603  143.2146  160.1910 C   0  0  0  0  0  0  0  0  0  0  0  0
  152.9654  141.8226  160.2287 C   0  0  0  0  0  0  0  0  0  0  0  0
  152.5310  141.0143  159.1604 C   0  0  0  0  0  0  0  0  0  0  0  0
  152.7434  139.6773  159.2112 F   0  0  0  0  0  0  0  0  0  0  0  0
  149.6258  133.4468  153.7826 H   0  0  0  0  0  0  0  0  0  0  0  0
  150.0391  135.5186  154.0490 H   0  0  0  0  0  0  0  0  0  0  0  0
  148.5075  135.3030  154.8758 H   0  0  0  0  0  0  0  0  0  0  0  0
  149.8467  134.9162  157.0568 H   0  0  0  0  0  0  0  0  0  0  0  0
  151.3104  135.1880  156.1417 H   0  0  0  0  0  0  0  0  0  0  0  0
  150.7173  137.1979  157.2106 H   0  0  0  0  0  0  0  0  0  0  0  0
  147.0803  138.7139  152.5962 H   0  0  0  0  0  0  0  0  0  0  0  0
  146.5362  141.1290  152.3902 H   0  0  0  0  0  0  0  0  0  0  0  0
  147.4637  142.7697  154.0107 H   0  0  0  0  0  0  0  0  0  0  0  0
  148.9459  141.9970  155.8592 H   0  0  0  0  0  0  0  0  0  0  0  0
  149.6583  140.1381  158.0228 H   0  0  0  0  0  0  0  0  0  0  0  0
  150.8203  138.8579  157.8076 H   0  0  0  0  0  0  0  0  0  0  0  0
  151.0149  141.3684  156.1007 H   0  0  0  0  0  0  0  0  0  0  0  0
  152.1713  139.1740  156.0032 H   0  0  0  0  0  0  0  0  0  0  0  0
  151.2170  143.4580  157.1577 H   0  0  0  0  0  0  0  0  0  0  0  0
  153.0951  143.8328  161.0108 H   0  0  0  0  0  0  0  0  0  0  0  0
  153.4583  141.3738  161.0785 H   0  0  0  0  0  0  0  0  0  0  0  0
  1  2  1  0  0  0  0
  1 25  1  0  0  0  0
  2  3  1  0  0  0  0
  2 26  1  0  0  0  0
  2 27  1  0  0  0  0
  3  4  1  0  0  0  0
  3 28  1  0  0  0  0
  3 29  1  0  0  0  0
  4  5  1  0  0  0  0
  4 30  1  0  0  0  0
  5 13  1  0  0  0  0
  5  6  2  0  0  0  0
  6  7  1  0  0  0  0
  7 12  2  0  0  0  0
  7  8  1  0  0  0  0
  8  9  2  0  0  0  0
  8 31  1  0  0  0  0
  9 10  1  0  0  0  0
  9 32  1  0  0  0  0
 10 11  2  0  0  0  0
 10 33  1  0  0  0  0
 11 12  1  0  0  0  0
 11 34  1  0  0  0  0
 12 13  1  0  0  0  0
 13 14  1  0  0  0  0
 14 15  1  0  0  0  0
 14 35  1  0  0  0  0
 14 36  1  0  0  0  0
 15 16  1  0  0  0  0
 15 17  1  0  0  0  0
 15 37  1  0  0  0  0
 16 38  1  0  0  0  0
 17 23  1  0  0  0  0
 17 18  2  0  0  0  0
 18 19  1  0  0  0  0
 18 39  1  0  0  0  0
 19 20  1  0  0  0  0
 19 21  2  0  0  0  0
 21 22  1  0  0  0  0
 21 40  1  0  0  0  0
 22 23  2  0  0  0  0
 22 41  1  0  0  0  0
 23 24  1  0  0  0  0
M  END
> <s_m_source_file>
AV-unprocessed.smi

> <i_m_source_file_index>
1036

> <i_lp_mmshare_version>
43012

> <i_f3d_flags>
0

> <s_epik_input>
W09IXVtDSDJdW0NIMl1bTkhdYyhuMSluKGMoYzEyKVtjSF1bY0hdW2NIXVtjSF0yKVtDSDJdW0NASF0oW09IXSljM1tjSF1jKEYpW2NIXVtjSF1jM0Y=

> <s_epik_cmdline>
J2VwaWtfcHl0aG9uJywgJy1waCcsICc3LjAnLCAnLXRuJywgJzgnLCAnLW1hJywgJzIwMCcsICctbWV0YWxfYmluZGluZycsICctaW1hZScsICc8aW5maWxlLm1hZT4nLCAnLW9tYWUnLCAnPG91dGZpbGUubWFlPic=

> <r_epik_Ionization_Penalty>
1.30972

> <r_epik_Ionization_Penalty_Charging>
0

> <r_epik_Ionization_Penalty_Neutral>
1.30972

> <r_epik_State_Penalty>
1.38438

> <r_epik_Charging_Adjusted_Penalty>
1.38438

> <i_epik_Tot_Q>
0

> <i_epik_Tot_abs_Q>
0

> <r_epik_Metal_State_Penalty>
0.00551145

> <b_epik_Metal_Only>
0

> <s_lp_Force_Field>
OPLS_2005

> <r_lp_Energy>
9.11105

> <b_lp_Chiralities_Consistent>
1

> <s_lp_Variant>
AV-unprocessed.smi:1036-3

> <Gold.Version>
5.8.1

> <Gold.Id.Protein>
6NUR|6NUR_protein|mol2

> <Gold.PLP.Fitness>
46.6964

> <Gold.PLP.PLP>
-43.9736

> <Gold.PLP.part.hbond>
-1.0000

> <Gold.PLP.part.metal>
0.0000

> <Gold.PLP.part.buried>
-5.2165

> <Gold.PLP.part.nonpolar>
-37.8261

> <Gold.PLP.part.repulsive>
0.1954

> <Gold.PLP.ligand.clash>
0.0000

> <Gold.PLP.ligand.torsion>
0.1485

> <Gold.PLP.Chemscore.Hbond>
1.0000

> <Gold.PLP.Chemscore.CHOScore>
0.0000

> <Gold.PLP.Chemscore.Metal>
0.0000

> <Gold.Chemscore.Hbonds>
donor molecule, donor type, donor heavy atom, donor atom, acceptor molecule, acceptor atom, score
      P1  H  7997  8008       L1    16  1.00

> <Gold.PLP.Chemscore.Internal.Correction>
0.0197

> <Gold.Rescore>
     Score         DG    S(hbond)    S(metal)    S(lipo)     H(rot)  DE(clash)    DE(int)     intcor
     11.40     -14.22       0.99        0.00     116.81       3.22       0.04       2.78       ----

> <Gold.Chemscore.Fitness>
11.3982

> <Gold.Chemscore.DG>
-14.2244

> <Gold.Chemscore.ZeroCoef>
-5.4800

> <Gold.Chemscore.Hbond>
0.9940

> <Gold.Chemscore.Metal>
0.0000

> <Gold.Chemscore.Lipo>
116.8054

> <Gold.Chemscore.Internal_Hbond>
0.0000

> <Gold.Chemscore.DEClash>
0.0414

> <Gold.Chemscore.DEInternal>
2.7848

> <Gold.Chemscore.Rot>
3.2194

> <Gold.Chemscore.Internal.Correction>
   9.000000E+99

> <Gold.Chemscore.Hbonds>
donor molecule, donor type, donor heavy atom, donor atom, acceptor molecule, acceptor atom, score
      P1  H  7997  8008       L1    16  0.85

> <Gold.Chemscore.Hbond.Weighted>
-3.3198

> <Gold.Chemscore.Metal.Weighted>
-0.0000

> <Gold.Chemscore.Lipo.Weighted>
-13.6662

> <Gold.Chemscore.Internal_Hbond.Weighted>
0.0000

> <Gold.Chemscore.DEClash.Weighted>
0.0414

> <Gold.Chemscore.DEInternal.Weighted>
2.7848

> <Gold.Chemscore.Rot.Weighted>
8.2416

> <Gold.Chemscore.Internal.Correction.Weighted>
   9.000000E+99

> <Gold.Protein.RotatedTorsions>
[ 6907 6896 6895 6894 ] final -175.07 input  -60.11 | X-H torsion
[ 7974 7965 7964 7962 ] final  -26.52 input  175.53 | X-H torsion
[ 8008 7997 7996 7995 ] final  -37.87 input   59.86 | X-H torsion
[ 10167 10162 10161 10158 ] final   27.84 input  -65.29 | X-H torsion
[ 10718 10713 10712 10709 ] final  -99.85 input   66.30 | X-H torsion
[ 10763 10752 10751 10750 ] final  159.69 input  -60.55 | X-H torsion
[ 11005 11000 10999 10996 ] final   67.47 input  -57.11 | X-H torsion

> <Gold.Protein.ActiveResidues>
 VAL166  LYS551  ARG553  GLY616  TRP617  ASP618  TYR619  PRO620  LYS621  CYS622 
 ASP623  PHE694  ASN695  SER759  ASP760  ASP761  ALA762  ILE779  LEU786  VAL792 
 PHE793  MET794  SER795  GLU796  ALA797  LYS798  CYS799  TRP800  GLU811  SER814 

> <Gold.Protein.RotatedAtoms>
  151.5826  133.3376  159.3011 H   0  0  0  0  0  0  0  0  0  0  0  0  # atno 6907 bound_to 6896
  150.8305  134.7559  159.6861 H   0  0  0  0  0  0  0  0  0  0  0  0  # atno 6908 bound_to 6896
  152.4389  134.5637  159.9953 H   0  0  0  0  0  0  0  0  0  0  0  0  # atno 6909 bound_to 6896
  146.1420  140.5030  142.8648 H   0  0  0  0  0  0  0  0  0  0  0  0  # atno 7974 bound_to 7965
  154.4046  140.1593  156.2608 H   0  0  0  0  0  0  0  0  0  0  0  0  # atno 8008 bound_to 7997
  155.9038  140.3431  155.6024 H   0  0  0  0  0  0  0  0  0  0  0  0  # atno 8009 bound_to 7997
  155.7416  140.0793  157.2233 H   0  0  0  0  0  0  0  0  0  0  0  0  # atno 8010 bound_to 7997
  140.4904  144.0476  150.6295 H   0  0  0  0  0  0  0  0  0  0  0  0  # atno 10167 bound_to 10162
  156.0146  130.5301  150.6730 H   0  0  0  0  0  0  0  0  0  0  0  0  # atno 10718 bound_to 10713
  154.2357  135.2776  155.2873 H   0  0  0  0  0  0  0  0  0  0  0  0  # atno 10763 bound_to 10752
  154.5587  135.5653  153.6991 H   0  0  0  0  0  0  0  0  0  0  0  0  # atno 10764 bound_to 10752
  153.0010  135.6292  154.2499 H   0  0  0  0  0  0  0  0  0  0  0  0  # atno 10765 bound_to 10752
  139.9769  134.6807  156.0337 H   0  0  0  0  0  0  0  0  0  0  0  0  # atno 11005 bound_to 11000
  144.7803  140.5826  143.6610 LP  0  0  0  0  0  0  0  0  0  0  0  0  # atno 17320 bound_to 7965
  145.5025  139.1482  143.3649 LP  0  0  0  0  0  0  0  0  0  0  0  0  # atno 17321 bound_to 7965
  140.3744  143.2837  152.0242 LP  0  0  0  0  0  0  0  0  0  0  0  0  # atno 17342 bound_to 10162
  139.4850  144.6205  151.7265 LP  0  0  0  0  0  0  0  0  0  0  0  0  # atno 17343 bound_to 10162
  157.4449  131.0865  151.0906 LP  0  0  0  0  0  0  0  0  0  0  0  0  # atno 17370 bound_to 10713
  157.1439  130.6155  149.5563 LP  0  0  0  0  0  0  0  0  0  0  0  0  # atno 17371 bound_to 10713
  141.1445  133.6558  156.3827 LP  0  0  0  0  0  0  0  0  0  0  0  0  # atno 17394 bound_to 11000
  140.5176  134.6335  157.5307 LP  0  0  0  0  0  0  0  0  0  0  0  0  # atno 17395 bound_to 11000

$$$$
