AV-unprocessed.smi:2711|AV-procd|sdf|10472|dock1
  -GOLD-   2272014513D 1   1.00000     0.00000
 Structure written by MMmdl.
 34 35  0  0  0  0  0  0  0  0  1 V2000
  151.3330  145.6332  160.0836 C   0  0  0  0  0  0  0  0  0  0  0  0
  151.9258  144.2841  159.8548 C   0  0  0  0  0  0  0  0  0  0  0  0
  151.8448  143.5138  158.7199 C   0  0  0  0  0  0  0  0  0  0  0  0
  152.5100  142.2895  158.8181 N   0  0  0  0  0  0  0  0  0  0  0  0
  153.0919  142.1298  160.0115 C   0  0  0  0  0  0  0  0  0  0  0  0
  153.8359  140.9824  160.3935 N   0  0  0  0  0  0  0  0  0  0  0  0
  154.0819  139.8739  159.6736 C   0  0  0  0  0  0  0  0  0  0  0  0
  153.6845  139.6666  158.5266 O   0  0  0  0  0  0  0  0  0  0  0  0
  154.8301  139.0011  160.3651 N   0  0  0  0  0  0  0  0  0  0  0  0
  155.2963  137.7101  159.8613 C   0  0  0  0  0  0  0  0  0  0  0  0
  154.8038  136.5135  160.6968 C   0  0  0  0  0  0  0  0  0  0  0  0
  154.0956  135.6495  160.1761 O   0  0  0  0  0  0  0  0  0  0  0  0
  155.1830  136.4414  161.9897 N   0  0  0  0  0  0  0  0  0  0  0  0
  154.8151  135.3845  162.9320 C   0  0  0  0  0  0  0  0  0  0  0  0
  155.6334  135.6511  164.1964 C   0  0  0  0  0  0  0  0  0  0  0  0
  155.9376  137.1415  164.1394 C   0  0  0  0  0  0  0  0  0  0  0  0
  156.0145  137.4499  162.6442 C   0  0  0  0  0  0  0  0  0  0  0  0
  152.8547  143.4880  161.0998 S   0  0  0  0  0  0  0  0  0  0  0  0
  150.5910  145.8701  159.3204 H   0  0  0  0  0  0  0  0  0  0  0  0
  152.1039  146.4034  160.0553 H   0  0  0  0  0  0  0  0  0  0  0  0
  150.8417  145.6819  161.0556 H   0  0  0  0  0  0  0  0  0  0  0  0
  151.3355  143.7577  157.7993 H   0  0  0  0  0  0  0  0  0  0  0  0
  154.2326  141.0124  161.3210 H   0  0  0  0  0  0  0  0  0  0  0  0
  155.1175  139.2542  161.2989 H   0  0  0  0  0  0  0  0  0  0  0  0
  154.9351  137.5969  158.8390 H   0  0  0  0  0  0  0  0  0  0  0  0
  156.3863  137.7105  159.8138 H   0  0  0  0  0  0  0  0  0  0  0  0
  153.7478  135.4522  163.1470 H   0  0  0  0  0  0  0  0  0  0  0  0
  155.0233  134.3877  162.5415 H   0  0  0  0  0  0  0  0  0  0  0  0
  155.1104  135.3608  165.1081 H   0  0  0  0  0  0  0  0  0  0  0  0
  156.5662  135.0873  164.1530 H   0  0  0  0  0  0  0  0  0  0  0  0
  155.1124  137.6988  164.5850 H   0  0  0  0  0  0  0  0  0  0  0  0
  156.8492  137.4093  164.6745 H   0  0  0  0  0  0  0  0  0  0  0  0
  157.0392  137.3506  162.2835 H   0  0  0  0  0  0  0  0  0  0  0  0
  155.6772  138.4659  162.4322 H   0  0  0  0  0  0  0  0  0  0  0  0
  1  2  1  0  0  0  0
  1 19  1  0  0  0  0
  1 20  1  0  0  0  0
  1 21  1  0  0  0  0
  2 18  1  0  0  0  0
  2  3  2  0  0  0  0
  3  4  1  0  0  0  0
  3 22  1  0  0  0  0
  4  5  2  0  0  0  0
  5  6  1  0  0  0  0
  5 18  1  0  0  0  0
  6  7  1  0  0  0  0
  6 23  1  0  0  0  0
  7  8  2  0  0  0  0
  7  9  1  0  0  0  0
  9 10  1  0  0  0  0
  9 24  1  0  0  0  0
 10 11  1  0  0  0  0
 10 25  1  0  0  0  0
 10 26  1  0  0  0  0
 11 12  2  0  0  0  0
 11 13  1  0  0  0  0
 13 17  1  0  0  0  0
 13 14  1  0  0  0  0
 14 15  1  0  0  0  0
 14 27  1  0  0  0  0
 14 28  1  0  0  0  0
 15 16  1  0  0  0  0
 15 29  1  0  0  0  0
 15 30  1  0  0  0  0
 16 17  1  0  0  0  0
 16 31  1  0  0  0  0
 16 32  1  0  0  0  0
 17 33  1  0  0  0  0
 17 34  1  0  0  0  0
M  END
> <s_m_source_file>
AV-unprocessed.smi

> <i_m_source_file_index>
2711

> <i_lp_mmshare_version>
43012

> <i_f3d_flags>
0

> <s_epik_input>
W0NIM11jMVtjSF1uYyhzMSlbTkhdQyg9TylbTkhdW0NIMl1DKD1PKU4yW0NIMl1bQ0gyXVtDSDJdW0NIMl0y

> <s_epik_cmdline>
J2VwaWtfcHl0aG9uJywgJy1waCcsICc3LjAnLCAnLXRuJywgJzgnLCAnLW1hJywgJzIwMCcsICctbWV0YWxfYmluZGluZycsICctaW1hZScsICc8aW5maWxlLm1hZT4nLCAnLW9tYWUnLCAnPG91dGZpbGUubWFlPic=

> <r_lp_tautomer_probability>
1

> <r_epik_Ionization_Penalty>
0.000145478

> <r_epik_Ionization_Penalty_Charging>
0

> <r_epik_Ionization_Penalty_Neutral>
0.000145478

> <r_epik_State_Penalty>
-0

> <r_epik_Charging_Adjusted_Penalty>
0

> <i_epik_Tot_Q>
0

> <i_epik_Tot_abs_Q>
0

> <r_epik_Metal_State_Penalty>
0.0331427

> <b_epik_Metal_Only>
0

> <s_lp_Force_Field>
OPLS_2005

> <r_lp_Energy>
22.8553

> <b_lp_Chiralities_Consistent>
1

> <s_lp_Variant>
AV-unprocessed.smi:2711-1

> <Gold.Version>
5.8.1

> <Gold.Id.Protein>
6NUR|6NUR_protein|mol2

> <Gold.PLP.Fitness>
41.3271

> <Gold.PLP.PLP>
-35.3315

> <Gold.PLP.part.hbond>
-2.0000

> <Gold.PLP.part.metal>
0.0000

> <Gold.PLP.part.buried>
-3.3388

> <Gold.PLP.part.nonpolar>
-30.6265

> <Gold.PLP.part.repulsive>
0.0590

> <Gold.PLP.ligand.clash>
0.0000

> <Gold.PLP.ligand.torsion>
0.0032

> <Gold.PLP.Chemscore.Hbond>
2.0000

> <Gold.PLP.Chemscore.CHOScore>
0.0000

> <Gold.PLP.Chemscore.Metal>
0.0000

> <Gold.Chemscore.Hbonds>
donor molecule, donor type, donor heavy atom, donor atom, acceptor molecule, acceptor atom, score
      P1  H  6896  6907       L1    12  1.00
      P1  H  7997  8008       L1     8  1.00

> <Gold.PLP.Chemscore.Internal.Correction>
0.0021

> <Gold.Rescore>
     Score         DG    S(hbond)    S(metal)    S(lipo)     H(rot)  DE(clash)    DE(int)     intcor
     15.95     -18.31       1.97        0.00      82.39       1.32       0.02       2.34       ----

> <Gold.Chemscore.Fitness>
15.9451

> <Gold.Chemscore.DG>
-18.3084

> <Gold.Chemscore.ZeroCoef>
-5.4800

> <Gold.Chemscore.Hbond>
1.9678

> <Gold.Chemscore.Metal>
0.0000

> <Gold.Chemscore.Lipo>
82.3934

> <Gold.Chemscore.Internal_Hbond>
0.0000

> <Gold.Chemscore.DEClash>
0.0236

> <Gold.Chemscore.DEInternal>
2.3397

> <Gold.Chemscore.Rot>
1.3219

> <Gold.Chemscore.Internal.Correction>
   9.000000E+99

> <Gold.Chemscore.Hbonds>
donor molecule, donor type, donor heavy atom, donor atom, acceptor molecule, acceptor atom, score
      P1  H  6896  6907       L1    12  1.00
      P1  H  7997  8008       L1     8  0.92

> <Gold.Chemscore.Hbond.Weighted>
-6.5725

> <Gold.Chemscore.Metal.Weighted>
-0.0000

> <Gold.Chemscore.Lipo.Weighted>
-9.6400

> <Gold.Chemscore.Internal_Hbond.Weighted>
0.0000

> <Gold.Chemscore.DEClash.Weighted>
0.0236

> <Gold.Chemscore.DEInternal.Weighted>
2.3397

> <Gold.Chemscore.Rot.Weighted>
3.3841

> <Gold.Chemscore.Internal.Correction.Weighted>
   9.000000E+99

> <Gold.Protein.RotatedTorsions>
[ 6907 6896 6895 6894 ] final   54.11 input  -60.11 | X-H torsion
[ 7974 7965 7964 7962 ] final  -86.39 input  175.53 | X-H torsion
[ 8008 7997 7996 7995 ] final -104.02 input   59.86 | X-H torsion
[ 10167 10162 10161 10158 ] final   -6.82 input  -65.29 | X-H torsion
[ 10718 10713 10712 10709 ] final   45.11 input   66.30 | X-H torsion
[ 10763 10752 10751 10750 ] final  160.63 input  -60.55 | X-H torsion
[ 11005 11000 10999 10996 ] final -177.40 input  -57.11 | X-H torsion

> <Gold.Protein.ActiveResidues>
 VAL166  LYS551  ARG553  GLY616  TRP617  ASP618  TYR619  PRO620  LYS621  CYS622 
 ASP623  PHE694  ASN695  SER759  ASP760  ASP761  ALA762  ILE779  LEU786  VAL792 
 PHE793  MET794  SER795  GLU796  ALA797  LYS798  CYS799  TRP800  GLU811  SER814 

> <Gold.Protein.RotatedAtoms>
  152.3406  134.7140  160.0264 H   0  0  0  0  0  0  0  0  0  0  0  0  # atno 6907 bound_to 6896
  151.7526  133.3323  159.3404 H   0  0  0  0  0  0  0  0  0  0  0  0  # atno 6908 bound_to 6896
  150.7477  134.6111  159.6131 H   0  0  0  0  0  0  0  0  0  0  0  0  # atno 6909 bound_to 6896
  145.4806  140.9557  143.1867 H   0  0  0  0  0  0  0  0  0  0  0  0  # atno 7974 bound_to 7965
  154.8792  140.0420  157.1772 H   0  0  0  0  0  0  0  0  0  0  0  0  # atno 8008 bound_to 7997
  154.8657  140.2950  155.5491 H   0  0  0  0  0  0  0  0  0  0  0  0  # atno 8009 bound_to 7997
  156.2999  140.2438  156.3638 H   0  0  0  0  0  0  0  0  0  0  0  0  # atno 8010 bound_to 7997
  140.7009  143.6150  150.8667 H   0  0  0  0  0  0  0  0  0  0  0  0  # atno 10167 bound_to 10162
  157.4340  130.8042  149.7630 H   0  0  0  0  0  0  0  0  0  0  0  0  # atno 10718 bound_to 10713
  154.2505  135.2771  155.2818 H   0  0  0  0  0  0  0  0  0  0  0  0  # atno 10763 bound_to 10752
  154.5469  135.5686  153.6891 H   0  0  0  0  0  0  0  0  0  0  0  0  # atno 10764 bound_to 10752
  152.9981  135.6265  154.2651 H   0  0  0  0  0  0  0  0  0  0  0  0  # atno 10765 bound_to 10752
  140.4413  134.6428  157.4759 H   0  0  0  0  0  0  0  0  0  0  0  0  # atno 11005 bound_to 11000
  144.7891  139.6365  143.7121 LP  0  0  0  0  0  0  0  0  0  0  0  0  # atno 17320 bound_to 7965
  146.2343  139.5875  142.9534 LP  0  0  0  0  0  0  0  0  0  0  0  0  # atno 17321 bound_to 7965
  139.9872  143.5886  152.2922 LP  0  0  0  0  0  0  0  0  0  0  0  0  # atno 17342 bound_to 10162
  139.6528  144.7661  151.2114 LP  0  0  0  0  0  0  0  0  0  0  0  0  # atno 17343 bound_to 10162
  155.9924  130.3931  150.2945 LP  0  0  0  0  0  0  0  0  0  0  0  0  # atno 17370 bound_to 10713
  157.1104  131.0220  151.3050 LP  0  0  0  0  0  0  0  0  0  0  0  0  # atno 17371 bound_to 10713
  140.0068  134.6752  155.9443 LP  0  0  0  0  0  0  0  0  0  0  0  0  # atno 17394 bound_to 11000
  141.1704  133.6537  156.4631 LP  0  0  0  0  0  0  0  0  0  0  0  0  # atno 17395 bound_to 11000

$$$$
