AV-unprocessed.smi:36|AV-procd|sdf|291|dock9
  -GOLD-   2262016 83D 1   1.00000     0.00000
 Structure written by MMmdl.
 64 67  0  0  0  0  0  0  0  0  1 V2000
  145.9611  135.2077  162.3470 C   0  0  0  0  0  0  0  0  0  0  0  0
  146.8266  135.2138  161.0759 C   0  0  0  0  0  0  0  0  0  0  0  0
  147.9142  136.2953  161.1964 C   0  0  0  0  0  0  0  0  0  0  0  0
  147.4777  133.8345  160.8791 C   0  0  0  0  0  0  0  0  0  0  0  0
  145.7223  135.6149  159.5701 Si  0  0  0  0  0  0  0  0  0  0  0  0
  144.3707  134.2952  159.3500 C   0  0  0  0  0  0  0  0  0  0  0  0
  144.9180  137.3272  159.7399 C   0  0  0  0  0  0  0  0  0  0  0  0
  146.7137  135.6389  158.1973 O   0  0  0  0  0  0  0  0  0  0  0  0
  147.5378  134.5652  157.7906 C   0  0  0  0  0  0  0  0  0  0  0  0
  148.9024  135.1182  157.3506 C   0  0  2  0  0  0  0  0  0  0  0  0
  148.7591  136.0531  156.2887 O   0  0  0  0  0  0  0  0  0  0  0  0
  149.9660  136.1713  155.5966 C   0  0  1  0  0  0  0  0  0  0  0  0
  150.6299  137.4521  155.9965 N   0  0  0  0  0  0  0  0  0  0  0  0
  150.9353  138.5136  155.2233 C   0  0  0  0  0  0  0  0  0  0  0  0
  151.5281  139.5252  155.8533 N   0  0  0  0  0  0  0  0  0  0  0  0
  151.6130  139.0614  157.1620 C   0  0  0  0  0  0  0  0  0  0  0  0
  152.1748  139.7010  158.3719 C   0  0  0  0  0  0  0  0  0  0  0  0
  152.6744  140.8935  158.2483 N   0  0  0  0  0  0  0  0  0  0  0  0
  153.2337  141.5330  159.3477 C   0  0  0  0  0  0  0  0  0  0  0  0
  153.9816  141.0681  160.2125 O   0  0  0  0  0  0  0  0  0  0  0  0
  152.7799  142.9491  159.5038 C   0  0  0  0  0  0  0  0  0  0  0  0
  152.7542  143.5516  160.7801 C   0  0  0  0  0  0  0  0  0  0  0  0
  152.3283  144.8867  160.9228 C   0  0  0  0  0  0  0  0  0  0  0  0
  151.9257  145.6232  159.7920 C   0  0  0  0  0  0  0  0  0  0  0  0
  151.9495  145.0251  158.5172 C   0  0  0  0  0  0  0  0  0  0  0  0
  152.3771  143.6907  158.3726 C   0  0  0  0  0  0  0  0  0  0  0  0
  152.0428  138.8399  159.4692 N   0  0  0  0  0  0  0  0  0  0  0  0
  151.4610  137.5629  159.4489 C   0  0  0  0  0  0  0  0  0  0  0  0
  150.9588  136.9874  158.3892 N   0  0  0  0  0  0  0  0  0  0  0  0
  151.0711  137.7989  157.2691 C   0  0  0  0  0  0  0  0  0  0  0  0
  150.8466  134.9763  155.9943 C   0  0  0  0  0  0  0  0  0  0  0  0
  149.8942  134.0970  156.7855 C   0  0  2  0  0  0  0  0  0  0  0  0
  149.2610  133.1538  155.9415 O   0  0  0  0  0  0  0  0  0  0  0  0
  146.5612  135.0040  163.2343 H   0  0  0  0  0  0  0  0  0  0  0  0
  145.1829  134.4459  162.2956 H   0  0  0  0  0  0  0  0  0  0  0  0
  145.4698  136.1698  162.4958 H   0  0  0  0  0  0  0  0  0  0  0  0
  147.4753  137.2865  161.3169 H   0  0  0  0  0  0  0  0  0  0  0  0
  148.5491  136.3236  160.3107 H   0  0  0  0  0  0  0  0  0  0  0  0
  148.5600  136.1149  162.0563 H   0  0  0  0  0  0  0  0  0  0  0  0
  148.1163  133.5740  161.7238 H   0  0  0  0  0  0  0  0  0  0  0  0
  148.0960  133.8112  159.9813 H   0  0  0  0  0  0  0  0  0  0  0  0
  146.7260  133.0507  160.7819 H   0  0  0  0  0  0  0  0  0  0  0  0
  143.6872  134.2800  160.1985 H   0  0  0  0  0  0  0  0  0  0  0  0
  144.7936  133.2950  159.2594 H   0  0  0  0  0  0  0  0  0  0  0  0
  143.7725  134.4770  158.4574 H   0  0  0  0  0  0  0  0  0  0  0  0
  144.2792  137.3849  160.6210 H   0  0  0  0  0  0  0  0  0  0  0  0
  144.3001  137.5649  158.8744 H   0  0  0  0  0  0  0  0  0  0  0  0
  145.6665  138.1142  159.8280 H   0  0  0  0  0  0  0  0  0  0  0  0
  147.6591  133.8681  158.6204 H   0  0  0  0  0  0  0  0  0  0  0  0
  147.0525  134.0212  156.9801 H   0  0  0  0  0  0  0  0  0  0  0  0
  149.3818  135.6254  158.1883 H   0  0  0  0  0  0  0  0  0  0  0  0
  149.7909  136.2634  154.5241 H   0  0  0  0  0  0  0  0  0  0  0  0
  150.7202  138.5506  154.1657 H   0  0  0  0  0  0  0  0  0  0  0  0
  153.0631  142.9944  161.6527 H   0  0  0  0  0  0  0  0  0  0  0  0
  152.3109  145.3460  161.9003 H   0  0  0  0  0  0  0  0  0  0  0  0
  151.5988  146.6467  159.9024 H   0  0  0  0  0  0  0  0  0  0  0  0
  151.6407  145.5894  157.6497 H   0  0  0  0  0  0  0  0  0  0  0  0
  152.3934  143.2399  157.3908 H   0  0  0  0  0  0  0  0  0  0  0  0
  151.4562  137.0627  160.4184 H   0  0  0  0  0  0  0  0  0  0  0  0
  151.2705  134.4904  155.1146 H   0  0  0  0  0  0  0  0  0  0  0  0
  151.6659  135.3132  156.6318 H   0  0  0  0  0  0  0  0  0  0  0  0
  150.4091  133.5556  157.5795 H   0  0  0  0  0  0  0  0  0  0  0  0
  149.0643  132.3805  156.4477 H   0  0  0  0  0  0  0  0  0  0  0  0
  152.3951  139.1711  160.3559 H   0  0  0  0  0  0  0  0  0  0  0  0
  1  2  1  0  0  0  0
  1 34  1  0  0  0  0
  1 35  1  0  0  0  0
  1 36  1  0  0  0  0
  2  3  1  0  0  0  0
  2  4  1  0  0  0  0
  2  5  1  0  0  0  0
  3 37  1  0  0  0  0
  3 38  1  0  0  0  0
  3 39  1  0  0  0  0
  4 40  1  0  0  0  0
  4 41  1  0  0  0  0
  4 42  1  0  0  0  0
  5  6  1  0  0  0  0
  5  7  1  0  0  0  0
  5  8  1  0  0  0  0
  6 43  1  0  0  0  0
  6 44  1  0  0  0  0
  6 45  1  0  0  0  0
  7 46  1  0  0  0  0
  7 47  1  0  0  0  0
  7 48  1  0  0  0  0
  8  9  1  0  0  0  0
  9 10  1  0  0  0  0
  9 49  1  0  0  0  0
  9 50  1  0  0  0  0
 10 32  1  0  0  0  0
 10 11  1  0  0  0  0
 10 51  1  0  0  0  0
 11 12  1  0  0  0  0
 12 13  1  0  0  0  0
 12 31  1  0  0  0  0
 12 52  1  0  0  0  0
 13 30  1  0  0  0  0
 13 14  1  0  0  0  0
 14 15  2  0  0  0  0
 14 53  1  0  0  0  0
 15 16  1  0  0  0  0
 16 30  2  0  0  0  0
 16 17  1  0  0  0  0
 17 18  2  0  0  0  0
 17 27  1  0  0  0  0
 18 19  1  0  0  0  0
 19 20  2  0  0  0  0
 19 21  1  0  0  0  0
 21 26  1  0  0  0  0
 21 22  2  0  0  0  0
 22 23  1  0  0  0  0
 22 54  1  0  0  0  0
 23 24  2  0  0  0  0
 23 55  1  0  0  0  0
 24 25  1  0  0  0  0
 24 56  1  0  0  0  0
 25 26  2  0  0  0  0
 25 57  1  0  0  0  0
 26 58  1  0  0  0  0
 27 28  1  0  0  0  0
 27 64  1  0  0  0  0
 28 29  2  0  0  0  0
 28 59  1  0  0  0  0
 29 30  1  0  0  0  0
 31 32  1  0  0  0  0
 31 60  1  0  0  0  0
 31 61  1  0  0  0  0
 32 33  1  0  0  0  0
 32 62  1  0  0  0  0
 33 63  1  0  0  0  0
M  END
> <s_m_source_file>
AV-unprocessed.smi

> <i_m_source_file_index>
36

> <i_lp_mmshare_version>
43012

> <i_f3d_flags>
0

> <s_epik_input>
W0NIM11DKFtDSDNdKShbQ0gzXSlbU2ldKFtDSDNdKShbQ0gzXSlPW0NIMl1bQ0BASF0xT1tDQEhdKFtDSDJdW0NASF0xW09IXSluKFtjSF1uMiljKGMyMyluW2NIXW5jM1tOSF1DKD1PKWM0W2NIXVtjSF1bY0hdW2NIXVtjSF00

> <s_epik_cmdline>
J2VwaWtfcHl0aG9uJywgJy1waCcsICc3LjAnLCAnLXRuJywgJzgnLCAnLW1hJywgJzIwMCcsICctbWV0YWxfYmluZGluZycsICctaW1hZScsICc8aW5maWxlLm1hZT4nLCAnLW9tYWUnLCAnPG91dGZpbGUubWFlPic=

> <r_epik_Ionization_Penalty>
0.0850405

> <r_epik_Ionization_Penalty_Charging>
0.0850403

> <r_epik_Ionization_Penalty_Neutral>
1.47497e-07

> <r_epik_State_Penalty>
2.6133

> <r_epik_Charging_Adjusted_Penalty>
2.69834

> <i_epik_Tot_Q>
0

> <i_epik_Tot_abs_Q>
0

> <r_epik_Metal_State_Penalty>
2.92945

> <b_epik_Metal_Only>
0

> <s_epik_Chemistry_Notes>
This compound contains an acetal/aminal-like group ( X-CH(R)-Y where X, Y are N, S, or O) that may be acid/base labile, releasing an aldehyde.

> <s_lp_Force_Field>
OPLS_2005

> <r_lp_Energy>
50.6146

> <b_lp_Chiralities_Consistent>
1

> <s_lp_Variant>
AV-unprocessed.smi:36-13

> <Gold.Version>
5.8.1

> <Gold.Id.Protein>
6NUR|6NUR_protein|mol2

> <Gold.PLP.Fitness>
47.5268

> <Gold.PLP.PLP>
-49.4671

> <Gold.PLP.part.hbond>
-0.7093

> <Gold.PLP.part.metal>
0.0000

> <Gold.PLP.part.buried>
-7.4051

> <Gold.PLP.part.nonpolar>
-41.9511

> <Gold.PLP.part.repulsive>
0.1481

> <Gold.PLP.ligand.clash>
0.0000

> <Gold.PLP.ligand.torsion>
1.0093

> <Gold.PLP.Chemscore.Hbond>
0.0000

> <Gold.PLP.Chemscore.CHOScore>
0.0000

> <Gold.PLP.Chemscore.Metal>
0.0000

> <Gold.PLP.Chemscore.Internal.Correction>
0.0782

> <Gold.Rescore>
     Score         DG    S(hbond)    S(metal)    S(lipo)     H(rot)  DE(clash)    DE(int)     intcor
     11.09     -13.24       0.00        0.00     125.50       2.70       0.14       2.02       ----

> <Gold.Chemscore.Fitness>
11.0905

> <Gold.Chemscore.DG>
-13.2440

> <Gold.Chemscore.ZeroCoef>
-5.4800

> <Gold.Chemscore.Hbond>
0.0009

> <Gold.Chemscore.Metal>
0.0000

> <Gold.Chemscore.Lipo>
125.4986

> <Gold.Chemscore.Internal_Hbond>
0.0000

> <Gold.Chemscore.DEClash>
0.1363

> <Gold.Chemscore.DEInternal>
2.0172

> <Gold.Chemscore.Rot>
2.7041

> <Gold.Chemscore.Internal.Correction>
   9.000000E+99

> <Gold.Chemscore.Hbond.Weighted>
-0.0031

> <Gold.Chemscore.Metal.Weighted>
-0.0000

> <Gold.Chemscore.Lipo.Weighted>
-14.6833

> <Gold.Chemscore.Internal_Hbond.Weighted>
0.0000

> <Gold.Chemscore.DEClash.Weighted>
0.1363

> <Gold.Chemscore.DEInternal.Weighted>
2.0172

> <Gold.Chemscore.Rot.Weighted>
6.9225

> <Gold.Chemscore.Internal.Correction.Weighted>
   9.000000E+99

> <Gold.Protein.RotatedTorsions>
[ 6907 6896 6895 6894 ] final   32.93 input  -60.11 | X-H torsion
[ 7974 7965 7964 7962 ] final  153.20 input  175.53 | X-H torsion
[ 8008 7997 7996 7995 ] final  -43.62 input   59.86 | X-H torsion
[ 10167 10162 10161 10158 ] final  -22.30 input  -65.29 | X-H torsion
[ 10718 10713 10712 10709 ] final  178.28 input   66.30 | X-H torsion
[ 10763 10752 10751 10750 ] final   20.15 input  -60.55 | X-H torsion
[ 11005 11000 10999 10996 ] final  -66.58 input  -57.11 | X-H torsion

> <Gold.Protein.ActiveResidues>
 VAL166  LYS551  ARG553  GLY616  TRP617  ASP618  TYR619  PRO620  LYS621  CYS622 
 ASP623  PHE694  ASN695  SER759  ASP760  ASP761  ALA762  ILE779  LEU786  VAL792 
 PHE793  MET794  SER795  GLU796  ALA797  LYS798  CYS799  TRP800  GLU811  SER814 

> <Gold.Protein.RotatedAtoms>
  152.0813  134.9469  160.0573 H   0  0  0  0  0  0  0  0  0  0  0  0  # atno 6907 bound_to 6896
  152.0756  133.4123  159.4487 H   0  0  0  0  0  0  0  0  0  0  0  0  # atno 6908 bound_to 6896
  150.6836  134.2961  159.4730 H   0  0  0  0  0  0  0  0  0  0  0  0  # atno 6909 bound_to 6896
  144.8170  139.6769  143.6117 H   0  0  0  0  0  0  0  0  0  0  0  0  # atno 7974 bound_to 7965
  154.3997  140.1443  156.3549 H   0  0  0  0  0  0  0  0  0  0  0  0  # atno 8008 bound_to 7997
  155.8235  140.3468  155.5507 H   0  0  0  0  0  0  0  0  0  0  0  0  # atno 8009 bound_to 7997
  155.8263  140.0905  157.1809 H   0  0  0  0  0  0  0  0  0  0  0  0  # atno 8010 bound_to 7997
  140.7285  143.4547  151.0465 H   0  0  0  0  0  0  0  0  0  0  0  0  # atno 10167 bound_to 10162
  156.8929  130.9853  151.3047 H   0  0  0  0  0  0  0  0  0  0  0  0  # atno 10718 bound_to 10713
  153.1101  135.6694  153.9515 H   0  0  0  0  0  0  0  0  0  0  0  0  # atno 10763 bound_to 10752
  153.9061  135.3030  155.3450 H   0  0  0  0  0  0  0  0  0  0  0  0  # atno 10764 bound_to 10752
  154.7521  135.5029  153.9385 H   0  0  0  0  0  0  0  0  0  0  0  0  # atno 10765 bound_to 10752
  141.1486  133.6702  156.6161 H   0  0  0  0  0  0  0  0  0  0  0  0  # atno 11005 bound_to 11000
  146.2474  139.6127  142.9450 LP  0  0  0  0  0  0  0  0  0  0  0  0  # atno 17320 bound_to 7965
  145.5190  141.0432  143.2445 LP  0  0  0  0  0  0  0  0  0  0  0  0  # atno 17321 bound_to 7965
  139.8226  143.7799  152.3177 LP  0  0  0  0  0  0  0  0  0  0  0  0  # atno 17342 bound_to 10162
  139.7887  144.7418  150.9986 LP  0  0  0  0  0  0  0  0  0  0  0  0  # atno 17343 bound_to 10162
  157.6073  130.8556  149.8895 LP  0  0  0  0  0  0  0  0  0  0  0  0  # atno 17370 bound_to 10713
  156.0620  130.3698  150.0961 LP  0  0  0  0  0  0  0  0  0  0  0  0  # atno 17371 bound_to 10713
  140.3576  134.7715  157.4511 LP  0  0  0  0  0  0  0  0  0  0  0  0  # atno 17394 bound_to 11000
  140.0810  134.5731  155.8540 LP  0  0  0  0  0  0  0  0  0  0  0  0  # atno 17395 bound_to 11000

$$$$
