AV-unprocessed.smi:1988|AV-procd|sdf|8058|dock2
  -GOLD-   2272010263D 1   1.00000     0.00000
 Structure written by MMmdl.
 37 38  0  0  0  0  0  0  0  0  1 V2000
  152.9546  138.6673  154.6023 C   0  0  0  0  0  0  0  0  0  0  0  0
  151.6014  138.9045  155.2090 C   0  0  0  0  0  0  0  0  0  0  0  0
  150.8256  139.8532  154.7127 N   0  0  0  0  0  0  0  0  0  0  0  0
  149.6617  139.8415  155.4869 O   0  0  0  0  0  0  0  0  0  0  0  0
  149.7853  138.8759  156.4326 C   0  0  0  0  0  0  0  0  0  0  0  0
  148.6446  138.7116  157.3790 C   0  0  0  0  0  0  0  0  0  0  0  0
  150.9904  138.2405  156.3123 C   0  0  0  0  0  0  0  0  0  0  0  0
  151.5472  137.1227  157.1559 C   0  0  0  0  0  0  0  0  0  0  0  0
  151.8771  137.6668  158.5442 C   0  0  0  0  0  0  0  0  0  0  0  0
  151.3452  137.1752  159.5394 O   0  0  0  0  0  0  0  0  0  0  0  0
  152.7256  138.7056  158.5894 N   0  0  0  0  0  0  0  0  0  0  0  0
  153.0654  139.4704  159.7843 C   0  0  0  0  0  0  0  0  0  0  0  0
  153.0396  140.9854  159.5042 C   0  0  2  0  0  0  0  0  0  0  0  0
  153.2534  141.8230  160.7798 C   0  0  0  0  0  0  0  0  0  0  0  0
  152.9603  143.2916  160.4563 C   0  0  0  0  0  0  0  0  0  0  0  0
  151.6180  143.2647  159.2105 S   0  0  0  0  0  0  0  0  0  0  0  0
  150.3301  143.5280  159.8700 O   0  0  0  0  0  0  0  0  0  0  0  0
  152.0408  144.0417  158.0357 O   0  0  0  0  0  0  0  0  0  0  0  0
  151.7410  141.4750  158.8382 C   0  0  0  0  0  0  0  0  0  0  0  0
  153.2481  137.6214  154.6870 H   0  0  0  0  0  0  0  0  0  0  0  0
  153.7146  139.2672  155.1034 H   0  0  0  0  0  0  0  0  0  0  0  0
  152.9697  138.9276  153.5436 H   0  0  0  0  0  0  0  0  0  0  0  0
  148.9480  138.9696  158.3936 H   0  0  0  0  0  0  0  0  0  0  0  0
  148.2927  137.6801  157.3836 H   0  0  0  0  0  0  0  0  0  0  0  0
  147.8073  139.3531  157.1030 H   0  0  0  0  0  0  0  0  0  0  0  0
  150.8321  136.3056  157.2582 H   0  0  0  0  0  0  0  0  0  0  0  0
  152.4415  136.6871  156.7085 H   0  0  0  0  0  0  0  0  0  0  0  0
  153.1151  139.0323  157.7168 H   0  0  0  0  0  0  0  0  0  0  0  0
  152.4005  139.2230  160.6136 H   0  0  0  0  0  0  0  0  0  0  0  0
  154.0662  139.1729  160.0981 H   0  0  0  0  0  0  0  0  0  0  0  0
  153.8604  141.2215  158.8249 H   0  0  0  0  0  0  0  0  0  0  0  0
  152.5580  141.4869  161.5502 H   0  0  0  0  0  0  0  0  0  0  0  0
  154.2590  141.6982  161.1828 H   0  0  0  0  0  0  0  0  0  0  0  0
  152.6560  143.8704  161.3286 H   0  0  0  0  0  0  0  0  0  0  0  0
  153.8298  143.7697  160.0047 H   0  0  0  0  0  0  0  0  0  0  0  0
  151.7256  141.3153  157.7599 H   0  0  0  0  0  0  0  0  0  0  0  0
  150.8688  140.9851  159.2722 H   0  0  0  0  0  0  0  0  0  0  0  0
  1  2  1  0  0  0  0
  1 20  1  0  0  0  0
  1 21  1  0  0  0  0
  1 22  1  0  0  0  0
  2  7  1  0  0  0  0
  2  3  2  0  0  0  0
  3  4  1  0  0  0  0
  4  5  1  0  0  0  0
  5  6  1  0  0  0  0
  5  7  2  0  0  0  0
  6 23  1  0  0  0  0
  6 24  1  0  0  0  0
  6 25  1  0  0  0  0
  7  8  1  0  0  0  0
  8  9  1  0  0  0  0
  8 26  1  0  0  0  0
  8 27  1  0  0  0  0
  9 10  2  0  0  0  0
  9 11  1  0  0  0  0
 11 12  1  0  0  0  0
 11 28  1  0  0  0  0
 12 13  1  0  0  0  0
 12 29  1  0  0  0  0
 12 30  1  0  0  0  0
 13 19  1  0  0  0  0
 13 14  1  0  0  0  0
 13 31  1  0  0  0  0
 14 15  1  0  0  0  0
 14 32  1  0  0  0  0
 14 33  1  0  0  0  0
 15 16  1  0  0  0  0
 15 34  1  0  0  0  0
 15 35  1  0  0  0  0
 16 17  2  0  0  0  0
 16 18  2  0  0  0  0
 16 19  1  0  0  0  0
 19 36  1  0  0  0  0
 19 37  1  0  0  0  0
M  END
> <s_m_source_file>
AV-unprocessed.smi

> <i_m_source_file_index>
1988

> <i_lp_mmshare_version>
43012

> <i_f3d_flags>
0

> <s_epik_input>
W0NIM11jMW5vYyhbQ0gzXSljMVtDSDJdQyg9TylbTkhdW0NIMl1bQ0BASF0oW0NIMl0yKVtDSDJdW0NIMl1TMig9Tyk9Tw==

> <s_epik_cmdline>
J2VwaWtfcHl0aG9uJywgJy1waCcsICc3LjAnLCAnLXRuJywgJzgnLCAnLW1hJywgJzIwMCcsICctbWV0YWxfYmluZGluZycsICctaW1hZScsICc8aW5maWxlLm1hZT4nLCAnLW9tYWUnLCAnPG91dGZpbGUubWFlPic=

> <r_lp_tautomer_probability>
1

> <r_epik_Ionization_Penalty>
2.7503e-08

> <r_epik_Ionization_Penalty_Charging>
0

> <r_epik_Ionization_Penalty_Neutral>
2.7503e-08

> <r_epik_State_Penalty>
-0

> <r_epik_Charging_Adjusted_Penalty>
0

> <i_epik_Tot_Q>
0

> <i_epik_Tot_abs_Q>
0

> <r_epik_Metal_State_Penalty>
-0

> <b_epik_Metal_Only>
0

> <s_lp_Force_Field>
OPLS_2005

> <r_lp_Energy>
-3.10021

> <b_lp_Chiralities_Consistent>
1

> <s_lp_Variant>
AV-unprocessed.smi:1988-1

> <Gold.Version>
5.8.1

> <Gold.Id.Protein>
6NUR|6NUR_protein|mol2

> <Gold.PLP.Fitness>
36.5376

> <Gold.PLP.PLP>
-30.9670

> <Gold.PLP.part.hbond>
-3.0000

> <Gold.PLP.part.metal>
0.0000

> <Gold.PLP.part.buried>
-7.0097

> <Gold.PLP.part.nonpolar>
-22.3205

> <Gold.PLP.part.repulsive>
0.3708

> <Gold.PLP.ligand.clash>
0.0000

> <Gold.PLP.ligand.torsion>
0.2245

> <Gold.PLP.Chemscore.Hbond>
2.0000

> <Gold.PLP.Chemscore.CHOScore>
0.0000

> <Gold.PLP.Chemscore.Metal>
0.0000

> <Gold.Chemscore.Hbonds>
donor molecule, donor type, donor heavy atom, donor atom, acceptor molecule, acceptor atom, score
      P1  H  6896  6907       L1    10  0.91
      P1  H  7989  7998       L1     3  1.00

> <Gold.PLP.Chemscore.Internal.Correction>
0.0196

> <Gold.Rescore>
     Score         DG    S(hbond)    S(metal)    S(lipo)     H(rot)  DE(clash)    DE(int)     intcor
     16.90     -17.01       2.10        0.00      75.71       1.70       0.00       0.10       ----

> <Gold.Chemscore.Fitness>
16.9047

> <Gold.Chemscore.DG>
-17.0086

> <Gold.Chemscore.ZeroCoef>
-5.4800

> <Gold.Chemscore.Hbond>
2.0995

> <Gold.Chemscore.Metal>
0.0000

> <Gold.Chemscore.Lipo>
75.7061

> <Gold.Chemscore.Internal_Hbond>
0.0000

> <Gold.Chemscore.DEClash>
0.0038

> <Gold.Chemscore.DEInternal>
0.1001

> <Gold.Chemscore.Rot>
1.6958

> <Gold.Chemscore.Internal.Correction>
   9.000000E+99

> <Gold.Chemscore.Hbonds>
donor molecule, donor type, donor heavy atom, donor atom, acceptor molecule, acceptor atom, score
      P1  H  6896  6907       L1    10  0.87
      P1  H  7989  7998       L1     3  0.88

> <Gold.Chemscore.Hbond.Weighted>
-7.0122

> <Gold.Chemscore.Metal.Weighted>
-0.0000

> <Gold.Chemscore.Lipo.Weighted>
-8.8576

> <Gold.Chemscore.Internal_Hbond.Weighted>
0.0000

> <Gold.Chemscore.DEClash.Weighted>
0.0038

> <Gold.Chemscore.DEInternal.Weighted>
0.1001

> <Gold.Chemscore.Rot.Weighted>
4.3413

> <Gold.Chemscore.Internal.Correction.Weighted>
   9.000000E+99

> <Gold.Protein.RotatedTorsions>
[ 6907 6896 6895 6894 ] final    0.52 input  -60.11 | X-H torsion
[ 7974 7965 7964 7962 ] final  102.38 input  175.53 | X-H torsion
[ 8008 7997 7996 7995 ] final -124.88 input   59.86 | X-H torsion
[ 10167 10162 10161 10158 ] final  117.64 input  -65.29 | X-H torsion
[ 10718 10713 10712 10709 ] final  -25.29 input   66.30 | X-H torsion
[ 10763 10752 10751 10750 ] final   96.74 input  -60.55 | X-H torsion
[ 11005 11000 10999 10996 ] final  -18.61 input  -57.11 | X-H torsion

> <Gold.Protein.ActiveResidues>
 VAL166  LYS551  ARG553  GLY616  TRP617  ASP618  TYR619  PRO620  LYS621  CYS622 
 ASP623  PHE694  ASN695  SER759  ASP760  ASP761  ALA762  ILE779  LEU786  VAL792 
 PHE793  MET794  SER795  GLU796  ALA797  LYS798  CYS799  TRP800  GLU811  SER814 

> <Gold.Protein.RotatedAtoms>
  151.5777  135.1060  160.0009 H   0  0  0  0  0  0  0  0  0  0  0  0  # atno 6907 bound_to 6896
  152.4369  133.7374  159.6632 H   0  0  0  0  0  0  0  0  0  0  0  0  # atno 6908 bound_to 6896
  150.8269  133.8087  159.3138 H   0  0  0  0  0  0  0  0  0  0  0  0  # atno 6909 bound_to 6896
  145.3598  139.2420  143.3513 H   0  0  0  0  0  0  0  0  0  0  0  0  # atno 7974 bound_to 7965
  155.2042  140.0417  157.2922 H   0  0  0  0  0  0  0  0  0  0  0  0  # atno 8008 bound_to 7997
  154.6054  140.2463  155.7709 H   0  0  0  0  0  0  0  0  0  0  0  0  # atno 8009 bound_to 7997
  156.2347  140.2926  156.0290 H   0  0  0  0  0  0  0  0  0  0  0  0  # atno 8010 bound_to 7997
  139.6165  144.7093  151.2729 H   0  0  0  0  0  0  0  0  0  0  0  0  # atno 10167 bound_to 10162
  156.4663  130.4515  149.6897 H   0  0  0  0  0  0  0  0  0  0  0  0  # atno 10718 bound_to 10713
  153.2685  135.4208  155.0964 H   0  0  0  0  0  0  0  0  0  0  0  0  # atno 10763 bound_to 10752
  154.8447  135.3466  154.6277 H   0  0  0  0  0  0  0  0  0  0  0  0  # atno 10764 bound_to 10752
  153.6697  135.7044  153.5208 H   0  0  0  0  0  0  0  0  0  0  0  0  # atno 10765 bound_to 10752
  140.8285  133.8015  155.9733 H   0  0  0  0  0  0  0  0  0  0  0  0  # atno 11005 bound_to 11000
  146.2932  140.4230  142.8731 LP  0  0  0  0  0  0  0  0  0  0  0  0  # atno 17320 bound_to 7965
  144.8655  140.7199  143.6080 LP  0  0  0  0  0  0  0  0  0  0  0  0  # atno 17321 bound_to 7965
  140.7354  143.6738  150.8059 LP  0  0  0  0  0  0  0  0  0  0  0  0  # atno 17342 bound_to 10162
  140.0341  143.5413  152.2747 LP  0  0  0  0  0  0  0  0  0  0  0  0  # atno 17343 bound_to 10162
  156.3664  130.7508  151.2486 LP  0  0  0  0  0  0  0  0  0  0  0  0  # atno 17370 bound_to 10713
  157.7494  131.0335  150.4277 LP  0  0  0  0  0  0  0  0  0  0  0  0  # atno 17371 bound_to 10713
  140.9024  134.2362  157.5034 LP  0  0  0  0  0  0  0  0  0  0  0  0  # atno 17394 bound_to 11000
  139.8705  134.9712  156.4730 LP  0  0  0  0  0  0  0  0  0  0  0  0  # atno 17395 bound_to 11000

$$$$
