AV-unprocessed.smi:286|AV-procd|sdf|2175|dock9
  -GOLD-   2262021533D 1   1.00000     0.00000
 Structure written by MMmdl.
 46 48  0  0  0  0  0  0  0  0  1 V2000
  153.0081  139.2005  156.0479 O   0  0  0  0  0  0  0  0  0  0  0  0
  151.9108  139.5237  155.5897 C   0  0  0  0  0  0  0  0  0  0  0  0
  151.2615  138.8186  154.4908 C   0  0  0  0  0  0  0  0  0  0  0  0
  151.8472  137.7324  153.9588 F   0  0  0  0  0  0  0  0  0  0  0  0
  150.0763  139.2380  153.9976 C   0  0  0  0  0  0  0  0  0  0  0  0
  149.4065  140.3505  154.4745 N   0  0  0  0  0  0  0  0  0  0  0  0
  148.0693  140.7139  153.8660 C   0  0  2  0  0  0  0  0  0  0  0  0
  147.8750  142.2228  153.6527 C   0  0  0  0  0  0  0  0  0  0  0  0
  146.3946  142.3706  153.9303 C   0  0  0  0  0  0  0  0  0  0  0  0
  146.1713  141.3355  155.0278 C   0  0  0  0  0  0  0  0  0  0  0  0
  147.0449  140.2577  154.7015 O   0  0  0  0  0  0  0  0  0  0  0  0
  149.9420  141.0714  155.5683 C   0  0  0  0  0  0  0  0  0  0  0  0
  149.3553  142.0471  156.0389 O   0  0  0  0  0  0  0  0  0  0  0  0
  151.1804  140.6289  156.0920 N   0  0  0  0  0  0  0  0  0  0  0  0
  151.7683  141.3839  157.1870 C   0  0  0  0  0  0  0  0  0  0  0  0
  150.9160  141.3329  158.4812 C   0  0  1  0  0  0  0  0  0  0  0  0
  151.4273  140.2569  159.2456 O   0  0  0  0  0  0  0  0  0  0  0  0
  150.9866  142.6261  159.3394 C   0  0  0  0  0  0  0  0  0  0  0  0
  150.6083  143.8878  158.5213 C   0  0  0  0  0  0  0  0  0  0  0  0
  150.6881  145.1745  159.3589 C   0  0  0  0  0  0  0  0  0  0  0  0
  152.0839  145.3544  159.9679 C   0  0  0  0  0  0  0  0  0  0  0  0
  152.4742  144.1240  160.7961 C   0  0  0  0  0  0  0  0  0  0  0  0
  152.3917  142.8375  159.9584 C   0  0  0  0  0  0  0  0  0  0  0  0
  149.6409  138.6744  153.1854 H   0  0  0  0  0  0  0  0  0  0  0  0
  148.0056  140.1629  152.9269 H   0  0  0  0  0  0  0  0  0  0  0  0
  148.4591  142.8083  154.3615 H   0  0  0  0  0  0  0  0  0  0  0  0
  148.1601  142.5139  152.6415 H   0  0  0  0  0  0  0  0  0  0  0  0
  146.1134  143.3800  154.2315 H   0  0  0  0  0  0  0  0  0  0  0  0
  145.8192  142.1047  153.0427 H   0  0  0  0  0  0  0  0  0  0  0  0
  146.4450  141.7435  156.0010 H   0  0  0  0  0  0  0  0  0  0  0  0
  145.1347  141.0026  155.0834 H   0  0  0  0  0  0  0  0  0  0  0  0
  152.7915  141.0364  157.3429 H   0  0  0  0  0  0  0  0  0  0  0  0
  151.9107  142.3962  156.8124 H   0  0  0  0  0  0  0  0  0  0  0  0
  149.8715  141.1219  158.2471 H   0  0  0  0  0  0  0  0  0  0  0  0
  151.5668  139.5198  158.6704 H   0  0  0  0  0  0  0  0  0  0  0  0
  150.2677  142.5294  160.1548 H   0  0  0  0  0  0  0  0  0  0  0  0
  151.2685  143.9760  157.6574 H   0  0  0  0  0  0  0  0  0  0  0  0
  149.5963  143.8029  158.1250 H   0  0  0  0  0  0  0  0  0  0  0  0
  150.4394  146.0371  158.7401 H   0  0  0  0  0  0  0  0  0  0  0  0
  149.9427  145.1396  160.1543 H   0  0  0  0  0  0  0  0  0  0  0  0
  152.8146  145.5089  159.1729 H   0  0  0  0  0  0  0  0  0  0  0  0
  152.1080  146.2486  160.5915 H   0  0  0  0  0  0  0  0  0  0  0  0
  153.4839  144.2468  161.1888 H   0  0  0  0  0  0  0  0  0  0  0  0
  151.8145  144.0399  161.6606 H   0  0  0  0  0  0  0  0  0  0  0  0
  152.6718  142.0034  160.5986 H   0  0  0  0  0  0  0  0  0  0  0  0
  153.1393  142.8740  159.1647 H   0  0  0  0  0  0  0  0  0  0  0  0
  1  2  2  0  0  0  0
  2 14  1  0  0  0  0
  2  3  1  0  0  0  0
  3  4  1  0  0  0  0
  3  5  2  0  0  0  0
  5  6  1  0  0  0  0
  5 24  1  0  0  0  0
  6  7  1  0  0  0  0
  6 12  1  0  0  0  0
  7 11  1  0  0  0  0
  7  8  1  0  0  0  0
  7 25  1  0  0  0  0
  8  9  1  0  0  0  0
  8 26  1  0  0  0  0
  8 27  1  0  0  0  0
  9 10  1  0  0  0  0
  9 28  1  0  0  0  0
  9 29  1  0  0  0  0
 10 11  1  0  0  0  0
 10 30  1  0  0  0  0
 10 31  1  0  0  0  0
 12 13  2  0  0  0  0
 12 14  1  0  0  0  0
 14 15  1  0  0  0  0
 15 16  1  0  0  0  0
 15 32  1  0  0  0  0
 15 33  1  0  0  0  0
 16 17  1  0  0  0  0
 16 18  1  0  0  0  0
 16 34  1  0  0  0  0
 17 35  1  0  0  0  0
 18 23  1  0  0  0  0
 18 19  1  0  0  0  0
 18 36  1  0  0  0  0
 19 20  1  0  0  0  0
 19 37  1  0  0  0  0
 19 38  1  0  0  0  0
 20 21  1  0  0  0  0
 20 39  1  0  0  0  0
 20 40  1  0  0  0  0
 21 22  1  0  0  0  0
 21 41  1  0  0  0  0
 21 42  1  0  0  0  0
 22 23  1  0  0  0  0
 22 43  1  0  0  0  0
 22 44  1  0  0  0  0
 23 45  1  0  0  0  0
 23 46  1  0  0  0  0
M  END
> <s_m_source_file>
AV-unprocessed.smi

> <i_m_source_file_index>
286

> <i_lp_mmshare_version>
43012

> <i_f3d_flags>
0

> <s_epik_input>
TzFbQ0gyXVtDSDJdW0NIMl1bQ0BIXTFuKFtjSF1jKEYpYzI9TyljKD1PKW4yW0NIMl1bQ0BIXShbT0hdKVtDSF0zW0NIMl1bQ0gyXVtDSDJdW0NIMl1bQ0gyXTM=

> <s_epik_cmdline>
J2VwaWtfcHl0aG9uJywgJy1waCcsICc3LjAnLCAnLXRuJywgJzgnLCAnLW1hJywgJzIwMCcsICctbWV0YWxfYmluZGluZycsICctaW1hZScsICc8aW5maWxlLm1hZT4nLCAnLW9tYWUnLCAnPG91dGZpbGUubWFlPic=

> <r_lp_tautomer_probability>
1

> <r_epik_Ionization_Penalty>
3.15564e-07

> <r_epik_Ionization_Penalty_Charging>
2.06416e-08

> <r_epik_Ionization_Penalty_Neutral>
2.94923e-07

> <r_epik_State_Penalty>
-0

> <r_epik_Charging_Adjusted_Penalty>
2.06416e-08

> <i_epik_Tot_Q>
0

> <i_epik_Tot_abs_Q>
0

> <r_epik_Metal_State_Penalty>
-0

> <b_epik_Metal_Only>
0

> <s_epik_Chemistry_Notes>
This compound contains an acetal/aminal-like group ( X-CH(R)-Y where X, Y are N, S, or O) that may be acid/base labile, releasing an aldehyde.

> <s_lp_Force_Field>
OPLS_2005

> <r_lp_Energy>
37.1896

> <b_lp_Chiralities_Consistent>
1

> <s_lp_Variant>
AV-unprocessed.smi:286-3

> <Gold.Version>
5.8.1

> <Gold.Id.Protein>
6NUR|6NUR_protein|mol2

> <Gold.PLP.Fitness>
48.4663

> <Gold.PLP.PLP>
-44.5365

> <Gold.PLP.part.hbond>
-1.0000

> <Gold.PLP.part.metal>
0.0000

> <Gold.PLP.part.buried>
-3.1652

> <Gold.PLP.part.nonpolar>
-42.0039

> <Gold.PLP.part.repulsive>
1.6583

> <Gold.PLP.ligand.clash>
0.0000

> <Gold.PLP.ligand.torsion>
0.9900

> <Gold.PLP.Chemscore.Hbond>
1.0000

> <Gold.PLP.Chemscore.CHOScore>
0.9583

> <Gold.PLP.Chemscore.Metal>
0.0000

> <Gold.Chemscore.Hbonds>
donor molecule, donor type, donor heavy atom, donor atom, acceptor molecule, acceptor atom, score
      P1  H  7997  8010       L1     1  1.00
      L1  C     5    24       P1  7948  0.27
      L1  C     5    24       P1  7957  0.61

> <Gold.PLP.Chemscore.Internal.Correction>
0.0350

> <Gold.Rescore>
     Score         DG    S(hbond)    S(metal)    S(lipo)     H(rot)  DE(clash)    DE(int)     intcor
     10.78     -15.42       1.00        0.00     106.20       2.28       0.88       3.75       ----

> <Gold.Chemscore.Fitness>
10.7846

> <Gold.Chemscore.DG>
-15.4196

> <Gold.Chemscore.ZeroCoef>
-5.4800

> <Gold.Chemscore.Hbond>
0.9998

> <Gold.Chemscore.Metal>
0.0000

> <Gold.Chemscore.Lipo>
106.2014

> <Gold.Chemscore.Internal_Hbond>
0.0000

> <Gold.Chemscore.DEClash>
0.8849

> <Gold.Chemscore.DEInternal>
3.7501

> <Gold.Chemscore.Rot>
2.2756

> <Gold.Chemscore.Internal.Correction>
   9.000000E+99

> <Gold.Chemscore.Hbonds>
donor molecule, donor type, donor heavy atom, donor atom, acceptor molecule, acceptor atom, score
      P1  H  7997  8010       L1     1  1.00

> <Gold.Chemscore.Hbond.Weighted>
-3.3395

> <Gold.Chemscore.Metal.Weighted>
-0.0000

> <Gold.Chemscore.Lipo.Weighted>
-12.4256

> <Gold.Chemscore.Internal_Hbond.Weighted>
0.0000

> <Gold.Chemscore.DEClash.Weighted>
0.8849

> <Gold.Chemscore.DEInternal.Weighted>
3.7501

> <Gold.Chemscore.Rot.Weighted>
5.8254

> <Gold.Chemscore.Internal.Correction.Weighted>
   9.000000E+99

> <Gold.Protein.RotatedTorsions>
[ 6907 6896 6895 6894 ] final  -12.70 input  -60.11 | X-H torsion
[ 7974 7965 7964 7962 ] final   55.65 input  175.53 | X-H torsion
[ 8008 7997 7996 7995 ] final   73.99 input   59.86 | X-H torsion
[ 10167 10162 10161 10158 ] final -166.48 input  -65.29 | X-H torsion
[ 10718 10713 10712 10709 ] final   36.23 input   66.30 | X-H torsion
[ 10763 10752 10751 10750 ] final   49.19 input  -60.55 | X-H torsion
[ 11005 11000 10999 10996 ] final -156.00 input  -57.11 | X-H torsion

> <Gold.Protein.ActiveResidues>
 VAL166  LYS551  ARG553  GLY616  TRP617  ASP618  TYR619  PRO620  LYS621  CYS622 
 ASP623  PHE694  ASN695  SER759  ASP760  ASP761  ALA762  ILE779  LEU786  VAL792 
 PHE793  MET794  SER795  GLU796  ALA797  LYS798  CYS799  TRP800  GLU811  SER814 

> <Gold.Protein.RotatedAtoms>
  151.3664  135.0914  159.9451 H   0  0  0  0  0  0  0  0  0  0  0  0  # atno 6907 bound_to 6896
  152.5147  133.9207  159.7543 H   0  0  0  0  0  0  0  0  0  0  0  0  # atno 6908 bound_to 6896
  150.9612  133.6388  159.2783 H   0  0  0  0  0  0  0  0  0  0  0  0  # atno 6909 bound_to 6896
  145.9481  139.3948  143.0322 H   0  0  0  0  0  0  0  0  0  0  0  0  # atno 7974 bound_to 7965
  155.7917  140.3479  155.5353 H   0  0  0  0  0  0  0  0  0  0  0  0  # atno 8008 bound_to 7997
  155.8627  140.0974  157.1623 H   0  0  0  0  0  0  0  0  0  0  0  0  # atno 8009 bound_to 7997
  154.4013  140.1355  156.3968 H   0  0  0  0  0  0  0  0  0  0  0  0  # atno 8010 bound_to 7997
  139.6112  144.0811  152.1844 H   0  0  0  0  0  0  0  0  0  0  0  0  # atno 10167 bound_to 10162
  157.3323  130.7504  149.6856 H   0  0  0  0  0  0  0  0  0  0  0  0  # atno 10718 bound_to 10713
  152.9788  135.5920  154.4049 H   0  0  0  0  0  0  0  0  0  0  0  0  # atno 10763 bound_to 10752
  154.3690  135.2767  155.2279 H   0  0  0  0  0  0  0  0  0  0  0  0  # atno 10764 bound_to 10752
  154.4243  135.6051  153.6083 H   0  0  0  0  0  0  0  0  0  0  0  0  # atno 10765 bound_to 10752
  140.6803  134.4152  157.5227 H   0  0  0  0  0  0  0  0  0  0  0  0  # atno 11005 bound_to 11000
  145.8208  140.9680  143.0900 LP  0  0  0  0  0  0  0  0  0  0  0  0  # atno 17320 bound_to 7965
  144.6791  140.0039  143.7484 LP  0  0  0  0  0  0  0  0  0  0  0  0  # atno 17321 bound_to 7965
  140.0430  144.5993  150.7396 LP  0  0  0  0  0  0  0  0  0  0  0  0  # atno 17342 bound_to 10162
  140.7320  143.2701  151.3916 LP  0  0  0  0  0  0  0  0  0  0  0  0  # atno 17343 bound_to 10162
  155.9697  130.4191  150.4362 LP  0  0  0  0  0  0  0  0  0  0  0  0  # atno 17370 bound_to 10713
  157.2396  131.0522  151.2444 LP  0  0  0  0  0  0  0  0  0  0  0  0  # atno 17371 bound_to 10713
  139.8954  134.8684  156.2134 LP  0  0  0  0  0  0  0  0  0  0  0  0  # atno 17394 bound_to 11000
  141.0323  133.6982  156.1451 LP  0  0  0  0  0  0  0  0  0  0  0  0  # atno 17395 bound_to 11000

$$$$
