AV-unprocessed.smi:69|AV-procd|sdf|643|dock1
  -GOLD-   2262016533D 1   1.00000     0.00000
 Structure written by MMmdl.
 32 34  0  0  0  0  0  0  0  0  1 V2000
  149.0212  133.5317  157.8308 N   0  0  0  0  0  0  0  0  0  0  0  0
  149.2693  134.5822  157.0362 C   0  0  0  0  0  0  0  0  0  0  0  0
  149.1513  134.4184  155.6977 N   0  0  0  0  0  0  0  0  0  0  0  0
  149.3957  135.4508  154.8842 C   0  0  0  0  0  0  0  0  0  0  0  0
  149.7625  136.6955  155.2007 N   0  0  0  0  0  0  0  0  0  0  0  0
  149.8807  136.8592  156.5512 C   0  0  0  0  0  0  0  0  0  0  0  0
  149.6504  135.8548  157.5319 C   0  0  0  0  0  0  0  0  0  0  0  0
  149.8620  136.3753  158.8013 N   0  0  0  0  0  0  0  0  0  0  0  0
  150.1993  137.6174  158.5788 C   0  0  0  0  0  0  0  0  0  0  0  0
  150.2408  137.9920  157.2533 N   0  0  0  0  0  0  0  0  0  0  0  0
  150.5966  139.3325  156.6950 C   0  0  2  0  0  0  0  0  0  0  0  0
  149.5844  140.2278  157.0386 O   0  0  0  0  0  0  0  0  0  0  0  0
  149.2925  141.0699  155.9297 C   0  0  2  0  0  0  0  0  0  0  0  0
  147.8642  141.6210  156.0569 C   0  0  0  0  0  0  0  0  0  0  0  0
  147.5243  142.3586  154.9022 O   0  0  0  0  0  0  0  0  0  0  0  0
  149.4812  140.1259  154.7410 C   0  0  1  0  0  0  0  0  0  0  0  0
  149.6746  140.8137  153.5184 O   0  0  0  0  0  0  0  0  0  0  0  0
  150.6829  139.2809  155.1596 C   0  0  1  0  0  0  0  0  0  0  0  0
  151.9073  139.8273  154.7026 O   0  0  0  0  0  0  0  0  0  0  0  0
  151.5345  139.6018  157.1840 H   0  0  0  0  0  0  0  0  0  0  0  0
  150.0291  141.8748  155.8824 H   0  0  0  0  0  0  0  0  0  0  0  0
  148.6071  139.4821  154.6410 H   0  0  0  0  0  0  0  0  0  0  0  0
  150.6008  138.2563  154.7936 H   0  0  0  0  0  0  0  0  0  0  0  0
  149.1035  133.6292  158.8326 H   0  0  0  0  0  0  0  0  0  0  0  0
  148.7541  132.6457  157.4269 H   0  0  0  0  0  0  0  0  0  0  0  0
  149.2816  135.2515  153.8289 H   0  0  0  0  0  0  0  0  0  0  0  0
  150.4341  138.2990  159.3835 H   0  0  0  0  0  0  0  0  0  0  0  0
  147.1507  140.8007  156.1409 H   0  0  0  0  0  0  0  0  0  0  0  0
  147.7550  142.2375  156.9497 H   0  0  0  0  0  0  0  0  0  0  0  0
  147.9034  143.2213  154.9742 H   0  0  0  0  0  0  0  0  0  0  0  0
  149.6225  140.1879  152.8121 H   0  0  0  0  0  0  0  0  0  0  0  0
  152.5816  139.6127  155.3291 H   0  0  0  0  0  0  0  0  0  0  0  0
  1  2  1  0  0  0  0
  1 24  1  0  0  0  0
  1 25  1  0  0  0  0
  2  7  1  0  0  0  0
  2  3  2  0  0  0  0
  3  4  1  0  0  0  0
  4  5  2  0  0  0  0
  4 26  1  0  0  0  0
  5  6  1  0  0  0  0
  6 10  1  0  0  0  0
  6  7  2  0  0  0  0
  7  8  1  0  0  0  0
  8  9  2  0  0  0  0
  9 10  1  0  0  0  0
  9 27  1  0  0  0  0
 10 11  1  0  0  0  0
 11 20  1  0  0  0  0
 11 18  1  0  0  0  0
 11 12  1  0  0  0  0
 12 13  1  0  0  0  0
 13 21  1  0  0  0  0
 13 14  1  0  0  0  0
 13 16  1  0  0  0  0
 14 15  1  0  0  0  0
 14 28  1  0  0  0  0
 14 29  1  0  0  0  0
 15 30  1  0  0  0  0
 16 22  1  0  0  0  0
 16 17  1  0  0  0  0
 16 18  1  0  0  0  0
 17 31  1  0  0  0  0
 18 23  1  0  0  0  0
 18 19  1  0  0  0  0
 19 32  1  0  0  0  0
M  END
> <s_m_source_file>
AV-unprocessed.smi

> <i_m_source_file_index>
69

> <i_lp_mmshare_version>
43012

> <i_f3d_flags>
0

> <s_epik_input>
bjFbY0hdbmMoW05IMl0pYyhjMTIpbltjSF1uMltDQEBIXTNPW0NASF0oW0NIMl1bT0hdKVtDQEBIXShbT0hdKVtDQEhdM1tPSF0=

> <s_epik_cmdline>
J2VwaWtfcHl0aG9uJywgJy1waCcsICc3LjAnLCAnLXRuJywgJzgnLCAnLW1hJywgJzIwMCcsICctbWV0YWxfYmluZGluZycsICctaW1hZScsICc8aW5maWxlLm1hZT4nLCAnLW9tYWUnLCAnPG91dGZpbGUubWFlPic=

> <r_lp_tautomer_probability>
1

> <r_epik_Ionization_Penalty>
0.000428445

> <r_epik_Ionization_Penalty_Charging>
0

> <r_epik_Ionization_Penalty_Neutral>
0.000428445

> <r_epik_State_Penalty>
-0

> <r_epik_Charging_Adjusted_Penalty>
0

> <i_epik_Tot_Q>
0

> <i_epik_Tot_abs_Q>
0

> <r_epik_Metal_State_Penalty>
-0

> <b_epik_Metal_Only>
0

> <s_epik_Chemistry_Notes>
This compound contains an acetal/aminal-like group ( X-CH(R)-Y where X, Y are N, S, or O) that may be acid/base labile, releasing an aldehyde.

> <s_lp_Force_Field>
OPLS_2005

> <r_lp_Energy>
38.6476

> <b_lp_Chiralities_Consistent>
1

> <s_lp_Variant>
AV-unprocessed.smi:69-1

> <Gold.Version>
5.8.1

> <Gold.Id.Protein>
6NUR|6NUR_protein|mol2

> <Gold.PLP.Fitness>
36.5362

> <Gold.PLP.PLP>
-20.0335

> <Gold.PLP.part.hbond>
-5.5239

> <Gold.PLP.part.metal>
0.0000

> <Gold.PLP.part.buried>
-3.6476

> <Gold.PLP.part.nonpolar>
-10.8447

> <Gold.PLP.part.repulsive>
0.2752

> <Gold.PLP.ligand.clash>
0.1945

> <Gold.PLP.ligand.torsion>
0.1240

> <Gold.PLP.Chemscore.Hbond>
4.6440

> <Gold.PLP.Chemscore.CHOScore>
1.0000

> <Gold.PLP.Chemscore.Metal>
0.0000

> <Gold.Chemscore.Hbonds>
donor molecule, donor type, donor heavy atom, donor atom, acceptor molecule, acceptor atom, score
      L1  H    15    30       P1  8028  1.00
      L1  H    17    31       P1  7957  0.86
      P1  H  6896  6907       L1     8  1.00
      P1  H  7989  7998       L1    19  0.94
      P1  H  8011  8017       L1    17  0.75
      L1  C     4    26       P1  7948  1.00

> <Gold.PLP.Chemscore.Internal.Correction>
0.0132

> <Gold.Rescore>
     Score         DG    S(hbond)    S(metal)    S(lipo)     H(rot)  DE(clash)    DE(int)     intcor
      7.98     -10.04       3.59        0.00      24.53       4.03       0.47       1.58       ----

> <Gold.Chemscore.Fitness>
7.9845

> <Gold.Chemscore.DG>
-10.0372

> <Gold.Chemscore.ZeroCoef>
-5.4800

> <Gold.Chemscore.Hbond>
3.5924

> <Gold.Chemscore.Metal>
0.0000

> <Gold.Chemscore.Lipo>
24.5253

> <Gold.Chemscore.Internal_Hbond>
0.0000

> <Gold.Chemscore.DEClash>
0.4718

> <Gold.Chemscore.DEInternal>
1.5810

> <Gold.Chemscore.Rot>
4.0277

> <Gold.Chemscore.Internal.Correction>
   9.000000E+99

> <Gold.Chemscore.Hbonds>
donor molecule, donor type, donor heavy atom, donor atom, acceptor molecule, acceptor atom, score
      L1  H    15    30       P1  8028  0.78
      L1  H    17    31       P1  7957  0.85
      P1  H  6896  6907       L1     8  0.43
      P1  H  7989  7998       L1    19  0.70
      P1  H  8011  8017       L1    17  0.09

> <Gold.Chemscore.Hbond.Weighted>
-11.9987

> <Gold.Chemscore.Metal.Weighted>
-0.0000

> <Gold.Chemscore.Lipo.Weighted>
-2.8695

> <Gold.Chemscore.Internal_Hbond.Weighted>
0.0000

> <Gold.Chemscore.DEClash.Weighted>
0.4718

> <Gold.Chemscore.DEInternal.Weighted>
1.5810

> <Gold.Chemscore.Rot.Weighted>
10.3110

> <Gold.Chemscore.Internal.Correction.Weighted>
   9.000000E+99

> <Gold.Protein.RotatedTorsions>
[ 6907 6896 6895 6894 ] final  -41.35 input  -60.11 | X-H torsion
[ 7974 7965 7964 7962 ] final  -23.47 input  175.53 | X-H torsion
[ 8008 7997 7996 7995 ] final  -69.72 input   59.86 | X-H torsion
[ 10167 10162 10161 10158 ] final   13.89 input  -65.29 | X-H torsion
[ 10718 10713 10712 10709 ] final  -20.86 input   66.30 | X-H torsion
[ 10763 10752 10751 10750 ] final  164.71 input  -60.55 | X-H torsion
[ 11005 11000 10999 10996 ] final  129.71 input  -57.11 | X-H torsion

> <Gold.Protein.ActiveResidues>
 VAL166  LYS551  ARG553  GLY616  TRP617  ASP618  TYR619  PRO620  LYS621  CYS622 
 ASP623  PHE694  ASN695  SER759  ASP760  ASP761  ALA762  ILE779  LEU786  VAL792 
 PHE793  MET794  SER795  GLU796  ALA797  LYS798  CYS799  TRP800  GLU811  SER814 

> <Gold.Protein.RotatedAtoms>
  150.9678  134.9056  159.7769 H   0  0  0  0  0  0  0  0  0  0  0  0  # atno 6907 bound_to 6896
  152.5179  134.3583  159.9285 H   0  0  0  0  0  0  0  0  0  0  0  0  # atno 6908 bound_to 6896
  151.3593  133.3855  159.2722 H   0  0  0  0  0  0  0  0  0  0  0  0  # atno 6909 bound_to 6896
  146.1614  140.4620  142.8570 H   0  0  0  0  0  0  0  0  0  0  0  0  # atno 7974 bound_to 7965
  154.4959  140.0848  156.7696 H   0  0  0  0  0  0  0  0  0  0  0  0  # atno 8008 bound_to 7997
  155.4117  140.3442  155.4246 H   0  0  0  0  0  0  0  0  0  0  0  0  # atno 8009 bound_to 7997
  156.1393  140.1524  156.8933 H   0  0  0  0  0  0  0  0  0  0  0  0  # atno 8010 bound_to 7997
  140.5972  143.8678  150.6929 H   0  0  0  0  0  0  0  0  0  0  0  0  # atno 10167 bound_to 10162
  156.5261  130.4644  149.6571 H   0  0  0  0  0  0  0  0  0  0  0  0  # atno 10718 bound_to 10713
  154.3130  135.2757  155.2557 H   0  0  0  0  0  0  0  0  0  0  0  0  # atno 10763 bound_to 10752
  154.4944  135.5825  153.6486 H   0  0  0  0  0  0  0  0  0  0  0  0  # atno 10764 bound_to 10752
  152.9886  135.6142  154.3308 H   0  0  0  0  0  0  0  0  0  0  0  0  # atno 10765 bound_to 10752
  139.9631  134.9597  156.9188 H   0  0  0  0  0  0  0  0  0  0  0  0  # atno 11005 bound_to 11000
  144.8032  140.6252  143.6464 LP  0  0  0  0  0  0  0  0  0  0  0  0  # atno 17320 bound_to 7965
  145.4578  139.1516  143.3883 LP  0  0  0  0  0  0  0  0  0  0  0  0  # atno 17321 bound_to 7965
  140.2215  143.3805  152.1639 LP  0  0  0  0  0  0  0  0  0  0  0  0  # atno 17342 bound_to 10162
  139.5266  144.7110  151.5207 LP  0  0  0  0  0  0  0  0  0  0  0  0  # atno 17343 bound_to 10162
  156.3104  130.7226  151.2117 LP  0  0  0  0  0  0  0  0  0  0  0  0  # atno 17370 bound_to 10713
  157.7429  131.0483  150.4987 LP  0  0  0  0  0  0  0  0  0  0  0  0  # atno 17371 bound_to 10713
  140.5457  134.0676  155.7354 LP  0  0  0  0  0  0  0  0  0  0  0  0  # atno 17394 bound_to 11000
  141.1309  133.9304  157.2537 LP  0  0  0  0  0  0  0  0  0  0  0  0  # atno 17395 bound_to 11000

$$$$
