AV-unprocessed.smi:833|AV-procd|sdf|3883|dock6
  -GOLD-   22720 1343D 1   1.00000     0.00000
 Structure written by MMmdl.
 40 41  0  0  0  0  0  0  0  0  2 V2000
  151.5562  138.5485  154.3959 C   0  0  0  0  0  0  0  0  0  0  0  0
  150.2241  139.3012  154.5092 C   0  0  1  0  0  0  0  0  0  0  0  0
  149.3532  138.7682  153.5325 O   0  0  0  0  0  0  0  0  0  0  0  0
  149.5813  139.1269  155.8991 C   0  0  0  0  0  0  0  0  0  0  0  0
  150.3551  139.7901  156.9440 N   0  0  0  0  0  0  0  0  0  0  0  0
  150.4375  141.1167  157.1158 C   0  0  0  0  0  0  0  0  0  0  0  0
  149.8582  141.9350  156.4016 O   0  0  0  0  0  0  0  0  0  0  0  0
  151.2076  141.4264  158.1718 N   0  0  0  0  0  0  0  0  0  0  0  0
  151.4943  142.7227  158.6839 C   0  0  0  0  0  0  0  0  0  0  0  0
  151.0673  143.8875  157.9961 C   0  0  0  0  0  0  0  0  0  0  0  0
  151.4252  145.1602  158.4792 C   0  0  0  0  0  0  0  0  0  0  0  0
  152.2186  145.2495  159.6356 C   0  0  0  0  0  0  0  0  0  0  0  0
  152.6186  144.1229  160.2608 N   0  3  0  0  0  0  0  0  0  0  0  0
  152.2953  142.8699  159.8535 C   0  0  0  0  0  0  0  0  0  0  0  0
  152.7774  141.7823  160.6175 N   0  0  0  0  0  0  0  0  0  0  0  0
  153.5845  140.7413  159.9913 C   0  0  0  0  0  0  0  0  0  0  0  0
  154.2040  139.9681  161.1520 C   0  0  0  0  0  0  0  0  0  0  0  0
  154.4393  141.0637  162.1872 C   0  0  0  0  0  0  0  0  0  0  0  0
  153.2687  142.0286  161.9699 C   0  0  0  0  0  0  0  0  0  0  0  0
  152.2835  138.9322  155.1118 H   0  0  0  0  0  0  0  0  0  0  0  0
  151.9874  138.6586  153.4003 H   0  0  0  0  0  0  0  0  0  0  0  0
  151.4297  137.4825  154.5893 H   0  0  0  0  0  0  0  0  0  0  0  0
  150.3978  140.3559  154.2921 H   0  0  0  0  0  0  0  0  0  0  0  0
  149.4477  139.2721  152.7389 H   0  0  0  0  0  0  0  0  0  0  0  0
  148.5610  139.5127  155.9060 H   0  0  0  0  0  0  0  0  0  0  0  0
  149.5024  138.0660  156.1430 H   0  0  0  0  0  0  0  0  0  0  0  0
  150.8643  139.1918  157.5780 H   0  0  0  0  0  0  0  0  0  0  0  0
  151.5362  140.6516  158.7295 H   0  0  0  0  0  0  0  0  0  0  0  0
  150.4877  143.8222  157.0875 H   0  0  0  0  0  0  0  0  0  0  0  0
  151.1063  146.0533  157.9618 H   0  0  0  0  0  0  0  0  0  0  0  0
  152.5475  146.1802  160.0748 H   0  0  0  0  0  0  0  0  0  0  0  0
  152.9793  140.0971  159.3531 H   0  0  0  0  0  0  0  0  0  0  0  0
  154.3750  141.1845  159.3842 H   0  0  0  0  0  0  0  0  0  0  0  0
  153.4911  139.2378  161.5379 H   0  0  0  0  0  0  0  0  0  0  0  0
  155.1156  139.4392  160.8727 H   0  0  0  0  0  0  0  0  0  0  0  0
  154.4907  140.6820  163.2073 H   0  0  0  0  0  0  0  0  0  0  0  0
  155.3796  141.5732  161.9724 H   0  0  0  0  0  0  0  0  0  0  0  0
  153.5778  143.0648  162.1142 H   0  0  0  0  0  0  0  0  0  0  0  0
  152.4697  141.8104  162.6790 H   0  0  0  0  0  0  0  0  0  0  0  0
  153.1946  144.2211  161.0970 H   0  0  0  0  0  0  0  0  0  0  0  0
  1  2  1  0  0  0  0
  1 20  1  0  0  0  0
  1 21  1  0  0  0  0
  1 22  1  0  0  0  0
  2  3  1  0  0  0  0
  2  4  1  0  0  0  0
  2 23  1  0  0  0  0
  3 24  1  0  0  0  0
  4  5  1  0  0  0  0
  4 25  1  0  0  0  0
  4 26  1  0  0  0  0
  5  6  1  0  0  0  0
  5 27  1  0  0  0  0
  6  7  2  0  0  0  0
  6  8  1  0  0  0  0
  8  9  1  0  0  0  0
  8 28  1  0  0  0  0
  9 14  1  0  0  0  0
  9 10  2  0  0  0  0
 10 11  1  0  0  0  0
 10 29  1  0  0  0  0
 11 12  2  0  0  0  0
 11 30  1  0  0  0  0
 12 13  1  0  0  0  0
 12 31  1  0  0  0  0
 13 14  2  0  0  0  0
 13 40  1  0  0  0  0
 14 15  1  0  0  0  0
 15 19  1  0  0  0  0
 15 16  1  0  0  0  0
 16 17  1  0  0  0  0
 16 32  1  0  0  0  0
 16 33  1  0  0  0  0
 17 18  1  0  0  0  0
 17 34  1  0  0  0  0
 17 35  1  0  0  0  0
 18 19  1  0  0  0  0
 18 36  1  0  0  0  0
 18 37  1  0  0  0  0
 19 38  1  0  0  0  0
 19 39  1  0  0  0  0
M  CHG  1  13   1
M  END
> <s_m_source_file>
AV-unprocessed.smi

> <i_m_source_file_index>
833

> <i_lp_mmshare_version>
43012

> <i_f3d_flags>
0

> <s_epik_input>
W0NIM11bQ0BIXShbT0hdKVtDSDJdW05IXUMoPU8pW05IXWMxW2NIXVtjSF1bY0hdbmMxTjJbQ0gyXVtDSDJdW0NIMl1bQ0gyXTI=

> <s_epik_cmdline>
J2VwaWtfcHl0aG9uJywgJy1waCcsICc3LjAnLCAnLXRuJywgJzgnLCAnLW1hJywgJzIwMCcsICctbWV0YWxfYmluZGluZycsICctaW1hZScsICc8aW5maWxlLm1hZT4nLCAnLW9tYWUnLCAnPG91dGZpbGUubWFlPic=

> <r_lp_tautomer_probability>
0.999994

> <r_epik_Ionization_Penalty>
1.11387

> <r_epik_Ionization_Penalty_Charging>
1.11385

> <r_epik_Ionization_Penalty_Neutral>
1.95796e-05

> <r_epik_State_Penalty>
1.17209

> <r_epik_Charging_Adjusted_Penalty>
2.28594

> <i_epik_Tot_Q>
1

> <i_epik_Tot_abs_Q>
1

> <r_epik_Metal_State_Penalty>
1.25763

> <b_epik_Metal_Only>
0

> <s_lp_Force_Field>
OPLS_2005

> <r_lp_Energy>
38.2358

> <b_lp_Chiralities_Consistent>
1

> <s_lp_Variant>
AV-unprocessed.smi:833-4

> <Gold.Version>
5.8.1

> <Gold.Id.Protein>
6NUR|6NUR_protein|mol2

> <Gold.PLP.Fitness>
42.9023

> <Gold.PLP.PLP>
-40.1713

> <Gold.PLP.part.hbond>
-2.0952

> <Gold.PLP.part.metal>
0.0000

> <Gold.PLP.part.buried>
-5.0310

> <Gold.PLP.part.nonpolar>
-32.8154

> <Gold.PLP.part.repulsive>
0.2213

> <Gold.PLP.ligand.clash>
0.0000

> <Gold.PLP.ligand.torsion>
0.3261

> <Gold.PLP.Chemscore.Hbond>
1.0000

> <Gold.PLP.Chemscore.CHOScore>
0.0000

> <Gold.PLP.Chemscore.Metal>
0.0000

> <Gold.Chemscore.Hbonds>
donor molecule, donor type, donor heavy atom, donor atom, acceptor molecule, acceptor atom, score
      L1  H     3    24       P1  7957  1.00

> <Gold.PLP.Chemscore.Internal.Correction>
0.3832

> <Gold.Rescore>
     Score         DG    S(hbond)    S(metal)    S(lipo)     H(rot)  DE(clash)    DE(int)     intcor
     13.61     -15.57       1.00        0.00     103.00       2.06       0.04       1.92       ----

> <Gold.Chemscore.Fitness>
13.6111

> <Gold.Chemscore.DG>
-15.5720

> <Gold.Chemscore.ZeroCoef>
-5.4800

> <Gold.Chemscore.Hbond>
0.9954

> <Gold.Chemscore.Metal>
0.0000

> <Gold.Chemscore.Lipo>
102.9950

> <Gold.Chemscore.Internal_Hbond>
0.0000

> <Gold.Chemscore.DEClash>
0.0423

> <Gold.Chemscore.DEInternal>
1.9186

> <Gold.Chemscore.Rot>
2.0637

> <Gold.Chemscore.Internal.Correction>
   9.000000E+99

> <Gold.Chemscore.Hbonds>
donor molecule, donor type, donor heavy atom, donor atom, acceptor molecule, acceptor atom, score
      L1  H     3    24       P1  7957  1.00

> <Gold.Chemscore.Hbond.Weighted>
-3.3247

> <Gold.Chemscore.Metal.Weighted>
-0.0000

> <Gold.Chemscore.Lipo.Weighted>
-12.0504

> <Gold.Chemscore.Internal_Hbond.Weighted>
0.0000

> <Gold.Chemscore.DEClash.Weighted>
0.0423

> <Gold.Chemscore.DEInternal.Weighted>
1.9186

> <Gold.Chemscore.Rot.Weighted>
5.2832

> <Gold.Chemscore.Internal.Correction.Weighted>
   9.000000E+99

> <Gold.Protein.RotatedTorsions>
[ 6907 6896 6895 6894 ] final  168.27 input  -60.11 | X-H torsion
[ 7974 7965 7964 7962 ] final -141.92 input  175.53 | X-H torsion
[ 8008 7997 7996 7995 ] final  -76.45 input   59.86 | X-H torsion
[ 10167 10162 10161 10158 ] final   13.39 input  -65.29 | X-H torsion
[ 10718 10713 10712 10709 ] final  121.82 input   66.30 | X-H torsion
[ 10763 10752 10751 10750 ] final  162.01 input  -60.55 | X-H torsion
[ 11005 11000 10999 10996 ] final  178.20 input  -57.11 | X-H torsion

> <Gold.Protein.ActiveResidues>
 VAL166  LYS551  ARG553  GLY616  TRP617  ASP618  TYR619  PRO620  LYS621  CYS622 
 ASP623  PHE694  ASN695  SER759  ASP760  ASP761  ALA762  ILE779  LEU786  VAL792 
 PHE793  MET794  SER795  GLU796  ALA797  LYS798  CYS799  TRP800  GLU811  SER814 

> <Gold.Protein.RotatedAtoms>
  151.8503  133.3438  159.3670 H   0  0  0  0  0  0  0  0  0  0  0  0  # atno 6907 bound_to 6896
  150.7208  134.5305  159.5707 H   0  0  0  0  0  0  0  0  0  0  0  0  # atno 6908 bound_to 6896
  152.2798  134.7842  160.0450 H   0  0  0  0  0  0  0  0  0  0  0  0  # atno 6909 bound_to 6896
  144.8482  140.6021  143.5407 H   0  0  0  0  0  0  0  0  0  0  0  0  # atno 7974 bound_to 7965
  154.5506  140.0727  156.8661 H   0  0  0  0  0  0  0  0  0  0  0  0  # atno 8008 bound_to 7997
  155.3001  140.3383  155.4230 H   0  0  0  0  0  0  0  0  0  0  0  0  # atno 8009 bound_to 7997
  156.1958  140.1703  156.7987 H   0  0  0  0  0  0  0  0  0  0  0  0  # atno 8010 bound_to 7997
  140.6005  143.8613  150.6961 H   0  0  0  0  0  0  0  0  0  0  0  0  # atno 10167 bound_to 10162
  157.5789  131.1077  150.8226 H   0  0  0  0  0  0  0  0  0  0  0  0  # atno 10718 bound_to 10713
  154.2718  135.2765  155.2735 H   0  0  0  0  0  0  0  0  0  0  0  0  # atno 10763 bound_to 10752
  154.5295  135.5733  153.6750 H   0  0  0  0  0  0  0  0  0  0  0  0  # atno 10764 bound_to 10752
  152.9944  135.6224  154.2873 H   0  0  0  0  0  0  0  0  0  0  0  0  # atno 10765 bound_to 10752
  140.3925  134.6849  157.4516 H   0  0  0  0  0  0  0  0  0  0  0  0  # atno 11005 bound_to 11000
  145.4553  139.1519  143.3896 LP  0  0  0  0  0  0  0  0  0  0  0  0  # atno 17320 bound_to 7965
  146.2762  140.4681  142.8794 LP  0  0  0  0  0  0  0  0  0  0  0  0  # atno 17321 bound_to 7965
  140.2158  143.3847  152.1682 LP  0  0  0  0  0  0  0  0  0  0  0  0  # atno 17342 bound_to 10162
  139.5288  144.7134  151.5131 LP  0  0  0  0  0  0  0  0  0  0  0  0  # atno 17343 bound_to 10162
  156.8677  130.5135  149.5299 LP  0  0  0  0  0  0  0  0  0  0  0  0  # atno 17370 bound_to 10713
  156.0834  130.5839  150.9604 LP  0  0  0  0  0  0  0  0  0  0  0  0  # atno 17371 bound_to 10713
  140.0396  134.6287  155.8998 LP  0  0  0  0  0  0  0  0  0  0  0  0  # atno 17394 bound_to 11000
  141.1886  133.6563  156.5330 LP  0  0  0  0  0  0  0  0  0  0  0  0  # atno 17395 bound_to 11000

$$$$
