AV-unprocessed.smi:3193|AV-procd|sdf|12206|dock2
  -GOLD-   2272018 43D 1   1.00000     0.00000
 Structure written by MMmdl.
 41 42  0  0  0  0  0  0  0  0  3 V2000
  153.6157  142.3326  159.5891 C   0  0  0  0  0  0  0  0  0  0  0  0
  152.1392  142.5448  159.9822 C   0  0  1  0  0  0  0  0  0  0  0  0
  151.9991  143.5571  161.1389 C   0  0  0  0  0  0  0  0  0  0  0  0
  152.2628  145.0033  160.6867 C   0  0  0  0  0  0  0  0  0  0  0  0
  151.3589  145.3900  159.5073 C   0  0  0  0  0  0  0  0  0  0  0  0
  151.4947  144.3956  158.3428 C   0  0  0  0  0  0  0  0  0  0  0  0
  151.2161  142.9459  158.8001 C   0  0  1  0  0  0  0  0  0  0  0  0
  151.2736  141.9386  157.6339 C   0  0  0  0  0  0  0  0  0  0  0  0
  150.2375  142.2191  156.6192 N   0  3  0  0  0  0  0  0  0  0  0  0
  149.7185  141.0137  155.9431 C   0  0  0  0  0  0  0  0  0  0  0  0
  149.1582  141.3534  154.5544 C   0  0  0  0  0  0  0  0  0  0  0  0
  147.7052  141.5396  154.5822 N   0  0  0  0  0  0  0  0  0  0  0  0
  146.9894  142.3717  155.4049 C   0  0  0  0  0  0  0  0  0  0  0  0
  145.6692  142.2108  155.0711 C   0  0  0  0  0  0  0  0  0  0  0  0
  145.6348  141.2876  154.0605 N   0  3  0  0  0  0  0  0  0  0  0  0
  146.8737  140.8810  153.7638 C   0  0  0  0  0  0  0  0  0  0  0  0
  154.0613  143.2287  159.1581 H   0  0  0  0  0  0  0  0  0  0  0  0
  153.7274  141.5262  158.8648 H   0  0  0  0  0  0  0  0  0  0  0  0
  154.2120  142.0589  160.4598 H   0  0  0  0  0  0  0  0  0  0  0  0
  151.7847  141.5852  160.3611 H   0  0  0  0  0  0  0  0  0  0  0  0
  150.9906  143.4934  161.5501 H   0  0  0  0  0  0  0  0  0  0  0  0
  152.6718  143.2938  161.9558 H   0  0  0  0  0  0  0  0  0  0  0  0
  152.0957  145.6871  161.5196 H   0  0  0  0  0  0  0  0  0  0  0  0
  153.3090  145.1207  160.4028 H   0  0  0  0  0  0  0  0  0  0  0  0
  150.3208  145.4206  159.8406 H   0  0  0  0  0  0  0  0  0  0  0  0
  151.6025  146.3973  159.1679 H   0  0  0  0  0  0  0  0  0  0  0  0
  150.8014  144.6823  157.5518 H   0  0  0  0  0  0  0  0  0  0  0  0
  152.4931  144.4703  157.9109 H   0  0  0  0  0  0  0  0  0  0  0  0
  150.1959  142.9213  159.1878 H   0  0  0  0  0  0  0  0  0  0  0  0
  152.2558  141.9542  157.1597 H   0  0  0  0  0  0  0  0  0  0  0  0
  151.1160  140.9277  158.0128 H   0  0  0  0  0  0  0  0  0  0  0  0
  149.4682  142.6910  157.0734 H   0  0  0  0  0  0  0  0  0  0  0  0
  150.5202  140.2790  155.8543 H   0  0  0  0  0  0  0  0  0  0  0  0
  148.9379  140.5664  156.5603 H   0  0  0  0  0  0  0  0  0  0  0  0
  149.6036  142.2735  154.1734 H   0  0  0  0  0  0  0  0  0  0  0  0
  149.3874  140.5638  153.8371 H   0  0  0  0  0  0  0  0  0  0  0  0
  147.4579  143.0016  156.1477 H   0  0  0  0  0  0  0  0  0  0  0  0
  144.7754  142.6718  155.4664 H   0  0  0  0  0  0  0  0  0  0  0  0
  147.1459  140.1619  153.0116 H   0  0  0  0  0  0  0  0  0  0  0  0
  150.6307  142.8386  155.9248 H   0  0  0  0  0  0  0  0  0  0  0  0
  144.7936  140.9603  153.6015 H   0  0  0  0  0  0  0  0  0  0  0  0
  1  2  1  0  0  0  0
  1 17  1  0  0  0  0
  1 18  1  0  0  0  0
  1 19  1  0  0  0  0
  2  7  1  0  0  0  0
  2  3  1  0  0  0  0
  2 20  1  0  0  0  0
  3  4  1  0  0  0  0
  3 21  1  0  0  0  0
  3 22  1  0  0  0  0
  4  5  1  0  0  0  0
  4 23  1  0  0  0  0
  4 24  1  0  0  0  0
  5  6  1  0  0  0  0
  5 25  1  0  0  0  0
  5 26  1  0  0  0  0
  6  7  1  0  0  0  0
  6 27  1  0  0  0  0
  6 28  1  0  0  0  0
  7  8  1  0  0  0  0
  7 29  1  0  0  0  0
  8  9  1  0  0  0  0
  8 30  1  0  0  0  0
  8 31  1  0  0  0  0
  9 10  1  0  0  0  0
  9 32  1  0  0  0  0
  9 40  1  0  0  0  0
 10 11  1  0  0  0  0
 10 33  1  0  0  0  0
 10 34  1  0  0  0  0
 11 12  1  0  0  0  0
 11 35  1  0  0  0  0
 11 36  1  0  0  0  0
 12 16  1  0  0  0  0
 12 13  1  0  0  0  0
 13 14  2  0  0  0  0
 13 37  1  0  0  0  0
 14 15  1  0  0  0  0
 14 38  1  0  0  0  0
 15 16  2  0  0  0  0
 15 41  1  0  0  0  0
 16 39  1  0  0  0  0
M  CHG  1   9   1
M  CHG  1  15   1
M  END
> <s_m_source_file>
AV-unprocessed.smi

> <i_m_source_file_index>
3193

> <i_lp_mmshare_version>
43012

> <i_f3d_flags>
0

> <s_epik_input>
W0NIM11bQ0BASF0xW0NIMl1bQ0gyXVtDSDJdW0NIMl1bQ0BIXTFbQ0gyXVtOSF1bQ0gyXVtDSDJdbjJbY0hdW2NIXW5bY0hdMg==

> <s_epik_cmdline>
J2VwaWtfcHl0aG9uJywgJy1waCcsICc3LjAnLCAnLXRuJywgJzgnLCAnLW1hJywgJzIwMCcsICctbWV0YWxfYmluZGluZycsICctaW1hZScsICc8aW5maWxlLm1hZT4nLCAnLW9tYWUnLCAnPG91dGZpbGUubWFlPic=

> <r_lp_tautomer_probability>
1

> <r_epik_Ionization_Penalty>
1.50262

> <r_epik_Ionization_Penalty_Charging>
0.00193432

> <r_epik_Ionization_Penalty_Neutral>
1.50068

> <r_epik_State_Penalty>
1.11854

> <r_epik_Charging_Adjusted_Penalty>
1.12048

> <i_epik_Tot_Q>
2

> <i_epik_Tot_abs_Q>
2

> <r_epik_Metal_State_Penalty>
5.11322

> <b_epik_Metal_Only>
0

> <s_lp_Force_Field>
OPLS_2005

> <r_lp_Energy>
27.2728

> <b_lp_Chiralities_Consistent>
1

> <s_lp_Variant>
AV-unprocessed.smi:3193-6

> <Gold.Version>
5.8.1

> <Gold.Id.Protein>
6NUR|6NUR_protein|mol2

> <Gold.PLP.Fitness>
50.8679

> <Gold.PLP.PLP>
-40.2836

> <Gold.PLP.part.hbond>
-1.3669

> <Gold.PLP.part.metal>
0.0000

> <Gold.PLP.part.buried>
-2.5394

> <Gold.PLP.part.nonpolar>
-36.7379

> <Gold.PLP.part.repulsive>
0.0718

> <Gold.PLP.ligand.clash>
0.0000

> <Gold.PLP.ligand.torsion>
0.6714

> <Gold.PLP.Chemscore.Hbond>
2.0000

> <Gold.PLP.Chemscore.CHOScore>
1.9574

> <Gold.PLP.Chemscore.Metal>
0.0000

> <Gold.Chemscore.Hbonds>
donor molecule, donor type, donor heavy atom, donor atom, acceptor molecule, acceptor atom, score
      L1  H    15    41       P1 10175  2.00
      L1  C    13    37       P1  8028  0.65

> <Gold.PLP.Chemscore.Internal.Correction>
0.0547

> <Gold.Rescore>
     Score         DG    S(hbond)    S(metal)    S(lipo)     H(rot)  DE(clash)    DE(int)     intcor
     15.47     -16.14       0.97        0.00     106.63       1.98       0.01       0.67       ----

> <Gold.Chemscore.Fitness>
15.4680

> <Gold.Chemscore.DG>
-16.1405

> <Gold.Chemscore.ZeroCoef>
-5.4800

> <Gold.Chemscore.Hbond>
0.9723

> <Gold.Chemscore.Metal>
0.0000

> <Gold.Chemscore.Lipo>
106.6257

> <Gold.Chemscore.Internal_Hbond>
0.0000

> <Gold.Chemscore.DEClash>
0.0052

> <Gold.Chemscore.DEInternal>
0.6673

> <Gold.Chemscore.Rot>
1.9774

> <Gold.Chemscore.Internal.Correction>
   9.000000E+99

> <Gold.Chemscore.Hbonds>
donor molecule, donor type, donor heavy atom, donor atom, acceptor molecule, acceptor atom, score
      L1  H    15    41       P1 10175  0.74

> <Gold.Chemscore.Hbond.Weighted>
-3.2474

> <Gold.Chemscore.Metal.Weighted>
-0.0000

> <Gold.Chemscore.Lipo.Weighted>
-12.4752

> <Gold.Chemscore.Internal_Hbond.Weighted>
0.0000

> <Gold.Chemscore.DEClash.Weighted>
0.0052

> <Gold.Chemscore.DEInternal.Weighted>
0.6673

> <Gold.Chemscore.Rot.Weighted>
5.0622

> <Gold.Chemscore.Internal.Correction.Weighted>
   9.000000E+99

> <Gold.Protein.RotatedTorsions>
[ 6907 6896 6895 6894 ] final  118.58 input  -60.11 | X-H torsion
[ 7974 7965 7964 7962 ] final  -41.25 input  175.53 | X-H torsion
[ 8008 7997 7996 7995 ] final  -57.85 input   59.86 | X-H torsion
[ 10167 10162 10161 10158 ] final   47.85 input  -65.29 | X-H torsion
[ 10718 10713 10712 10709 ] final  144.00 input   66.30 | X-H torsion
[ 10763 10752 10751 10750 ] final -145.37 input  -60.55 | X-H torsion
[ 11005 11000 10999 10996 ] final   47.48 input  -57.11 | X-H torsion

> <Gold.Protein.ActiveResidues>
 VAL166  LYS551  ARG553  GLY616  TRP617  ASP618  TYR619  PRO620  LYS621  CYS622 
 ASP623  PHE694  ASN695  SER759  ASP760  ASP761  ALA762  ILE779  LEU786  VAL792 
 PHE793  MET794  SER795  GLU796  ALA797  LYS798  CYS799  TRP800  GLU811  SER814 

> <Gold.Protein.RotatedAtoms>
  152.4533  133.7672  159.6778 H   0  0  0  0  0  0  0  0  0  0  0  0  # atno 6907 bound_to 6896
  150.8451  133.7864  159.3052 H   0  0  0  0  0  0  0  0  0  0  0  0  # atno 6908 bound_to 6896
  151.5476  135.1070  159.9993 H   0  0  0  0  0  0  0  0  0  0  0  0  # atno 6909 bound_to 6896
  146.0228  140.6829  142.9170 H   0  0  0  0  0  0  0  0  0  0  0  0  # atno 7974 bound_to 7965
  154.4285  140.1097  156.5864 H   0  0  0  0  0  0  0  0  0  0  0  0  # atno 8008 bound_to 7997
  155.6058  140.3494  155.4588 H   0  0  0  0  0  0  0  0  0  0  0  0  # atno 8009 bound_to 7997
  156.0137  140.1225  157.0417 H   0  0  0  0  0  0  0  0  0  0  0  0  # atno 8010 bound_to 7997
  140.2993  144.2953  150.6222 H   0  0  0  0  0  0  0  0  0  0  0  0  # atno 10167 bound_to 10162
  157.3624  131.0967  151.0903 H   0  0  0  0  0  0  0  0  0  0  0  0  # atno 10718 bound_to 10713
  154.8386  135.3415  154.6494 H   0  0  0  0  0  0  0  0  0  0  0  0  # atno 10763 bound_to 10752
  153.7106  135.6964  153.5043 H   0  0  0  0  0  0  0  0  0  0  0  0  # atno 10764 bound_to 10752
  153.2454  135.4371  155.0696 H   0  0  0  0  0  0  0  0  0  0  0  0  # atno 10765 bound_to 10752
  140.1275  134.4749  155.8548 H   0  0  0  0  0  0  0  0  0  0  0  0  # atno 11005 bound_to 11000
  144.6997  140.3596  143.7166 LP  0  0  0  0  0  0  0  0  0  0  0  0  # atno 17320 bound_to 7965
  145.7166  139.1698  143.2508 LP  0  0  0  0  0  0  0  0  0  0  0  0  # atno 17321 bound_to 7965
  140.5665  143.2185  151.7675 LP  0  0  0  0  0  0  0  0  0  0  0  0  # atno 17342 bound_to 10162
  139.4919  144.4277  151.9907 LP  0  0  0  0  0  0  0  0  0  0  0  0  # atno 17343 bound_to 10162
  157.2038  130.6407  149.5748 LP  0  0  0  0  0  0  0  0  0  0  0  0  # atno 17370 bound_to 10713
  155.9740  130.4682  150.6352 LP  0  0  0  0  0  0  0  0  0  0  0  0  # atno 17371 bound_to 10713
  141.2164  133.6783  156.7006 LP  0  0  0  0  0  0  0  0  0  0  0  0  # atno 17394 bound_to 11000
  140.2885  134.8260  157.3996 LP  0  0  0  0  0  0  0  0  0  0  0  0  # atno 17395 bound_to 11000

$$$$
