AV-unprocessed.smi:686|AV-procd|sdf|3338|dock8
  -GOLD-   22720 0313D 1   1.00000     0.00000
 Structure written by MMmdl.
 41 42  0  0  0  0  0  0  0  0  2 V2000
  150.2228  130.2808  155.4116 C   0  0  0  0  0  0  0  0  0  0  0  0
  149.7947  131.0795  154.1688 C   0  0  1  0  0  0  0  0  0  0  0  0
  148.4207  130.7183  153.6099 C   0  0  0  0  0  0  0  0  0  0  0  0
  148.0732  131.8239  152.6888 N   0  3  1  0  0  0  0  0  0  0  0  0
  146.6175  132.0099  152.4282 C   0  0  0  0  0  0  0  0  0  0  0  0
  145.9527  130.7098  151.9355 C   0  0  0  0  0  0  0  0  0  0  0  0
  146.3773  133.1290  151.3965 C   0  0  0  0  0  0  0  0  0  0  0  0
  148.7879  133.0348  153.1714 C   0  0  0  0  0  0  0  0  0  0  0  0
  149.7069  132.6015  154.3288 C   0  0  1  0  0  0  0  0  0  0  0  0
  149.1093  132.9616  155.6202 N   0  0  0  0  0  0  0  0  0  0  0  0
  150.0279  133.8869  156.7502 S   0  0  0  0  0  0  0  0  0  0  0  0
  149.2045  134.0297  157.9602 O   0  0  0  0  0  0  0  0  0  0  0  0
  151.3662  133.2820  156.8356 O   0  0  0  0  0  0  0  0  0  0  0  0
  150.1410  135.5257  155.9114 C   0  0  0  0  0  0  0  0  0  0  0  0
  150.9818  136.4637  156.7313 C   0  0  0  0  0  0  0  0  0  0  0  0
  150.6484  137.1128  157.9520 C   0  0  0  0  0  0  0  0  0  0  0  0
  151.7712  137.8305  158.2487 C   0  0  0  0  0  0  0  0  0  0  0  0
  152.7195  137.6445  157.2961 O   0  0  0  0  0  0  0  0  0  0  0  0
  152.2055  136.7728  156.3296 N   0  0  0  0  0  0  0  0  0  0  0  0
  149.4994  130.3690  156.2225 H   0  0  0  0  0  0  0  0  0  0  0  0
  151.1873  130.6265  155.7843 H   0  0  0  0  0  0  0  0  0  0  0  0
  150.3198  129.2209  155.1754 H   0  0  0  0  0  0  0  0  0  0  0  0
  150.5283  130.8803  153.3853 H   0  0  0  0  0  0  0  0  0  0  0  0
  148.4248  129.7549  153.0991 H   0  0  0  0  0  0  0  0  0  0  0  0
  147.6920  130.6706  154.4214 H   0  0  0  0  0  0  0  0  0  0  0  0
  146.1398  132.2972  153.3665 H   0  0  0  0  0  0  0  0  0  0  0  0
  144.9009  130.8755  151.7007 H   0  0  0  0  0  0  0  0  0  0  0  0
  145.9845  129.9209  152.6870 H   0  0  0  0  0  0  0  0  0  0  0  0
  146.4363  130.3340  151.0332 H   0  0  0  0  0  0  0  0  0  0  0  0
  145.3129  133.2507  151.1938 H   0  0  0  0  0  0  0  0  0  0  0  0
  146.8685  132.9049  150.4489 H   0  0  0  0  0  0  0  0  0  0  0  0
  146.7449  134.0956  151.7395 H   0  0  0  0  0  0  0  0  0  0  0  0
  149.3757  133.4355  152.3451 H   0  0  0  0  0  0  0  0  0  0  0  0
  148.0967  133.8183  153.4828 H   0  0  0  0  0  0  0  0  0  0  0  0
  150.6941  133.0595  154.2548 H   0  0  0  0  0  0  0  0  0  0  0  0
  148.1637  133.3305  155.5180 H   0  0  0  0  0  0  0  0  0  0  0  0
  150.5456  135.3829  154.9091 H   0  0  0  0  0  0  0  0  0  0  0  0
  149.1289  135.9166  155.8056 H   0  0  0  0  0  0  0  0  0  0  0  0
  149.7321  137.0593  158.5212 H   0  0  0  0  0  0  0  0  0  0  0  0
  152.0381  138.4890  159.0622 H   0  0  0  0  0  0  0  0  0  0  0  0
  148.5004  131.5864  151.8047 H   0  0  0  0  0  0  0  0  0  0  0  0
  1  2  1  0  0  0  0
  1 20  1  0  0  0  0
  1 21  1  0  0  0  0
  1 22  1  0  0  0  0
  2  9  1  0  0  0  0
  2  3  1  0  0  0  0
  2 23  1  0  0  0  0
  3  4  1  0  0  0  0
  3 24  1  0  0  0  0
  3 25  1  0  0  0  0
  4  5  1  0  0  0  0
  4  8  1  0  0  0  0
  4 41  1  0  0  0  0
  5  6  1  0  0  0  0
  5  7  1  0  0  0  0
  5 26  1  0  0  0  0
  6 27  1  0  0  0  0
  6 28  1  0  0  0  0
  6 29  1  0  0  0  0
  7 30  1  0  0  0  0
  7 31  1  0  0  0  0
  7 32  1  0  0  0  0
  8  9  1  0  0  0  0
  8 33  1  0  0  0  0
  8 34  1  0  0  0  0
  9 10  1  0  0  0  0
  9 35  1  0  0  0  0
 10 11  1  0  0  0  0
 10 36  1  0  0  0  0
 11 12  2  0  0  0  0
 11 13  2  0  0  0  0
 11 14  1  0  0  0  0
 14 15  1  0  0  0  0
 14 37  1  0  0  0  0
 14 38  1  0  0  0  0
 15 19  2  0  0  0  0
 15 16  1  0  0  0  0
 16 17  2  0  0  0  0
 16 39  1  0  0  0  0
 17 18  1  0  0  0  0
 17 40  1  0  0  0  0
 18 19  1  0  0  0  0
M  CHG  1   4   1
M  END
> <s_m_source_file>
AV-unprocessed.smi

> <i_m_source_file_index>
686

> <i_lp_mmshare_version>
43012

> <i_f3d_flags>
0

> <s_epik_input>
W0NIM11bQ0BASF0xW0NIMl1OKFtDSF0oW0NIM10pW0NIM10pW0NIMl1bQ0BIXTFbTkhdUyg9TykoPU8pW0NIMl1jMltjSF1bY0hdb24y

> <s_epik_cmdline>
J2VwaWtfcHl0aG9uJywgJy1waCcsICc3LjAnLCAnLXRuJywgJzgnLCAnLW1hJywgJzIwMCcsICctbWV0YWxfYmluZGluZycsICctaW1hZScsICc8aW5maWxlLm1hZT4nLCAnLW9tYWUnLCAnPG91dGZpbGUubWFlPic=

> <r_epik_Ionization_Penalty>
0.00200818

> <r_epik_Ionization_Penalty_Charging>
0.000701289

> <r_epik_Ionization_Penalty_Neutral>
0.00130689

> <r_epik_State_Penalty>
0.00131314

> <r_epik_Charging_Adjusted_Penalty>
0.00201443

> <i_epik_Tot_Q>
1

> <i_epik_Tot_abs_Q>
1

> <r_epik_Metal_State_Penalty>
0.310831

> <b_epik_Metal_Only>
0

> <s_lp_Force_Field>
OPLS_2005

> <r_lp_Energy>
21.3818

> <b_lp_Chiralities_Consistent>
1

> <s_lp_Variant>
AV-unprocessed.smi:686-2

> <Gold.Version>
5.8.1

> <Gold.Id.Protein>
6NUR|6NUR_protein|mol2

> <Gold.PLP.Fitness>
35.1576

> <Gold.PLP.PLP>
-28.1357

> <Gold.PLP.part.hbond>
-3.3842

> <Gold.PLP.part.metal>
0.0000

> <Gold.PLP.part.buried>
-5.0708

> <Gold.PLP.part.nonpolar>
-19.3858

> <Gold.PLP.part.repulsive>
0.0027

> <Gold.PLP.ligand.clash>
0.0000

> <Gold.PLP.ligand.torsion>
1.0762

> <Gold.PLP.Chemscore.Hbond>
3.0000

> <Gold.PLP.Chemscore.CHOScore>
0.0000

> <Gold.PLP.Chemscore.Metal>
0.0000

> <Gold.Chemscore.Hbonds>
donor molecule, donor type, donor heavy atom, donor atom, acceptor molecule, acceptor atom, score
      L1  H     4    41       P1 10747  1.00
      P1  H  6896  6909       L1    12  0.90
      P1  H 10752 10763       L1    19  0.91

> <Gold.PLP.Chemscore.Internal.Correction>
0.1744

> <Gold.Rescore>
     Score         DG    S(hbond)    S(metal)    S(lipo)     H(rot)  DE(clash)    DE(int)     intcor
     16.43     -17.57       2.90        0.00      62.28       1.91       0.01       1.13       ----

> <Gold.Chemscore.Fitness>
16.4331

> <Gold.Chemscore.DG>
-17.5741

> <Gold.Chemscore.ZeroCoef>
-5.4800

> <Gold.Chemscore.Hbond>
2.9046

> <Gold.Chemscore.Metal>
0.0000

> <Gold.Chemscore.Lipo>
62.2759

> <Gold.Chemscore.Internal_Hbond>
0.0000

> <Gold.Chemscore.DEClash>
0.0106

> <Gold.Chemscore.DEInternal>
1.1304

> <Gold.Chemscore.Rot>
1.9115

> <Gold.Chemscore.Internal.Correction>
   9.000000E+99

> <Gold.Chemscore.Hbonds>
donor molecule, donor type, donor heavy atom, donor atom, acceptor molecule, acceptor atom, score
      L1  H     4    41       P1 10747  1.00
      P1  H  6896  6909       L1    12  0.17
      P1  H 10752 10763       L1    19  0.78

> <Gold.Chemscore.Hbond.Weighted>
-9.7013

> <Gold.Chemscore.Metal.Weighted>
-0.0000

> <Gold.Chemscore.Lipo.Weighted>
-7.2863

> <Gold.Chemscore.Internal_Hbond.Weighted>
0.0000

> <Gold.Chemscore.DEClash.Weighted>
0.0106

> <Gold.Chemscore.DEInternal.Weighted>
1.1304

> <Gold.Chemscore.Rot.Weighted>
4.8935

> <Gold.Chemscore.Internal.Correction.Weighted>
   9.000000E+99

> <Gold.Protein.RotatedTorsions>
[ 6907 6896 6895 6894 ] final   12.95 input  -60.11 | X-H torsion
[ 7974 7965 7964 7962 ] final  -68.53 input  175.53 | X-H torsion
[ 8008 7997 7996 7995 ] final  -69.09 input   59.86 | X-H torsion
[ 10167 10162 10161 10158 ] final  160.57 input  -65.29 | X-H torsion
[ 10718 10713 10712 10709 ] final -167.48 input   66.30 | X-H torsion
[ 10763 10752 10751 10750 ] final   78.93 input  -60.55 | X-H torsion
[ 11005 11000 10999 10996 ] final   -1.47 input  -57.11 | X-H torsion

> <Gold.Protein.ActiveResidues>
 VAL166  LYS551  ARG553  GLY616  TRP617  ASP618  TYR619  PRO620  LYS621  CYS622 
 ASP623  PHE694  ASN695  SER759  ASP760  ASP761  ALA762  ILE779  LEU786  VAL792 
 PHE793  MET794  SER795  GLU796  ALA797  LYS798  CYS799  TRP800  GLU811  SER814 

> <Gold.Protein.RotatedAtoms>
  151.7786  135.0767  160.0370 H   0  0  0  0  0  0  0  0  0  0  0  0  # atno 6907 bound_to 6896
  152.3239  133.5879  159.5771 H   0  0  0  0  0  0  0  0  0  0  0  0  # atno 6908 bound_to 6896
  150.7384  133.9886  159.3641 H   0  0  0  0  0  0  0  0  0  0  0  0  # atno 6909 bound_to 6896
  145.7154  140.9061  143.0659 H   0  0  0  0  0  0  0  0  0  0  0  0  # atno 7974 bound_to 7965
  154.4914  140.0860  156.7601 H   0  0  0  0  0  0  0  0  0  0  0  0  # atno 8008 bound_to 7997
  155.4223  140.3446  155.4254 H   0  0  0  0  0  0  0  0  0  0  0  0  # atno 8009 bound_to 7997
  156.1334  140.1508  156.9019 H   0  0  0  0  0  0  0  0  0  0  0  0  # atno 8010 bound_to 7997
  139.4841  144.4621  151.8690 H   0  0  0  0  0  0  0  0  0  0  0  0  # atno 10167 bound_to 10162
  156.6830  130.9129  151.3059 H   0  0  0  0  0  0  0  0  0  0  0  0  # atno 10718 bound_to 10713
  153.0912  135.4859  154.8694 H   0  0  0  0  0  0  0  0  0  0  0  0  # atno 10763 bound_to 10752
  154.7271  135.3052  154.8954 H   0  0  0  0  0  0  0  0  0  0  0  0  # atno 10764 bound_to 10752
  153.9601  135.6813  153.4798 H   0  0  0  0  0  0  0  0  0  0  0  0  # atno 10765 bound_to 10752
  140.6477  133.9432  155.8362 H   0  0  0  0  0  0  0  0  0  0  0  0  # atno 11005 bound_to 11000
  144.6931  139.9130  143.7464 LP  0  0  0  0  0  0  0  0  0  0  0  0  # atno 17320 bound_to 7965
  146.0675  139.3665  143.0543 LP  0  0  0  0  0  0  0  0  0  0  0  0  # atno 17321 bound_to 7965
  140.4084  144.2401  150.5890 LP  0  0  0  0  0  0  0  0  0  0  0  0  # atno 17342 bound_to 10162
  140.4990  143.2324  151.8707 LP  0  0  0  0  0  0  0  0  0  0  0  0  # atno 17343 bound_to 10162
  157.7037  130.9361  150.0863 LP  0  0  0  0  0  0  0  0  0  0  0  0  # atno 17370 bound_to 10713
  156.1854  130.3652  149.8980 LP  0  0  0  0  0  0  0  0  0  0  0  0  # atno 17371 bound_to 10713
  141.0560  134.0416  157.3722 LP  0  0  0  0  0  0  0  0  0  0  0  0  # atno 17394 bound_to 11000
  139.9057  135.0178  156.7474 LP  0  0  0  0  0  0  0  0  0  0  0  0  # atno 17395 bound_to 11000

$$$$
