AV-unprocessed.smi:1915|AV-procd|sdf|7762|dock6
  -GOLD-   22720 9503D 1   1.00000     0.00000
 Structure written by MMmdl.
 45 46  0  0  0  0  0  0  0  0  2 V2000
  149.4046  133.7176  154.3043 C   0  0  0  0  0  0  0  0  0  0  0  0
  149.6152  134.0006  155.8015 C   0  0  0  0  0  0  0  0  0  0  0  0
  148.8229  133.0011  156.6564 C   0  0  0  0  0  0  0  0  0  0  0  0
  149.2743  135.4518  156.2080 C   0  0  0  0  0  0  0  0  0  0  0  0
  150.1428  136.4376  155.5673 N   0  0  0  0  0  0  0  0  0  0  0  0
  149.6361  137.2841  154.5009 C   0  0  0  0  0  0  0  0  0  0  0  0
  150.7208  138.3590  154.2873 C   0  0  1  0  0  0  0  0  0  0  0  0
  150.3263  139.7004  154.9265 C   0  0  0  0  0  0  0  0  0  0  0  0
  150.0316  140.6627  154.2161 O   0  0  0  0  0  0  0  0  0  0  0  0
  150.3490  139.7594  156.2676 N   0  0  0  0  0  0  0  0  0  0  0  0
  150.0161  140.9362  157.0681 C   0  0  0  0  0  0  0  0  0  0  0  0
  150.7960  142.2011  156.6513 C   0  0  0  0  0  0  0  0  0  0  0  0
  151.3330  143.0112  157.8192 C   0  0  0  0  0  0  0  0  0  0  0  0
  152.1828  142.4440  158.7934 C   0  0  0  0  0  0  0  0  0  0  0  0
  152.6076  143.2342  159.8821 C   0  0  0  0  0  0  0  0  0  0  0  0
  152.1776  144.5741  159.9720 C   0  0  0  0  0  0  0  0  0  0  0  0
  151.3333  145.0912  158.9688 C   0  0  0  0  0  0  0  0  0  0  0  0
  150.9449  144.3016  157.9436 N   0  3  0  0  0  0  0  0  0  0  0  0
  151.9863  137.7649  154.9386 C   0  0  0  0  0  0  0  0  0  0  0  0
  151.4493  136.6250  155.7907 C   0  0  0  0  0  0  0  0  0  0  0  0
  152.1482  135.9996  156.5862 O   0  0  0  0  0  0  0  0  0  0  0  0
  148.3772  133.9246  154.0032 H   0  0  0  0  0  0  0  0  0  0  0  0
  149.6169  132.6744  154.0693 H   0  0  0  0  0  0  0  0  0  0  0  0
  150.0647  134.3237  153.6837 H   0  0  0  0  0  0  0  0  0  0  0  0
  150.6709  133.8365  156.0158 H   0  0  0  0  0  0  0  0  0  0  0  0
  147.7498  133.1011  156.4899 H   0  0  0  0  0  0  0  0  0  0  0  0
  149.0105  133.1564  157.7192 H   0  0  0  0  0  0  0  0  0  0  0  0
  149.1019  131.9733  156.4213 H   0  0  0  0  0  0  0  0  0  0  0  0
  148.2302  135.6687  155.9751 H   0  0  0  0  0  0  0  0  0  0  0  0
  149.3679  135.5636  157.2891 H   0  0  0  0  0  0  0  0  0  0  0  0
  149.5022  136.6852  153.5992 H   0  0  0  0  0  0  0  0  0  0  0  0
  148.6645  137.7042  154.7642 H   0  0  0  0  0  0  0  0  0  0  0  0
  150.8878  138.5101  153.2196 H   0  0  0  0  0  0  0  0  0  0  0  0
  150.6014  138.9221  156.7731 H   0  0  0  0  0  0  0  0  0  0  0  0
  148.9425  141.1285  157.0288 H   0  0  0  0  0  0  0  0  0  0  0  0
  150.2405  140.7033  158.1092 H   0  0  0  0  0  0  0  0  0  0  0  0
  151.6340  141.9157  156.0147 H   0  0  0  0  0  0  0  0  0  0  0  0
  150.1578  142.8398  156.0387 H   0  0  0  0  0  0  0  0  0  0  0  0
  152.4936  141.4124  158.7169 H   0  0  0  0  0  0  0  0  0  0  0  0
  153.2515  142.8155  160.6416 H   0  0  0  0  0  0  0  0  0  0  0  0
  152.4874  145.1943  160.8005 H   0  0  0  0  0  0  0  0  0  0  0  0
  150.9522  146.1019  158.9605 H   0  0  0  0  0  0  0  0  0  0  0  0
  152.6635  137.3630  154.1844 H   0  0  0  0  0  0  0  0  0  0  0  0
  152.5460  138.4765  155.5478 H   0  0  0  0  0  0  0  0  0  0  0  0
  150.3243  144.6936  157.2351 H   0  0  0  0  0  0  0  0  0  0  0  0
  1  2  1  0  0  0  0
  1 22  1  0  0  0  0
  1 23  1  0  0  0  0
  1 24  1  0  0  0  0
  2  3  1  0  0  0  0
  2  4  1  0  0  0  0
  2 25  1  0  0  0  0
  3 26  1  0  0  0  0
  3 27  1  0  0  0  0
  3 28  1  0  0  0  0
  4  5  1  0  0  0  0
  4 29  1  0  0  0  0
  4 30  1  0  0  0  0
  5 20  1  0  0  0  0
  5  6  1  0  0  0  0
  6  7  1  0  0  0  0
  6 31  1  0  0  0  0
  6 32  1  0  0  0  0
  7  8  1  0  0  0  0
  7 19  1  0  0  0  0
  7 33  1  0  0  0  0
  8  9  2  0  0  0  0
  8 10  1  0  0  0  0
 10 11  1  0  0  0  0
 10 34  1  0  0  0  0
 11 12  1  0  0  0  0
 11 35  1  0  0  0  0
 11 36  1  0  0  0  0
 12 13  1  0  0  0  0
 12 37  1  0  0  0  0
 12 38  1  0  0  0  0
 13 18  1  0  0  0  0
 13 14  2  0  0  0  0
 14 15  1  0  0  0  0
 14 39  1  0  0  0  0
 15 16  2  0  0  0  0
 15 40  1  0  0  0  0
 16 17  1  0  0  0  0
 16 41  1  0  0  0  0
 17 18  2  0  0  0  0
 17 42  1  0  0  0  0
 18 45  1  0  0  0  0
 19 20  1  0  0  0  0
 19 43  1  0  0  0  0
 19 44  1  0  0  0  0
 20 21  2  0  0  0  0
M  CHG  1  18   1
M  END
> <s_m_source_file>
AV-unprocessed.smi

> <i_m_source_file_index>
1915

> <i_lp_mmshare_version>
43012

> <i_f3d_flags>
0

> <s_epik_input>
W0NIM11bQ0hdKFtDSDNdKVtDSDJdTjFbQ0gyXVtDQEhdKFtDSDJdQzE9TylDKD1PKVtOSF1bQ0gyXVtDSDJdYzJbY0hdW2NIXVtjSF1bY0hdbjI=

> <s_epik_cmdline>
J2VwaWtfcHl0aG9uJywgJy1waCcsICc3LjAnLCAnLXRuJywgJzgnLCAnLW1hJywgJzIwMCcsICctbWV0YWxfYmluZGluZycsICctaW1hZScsICc8aW5maWxlLm1hZT4nLCAnLW9tYWUnLCAnPG91dGZpbGUubWFlPic=

> <r_epik_Ionization_Penalty>
1.88249

> <r_epik_Ionization_Penalty_Charging>
1.88249

> <r_epik_Ionization_Penalty_Neutral>
3.64574e-08

> <r_epik_State_Penalty>
2.00238

> <r_epik_Charging_Adjusted_Penalty>
3.88487

> <i_epik_Tot_Q>
1

> <i_epik_Tot_abs_Q>
1

> <r_epik_Metal_State_Penalty>
2.02676

> <b_epik_Metal_Only>
0

> <s_lp_Force_Field>
OPLS_2005

> <r_lp_Energy>
19.4357

> <b_lp_Chiralities_Consistent>
1

> <s_lp_Variant>
AV-unprocessed.smi:1915-3

> <Gold.Version>
5.8.1

> <Gold.Id.Protein>
6NUR|6NUR_protein|mol2

> <Gold.PLP.Fitness>
48.1170

> <Gold.PLP.PLP>
-38.8932

> <Gold.PLP.part.hbond>
-3.0000

> <Gold.PLP.part.metal>
0.0000

> <Gold.PLP.part.buried>
-1.8534

> <Gold.PLP.part.nonpolar>
-35.0199

> <Gold.PLP.part.repulsive>
0.4140

> <Gold.PLP.ligand.clash>
0.0000

> <Gold.PLP.ligand.torsion>
0.7526

> <Gold.PLP.Chemscore.Hbond>
3.5280

> <Gold.PLP.Chemscore.CHOScore>
0.0000

> <Gold.PLP.Chemscore.Metal>
0.0000

> <Gold.Chemscore.Hbonds>
donor molecule, donor type, donor heavy atom, donor atom, acceptor molecule, acceptor atom, score
      L1  H    18    45       P1  8028  1.69
      P1  H  7989  7998       L1     9  0.65
      P1  H 10752 10764       L1    21  0.90

> <Gold.PLP.Chemscore.Internal.Correction>
0.1449

> <Gold.Rescore>
     Score         DG    S(hbond)    S(metal)    S(lipo)     H(rot)  DE(clash)    DE(int)     intcor
     16.53     -18.38       1.56        0.00     106.47       1.86       0.31       1.55       ----

> <Gold.Chemscore.Fitness>
16.5272

> <Gold.Chemscore.DG>
-18.3848

> <Gold.Chemscore.ZeroCoef>
-5.4800

> <Gold.Chemscore.Hbond>
1.5627

> <Gold.Chemscore.Metal>
0.0000

> <Gold.Chemscore.Lipo>
106.4665

> <Gold.Chemscore.Internal_Hbond>
0.0000

> <Gold.Chemscore.DEClash>
0.3104

> <Gold.Chemscore.DEInternal>
1.5472

> <Gold.Chemscore.Rot>
1.8638

> <Gold.Chemscore.Internal.Correction>
   9.000000E+99

> <Gold.Chemscore.Hbonds>
donor molecule, donor type, donor heavy atom, donor atom, acceptor molecule, acceptor atom, score
      L1  H    18    45       P1  8028  0.37
      P1  H  7989  7998       L1     9  0.13
      P1  H 10752 10764       L1    21  0.17

> <Gold.Chemscore.Hbond.Weighted>
-5.2195

> <Gold.Chemscore.Metal.Weighted>
-0.0000

> <Gold.Chemscore.Lipo.Weighted>
-12.4566

> <Gold.Chemscore.Internal_Hbond.Weighted>
0.0000

> <Gold.Chemscore.DEClash.Weighted>
0.3104

> <Gold.Chemscore.DEInternal.Weighted>
1.5472

> <Gold.Chemscore.Rot.Weighted>
4.7713

> <Gold.Chemscore.Internal.Correction.Weighted>
   9.000000E+99

> <Gold.Protein.RotatedTorsions>
[ 6907 6896 6895 6894 ] final  165.55 input  -60.11 | X-H torsion
[ 7974 7965 7964 7962 ] final -149.97 input  175.53 | X-H torsion
[ 8008 7997 7996 7995 ] final   27.44 input   59.86 | X-H torsion
[ 10167 10162 10161 10158 ] final  -25.54 input  -65.29 | X-H torsion
[ 10718 10713 10712 10709 ] final  -37.90 input   66.30 | X-H torsion
[ 10763 10752 10751 10750 ] final   -0.69 input  -60.55 | X-H torsion
[ 11005 11000 10999 10996 ] final   34.17 input  -57.11 | X-H torsion

> <Gold.Protein.ActiveResidues>
 VAL166  LYS551  ARG553  GLY616  TRP617  ASP618  TYR619  PRO620  LYS621  CYS622 
 ASP623  PHE694  ASN695  SER759  ASP760  ASP761  ALA762  ILE779  LEU786  VAL792 
 PHE793  MET794  SER795  GLU796  ALA797  LYS798  CYS799  TRP800  GLU811  SER814 

> <Gold.Protein.RotatedAtoms>
  151.8926  133.3519  159.3803 H   0  0  0  0  0  0  0  0  0  0  0  0  # atno 6907 bound_to 6896
  150.7099  134.4908  159.5524 H   0  0  0  0  0  0  0  0  0  0  0  0  # atno 6908 bound_to 6896
  152.2481  134.8161  160.0501 H   0  0  0  0  0  0  0  0  0  0  0  0  # atno 6909 bound_to 6896
  144.7936  140.4995  143.5756 H   0  0  0  0  0  0  0  0  0  0  0  0  # atno 7974 bound_to 7965
  155.0429  140.3171  155.4718 H   0  0  0  0  0  0  0  0  0  0  0  0  # atno 8008 bound_to 7997
  156.2851  140.2160  156.5497 H   0  0  0  0  0  0  0  0  0  0  0  0  # atno 8009 bound_to 7997
  154.7274  140.0484  157.0683 H   0  0  0  0  0  0  0  0  0  0  0  0  # atno 8010 bound_to 7997
  140.7286  143.4256  151.0882 H   0  0  0  0  0  0  0  0  0  0  0  0  # atno 10167 bound_to 10162
  156.3099  130.4251  149.8060 H   0  0  0  0  0  0  0  0  0  0  0  0  # atno 10718 bound_to 10713
  153.3351  135.6977  153.6914 H   0  0  0  0  0  0  0  0  0  0  0  0  # atno 10763 bound_to 10752
  153.5701  135.3518  155.2835 H   0  0  0  0  0  0  0  0  0  0  0  0  # atno 10764 bound_to 10752
  154.8626  135.4270  154.2550 H   0  0  0  0  0  0  0  0  0  0  0  0  # atno 10765 bound_to 10752
  140.2556  134.3252  155.7875 H   0  0  0  0  0  0  0  0  0  0  0  0  # atno 11005 bound_to 11000
  145.5732  139.1484  143.3277 LP  0  0  0  0  0  0  0  0  0  0  0  0  # atno 17320 bound_to 7965
  146.2196  140.5864  142.9023 LP  0  0  0  0  0  0  0  0  0  0  0  0  # atno 17321 bound_to 7965
  139.7907  143.8222  152.3151 LP  0  0  0  0  0  0  0  0  0  0  0  0  # atno 17342 bound_to 10162
  139.8205  144.7297  150.9578 LP  0  0  0  0  0  0  0  0  0  0  0  0  # atno 17343 bound_to 10162
  156.5407  130.8299  151.3268 LP  0  0  0  0  0  0  0  0  0  0  0  0  # atno 17370 bound_to 10713
  157.7388  130.9821  150.2277 LP  0  0  0  0  0  0  0  0  0  0  0  0  # atno 17371 bound_to 10713
  141.2196  133.7379  156.9105 LP  0  0  0  0  0  0  0  0  0  0  0  0  # atno 17394 bound_to 11000
  140.1515  134.9227  157.2599 LP  0  0  0  0  0  0  0  0  0  0  0  0  # atno 17395 bound_to 11000

$$$$
