AV-unprocessed.smi:292|AV-procd|sdf|2250|dock5
  -GOLD-   2262022133D 1   1.00000     0.00000
 Structure written by MMmdl.
 33 34  0  0  0  0  0  0  0  0  1 V2000
  145.4888  141.5174  159.4044 N   0  0  0  0  0  0  0  0  0  0  0  0
  145.8457  141.4933  158.3037 C   0  0  0  0  0  0  0  0  0  0  0  0
  146.2940  141.4629  156.9218 C   0  0  0  0  0  0  0  0  0  0  0  0
  145.4074  141.3973  155.8862 N   0  0  0  0  0  0  0  0  0  0  0  0
  146.2697  141.3949  154.8772 C   0  0  0  0  0  0  0  0  0  0  0  0
  147.5510  141.4517  155.2566 N   0  0  0  0  0  0  0  0  0  0  0  0
  148.7700  141.4567  154.4665 C   0  0  0  0  0  0  0  0  0  0  0  0
  150.0107  141.4102  155.3601 C   0  0  0  0  0  0  0  0  0  0  0  0
  150.8285  140.4996  155.2305 O   0  0  0  0  0  0  0  0  0  0  0  0
  150.1377  142.3987  156.2598 N   0  0  0  0  0  0  0  0  0  0  0  0
  151.2091  142.5301  157.2470 C   0  0  1  0  0  0  0  0  0  0  0  0
  151.1563  143.9251  157.9081 C   0  0  0  0  0  0  0  0  0  0  0  0
  152.4919  144.3747  158.5221 C   0  0  0  0  0  0  0  0  0  0  0  0
  152.9996  143.4979  159.6768 C   0  0  0  0  0  0  0  0  0  0  0  0
  153.3603  142.0634  159.2527 C   0  0  0  0  0  0  0  0  0  0  0  0
  152.1880  141.2084  159.1120 N   0  0  0  0  0  0  0  0  0  0  0  0
  151.1770  141.3545  158.2421 C   0  0  0  0  0  0  0  0  0  0  0  0
  150.2338  140.5636  158.2423 O   0  0  0  0  0  0  0  0  0  0  0  0
  147.5880  141.4998  156.6107 N   0  0  0  0  0  0  0  0  0  0  0  0
  145.9633  141.3438  153.8426 H   0  0  0  0  0  0  0  0  0  0  0  0
  148.7553  140.5944  153.7985 H   0  0  0  0  0  0  0  0  0  0  0  0
  148.7993  142.3503  153.8410 H   0  0  0  0  0  0  0  0  0  0  0  0
  149.4123  143.1012  156.2924 H   0  0  0  0  0  0  0  0  0  0  0  0
  152.1518  142.4416  156.7035 H   0  0  0  0  0  0  0  0  0  0  0  0
  150.8763  144.6711  157.1631 H   0  0  0  0  0  0  0  0  0  0  0  0
  150.3685  143.9535  158.6622 H   0  0  0  0  0  0  0  0  0  0  0  0
  153.2516  144.4240  157.7411 H   0  0  0  0  0  0  0  0  0  0  0  0
  152.3770  145.3960  158.8871 H   0  0  0  0  0  0  0  0  0  0  0  0
  153.8945  143.9678  160.0857 H   0  0  0  0  0  0  0  0  0  0  0  0
  152.2731  143.4825  160.4904 H   0  0  0  0  0  0  0  0  0  0  0  0
  153.9474  142.0596  158.3334 H   0  0  0  0  0  0  0  0  0  0  0  0
  153.9914  141.6129  160.0192 H   0  0  0  0  0  0  0  0  0  0  0  0
  152.1322  140.4253  159.7472 H   0  0  0  0  0  0  0  0  0  0  0  0
  1  2  3  0  0  0  0
  2  3  1  0  0  0  0
  3 19  2  0  0  0  0
  3  4  1  0  0  0  0
  4  5  2  0  0  0  0
  5  6  1  0  0  0  0
  5 20  1  0  0  0  0
  6  7  1  0  0  0  0
  6 19  1  0  0  0  0
  7  8  1  0  0  0  0
  7 21  1  0  0  0  0
  7 22  1  0  0  0  0
  8  9  2  0  0  0  0
  8 10  1  0  0  0  0
 10 11  1  0  0  0  0
 10 23  1  0  0  0  0
 11 17  1  0  0  0  0
 11 12  1  0  0  0  0
 11 24  1  0  0  0  0
 12 13  1  0  0  0  0
 12 25  1  0  0  0  0
 12 26  1  0  0  0  0
 13 14  1  0  0  0  0
 13 27  1  0  0  0  0
 13 28  1  0  0  0  0
 14 15  1  0  0  0  0
 14 29  1  0  0  0  0
 14 30  1  0  0  0  0
 15 16  1  0  0  0  0
 15 31  1  0  0  0  0
 15 32  1  0  0  0  0
 16 17  1  0  0  0  0
 16 33  1  0  0  0  0
 17 18  2  0  0  0  0
M  END
> <s_m_source_file>
AV-unprocessed.smi

> <i_m_source_file_index>
292

> <i_lp_mmshare_version>
43012

> <i_f3d_flags>
0

> <s_epik_input>
TiNDYzFuW2NIXW4objEpW0NIMl1DKD1PKVtOSF1bQ0BASF0yW0NIMl1bQ0gyXVtDSDJdW0NIMl1bTkhdQzI9Tw==

> <s_epik_cmdline>
J2VwaWtfcHl0aG9uJywgJy1waCcsICc3LjAnLCAnLXRuJywgJzgnLCAnLW1hJywgJzIwMCcsICctbWV0YWxfYmluZGluZycsICctaW1hZScsICc8aW5maWxlLm1hZT4nLCAnLW9tYWUnLCAnPG91dGZpbGUubWFlPic=

> <r_lp_tautomer_probability>
1

> <r_epik_Ionization_Penalty>
1.99744e-07

> <r_epik_Ionization_Penalty_Charging>
0

> <r_epik_Ionization_Penalty_Neutral>
1.99744e-07

> <r_epik_State_Penalty>
-0

> <r_epik_Charging_Adjusted_Penalty>
0

> <i_epik_Tot_Q>
0

> <i_epik_Tot_abs_Q>
0

> <r_epik_Metal_State_Penalty>
-0

> <b_epik_Metal_Only>
0

> <s_lp_Force_Field>
OPLS_2005

> <r_lp_Energy>
14.2569

> <b_lp_Chiralities_Consistent>
1

> <s_lp_Variant>
AV-unprocessed.smi:292-2

> <Gold.Version>
5.8.1

> <Gold.Id.Protein>
6NUR|6NUR_protein|mol2

> <Gold.PLP.Fitness>
42.9210

> <Gold.PLP.PLP>
-33.3660

> <Gold.PLP.part.hbond>
-3.0000

> <Gold.PLP.part.metal>
0.0000

> <Gold.PLP.part.buried>
-5.1417

> <Gold.PLP.part.nonpolar>
-26.3355

> <Gold.PLP.part.repulsive>
0.4473

> <Gold.PLP.ligand.clash>
0.0000

> <Gold.PLP.ligand.torsion>
0.0893

> <Gold.PLP.Chemscore.Hbond>
2.8640

> <Gold.PLP.Chemscore.CHOScore>
0.3710

> <Gold.PLP.Chemscore.Metal>
0.0000

> <Gold.Chemscore.Hbonds>
donor molecule, donor type, donor heavy atom, donor atom, acceptor molecule, acceptor atom, score
      L1  H    10    23       P1  8028  0.90
      P1  H  6934  6946       L1     1  0.98
      P1  H  7989  7998       L1     9  0.99
      L1  C     5    20       P1 10175  0.37

> <Gold.PLP.Chemscore.Internal.Correction>
0.0286

> <Gold.Rescore>
     Score         DG    S(hbond)    S(metal)    S(lipo)     H(rot)  DE(clash)    DE(int)     intcor
     14.19     -16.11       2.43        0.00      68.33       2.14       0.20       1.71       ----

> <Gold.Chemscore.Fitness>
14.1885

> <Gold.Chemscore.DG>
-16.1061

> <Gold.Chemscore.ZeroCoef>
-5.4800

> <Gold.Chemscore.Hbond>
2.4313

> <Gold.Chemscore.Metal>
0.0000

> <Gold.Chemscore.Lipo>
68.3345

> <Gold.Chemscore.Internal_Hbond>
0.0000

> <Gold.Chemscore.DEClash>
0.2047

> <Gold.Chemscore.DEInternal>
1.7128

> <Gold.Chemscore.Rot>
2.1444

> <Gold.Chemscore.Internal.Correction>
   9.000000E+99

> <Gold.Chemscore.Hbonds>
donor molecule, donor type, donor heavy atom, donor atom, acceptor molecule, acceptor atom, score
      L1  H    10    23       P1  8028  0.88
      P1  H  6934  6946       L1     1  0.74
      P1  H  7989  7998       L1     9  0.37

> <Gold.Chemscore.Hbond.Weighted>
-8.1205

> <Gold.Chemscore.Metal.Weighted>
-0.0000

> <Gold.Chemscore.Lipo.Weighted>
-7.9951

> <Gold.Chemscore.Internal_Hbond.Weighted>
0.0000

> <Gold.Chemscore.DEClash.Weighted>
0.2047

> <Gold.Chemscore.DEInternal.Weighted>
1.7128

> <Gold.Chemscore.Rot.Weighted>
5.4896

> <Gold.Chemscore.Internal.Correction.Weighted>
   9.000000E+99

> <Gold.Protein.RotatedTorsions>
[ 6907 6896 6895 6894 ] final -145.59 input  -60.11 | X-H torsion
[ 7974 7965 7964 7962 ] final  148.02 input  175.53 | X-H torsion
[ 8008 7997 7996 7995 ] final -114.40 input   59.86 | X-H torsion
[ 10167 10162 10161 10158 ] final  -83.08 input  -65.29 | X-H torsion
[ 10718 10713 10712 10709 ] final   71.09 input   66.30 | X-H torsion
[ 10763 10752 10751 10750 ] final  154.13 input  -60.55 | X-H torsion
[ 11005 11000 10999 10996 ] final  -68.18 input  -57.11 | X-H torsion

> <Gold.Protein.ActiveResidues>
 VAL166  LYS551  ARG553  GLY616  TRP617  ASP618  TYR619  PRO620  LYS621  CYS622 
 ASP623  PHE694  ASN695  SER759  ASP760  ASP761  ALA762  ILE779  LEU786  VAL792 
 PHE793  MET794  SER795  GLU796  ALA797  LYS798  CYS799  TRP800  GLU811  SER814 

> <Gold.Protein.RotatedAtoms>
  151.1298  133.5045  159.2599 H   0  0  0  0  0  0  0  0  0  0  0  0  # atno 6907 bound_to 6896
  151.1770  135.0343  159.8786 H   0  0  0  0  0  0  0  0  0  0  0  0  # atno 6908 bound_to 6896
  152.5459  134.1155  159.8430 H   0  0  0  0  0  0  0  0  0  0  0  0  # atno 6909 bound_to 6896
  144.8546  139.6102  143.5958 H   0  0  0  0  0  0  0  0  0  0  0  0  # atno 7974 bound_to 7965
  155.0358  140.0392  157.2491 H   0  0  0  0  0  0  0  0  0  0  0  0  # atno 8008 bound_to 7997
  154.7258  140.2721  155.6476 H   0  0  0  0  0  0  0  0  0  0  0  0  # atno 8009 bound_to 7997
  156.2829  140.2694  156.1944 H   0  0  0  0  0  0  0  0  0  0  0  0  # atno 8010 bound_to 7997
  140.4260  143.2566  151.8825 H   0  0  0  0  0  0  0  0  0  0  0  0  # atno 10167 bound_to 10162
  157.6434  130.9511  150.0741 H   0  0  0  0  0  0  0  0  0  0  0  0  # atno 10718 bound_to 10713
  154.1474  135.2817  155.3144 H   0  0  0  0  0  0  0  0  0  0  0  0  # atno 10763 bound_to 10752
  154.6242  135.5457  153.7612 H   0  0  0  0  0  0  0  0  0  0  0  0  # atno 10764 bound_to 10752
  153.0231  135.6446  154.1619 H   0  0  0  0  0  0  0  0  0  0  0  0  # atno 10765 bound_to 10752
  141.1526  133.6735  156.6406 H   0  0  0  0  0  0  0  0  0  0  0  0  # atno 11005 bound_to 11000
  146.2812  139.6883  142.9227 LP  0  0  0  0  0  0  0  0  0  0  0  0  # atno 17320 bound_to 7965
  145.4432  141.0424  143.2846 LP  0  0  0  0  0  0  0  0  0  0  0  0  # atno 17321 bound_to 7965
  139.4783  144.5386  151.8561 LP  0  0  0  0  0  0  0  0  0  0  0  0  # atno 17342 bound_to 10162
  140.4481  144.1894  150.5895 LP  0  0  0  0  0  0  0  0  0  0  0  0  # atno 17343 bound_to 10162
  156.1737  130.3647  149.9130 LP  0  0  0  0  0  0  0  0  0  0  0  0  # atno 17370 bound_to 10713
  156.7099  130.8966  151.3608 LP  0  0  0  0  0  0  0  0  0  0  0  0  # atno 17371 bound_to 10713
  140.3396  134.7860  157.4388 LP  0  0  0  0  0  0  0  0  0  0  0  0  # atno 17394 bound_to 11000
  140.0948  134.5551  155.8408 LP  0  0  0  0  0  0  0  0  0  0  0  0  # atno 17395 bound_to 11000

$$$$
