AV-unprocessed.smi:157|AV-procd|sdf|1296|dock5
  -GOLD-   2262018583D 1   1.00000     0.00000
 Structure written by MMmdl.
 35 37  0  0  0  0  0  0  0  0  1 V2000
  146.7771  130.9431  151.8502 O   0  0  0  0  0  0  0  0  0  0  0  0
  145.4992  131.2861  151.3570 C   0  0  0  0  0  0  0  0  0  0  0  0
  145.5339  132.6741  150.6937 C   0  0  2  0  0  0  0  0  0  0  0  0
  145.5386  133.7095  151.6766 O   0  0  0  0  0  0  0  0  0  0  0  0
  144.7292  134.7686  151.2616 C   0  0  1  0  0  0  0  0  0  0  0  0
  145.4722  136.0578  151.4389 N   0  0  0  0  0  0  0  0  0  0  0  0
  145.9079  136.8327  150.4383 C   0  0  0  0  0  0  0  0  0  0  0  0
  146.5451  137.9251  150.8230 N   0  0  0  0  0  0  0  0  0  0  0  0
  146.5128  137.8603  152.2148 C   0  0  0  0  0  0  0  0  0  0  0  0
  145.8466  136.7119  152.6204 C   0  0  0  0  0  0  0  0  0  0  0  0
  145.5237  136.1328  153.8328 N   0  0  0  0  0  0  0  0  0  0  0  0
  145.5225  136.8861  154.8868 C   0  0  0  0  0  0  0  0  0  0  0  0
  145.9001  138.2125  155.0371 N   0  0  0  0  0  0  0  0  0  0  0  0
  147.1608  138.7349  154.5390 C   0  0  0  0  0  0  0  0  0  0  0  0
  147.1834  138.9381  153.0188 C   0  0  2  0  0  0  0  0  0  0  0  0
  146.5368  140.1542  152.7025 O   0  0  0  0  0  0  0  0  0  0  0  0
  144.3660  134.5290  149.7960 C   0  0  0  0  0  0  0  0  0  0  0  0
  144.3833  133.0164  149.7312 C   0  0  2  0  0  0  0  0  0  0  0  0
  143.1414  132.4849  150.1550 O   0  0  0  0  0  0  0  0  0  0  0  0
  146.4729  132.7768  150.1468 H   0  0  0  0  0  0  0  0  0  0  0  0
  143.8552  134.8375  151.9111 H   0  0  0  0  0  0  0  0  0  0  0  0
  148.2216  139.0430  152.7020 H   0  0  0  0  0  0  0  0  0  0  0  0
  144.5832  132.6564  148.7217 H   0  0  0  0  0  0  0  0  0  0  0  0
  147.3797  130.9082  151.1229 H   0  0  0  0  0  0  0  0  0  0  0  0
  145.1501  130.5198  150.6648 H   0  0  0  0  0  0  0  0  0  0  0  0
  144.8026  131.2955  152.1956 H   0  0  0  0  0  0  0  0  0  0  0  0
  145.7596  136.5851  149.3974 H   0  0  0  0  0  0  0  0  0  0  0  0
  145.1895  136.4547  155.8316 H   0  0  0  0  0  0  0  0  0  0  0  0
  145.6020  138.7065  155.8659 H   0  0  0  0  0  0  0  0  0  0  0  0
  147.4142  139.6586  155.0601 H   0  0  0  0  0  0  0  0  0  0  0  0
  147.9348  138.0138  154.8059 H   0  0  0  0  0  0  0  0  0  0  0  0
  145.6094  140.0403  152.8459 H   0  0  0  0  0  0  0  0  0  0  0  0
  143.4086  134.9846  149.5410 H   0  0  0  0  0  0  0  0  0  0  0  0
  145.1380  134.9415  149.1457 H   0  0  0  0  0  0  0  0  0  0  0  0
  142.4666  133.1194  149.9671 H   0  0  0  0  0  0  0  0  0  0  0  0
  1  2  1  0  0  0  0
  1 24  1  0  0  0  0
  2  3  1  0  0  0  0
  2 25  1  0  0  0  0
  2 26  1  0  0  0  0
  3 20  1  0  0  0  0
  3 18  1  0  0  0  0
  3  4  1  0  0  0  0
  4  5  1  0  0  0  0
  5 21  1  0  0  0  0
  5  6  1  0  0  0  0
  5 17  1  0  0  0  0
  6 10  1  0  0  0  0
  6  7  1  0  0  0  0
  7  8  2  0  0  0  0
  7 27  1  0  0  0  0
  8  9  1  0  0  0  0
  9 15  1  0  0  0  0
  9 10  2  0  0  0  0
 10 11  1  0  0  0  0
 11 12  2  0  0  0  0
 12 13  1  0  0  0  0
 12 28  1  0  0  0  0
 13 14  1  0  0  0  0
 13 29  1  0  0  0  0
 14 15  1  0  0  0  0
 14 30  1  0  0  0  0
 14 31  1  0  0  0  0
 15 22  1  0  0  0  0
 15 16  1  0  0  0  0
 16 32  1  0  0  0  0
 17 18  1  0  0  0  0
 17 33  1  0  0  0  0
 17 34  1  0  0  0  0
 18 23  1  0  0  0  0
 18 19  1  0  0  0  0
 19 35  1  0  0  0  0
M  END
> <s_m_source_file>
AV-unprocessed.smi

> <i_m_source_file_index>
157

> <i_lp_mmshare_version>
43012

> <i_f3d_flags>
0

> <s_epik_input>
W09IXVtDSDJdW0NASF0xT1tDQEhdKFtDSDJdW0NAQEhdMVtPSF0pbihbY0hdbjIpYyhjMjMpTj1bQ0hdW05IXVtDSDJdW0NASF0zW09IXQ==

> <s_epik_cmdline>
J2VwaWtfcHl0aG9uJywgJy1waCcsICc3LjAnLCAnLXRuJywgJzgnLCAnLW1hJywgJzIwMCcsICctbWV0YWxfYmluZGluZycsICctaW1hZScsICc8aW5maWxlLm1hZT4nLCAnLW9tYWUnLCAnPG91dGZpbGUubWFlPic=

> <r_lp_tautomer_probability>
1

> <r_epik_Ionization_Penalty>
0.0357149

> <r_epik_Ionization_Penalty_Charging>
0.0355056

> <r_epik_Ionization_Penalty_Neutral>
0.000209255

> <r_epik_State_Penalty>
0.0296046

> <r_epik_Charging_Adjusted_Penalty>
0.0651102

> <i_epik_Tot_Q>
0

> <i_epik_Tot_abs_Q>
0

> <r_epik_Metal_State_Penalty>
3.03559e-05

> <b_epik_Metal_Only>
0

> <s_epik_Chemistry_Notes>
This compound has an imine and may undergo hydrolysis. This compound contains an acetal/aminal-like group ( X-CH(R)-Y where X, Y are N, S, or O) that may be acid/base labile, releasing an aldehyde.

> <s_lp_Force_Field>
OPLS_2005

> <r_lp_Energy>
46.6241

> <b_lp_Chiralities_Consistent>
1

> <s_lp_Variant>
AV-unprocessed.smi:157-6

> <Gold.Version>
5.8.1

> <Gold.Id.Protein>
6NUR|6NUR_protein|mol2

> <Gold.PLP.Fitness>
40.6061

> <Gold.PLP.PLP>
-26.1807

> <Gold.PLP.part.hbond>
-4.4361

> <Gold.PLP.part.metal>
0.0000

> <Gold.PLP.part.buried>
0.5685

> <Gold.PLP.part.nonpolar>
-24.7760

> <Gold.PLP.part.repulsive>
2.1499

> <Gold.PLP.ligand.clash>
0.0000

> <Gold.PLP.ligand.torsion>
0.2885

> <Gold.PLP.Chemscore.Hbond>
4.0000

> <Gold.PLP.Chemscore.CHOScore>
1.0000

> <Gold.PLP.Chemscore.Metal>
0.0000

> <Gold.Chemscore.Hbonds>
donor molecule, donor type, donor heavy atom, donor atom, acceptor molecule, acceptor atom, score
      L1  H     1    24       P1 10747  1.00
      L1  H    16    32       P1 10175  1.00
      L1  H    19    35       P1 10186  1.00
      P1  H  7954  7966       L1     8  1.00
      L1  C     7    27       P1  7921  1.00

> <Gold.PLP.Chemscore.Internal.Correction>
0.0024

> <Gold.Rescore>
     Score         DG    S(hbond)    S(metal)    S(lipo)     H(rot)  DE(clash)    DE(int)     intcor
      9.41     -14.16       3.51        0.00      53.68       3.64       4.60       0.15       ----

> <Gold.Chemscore.Fitness>
9.4093

> <Gold.Chemscore.DG>
-14.1633

> <Gold.Chemscore.ZeroCoef>
-5.4800

> <Gold.Chemscore.Hbond>
3.5065

> <Gold.Chemscore.Metal>
0.0000

> <Gold.Chemscore.Lipo>
53.6774

> <Gold.Chemscore.Internal_Hbond>
0.0000

> <Gold.Chemscore.DEClash>
4.6043

> <Gold.Chemscore.DEInternal>
0.1497

> <Gold.Chemscore.Rot>
3.6362

> <Gold.Chemscore.Internal.Correction>
   9.000000E+99

> <Gold.Chemscore.Hbonds>
donor molecule, donor type, donor heavy atom, donor atom, acceptor molecule, acceptor atom, score
      L1  H     1    24       P1 10747  0.99
      L1  H    16    32       P1 10175  0.90
      L1  H    19    35       P1 10186  0.97
      P1  H  7954  7966       L1     8  0.44

> <Gold.Chemscore.Hbond.Weighted>
-11.7118

> <Gold.Chemscore.Metal.Weighted>
-0.0000

> <Gold.Chemscore.Lipo.Weighted>
-6.2803

> <Gold.Chemscore.Internal_Hbond.Weighted>
0.0000

> <Gold.Chemscore.DEClash.Weighted>
4.6043

> <Gold.Chemscore.DEInternal.Weighted>
0.1497

> <Gold.Chemscore.Rot.Weighted>
9.3087

> <Gold.Chemscore.Internal.Correction.Weighted>
   9.000000E+99

> <Gold.Protein.RotatedTorsions>
[ 6907 6896 6895 6894 ] final -131.40 input  -60.11 | X-H torsion
[ 7974 7965 7964 7962 ] final -123.71 input  175.53 | X-H torsion
[ 8008 7997 7996 7995 ] final   -6.39 input   59.86 | X-H torsion
[ 10167 10162 10161 10158 ] final  157.01 input  -65.29 | X-H torsion
[ 10718 10713 10712 10709 ] final  -28.49 input   66.30 | X-H torsion
[ 10763 10752 10751 10750 ] final -164.87 input  -60.55 | X-H torsion
[ 11005 11000 10999 10996 ] final  -28.27 input  -57.11 | X-H torsion

> <Gold.Protein.ActiveResidues>
 VAL166  LYS551  ARG553  GLY616  TRP617  ASP618  TYR619  PRO620  LYS621  CYS622 
 ASP623  PHE694  ASN695  SER759  ASP760  ASP761  ALA762  ILE779  LEU786  VAL792 
 PHE793  MET794  SER795  GLU796  ALA797  LYS798  CYS799  TRP800  GLU811  SER814 

> <Gold.Protein.RotatedAtoms>
  150.9505  133.6555  159.2772 H   0  0  0  0  0  0  0  0  0  0  0  0  # atno 6907 bound_to 6896
  151.3912  135.0955  159.9536 H   0  0  0  0  0  0  0  0  0  0  0  0  # atno 6908 bound_to 6896
  152.5108  133.9019  159.7500 H   0  0  0  0  0  0  0  0  0  0  0  0  # atno 6909 bound_to 6896
  145.0158  140.7945  143.4411 H   0  0  0  0  0  0  0  0  0  0  0  0  # atno 7974 bound_to 7965
  154.5942  140.2434  155.7879 H   0  0  0  0  0  0  0  0  0  0  0  0  # atno 8008 bound_to 7997
  156.2268  140.2980  156.0041 H   0  0  0  0  0  0  0  0  0  0  0  0  # atno 8009 bound_to 7997
  155.2321  140.0404  157.2954 H   0  0  0  0  0  0  0  0  0  0  0  0  # atno 8010 bound_to 7997
  139.4822  144.4956  151.8244 H   0  0  0  0  0  0  0  0  0  0  0  0  # atno 10167 bound_to 10162
  156.4245  130.4433  149.7160 H   0  0  0  0  0  0  0  0  0  0  0  0  # atno 10718 bound_to 10713
  154.6986  135.2984  154.9374 H   0  0  0  0  0  0  0  0  0  0  0  0  # atno 10763 bound_to 10752
  154.0314  135.6669  153.4785 H   0  0  0  0  0  0  0  0  0  0  0  0  # atno 10764 bound_to 10752
  153.0664  135.5085  154.8118 H   0  0  0  0  0  0  0  0  0  0  0  0  # atno 10765 bound_to 10752
  140.9193  133.7409  156.0779 H   0  0  0  0  0  0  0  0  0  0  0  0  # atno 11005 bound_to 11000
  145.1962  139.2275  143.5216 LP  0  0  0  0  0  0  0  0  0  0  0  0  # atno 17320 bound_to 7965
  146.3477  140.1769  142.8589 LP  0  0  0  0  0  0  0  0  0  0  0  0  # atno 17321 bound_to 7965
  140.4445  144.1941  150.5893 LP  0  0  0  0  0  0  0  0  0  0  0  0  # atno 17342 bound_to 10162
  140.4649  143.2434  151.9169 LP  0  0  0  0  0  0  0  0  0  0  0  0  # atno 17343 bound_to 10162
  156.4088  130.7711  151.2723 LP  0  0  0  0  0  0  0  0  0  0  0  0  # atno 17370 bound_to 10713
  157.7508  131.0218  150.3764 LP  0  0  0  0  0  0  0  0  0  0  0  0  # atno 17371 bound_to 10713
  140.8008  134.3511  157.5440 LP  0  0  0  0  0  0  0  0  0  0  0  0  # atno 17394 bound_to 11000
  139.8772  134.9196  156.3232 LP  0  0  0  0  0  0  0  0  0  0  0  0  # atno 17395 bound_to 11000

$$$$
