AV-unprocessed.smi:686|AV-procd|sdf|3345|dock3
  -GOLD-   22720 0323D 1   1.00000     0.00000
 Structure written by MMmdl.
 40 41  0  0  0  0  0  0  0  0  3 V2000
  150.0610  132.2395  155.7396 C   0  0  0  0  0  0  0  0  0  0  0  0
  148.5932  132.2827  155.2705 C   0  0  2  0  0  0  0  0  0  0  0  0
  148.4313  132.1011  153.7506 C   0  0  0  0  0  0  0  0  0  0  0  0
  147.3407  133.0096  153.3093 N   0  3  1  0  0  0  0  0  0  0  0  0
  146.3969  132.4352  152.3089 C   0  0  0  0  0  0  0  0  0  0  0  0
  145.4166  133.5061  151.7945 C   0  0  0  0  0  0  0  0  0  0  0  0
  145.6037  131.2481  152.8882 C   0  0  0  0  0  0  0  0  0  0  0  0
  146.7205  133.5628  154.5326 C   0  0  0  0  0  0  0  0  0  0  0  0
  147.8504  133.5935  155.5588 C   0  0  1  0  0  0  0  0  0  0  0  0
  147.3429  133.6418  156.9238 N   0  5  0  0  0  0  0  0  0  0  0  0
  147.8757  134.7516  157.9893 S   0  0  0  0  0  0  0  0  0  0  0  0
  149.3379  134.7478  158.1708 O   0  0  0  0  0  0  0  0  0  0  0  0
  147.2494  136.0548  157.7210 O   0  0  0  0  0  0  0  0  0  0  0  0
  147.1070  134.1794  159.5816 C   0  0  0  0  0  0  0  0  0  0  0  0
  147.4621  135.0721  160.7416 C   0  0  0  0  0  0  0  0  0  0  0  0
  147.1766  134.8920  162.1237 C   0  0  0  0  0  0  0  0  0  0  0  0
  147.7366  135.9882  162.7127 C   0  0  0  0  0  0  0  0  0  0  0  0
  148.3316  136.7755  161.7822 O   0  0  0  0  0  0  0  0  0  0  0  0
  148.1601  136.1776  160.5288 N   0  0  0  0  0  0  0  0  0  0  0  0
  150.6668  133.0210  155.2770 H   0  0  0  0  0  0  0  0  0  0  0  0
  150.5153  131.2829  155.4808 H   0  0  0  0  0  0  0  0  0  0  0  0
  150.1444  132.3507  156.8223 H   0  0  0  0  0  0  0  0  0  0  0  0
  148.0551  131.4648  155.7543 H   0  0  0  0  0  0  0  0  0  0  0  0
  149.3414  132.3607  153.2068 H   0  0  0  0  0  0  0  0  0  0  0  0
  148.2073  131.0563  153.5292 H   0  0  0  0  0  0  0  0  0  0  0  0
  146.9817  132.0690  151.4637 H   0  0  0  0  0  0  0  0  0  0  0  0
  144.7146  133.0801  151.0770 H   0  0  0  0  0  0  0  0  0  0  0  0
  145.9285  134.3241  151.2881 H   0  0  0  0  0  0  0  0  0  0  0  0
  144.8340  133.9332  152.6114 H   0  0  0  0  0  0  0  0  0  0  0  0
  144.8802  130.8717  152.1644 H   0  0  0  0  0  0  0  0  0  0  0  0
  145.0538  131.5376  153.7844 H   0  0  0  0  0  0  0  0  0  0  0  0
  146.2516  130.4110  153.1482 H   0  0  0  0  0  0  0  0  0  0  0  0
  146.2984  134.5527  154.3568 H   0  0  0  0  0  0  0  0  0  0  0  0
  145.9175  132.9020  154.8660 H   0  0  0  0  0  0  0  0  0  0  0  0
  148.5116  134.4282  155.3247 H   0  0  0  0  0  0  0  0  0  0  0  0
  146.0272  134.1921  159.4376 H   0  0  0  0  0  0  0  0  0  0  0  0
  147.3890  133.1407  159.7555 H   0  0  0  0  0  0  0  0  0  0  0  0
  146.6375  134.0890  162.6036 H   0  0  0  0  0  0  0  0  0  0  0  0
  147.7961  136.3322  163.7346 H   0  0  0  0  0  0  0  0  0  0  0  0
  147.7997  133.7931  152.8672 H   0  0  0  0  0  0  0  0  0  0  0  0
  1  2  1  0  0  0  0
  1 20  1  0  0  0  0
  1 21  1  0  0  0  0
  1 22  1  0  0  0  0
  2  9  1  0  0  0  0
  2  3  1  0  0  0  0
  2 23  1  0  0  0  0
  3  4  1  0  0  0  0
  3 24  1  0  0  0  0
  3 25  1  0  0  0  0
  4  5  1  0  0  0  0
  4  8  1  0  0  0  0
  4 40  1  0  0  0  0
  5  6  1  0  0  0  0
  5  7  1  0  0  0  0
  5 26  1  0  0  0  0
  6 27  1  0  0  0  0
  6 28  1  0  0  0  0
  6 29  1  0  0  0  0
  7 30  1  0  0  0  0
  7 31  1  0  0  0  0
  7 32  1  0  0  0  0
  8  9  1  0  0  0  0
  8 33  1  0  0  0  0
  8 34  1  0  0  0  0
  9 10  1  0  0  0  0
  9 35  1  0  0  0  0
 10 11  1  0  0  0  0
 11 12  2  0  0  0  0
 11 13  2  0  0  0  0
 11 14  1  0  0  0  0
 14 15  1  0  0  0  0
 14 36  1  0  0  0  0
 14 37  1  0  0  0  0
 15 19  2  0  0  0  0
 15 16  1  0  0  0  0
 16 17  2  0  0  0  0
 16 38  1  0  0  0  0
 17 18  1  0  0  0  0
 17 39  1  0  0  0  0
 18 19  1  0  0  0  0
M  CHG  1   4   1
M  CHG  1  10  -1
M  END
> <s_m_source_file>
AV-unprocessed.smi

> <i_m_source_file_index>
686

> <i_lp_mmshare_version>
43012

> <i_f3d_flags>
0

> <s_epik_input>
W0NIM11bQ0BASF0xW0NIMl1OKFtDSF0oW0NIM10pW0NIM10pW0NIMl1bQ0BIXTFbTkhdUyg9TykoPU8pW0NIMl1jMltjSF1bY0hdb24y

> <s_epik_cmdline>
J2VwaWtfcHl0aG9uJywgJy1waCcsICc3LjAnLCAnLXRuJywgJzgnLCAnLW1hJywgJzIwMCcsICctbWV0YWxfYmluZGluZycsICctaW1hZScsICc8aW5maWxlLm1hZT4nLCAnLW9tYWUnLCAnPG91dGZpbGUubWFlPic=

> <r_epik_Ionization_Penalty>
3.62478

> <r_epik_Ionization_Penalty_Charging>
3.62478

> <r_epik_Ionization_Penalty_Neutral>
2.03645e-10

> <r_epik_State_Penalty>
3.6247

> <r_epik_Charging_Adjusted_Penalty>
7.24949

> <i_epik_Tot_Q>
0

> <i_epik_Tot_abs_Q>
2

> <r_epik_Metal_State_Penalty>
0.530836

> <b_epik_Metal_Only>
1

> <s_lp_Force_Field>
OPLS_2005

> <r_lp_Energy>
16.9735

> <b_lp_Chiralities_Consistent>
1

> <s_lp_Variant>
AV-unprocessed.smi:686-9

> <Gold.Version>
5.8.1

> <Gold.Id.Protein>
6NUR|6NUR_protein|mol2

> <Gold.PLP.Fitness>
42.9909

> <Gold.PLP.PLP>
-31.3645

> <Gold.PLP.part.hbond>
-3.3011

> <Gold.PLP.part.metal>
0.0000

> <Gold.PLP.part.buried>
-5.2877

> <Gold.PLP.part.nonpolar>
-22.8178

> <Gold.PLP.part.repulsive>
0.0000

> <Gold.PLP.ligand.clash>
0.0000

> <Gold.PLP.ligand.torsion>
0.7326

> <Gold.PLP.Chemscore.Hbond>
4.0000

> <Gold.PLP.Chemscore.CHOScore>
0.0000

> <Gold.PLP.Chemscore.Metal>
0.0000

> <Gold.Chemscore.Hbonds>
donor molecule, donor type, donor heavy atom, donor atom, acceptor molecule, acceptor atom, score
      P1  H  6896  6909       L1    12  1.00
      P1  H  6931  6943       L1    18  1.00

> <Gold.PLP.Chemscore.Internal.Correction>
1.0915

> <Gold.Rescore>
     Score         DG    S(hbond)    S(metal)    S(lipo)     H(rot)  DE(clash)    DE(int)     intcor
     15.30     -17.47       2.49        0.00      66.69       1.61       0.09       2.07       ----

> <Gold.Chemscore.Fitness>
15.2991

> <Gold.Chemscore.DG>
-17.4677

> <Gold.Chemscore.ZeroCoef>
-5.4800

> <Gold.Chemscore.Hbond>
2.4906

> <Gold.Chemscore.Metal>
0.0000

> <Gold.Chemscore.Lipo>
66.6949

> <Gold.Chemscore.Internal_Hbond>
0.0000

> <Gold.Chemscore.DEClash>
0.0941

> <Gold.Chemscore.DEInternal>
2.0745

> <Gold.Chemscore.Rot>
1.6149

> <Gold.Chemscore.Internal.Correction>
   9.000000E+99

> <Gold.Chemscore.Hbonds>
donor molecule, donor type, donor heavy atom, donor atom, acceptor molecule, acceptor atom, score
      P1  H  6896  6909       L1    12  0.99
      P1  H  6931  6943       L1    18  0.98

> <Gold.Chemscore.Hbond.Weighted>
-8.3185

> <Gold.Chemscore.Metal.Weighted>
-0.0000

> <Gold.Chemscore.Lipo.Weighted>
-7.8033

> <Gold.Chemscore.Internal_Hbond.Weighted>
0.0000

> <Gold.Chemscore.DEClash.Weighted>
0.0941

> <Gold.Chemscore.DEInternal.Weighted>
2.0745

> <Gold.Chemscore.Rot.Weighted>
4.1341

> <Gold.Chemscore.Internal.Correction.Weighted>
   9.000000E+99

> <Gold.Protein.RotatedTorsions>
[ 6907 6896 6895 6894 ] final   42.42 input  -60.11 | X-H torsion
[ 7974 7965 7964 7962 ] final   11.47 input  175.53 | X-H torsion
[ 8008 7997 7996 7995 ] final   69.73 input   59.86 | X-H torsion
[ 10167 10162 10161 10158 ] final -150.93 input  -65.29 | X-H torsion
[ 10718 10713 10712 10709 ] final   57.12 input   66.30 | X-H torsion
[ 10763 10752 10751 10750 ] final   45.97 input  -60.55 | X-H torsion
[ 11005 11000 10999 10996 ] final -177.03 input  -57.11 | X-H torsion

> <Gold.Protein.ActiveResidues>
 VAL166  LYS551  ARG553  GLY616  TRP617  ASP618  TYR619  PRO620  LYS621  CYS622 
 ASP623  PHE694  ASN695  SER759  ASP760  ASP761  ALA762  ILE779  LEU786  VAL792 
 PHE793  MET794  SER795  GLU796  ALA797  LYS798  CYS799  TRP800  GLU811  SER814 

> <Gold.Protein.RotatedAtoms>
  152.2076  134.8531  160.0500 H   0  0  0  0  0  0  0  0  0  0  0  0  # atno 6907 bound_to 6896
  151.9361  133.3620  159.3956 H   0  0  0  0  0  0  0  0  0  0  0  0  # atno 6908 bound_to 6896
  150.6969  134.4411  159.5337 H   0  0  0  0  0  0  0  0  0  0  0  0  # atno 6909 bound_to 6896
  146.2370  139.9481  142.8474 H   0  0  0  0  0  0  0  0  0  0  0  0  # atno 7974 bound_to 7965
  155.7281  140.3492  155.5047 H   0  0  0  0  0  0  0  0  0  0  0  0  # atno 8008 bound_to 7997
  155.9208  140.1067  157.1230 H   0  0  0  0  0  0  0  0  0  0  0  0  # atno 8009 bound_to 7997
  154.4069  140.1250  156.4663 H   0  0  0  0  0  0  0  0  0  0  0  0  # atno 8010 bound_to 7997
  139.7311  143.8807  152.2535 H   0  0  0  0  0  0  0  0  0  0  0  0  # atno 10167 bound_to 10162
  157.5488  130.8750  149.8931 H   0  0  0  0  0  0  0  0  0  0  0  0  # atno 10718 bound_to 10713
  152.9817  135.6023  154.3523 H   0  0  0  0  0  0  0  0  0  0  0  0  # atno 10763 bound_to 10752
  154.3212  135.2769  155.2520 H   0  0  0  0  0  0  0  0  0  0  0  0  # atno 10764 bound_to 10752
  154.4686  135.5947  153.6361 H   0  0  0  0  0  0  0  0  0  0  0  0  # atno 10765 bound_to 10752
  140.4455  134.6392  157.4777 H   0  0  0  0  0  0  0  0  0  0  0  0  # atno 11005 bound_to 11000
  145.1888  140.9802  143.4223 LP  0  0  0  0  0  0  0  0  0  0  0  0  # atno 17320 bound_to 7965
  144.9876  139.3721  143.6231 LP  0  0  0  0  0  0  0  0  0  0  0  0  # atno 17321 bound_to 7965
  139.8730  144.7058  150.8965 LP  0  0  0  0  0  0  0  0  0  0  0  0  # atno 17342 bound_to 10162
  140.7771  143.3722  151.1628 LP  0  0  0  0  0  0  0  0  0  0  0  0  # atno 17343 bound_to 10162
  156.0558  130.3708  150.1093 LP  0  0  0  0  0  0  0  0  0  0  0  0  # atno 17370 bound_to 10713
  156.9268  130.9701  151.3539 LP  0  0  0  0  0  0  0  0  0  0  0  0  # atno 17371 bound_to 10713
  140.0041  134.6790  155.9483 LP  0  0  0  0  0  0  0  0  0  0  0  0  # atno 17394 bound_to 11000
  141.1687  133.6537  156.4572 LP  0  0  0  0  0  0  0  0  0  0  0  0  # atno 17395 bound_to 11000

$$$$
