AV-unprocessed.smi:2963|AV-procd|sdf|11320|dock1
  -GOLD-   2272016223D 1   1.00000     0.00000
 Structure written by MMmdl.
 42 44  0  0  0  0  0  0  0  0  2 V2000
  140.5566  136.5477  154.2093 C   0  0  0  0  0  0  0  0  0  0  0  0
  140.9603  135.1930  154.0871 O   0  0  0  0  0  0  0  0  0  0  0  0
  142.3542  135.0205  153.8780 C   0  0  0  0  0  0  0  0  0  0  0  0
  142.8863  135.9558  152.7786 C   0  0  0  0  0  0  0  0  0  0  0  0
  144.2428  135.5827  152.3575 N   0  0  0  0  0  0  0  0  0  0  0  0
  145.4239  136.2514  152.4767 C   0  0  0  0  0  0  0  0  0  0  0  0
  145.6564  137.8371  153.2142 S   0  0  0  0  0  0  0  0  0  0  0  0
  146.8493  137.5834  154.5634 C   0  0  0  0  0  0  0  0  0  0  0  0
  148.0519  138.5423  154.5405 C   0  0  0  0  0  0  0  0  0  0  0  0
  149.1855  138.0654  154.4431 O   0  0  0  0  0  0  0  0  0  0  0  0
  147.7976  139.8760  154.6242 N   0  0  0  0  0  0  0  0  0  0  0  0
  146.4501  140.4345  154.7487 C   0  0  0  0  0  0  0  0  0  0  0  0
  146.6696  141.9427  154.7998 C   0  0  0  0  0  0  0  0  0  0  0  0
  148.1045  142.0416  154.7025 N   0  0  0  0  0  0  0  0  0  0  0  0
  148.7250  140.8635  154.6048 C   0  0  0  0  0  0  0  0  0  0  0  0
  149.9472  140.7457  154.5120 O   0  0  0  0  0  0  0  0  0  0  0  0
  146.3974  135.4698  151.9315 N   0  3  0  0  0  0  0  0  0  0  0  0
  145.8336  134.2814  151.4638 C   0  0  0  0  0  0  0  0  0  0  0  0
  146.4135  133.1796  150.8425 C   0  0  0  0  0  0  0  0  0  0  0  0
  145.5485  132.1212  150.4945 C   0  0  0  0  0  0  0  0  0  0  0  0
  144.1658  132.1832  150.7644 C   0  0  0  0  0  0  0  0  0  0  0  0
  143.5882  133.3057  151.3938 C   0  0  0  0  0  0  0  0  0  0  0  0
  144.4504  134.3473  151.7347 C   0  0  0  0  0  0  0  0  0  0  0  0
  139.4723  136.5942  154.3100 H   0  0  0  0  0  0  0  0  0  0  0  0
  140.8346  137.1244  153.3261 H   0  0  0  0  0  0  0  0  0  0  0  0
  140.9902  137.0226  155.0890 H   0  0  0  0  0  0  0  0  0  0  0  0
  142.8535  135.2582  154.8180 H   0  0  0  0  0  0  0  0  0  0  0  0
  142.5866  133.9769  153.6606 H   0  0  0  0  0  0  0  0  0  0  0  0
  142.2412  135.9623  151.9000 H   0  0  0  0  0  0  0  0  0  0  0  0
  142.9203  136.9821  153.1452 H   0  0  0  0  0  0  0  0  0  0  0  0
  146.3197  137.7012  155.5092 H   0  0  0  0  0  0  0  0  0  0  0  0
  147.2024  136.5537  154.5070 H   0  0  0  0  0  0  0  0  0  0  0  0
  145.8288  140.1620  153.8942 H   0  0  0  0  0  0  0  0  0  0  0  0
  145.9627  140.0849  155.6602 H   0  0  0  0  0  0  0  0  0  0  0  0
  146.1919  142.4568  153.9649 H   0  0  0  0  0  0  0  0  0  0  0  0
  146.3176  142.3786  155.7356 H   0  0  0  0  0  0  0  0  0  0  0  0
  148.5859  142.9294  154.7074 H   0  0  0  0  0  0  0  0  0  0  0  0
  147.4724  133.1274  150.6352 H   0  0  0  0  0  0  0  0  0  0  0  0
  145.9539  131.2437  150.0115 H   0  0  0  0  0  0  0  0  0  0  0  0
  143.5349  131.3521  150.4842 H   0  0  0  0  0  0  0  0  0  0  0  0
  142.5283  133.3429  151.5989 H   0  0  0  0  0  0  0  0  0  0  0  0
  147.3740  135.7303  151.8889 H   0  0  0  0  0  0  0  0  0  0  0  0
  1  2  1  0  0  0  0
  1 24  1  0  0  0  0
  1 25  1  0  0  0  0
  1 26  1  0  0  0  0
  2  3  1  0  0  0  0
  3  4  1  0  0  0  0
  3 27  1  0  0  0  0
  3 28  1  0  0  0  0
  4  5  1  0  0  0  0
  4 29  1  0  0  0  0
  4 30  1  0  0  0  0
  5 23  1  0  0  0  0
  5  6  1  0  0  0  0
  6  7  1  0  0  0  0
  6 17  2  0  0  0  0
  7  8  1  0  0  0  0
  8  9  1  0  0  0  0
  8 31  1  0  0  0  0
  8 32  1  0  0  0  0
  9 10  2  0  0  0  0
  9 11  1  0  0  0  0
 11 15  1  0  0  0  0
 11 12  1  0  0  0  0
 12 13  1  0  0  0  0
 12 33  1  0  0  0  0
 12 34  1  0  0  0  0
 13 14  1  0  0  0  0
 13 35  1  0  0  0  0
 13 36  1  0  0  0  0
 14 15  1  0  0  0  0
 14 37  1  0  0  0  0
 15 16  2  0  0  0  0
 17 18  1  0  0  0  0
 17 42  1  0  0  0  0
 18 23  2  0  0  0  0
 18 19  1  0  0  0  0
 19 20  2  0  0  0  0
 19 38  1  0  0  0  0
 20 21  1  0  0  0  0
 20 39  1  0  0  0  0
 21 22  2  0  0  0  0
 21 40  1  0  0  0  0
 22 23  1  0  0  0  0
 22 41  1  0  0  0  0
M  CHG  1  17   1
M  END
> <s_m_source_file>
AV-unprocessed.smi

> <i_m_source_file_index>
2963

> <i_lp_mmshare_version>
43012

> <i_f3d_flags>
0

> <s_epik_input>
W2NIXTFbY0hdW2NIXVtjSF1jKGMxMiluKFtDSDJdW0NIMl1PW0NIM10pYyhuMilTW0NIMl1DKD1PKU4zW0NIMl1bQ0gyXVtOSF1DMz1P

> <s_epik_cmdline>
J2VwaWtfcHl0aG9uJywgJy1waCcsICc3LjAnLCAnLXRuJywgJzgnLCAnLW1hJywgJzIwMCcsICctbWV0YWxfYmluZGluZycsICctaW1hZScsICc8aW5maWxlLm1hZT4nLCAnLW9tYWUnLCAnPG91dGZpbGUubWFlPic=

> <r_lp_tautomer_probability>
0.9999

> <r_epik_Ionization_Penalty>
1.70838

> <r_epik_Ionization_Penalty_Charging>
1.70836

> <r_epik_Ionization_Penalty_Neutral>
2.53969e-05

> <r_epik_State_Penalty>
1.81492

> <r_epik_Charging_Adjusted_Penalty>
3.52327

> <i_epik_Tot_Q>
1

> <i_epik_Tot_abs_Q>
1

> <r_epik_Metal_State_Penalty>
1.84772

> <b_epik_Metal_Only>
0

> <s_lp_Force_Field>
OPLS_2005

> <r_lp_Energy>
48.5569

> <b_lp_Chiralities_Consistent>
1

> <s_lp_Variant>
AV-unprocessed.smi:2963-2

> <Gold.Version>
5.8.1

> <Gold.Id.Protein>
6NUR|6NUR_protein|mol2

> <Gold.PLP.Fitness>
53.4219

> <Gold.PLP.PLP>
-40.6090

> <Gold.PLP.part.hbond>
-4.0000

> <Gold.PLP.part.metal>
0.0000

> <Gold.PLP.part.buried>
-10.2667

> <Gold.PLP.part.nonpolar>
-28.6222

> <Gold.PLP.part.repulsive>
0.7232

> <Gold.PLP.ligand.clash>
0.0000

> <Gold.PLP.ligand.torsion>
0.4624

> <Gold.PLP.Chemscore.Hbond>
4.5510

> <Gold.PLP.Chemscore.CHOScore>
0.0000

> <Gold.PLP.Chemscore.Metal>
0.0000

> <Gold.Chemscore.Hbonds>
donor molecule, donor type, donor heavy atom, donor atom, acceptor molecule, acceptor atom, score
      L1  H    14    37       P1  8028  0.94
      L1  H    17    42       P1  7948  2.00
      P1  H  7989  7998       L1    16  0.74
      P1  H 11000 11005       L1     2  1.00

> <Gold.PLP.Chemscore.Internal.Correction>
0.0847

> <Gold.Rescore>
     Score         DG    S(hbond)    S(metal)    S(lipo)     H(rot)  DE(clash)    DE(int)     intcor
     16.58     -18.48       3.37        0.00      67.36       2.39       0.00       1.90       ----

> <Gold.Chemscore.Fitness>
16.5781

> <Gold.Chemscore.DG>
-18.4755

> <Gold.Chemscore.ZeroCoef>
-5.4800

> <Gold.Chemscore.Hbond>
3.3658

> <Gold.Chemscore.Metal>
0.0000

> <Gold.Chemscore.Lipo>
67.3554

> <Gold.Chemscore.Internal_Hbond>
0.0000

> <Gold.Chemscore.DEClash>
0.0000

> <Gold.Chemscore.DEInternal>
1.8974

> <Gold.Chemscore.Rot>
2.3933

> <Gold.Chemscore.Internal.Correction>
   9.000000E+99

> <Gold.Chemscore.Hbonds>
donor molecule, donor type, donor heavy atom, donor atom, acceptor molecule, acceptor atom, score
      L1  H    14    37       P1  8028  0.85
      L1  H    17    42       P1  7948  0.99
      P1  H  7989  7998       L1    16  0.73
      P1  H 11000 11005       L1     2  0.47

> <Gold.Chemscore.Hbond.Weighted>
-11.2418

> <Gold.Chemscore.Metal.Weighted>
-0.0000

> <Gold.Chemscore.Lipo.Weighted>
-7.8806

> <Gold.Chemscore.Internal_Hbond.Weighted>
0.0000

> <Gold.Chemscore.DEClash.Weighted>
0.0000

> <Gold.Chemscore.DEInternal.Weighted>
1.8974

> <Gold.Chemscore.Rot.Weighted>
6.1270

> <Gold.Chemscore.Internal.Correction.Weighted>
   9.000000E+99

> <Gold.Protein.RotatedTorsions>
[ 6907 6896 6895 6894 ] final  -11.40 input  -60.11 | X-H torsion
[ 7974 7965 7964 7962 ] final -107.96 input  175.53 | X-H torsion
[ 8008 7997 7996 7995 ] final  -26.11 input   59.86 | X-H torsion
[ 10167 10162 10161 10158 ] final  -37.73 input  -65.29 | X-H torsion
[ 10718 10713 10712 10709 ] final    3.72 input   66.30 | X-H torsion
[ 10763 10752 10751 10750 ] final  -21.71 input  -60.55 | X-H torsion
[ 11005 11000 10999 10996 ] final   27.25 input  -57.11 | X-H torsion

> <Gold.Protein.ActiveResidues>
 VAL166  LYS551  ARG553  GLY616  TRP617  ASP618  TYR619  PRO620  LYS621  CYS622 
 ASP623  PHE694  ASN695  SER759  ASP760  ASP761  ALA762  ILE779  LEU786  VAL792 
 PHE793  MET794  SER795  GLU796  ALA797  LYS798  CYS799  TRP800  GLU811  SER814 

> <Gold.Protein.RotatedAtoms>
  151.3869  135.0949  159.9513 H   0  0  0  0  0  0  0  0  0  0  0  0  # atno 6907 bound_to 6896
  152.5091  133.9018  159.7455 H   0  0  0  0  0  0  0  0  0  0  0  0  # atno 6908 bound_to 6896
  150.9463  133.6544  159.2809 H   0  0  0  0  0  0  0  0  0  0  0  0  # atno 6909 bound_to 6896
  145.1988  140.9047  143.3381 H   0  0  0  0  0  0  0  0  0  0  0  0  # atno 7974 bound_to 7965
  154.4441  140.1908  156.0724 H   0  0  0  0  0  0  0  0  0  0  0  0  # atno 8008 bound_to 7997
  156.0501  140.3309  155.7314 H   0  0  0  0  0  0  0  0  0  0  0  0  # atno 8009 bound_to 7997
  155.5570  140.0600  157.2828 H   0  0  0  0  0  0  0  0  0  0  0  0  # atno 8010 bound_to 7997
  140.7111  143.3323  151.2542 H   0  0  0  0  0  0  0  0  0  0  0  0  # atno 10167 bound_to 10162
  156.8821  130.5657  149.5652 H   0  0  0  0  0  0  0  0  0  0  0  0  # atno 10718 bound_to 10713
  153.6404  135.6985  153.5244 H   0  0  0  0  0  0  0  0  0  0  0  0  # atno 10763 bound_to 10752
  153.2787  135.4192  155.1057 H   0  0  0  0  0  0  0  0  0  0  0  0  # atno 10764 bound_to 10752
  154.8501  135.3596  154.5948 H   0  0  0  0  0  0  0  0  0  0  0  0  # atno 10765 bound_to 10752
  140.3283  134.2467  155.7706 H   0  0  0  0  0  0  0  0  0  0  0  0  # atno 11005 bound_to 11000
  144.9968  139.3636  143.6187 LP  0  0  0  0  0  0  0  0  0  0  0  0  # atno 17320 bound_to 7965
  146.3422  139.9174  142.8771 LP  0  0  0  0  0  0  0  0  0  0  0  0  # atno 17321 bound_to 7965
  139.6808  143.9858  152.2807 LP  0  0  0  0  0  0  0  0  0  0  0  0  # atno 17342 bound_to 10162
  139.9487  144.6634  150.8193 LP  0  0  0  0  0  0  0  0  0  0  0  0  # atno 17343 bound_to 10162
  156.0672  130.5713  150.9312 LP  0  0  0  0  0  0  0  0  0  0  0  0  # atno 17370 bound_to 10713
  157.6134  131.0935  150.8754 LP  0  0  0  0  0  0  0  0  0  0  0  0  # atno 17371 bound_to 10713
  141.2070  133.7818  157.0146 LP  0  0  0  0  0  0  0  0  0  0  0  0  # atno 17394 bound_to 11000
  140.0883  134.9608  157.1735 LP  0  0  0  0  0  0  0  0  0  0  0  0  # atno 17395 bound_to 11000

$$$$
