AV-unprocessed.smi:131|AV-procd|sdf|1162|dock1
  -GOLD-   2262018303D 1   1.00000     0.00000
 Structure written by MMmdl.
 55 58  0  0  0  0  0  0  0  0  1 V2000
  152.3714  136.3187  156.5389 O   0  0  0  0  0  0  0  0  0  0  0  0
  151.8884  137.3172  156.0068 C   0  0  0  0  0  0  0  0  0  0  0  0
  152.6685  138.6417  156.0975 C   0  0  0  0  0  0  0  0  0  0  0  0
  151.8590  139.8302  156.4547 N   0  0  0  0  0  0  0  0  0  0  0  0
  150.9000  140.3039  155.5251 C   0  0  0  0  0  0  0  0  0  0  0  0
  150.7288  139.7415  154.4428 O   0  0  0  0  0  0  0  0  0  0  0  0
  150.1398  141.4755  155.9457 C   0  0  0  0  0  0  0  0  0  0  0  0
  149.2068  141.9916  155.1280 F   0  0  0  0  0  0  0  0  0  0  0  0
  150.3545  142.0491  157.1476 C   0  0  0  0  0  0  0  0  0  0  0  0
  151.2943  141.5758  158.0463 N   0  0  0  0  0  0  0  0  0  0  0  0
  151.5136  142.2232  159.3987 C   0  0  1  0  0  0  0  0  0  0  0  0
  152.6249  143.2883  159.3189 C   0  0  0  0  0  0  0  0  0  0  0  0
  151.9617  144.5135  159.9169 C   0  0  0  0  0  0  0  0  0  0  0  0
  150.4976  144.2770  159.5797 C   0  0  0  0  0  0  0  0  0  0  0  0
  150.3481  142.8817  159.8060 O   0  0  0  0  0  0  0  0  0  0  0  0
  152.0619  140.4376  157.7168 C   0  0  0  0  0  0  0  0  0  0  0  0
  152.8837  139.9824  158.5151 O   0  0  0  0  0  0  0  0  0  0  0  0
  150.7028  137.3299  155.3654 N   0  0  0  0  0  0  0  0  0  0  0  0
  149.8051  136.2532  155.1396 C   0  0  0  0  0  0  0  0  0  0  0  0
  150.3688  134.9810  154.9036 C   0  0  0  0  0  0  0  0  0  0  0  0
  149.5423  133.8614  154.6873 C   0  0  0  0  0  0  0  0  0  0  0  0
  148.1429  134.0140  154.7240 C   0  0  0  0  0  0  0  0  0  0  0  0
  147.0805  132.6059  154.4314 S   0  0  0  0  0  0  0  0  0  0  0  0
  147.8954  131.3840  154.3412 O   0  0  0  0  0  0  0  0  0  0  0  0
  145.9654  132.6859  155.3879 O   0  0  0  0  0  0  0  0  0  0  0  0
  146.4413  132.9367  152.8567 N   0  0  0  0  0  0  0  0  0  0  0  0
  145.0791  133.4699  152.7316 C   0  0  0  0  0  0  0  0  0  0  0  0
  144.4171  132.6503  151.6227 C   0  0  0  0  0  0  0  0  0  0  0  0
  145.5891  132.2247  150.7489 C   0  0  0  0  0  0  0  0  0  0  0  0
  146.7140  132.0012  151.7588 C   0  0  0  0  0  0  0  0  0  0  0  0
  147.5665  135.2738  154.9754 C   0  0  0  0  0  0  0  0  0  0  0  0
  148.3961  136.3914  155.1889 C   0  0  0  0  0  0  0  0  0  0  0  0
  153.4842  138.5034  156.8087 H   0  0  0  0  0  0  0  0  0  0  0  0
  153.1814  138.7952  155.1467 H   0  0  0  0  0  0  0  0  0  0  0  0
  149.7538  142.9099  157.3985 H   0  0  0  0  0  0  0  0  0  0  0  0
  151.7283  141.4026  160.0858 H   0  0  0  0  0  0  0  0  0  0  0  0
  153.5113  142.9697  159.8682 H   0  0  0  0  0  0  0  0  0  0  0  0
  152.8994  143.4736  158.2791 H   0  0  0  0  0  0  0  0  0  0  0  0
  152.0985  144.5249  160.9989 H   0  0  0  0  0  0  0  0  0  0  0  0
  152.3476  145.4496  159.5122 H   0  0  0  0  0  0  0  0  0  0  0  0
  149.8198  144.8601  160.2033 H   0  0  0  0  0  0  0  0  0  0  0  0
  150.2964  144.5145  158.5341 H   0  0  0  0  0  0  0  0  0  0  0  0
  150.3763  138.2365  155.0641 H   0  0  0  0  0  0  0  0  0  0  0  0
  151.4422  134.8601  154.8792 H   0  0  0  0  0  0  0  0  0  0  0  0
  149.9857  132.8951  154.4979 H   0  0  0  0  0  0  0  0  0  0  0  0
  144.5318  133.3891  153.6715 H   0  0  0  0  0  0  0  0  0  0  0  0
  145.1380  134.5243  152.4599 H   0  0  0  0  0  0  0  0  0  0  0  0
  143.9364  131.7693  152.0502 H   0  0  0  0  0  0  0  0  0  0  0  0
  143.6615  133.2135  151.0740 H   0  0  0  0  0  0  0  0  0  0  0  0
  145.3735  131.3378  150.1525 H   0  0  0  0  0  0  0  0  0  0  0  0
  145.8565  133.0335  150.0676 H   0  0  0  0  0  0  0  0  0  0  0  0
  147.7020  132.1776  151.3328 H   0  0  0  0  0  0  0  0  0  0  0  0
  146.6813  130.9783  152.1356 H   0  0  0  0  0  0  0  0  0  0  0  0
  146.4924  135.3839  155.0096 H   0  0  0  0  0  0  0  0  0  0  0  0
  147.9311  137.3415  155.4021 H   0  0  0  0  0  0  0  0  0  0  0  0
  1  2  2  0  0  0  0
  2  3  1  0  0  0  0
  2 18  1  0  0  0  0
  3  4  1  0  0  0  0
  3 33  1  0  0  0  0
  3 34  1  0  0  0  0
  4 16  1  0  0  0  0
  4  5  1  0  0  0  0
  5  6  2  0  0  0  0
  5  7  1  0  0  0  0
  7  8  1  0  0  0  0
  7  9  2  0  0  0  0
  9 10  1  0  0  0  0
  9 35  1  0  0  0  0
 10 11  1  0  0  0  0
 10 16  1  0  0  0  0
 11 15  1  0  0  0  0
 11 12  1  0  0  0  0
 11 36  1  0  0  0  0
 12 13  1  0  0  0  0
 12 37  1  0  0  0  0
 12 38  1  0  0  0  0
 13 14  1  0  0  0  0
 13 39  1  0  0  0  0
 13 40  1  0  0  0  0
 14 15  1  0  0  0  0
 14 41  1  0  0  0  0
 14 42  1  0  0  0  0
 16 17  2  0  0  0  0
 18 19  1  0  0  0  0
 18 43  1  0  0  0  0
 19 32  1  0  0  0  0
 19 20  2  0  0  0  0
 20 21  1  0  0  0  0
 20 44  1  0  0  0  0
 21 22  2  0  0  0  0
 21 45  1  0  0  0  0
 22 23  1  0  0  0  0
 22 31  1  0  0  0  0
 23 24  2  0  0  0  0
 23 25  2  0  0  0  0
 23 26  1  0  0  0  0
 26 30  1  0  0  0  0
 26 27  1  0  0  0  0
 27 28  1  0  0  0  0
 27 46  1  0  0  0  0
 27 47  1  0  0  0  0
 28 29  1  0  0  0  0
 28 48  1  0  0  0  0
 28 49  1  0  0  0  0
 29 30  1  0  0  0  0
 29 50  1  0  0  0  0
 29 51  1  0  0  0  0
 30 52  1  0  0  0  0
 30 53  1  0  0  0  0
 31 32  2  0  0  0  0
 31 54  1  0  0  0  0
 32 55  1  0  0  0  0
M  END
> <s_m_source_file>
AV-unprocessed.smi

> <i_m_source_file_index>
131

> <i_lp_mmshare_version>
43012

> <i_f3d_flags>
0

> <s_epik_input>
W0NIMl0xW0NIMl1bQ0gyXVtDSDJdTjFTKD1PKSg9TyljKFtjSF1bY0hdMilbY0hdW2NIXWMyW05IXUMoPU8pW0NIMl1uM2MoPU8pYyhGKVtjSF1uKGMzPU8pW0NAQEhdNFtDSDJdW0NIMl1bQ0gyXU80

> <s_epik_cmdline>
J2VwaWtfcHl0aG9uJywgJy1waCcsICc3LjAnLCAnLXRuJywgJzgnLCAnLW1hJywgJzIwMCcsICctbWV0YWxfYmluZGluZycsICctaW1hZScsICc8aW5maWxlLm1hZT4nLCAnLW9tYWUnLCAnPG91dGZpbGUubWFlPic=

> <r_lp_tautomer_probability>
1

> <r_epik_Ionization_Penalty>
1.92533e-06

> <r_epik_Ionization_Penalty_Charging>
3.88729e-08

> <r_epik_Ionization_Penalty_Neutral>
1.88646e-06

> <r_epik_State_Penalty>
-0

> <r_epik_Charging_Adjusted_Penalty>
3.88729e-08

> <i_epik_Tot_Q>
0

> <i_epik_Tot_abs_Q>
0

> <r_epik_Metal_State_Penalty>
-0

> <b_epik_Metal_Only>
0

> <s_epik_Chemistry_Notes>
This compound contains an acetal/aminal-like group ( X-CH(R)-Y where X, Y are N, S, or O) that may be acid/base labile, releasing an aldehyde.

> <s_lp_Force_Field>
OPLS_2005

> <r_lp_Energy>
42.789

> <b_lp_Chiralities_Consistent>
1

> <s_lp_Variant>
AV-unprocessed.smi:131-2

> <Gold.Version>
5.8.1

> <Gold.Id.Protein>
6NUR|6NUR_protein|mol2

> <Gold.PLP.Fitness>
57.1989

> <Gold.PLP.PLP>
-49.5385

> <Gold.PLP.part.hbond>
-4.0000

> <Gold.PLP.part.metal>
0.0000

> <Gold.PLP.part.buried>
1.0228

> <Gold.PLP.part.nonpolar>
-45.7257

> <Gold.PLP.part.repulsive>
0.5104

> <Gold.PLP.ligand.clash>
0.5030

> <Gold.PLP.ligand.torsion>
2.6510

> <Gold.PLP.Chemscore.Hbond>
2.6000

> <Gold.PLP.Chemscore.CHOScore>
0.9447

> <Gold.PLP.Chemscore.Metal>
0.0000

> <Gold.Chemscore.Hbonds>
donor molecule, donor type, donor heavy atom, donor atom, acceptor molecule, acceptor atom, score
      P1  H  7989  7998       L1     6  0.85
      P1  H  7997  8008       L1    17  0.30
      P1  H 10752 10765       L1     1  0.83
      L1  C     9    35       P1  8028  0.64

> <Gold.PLP.Chemscore.Internal.Correction>
2.8312

> <Gold.Rescore>
     Score         DG    S(hbond)    S(metal)    S(lipo)     H(rot)  DE(clash)    DE(int)     intcor
     12.52     -19.44       2.01        0.00     103.95       1.92       1.26       5.65       ----

> <Gold.Chemscore.Fitness>
12.5216

> <Gold.Chemscore.DG>
-19.4382

> <Gold.Chemscore.ZeroCoef>
-5.4800

> <Gold.Chemscore.Hbond>
2.0066

> <Gold.Chemscore.Metal>
0.0000

> <Gold.Chemscore.Lipo>
103.9545

> <Gold.Chemscore.Internal_Hbond>
0.0000

> <Gold.Chemscore.DEClash>
1.2627

> <Gold.Chemscore.DEInternal>
5.6539

> <Gold.Chemscore.Rot>
1.9166

> <Gold.Chemscore.Internal.Correction>
   9.000000E+99

> <Gold.Chemscore.Hbonds>
donor molecule, donor type, donor heavy atom, donor atom, acceptor molecule, acceptor atom, score
      P1  H  7989  7998       L1     6  0.15
      P1  H  7997  8008       L1    17  0.04
      P1  H 10752 10765       L1     1  0.14

> <Gold.Chemscore.Hbond.Weighted>
-6.7019

> <Gold.Chemscore.Metal.Weighted>
-0.0000

> <Gold.Chemscore.Lipo.Weighted>
-12.1627

> <Gold.Chemscore.Internal_Hbond.Weighted>
0.0000

> <Gold.Chemscore.DEClash.Weighted>
1.2627

> <Gold.Chemscore.DEInternal.Weighted>
5.6539

> <Gold.Chemscore.Rot.Weighted>
4.9064

> <Gold.Chemscore.Internal.Correction.Weighted>
   9.000000E+99

> <Gold.Protein.RotatedTorsions>
[ 6907 6896 6895 6894 ] final   37.40 input  -60.11 | X-H torsion
[ 7974 7965 7964 7962 ] final   38.42 input  175.53 | X-H torsion
[ 8008 7997 7996 7995 ] final  -89.25 input   59.86 | X-H torsion
[ 10167 10162 10161 10158 ] final -125.71 input  -65.29 | X-H torsion
[ 10718 10713 10712 10709 ] final   31.26 input   66.30 | X-H torsion
[ 10763 10752 10751 10750 ] final -160.74 input  -60.55 | X-H torsion
[ 11005 11000 10999 10996 ] final  148.33 input  -57.11 | X-H torsion

> <Gold.Protein.ActiveResidues>
 VAL166  LYS551  ARG553  GLY616  TRP617  ASP618  TYR619  PRO620  LYS621  CYS622 
 ASP623  PHE694  ASN695  SER759  ASP760  ASP761  ALA762  ILE779  LEU786  VAL792 
 PHE793  MET794  SER795  GLU796  ALA797  LYS798  CYS799  TRP800  GLU811  SER814 

> <Gold.Protein.RotatedAtoms>
  152.1427  134.9050  160.0552 H   0  0  0  0  0  0  0  0  0  0  0  0  # atno 6907 bound_to 6896
  152.0112  133.3857  159.4228 H   0  0  0  0  0  0  0  0  0  0  0  0  # atno 6908 bound_to 6896
  150.6867  134.3650  159.5011 H   0  0  0  0  0  0  0  0  0  0  0  0  # atno 6909 bound_to 6896
  146.1063  139.5774  142.9381 H   0  0  0  0  0  0  0  0  0  0  0  0  # atno 7974 bound_to 7965
  154.6844  140.0544  157.0299 H   0  0  0  0  0  0  0  0  0  0  0  0  # atno 8008 bound_to 7997
  155.0905  140.3219  155.4556 H   0  0  0  0  0  0  0  0  0  0  0  0  # atno 8009 bound_to 7997
  156.2706  140.2049  156.6032 H   0  0  0  0  0  0  0  0  0  0  0  0  # atno 8010 bound_to 7997
  139.9792  143.5761  152.2384 H   0  0  0  0  0  0  0  0  0  0  0  0  # atno 10167 bound_to 10162
  157.2701  130.7204  149.6500 H   0  0  0  0  0  0  0  0  0  0  0  0  # atno 10718 bound_to 10713
  154.7364  135.3058  154.8804 H   0  0  0  0  0  0  0  0  0  0  0  0  # atno 10763 bound_to 10752
  153.9631  135.6750  153.4749 H   0  0  0  0  0  0  0  0  0  0  0  0  # atno 10764 bound_to 10752
  153.0967  135.4932  154.8714 H   0  0  0  0  0  0  0  0  0  0  0  0  # atno 10765 bound_to 10752
  140.0950  134.9018  157.1709 H   0  0  0  0  0  0  0  0  0  0  0  0  # atno 11005 bound_to 11000
  145.5755  141.0389  143.2151 LP  0  0  0  0  0  0  0  0  0  0  0  0  # atno 17320 bound_to 7965
  144.7473  139.7285  143.7287 LP  0  0  0  0  0  0  0  0  0  0  0  0  # atno 17321 bound_to 7965
  139.6422  144.7655  151.2315 LP  0  0  0  0  0  0  0  0  0  0  0  0  # atno 17342 bound_to 10162
  140.7495  143.6297  150.8434 LP  0  0  0  0  0  0  0  0  0  0  0  0  # atno 17343 bound_to 10162
  155.9663  130.4370  150.5158 LP  0  0  0  0  0  0  0  0  0  0  0  0  # atno 17370 bound_to 10713
  157.3080  131.0658  151.2021 LP  0  0  0  0  0  0  0  0  0  0  0  0  # atno 17371 bound_to 10713
  140.3299  134.2822  155.7230 LP  0  0  0  0  0  0  0  0  0  0  0  0  # atno 17394 bound_to 11000
  141.2089  133.7763  157.0028 LP  0  0  0  0  0  0  0  0  0  0  0  0  # atno 17395 bound_to 11000

$$$$
