AV-unprocessed.smi:438|AV-procd|sdf|2576|dock8
  -GOLD-   2262022563D 1   1.00000     0.00000
 Structure written by MMmdl.
 48 49  0  0  0  0  0  0  0  0  1 V2000
  149.2136  136.9668  157.4034 C   0  0  0  0  0  0  0  0  0  0  0  0
  149.8768  137.7358  156.2757 C   0  0  0  0  0  0  0  0  0  0  0  0
  149.6155  139.0608  156.2338 N   0  0  0  0  0  0  0  0  0  0  0  0
  150.1844  139.7507  155.2461 C   0  0  0  0  0  0  0  0  0  0  0  0
  149.8005  141.4910  155.2090 S   0  0  0  0  0  0  0  0  0  0  0  0
  149.8642  141.9415  156.9785 C   0  0  0  0  0  0  0  0  0  0  0  0
  151.0276  142.8494  157.3990 C   0  0  0  0  0  0  0  0  0  0  0  0
  151.2133  143.9068  156.7981 O   0  0  0  0  0  0  0  0  0  0  0  0
  151.8059  142.4383  158.4126 N   0  0  0  0  0  0  0  0  0  0  0  0
  152.9662  143.1430  158.9571 C   0  0  1  0  0  0  0  0  0  0  0  0
  152.6264  144.6076  159.3169 C   0  0  0  0  0  0  0  0  0  0  0  0
  151.6747  144.7041  160.5200 C   0  0  0  0  0  0  0  0  0  0  0  0
  152.2357  143.9539  161.7368 C   0  0  0  0  0  0  0  0  0  0  0  0
  152.5640  142.4925  161.3924 C   0  0  0  0  0  0  0  0  0  0  0  0
  153.5284  142.3937  160.1910 C   0  0  1  0  0  0  0  0  0  0  0  0
  153.8994  140.9322  159.8849 C   0  0  0  0  0  0  0  0  0  0  0  0
  150.9954  139.2820  154.2962 N   0  0  0  0  0  0  0  0  0  0  0  0
  151.2653  137.9599  154.3226 C   0  0  0  0  0  0  0  0  0  0  0  0
  152.0914  137.4583  153.3594 O   0  0  0  0  0  0  0  0  0  0  0  0
  150.7140  137.1118  155.3153 C   0  0  0  0  0  0  0  0  0  0  0  0
  151.0137  135.6190  155.3410 C   0  0  0  0  0  0  0  0  0  0  0  0
  149.7463  134.7730  155.1622 C   0  0  0  0  0  0  0  0  0  0  0  0
  149.4916  134.5804  153.7883 O   0  0  0  0  0  0  0  0  0  0  0  0
  149.9521  136.3921  157.9622 H   0  0  0  0  0  0  0  0  0  0  0  0
  148.4680  136.2789  157.0051 H   0  0  0  0  0  0  0  0  0  0  0  0
  148.7125  137.6376  158.1025 H   0  0  0  0  0  0  0  0  0  0  0  0
  148.9337  142.4524  157.2258 H   0  0  0  0  0  0  0  0  0  0  0  0
  149.8824  141.0318  157.5795 H   0  0  0  0  0  0  0  0  0  0  0  0
  151.5777  141.5542  158.8443 H   0  0  0  0  0  0  0  0  0  0  0  0
  153.7383  143.1513  158.1855 H   0  0  0  0  0  0  0  0  0  0  0  0
  153.5493  145.1388  159.5523 H   0  0  0  0  0  0  0  0  0  0  0  0
  152.1948  145.1269  158.4607 H   0  0  0  0  0  0  0  0  0  0  0  0
  151.5007  145.7495  160.7754 H   0  0  0  0  0  0  0  0  0  0  0  0
  150.7050  144.2905  160.2486 H   0  0  0  0  0  0  0  0  0  0  0  0
  153.1370  144.4561  162.0904 H   0  0  0  0  0  0  0  0  0  0  0  0
  151.5198  143.9903  162.5581 H   0  0  0  0  0  0  0  0  0  0  0  0
  153.0043  142.0060  162.2635 H   0  0  0  0  0  0  0  0  0  0  0  0
  151.6408  141.9530  161.1766 H   0  0  0  0  0  0  0  0  0  0  0  0
  154.4529  142.8972  160.4778 H   0  0  0  0  0  0  0  0  0  0  0  0
  153.0212  140.3331  159.6426 H   0  0  0  0  0  0  0  0  0  0  0  0
  154.3868  140.4667  160.7418 H   0  0  0  0  0  0  0  0  0  0  0  0
  154.5884  140.8712  159.0421 H   0  0  0  0  0  0  0  0  0  0  0  0
  151.6537  137.3411  152.5305 H   0  0  0  0  0  0  0  0  0  0  0  0
  151.7423  135.3706  154.5692 H   0  0  0  0  0  0  0  0  0  0  0  0
  151.4979  135.3672  156.2855 H   0  0  0  0  0  0  0  0  0  0  0  0
  149.8602  133.8003  155.6417 H   0  0  0  0  0  0  0  0  0  0  0  0
  148.8852  135.2630  155.6173 H   0  0  0  0  0  0  0  0  0  0  0  0
  149.3074  135.4203  153.3962 H   0  0  0  0  0  0  0  0  0  0  0  0
  1  2  1  0  0  0  0
  1 24  1  0  0  0  0
  1 25  1  0  0  0  0
  1 26  1  0  0  0  0
  2 20  1  0  0  0  0
  2  3  2  0  0  0  0
  3  4  1  0  0  0  0
  4  5  1  0  0  0  0
  4 17  2  0  0  0  0
  5  6  1  0  0  0  0
  6  7  1  0  0  0  0
  6 27  1  0  0  0  0
  6 28  1  0  0  0  0
  7  8  2  0  0  0  0
  7  9  1  0  0  0  0
  9 10  1  0  0  0  0
  9 29  1  0  0  0  0
 10 15  1  0  0  0  0
 10 11  1  0  0  0  0
 10 30  1  0  0  0  0
 11 12  1  0  0  0  0
 11 31  1  0  0  0  0
 11 32  1  0  0  0  0
 12 13  1  0  0  0  0
 12 33  1  0  0  0  0
 12 34  1  0  0  0  0
 13 14  1  0  0  0  0
 13 35  1  0  0  0  0
 13 36  1  0  0  0  0
 14 15  1  0  0  0  0
 14 37  1  0  0  0  0
 14 38  1  0  0  0  0
 15 16  1  0  0  0  0
 15 39  1  0  0  0  0
 16 40  1  0  0  0  0
 16 41  1  0  0  0  0
 16 42  1  0  0  0  0
 17 18  1  0  0  0  0
 18 19  1  0  0  0  0
 18 20  2  0  0  0  0
 19 43  1  0  0  0  0
 20 21  1  0  0  0  0
 21 22  1  0  0  0  0
 21 44  1  0  0  0  0
 21 45  1  0  0  0  0
 22 23  1  0  0  0  0
 22 46  1  0  0  0  0
 22 47  1  0  0  0  0
 23 48  1  0  0  0  0
M  END
> <s_m_source_file>
AV-unprocessed.smi

> <i_m_source_file_index>
438

> <i_lp_mmshare_version>
43012

> <i_f3d_flags>
0

> <s_epik_input>
W09IXVtDSDJdW0NIMl1jMWMoW09IXSluYyhuYzFbQ0gzXSlTW0NIMl1DKD1PKVtOSF1bQ0BASF0yW0NIMl1bQ0gyXVtDSDJdW0NIMl1bQ0BIXTJbQ0gzXQ==

> <s_epik_cmdline>
J2VwaWtfcHl0aG9uJywgJy1waCcsICc3LjAnLCAnLXRuJywgJzgnLCAnLW1hJywgJzIwMCcsICctbWV0YWxfYmluZGluZycsICctaW1hZScsICc8aW5maWxlLm1hZT4nLCAnLW9tYWUnLCAnPG91dGZpbGUubWFlPic=

> <r_lp_tautomer_probability>
0.0660145

> <r_epik_Ionization_Penalty>
2.91405

> <r_epik_Ionization_Penalty_Charging>
0

> <r_epik_Ionization_Penalty_Neutral>
2.91405

> <r_epik_State_Penalty>
2.44767

> <r_epik_Charging_Adjusted_Penalty>
2.44767

> <i_epik_Tot_Q>
0

> <i_epik_Tot_abs_Q>
0

> <r_epik_Metal_State_Penalty>
3.04288

> <b_epik_Metal_Only>
0

> <s_lp_Force_Field>
OPLS_2005

> <r_lp_Energy>
-3.37475

> <b_lp_Chiralities_Consistent>
1

> <s_lp_Variant>
AV-unprocessed.smi:438-14

> <Gold.Version>
5.8.1

> <Gold.Id.Protein>
6NUR|6NUR_protein|mol2

> <Gold.PLP.Fitness>
54.9826

> <Gold.PLP.PLP>
-45.3010

> <Gold.PLP.part.hbond>
-3.9211

> <Gold.PLP.part.metal>
0.0000

> <Gold.PLP.part.buried>
-3.4693

> <Gold.PLP.part.nonpolar>
-38.2576

> <Gold.PLP.part.repulsive>
2.7269

> <Gold.PLP.ligand.clash>
0.0000

> <Gold.PLP.ligand.torsion>
0.8675

> <Gold.PLP.Chemscore.Hbond>
3.7771

> <Gold.PLP.Chemscore.CHOScore>
0.0000

> <Gold.PLP.Chemscore.Metal>
0.0000

> <Gold.Chemscore.Hbonds>
donor molecule, donor type, donor heavy atom, donor atom, acceptor molecule, acceptor atom, score
      L1  H    19    43       P1  7949  0.75
      L1  H    23    48       P1  7948  0.81
      P1  H  7989  7998       L1    17  1.00
      P1  H 10752 10764       L1    19  0.89

> <Gold.PLP.Chemscore.Internal.Correction>
0.0855

> <Gold.Rescore>
     Score         DG    S(hbond)    S(metal)    S(lipo)     H(rot)  DE(clash)    DE(int)     intcor
     14.75     -17.38       2.20        0.00     113.96       3.44       1.75       0.87       ----

> <Gold.Chemscore.Fitness>
14.7547

> <Gold.Chemscore.DG>
-17.3807

> <Gold.Chemscore.ZeroCoef>
-5.4800

> <Gold.Chemscore.Hbond>
2.2046

> <Gold.Chemscore.Metal>
0.0000

> <Gold.Chemscore.Lipo>
113.9595

> <Gold.Chemscore.Internal_Hbond>
0.0000

> <Gold.Chemscore.DEClash>
1.7513

> <Gold.Chemscore.DEInternal>
0.8746

> <Gold.Chemscore.Rot>
3.4359

> <Gold.Chemscore.Internal.Correction>
   9.000000E+99

> <Gold.Chemscore.Hbonds>
donor molecule, donor type, donor heavy atom, donor atom, acceptor molecule, acceptor atom, score
      L1  H    19    43       P1  7949  0.74
      L1  H    23    48       P1  7948  0.18
      P1  H  7989  7998       L1    17  0.40
      P1  H 10752 10764       L1    19  0.56

> <Gold.Chemscore.Hbond.Weighted>
-7.3634

> <Gold.Chemscore.Metal.Weighted>
-0.0000

> <Gold.Chemscore.Lipo.Weighted>
-13.3333

> <Gold.Chemscore.Internal_Hbond.Weighted>
0.0000

> <Gold.Chemscore.DEClash.Weighted>
1.7513

> <Gold.Chemscore.DEInternal.Weighted>
0.8746

> <Gold.Chemscore.Rot.Weighted>
8.7960

> <Gold.Chemscore.Internal.Correction.Weighted>
   9.000000E+99

> <Gold.Protein.RotatedTorsions>
[ 6907 6896 6895 6894 ] final   49.13 input  -60.11 | X-H torsion
[ 7974 7965 7964 7962 ] final -114.73 input  175.53 | X-H torsion
[ 8008 7997 7996 7995 ] final  -73.58 input   59.86 | X-H torsion
[ 10167 10162 10161 10158 ] final  -61.18 input  -65.29 | X-H torsion
[ 10718 10713 10712 10709 ] final  116.59 input   66.30 | X-H torsion
[ 10763 10752 10751 10750 ] final -107.91 input  -60.55 | X-H torsion
[ 11005 11000 10999 10996 ] final  -24.88 input  -57.11 | X-H torsion

> <Gold.Protein.ActiveResidues>
 VAL166  LYS551  ARG553  GLY616  TRP617  ASP618  TYR619  PRO620  LYS621  CYS622 
 ASP623  PHE694  ASN695  SER759  ASP760  ASP761  ALA762  ILE779  LEU786  VAL792 
 PHE793  MET794  SER795  GLU796  ALA797  LYS798  CYS799  TRP800  GLU811  SER814 

> <Gold.Protein.RotatedAtoms>
  152.2873  134.7762  160.0384 H   0  0  0  0  0  0  0  0  0  0  0  0  # atno 6907 bound_to 6896
  151.8320  133.3405  159.3624 H   0  0  0  0  0  0  0  0  0  0  0  0  # atno 6908 bound_to 6896
  150.7215  134.5402  159.5788 H   0  0  0  0  0  0  0  0  0  0  0  0  # atno 6909 bound_to 6896
  145.1168  140.8645  143.3837 H   0  0  0  0  0  0  0  0  0  0  0  0  # atno 7974 bound_to 7965
  154.5259  140.0776  156.8257 H   0  0  0  0  0  0  0  0  0  0  0  0  # atno 8008 bound_to 7997
  155.3477  140.3411  155.4221 H   0  0  0  0  0  0  0  0  0  0  0  0  # atno 8009 bound_to 7997
  156.1731  140.1626  156.8398 H   0  0  0  0  0  0  0  0  0  0  0  0  # atno 8010 bound_to 7997
  140.6022  143.2364  151.5902 H   0  0  0  0  0  0  0  0  0  0  0  0  # atno 10167 bound_to 10162
  157.6151  131.1027  150.7494 H   0  0  0  0  0  0  0  0  0  0  0  0  # atno 10718 bound_to 10713
  154.8104  135.4657  154.0502 H   0  0  0  0  0  0  0  0  0  0  0  0  # atno 10763 bound_to 10752
  153.1937  135.6859  153.8326 H   0  0  0  0  0  0  0  0  0  0  0  0  # atno 10764 bound_to 10752
  153.7835  135.3253  155.3346 H   0  0  0  0  0  0  0  0  0  0  0  0  # atno 10765 bound_to 10752
  140.8886  133.7604  156.0392 H   0  0  0  0  0  0  0  0  0  0  0  0  # atno 11005 bound_to 11000
  145.0785  139.2977  143.5795 LP  0  0  0  0  0  0  0  0  0  0  0  0  # atno 17320 bound_to 7965
  146.3523  140.0284  142.8652 LP  0  0  0  0  0  0  0  0  0  0  0  0  # atno 17321 bound_to 7965
  139.5299  144.2946  152.1124 LP  0  0  0  0  0  0  0  0  0  0  0  0  # atno 17342 bound_to 10162
  140.2129  144.4544  150.6377 LP  0  0  0  0  0  0  0  0  0  0  0  0  # atno 17343 bound_to 10162
  156.7863  130.4875  149.5392 LP  0  0  0  0  0  0  0  0  0  0  0  0  # atno 17370 bound_to 10713
  156.1269  130.6150  151.0277 LP  0  0  0  0  0  0  0  0  0  0  0  0  # atno 17371 bound_to 10713
  140.8374  134.3107  157.5326 LP  0  0  0  0  0  0  0  0  0  0  0  0  # atno 17394 bound_to 11000
  139.8727  134.9397  156.3749 LP  0  0  0  0  0  0  0  0  0  0  0  0  # atno 17395 bound_to 11000

$$$$
