AV-unprocessed.smi:3245|AV-procd|sdf|12408|dock7
  -GOLD-   2272018293D 1   1.00000     0.00000
 Structure written by MMmdl.
 34 35  0  0  0  0  0  0  0  0  2 V2000
  154.0101  140.7579  161.6116 C   0  0  0  0  0  0  0  0  0  0  0  0
  154.3894  141.3906  160.2617 C   0  0  2  0  0  0  0  0  0  0  0  0
  153.1572  141.7214  159.3860 C   0  0  0  0  0  0  0  0  0  0  0  0
  152.6592  143.0690  159.5942 N   0  0  0  0  0  0  0  0  0  0  0  0
  152.4741  144.0676  158.6614 C   0  0  0  0  0  0  0  0  0  0  0  0
  151.9997  145.1617  159.3266 C   0  0  0  0  0  0  0  0  0  0  0  0
  151.9330  144.7313  160.6811 C   0  0  0  0  0  0  0  0  0  0  0  0
  152.3320  143.4797  160.8390 N   0  0  0  0  0  0  0  0  0  0  0  0
  155.2629  140.4509  159.5699 N   0  0  0  0  0  0  0  0  0  0  0  0
  154.6555  139.1351  159.4240 C   0  0  0  0  0  0  0  0  0  0  0  0
  155.7454  138.0536  159.3151 C   0  0  0  0  0  0  0  0  0  0  0  0
  155.2808  136.8717  158.5778 N   0  0  0  0  0  0  0  0  0  0  0  0
  154.3041  136.0621  158.9991 C   0  0  0  0  0  0  0  0  0  0  0  0
  153.6373  136.1546  160.0301 O   0  0  0  0  0  0  0  0  0  0  0  0
  154.1428  134.9673  157.9707 C   0  0  0  0  0  0  0  0  0  0  0  0
  155.1444  135.3157  156.9892 N   0  5  0  0  0  0  0  0  0  0  0  0
  155.7791  136.4377  157.4034 C   0  0  0  0  0  0  0  0  0  0  0  0
  156.6939  137.0197  156.8211 O   0  0  0  0  0  0  0  0  0  0  0  0
  153.4191  141.4417  162.2210 H   0  0  0  0  0  0  0  0  0  0  0  0
  154.8984  140.5008  162.1892 H   0  0  0  0  0  0  0  0  0  0  0  0
  153.4266  139.8467  161.4737 H   0  0  0  0  0  0  0  0  0  0  0  0
  154.9475  142.3047  160.4696 H   0  0  0  0  0  0  0  0  0  0  0  0
  153.3853  141.6144  158.3255 H   0  0  0  0  0  0  0  0  0  0  0  0
  152.3472  141.0224  159.6005 H   0  0  0  0  0  0  0  0  0  0  0  0
  152.6915  143.9173  157.6142 H   0  0  0  0  0  0  0  0  0  0  0  0
  151.7414  146.1238  158.9096 H   0  0  0  0  0  0  0  0  0  0  0  0
  151.6111  145.2878  161.5489 H   0  0  0  0  0  0  0  0  0  0  0  0
  155.4895  140.8091  158.6532 H   0  0  0  0  0  0  0  0  0  0  0  0
  153.9892  138.9127  160.2565 H   0  0  0  0  0  0  0  0  0  0  0  0
  154.0492  139.1280  158.5176 H   0  0  0  0  0  0  0  0  0  0  0  0
  156.6082  138.4703  158.7933 H   0  0  0  0  0  0  0  0  0  0  0  0
  156.1130  137.7826  160.3063 H   0  0  0  0  0  0  0  0  0  0  0  0
  154.3141  133.9951  158.4342 H   0  0  0  0  0  0  0  0  0  0  0  0
  153.1274  134.9777  157.5734 H   0  0  0  0  0  0  0  0  0  0  0  0
  1  2  1  0  0  0  0
  1 19  1  0  0  0  0
  1 20  1  0  0  0  0
  1 21  1  0  0  0  0
  2  3  1  0  0  0  0
  2  9  1  0  0  0  0
  2 22  1  0  0  0  0
  3  4  1  0  0  0  0
  3 23  1  0  0  0  0
  3 24  1  0  0  0  0
  4  8  1  0  0  0  0
  4  5  1  0  0  0  0
  5  6  2  0  0  0  0
  5 25  1  0  0  0  0
  6  7  1  0  0  0  0
  6 26  1  0  0  0  0
  7  8  2  0  0  0  0
  7 27  1  0  0  0  0
  9 10  1  0  0  0  0
  9 28  1  0  0  0  0
 10 11  1  0  0  0  0
 10 29  1  0  0  0  0
 10 30  1  0  0  0  0
 11 12  1  0  0  0  0
 11 31  1  0  0  0  0
 11 32  1  0  0  0  0
 12 17  1  0  0  0  0
 12 13  1  0  0  0  0
 13 14  2  0  0  0  0
 13 15  1  0  0  0  0
 15 16  1  0  0  0  0
 15 33  1  0  0  0  0
 15 34  1  0  0  0  0
 16 17  1  0  0  0  0
 17 18  2  0  0  0  0
M  CHG  1  16  -1
M  END
> <s_m_source_file>
AV-unprocessed.smi

> <i_m_source_file_index>
3245

> <i_lp_mmshare_version>
43012

> <i_f3d_flags>
0

> <s_epik_input>
bjFbY0hdW2NIXVtjSF1uMVtDSDJdW0NAQEhdKFtDSDNdKVtOSF1bQ0gyXVtDSDJdTjJDKD1PKVtDSDJdW05IXUMyPU8=

> <s_epik_cmdline>
J2VwaWtfcHl0aG9uJywgJy1waCcsICc3LjAnLCAnLXRuJywgJzgnLCAnLW1hJywgJzIwMCcsICctbWV0YWxfYmluZGluZycsICctaW1hZScsICc8aW5maWxlLm1hZT4nLCAnLW9tYWUnLCAnPG91dGZpbGUubWFlPic=

> <r_lp_tautomer_probability>
1

> <r_epik_Ionization_Penalty>
8.62027

> <r_epik_Ionization_Penalty_Charging>
6.28132

> <r_epik_Ionization_Penalty_Neutral>
2.33895

> <r_epik_State_Penalty>
8.57043

> <r_epik_Charging_Adjusted_Penalty>
14.8517

> <i_epik_Tot_Q>
-1

> <i_epik_Tot_abs_Q>
1

> <r_epik_Metal_State_Penalty>
4.56785

> <b_epik_Metal_Only>
1

> <s_lp_Force_Field>
OPLS_2005

> <r_lp_Energy>
21.0374

> <b_lp_Chiralities_Consistent>
1

> <s_lp_Variant>
AV-unprocessed.smi:3245-7

> <Gold.Version>
5.8.1

> <Gold.Id.Protein>
6NUR|6NUR_protein|mol2

> <Gold.PLP.Fitness>
41.2567

> <Gold.PLP.PLP>
-33.7318

> <Gold.PLP.part.hbond>
-3.0000

> <Gold.PLP.part.metal>
0.0000

> <Gold.PLP.part.buried>
-3.6650

> <Gold.PLP.part.nonpolar>
-27.2958

> <Gold.PLP.part.repulsive>
0.1425

> <Gold.PLP.ligand.clash>
0.0000

> <Gold.PLP.ligand.torsion>
0.7614

> <Gold.PLP.Chemscore.Hbond>
3.0000

> <Gold.PLP.Chemscore.CHOScore>
0.0000

> <Gold.PLP.Chemscore.Metal>
0.0000

> <Gold.Chemscore.Hbonds>
donor molecule, donor type, donor heavy atom, donor atom, acceptor molecule, acceptor atom, score
      P1  H  6896  6907       L1    14  1.00
      P1  H 10752 10763       L1    16  2.00

> <Gold.PLP.Chemscore.Internal.Correction>
0.0477

> <Gold.Rescore>
     Score         DG    S(hbond)    S(metal)    S(lipo)     H(rot)  DE(clash)    DE(int)     intcor
     12.48     -13.25       1.62        0.00      76.78       2.58       0.00       0.77       ----

> <Gold.Chemscore.Fitness>
12.4772

> <Gold.Chemscore.DG>
-13.2525

> <Gold.Chemscore.ZeroCoef>
-5.4800

> <Gold.Chemscore.Hbond>
1.6159

> <Gold.Chemscore.Metal>
0.0000

> <Gold.Chemscore.Lipo>
76.7791

> <Gold.Chemscore.Internal_Hbond>
0.0000

> <Gold.Chemscore.DEClash>
0.0025

> <Gold.Chemscore.DEInternal>
0.7728

> <Gold.Chemscore.Rot>
2.5811

> <Gold.Chemscore.Internal.Correction>
   9.000000E+99

> <Gold.Chemscore.Hbonds>
donor molecule, donor type, donor heavy atom, donor atom, acceptor molecule, acceptor atom, score
      P1  H  6896  6907       L1    14  0.49
      P1  H 10752 10763       L1    16  0.64

> <Gold.Chemscore.Hbond.Weighted>
-5.3970

> <Gold.Chemscore.Metal.Weighted>
-0.0000

> <Gold.Chemscore.Lipo.Weighted>
-8.9831

> <Gold.Chemscore.Internal_Hbond.Weighted>
0.0000

> <Gold.Chemscore.DEClash.Weighted>
0.0025

> <Gold.Chemscore.DEInternal.Weighted>
0.7728

> <Gold.Chemscore.Rot.Weighted>
6.6076

> <Gold.Chemscore.Internal.Correction.Weighted>
   9.000000E+99

> <Gold.Protein.RotatedTorsions>
[ 6907 6896 6895 6894 ] final   62.91 input  -60.11 | X-H torsion
[ 7974 7965 7964 7962 ] final  -45.50 input  175.53 | X-H torsion
[ 8008 7997 7996 7995 ] final    1.92 input   59.86 | X-H torsion
[ 10167 10162 10161 10158 ] final  157.88 input  -65.29 | X-H torsion
[ 10718 10713 10712 10709 ] final  -93.66 input   66.30 | X-H torsion
[ 10763 10752 10751 10750 ] final  164.09 input  -60.55 | X-H torsion
[ 11005 11000 10999 10996 ] final   69.30 input  -57.11 | X-H torsion

> <Gold.Protein.ActiveResidues>
 VAL166  LYS551  ARG553  GLY616  TRP617  ASP618  TYR619  PRO620  LYS621  CYS622 
 ASP623  PHE694  ASN695  SER759  ASP760  ASP761  ALA762  ILE779  LEU786  VAL792 
 PHE793  MET794  SER795  GLU796  ALA797  LYS798  CYS799  TRP800  GLU811  SER814 

> <Gold.Protein.RotatedAtoms>
  152.4210  134.5955  159.9985 H   0  0  0  0  0  0  0  0  0  0  0  0  # atno 6907 bound_to 6896
  151.6105  133.3342  159.3074 H   0  0  0  0  0  0  0  0  0  0  0  0  # atno 6908 bound_to 6896
  150.8098  134.7284  159.6743 H   0  0  0  0  0  0  0  0  0  0  0  0  # atno 6909 bound_to 6896
  145.9814  140.7279  142.9362 H   0  0  0  0  0  0  0  0  0  0  0  0  # atno 7974 bound_to 7965
  154.6854  140.2641  155.6866 H   0  0  0  0  0  0  0  0  0  0  0  0  # atno 8008 bound_to 7997
  156.2712  140.2802  156.1336 H   0  0  0  0  0  0  0  0  0  0  0  0  # atno 8009 bound_to 7997
  155.0972  140.0374  157.2676 H   0  0  0  0  0  0  0  0  0  0  0  0  # atno 8010 bound_to 7997
  139.4824  144.4876  151.8355 H   0  0  0  0  0  0  0  0  0  0  0  0  # atno 10167 bound_to 10162
  156.0016  130.5036  150.5810 H   0  0  0  0  0  0  0  0  0  0  0  0  # atno 10718 bound_to 10713
  154.3037  135.2758  155.2599 H   0  0  0  0  0  0  0  0  0  0  0  0  # atno 10763 bound_to 10752
  154.5025  135.5804  153.6545 H   0  0  0  0  0  0  0  0  0  0  0  0  # atno 10764 bound_to 10752
  152.9897  135.6161  154.3209 H   0  0  0  0  0  0  0  0  0  0  0  0  # atno 10765 bound_to 10752
  139.9661  134.6978  156.0542 H   0  0  0  0  0  0  0  0  0  0  0  0  # atno 11005 bound_to 11000
  144.6862  140.2915  143.7277 LP  0  0  0  0  0  0  0  0  0  0  0  0  # atno 17320 bound_to 7965
  145.7764  139.1875  143.2183 LP  0  0  0  0  0  0  0  0  0  0  0  0  # atno 17321 bound_to 7965
  140.4357  144.2055  150.5889 LP  0  0  0  0  0  0  0  0  0  0  0  0  # atno 17342 bound_to 10162
  140.4734  143.2405  151.9057 LP  0  0  0  0  0  0  0  0  0  0  0  0  # atno 17343 bound_to 10162
  157.3690  131.0762  151.1573 LP  0  0  0  0  0  0  0  0  0  0  0  0  # atno 17370 bound_to 10713
  157.2333  130.6535  149.5859 LP  0  0  0  0  0  0  0  0  0  0  0  0  # atno 17371 bound_to 10713
  141.1341  133.6579  156.3545 LP  0  0  0  0  0  0  0  0  0  0  0  0  # atno 17394 bound_to 11000
  140.5393  134.6136  157.5375 LP  0  0  0  0  0  0  0  0  0  0  0  0  # atno 17395 bound_to 11000

$$$$
