AV-unprocessed.smi:2881|AV-procd|sdf|11068|dock4
  -GOLD-   2272015543D 1   1.00000     0.00000
 Structure written by MMmdl.
 40 42  0  0  0  0  0  0  0  0  1 V2000
  145.9971  132.3074  151.8069 C   0  0  0  0  0  0  0  0  0  0  0  0
  146.9552  133.0244  152.7120 C   0  0  0  0  0  0  0  0  0  0  0  0
  148.2569  132.6107  153.1215 C   0  0  0  0  0  0  0  0  0  0  0  0
  148.6914  133.6187  153.9364 C   0  0  0  0  0  0  0  0  0  0  0  0
  149.9707  133.7992  154.6883 C   0  0  0  0  0  0  0  0  0  0  0  0
  149.9286  135.0662  155.5415 C   0  0  0  0  0  0  0  0  0  0  0  0
  149.9906  134.9854  156.7681 O   0  0  0  0  0  0  0  0  0  0  0  0
  149.8257  136.2292  154.8809 N   0  0  0  0  0  0  0  0  0  0  0  0
  149.7720  137.5463  155.5108 C   0  0  1  0  0  0  0  0  0  0  0  0
  150.7698  137.7096  156.6856 C   0  0  1  0  0  0  0  0  0  0  0  0
  152.2013  137.3031  156.2739 C   0  0  0  0  0  0  0  0  0  0  0  0
  152.6038  138.4287  155.3030 C   0  0  0  0  0  0  0  0  0  0  0  0
  151.3647  139.3453  155.3104 C   0  0  2  0  0  0  0  0  0  0  0  0
  150.9073  139.2246  156.7597 C   0  0  0  0  0  0  0  0  0  0  0  0
  150.2166  138.6613  154.5290 C   0  0  2  0  0  0  0  0  0  0  0  0
  149.0659  139.6157  154.1542 C   0  0  0  0  0  0  0  0  0  0  0  0
  149.5627  140.7314  153.4457 O   0  0  0  0  0  0  0  0  0  0  0  0
  147.6736  134.5449  153.9757 N   0  0  0  0  0  0  0  0  0  0  0  0
  146.6089  134.1928  153.2315 N   0  0  0  0  0  0  0  0  0  0  0  0
  147.6937  135.4106  154.4964 H   0  0  0  0  0  0  0  0  0  0  0  0
  146.4716  131.4483  151.3323 H   0  0  0  0  0  0  0  0  0  0  0  0
  145.6350  132.9642  151.0154 H   0  0  0  0  0  0  0  0  0  0  0  0
  145.1317  131.9442  152.3617 H   0  0  0  0  0  0  0  0  0  0  0  0
  148.7903  131.7100  152.8558 H   0  0  0  0  0  0  0  0  0  0  0  0
  150.8097  133.8547  153.9935 H   0  0  0  0  0  0  0  0  0  0  0  0
  150.1560  132.9362  155.3293 H   0  0  0  0  0  0  0  0  0  0  0  0
  149.7796  136.2023  153.8726 H   0  0  0  0  0  0  0  0  0  0  0  0
  148.7571  137.7391  155.8651 H   0  0  0  0  0  0  0  0  0  0  0  0
  150.4343  137.2379  157.6098 H   0  0  0  0  0  0  0  0  0  0  0  0
  152.8607  137.3005  157.1427 H   0  0  0  0  0  0  0  0  0  0  0  0
  152.2612  136.3141  155.8197 H   0  0  0  0  0  0  0  0  0  0  0  0
  153.4815  138.9583  155.6754 H   0  0  0  0  0  0  0  0  0  0  0  0
  152.8393  138.0548  154.3060 H   0  0  0  0  0  0  0  0  0  0  0  0
  151.5831  140.3617  154.9816 H   0  0  0  0  0  0  0  0  0  0  0  0
  149.9661  139.7349  156.9686 H   0  0  0  0  0  0  0  0  0  0  0  0
  151.6575  139.5577  157.4792 H   0  0  0  0  0  0  0  0  0  0  0  0
  150.6084  138.2294  153.6059 H   0  0  0  0  0  0  0  0  0  0  0  0
  148.3448  139.1017  153.5180 H   0  0  0  0  0  0  0  0  0  0  0  0
  148.5269  139.9603  155.0367 H   0  0  0  0  0  0  0  0  0  0  0  0
  149.2915  140.6599  152.5432 H   0  0  0  0  0  0  0  0  0  0  0  0
  1 21  1  0  0  0  0
  1 22  1  0  0  0  0
  1 23  1  0  0  0  0
  1  2  1  0  0  0  0
  2 19  2  0  0  0  0
  2  3  1  0  0  0  0
  3  4  2  0  0  0  0
  3 24  1  0  0  0  0
  4 18  1  0  0  0  0
  4  5  1  0  0  0  0
  5  6  1  0  0  0  0
  5 25  1  0  0  0  0
  5 26  1  0  0  0  0
  6  7  2  0  0  0  0
  6  8  1  0  0  0  0
  8  9  1  0  0  0  0
  8 27  1  0  0  0  0
  9 15  1  0  0  0  0
  9 10  1  0  0  0  0
  9 28  1  0  0  0  0
 10 14  1  0  0  0  0
 10 11  1  0  0  0  0
 10 29  1  0  0  0  0
 11 12  1  0  0  0  0
 11 30  1  0  0  0  0
 11 31  1  0  0  0  0
 12 13  1  0  0  0  0
 12 32  1  0  0  0  0
 12 33  1  0  0  0  0
 13 14  1  0  0  0  0
 13 15  1  0  0  0  0
 13 34  1  0  0  0  0
 14 35  1  0  0  0  0
 14 36  1  0  0  0  0
 15 16  1  0  0  0  0
 15 37  1  0  0  0  0
 16 17  1  0  0  0  0
 16 38  1  0  0  0  0
 16 39  1  0  0  0  0
 17 40  1  0  0  0  0
 18 19  1  0  0  0  0
 18 20  1  0  0  0  0
M  END
> <s_m_source_file>
AV-unprocessed.smi

> <i_m_source_file_index>
2881

> <i_lp_mmshare_version>
43012

> <i_f3d_flags>
0

> <s_epik_input>
W0NIM11jMVtjSF1jKG5bbkhdMSlbQ0gyXUMoPU8pW05IXVtDQEhdKFtDQEBIXTIzKVtDQEhdKFtDSDJdW09IXSlbQ0BASF0oW0NIMl0zKVtDSDJdW0NIMl0y

> <s_epik_cmdline>
J2VwaWtfcHl0aG9uJywgJy1waCcsICc3LjAnLCAnLXRuJywgJzgnLCAnLW1hJywgJzIwMCcsICctbWV0YWxfYmluZGluZycsICctaW1hZScsICc8aW5maWxlLm1hZT4nLCAnLW9tYWUnLCAnPG91dGZpbGUubWFlPic=

> <r_lp_tautomer_probability>
0.5

> <r_epik_Ionization_Penalty>
0.00013396

> <r_epik_Ionization_Penalty_Charging>
0

> <r_epik_Ionization_Penalty_Neutral>
0.00013396

> <r_epik_State_Penalty>
0.41068

> <r_epik_Charging_Adjusted_Penalty>
0.41068

> <i_epik_Tot_Q>
0

> <i_epik_Tot_abs_Q>
0

> <r_epik_Metal_State_Penalty>
0.41066

> <b_epik_Metal_Only>
0

> <s_lp_Force_Field>
OPLS_2005

> <r_lp_Energy>
46.8949

> <b_lp_Chiralities_Consistent>
1

> <s_lp_Variant>
AV-unprocessed.smi:2881-14

> <Gold.Version>
5.8.1

> <Gold.Id.Protein>
6NUR|6NUR_protein|mol2

> <Gold.PLP.Fitness>
37.1765

> <Gold.PLP.PLP>
-31.3217

> <Gold.PLP.part.hbond>
-4.7239

> <Gold.PLP.part.metal>
0.0000

> <Gold.PLP.part.buried>
-2.4225

> <Gold.PLP.part.nonpolar>
-24.3989

> <Gold.PLP.part.repulsive>
0.1384

> <Gold.PLP.ligand.clash>
0.0000

> <Gold.PLP.ligand.torsion>
0.3453

> <Gold.PLP.Chemscore.Hbond>
2.1745

> <Gold.PLP.Chemscore.CHOScore>
0.0000

> <Gold.PLP.Chemscore.Metal>
0.0000

> <Gold.Chemscore.Hbonds>
donor molecule, donor type, donor heavy atom, donor atom, acceptor molecule, acceptor atom, score
      L1  H     8    27       P1  7948  0.73
      L1  H    17    40       P1  7957  0.93
      P1  H  7989  7998       L1    17  0.34

> <Gold.PLP.Chemscore.Internal.Correction>
0.0219

> <Gold.Rescore>
     Score         DG    S(hbond)    S(metal)    S(lipo)     H(rot)  DE(clash)    DE(int)     intcor
     10.38     -13.07       1.41        0.00      74.45       2.28       0.10       2.59       ----

> <Gold.Chemscore.Fitness>
10.3786

> <Gold.Chemscore.DG>
-13.0691

> <Gold.Chemscore.ZeroCoef>
-5.4800

> <Gold.Chemscore.Hbond>
1.4081

> <Gold.Chemscore.Metal>
0.0000

> <Gold.Chemscore.Lipo>
74.4543

> <Gold.Chemscore.Internal_Hbond>
0.0000

> <Gold.Chemscore.DEClash>
0.0997

> <Gold.Chemscore.DEInternal>
2.5908

> <Gold.Chemscore.Rot>
2.2755

> <Gold.Chemscore.Internal.Correction>
   9.000000E+99

> <Gold.Chemscore.Hbonds>
donor molecule, donor type, donor heavy atom, donor atom, acceptor molecule, acceptor atom, score
      L1  H     8    27       P1  7948  0.25
      L1  H    17    40       P1  7957  0.85
      P1  H  7989  7998       L1    17  0.17

> <Gold.Chemscore.Hbond.Weighted>
-4.7031

> <Gold.Chemscore.Metal.Weighted>
-0.0000

> <Gold.Chemscore.Lipo.Weighted>
-8.7112

> <Gold.Chemscore.Internal_Hbond.Weighted>
0.0000

> <Gold.Chemscore.DEClash.Weighted>
0.0997

> <Gold.Chemscore.DEInternal.Weighted>
2.5908

> <Gold.Chemscore.Rot.Weighted>
5.8252

> <Gold.Chemscore.Internal.Correction.Weighted>
   9.000000E+99

> <Gold.Protein.RotatedTorsions>
[ 6907 6896 6895 6894 ] final   35.92 input  -60.11 | X-H torsion
[ 7974 7965 7964 7962 ] final -102.84 input  175.53 | X-H torsion
[ 8008 7997 7996 7995 ] final   82.11 input   59.86 | X-H torsion
[ 10167 10162 10161 10158 ] final  -43.92 input  -65.29 | X-H torsion
[ 10718 10713 10712 10709 ] final  -20.46 input   66.30 | X-H torsion
[ 10763 10752 10751 10750 ] final   71.81 input  -60.55 | X-H torsion
[ 11005 11000 10999 10996 ] final -137.63 input  -57.11 | X-H torsion

> <Gold.Protein.ActiveResidues>
 VAL166  LYS551  ARG553  GLY616  TRP617  ASP618  TYR619  PRO620  LYS621  CYS622 
 ASP623  PHE694  ASN695  SER759  ASP760  ASP761  ALA762  ILE779  LEU786  VAL792 
 PHE793  MET794  SER795  GLU796  ALA797  LYS798  CYS799  TRP800  GLU811  SER814 

> <Gold.Protein.RotatedAtoms>
  152.1226  134.9194  160.0562 H   0  0  0  0  0  0  0  0  0  0  0  0  # atno 6907 bound_to 6896
  152.0329  133.3940  159.4313 H   0  0  0  0  0  0  0  0  0  0  0  0  # atno 6908 bound_to 6896
  150.6850  134.3422  159.4916 H   0  0  0  0  0  0  0  0  0  0  0  0  # atno 6909 bound_to 6896
  145.2635  140.9277  143.3027 H   0  0  0  0  0  0  0  0  0  0  0  0  # atno 7974 bound_to 7965
  155.9062  140.3430  155.6063 H   0  0  0  0  0  0  0  0  0  0  0  0  # atno 8008 bound_to 7997
  155.7442  140.0811  157.2250 H   0  0  0  0  0  0  0  0  0  0  0  0  # atno 8009 bound_to 7997
  154.4050  140.1565  156.2637 H   0  0  0  0  0  0  0  0  0  0  0  0  # atno 8010 bound_to 7997
  140.6916  143.2957  151.3421 H   0  0  0  0  0  0  0  0  0  0  0  0  # atno 10167 bound_to 10162
  156.5316  130.4656  149.6544 H   0  0  0  0  0  0  0  0  0  0  0  0  # atno 10718 bound_to 10713
  153.0421  135.5123  154.7649 H   0  0  0  0  0  0  0  0  0  0  0  0  # atno 10763 bound_to 10752
  154.6578  135.2934  154.9907 H   0  0  0  0  0  0  0  0  0  0  0  0  # atno 10764 bound_to 10752
  154.0768  135.6669  153.4884 H   0  0  0  0  0  0  0  0  0  0  0  0  # atno 10765 bound_to 10752
  140.8693  134.2071  157.4660 H   0  0  0  0  0  0  0  0  0  0  0  0  # atno 11005 bound_to 11000
  144.9397  139.4203  143.6455 LP  0  0  0  0  0  0  0  0  0  0  0  0  # atno 17320 bound_to 7965
  146.3268  139.8350  142.8901 LP  0  0  0  0  0  0  0  0  0  0  0  0  # atno 17321 bound_to 7965
  139.6325  144.0693  152.2488 LP  0  0  0  0  0  0  0  0  0  0  0  0  # atno 17342 bound_to 10162
  140.0172  144.6180  150.7597 LP  0  0  0  0  0  0  0  0  0  0  0  0  # atno 17343 bound_to 10162
  156.3055  130.7200  151.2081 LP  0  0  0  0  0  0  0  0  0  0  0  0  # atno 17370 bound_to 10713
  157.7421  131.0495  150.5051 LP  0  0  0  0  0  0  0  0  0  0  0  0  # atno 17371 bound_to 10713
  139.8711  134.9767  156.4929 LP  0  0  0  0  0  0  0  0  0  0  0  0  # atno 17394 bound_to 11000
  140.8592  133.8073  155.9247 LP  0  0  0  0  0  0  0  0  0  0  0  0  # atno 17395 bound_to 11000

$$$$
