AV-unprocessed.smi:2678|AV-procd|sdf|10367|dock7
  -GOLD-   2272014393D 1   1.00000     0.00000
 Structure written by MMmdl.
 46 47  0  0  0  0  0  0  0  0  1 V2000
  151.5564  141.6700  157.7615 C   0  0  0  0  0  0  0  0  0  0  0  0
  150.7959  140.3496  157.9629 C   0  0  0  0  0  0  0  0  0  0  0  0
  151.7120  139.1341  157.7695 C   0  0  0  0  0  0  0  0  0  0  0  0
  149.6712  140.2602  157.0362 N   0  0  0  0  0  0  0  0  0  0  0  0
  149.7658  140.1819  155.6993 C   0  0  0  0  0  0  0  0  0  0  0  0
  150.8397  140.1741  155.0964 O   0  0  0  0  0  0  0  0  0  0  0  0
  148.4433  140.0959  154.9258 C   0  0  1  0  0  0  0  0  0  0  0  0
  148.2861  141.2872  153.9576 C   0  0  0  0  0  0  0  0  0  0  0  0
  146.9697  141.1955  153.1695 C   0  0  0  0  0  0  0  0  0  0  0  0
  146.8598  139.8587  152.4193 C   0  0  0  0  0  0  0  0  0  0  0  0
  147.0116  138.6634  153.3780 C   0  0  1  0  0  0  0  0  0  0  0  0
  146.9420  137.4144  152.6162 N   0  0  0  0  0  0  0  0  0  0  0  0
  145.9202  136.5428  152.5277 C   0  0  0  0  0  0  0  0  0  0  0  0
  144.8743  136.7266  153.1463 O   0  0  0  0  0  0  0  0  0  0  0  0
  146.1680  135.4786  151.7388 N   0  0  0  0  0  0  0  0  0  0  0  0
  145.3029  134.4077  151.3880 C   0  0  0  0  0  0  0  0  0  0  0  0
  145.6714  133.3238  150.5548 C   0  0  0  0  0  0  0  0  0  0  0  0
  144.7264  132.3115  150.2993 C   0  0  0  0  0  0  0  0  0  0  0  0
  143.4522  132.4153  150.8903 C   0  0  0  0  0  0  0  0  0  0  0  0
  143.0919  133.4355  151.6971 N   0  0  0  0  0  0  0  0  0  0  0  0
  144.0036  134.4018  151.9384 C   0  0  0  0  0  0  0  0  0  0  0  0
  148.3416  138.7629  154.1552 C   0  0  0  0  0  0  0  0  0  0  0  0
  152.3972  141.7457  158.4517 H   0  0  0  0  0  0  0  0  0  0  0  0
  150.9109  142.5310  157.9378 H   0  0  0  0  0  0  0  0  0  0  0  0
  151.9503  141.7510  156.7477 H   0  0  0  0  0  0  0  0  0  0  0  0
  150.4162  140.3189  158.9858 H   0  0  0  0  0  0  0  0  0  0  0  0
  152.5444  139.1556  158.4734 H   0  0  0  0  0  0  0  0  0  0  0  0
  152.1289  139.1054  156.7622 H   0  0  0  0  0  0  0  0  0  0  0  0
  151.1685  138.2026  157.9320 H   0  0  0  0  0  0  0  0  0  0  0  0
  148.7475  140.2590  157.4439 H   0  0  0  0  0  0  0  0  0  0  0  0
  147.6235  140.1337  155.6456 H   0  0  0  0  0  0  0  0  0  0  0  0
  148.3146  142.2272  154.5107 H   0  0  0  0  0  0  0  0  0  0  0  0
  149.1217  141.3171  153.2563 H   0  0  0  0  0  0  0  0  0  0  0  0
  146.1262  141.3017  153.8529 H   0  0  0  0  0  0  0  0  0  0  0  0
  146.9014  142.0236  152.4635 H   0  0  0  0  0  0  0  0  0  0  0  0
  145.9003  139.8065  151.9036 H   0  0  0  0  0  0  0  0  0  0  0  0
  147.6289  139.8146  151.6467 H   0  0  0  0  0  0  0  0  0  0  0  0
  146.1800  138.7006  154.0840 H   0  0  0  0  0  0  0  0  0  0  0  0
  147.7749  137.1759  152.0972 H   0  0  0  0  0  0  0  0  0  0  0  0
  147.1054  135.4145  151.3697 H   0  0  0  0  0  0  0  0  0  0  0  0
  146.6558  133.2393  150.1216 H   0  0  0  0  0  0  0  0  0  0  0  0
  144.9754  131.4716  149.6674 H   0  0  0  0  0  0  0  0  0  0  0  0
  142.7048  131.6557  150.7158 H   0  0  0  0  0  0  0  0  0  0  0  0
  143.6820  135.2000  152.5916 H   0  0  0  0  0  0  0  0  0  0  0  0
  149.1764  138.6697  153.4581 H   0  0  0  0  0  0  0  0  0  0  0  0
  148.4323  137.9296  154.8532 H   0  0  0  0  0  0  0  0  0  0  0  0
  1  2  1  0  0  0  0
  1 23  1  0  0  0  0
  1 24  1  0  0  0  0
  1 25  1  0  0  0  0
  2  3  1  0  0  0  0
  2  4  1  0  0  0  0
  2 26  1  0  0  0  0
  3 27  1  0  0  0  0
  3 28  1  0  0  0  0
  3 29  1  0  0  0  0
  4  5  1  0  0  0  0
  4 30  1  0  0  0  0
  5  6  2  0  0  0  0
  5  7  1  0  0  0  0
  7 22  1  0  0  0  0
  7  8  1  0  0  0  0
  7 31  1  0  0  0  0
  8  9  1  0  0  0  0
  8 32  1  0  0  0  0
  8 33  1  0  0  0  0
  9 10  1  0  0  0  0
  9 34  1  0  0  0  0
  9 35  1  0  0  0  0
 10 11  1  0  0  0  0
 10 36  1  0  0  0  0
 10 37  1  0  0  0  0
 11 12  1  0  0  0  0
 11 22  1  0  0  0  0
 11 38  1  0  0  0  0
 12 13  1  0  0  0  0
 12 39  1  0  0  0  0
 13 14  2  0  0  0  0
 13 15  1  0  0  0  0
 15 16  1  0  0  0  0
 15 40  1  0  0  0  0
 16 21  1  0  0  0  0
 16 17  2  0  0  0  0
 17 18  1  0  0  0  0
 17 41  1  0  0  0  0
 18 19  2  0  0  0  0
 18 42  1  0  0  0  0
 19 20  1  0  0  0  0
 19 43  1  0  0  0  0
 20 21  2  0  0  0  0
 21 44  1  0  0  0  0
 22 45  1  0  0  0  0
 22 46  1  0  0  0  0
M  END
> <s_m_source_file>
AV-unprocessed.smi

> <i_m_source_file_index>
2678

> <i_lp_mmshare_version>
43012

> <i_f3d_flags>
0

> <s_epik_input>
W0NIM11bQ0hdKFtDSDNdKVtOSF1DKD1PKVtDQEBIXTFbQ0gyXVtDSDJdW0NIMl1bQ0BIXShbQ0gyXTEpW05IXUMoPU8pW05IXWMyW2NIXVtjSF1bY0hdbltjSF0y

> <s_epik_cmdline>
J2VwaWtfcHl0aG9uJywgJy1waCcsICc3LjAnLCAnLXRuJywgJzgnLCAnLW1hJywgJzIwMCcsICctbWV0YWxfYmluZGluZycsICctaW1hZScsICc8aW5maWxlLm1hZT4nLCAnLW9tYWUnLCAnPG91dGZpbGUubWFlPic=

> <r_epik_Ionization_Penalty>
0.00482944

> <r_epik_Ionization_Penalty_Charging>
0

> <r_epik_Ionization_Penalty_Neutral>
0.00482944

> <r_epik_State_Penalty>
0.00347168

> <r_epik_Charging_Adjusted_Penalty>
0.00347168

> <i_epik_Tot_Q>
0

> <i_epik_Tot_abs_Q>
0

> <r_epik_Metal_State_Penalty>
-0

> <b_epik_Metal_Only>
0

> <s_lp_Force_Field>
OPLS_2005

> <r_lp_Energy>
23.8457

> <b_lp_Chiralities_Consistent>
1

> <s_lp_Variant>
AV-unprocessed.smi:2678-2

> <Gold.Version>
5.8.1

> <Gold.Id.Protein>
6NUR|6NUR_protein|mol2

> <Gold.PLP.Fitness>
44.6388

> <Gold.PLP.PLP>
-34.0119

> <Gold.PLP.part.hbond>
-2.7283

> <Gold.PLP.part.metal>
0.0000

> <Gold.PLP.part.buried>
-4.7562

> <Gold.PLP.part.nonpolar>
-28.0881

> <Gold.PLP.part.repulsive>
0.7441

> <Gold.PLP.ligand.clash>
0.0000

> <Gold.PLP.ligand.torsion>
0.2088

> <Gold.PLP.Chemscore.Hbond>
2.7009

> <Gold.PLP.Chemscore.CHOScore>
0.9738

> <Gold.PLP.Chemscore.Metal>
0.0000

> <Gold.Chemscore.Hbonds>
donor molecule, donor type, donor heavy atom, donor atom, acceptor molecule, acceptor atom, score
      L1  H    12    39       P1  7948  0.94
      L1  H    15    40       P1  7948  0.75
      P1  H  7989  7998       L1     6  1.00
      L1  C    19    43       P1 10952  0.93

> <Gold.PLP.Chemscore.Internal.Correction>
0.0202

> <Gold.Rescore>
     Score         DG    S(hbond)    S(metal)    S(lipo)     H(rot)  DE(clash)    DE(int)     intcor
     18.43     -21.09       2.66        0.00      89.39       1.46       0.14       2.53       ----

> <Gold.Chemscore.Fitness>
18.4274

> <Gold.Chemscore.DG>
-21.0941

> <Gold.Chemscore.ZeroCoef>
-5.4800

> <Gold.Chemscore.Hbond>
2.6628

> <Gold.Chemscore.Metal>
0.0000

> <Gold.Chemscore.Lipo>
89.3891

> <Gold.Chemscore.Internal_Hbond>
0.0000

> <Gold.Chemscore.DEClash>
0.1414

> <Gold.Chemscore.DEInternal>
2.5252

> <Gold.Chemscore.Rot>
1.4603

> <Gold.Chemscore.Internal.Correction>
   9.000000E+99

> <Gold.Chemscore.Hbonds>
donor molecule, donor type, donor heavy atom, donor atom, acceptor molecule, acceptor atom, score
      L1  H    12    39       P1  7948  0.86
      L1  H    15    40       P1  7948  0.65
      P1  H  7989  7998       L1     6  0.99

> <Gold.Chemscore.Hbond.Weighted>
-8.8939

> <Gold.Chemscore.Metal.Weighted>
-0.0000

> <Gold.Chemscore.Lipo.Weighted>
-10.4585

> <Gold.Chemscore.Internal_Hbond.Weighted>
0.0000

> <Gold.Chemscore.DEClash.Weighted>
0.1414

> <Gold.Chemscore.DEInternal.Weighted>
2.5252

> <Gold.Chemscore.Rot.Weighted>
3.7383

> <Gold.Chemscore.Internal.Correction.Weighted>
   9.000000E+99

> <Gold.Protein.RotatedTorsions>
[ 6907 6896 6895 6894 ] final -112.53 input  -60.11 | X-H torsion
[ 7974 7965 7964 7962 ] final    6.26 input  175.53 | X-H torsion
[ 8008 7997 7996 7995 ] final -149.62 input   59.86 | X-H torsion
[ 10167 10162 10161 10158 ] final  158.40 input  -65.29 | X-H torsion
[ 10718 10713 10712 10709 ] final -121.27 input   66.30 | X-H torsion
[ 10763 10752 10751 10750 ] final -152.24 input  -60.55 | X-H torsion
[ 11005 11000 10999 10996 ] final -123.63 input  -57.11 | X-H torsion

> <Gold.Protein.ActiveResidues>
 VAL166  LYS551  ARG553  GLY616  TRP617  ASP618  TYR619  PRO620  LYS621  CYS622 
 ASP623  PHE694  ASN695  SER759  ASP760  ASP761  ALA762  ILE779  LEU786  VAL792 
 PHE793  MET794  SER795  GLU796  ALA797  LYS798  CYS799  TRP800  GLU811  SER814 

> <Gold.Protein.RotatedAtoms>
  150.7765  133.9076  159.3359 H   0  0  0  0  0  0  0  0  0  0  0  0  # atno 6907 bound_to 6896
  151.6949  135.0938  160.0250 H   0  0  0  0  0  0  0  0  0  0  0  0  # atno 6908 bound_to 6896
  152.3802  133.6498  159.6191 H   0  0  0  0  0  0  0  0  0  0  0  0  # atno 6909 bound_to 6896
  146.2436  140.0260  142.8394 H   0  0  0  0  0  0  0  0  0  0  0  0  # atno 7974 bound_to 7965
  155.6104  140.0671  157.2707 H   0  0  0  0  0  0  0  0  0  0  0  0  # atno 8008 bound_to 7997
  154.4255  140.1802  156.1314 H   0  0  0  0  0  0  0  0  0  0  0  0  # atno 8009 bound_to 7997
  156.0089  140.3328  155.6924 H   0  0  0  0  0  0  0  0  0  0  0  0  # atno 8010 bound_to 7997
  139.4827  144.4828  151.8420 H   0  0  0  0  0  0  0  0  0  0  0  0  # atno 10167 bound_to 10162
  156.1324  130.6405  150.9642 H   0  0  0  0  0  0  0  0  0  0  0  0  # atno 10718 bound_to 10713
  154.8007  135.3241  154.7557 H   0  0  0  0  0  0  0  0  0  0  0  0  # atno 10763 bound_to 10752
  153.8226  135.6886  153.4829 H   0  0  0  0  0  0  0  0  0  0  0  0  # atno 10764 bound_to 10752
  153.1722  135.4619  154.9861 H   0  0  0  0  0  0  0  0  0  0  0  0  # atno 10765 bound_to 10752
  140.9904  134.0547  157.3661 H   0  0  0  0  0  0  0  0  0  0  0  0  # atno 11005 bound_to 11000
  145.1198  140.9455  143.4607 LP  0  0  0  0  0  0  0  0  0  0  0  0  # atno 17320 bound_to 7965
  145.0493  139.3195  143.5937 LP  0  0  0  0  0  0  0  0  0  0  0  0  # atno 17321 bound_to 7965
  140.4305  144.2122  150.5888 LP  0  0  0  0  0  0  0  0  0  0  0  0  # atno 17342 bound_to 10162
  140.4784  143.2388  151.8990 LP  0  0  0  0  0  0  0  0  0  0  0  0  # atno 17343 bound_to 10162
  157.6500  131.0898  150.8070 LP  0  0  0  0  0  0  0  0  0  0  0  0  # atno 17370 bound_to 10713
  156.8154  130.4966  149.5350 LP  0  0  0  0  0  0  0  0  0  0  0  0  # atno 17371 bound_to 10713
  139.8990  135.0157  156.7173 LP  0  0  0  0  0  0  0  0  0  0  0  0  # atno 17394 bound_to 11000
  140.7049  133.9274  155.8047 LP  0  0  0  0  0  0  0  0  0  0  0  0  # atno 17395 bound_to 11000

$$$$
