AV-unprocessed.smi:17|AV-procd|sdf|101|dock3
  -GOLD-   2262015253D 1   1.00000     0.00000
 Structure written by MMmdl.
 57 59  0  0  0  0  0  0  0  0  1 V2000
  150.8676  132.3765  156.4117 C   0  0  0  0  0  0  0  0  0  0  0  0
  149.3743  132.7328  156.4340 C   0  0  0  0  0  0  0  0  0  0  0  0
  149.1074  133.9743  157.1665 N   0  0  0  0  0  0  0  0  0  0  0  0
  149.8018  135.0944  156.8256 C   0  0  0  0  0  0  0  0  0  0  0  0
  150.2064  135.2277  155.5346 N   0  0  0  0  0  0  0  0  0  0  0  0
  150.8796  136.3112  155.1401 C   0  0  0  0  0  0  0  0  0  0  0  0
  151.2584  137.3650  155.8629 N   0  0  0  0  0  0  0  0  0  0  0  0
  150.8767  137.2339  157.1647 C   0  0  0  0  0  0  0  0  0  0  0  0
  150.1530  136.1431  157.7283 C   0  0  0  0  0  0  0  0  0  0  0  0
  149.9705  136.3625  159.0903 N   0  0  0  0  0  0  0  0  0  0  0  0
  150.5352  137.5171  159.3127 C   0  0  0  0  0  0  0  0  0  0  0  0
  151.1094  138.1078  158.2116 N   0  0  0  0  0  0  0  0  0  0  0  0
  151.8091  139.3796  158.1796 C   0  0  0  0  0  0  0  0  0  0  0  0
  150.8826  140.5648  158.5611 C   0  0  2  0  0  0  0  0  0  0  0  0
  149.7476  140.6914  157.5177 C   0  0  0  0  0  0  0  0  0  0  0  0
  148.8934  139.5668  157.5247 O   0  0  0  0  0  0  0  0  0  0  0  0
  151.6952  141.8766  158.7355 C   0  0  1  0  0  0  0  0  0  0  0  0
  150.8733  143.1433  158.9011 C   0  0  0  0  0  0  0  0  0  0  0  0
  151.8831  144.1088  159.5078 C   0  0  0  0  0  0  0  0  0  0  0  0
  152.7189  143.3088  160.3337 O   0  0  0  0  0  0  0  0  0  0  0  0
  152.5412  141.9317  160.0153 C   0  0  0  0  0  0  0  0  0  0  0  0
  148.1676  134.0055  158.2928 C   0  0  2  0  0  0  0  0  0  0  0  0
  147.5000  132.6358  158.4994 C   0  0  0  0  0  0  0  0  0  0  0  0
  147.1230  135.1355  158.1666 C   0  0  0  0  0  0  0  0  0  0  0  0
  146.3719  135.6193  159.7889 S   0  0  0  0  0  0  0  0  0  0  0  0
  147.0125  134.3271  160.9321 C   0  0  0  0  0  0  0  0  0  0  0  0
  146.9638  136.9021  160.1972 O   0  0  0  0  0  0  0  0  0  0  0  0
  144.9094  135.4810  159.7106 O   0  0  0  0  0  0  0  0  0  0  0  0
  151.0308  131.4347  155.8880 H   0  0  0  0  0  0  0  0  0  0  0  0
  151.2646  132.2677  157.4211 H   0  0  0  0  0  0  0  0  0  0  0  0
  151.4526  133.1429  155.9026 H   0  0  0  0  0  0  0  0  0  0  0  0
  148.9921  132.8023  155.4155 H   0  0  0  0  0  0  0  0  0  0  0  0
  148.8279  131.9118  156.8961 H   0  0  0  0  0  0  0  0  0  0  0  0
  151.1542  136.3374  154.0959 H   0  0  0  0  0  0  0  0  0  0  0  0
  150.5580  137.9686  160.2940 H   0  0  0  0  0  0  0  0  0  0  0  0
  152.6766  139.3176  158.8365 H   0  0  0  0  0  0  0  0  0  0  0  0
  152.2250  139.5024  157.1788 H   0  0  0  0  0  0  0  0  0  0  0  0
  150.4140  140.3378  159.5208 H   0  0  0  0  0  0  0  0  0  0  0  0
  149.1654  141.5986  157.6824 H   0  0  0  0  0  0  0  0  0  0  0  0
  150.1628  140.7575  156.5114 H   0  0  0  0  0  0  0  0  0  0  0  0
  148.5192  139.4779  158.3882 H   0  0  0  0  0  0  0  0  0  0  0  0
  152.3561  142.0093  157.8773 H   0  0  0  0  0  0  0  0  0  0  0  0
  150.4604  143.5154  157.9632 H   0  0  0  0  0  0  0  0  0  0  0  0
  150.0503  142.9774  159.5981 H   0  0  0  0  0  0  0  0  0  0  0  0
  152.4942  144.5603  158.7254 H   0  0  0  0  0  0  0  0  0  0  0  0
  151.4089  144.9106  160.0745 H   0  0  0  0  0  0  0  0  0  0  0  0
  152.0203  141.4557  160.8471 H   0  0  0  0  0  0  0  0  0  0  0  0
  153.5067  141.4398  159.8988 H   0  0  0  0  0  0  0  0  0  0  0  0
  148.7114  134.2213  159.2098 H   0  0  0  0  0  0  0  0  0  0  0  0
  146.8742  132.6364  159.3921 H   0  0  0  0  0  0  0  0  0  0  0  0
  148.2458  131.8503  158.6240 H   0  0  0  0  0  0  0  0  0  0  0  0
  146.8676  132.3639  157.6543 H   0  0  0  0  0  0  0  0  0  0  0  0
  147.5170  136.0258  157.6780 H   0  0  0  0  0  0  0  0  0  0  0  0
  146.2985  134.7828  157.5466 H   0  0  0  0  0  0  0  0  0  0  0  0
  146.7069  134.5665  161.9504 H   0  0  0  0  0  0  0  0  0  0  0  0
  148.1003  134.2984  160.8809 H   0  0  0  0  0  0  0  0  0  0  0  0
  146.6088  133.3541  160.6622 H   0  0  0  0  0  0  0  0  0  0  0  0
  1  2  1  0  0  0  0
  1 29  1  0  0  0  0
  1 30  1  0  0  0  0
  1 31  1  0  0  0  0
  2  3  1  0  0  0  0
  2 32  1  0  0  0  0
  2 33  1  0  0  0  0
  3  4  1  0  0  0  0
  3 22  1  0  0  0  0
  4  9  1  0  0  0  0
  4  5  2  0  0  0  0
  5  6  1  0  0  0  0
  6  7  2  0  0  0  0
  6 34  1  0  0  0  0
  7  8  1  0  0  0  0
  8 12  1  0  0  0  0
  8  9  2  0  0  0  0
  9 10  1  0  0  0  0
 10 11  2  0  0  0  0
 11 12  1  0  0  0  0
 11 35  1  0  0  0  0
 12 13  1  0  0  0  0
 13 14  1  0  0  0  0
 13 36  1  0  0  0  0
 13 37  1  0  0  0  0
 14 15  1  0  0  0  0
 14 17  1  0  0  0  0
 14 38  1  0  0  0  0
 15 16  1  0  0  0  0
 15 39  1  0  0  0  0
 15 40  1  0  0  0  0
 16 41  1  0  0  0  0
 17 21  1  0  0  0  0
 17 18  1  0  0  0  0
 17 42  1  0  0  0  0
 18 19  1  0  0  0  0
 18 43  1  0  0  0  0
 18 44  1  0  0  0  0
 19 20  1  0  0  0  0
 19 45  1  0  0  0  0
 19 46  1  0  0  0  0
 20 21  1  0  0  0  0
 21 47  1  0  0  0  0
 21 48  1  0  0  0  0
 22 23  1  0  0  0  0
 22 24  1  0  0  0  0
 22 49  1  0  0  0  0
 23 50  1  0  0  0  0
 23 51  1  0  0  0  0
 23 52  1  0  0  0  0
 24 25  1  0  0  0  0
 24 53  1  0  0  0  0
 24 54  1  0  0  0  0
 25 26  1  0  0  0  0
 25 27  2  0  0  0  0
 25 28  2  0  0  0  0
 26 55  1  0  0  0  0
 26 56  1  0  0  0  0
 26 57  1  0  0  0  0
M  END
> <s_m_source_file>
AV-unprocessed.smi

> <i_m_source_file_index>
17

> <i_lp_mmshare_version>
43012

> <i_f3d_flags>
0

> <s_epik_input>
W0NIM11TKD1PKSg9TylbQ0gyXVtDQEBIXShbQ0gzXSlOKFtDSDJdW0NIM10pYyhuW2NIXW4xKWMoYzEyKW5bY0hdbjJbQ0gyXVtDQEhdKFtDSDJdW09IXSlbQ0BASF0zW0NIMl1bQ0gyXU9bQ0gyXTM=

> <s_epik_cmdline>
J2VwaWtfcHl0aG9uJywgJy1waCcsICc3LjAnLCAnLXRuJywgJzgnLCAnLW1hJywgJzIwMCcsICctbWV0YWxfYmluZGluZycsICctaW1hZScsICc8aW5maWxlLm1hZT4nLCAnLW9tYWUnLCAnPG91dGZpbGUubWFlPic=

> <r_lp_tautomer_probability>
1

> <r_epik_Ionization_Penalty>
0.00119955

> <r_epik_Ionization_Penalty_Charging>
0

> <r_epik_Ionization_Penalty_Neutral>
0.00119955

> <r_epik_State_Penalty>
0.000665399

> <r_epik_Charging_Adjusted_Penalty>
0.000665399

> <i_epik_Tot_Q>
0

> <i_epik_Tot_abs_Q>
0

> <r_epik_Metal_State_Penalty>
-0

> <b_epik_Metal_Only>
0

> <s_lp_Force_Field>
OPLS_2005

> <r_lp_Energy>
37.2201

> <b_lp_Chiralities_Consistent>
1

> <s_lp_Variant>
AV-unprocessed.smi:17-3

> <Gold.Version>
5.8.1

> <Gold.Id.Protein>
6NUR|6NUR_protein|mol2

> <Gold.PLP.Fitness>
45.1097

> <Gold.PLP.PLP>
-34.8400

> <Gold.PLP.part.hbond>
-3.4234

> <Gold.PLP.part.metal>
0.0000

> <Gold.PLP.part.buried>
-6.1311

> <Gold.PLP.part.nonpolar>
-25.4850

> <Gold.PLP.part.repulsive>
0.1020

> <Gold.PLP.ligand.clash>
0.0000

> <Gold.PLP.ligand.torsion>
0.9891

> <Gold.PLP.Chemscore.Hbond>
2.8400

> <Gold.PLP.Chemscore.CHOScore>
1.0000

> <Gold.PLP.Chemscore.Metal>
0.0000

> <Gold.Chemscore.Hbonds>
donor molecule, donor type, donor heavy atom, donor atom, acceptor molecule, acceptor atom, score
      P1  H  6896  6908       L1    10  1.00
      P1  H  6934  6947       L1    27  0.46
      L1  C     6    34       P1  7949  0.77

> <Gold.PLP.Chemscore.Internal.Correction>
0.7279

> <Gold.Rescore>
     Score         DG    S(hbond)    S(metal)    S(lipo)     H(rot)  DE(clash)    DE(int)     intcor
     11.79     -13.70       2.52        0.00      75.09       3.51       0.02       1.89       ----

> <Gold.Chemscore.Fitness>
11.7926

> <Gold.Chemscore.DG>
-13.7036

> <Gold.Chemscore.ZeroCoef>
-5.4800

> <Gold.Chemscore.Hbond>
2.5188

> <Gold.Chemscore.Metal>
0.0000

> <Gold.Chemscore.Lipo>
75.0917

> <Gold.Chemscore.Internal_Hbond>
0.0000

> <Gold.Chemscore.DEClash>
0.0202

> <Gold.Chemscore.DEInternal>
1.8907

> <Gold.Chemscore.Rot>
3.5059

> <Gold.Chemscore.Internal.Correction>
   9.000000E+99

> <Gold.Chemscore.Hbonds>
donor molecule, donor type, donor heavy atom, donor atom, acceptor molecule, acceptor atom, score
      P1  H  6896  6908       L1    10  0.20
      P1  H  6934  6947       L1    27  0.46

> <Gold.Chemscore.Hbond.Weighted>
-8.4128

> <Gold.Chemscore.Metal.Weighted>
-0.0000

> <Gold.Chemscore.Lipo.Weighted>
-8.7857

> <Gold.Chemscore.Internal_Hbond.Weighted>
0.0000

> <Gold.Chemscore.DEClash.Weighted>
0.0202

> <Gold.Chemscore.DEInternal.Weighted>
1.8907

> <Gold.Chemscore.Rot.Weighted>
8.9750

> <Gold.Chemscore.Internal.Correction.Weighted>
   9.000000E+99

> <Gold.Protein.RotatedTorsions>
[ 6907 6896 6895 6894 ] final -157.47 input  -60.11 | X-H torsion
[ 7974 7965 7964 7962 ] final   77.03 input  175.53 | X-H torsion
[ 8008 7997 7996 7995 ] final   13.31 input   59.86 | X-H torsion
[ 10167 10162 10161 10158 ] final  -65.38 input  -65.29 | X-H torsion
[ 10718 10713 10712 10709 ] final  -72.04 input   66.30 | X-H torsion
[ 10763 10752 10751 10750 ] final  141.71 input  -60.55 | X-H torsion
[ 11005 11000 10999 10996 ] final   -8.75 input  -57.11 | X-H torsion

> <Gold.Protein.ActiveResidues>
 VAL166  LYS551  ARG553  GLY616  TRP617  ASP618  TYR619  PRO620  LYS621  CYS622 
 ASP623  PHE694  ASN695  SER759  ASP760  ASP761  ALA762  ILE779  LEU786  VAL792 
 PHE793  MET794  SER795  GLU796  ALA797  LYS798  CYS799  TRP800  GLU811  SER814 

> <Gold.Protein.RotatedAtoms>
  151.3034  133.4112  159.2641 H   0  0  0  0  0  0  0  0  0  0  0  0  # atno 6907 bound_to 6896
  151.0176  134.9445  159.8052 H   0  0  0  0  0  0  0  0  0  0  0  0  # atno 6908 bound_to 6896
  152.5316  134.2997  159.9126 H   0  0  0  0  0  0  0  0  0  0  0  0  # atno 6909 bound_to 6896
  145.6952  139.2565  143.1737 H   0  0  0  0  0  0  0  0  0  0  0  0  # atno 7974 bound_to 7965
  154.8327  140.2902  155.5711 H   0  0  0  0  0  0  0  0  0  0  0  0  # atno 8008 bound_to 7997
  156.3006  140.2529  156.3186 H   0  0  0  0  0  0  0  0  0  0  0  0  # atno 8009 bound_to 7997
  154.9213  140.0386  157.1989 H   0  0  0  0  0  0  0  0  0  0  0  0  # atno 8010 bound_to 7997
  140.5734  143.2319  151.6492 H   0  0  0  0  0  0  0  0  0  0  0  0  # atno 10167 bound_to 10162
  156.0337  130.4364  150.2533 H   0  0  0  0  0  0  0  0  0  0  0  0  # atno 10718 bound_to 10713
  153.9438  135.2977  155.3441 H   0  0  0  0  0  0  0  0  0  0  0  0  # atno 10763 bound_to 10752
  154.7463  135.5001  153.9212 H   0  0  0  0  0  0  0  0  0  0  0  0  # atno 10764 bound_to 10752
  153.1029  135.6739  153.9747 H   0  0  0  0  0  0  0  0  0  0  0  0  # atno 10765 bound_to 10752
  140.7268  133.8782  155.8862 H   0  0  0  0  0  0  0  0  0  0  0  0  # atno 11005 bound_to 11000
  146.0846  140.7725  142.9625 LP  0  0  0  0  0  0  0  0  0  0  0  0  # atno 17320 bound_to 7965
  144.6984  140.3543  143.7176 LP  0  0  0  0  0  0  0  0  0  0  0  0  # atno 17321 bound_to 7965
  139.5129  144.3459  152.0697 LP  0  0  0  0  0  0  0  0  0  0  0  0  # atno 17342 bound_to 10162
  140.2599  144.4078  150.6189 LP  0  0  0  0  0  0  0  0  0  0  0  0  # atno 17343 bound_to 10162
  157.0634  131.0096  151.3215 LP  0  0  0  0  0  0  0  0  0  0  0  0  # atno 17370 bound_to 10713
  157.5053  130.7905  149.7648 LP  0  0  0  0  0  0  0  0  0  0  0  0  # atno 17371 bound_to 10713
  140.9956  134.1220  157.4367 LP  0  0  0  0  0  0  0  0  0  0  0  0  # atno 17394 bound_to 11000
  139.8835  135.0053  156.6307 LP  0  0  0  0  0  0  0  0  0  0  0  0  # atno 17395 bound_to 11000

$$$$
