AV-unprocessed.smi:1288|AV-procd|sdf|5381|dock5
  -GOLD-   22720 4533D 1   1.00000     0.00000
 Structure written by MMmdl.
 42 44  0  0  0  0  0  0  0  0  1 V2000
  151.8177  138.1747  154.8181 C   0  0  0  0  0  0  0  0  0  0  0  0
  151.7461  139.3737  155.7095 C   0  0  0  0  0  0  0  0  0  0  0  0
  151.2641  140.5438  155.2903 N   0  0  0  0  0  0  0  0  0  0  0  0
  151.3939  141.3433  156.4095 C   0  0  0  0  0  0  0  0  0  0  0  0
  151.0589  142.7013  156.6117 C   0  0  0  0  0  0  0  0  0  0  0  0
  151.2859  143.3141  157.8613 C   0  0  0  0  0  0  0  0  0  0  0  0
  151.8507  142.5800  158.9244 C   0  0  0  0  0  0  0  0  0  0  0  0
  152.1913  141.2255  158.7446 C   0  0  0  0  0  0  0  0  0  0  0  0
  151.9623  140.6181  157.4953 C   0  0  0  0  0  0  0  0  0  0  0  0
  152.1733  139.3362  156.9957 N   0  0  0  0  0  0  0  0  0  0  0  0
  152.7407  138.2050  157.7180 C   0  0  0  0  0  0  0  0  0  0  0  0
  151.8517  137.7341  158.8871 C   0  0  2  0  0  0  0  0  0  0  0  0
  152.4638  136.6236  159.5138 O   0  0  0  0  0  0  0  0  0  0  0  0
  150.4529  137.3140  158.4089 C   0  0  0  0  0  0  0  0  0  0  0  0
  149.5782  137.2509  159.5239 O   0  0  0  0  0  0  0  0  0  0  0  0
  148.4564  136.4150  159.2953 C   0  0  0  0  0  0  0  0  0  0  0  0
  147.8626  135.9180  160.5988 C   0  0  0  0  0  0  0  0  0  0  0  0
  147.7212  136.7995  161.6915 C   0  0  0  0  0  0  0  0  0  0  0  0
  147.1710  136.3416  162.9046 C   0  0  0  0  0  0  0  0  0  0  0  0
  146.7586  135.0009  163.0295 C   0  0  0  0  0  0  0  0  0  0  0  0
  146.8954  134.1189  161.9402 C   0  0  0  0  0  0  0  0  0  0  0  0
  147.4454  134.5752  160.7260 C   0  0  0  0  0  0  0  0  0  0  0  0
  147.5705  133.7186  159.6839 F   0  0  0  0  0  0  0  0  0  0  0  0
  151.4079  138.4050  153.8341 H   0  0  0  0  0  0  0  0  0  0  0  0
  151.2451  137.3498  155.2415 H   0  0  0  0  0  0  0  0  0  0  0  0
  152.8534  137.8592  154.6916 H   0  0  0  0  0  0  0  0  0  0  0  0
  150.6259  143.2723  155.8037 H   0  0  0  0  0  0  0  0  0  0  0  0
  151.0253  144.3524  158.0051 H   0  0  0  0  0  0  0  0  0  0  0  0
  152.0217  143.0571  159.8784 H   0  0  0  0  0  0  0  0  0  0  0  0
  152.6209  140.6603  159.5582 H   0  0  0  0  0  0  0  0  0  0  0  0
  152.9050  137.3890  157.0138 H   0  0  0  0  0  0  0  0  0  0  0  0
  153.7285  138.4872  158.0846 H   0  0  0  0  0  0  0  0  0  0  0  0
  151.7586  138.5407  159.6150 H   0  0  0  0  0  0  0  0  0  0  0  0
  153.0063  136.1827  158.8777 H   0  0  0  0  0  0  0  0  0  0  0  0
  150.0635  138.0607  157.7148 H   0  0  0  0  0  0  0  0  0  0  0  0
  150.4880  136.3634  157.8733 H   0  0  0  0  0  0  0  0  0  0  0  0
  147.6903  136.9583  158.7397 H   0  0  0  0  0  0  0  0  0  0  0  0
  148.7483  135.5616  158.6809 H   0  0  0  0  0  0  0  0  0  0  0  0
  148.0332  137.8299  161.6026 H   0  0  0  0  0  0  0  0  0  0  0  0
  147.0652  137.0194  163.7388 H   0  0  0  0  0  0  0  0  0  0  0  0
  146.3364  134.6499  163.9596 H   0  0  0  0  0  0  0  0  0  0  0  0
  146.5778  133.0912  162.0352 H   0  0  0  0  0  0  0  0  0  0  0  0
  1  2  1  0  0  0  0
  1 24  1  0  0  0  0
  1 25  1  0  0  0  0
  1 26  1  0  0  0  0
  2 10  1  0  0  0  0
  2  3  2  0  0  0  0
  3  4  1  0  0  0  0
  4  9  2  0  0  0  0
  4  5  1  0  0  0  0
  5  6  2  0  0  0  0
  5 27  1  0  0  0  0
  6  7  1  0  0  0  0
  6 28  1  0  0  0  0
  7  8  2  0  0  0  0
  7 29  1  0  0  0  0
  8  9  1  0  0  0  0
  8 30  1  0  0  0  0
  9 10  1  0  0  0  0
 10 11  1  0  0  0  0
 11 12  1  0  0  0  0
 11 31  1  0  0  0  0
 11 32  1  0  0  0  0
 12 13  1  0  0  0  0
 12 14  1  0  0  0  0
 12 33  1  0  0  0  0
 13 34  1  0  0  0  0
 14 15  1  0  0  0  0
 14 35  1  0  0  0  0
 14 36  1  0  0  0  0
 15 16  1  0  0  0  0
 16 17  1  0  0  0  0
 16 37  1  0  0  0  0
 16 38  1  0  0  0  0
 17 22  1  0  0  0  0
 17 18  2  0  0  0  0
 18 19  1  0  0  0  0
 18 39  1  0  0  0  0
 19 20  2  0  0  0  0
 19 40  1  0  0  0  0
 20 21  1  0  0  0  0
 20 41  1  0  0  0  0
 21 22  2  0  0  0  0
 21 42  1  0  0  0  0
 22 23  1  0  0  0  0
M  END
> <s_m_source_file>
AV-unprocessed.smi

> <i_m_source_file_index>
1288

> <i_lp_mmshare_version>
43012

> <i_f3d_flags>
0

> <s_epik_input>
W2NIXTFbY0hdW2NIXVtjSF1jKGMxMiluKGMobjIpW0NIM10pW0NIMl1bQ0BIXShbT0hdKVtDSDJdT1tDSDJdYzNbY0hdW2NIXVtjSF1bY0hdYzNG

> <s_epik_cmdline>
J2VwaWtfcHl0aG9uJywgJy1waCcsICc3LjAnLCAnLXRuJywgJzgnLCAnLW1hJywgJzIwMCcsICctbWV0YWxfYmluZGluZycsICctaW1hZScsICc8aW5maWxlLm1hZT4nLCAnLW9tYWUnLCAnPG91dGZpbGUubWFlPic=

> <r_epik_Ionization_Penalty>
0.132603

> <r_epik_Ionization_Penalty_Charging>
0

> <r_epik_Ionization_Penalty_Neutral>
0.132603

> <r_epik_State_Penalty>
0.121982

> <r_epik_Charging_Adjusted_Penalty>
0.121982

> <i_epik_Tot_Q>
0

> <i_epik_Tot_abs_Q>
0

> <r_epik_Metal_State_Penalty>
0.000135431

> <b_epik_Metal_Only>
0

> <s_lp_Force_Field>
OPLS_2005

> <r_lp_Energy>
16.1737

> <b_lp_Chiralities_Consistent>
1

> <s_lp_Variant>
AV-unprocessed.smi:1288-1

> <Gold.Version>
5.8.1

> <Gold.Id.Protein>
6NUR|6NUR_protein|mol2

> <Gold.PLP.Fitness>
51.3739

> <Gold.PLP.PLP>
-46.5514

> <Gold.PLP.part.hbond>
-2.0000

> <Gold.PLP.part.metal>
0.0000

> <Gold.PLP.part.buried>
-3.8187

> <Gold.PLP.part.nonpolar>
-40.4484

> <Gold.PLP.part.repulsive>
0.0352

> <Gold.PLP.ligand.clash>
0.0000

> <Gold.PLP.ligand.torsion>
0.6266

> <Gold.PLP.Chemscore.Hbond>
1.9760

> <Gold.PLP.Chemscore.CHOScore>
0.0000

> <Gold.PLP.Chemscore.Metal>
0.0000

> <Gold.Chemscore.Hbonds>
donor molecule, donor type, donor heavy atom, donor atom, acceptor molecule, acceptor atom, score
      P1  H  6896  6907       L1    13  0.50
      P1  H  7989  7998       L1     3  0.90

> <Gold.PLP.Chemscore.Internal.Correction>
0.1477

> <Gold.Rescore>
     Score         DG    S(hbond)    S(metal)    S(lipo)     H(rot)  DE(clash)    DE(int)     intcor
     18.51     -19.52       1.71        0.00     121.32       2.29       0.06       0.95       ----

> <Gold.Chemscore.Fitness>
18.5125

> <Gold.Chemscore.DG>
-19.5237

> <Gold.Chemscore.ZeroCoef>
-5.4800

> <Gold.Chemscore.Hbond>
1.7074

> <Gold.Chemscore.Metal>
0.0000

> <Gold.Chemscore.Lipo>
121.3160

> <Gold.Chemscore.Internal_Hbond>
0.0000

> <Gold.Chemscore.DEClash>
0.0638

> <Gold.Chemscore.DEInternal>
0.9474

> <Gold.Chemscore.Rot>
2.2863

> <Gold.Chemscore.Internal.Correction>
   9.000000E+99

> <Gold.Chemscore.Hbonds>
donor molecule, donor type, donor heavy atom, donor atom, acceptor molecule, acceptor atom, score
      P1  H  6896  6907       L1    13  0.02
      P1  H  7989  7998       L1     3  0.75

> <Gold.Chemscore.Hbond.Weighted>
-5.7028

> <Gold.Chemscore.Metal.Weighted>
-0.0000

> <Gold.Chemscore.Lipo.Weighted>
-14.1940

> <Gold.Chemscore.Internal_Hbond.Weighted>
0.0000

> <Gold.Chemscore.DEClash.Weighted>
0.0638

> <Gold.Chemscore.DEInternal.Weighted>
0.9474

> <Gold.Chemscore.Rot.Weighted>
5.8530

> <Gold.Chemscore.Internal.Correction.Weighted>
   9.000000E+99

> <Gold.Protein.RotatedTorsions>
[ 6907 6896 6895 6894 ] final   15.94 input  -60.11 | X-H torsion
[ 7974 7965 7964 7962 ] final -175.29 input  175.53 | X-H torsion
[ 8008 7997 7996 7995 ] final   16.17 input   59.86 | X-H torsion
[ 10167 10162 10161 10158 ] final   -4.05 input  -65.29 | X-H torsion
[ 10718 10713 10712 10709 ] final -152.93 input   66.30 | X-H torsion
[ 10763 10752 10751 10750 ] final -138.41 input  -60.55 | X-H torsion
[ 11005 11000 10999 10996 ] final   40.18 input  -57.11 | X-H torsion

> <Gold.Protein.ActiveResidues>
 VAL166  LYS551  ARG553  GLY616  TRP617  ASP618  TYR619  PRO620  LYS621  CYS622 
 ASP623  PHE694  ASN695  SER759  ASP760  ASP761  ALA762  ILE779  LEU786  VAL792 
 PHE793  MET794  SER795  GLU796  ALA797  LYS798  CYS799  TRP800  GLU811  SER814 

> <Gold.Protein.RotatedAtoms>
  151.8260  135.0636  160.0430 H   0  0  0  0  0  0  0  0  0  0  0  0  # atno 6907 bound_to 6896
  152.2916  133.5562  159.5569 H   0  0  0  0  0  0  0  0  0  0  0  0  # atno 6908 bound_to 6896
  150.7232  134.0337  159.3784 H   0  0  0  0  0  0  0  0  0  0  0  0  # atno 6909 bound_to 6896
  144.7128  140.1344  143.6396 H   0  0  0  0  0  0  0  0  0  0  0  0  # atno 7974 bound_to 7965
  154.8731  140.2961  155.5469 H   0  0  0  0  0  0  0  0  0  0  0  0  # atno 8008 bound_to 7997
  156.3021  140.2456  156.3656 H   0  0  0  0  0  0  0  0  0  0  0  0  # atno 8009 bound_to 7997
  154.8796  140.0398  157.1763 H   0  0  0  0  0  0  0  0  0  0  0  0  # atno 8010 bound_to 7997
  140.6913  143.6469  150.8385 H   0  0  0  0  0  0  0  0  0  0  0  0  # atno 10167 bound_to 10162
  156.4790  130.8294  151.2522 H   0  0  0  0  0  0  0  0  0  0  0  0  # atno 10718 bound_to 10713
  154.8637  135.3613  154.5380 H   0  0  0  0  0  0  0  0  0  0  0  0  # atno 10763 bound_to 10752
  153.6003  135.7013  153.5392 H   0  0  0  0  0  0  0  0  0  0  0  0  # atno 10764 bound_to 10752
  153.3297  135.4128  155.1446 H   0  0  0  0  0  0  0  0  0  0  0  0  # atno 10765 bound_to 10752
  140.1956  134.3934  155.8123 H   0  0  0  0  0  0  0  0  0  0  0  0  # atno 11005 bound_to 11000
  145.9258  139.2574  143.1354 LP  0  0  0  0  0  0  0  0  0  0  0  0  # atno 17320 bound_to 7965
  145.9573  140.8862  143.0228 LP  0  0  0  0  0  0  0  0  0  0  0  0  # atno 17321 bound_to 7965
  140.0182  143.5571  152.2811 LP  0  0  0  0  0  0  0  0  0  0  0  0  # atno 17342 bound_to 10162
  139.6319  144.7645  151.2518 LP  0  0  0  0  0  0  0  0  0  0  0  0  # atno 17343 bound_to 10162
  157.7485  131.0051  150.3101 LP  0  0  0  0  0  0  0  0  0  0  0  0  # atno 17370 bound_to 10713
  156.3541  130.3836  149.7305 LP  0  0  0  0  0  0  0  0  0  0  0  0  # atno 17371 bound_to 10713
  141.2227  133.7068  156.8169 LP  0  0  0  0  0  0  0  0  0  0  0  0  # atno 17394 bound_to 11000
  140.2111  134.8826  157.3276 LP  0  0  0  0  0  0  0  0  0  0  0  0  # atno 17395 bound_to 11000

$$$$
