AV-unprocessed.smi:2550|AV-procd|sdf|10012|dock1
  -GOLD-   2272014 53D 1   1.00000     0.00000
 Structure written by MMmdl.
 27 28  0  0  0  0  0  0  0  0  1 V2000
  147.8929  141.5677  154.7093 C   0  0  0  0  0  0  0  0  0  0  0  0
  149.0917  140.6050  154.7071 C   0  0  0  0  0  0  0  0  0  0  0  0
  148.6507  139.1323  154.7151 C   0  0  0  0  0  0  0  0  0  0  0  0
  149.7965  140.8217  153.4986 O   0  0  0  0  0  0  0  0  0  0  0  0
  150.0531  140.9067  155.8320 C   0  0  0  0  0  0  0  0  0  0  0  0
  150.0233  141.8911  156.7831 C   0  0  0  0  0  0  0  0  0  0  0  0
  151.1520  141.6494  157.5362 N   0  0  0  0  0  0  0  0  0  0  0  0
  151.6559  142.4248  158.6306 C   0  0  0  0  0  0  0  0  0  0  0  0
  152.2095  143.8359  158.4149 C   0  0  0  0  0  0  0  0  0  0  0  0
  153.1783  143.5283  159.4534 N   0  0  0  0  0  0  0  0  0  0  0  0
  153.0179  142.0993  159.2456 C   0  0  0  0  0  0  0  0  0  0  0  0
  151.8632  140.6076  157.0467 N   0  0  0  0  0  0  0  0  0  0  0  0
  151.2023  140.1386  156.0355 N   0  0  0  0  0  0  0  0  0  0  0  0
  147.3041  141.4622  155.6210 H   0  0  0  0  0  0  0  0  0  0  0  0
  147.2278  141.3772  153.8662 H   0  0  0  0  0  0  0  0  0  0  0  0
  148.2183  142.6068  154.6461 H   0  0  0  0  0  0  0  0  0  0  0  0
  148.1044  138.8891  155.6271 H   0  0  0  0  0  0  0  0  0  0  0  0
  149.5086  138.4613  154.6563 H   0  0  0  0  0  0  0  0  0  0  0  0
  147.9964  138.9083  153.8718 H   0  0  0  0  0  0  0  0  0  0  0  0
  149.5323  140.1623  152.8756 H   0  0  0  0  0  0  0  0  0  0  0  0
  149.3325  142.6978  156.9791 H   0  0  0  0  0  0  0  0  0  0  0  0
  150.8724  142.4235  159.3915 H   0  0  0  0  0  0  0  0  0  0  0  0
  152.6846  143.9934  157.4454 H   0  0  0  0  0  0  0  0  0  0  0  0
  151.5155  144.6349  158.6771 H   0  0  0  0  0  0  0  0  0  0  0  0
  154.1075  143.8489  159.2203 H   0  0  0  0  0  0  0  0  0  0  0  0
  152.9664  141.5191  160.1673 H   0  0  0  0  0  0  0  0  0  0  0  0
  153.7482  141.7017  158.5391 H   0  0  0  0  0  0  0  0  0  0  0  0
  1  2  1  0  0  0  0
  1 14  1  0  0  0  0
  1 15  1  0  0  0  0
  1 16  1  0  0  0  0
  2  3  1  0  0  0  0
  2  4  1  0  0  0  0
  2  5  1  0  0  0  0
  3 17  1  0  0  0  0
  3 18  1  0  0  0  0
  3 19  1  0  0  0  0
  4 20  1  0  0  0  0
  5 13  1  0  0  0  0
  5  6  2  0  0  0  0
  6  7  1  0  0  0  0
  6 21  1  0  0  0  0
  7  8  1  0  0  0  0
  7 12  1  0  0  0  0
  8 11  1  0  0  0  0
  8  9  1  0  0  0  0
  8 22  1  0  0  0  0
  9 10  1  0  0  0  0
  9 23  1  0  0  0  0
  9 24  1  0  0  0  0
 10 11  1  0  0  0  0
 10 25  1  0  0  0  0
 11 26  1  0  0  0  0
 11 27  1  0  0  0  0
 12 13  2  0  0  0  0
M  END
> <s_m_source_file>
AV-unprocessed.smi

> <i_m_source_file_index>
2550

> <i_lp_mmshare_version>
43012

> <i_f3d_flags>
0

> <s_epik_input>
W0NIM11DKFtDSDNdKShbT0hdKWMxW2NIXW4obm4xKVtDSF0yW0NIMl1bTkhdW0NIMl0y

> <s_epik_cmdline>
J2VwaWtfcHl0aG9uJywgJy1waCcsICc3LjAnLCAnLXRuJywgJzgnLCAnLW1hJywgJzIwMCcsICctbWV0YWxfYmluZGluZycsICctaW1hZScsICc8aW5maWxlLm1hZT4nLCAnLW9tYWUnLCAnPG91dGZpbGUubWFlPic=

> <r_lp_tautomer_probability>
1

> <r_epik_Ionization_Penalty>
0.705036

> <r_epik_Ionization_Penalty_Charging>
0

> <r_epik_Ionization_Penalty_Neutral>
0.705036

> <r_epik_State_Penalty>
0.727806

> <r_epik_Charging_Adjusted_Penalty>
0.727806

> <i_epik_Tot_Q>
0

> <i_epik_Tot_abs_Q>
0

> <r_epik_Metal_State_Penalty>
0.727613

> <b_epik_Metal_Only>
0

> <s_lp_Force_Field>
OPLS_2005

> <r_lp_Energy>
8.86137

> <b_lp_Chiralities_Consistent>
1

> <s_lp_Variant>
AV-unprocessed.smi:2550-2

> <Gold.Version>
5.8.1

> <Gold.Id.Protein>
6NUR|6NUR_protein|mol2

> <Gold.PLP.Fitness>
35.0792

> <Gold.PLP.PLP>
-26.1653

> <Gold.PLP.part.hbond>
-2.4373

> <Gold.PLP.part.metal>
0.0000

> <Gold.PLP.part.buried>
-3.4845

> <Gold.PLP.part.nonpolar>
-20.0535

> <Gold.PLP.part.repulsive>
0.0000

> <Gold.PLP.ligand.clash>
0.0000

> <Gold.PLP.ligand.torsion>
0.2232

> <Gold.PLP.Chemscore.Hbond>
2.0240

> <Gold.PLP.Chemscore.CHOScore>
1.0000

> <Gold.PLP.Chemscore.Metal>
0.0000

> <Gold.Chemscore.Hbonds>
donor molecule, donor type, donor heavy atom, donor atom, acceptor molecule, acceptor atom, score
      L1  H     4    20       P1  7957  0.67
      P1  H  7989  7998       L1     4  0.34
      P1  H  8011  8017       L1     4  1.00
      L1  C     6    21       P1  8028  1.00

> <Gold.PLP.Chemscore.Internal.Correction>
0.2883

> <Gold.Rescore>
     Score         DG    S(hbond)    S(metal)    S(lipo)     H(rot)  DE(clash)    DE(int)     intcor
     13.31     -13.78       1.50        0.00      65.91       1.73       0.28       0.19       ----

> <Gold.Chemscore.Fitness>
13.3091

> <Gold.Chemscore.DG>
-13.7785

> <Gold.Chemscore.ZeroCoef>
-5.4800

> <Gold.Chemscore.Hbond>
1.5013

> <Gold.Chemscore.Metal>
0.0000

> <Gold.Chemscore.Lipo>
65.9099

> <Gold.Chemscore.Internal_Hbond>
0.0000

> <Gold.Chemscore.DEClash>
0.2822

> <Gold.Chemscore.DEInternal>
0.1871

> <Gold.Chemscore.Rot>
1.7295

> <Gold.Chemscore.Internal.Correction>
   9.000000E+99

> <Gold.Chemscore.Hbonds>
donor molecule, donor type, donor heavy atom, donor atom, acceptor molecule, acceptor atom, score
      L1  H     4    20       P1  7957  0.68
      P1  H  7989  7998       L1     4  0.20
      P1  H  8011  8017       L1     4  0.25

> <Gold.Chemscore.Hbond.Weighted>
-5.0145

> <Gold.Chemscore.Metal.Weighted>
-0.0000

> <Gold.Chemscore.Lipo.Weighted>
-7.7115

> <Gold.Chemscore.Internal_Hbond.Weighted>
0.0000

> <Gold.Chemscore.DEClash.Weighted>
0.2822

> <Gold.Chemscore.DEInternal.Weighted>
0.1871

> <Gold.Chemscore.Rot.Weighted>
4.4275

> <Gold.Chemscore.Internal.Correction.Weighted>
   9.000000E+99

> <Gold.Protein.RotatedTorsions>
[ 6907 6896 6895 6894 ] final   49.72 input  -60.11 | X-H torsion
[ 7974 7965 7964 7962 ] final   30.81 input  175.53 | X-H torsion
[ 8008 7997 7996 7995 ] final -100.26 input   59.86 | X-H torsion
[ 10167 10162 10161 10158 ] final -119.61 input  -65.29 | X-H torsion
[ 10718 10713 10712 10709 ] final    3.17 input   66.30 | X-H torsion
[ 10763 10752 10751 10750 ] final  -56.24 input  -60.55 | X-H torsion
[ 11005 11000 10999 10996 ] final -112.64 input  -57.11 | X-H torsion

> <Gold.Protein.ActiveResidues>
 VAL166  LYS551  ARG553  GLY616  TRP617  ASP618  TYR619  PRO620  LYS621  CYS622 
 ASP623  PHE694  ASN695  SER759  ASP760  ASP761  ALA762  ILE779  LEU786  VAL792 
 PHE793  MET794  SER795  GLU796  ALA797  LYS798  CYS799  TRP800  GLU811  SER814 

> <Gold.Protein.RotatedAtoms>
  152.2939  134.7690  160.0371 H   0  0  0  0  0  0  0  0  0  0  0  0  # atno 6907 bound_to 6896
  151.8226  133.3391  159.3597 H   0  0  0  0  0  0  0  0  0  0  0  0  # atno 6908 bound_to 6896
  150.7242  134.5488  159.5828 H   0  0  0  0  0  0  0  0  0  0  0  0  # atno 6909 bound_to 6896
  146.1589  139.6740  142.9047 H   0  0  0  0  0  0  0  0  0  0  0  0  # atno 7974 bound_to 7965
  154.8262  140.0442  157.1445 H   0  0  0  0  0  0  0  0  0  0  0  0  # atno 8008 bound_to 7997
  154.9203  140.3026  155.5199 H   0  0  0  0  0  0  0  0  0  0  0  0  # atno 8009 bound_to 7997
  156.2984  140.2342  156.4253 H   0  0  0  0  0  0  0  0  0  0  0  0  # atno 8010 bound_to 7997
  140.0448  143.5118  152.2112 H   0  0  0  0  0  0  0  0  0  0  0  0  # atno 10167 bound_to 10162
  156.8739  130.5630  149.5656 H   0  0  0  0  0  0  0  0  0  0  0  0  # atno 10718 bound_to 10713
  154.2035  135.6407  153.5094 H   0  0  0  0  0  0  0  0  0  0  0  0  # atno 10763 bound_to 10752
  153.0006  135.5457  154.6290 H   0  0  0  0  0  0  0  0  0  0  0  0  # atno 10764 bound_to 10752
  154.5709  135.2917  155.0801 H   0  0  0  0  0  0  0  0  0  0  0  0  # atno 10765 bound_to 10752
  141.0662  133.9454  157.2573 H   0  0  0  0  0  0  0  0  0  0  0  0  # atno 11005 bound_to 11000
  145.4638  141.0434  143.2737 LP  0  0  0  0  0  0  0  0  0  0  0  0  # atno 17320 bound_to 7965
  144.8000  139.6159  143.7076 LP  0  0  0  0  0  0  0  0  0  0  0  0  # atno 17321 bound_to 7965
  139.5991  144.7576  151.3215 LP  0  0  0  0  0  0  0  0  0  0  0  0  # atno 17342 bound_to 10162
  140.7244  143.7046  150.7818 LP  0  0  0  0  0  0  0  0  0  0  0  0  # atno 17343 bound_to 10162
  156.0712  130.5744  150.9387 LP  0  0  0  0  0  0  0  0  0  0  0  0  # atno 17370 bound_to 10713
  157.6180  131.0932  150.8675 LP  0  0  0  0  0  0  0  0  0  0  0  0  # atno 17371 bound_to 10713
  139.9479  135.0181  156.8907 LP  0  0  0  0  0  0  0  0  0  0  0  0  # atno 17394 bound_to 11000
  140.5767  134.0391  155.7449 LP  0  0  0  0  0  0  0  0  0  0  0  0  # atno 17395 bound_to 11000

$$$$
