AV-unprocessed.smi:2991|AV-procd|sdf|11397|dock1
  -GOLD-   2272016323D 1   1.00000     0.00000
 Structure written by MMmdl.
 37 38  0  0  0  0  0  0  0  0  1 V2000
  150.3142  130.5591  154.1695 C   0  0  0  0  0  0  0  0  0  0  0  0
  150.6495  131.9216  154.7470 C   0  0  0  0  0  0  0  0  0  0  0  0
  151.5533  131.9251  155.7510 N   0  0  0  0  0  0  0  0  0  0  0  0
  151.8812  133.1099  156.3058 C   0  0  0  0  0  0  0  0  0  0  0  0
  151.3352  134.3385  155.8880 C   0  0  0  0  0  0  0  0  0  0  0  0
  150.4001  134.3406  154.8254 C   0  0  0  0  0  0  0  0  0  0  0  0
  149.7709  135.5208  154.3409 N   0  0  0  0  0  0  0  0  0  0  0  0
  149.5469  136.6785  154.9854 C   0  0  0  0  0  0  0  0  0  0  0  0
  149.8713  136.9224  156.1476 O   0  0  0  0  0  0  0  0  0  0  0  0
  148.9307  137.5620  154.1871 N   0  0  0  0  0  0  0  0  0  0  0  0
  148.5776  138.9365  154.5422 C   0  0  2  0  0  0  0  0  0  0  0  0
  147.3909  139.4384  153.6785 C   0  0  0  0  0  0  0  0  0  0  0  0
  147.2943  140.9652  153.4773 C   0  0  0  0  0  0  0  0  0  0  0  0
  147.2866  141.8075  154.7693 C   0  0  0  0  0  0  0  0  0  0  0  0
  148.4599  141.5826  155.7523 C   0  0  0  0  0  0  0  0  0  0  0  0
  149.6789  141.0715  155.1268 N   0  0  0  0  0  0  0  0  0  0  0  0
  149.8142  139.8562  154.5684 C   0  0  0  0  0  0  0  0  0  0  0  0
  150.8809  139.4920  154.0750 O   0  0  0  0  0  0  0  0  0  0  0  0
  150.0404  133.0985  154.2514 C   0  0  0  0  0  0  0  0  0  0  0  0
  148.8839  133.0192  152.9642 Cl  0  0  0  0  0  0  0  0  0  0  0  0
  149.2500  130.3514  154.2838 H   0  0  0  0  0  0  0  0  0  0  0  0
  150.8678  129.7632  154.6695 H   0  0  0  0  0  0  0  0  0  0  0  0
  150.5605  130.5260  153.1081 H   0  0  0  0  0  0  0  0  0  0  0  0
  152.5966  133.0773  157.1141 H   0  0  0  0  0  0  0  0  0  0  0  0
  151.6313  135.2438  156.3949 H   0  0  0  0  0  0  0  0  0  0  0  0
  149.5274  135.5056  153.3611 H   0  0  0  0  0  0  0  0  0  0  0  0
  148.7100  137.2758  153.2441 H   0  0  0  0  0  0  0  0  0  0  0  0
  148.2338  138.8980  155.5767 H   0  0  0  0  0  0  0  0  0  0  0  0
  147.4467  138.9829  152.6888 H   0  0  0  0  0  0  0  0  0  0  0  0
  146.4597  139.0753  154.1151 H   0  0  0  0  0  0  0  0  0  0  0  0
  148.1113  141.2976  152.8353 H   0  0  0  0  0  0  0  0  0  0  0  0
  146.3874  141.1850  152.9132 H   0  0  0  0  0  0  0  0  0  0  0  0
  147.2829  142.8576  154.4751 H   0  0  0  0  0  0  0  0  0  0  0  0
  146.3473  141.6519  155.3011 H   0  0  0  0  0  0  0  0  0  0  0  0
  148.6983  142.5207  156.2540 H   0  0  0  0  0  0  0  0  0  0  0  0
  148.1557  140.9023  156.5484 H   0  0  0  0  0  0  0  0  0  0  0  0
  150.4850  141.6798  155.1322 H   0  0  0  0  0  0  0  0  0  0  0  0
  1  2  1  0  0  0  0
  1 21  1  0  0  0  0
  1 22  1  0  0  0  0
  1 23  1  0  0  0  0
  2 19  1  0  0  0  0
  2  3  2  0  0  0  0
  3  4  1  0  0  0  0
  4  5  2  0  0  0  0
  4 24  1  0  0  0  0
  5  6  1  0  0  0  0
  5 25  1  0  0  0  0
  6  7  1  0  0  0  0
  6 19  2  0  0  0  0
  7  8  1  0  0  0  0
  7 26  1  0  0  0  0
  8  9  2  0  0  0  0
  8 10  1  0  0  0  0
 10 11  1  0  0  0  0
 10 27  1  0  0  0  0
 11 17  1  0  0  0  0
 11 12  1  0  0  0  0
 11 28  1  0  0  0  0
 12 13  1  0  0  0  0
 12 29  1  0  0  0  0
 12 30  1  0  0  0  0
 13 14  1  0  0  0  0
 13 31  1  0  0  0  0
 13 32  1  0  0  0  0
 14 15  1  0  0  0  0
 14 33  1  0  0  0  0
 14 34  1  0  0  0  0
 15 16  1  0  0  0  0
 15 35  1  0  0  0  0
 15 36  1  0  0  0  0
 16 17  1  0  0  0  0
 16 37  1  0  0  0  0
 17 18  2  0  0  0  0
 19 20  1  0  0  0  0
M  END
> <s_m_source_file>
AV-unprocessed.smi

> <i_m_source_file_index>
2991

> <i_lp_mmshare_version>
43012

> <i_f3d_flags>
0

> <s_epik_input>
W0NIM11jMW5bY0hdW2NIXWMoYzFDbClbTkhdQyg9TylbTkhdW0NAQEhdMltDSDJdW0NIMl1bQ0gyXVtDSDJdW05IXUMyPU8=

> <s_epik_cmdline>
J2VwaWtfcHl0aG9uJywgJy1waCcsICc3LjAnLCAnLXRuJywgJzgnLCAnLW1hJywgJzIwMCcsICctbWV0YWxfYmluZGluZycsICctaW1hZScsICc8aW5maWxlLm1hZT4nLCAnLW9tYWUnLCAnPG91dGZpbGUubWFlPic=

> <r_epik_Ionization_Penalty>
0.00809016

> <r_epik_Ionization_Penalty_Charging>
0

> <r_epik_Ionization_Penalty_Neutral>
0.00809016

> <r_epik_State_Penalty>
0.00605324

> <r_epik_Charging_Adjusted_Penalty>
0.00605324

> <i_epik_Tot_Q>
0

> <i_epik_Tot_abs_Q>
0

> <r_epik_Metal_State_Penalty>
0.00597181

> <b_epik_Metal_Only>
0

> <s_lp_Force_Field>
OPLS_2005

> <r_lp_Energy>
20.4462

> <b_lp_Chiralities_Consistent>
1

> <s_lp_Variant>
AV-unprocessed.smi:2991-1

> <Gold.Version>
5.8.1

> <Gold.Id.Protein>
6NUR|6NUR_protein|mol2

> <Gold.PLP.Fitness>
40.7570

> <Gold.PLP.PLP>
-32.5130

> <Gold.PLP.part.hbond>
-3.0000

> <Gold.PLP.part.metal>
0.0000

> <Gold.PLP.part.buried>
-3.1876

> <Gold.PLP.part.nonpolar>
-26.7456

> <Gold.PLP.part.repulsive>
0.3438

> <Gold.PLP.ligand.clash>
0.0000

> <Gold.PLP.ligand.torsion>
0.4049

> <Gold.PLP.Chemscore.Hbond>
3.0000

> <Gold.PLP.Chemscore.CHOScore>
0.0000

> <Gold.PLP.Chemscore.Metal>
0.0000

> <Gold.Chemscore.Hbonds>
donor molecule, donor type, donor heavy atom, donor atom, acceptor molecule, acceptor atom, score
      L1  H     7    26       P1  7948  0.70
      L1  H    10    27       P1  7948  1.00
      P1  H  7989  7998       L1    18  1.00

> <Gold.PLP.Chemscore.Internal.Correction>
0.0538

> <Gold.Rescore>
     Score         DG    S(hbond)    S(metal)    S(lipo)     H(rot)  DE(clash)    DE(int)     intcor
     16.81     -18.39       2.39        0.00      63.93       1.00       0.00       1.58       ----

> <Gold.Chemscore.Fitness>
16.8096

> <Gold.Chemscore.DG>
-18.3930

> <Gold.Chemscore.ZeroCoef>
-5.4800

> <Gold.Chemscore.Hbond>
2.3933

> <Gold.Chemscore.Metal>
0.0000

> <Gold.Chemscore.Lipo>
63.9266

> <Gold.Chemscore.Internal_Hbond>
0.0000

> <Gold.Chemscore.DEClash>
0.0019

> <Gold.Chemscore.DEInternal>
1.5815

> <Gold.Chemscore.Rot>
1.0000

> <Gold.Chemscore.Internal.Correction>
   9.000000E+99

> <Gold.Chemscore.Hbonds>
donor molecule, donor type, donor heavy atom, donor atom, acceptor molecule, acceptor atom, score
      L1  H     7    26       P1  7948  0.07
      L1  H    10    27       P1  7948  0.95
      P1  H  7989  7998       L1    18  0.60

> <Gold.Chemscore.Hbond.Weighted>
-7.9936

> <Gold.Chemscore.Metal.Weighted>
-0.0000

> <Gold.Chemscore.Lipo.Weighted>
-7.4794

> <Gold.Chemscore.Internal_Hbond.Weighted>
0.0000

> <Gold.Chemscore.DEClash.Weighted>
0.0019

> <Gold.Chemscore.DEInternal.Weighted>
1.5815

> <Gold.Chemscore.Rot.Weighted>
2.5600

> <Gold.Chemscore.Internal.Correction.Weighted>
   9.000000E+99

> <Gold.Protein.RotatedTorsions>
[ 6907 6896 6895 6894 ] final   31.76 input  -60.11 | X-H torsion
[ 7974 7965 7964 7962 ] final   97.61 input  175.53 | X-H torsion
[ 8008 7997 7996 7995 ] final   40.57 input   59.86 | X-H torsion
[ 10167 10162 10161 10158 ] final -121.15 input  -65.29 | X-H torsion
[ 10718 10713 10712 10709 ] final  142.04 input   66.30 | X-H torsion
[ 10763 10752 10751 10750 ] final   56.65 input  -60.55 | X-H torsion
[ 11005 11000 10999 10996 ] final   21.89 input  -57.11 | X-H torsion

> <Gold.Protein.ActiveResidues>
 VAL166  LYS551  ARG553  GLY616  TRP617  ASP618  TYR619  PRO620  LYS621  CYS622 
 ASP623  PHE694  ASN695  SER759  ASP760  ASP761  ALA762  ILE779  LEU786  VAL792 
 PHE793  MET794  SER795  GLU796  ALA797  LYS798  CYS799  TRP800  GLU811  SER814 

> <Gold.Protein.RotatedAtoms>
  152.0648  134.9571  160.0574 H   0  0  0  0  0  0  0  0  0  0  0  0  # atno 6907 bound_to 6896
  152.0920  133.4200  159.4556 H   0  0  0  0  0  0  0  0  0  0  0  0  # atno 6908 bound_to 6896
  150.6837  134.2780  159.4659 H   0  0  0  0  0  0  0  0  0  0  0  0  # atno 6909 bound_to 6896
  145.4232  139.2319  143.3185 H   0  0  0  0  0  0  0  0  0  0  0  0  # atno 7974 bound_to 7965
  155.2552  140.3355  155.4278 H   0  0  0  0  0  0  0  0  0  0  0  0  # atno 8008 bound_to 7997
  156.2198  140.1804  156.7546 H   0  0  0  0  0  0  0  0  0  0  0  0  # atno 8009 bound_to 7997
  154.5808  140.0654  156.9086 H   0  0  0  0  0  0  0  0  0  0  0  0  # atno 8010 bound_to 7997
  140.0282  143.5275  152.2189 H   0  0  0  0  0  0  0  0  0  0  0  0  # atno 10167 bound_to 10162
  157.3851  131.0997  151.0701 H   0  0  0  0  0  0  0  0  0  0  0  0  # atno 10718 bound_to 10713
  152.9835  135.5669  154.5263 H   0  0  0  0  0  0  0  0  0  0  0  0  # atno 10763 bound_to 10752
  154.4742  135.2786  155.1622 H   0  0  0  0  0  0  0  0  0  0  0  0  # atno 10764 bound_to 10752
  154.3157  135.6279  153.5538 H   0  0  0  0  0  0  0  0  0  0  0  0  # atno 10765 bound_to 10752
  140.3866  134.1864  155.7663 H   0  0  0  0  0  0  0  0  0  0  0  0  # atno 11005 bound_to 11000
  146.2646  140.4959  142.8839 LP  0  0  0  0  0  0  0  0  0  0  0  0  # atno 17320 bound_to 7965
  144.8232  140.6584  143.6339 LP  0  0  0  0  0  0  0  0  0  0  0  0  # atno 17321 bound_to 7965
  139.6094  144.7605  151.2987 LP  0  0  0  0  0  0  0  0  0  0  0  0  # atno 17342 bound_to 10162
  140.7313  143.6854  150.7966 LP  0  0  0  0  0  0  0  0  0  0  0  0  # atno 17343 bound_to 10162
  157.1755  130.6286  149.5654 LP  0  0  0  0  0  0  0  0  0  0  0  0  # atno 17370 bound_to 10713
  155.9785  130.4771  150.6658 LP  0  0  0  0  0  0  0  0  0  0  0  0  # atno 17371 bound_to 10713
  141.1905  133.8215  157.0915 LP  0  0  0  0  0  0  0  0  0  0  0  0  # atno 17394 bound_to 11000
  140.0438  134.9841  157.1011 LP  0  0  0  0  0  0  0  0  0  0  0  0  # atno 17395 bound_to 11000

$$$$
