AV-unprocessed.smi:130|AV-procd|sdf|1160|dock2
  -GOLD-   2262018293D 1   1.00000     0.00000
 Structure written by MMmdl.
 44 47  0  0  0  0  0  0  0  0  1 V2000
  151.5706  140.5648  156.3483 O   0  0  0  0  0  0  0  0  0  0  0  0
  152.1983  140.1460  157.3217 C   0  0  0  0  0  0  0  0  0  0  0  0
  152.6632  138.6729  157.3303 C   0  0  0  0  0  0  0  0  0  0  0  0
  151.5528  137.6979  157.2425 N   0  0  0  0  0  0  0  0  0  0  0  0
  151.3577  136.9944  156.0276 C   0  0  0  0  0  0  0  0  0  0  0  0
  152.1012  137.1702  155.0613 O   0  0  0  0  0  0  0  0  0  0  0  0
  150.2256  136.0749  156.0067 C   0  0  0  0  0  0  0  0  0  0  0  0
  149.9608  135.3703  154.8935 F   0  0  0  0  0  0  0  0  0  0  0  0
  149.4340  135.9226  157.0883 C   0  0  0  0  0  0  0  0  0  0  0  0
  149.6391  136.6125  158.2693 N   0  0  0  0  0  0  0  0  0  0  0  0
  148.7249  136.4270  159.4604 C   0  0  1  0  0  0  0  0  0  0  0  0
  147.2895  136.8217  159.0950 C   0  0  0  0  0  0  0  0  0  0  0  0
  146.6923  135.4895  158.6973 C   0  0  0  0  0  0  0  0  0  0  0  0
  147.4013  134.5384  159.6547 C   0  0  0  0  0  0  0  0  0  0  0  0
  148.7109  135.0755  159.8211 O   0  0  0  0  0  0  0  0  0  0  0  0
  150.7047  137.5335  158.3639 C   0  0  0  0  0  0  0  0  0  0  0  0
  150.8828  138.1858  159.3950 O   0  0  0  0  0  0  0  0  0  0  0  0
  152.5076  140.9156  158.3950 N   0  0  0  0  0  0  0  0  0  0  0  0
  153.2605  140.4202  159.5606 C   0  0  0  0  0  0  0  0  0  0  0  0
  153.3925  141.6136  160.5323 C   0  0  0  0  0  0  0  0  0  0  0  0
  152.6799  142.7188  159.8107 C   0  0  0  0  0  0  0  0  0  0  0  0
  152.5045  144.0391  160.2598 C   0  0  0  0  0  0  0  0  0  0  0  0
  151.7992  144.9376  159.4319 C   0  0  0  0  0  0  0  0  0  0  0  0
  151.2868  144.5085  158.1861 C   0  0  0  0  0  0  0  0  0  0  0  0
  151.4725  143.1781  157.7504 C   0  0  0  0  0  0  0  0  0  0  0  0
  152.1814  142.2850  158.5858 C   0  0  0  0  0  0  0  0  0  0  0  0
  153.3696  138.5230  156.5129 H   0  0  0  0  0  0  0  0  0  0  0  0
  153.2512  138.4885  158.2303 H   0  0  0  0  0  0  0  0  0  0  0  0
  148.6060  135.2340  157.0118 H   0  0  0  0  0  0  0  0  0  0  0  0
  149.1560  137.0180  160.2700 H   0  0  0  0  0  0  0  0  0  0  0  0
  146.7977  137.2097  159.9879 H   0  0  0  0  0  0  0  0  0  0  0  0
  147.2503  137.5799  158.3119 H   0  0  0  0  0  0  0  0  0  0  0  0
  145.6066  135.4599  158.7926 H   0  0  0  0  0  0  0  0  0  0  0  0
  146.9526  135.2522  157.6650 H   0  0  0  0  0  0  0  0  0  0  0  0
  146.9006  134.5334  160.6237 H   0  0  0  0  0  0  0  0  0  0  0  0
  147.4334  133.5137  159.2834 H   0  0  0  0  0  0  0  0  0  0  0  0
  152.7308  139.5977  160.0428 H   0  0  0  0  0  0  0  0  0  0  0  0
  154.2471  140.0643  159.2612 H   0  0  0  0  0  0  0  0  0  0  0  0
  152.9118  141.4124  161.4902 H   0  0  0  0  0  0  0  0  0  0  0  0
  154.4344  141.8818  160.7092 H   0  0  0  0  0  0  0  0  0  0  0  0
  152.8988  144.3582  161.2134 H   0  0  0  0  0  0  0  0  0  0  0  0
  151.6496  145.9585  159.7516 H   0  0  0  0  0  0  0  0  0  0  0  0
  150.7481  145.2050  157.5608 H   0  0  0  0  0  0  0  0  0  0  0  0
  151.0691  142.8813  156.7954 H   0  0  0  0  0  0  0  0  0  0  0  0
  1  2  2  0  0  0  0
  2  3  1  0  0  0  0
  2 18  1  0  0  0  0
  3  4  1  0  0  0  0
  3 27  1  0  0  0  0
  3 28  1  0  0  0  0
  4 16  1  0  0  0  0
  4  5  1  0  0  0  0
  5  6  2  0  0  0  0
  5  7  1  0  0  0  0
  7  8  1  0  0  0  0
  7  9  2  0  0  0  0
  9 10  1  0  0  0  0
  9 29  1  0  0  0  0
 10 11  1  0  0  0  0
 10 16  1  0  0  0  0
 11 15  1  0  0  0  0
 11 12  1  0  0  0  0
 11 30  1  0  0  0  0
 12 13  1  0  0  0  0
 12 31  1  0  0  0  0
 12 32  1  0  0  0  0
 13 14  1  0  0  0  0
 13 33  1  0  0  0  0
 13 34  1  0  0  0  0
 14 15  1  0  0  0  0
 14 35  1  0  0  0  0
 14 36  1  0  0  0  0
 16 17  2  0  0  0  0
 18 26  1  0  0  0  0
 18 19  1  0  0  0  0
 19 20  1  0  0  0  0
 19 37  1  0  0  0  0
 19 38  1  0  0  0  0
 20 21  1  0  0  0  0
 20 39  1  0  0  0  0
 20 40  1  0  0  0  0
 21 26  2  0  0  0  0
 21 22  1  0  0  0  0
 22 23  2  0  0  0  0
 22 41  1  0  0  0  0
 23 24  1  0  0  0  0
 23 42  1  0  0  0  0
 24 25  2  0  0  0  0
 24 43  1  0  0  0  0
 25 26  1  0  0  0  0
 25 44  1  0  0  0  0
M  END
> <s_m_source_file>
AV-unprocessed.smi

> <i_m_source_file_index>
130

> <i_lp_mmshare_version>
43012

> <i_f3d_flags>
0

> <s_epik_input>
W2NIXTFbY0hdW2NIXVtjSF1jKGMxMilOKFtDSDJdW0NIMl0yKUMoPU8pW0NIMl1uM2MoPU8pYyhGKVtjSF1uKGMzPU8pW0NAQEhdNFtDSDJdW0NIMl1bQ0gyXU80

> <s_epik_cmdline>
J2VwaWtfcHl0aG9uJywgJy1waCcsICc3LjAnLCAnLXRuJywgJzgnLCAnLW1hJywgJzIwMCcsICctbWV0YWxfYmluZGluZycsICctaW1hZScsICc8aW5maWxlLm1hZT4nLCAnLW9tYWUnLCAnPG91dGZpbGUubWFlPic=

> <r_lp_tautomer_probability>
1

> <r_epik_Ionization_Penalty>
1.67926e-06

> <r_epik_Ionization_Penalty_Charging>
3.62822e-09

> <r_epik_Ionization_Penalty_Neutral>
1.67563e-06

> <r_epik_State_Penalty>
-0

> <r_epik_Charging_Adjusted_Penalty>
3.62822e-09

> <i_epik_Tot_Q>
0

> <i_epik_Tot_abs_Q>
0

> <r_epik_Metal_State_Penalty>
-0

> <b_epik_Metal_Only>
0

> <s_epik_Chemistry_Notes>
This compound contains an acetal/aminal-like group ( X-CH(R)-Y where X, Y are N, S, or O) that may be acid/base labile, releasing an aldehyde.

> <s_lp_Force_Field>
OPLS_2005

> <r_lp_Energy>
53.4438

> <b_lp_Chiralities_Consistent>
1

> <s_lp_Variant>
AV-unprocessed.smi:130-2

> <Gold.Version>
5.8.1

> <Gold.Id.Protein>
6NUR|6NUR_protein|mol2

> <Gold.PLP.Fitness>
49.1793

> <Gold.PLP.PLP>
-44.0137

> <Gold.PLP.part.hbond>
-2.7735

> <Gold.PLP.part.metal>
0.0000

> <Gold.PLP.part.buried>
-5.5995

> <Gold.PLP.part.nonpolar>
-35.8926

> <Gold.PLP.part.repulsive>
0.0804

> <Gold.PLP.ligand.clash>
0.0000

> <Gold.PLP.ligand.torsion>
0.1460

> <Gold.PLP.Chemscore.Hbond>
1.8157

> <Gold.PLP.Chemscore.CHOScore>
0.0000

> <Gold.PLP.Chemscore.Metal>
0.0000

> <Gold.Chemscore.Hbonds>
donor molecule, donor type, donor heavy atom, donor atom, acceptor molecule, acceptor atom, score
      P1  H  6896  6909       L1    15  0.96
      P1  H 10752 10765       L1     6  0.88

> <Gold.PLP.Chemscore.Internal.Correction>
0.0103

> <Gold.Rescore>
     Score         DG    S(hbond)    S(metal)    S(lipo)     H(rot)  DE(clash)    DE(int)     intcor
     17.78     -19.05       1.42        0.00     109.96       1.57       0.00       1.27       ----

> <Gold.Chemscore.Fitness>
17.7849

> <Gold.Chemscore.DG>
-19.0547

> <Gold.Chemscore.ZeroCoef>
-5.4800

> <Gold.Chemscore.Hbond>
1.4161

> <Gold.Chemscore.Metal>
0.0000

> <Gold.Chemscore.Lipo>
109.9592

> <Gold.Chemscore.Internal_Hbond>
0.0000

> <Gold.Chemscore.DEClash>
0.0000

> <Gold.Chemscore.DEInternal>
1.2698

> <Gold.Chemscore.Rot>
1.5704

> <Gold.Chemscore.Internal.Correction>
   9.000000E+99

> <Gold.Chemscore.Hbonds>
donor molecule, donor type, donor heavy atom, donor atom, acceptor molecule, acceptor atom, score
      P1  H  6896  6909       L1    15  0.34
      P1  H 10752 10765       L1     6  0.74

> <Gold.Chemscore.Hbond.Weighted>
-4.7298

> <Gold.Chemscore.Metal.Weighted>
-0.0000

> <Gold.Chemscore.Lipo.Weighted>
-12.8652

> <Gold.Chemscore.Internal_Hbond.Weighted>
0.0000

> <Gold.Chemscore.DEClash.Weighted>
0.0000

> <Gold.Chemscore.DEInternal.Weighted>
1.2698

> <Gold.Chemscore.Rot.Weighted>
4.0203

> <Gold.Chemscore.Internal.Correction.Weighted>
   9.000000E+99

> <Gold.Protein.RotatedTorsions>
[ 6907 6896 6895 6894 ] final   47.59 input  -60.11 | X-H torsion
[ 7974 7965 7964 7962 ] final  -62.30 input  175.53 | X-H torsion
[ 8008 7997 7996 7995 ] final   35.11 input   59.86 | X-H torsion
[ 10167 10162 10161 10158 ] final  126.19 input  -65.29 | X-H torsion
[ 10718 10713 10712 10709 ] final   47.71 input   66.30 | X-H torsion
[ 10763 10752 10751 10750 ] final  176.09 input  -60.55 | X-H torsion
[ 11005 11000 10999 10996 ] final  -36.47 input  -57.11 | X-H torsion

> <Gold.Protein.ActiveResidues>
 VAL166  LYS551  ARG553  GLY616  TRP617  ASP618  TYR619  PRO620  LYS621  CYS622 
 ASP623  PHE694  ASN695  SER759  ASP760  ASP761  ALA762  ILE779  LEU786  VAL792 
 PHE793  MET794  SER795  GLU796  ALA797  LYS798  CYS799  TRP800  GLU811  SER814 

> <Gold.Protein.RotatedAtoms>
  152.2698  134.7945  160.0415 H   0  0  0  0  0  0  0  0  0  0  0  0  # atno 6907 bound_to 6896
  151.8562  133.3443  159.3697 H   0  0  0  0  0  0  0  0  0  0  0  0  # atno 6908 bound_to 6896
  150.7147  134.5178  159.5683 H   0  0  0  0  0  0  0  0  0  0  0  0  # atno 6909 bound_to 6896
  145.7930  140.8699  143.0271 H   0  0  0  0  0  0  0  0  0  0  0  0  # atno 7974 bound_to 7965
  155.1658  140.3287  155.4402 H   0  0  0  0  0  0  0  0  0  0  0  0  # atno 8008 bound_to 7997
  156.2527  140.1952  156.6714 H   0  0  0  0  0  0  0  0  0  0  0  0  # atno 8009 bound_to 7997
  154.6372  140.0575  156.9789 H   0  0  0  0  0  0  0  0  0  0  0  0  # atno 8010 bound_to 7997
  139.5644  144.6902  151.3951 H   0  0  0  0  0  0  0  0  0  0  0  0  # atno 10167 bound_to 10162
  157.4612  130.8198  149.7889 H   0  0  0  0  0  0  0  0  0  0  0  0  # atno 10718 bound_to 10713
  154.4764  135.2773  155.1604 H   0  0  0  0  0  0  0  0  0  0  0  0  # atno 10763 bound_to 10752
  154.3331  135.6186  153.5564 H   0  0  0  0  0  0  0  0  0  0  0  0  # atno 10764 bound_to 10752
  152.9870  135.5770  154.5156 H   0  0  0  0  0  0  0  0  0  0  0  0  # atno 10765 bound_to 10752
  140.9877  133.7022  156.1794 H   0  0  0  0  0  0  0  0  0  0  0  0  # atno 11005 bound_to 11000
  144.6779  140.0150  143.7484 LP  0  0  0  0  0  0  0  0  0  0  0  0  # atno 17320 bound_to 7965
  145.9957  139.3050  143.0958 LP  0  0  0  0  0  0  0  0  0  0  0  0  # atno 17321 bound_to 7965
  140.6927  143.7823  150.7279 LP  0  0  0  0  0  0  0  0  0  0  0  0  # atno 17342 bound_to 10162
  140.1310  143.4525  152.2254 LP  0  0  0  0  0  0  0  0  0  0  0  0  # atno 17343 bound_to 10162
  156.0030  130.3870  150.2536 LP  0  0  0  0  0  0  0  0  0  0  0  0  # atno 17370 bound_to 10713
  157.0713  131.0117  151.3189 LP  0  0  0  0  0  0  0  0  0  0  0  0  # atno 17371 bound_to 10713
  140.7089  134.4483  157.5582 LP  0  0  0  0  0  0  0  0  0  0  0  0  # atno 17394 bound_to 11000
  139.8978  134.8628  156.2029 LP  0  0  0  0  0  0  0  0  0  0  0  0  # atno 17395 bound_to 11000

$$$$
