AV-unprocessed.smi:901|AV-procd|sdf|4093|dock10
  -GOLD-   22720 1583D 1   1.00000     0.00000
 Structure written by MMmdl.
 43 44  0  0  0  0  0  0  0  0  1 V2000
  153.6013  142.3218  163.0210 C   0  0  0  0  0  0  0  0  0  0  0  0
  153.3783  142.1932  161.5272 C   0  0  0  0  0  0  0  0  0  0  0  0
  154.0418  140.9862  160.8879 C   0  0  0  0  0  0  0  0  0  0  0  0
  152.6465  143.0920  160.8413 C   0  0  0  0  0  0  0  0  0  0  0  0
  152.3591  143.0762  159.3825 C   0  0  1  0  0  0  0  0  0  0  0  0
  150.9352  142.9299  158.8769 C   0  0  2  0  0  0  0  0  0  0  0  0
  150.6792  142.0714  157.6762 C   0  0  0  0  0  0  0  0  0  0  0  0
  151.5446  141.3597  157.1641 O   0  0  0  0  0  0  0  0  0  0  0  0
  149.4126  142.1558  157.2303 N   0  0  0  0  0  0  0  0  0  0  0  0
  148.8318  141.4806  156.1264 C   0  0  0  0  0  0  0  0  0  0  0  0
  149.5434  141.3493  154.9022 C   0  0  0  0  0  0  0  0  0  0  0  0
  148.6734  140.6608  154.1053 C   0  0  0  0  0  0  0  0  0  0  0  0
  147.5316  140.4212  154.8451 N   0  0  0  0  0  0  0  0  0  0  0  0
  146.3215  139.7258  154.4382 C   0  0  0  0  0  0  0  0  0  0  0  0
  145.2079  139.8398  155.4859 C   0  0  0  0  0  0  0  0  0  0  0  0
  144.0353  140.3226  155.0673 N   0  0  0  0  0  0  0  0  0  0  0  0
  145.3931  139.4972  156.6526 O   0  0  0  0  0  0  0  0  0  0  0  0
  147.6296  140.9219  156.0963 N   0  0  0  0  0  0  0  0  0  0  0  0
  151.6772  144.2501  158.6989 C   0  0  0  0  0  0  0  0  0  0  0  0
  151.1757  145.4474  159.4928 C   0  0  0  0  0  0  0  0  0  0  0  0
  152.2180  144.7275  157.3560 C   0  0  0  0  0  0  0  0  0  0  0  0
  153.2039  141.4484  163.5388 H   0  0  0  0  0  0  0  0  0  0  0  0
  153.1114  143.2080  163.4260 H   0  0  0  0  0  0  0  0  0  0  0  0
  154.6671  142.3943  163.2392 H   0  0  0  0  0  0  0  0  0  0  0  0
  155.1229  141.0428  161.0158 H   0  0  0  0  0  0  0  0  0  0  0  0
  153.8339  140.9107  159.8210 H   0  0  0  0  0  0  0  0  0  0  0  0
  153.6902  140.0696  161.3621 H   0  0  0  0  0  0  0  0  0  0  0  0
  152.2078  143.9172  161.3832 H   0  0  0  0  0  0  0  0  0  0  0  0
  153.1420  142.5609  158.8288 H   0  0  0  0  0  0  0  0  0  0  0  0
  150.1441  142.9289  159.6259 H   0  0  0  0  0  0  0  0  0  0  0  0
  148.7969  142.7734  157.7387 H   0  0  0  0  0  0  0  0  0  0  0  0
  150.5312  141.7035  154.6473 H   0  0  0  0  0  0  0  0  0  0  0  0
  148.7682  140.3274  153.0823 H   0  0  0  0  0  0  0  0  0  0  0  0
  145.9906  140.1443  153.4867 H   0  0  0  0  0  0  0  0  0  0  0  0
  146.5463  138.6719  154.2657 H   0  0  0  0  0  0  0  0  0  0  0  0
  143.2684  140.4231  155.7163 H   0  0  0  0  0  0  0  0  0  0  0  0
  143.9220  140.5902  154.1002 H   0  0  0  0  0  0  0  0  0  0  0  0
  150.4085  145.9800  158.9300 H   0  0  0  0  0  0  0  0  0  0  0  0
  151.9950  146.1354  159.7021 H   0  0  0  0  0  0  0  0  0  0  0  0
  150.7424  145.1358  160.4436 H   0  0  0  0  0  0  0  0  0  0  0  0
  151.3995  145.0477  156.7108 H   0  0  0  0  0  0  0  0  0  0  0  0
  152.7768  143.9436  156.8458 H   0  0  0  0  0  0  0  0  0  0  0  0
  152.8965  145.5693  157.4975 H   0  0  0  0  0  0  0  0  0  0  0  0
  1  2  1  0  0  0  0
  1 22  1  0  0  0  0
  1 23  1  0  0  0  0
  1 24  1  0  0  0  0
  2  3  1  0  0  0  0
  2  4  2  0  0  0  0
  3 25  1  0  0  0  0
  3 26  1  0  0  0  0
  3 27  1  0  0  0  0
  4  5  1  0  0  0  0
  4 28  1  0  0  0  0
  5 19  1  0  0  0  0
  5  6  1  0  0  0  0
  5 29  1  0  0  0  0
  6  7  1  0  0  0  0
  6 19  1  0  0  0  0
  6 30  1  0  0  0  0
  7  8  2  0  0  0  0
  7  9  1  0  0  0  0
  9 10  1  0  0  0  0
  9 31  1  0  0  0  0
 10 18  2  0  0  0  0
 10 11  1  0  0  0  0
 11 12  2  0  0  0  0
 11 32  1  0  0  0  0
 12 13  1  0  0  0  0
 12 33  1  0  0  0  0
 13 14  1  0  0  0  0
 13 18  1  0  0  0  0
 14 15  1  0  0  0  0
 14 34  1  0  0  0  0
 14 35  1  0  0  0  0
 15 16  1  0  0  0  0
 15 17  2  0  0  0  0
 16 36  1  0  0  0  0
 16 37  1  0  0  0  0
 19 20  1  0  0  0  0
 19 21  1  0  0  0  0
 20 38  1  0  0  0  0
 20 39  1  0  0  0  0
 20 40  1  0  0  0  0
 21 41  1  0  0  0  0
 21 42  1  0  0  0  0
 21 43  1  0  0  0  0
M  END
> <s_m_source_file>
AV-unprocessed.smi

> <i_m_source_file_index>
901

> <i_lp_mmshare_version>
43012

> <i_f3d_flags>
0

> <s_epik_input>
W0NIM11DKFtDSDNdKT1bQ0hdW0NAQEhdKEMxKFtDSDNdKVtDSDNdKVtDQEhdMUMoPU8pW05IXWMyW2NIXVtjSF1uKG4yKVtDSDJdQyg9TylbTkgyXQ==

> <s_epik_cmdline>
J2VwaWtfcHl0aG9uJywgJy1waCcsICc3LjAnLCAnLXRuJywgJzgnLCAnLW1hJywgJzIwMCcsICctbWV0YWxfYmluZGluZycsICctaW1hZScsICc8aW5maWxlLm1hZT4nLCAnLW9tYWUnLCAnPG91dGZpbGUubWFlPic=

> <r_lp_tautomer_probability>
1

> <r_epik_Ionization_Penalty>
1.01454e-05

> <r_epik_Ionization_Penalty_Charging>
0

> <r_epik_Ionization_Penalty_Neutral>
1.01454e-05

> <r_epik_State_Penalty>
-0

> <r_epik_Charging_Adjusted_Penalty>
0

> <i_epik_Tot_Q>
0

> <i_epik_Tot_abs_Q>
0

> <r_epik_Metal_State_Penalty>
-0

> <b_epik_Metal_Only>
0

> <s_lp_Force_Field>
OPLS_2005

> <r_lp_Energy>
18.0241

> <b_lp_Chiralities_Consistent>
1

> <s_lp_Variant>
AV-unprocessed.smi:901-4

> <Gold.Version>
5.8.1

> <Gold.Id.Protein>
6NUR|6NUR_protein|mol2

> <Gold.PLP.Fitness>
47.6252

> <Gold.PLP.PLP>
-42.9843

> <Gold.PLP.part.hbond>
-2.0000

> <Gold.PLP.part.metal>
0.0000

> <Gold.PLP.part.buried>
-3.0500

> <Gold.PLP.part.nonpolar>
-38.2933

> <Gold.PLP.part.repulsive>
0.1273

> <Gold.PLP.ligand.clash>
0.0000

> <Gold.PLP.ligand.torsion>
0.7661

> <Gold.PLP.Chemscore.Hbond>
1.0000

> <Gold.PLP.Chemscore.CHOScore>
1.0000

> <Gold.PLP.Chemscore.Metal>
0.0000

> <Gold.Chemscore.Hbonds>
donor molecule, donor type, donor heavy atom, donor atom, acceptor molecule, acceptor atom, score
      L1  H    16    37       P1 10175  1.00
      L1  C    12    33       P1  7957  1.00

> <Gold.PLP.Chemscore.Internal.Correction>
0.1731

> <Gold.Rescore>
     Score         DG    S(hbond)    S(metal)    S(lipo)     H(rot)  DE(clash)    DE(int)     intcor
     14.92     -17.49       1.00        0.00     120.76       2.13       0.13       2.44       ----

> <Gold.Chemscore.Fitness>
14.9181

> <Gold.Chemscore.DG>
-17.4930

> <Gold.Chemscore.ZeroCoef>
-5.4800

> <Gold.Chemscore.Hbond>
0.9997

> <Gold.Chemscore.Metal>
0.0000

> <Gold.Chemscore.Lipo>
120.7617

> <Gold.Chemscore.Internal_Hbond>
0.0000

> <Gold.Chemscore.DEClash>
0.1327

> <Gold.Chemscore.DEInternal>
2.4422

> <Gold.Chemscore.Rot>
2.1309

> <Gold.Chemscore.Internal.Correction>
   9.000000E+99

> <Gold.Chemscore.Hbonds>
donor molecule, donor type, donor heavy atom, donor atom, acceptor molecule, acceptor atom, score
      L1  H    16    37       P1 10175  0.99

> <Gold.Chemscore.Hbond.Weighted>
-3.3390

> <Gold.Chemscore.Metal.Weighted>
-0.0000

> <Gold.Chemscore.Lipo.Weighted>
-14.1291

> <Gold.Chemscore.Internal_Hbond.Weighted>
0.0000

> <Gold.Chemscore.DEClash.Weighted>
0.1327

> <Gold.Chemscore.DEInternal.Weighted>
2.4422

> <Gold.Chemscore.Rot.Weighted>
5.4552

> <Gold.Chemscore.Internal.Correction.Weighted>
   9.000000E+99

> <Gold.Protein.RotatedTorsions>
[ 6907 6896 6895 6894 ] final   34.69 input  -60.11 | X-H torsion
[ 7974 7965 7964 7962 ] final  126.71 input  175.53 | X-H torsion
[ 8008 7997 7996 7995 ] final   47.10 input   59.86 | X-H torsion
[ 10167 10162 10161 10158 ] final  140.44 input  -65.29 | X-H torsion
[ 10718 10713 10712 10709 ] final  103.40 input   66.30 | X-H torsion
[ 10763 10752 10751 10750 ] final  117.35 input  -60.55 | X-H torsion
[ 11005 11000 10999 10996 ] final -146.47 input  -57.11 | X-H torsion

> <Gold.Protein.ActiveResidues>
 VAL166  LYS551  ARG553  GLY616  TRP617  ASP618  TYR619  PRO620  LYS621  CYS622 
 ASP623  PHE694  ASN695  SER759  ASP760  ASP761  ALA762  ILE779  LEU786  VAL792 
 PHE793  MET794  SER795  GLU796  ALA797  LYS798  CYS799  TRP800  GLU811  SER814 

> <Gold.Protein.RotatedAtoms>
  152.1059  134.9309  160.0567 H   0  0  0  0  0  0  0  0  0  0  0  0  # atno 6907 bound_to 6896
  152.0505  133.4012  159.4383 H   0  0  0  0  0  0  0  0  0  0  0  0  # atno 6908 bound_to 6896
  150.6841  134.3234  159.4839 H   0  0  0  0  0  0  0  0  0  0  0  0  # atno 6909 bound_to 6896
  145.0586  139.3823  143.5017 H   0  0  0  0  0  0  0  0  0  0  0  0  # atno 7974 bound_to 7965
  155.3635  140.3420  155.4241 H   0  0  0  0  0  0  0  0  0  0  0  0  # atno 8008 bound_to 7997
  156.1701  140.1629  156.8497 H   0  0  0  0  0  0  0  0  0  0  0  0  # atno 8009 bound_to 7997
  154.5224  140.0764  156.8179 H   0  0  0  0  0  0  0  0  0  0  0  0  # atno 8010 bound_to 7997
  139.5049  144.6234  151.5996 H   0  0  0  0  0  0  0  0  0  0  0  0  # atno 10167 bound_to 10162
  157.6773  131.0778  150.5550 H   0  0  0  0  0  0  0  0  0  0  0  0  # atno 10718 bound_to 10713
  153.5511  135.3539  155.2759 H   0  0  0  0  0  0  0  0  0  0  0  0  # atno 10763 bound_to 10752
  154.8706  135.4114  154.2936 H   0  0  0  0  0  0  0  0  0  0  0  0  # atno 10764 bound_to 10752
  153.3663  135.7062  153.6741 H   0  0  0  0  0  0  0  0  0  0  0  0  # atno 10765 bound_to 10752
  140.7816  134.3072  157.5043 H   0  0  0  0  0  0  0  0  0  0  0  0  # atno 11005 bound_to 11000
  146.3523  140.0273  142.8653 LP  0  0  0  0  0  0  0  0  0  0  0  0  # atno 17320 bound_to 7965
  145.1437  140.9585  143.4474 LP  0  0  0  0  0  0  0  0  0  0  0  0  # atno 17321 bound_to 7965
  140.5943  143.9724  150.6344 LP  0  0  0  0  0  0  0  0  0  0  0  0  # atno 17342 bound_to 10162
  140.2915  143.3321  152.1058 LP  0  0  0  0  0  0  0  0  0  0  0  0  # atno 17343 bound_to 10162
  156.5853  130.4315  149.5959 LP  0  0  0  0  0  0  0  0  0  0  0  0  # atno 17370 bound_to 10713
  156.2627  130.6972  151.1745 LP  0  0  0  0  0  0  0  0  0  0  0  0  # atno 17371 bound_to 10713
  139.8742  134.9322  156.3547 LP  0  0  0  0  0  0  0  0  0  0  0  0  # atno 17394 bound_to 11000
  140.9477  133.7472  156.0230 LP  0  0  0  0  0  0  0  0  0  0  0  0  # atno 17395 bound_to 11000

$$$$
