AV-unprocessed.smi:3272|AV-procd|sdf|12518|dock7
  -GOLD-   2272018433D 1   1.00000     0.00000
 Structure written by MMmdl.
 35 36  0  0  0  0  0  0  0  0  1 V2000
  143.8147  132.6928  148.6454 C   0  0  0  0  0  0  0  0  0  0  0  0
  143.7116  132.2513  150.1101 C   0  0  0  0  0  0  0  0  0  0  0  0
  144.4987  133.1001  150.9830 N   0  0  0  0  0  0  0  0  0  0  0  0
  145.0979  134.3081  150.6857 C   0  0  0  0  0  0  0  0  0  0  0  0
  145.7093  134.7103  151.8395 C   0  0  0  0  0  0  0  0  0  0  0  0
  146.4600  135.8849  152.0981 N   0  0  0  0  0  0  0  0  0  0  0  0
  145.9900  137.0916  152.4536 C   0  0  0  0  0  0  0  0  0  0  0  0
  144.7997  137.3760  152.5873 O   0  0  0  0  0  0  0  0  0  0  0  0
  146.9894  137.9657  152.6394 N   0  0  0  0  0  0  0  0  0  0  0  0
  146.8322  139.3677  153.0131 C   0  0  0  0  0  0  0  0  0  0  0  0
  147.8919  139.8041  154.0414 C   0  0  2  0  0  0  0  0  0  0  0  0
  148.1235  141.3005  154.0854 C   0  0  0  0  0  0  0  0  0  0  0  0
  149.4725  141.3932  154.7927 C   0  0  0  0  0  0  0  0  0  0  0  0
  150.1769  140.2028  154.4504 O   0  0  0  0  0  0  0  0  0  0  0  0
  149.3105  139.3009  153.7687 C   0  0  0  0  0  0  0  0  0  0  0  0
  145.4385  133.6967  152.7950 C   0  0  0  0  0  0  0  0  0  0  0  0
  144.7079  132.7253  152.2693 N   0  0  0  0  0  0  0  0  0  0  0  0
  143.2289  132.0375  148.0008 H   0  0  0  0  0  0  0  0  0  0  0  0
  144.8481  132.6651  148.2985 H   0  0  0  0  0  0  0  0  0  0  0  0
  143.4427  133.7091  148.5119 H   0  0  0  0  0  0  0  0  0  0  0  0
  142.6726  132.2720  150.4418 H   0  0  0  0  0  0  0  0  0  0  0  0
  144.0585  131.2230  150.2184 H   0  0  0  0  0  0  0  0  0  0  0  0
  145.0292  134.7574  149.7059 H   0  0  0  0  0  0  0  0  0  0  0  0
  147.4611  135.7960  152.0033 H   0  0  0  0  0  0  0  0  0  0  0  0
  147.9348  137.6379  152.5061 H   0  0  0  0  0  0  0  0  0  0  0  0
  146.8589  140.0142  152.1340 H   0  0  0  0  0  0  0  0  0  0  0  0
  145.8378  139.4842  153.4445 H   0  0  0  0  0  0  0  0  0  0  0  0
  147.5889  139.4743  155.0368 H   0  0  0  0  0  0  0  0  0  0  0  0
  148.2038  141.7034  153.0745 H   0  0  0  0  0  0  0  0  0  0  0  0
  147.3337  141.8422  154.6066 H   0  0  0  0  0  0  0  0  0  0  0  0
  150.0316  142.2839  154.5049 H   0  0  0  0  0  0  0  0  0  0  0  0
  149.3348  141.4147  155.8744 H   0  0  0  0  0  0  0  0  0  0  0  0
  149.4633  138.2747  154.1037 H   0  0  0  0  0  0  0  0  0  0  0  0
  149.5384  139.3457  152.7028 H   0  0  0  0  0  0  0  0  0  0  0  0
  145.7403  133.6342  153.8302 H   0  0  0  0  0  0  0  0  0  0  0  0
  1  2  1  0  0  0  0
  1 18  1  0  0  0  0
  1 19  1  0  0  0  0
  1 20  1  0  0  0  0
  2  3  1  0  0  0  0
  2 21  1  0  0  0  0
  2 22  1  0  0  0  0
  3 17  1  0  0  0  0
  3  4  1  0  0  0  0
  4  5  2  0  0  0  0
  4 23  1  0  0  0  0
  5  6  1  0  0  0  0
  5 16  1  0  0  0  0
  6  7  1  0  0  0  0
  6 24  1  0  0  0  0
  7  8  2  0  0  0  0
  7  9  1  0  0  0  0
  9 10  1  0  0  0  0
  9 25  1  0  0  0  0
 10 11  1  0  0  0  0
 10 26  1  0  0  0  0
 10 27  1  0  0  0  0
 11 15  1  0  0  0  0
 11 12  1  0  0  0  0
 11 28  1  0  0  0  0
 12 13  1  0  0  0  0
 12 29  1  0  0  0  0
 12 30  1  0  0  0  0
 13 14  1  0  0  0  0
 13 31  1  0  0  0  0
 13 32  1  0  0  0  0
 14 15  1  0  0  0  0
 15 33  1  0  0  0  0
 15 34  1  0  0  0  0
 16 17  2  0  0  0  0
 16 35  1  0  0  0  0
M  END
> <s_m_source_file>
AV-unprocessed.smi

> <i_m_source_file_index>
3272

> <i_lp_mmshare_version>
43012

> <i_f3d_flags>
0

> <s_epik_input>
W0NIM11bQ0gyXW4xW2NIXWMoW2NIXW4xKVtOSF1DKD1PKVtOSF1bQ0gyXVtDQEBIXTJbQ0gyXVtDSDJdT1tDSDJdMg==

> <s_epik_cmdline>
J2VwaWtfcHl0aG9uJywgJy1waCcsICc3LjAnLCAnLXRuJywgJzgnLCAnLW1hJywgJzIwMCcsICctbWV0YWxfYmluZGluZycsICctaW1hZScsICc8aW5maWxlLm1hZT4nLCAnLW9tYWUnLCAnPG91dGZpbGUubWFlPic=

> <r_lp_tautomer_probability>
1

> <r_epik_Ionization_Penalty>
0.000182896

> <r_epik_Ionization_Penalty_Charging>
0

> <r_epik_Ionization_Penalty_Neutral>
0.000182896

> <r_epik_State_Penalty>
-0

> <r_epik_Charging_Adjusted_Penalty>
0

> <i_epik_Tot_Q>
0

> <i_epik_Tot_abs_Q>
0

> <r_epik_Metal_State_Penalty>
-0

> <b_epik_Metal_Only>
0

> <s_lp_Force_Field>
OPLS_2005

> <r_lp_Energy>
22.7112

> <b_lp_Chiralities_Consistent>
1

> <s_lp_Variant>
AV-unprocessed.smi:3272-1

> <Gold.Version>
5.8.1

> <Gold.Id.Protein>
6NUR|6NUR_protein|mol2

> <Gold.PLP.Fitness>
41.0373

> <Gold.PLP.PLP>
-31.6993

> <Gold.PLP.part.hbond>
-2.9243

> <Gold.PLP.part.metal>
0.0000

> <Gold.PLP.part.buried>
-1.8016

> <Gold.PLP.part.nonpolar>
-27.9641

> <Gold.PLP.part.repulsive>
0.5486

> <Gold.PLP.ligand.clash>
0.0000

> <Gold.PLP.ligand.torsion>
1.1790

> <Gold.PLP.Chemscore.Hbond>
2.8960

> <Gold.PLP.Chemscore.CHOScore>
1.0000

> <Gold.PLP.Chemscore.Metal>
0.0000

> <Gold.Chemscore.Hbonds>
donor molecule, donor type, donor heavy atom, donor atom, acceptor molecule, acceptor atom, score
      L1  H     6    24       P1  7948  1.00
      L1  H     9    25       P1  7948  0.88
      P1  H  7989  7998       L1    14  1.00
      L1  C     4    23       P1  7921  1.00

> <Gold.PLP.Chemscore.Internal.Correction>
0.0081

> <Gold.Rescore>
     Score         DG    S(hbond)    S(metal)    S(lipo)     H(rot)  DE(clash)    DE(int)     intcor
     16.87     -19.49       2.66        0.00      74.53       1.41       1.62       0.99       ----

> <Gold.Chemscore.Fitness>
16.8721

> <Gold.Chemscore.DG>
-19.4883

> <Gold.Chemscore.ZeroCoef>
-5.4800

> <Gold.Chemscore.Hbond>
2.6613

> <Gold.Chemscore.Metal>
0.0000

> <Gold.Chemscore.Lipo>
74.5288

> <Gold.Chemscore.Internal_Hbond>
0.0000

> <Gold.Chemscore.DEClash>
1.6233

> <Gold.Chemscore.DEInternal>
0.9929

> <Gold.Chemscore.Rot>
1.4064

> <Gold.Chemscore.Internal.Correction>
   9.000000E+99

> <Gold.Chemscore.Hbonds>
donor molecule, donor type, donor heavy atom, donor atom, acceptor molecule, acceptor atom, score
      L1  H     6    24       P1  7948  0.93
      L1  H     9    25       P1  7948  0.87
      P1  H  7989  7998       L1    14  0.32

> <Gold.Chemscore.Hbond.Weighted>
-8.8889

> <Gold.Chemscore.Metal.Weighted>
-0.0000

> <Gold.Chemscore.Lipo.Weighted>
-8.7199

> <Gold.Chemscore.Internal_Hbond.Weighted>
0.0000

> <Gold.Chemscore.DEClash.Weighted>
1.6233

> <Gold.Chemscore.DEInternal.Weighted>
0.9929

> <Gold.Chemscore.Rot.Weighted>
3.6004

> <Gold.Chemscore.Internal.Correction.Weighted>
   9.000000E+99

> <Gold.Protein.RotatedTorsions>
[ 6907 6896 6895 6894 ] final  -96.82 input  -60.11 | X-H torsion
[ 7974 7965 7964 7962 ] final  144.21 input  175.53 | X-H torsion
[ 8008 7997 7996 7995 ] final  105.03 input   59.86 | X-H torsion
[ 10167 10162 10161 10158 ] final  -35.72 input  -65.29 | X-H torsion
[ 10718 10713 10712 10709 ] final  144.93 input   66.30 | X-H torsion
[ 10763 10752 10751 10750 ] final -131.87 input  -60.55 | X-H torsion
[ 11005 11000 10999 10996 ] final   50.36 input  -57.11 | X-H torsion

> <Gold.Protein.ActiveResidues>
 VAL166  LYS551  ARG553  GLY616  TRP617  ASP618  TYR619  PRO620  LYS621  CYS622 
 ASP623  PHE694  ASN695  SER759  ASP760  ASP761  ALA762  ILE779  LEU786  VAL792 
 PHE793  MET794  SER795  GLU796  ALA797  LYS798  CYS799  TRP800  GLU811  SER814 

> <Gold.Protein.RotatedAtoms>
  150.6999  134.1444  159.4116 H   0  0  0  0  0  0  0  0  0  0  0  0  # atno 6907 bound_to 6896
  151.9427  135.0203  160.0546 H   0  0  0  0  0  0  0  0  0  0  0  0  # atno 6908 bound_to 6896
  152.2079  133.4854  159.5131 H   0  0  0  0  0  0  0  0  0  0  0  0  # atno 6909 bound_to 6896
  144.8855  139.5635  143.5823 H   0  0  0  0  0  0  0  0  0  0  0  0  # atno 7974 bound_to 7965
  156.1624  140.3137  155.8830 H   0  0  0  0  0  0  0  0  0  0  0  0  # atno 8008 bound_to 7997
  155.3755  140.0484  157.3062 H   0  0  0  0  0  0  0  0  0  0  0  0  # atno 8009 bound_to 7997
  154.5159  140.2181  155.9077 H   0  0  0  0  0  0  0  0  0  0  0  0  # atno 8010 bound_to 7997
  140.7159  143.3458  151.2260 H   0  0  0  0  0  0  0  0  0  0  0  0  # atno 10167 bound_to 10162
  157.3514  131.0951  151.0997 H   0  0  0  0  0  0  0  0  0  0  0  0  # atno 10718 bound_to 10713
  154.8747  135.3816  154.4317 H   0  0  0  0  0  0  0  0  0  0  0  0  # atno 10763 bound_to 10752
  153.5011  135.7030  153.5837 H   0  0  0  0  0  0  0  0  0  0  0  0  # atno 10764 bound_to 10752
  153.4168  135.3911  155.2052 H   0  0  0  0  0  0  0  0  0  0  0  0  # atno 10765 bound_to 10752
  140.1024  134.5063  155.8750 H   0  0  0  0  0  0  0  0  0  0  0  0  # atno 11005 bound_to 11000
  146.3022  139.7462  142.9083 LP  0  0  0  0  0  0  0  0  0  0  0  0  # atno 17320 bound_to 7965
  145.3876  141.0368  143.3142 LP  0  0  0  0  0  0  0  0  0  0  0  0  # atno 17321 bound_to 7965
  139.6977  143.9585  152.2890 LP  0  0  0  0  0  0  0  0  0  0  0  0  # atno 17342 bound_to 10162
  139.9268  144.6766  150.8404 LP  0  0  0  0  0  0  0  0  0  0  0  0  # atno 17343 bound_to 10162
  157.2171  130.6464  149.5796 LP  0  0  0  0  0  0  0  0  0  0  0  0  # atno 17370 bound_to 10713
  155.9722  130.4641  150.6206 LP  0  0  0  0  0  0  0  0  0  0  0  0  # atno 17371 bound_to 10713
  141.2109  133.6700  156.6544 LP  0  0  0  0  0  0  0  0  0  0  0  0  # atno 17394 bound_to 11000
  140.3202  134.8014  157.4246 LP  0  0  0  0  0  0  0  0  0  0  0  0  # atno 17395 bound_to 11000

$$$$
